0
                    3D
 Structure written by MMmdl.
170178  0  0  1  0            999 V2000
  -30.7311  -14.4507   20.6357 C   0  0  0  0  0  0
  -30.4252  -12.3317   19.3993 C   0  0  0  0  0  0
  -29.4919  -12.5347   18.1865 C   0  0  0  0  0  0
  -28.0085  -12.3860   18.5801 C   0  0  0  0  0  0
  -27.6559  -13.2021   19.8509 C   0  0  2  0  0  0
  -28.6894  -12.9196   20.9536 C   0  0  0  0  0  0
  -25.2588  -13.8152   20.5652 C   0  0  0  0  0  0
  -24.1823  -13.0431   20.9172 C   0  0  0  0  0  0
  -24.6357  -11.6905   20.8706 C   0  0  0  0  0  0
  -23.9015  -10.4308   21.0408 C   0  0  0  0  0  0
  -24.3589   -9.4242   21.9189 C   0  0  0  0  0  0
  -23.6317   -8.2242   22.0745 C   0  0  0  0  0  0
  -22.4305   -8.0279   21.3535 C   0  0  0  0  0  0
  -21.9905   -9.0228   20.4632 C   0  0  0  0  0  0
  -22.7199  -10.2131   20.3045 C   0  0  0  0  0  0
  -21.6841   -6.0758   22.5322 C   0  0  0  0  0  0
  -21.3988   -6.5651   23.8253 C   0  0  0  0  0  0
  -21.3657   -5.6807   24.9216 C   0  0  0  0  0  0
  -21.6045   -4.3068   24.7248 C   0  0  0  0  0  0
  -21.8820   -3.8169   23.4376 C   0  0  0  0  0  0
  -21.9182   -4.6981   22.3431 C   0  0  0  0  0  0
  -22.7865  -13.5251   21.1863 C   0  0  0  0  0  0
  -22.1665   -4.2193   21.1001 F   0  0  0  0  0  0
  -21.5639   -3.4541   25.7750 F   0  0  0  0  0  0
  -30.0246  -13.2936   20.4489 N   0  0  0  0  0  0
  -26.2969  -12.9291   20.3177 N   0  0  0  0  0  0
  -25.9254  -11.6454   20.5606 N   0  0  0  0  0  0
  -22.0455  -12.8262   22.0402 N   0  0  0  0  0  0
  -25.4334  -15.1861   20.4157 N   0  0  0  0  0  0
  -31.8233  -14.6099   20.0775 O   0  0  0  0  0  0
  -21.6632   -6.8893   21.4277 O   0  0  0  0  0  0
  -22.3567  -14.5582   20.6746 O   0  0  0  0  0  0
  -24.6087  -31.8672   23.2112 C   0  0  0  0  0  0
  -25.8993  -32.4797   23.8393 C   0  0  1  0  0  0
  -27.2309  -27.4471   20.0935 C   0  0  0  0  0  0
  -25.5843  -33.8600   24.2307 N   0  0  0  0  0  0
  -23.3957  -30.4890   21.5566 C   0  0  2  0  0  0
  -24.8422  -28.9576   20.1228 C   0  0  0  0  0  0
  -22.7378  -29.4625   22.5055 C   0  0  0  0  0  0
  -18.0243  -28.1325   22.8474 C   0  0  0  0  0  0
  -24.1464  -36.7313   23.2644 C   0  0  0  0  0  0
  -25.9243  -30.8353   21.3667 C   0  0  0  0  0  0
  -26.0026  -29.4730   20.7106 C   0  0  0  0  0  0
  -27.2032  -28.7291   20.6865 C   0  0  0  0  0  0
  -26.0507  -26.9425   19.5009 C   0  0  0  0  0  0
  -24.8583  -27.6903   19.5180 C   0  0  0  0  0  0
  -23.6000  -29.8182   20.1745 C   0  0  0  0  0  0
  -25.4092  -36.3109   24.0339 C   0  0  1  0  0  0
  -20.5829  -28.3603   23.1345 C   0  0  2  0  0  0
  -20.6727  -26.9346   22.5439 C   0  0  0  0  0  0
  -19.5735  -26.6357   21.5191 C   0  0  0  0  0  0
  -18.1902  -26.7897   22.1579 C   0  0  0  0  0  0
  -19.1488  -28.8795   23.2891 C   0  0  0  0  0  0
  -18.9403  -30.1407   23.8874 C   0  0  0  0  0  0
  -17.6414  -30.6557   24.0515 C   0  0  0  0  0  0
  -25.9014  -34.9459   23.5136 C   0  0  0  0  0  0
  -16.5293  -29.9034   23.6349 C   0  0  0  0  0  0
  -16.7225  -28.6436   23.0377 C   0  0  0  0  0  0
  -26.4468  -31.6590   25.0724 C   0  0  0  0  0  0
  -25.3765  -31.3679   26.1484 C   0  0  0  0  0  0
  -27.0280  -30.3012   24.6121 C   0  0  0  0  0  0
  -27.6040  -32.4345   25.7467 C   0  0  0  0  0  0
  -27.5575  -37.1800   24.8447 C   0  0  0  0  0  0
  -21.4108  -29.2960   22.3760 N   0  0  0  0  0  0
  -26.4287  -37.3798   23.9401 N   0  0  0  0  0  0
  -24.6608  -31.0797   22.1009 N   0  0  0  0  0  0
  -23.4169  -28.8189   23.3093 O   0  0  0  0  0  0
  -28.4104  -26.7367   20.0735 O   0  0  0  0  0  0
  -26.5627  -34.8897   22.4724 O   0  0  0  0  0  0
  -23.5290  -32.1452   23.7501 O   0  0  0  0  0  0
  -28.3044  -23.9601   18.2749 C   0  0  0  0  0  0
  -30.3692  -24.0919   19.5190 C   0  0  0  0  0  0
  -29.0191  -24.4613   19.3761 C   0  0  0  0  0  0
  -28.9474  -23.0946   17.3644 C   0  0  0  0  0  0
  -30.2929  -22.7266   17.6295 C   0  0  0  0  0  0
  -28.6527  -23.2684   14.8343 C   0  0  0  0  0  0
  -29.4521  -15.4567   22.5443 C   0  0  0  0  0  0
  -28.1650  -22.6217   16.1413 C   0  0  0  0  0  0
  -28.3406  -25.3461   20.4087 C   0  0  0  0  0  0
  -31.0787  -21.7344   16.7644 C   0  0  0  0  0  0
  -31.6431  -20.5299   17.5524 C   0  0  0  0  0  0
  -30.5756  -19.5108   18.0070 C   0  0  0  0  0  0
  -31.0222  -18.7298   19.2563 C   0  0  0  0  0  0
  -30.1473  -17.5168   19.6303 C   0  0  0  0  0  0
  -30.6353  -16.8961   20.9597 C   0  0  0  0  0  0
  -30.9908  -23.2514   18.6638 N   0  0  0  0  0  0
  -30.1350  -15.5255   21.2405 N   0  0  0  0  0  0
  -31.4649  -12.4413   19.0803 H   0  0  0  0  0  0
  -30.3582  -11.3087   19.7751 H   0  0  0  0  0  0
  -29.7506  -11.8291   17.3968 H   0  0  0  0  0  0
  -29.6486  -13.5273   17.7638 H   0  0  0  0  0  0
  -27.8026  -11.3284   18.7500 H   0  0  0  0  0  0
  -27.3723  -12.6875   17.7440 H   0  0  0  0  0  0
  -27.7128  -14.2601   19.5887 H   0  0  0  0  0  0
  -28.6862  -11.8523   21.1829 H   0  0  0  0  0  0
  -28.3759  -13.3765   21.8821 H   0  0  0  0  0  0
  -25.2737   -9.5761   22.4758 H   0  0  0  0  0  0
  -24.0081   -7.4616   22.7418 H   0  0  0  0  0  0
  -21.0859   -8.8704   19.8910 H   0  0  0  0  0  0
  -22.3651  -10.9656   19.6148 H   0  0  0  0  0  0
  -21.1951   -7.6151   23.9809 H   0  0  0  0  0  0
  -21.1485   -6.0494   25.9131 H   0  0  0  0  0  0
  -22.0596   -2.7634   23.2840 H   0  0  0  0  0  0
  -22.4029  -11.9903   22.4792 H   0  0  0  0  0  0
  -21.1055  -13.1291   22.2506 H   0  0  0  0  0  0
  -24.6826  -15.8540   20.5599 H   0  0  0  0  0  0
  -26.2984  -15.6251   20.1279 H   0  0  0  0  0  0
  -26.7032  -32.5519   23.1136 H   0  0  0  0  0  0
  -24.9871  -33.9740   25.0361 H   0  0  0  0  0  0
  -22.6828  -31.3034   21.4207 H   0  0  0  0  0  0
  -23.3718  -35.9646   23.3307 H   0  0  0  0  0  0
  -24.3540  -36.8937   22.2055 H   0  0  0  0  0  0
  -23.7219  -37.6514   23.6660 H   0  0  0  0  0  0
  -26.0477  -31.6096   20.6066 H   0  0  0  0  0  0
  -26.8071  -30.8776   21.9933 H   0  0  0  0  0  0
  -28.0997  -29.1307   21.1410 H   0  0  0  0  0  0
  -26.0396  -25.9748   19.0232 H   0  0  0  0  0  0
  -23.9647  -27.2852   19.0638 H   0  0  0  0  0  0
  -23.6884  -30.5862   19.4062 H   0  0  0  0  0  0
  -22.7292  -29.2242   19.8940 H   0  0  0  0  0  0
  -25.1287  -36.1987   25.0843 H   0  0  0  0  0  0
  -20.9867  -28.3112   24.1480 H   0  0  0  0  0  0
  -20.5627  -26.2151   23.3581 H   0  0  0  0  0  0
  -21.6598  -26.7408   22.1226 H   0  0  0  0  0  0
  -19.6903  -25.6292   21.1155 H   0  0  0  0  0  0
  -19.6695  -27.3181   20.6739 H   0  0  0  0  0  0
  -17.4202  -26.6610   21.3957 H   0  0  0  0  0  0
  -18.0312  -26.0026   22.8963 H   0  0  0  0  0  0
  -19.7888  -30.7195   24.2234 H   0  0  0  0  0  0
  -17.4967  -31.6258   24.5066 H   0  0  0  0  0  0
  -15.5285  -30.2878   23.7729 H   0  0  0  0  0  0
  -15.8623  -28.0697   22.7179 H   0  0  0  0  0  0
  -24.5888  -30.7100   25.7812 H   0  0  0  0  0  0
  -24.9020  -32.2823   26.5060 H   0  0  0  0  0  0
  -25.8150  -30.8740   27.0173 H   0  0  0  0  0  0
  -26.2815  -29.6758   24.1216 H   0  0  0  0  0  0
  -27.4053  -29.7270   25.4603 H   0  0  0  0  0  0
  -27.8650  -30.4271   23.9250 H   0  0  0  0  0  0
  -27.2637  -33.3610   26.2116 H   0  0  0  0  0  0
  -28.3798  -32.7008   25.0275 H   0  0  0  0  0  0
  -28.0779  -31.8457   26.5334 H   0  0  0  0  0  0
  -28.2618  -38.0082   24.7543 H   0  0  0  0  0  0
  -28.1071  -36.2639   24.6253 H   0  0  0  0  0  0
  -27.2294  -37.1437   25.8847 H   0  0  0  0  0  0
  -20.9279  -29.8601   21.6902 H   0  0  0  0  0  0
  -26.0172  -38.2858   24.1461 H   0  0  0  0  0  0
  -27.2673  -24.2274   18.1313 H   0  0  0  0  0  0
  -30.9628  -24.4669   20.3423 H   0  0  0  0  0  0
  -28.0077  -22.9896   14.0009 H   0  0  0  0  0  0
  -29.6659  -22.9636   14.5717 H   0  0  0  0  0  0
  -28.6448  -24.3568   14.9019 H   0  0  0  0  0  0
  -29.7435  -16.2440   23.2425 H   0  0  0  0  0  0
  -29.6780  -14.5299   23.0761 H   0  0  0  0  0  0
  -28.3740  -15.5436   22.3930 H   0  0  0  0  0  0
  -27.1111  -22.8712   16.2717 H   0  0  0  0  0  0
  -28.1876  -21.5336   16.0763 H   0  0  0  0  0  0
  -27.3264  -24.9780   20.5780 H   0  0  0  0  0  0
  -28.8465  -25.2134   21.3647 H   0  0  0  0  0  0
  -31.8967  -22.2772   16.2907 H   0  0  0  0  0  0
  -30.4723  -21.3471   15.9480 H   0  0  0  0  0  0
  -32.2208  -20.8955   18.4044 H   0  0  0  0  0  0
  -32.3693  -20.0048   16.9257 H   0  0  0  0  0  0
  -30.3665  -18.8288   17.1809 H   0  0  0  0  0  0
  -29.6344  -20.0184   18.2250 H   0  0  0  0  0  0
  -31.0475  -19.4247   20.0967 H   0  0  0  0  0  0
  -32.0506  -18.3884   19.1173 H   0  0  0  0  0  0
  -30.1798  -16.7864   18.8203 H   0  0  0  0  0  0
  -29.1042  -17.8249   19.7349 H   0  0  0  0  0  0
  -30.3615  -17.5983   21.7466 H   0  0  0  0  0  0
  -31.7274  -16.8918   20.9882 H   0  0  0  0  0  0
  1 25  1  0  0  0
  1 30  2  0  0  0
  1 87  1  0  0  0
  2  3  1  0  0  0
  2 25  1  0  0  0
  2 88  1  0  0  0
  2 89  1  0  0  0
  3  4  1  0  0  0
  3 90  1  0  0  0
  3 91  1  0  0  0
  4  5  1  0  0  0
  4 92  1  0  0  0
  4 93  1  0  0  0
  5  6  1  0  0  0
  5 26  1  0  0  0
  5 94  1  0  0  0
  6 25  1  0  0  0
  6 95  1  0  0  0
  6 96  1  0  0  0
  7  8  2  0  0  0
  7 26  1  0  0  0
  7 29  1  0  0  0
  8  9  1  0  0  0
  8 22  1  0  0  0
  9 10  1  0  0  0
  9 27  2  0  0  0
 10 11  2  0  0  0
 10 15  1  0  0  0
 11 12  1  0  0  0
 11 97  1  0  0  0
 12 13  2  0  0  0
 12 98  1  0  0  0
 13 14  1  0  0  0
 13 31  1  0  0  0
 14 15  2  0  0  0
 14 99  1  0  0  0
 15100  1  0  0  0
 16 17  2  0  0  0
 16 21  1  0  0  0
 16 31  1  0  0  0
 17 18  1  0  0  0
 17101  1  0  0  0
 18 19  2  0  0  0
 18102  1  0  0  0
 19 20  1  0  0  0
 19 24  1  0  0  0
 20 21  2  0  0  0
 20103  1  0  0  0
 21 23  1  0  0  0
 22 28  1  0  0  0
 22 32  2  0  0  0
 26 27  1  0  0  0
 28104  1  0  0  0
 28105  1  0  0  0
 29106  1  0  0  0
 29107  1  0  0  0
 33 34  1  0  0  0
 33 66  1  0  0  0
 33 70  2  0  0  0
 34 36  1  0  0  0
 34 59  1  0  0  0
 34108  1  0  0  0
 35 44  2  0  0  0
 35 45  1  0  0  0
 35 68  1  0  0  0
 36 56  1  0  0  0
 36109  1  0  0  0
 37 39  1  0  0  0
 37 47  1  0  0  0
 37 66  1  0  0  0
 37110  1  0  0  0
 38 43  2  0  0  0
 38 46  1  0  0  0
 38 47  1  0  0  0
 39 64  1  0  0  0
 39 67  2  0  0  0
 40 52  1  0  0  0
 40 53  2  0  0  0
 40 58  1  0  0  0
 41111  1  0  0  0
 41112  1  0  0  0
 41113  1  0  0  0
 41 48  1  0  0  0
 42 43  1  0  0  0
 42 66  1  0  0  0
 42114  1  0  0  0
 42115  1  0  0  0
 43 44  1  0  0  0
 44116  1  0  0  0
 45 46  2  0  0  0
 45117  1  0  0  0
 46118  1  0  0  0
 47119  1  0  0  0
 47120  1  0  0  0
 48 56  1  0  0  0
 48 65  1  0  0  0
 48121  1  0  0  0
 49 50  1  0  0  0
 49 53  1  0  0  0
 49 64  1  0  0  0
 49122  1  0  0  0
 50 51  1  0  0  0
 50123  1  0  0  0
 50124  1  0  0  0
 51 52  1  0  0  0
 51125  1  0  0  0
 51126  1  0  0  0
 52127  1  0  0  0
 52128  1  0  0  0
 53 54  1  0  0  0
 54 55  2  0  0  0
 54129  1  0  0  0
 55 57  1  0  0  0
 55130  1  0  0  0
 56 69  2  0  0  0
 57 58  2  0  0  0
 57131  1  0  0  0
 58132  1  0  0  0
 59 60  1  0  0  0
 59 61  1  0  0  0
 59 62  1  0  0  0
 60133  1  0  0  0
 60134  1  0  0  0
 60135  1  0  0  0
 61136  1  0  0  0
 61137  1  0  0  0
 61138  1  0  0  0
 62139  1  0  0  0
 62140  1  0  0  0
 62141  1  0  0  0
 63 65  1  0  0  0
 63142  1  0  0  0
 63143  1  0  0  0
 63144  1  0  0  0
 64145  1  0  0  0
 65146  1  0  0  0
 68 79  1  0  0  0
 71 73  2  0  0  0
 71 74  1  0  0  0
 71147  1  0  0  0
 72 73  1  0  0  0
 72 86  2  0  0  0
 72148  1  0  0  0
 73 79  1  0  0  0
 74 75  2  0  0  0
 74 78  1  0  0  0
 75 80  1  0  0  0
 75 86  1  0  0  0
 76 78  1  0  0  0
 76149  1  0  0  0
 76150  1  0  0  0
 76151  1  0  0  0
 77 87  1  0  0  0
 77152  1  0  0  0
 77153  1  0  0  0
 77154  1  0  0  0
 78155  1  0  0  0
 78156  1  0  0  0
 79157  1  0  0  0
 79158  1  0  0  0
 80 81  1  0  0  0
 80159  1  0  0  0
 80160  1  0  0  0
 81 82  1  0  0  0
 81161  1  0  0  0
 81162  1  0  0  0
 82 83  1  0  0  0
 82163  1  0  0  0
 82164  1  0  0  0
 83 84  1  0  0  0
 83165  1  0  0  0
 83166  1  0  0  0
 84 85  1  0  0  0
 84167  1  0  0  0
 84168  1  0  0  0
 85 87  1  0  0  0
 85169  1  0  0  0
 85170  1  0  0  0
M  ISO  4   1 100  68 101  79 101  87 100
M  END
> <chiral flag>
0

> <version>
0

> <s_m_source_file>
/data/baiqing/PycharmProjects/Reinvent-master-3.2/result/LINK_invent/BTK/process_docking_weight1_custom_sum_contain_oxygen_bond_distance_aromatic_linkinvent_7_9_3/rearranged_h_0042.sdf

> <i_m_source_file_index>
1

> <r_mmod_Potential_Energy-OPLS-2005>
14.7279567718506

> <r_mmod_Stretch_Energy-OPLS-2005>
41.1728744506836

> <r_mmod_Bend_Energy-OPLS-2005>
117.09326171875

> <r_mmod_Torsional_Energy-OPLS-2005>
274.836120605469

> <r_mmod_Improper_Torsional_Energy-OPLS-2005>
7.01018762588501

> <r_mmod_Van_der_Waal_Energy-OPLS-2005>
168.16242980957

> <r_mmod_Electrostatic_Energy-OPLS-2005>
-401.032531738281

> <r_mmod_Solvation_Energy-OPLS-2005>
-203.555816650391

> <b_mmod_Minimization_Converged-OPLS-2005>
0

> <r_mmod_RMS_Derivative-OPLS-2005>
5.01960134506226

$$$$
1
                    3D
 Structure written by MMmdl.
178186  0  0  1  0            999 V2000
  -30.7756  -14.3813   20.5414 C   0  0  0  0  0  0
  -30.3830  -12.2411   19.4118 C   0  0  0  0  0  0
  -29.4802  -12.5029   18.1918 C   0  0  0  0  0  0
  -27.9967  -12.3985   18.5944 C   0  0  0  0  0  0
  -27.6593  -13.2162   19.8733 C   0  0  2  0  0  0
  -28.7037  -12.9996   20.9946 C   0  0  0  0  0  0
  -25.2539  -13.8160   20.5644 C   0  0  0  0  0  0
  -24.1828  -13.0426   20.9133 C   0  0  0  0  0  0
  -24.6395  -11.6911   20.8708 C   0  0  0  0  0  0
  -23.9034  -10.4306   21.0390 C   0  0  0  0  0  0
  -24.3616   -9.4233   21.9186 C   0  0  0  0  0  0
  -23.6309   -8.2257   22.0757 C   0  0  0  0  0  0
  -22.4279   -8.0272   21.3543 C   0  0  0  0  0  0
  -21.9901   -9.0234   20.4635 C   0  0  0  0  0  0
  -22.7197  -10.2127   20.3033 C   0  0  0  0  0  0
  -21.6846   -6.0747   22.5275 C   0  0  0  0  0  0
  -21.4036   -6.5657   23.8212 C   0  0  0  0  0  0
  -21.3662   -5.6814   24.9179 C   0  0  0  0  0  0
  -21.6014   -4.3078   24.7235 C   0  0  0  0  0  0
  -21.8816   -3.8168   23.4365 C   0  0  0  0  0  0
  -21.9215   -4.6983   22.3424 C   0  0  0  0  0  0
  -22.7859  -13.5204   21.1844 C   0  0  0  0  0  0
  -22.1676   -4.2179   21.0997 F   0  0  0  0  0  0
  -21.5645   -3.4545   25.7754 F   0  0  0  0  0  0
  -30.0369  -13.2480   20.4276 N   0  0  0  0  0  0
  -26.3005  -12.9383   20.3347 N   0  0  0  0  0  0
  -25.9329  -11.6525   20.5711 N   0  0  0  0  0  0
  -22.0569  -12.8170   22.0396 N   0  0  0  0  0  0
  -25.4170  -15.1890   20.4081 N   0  0  0  0  0  0
  -31.9240  -14.4728   20.1008 O   0  0  0  0  0  0
  -21.6625   -6.8870   21.4230 O   0  0  0  0  0  0
  -22.3542  -14.5557   20.6754 O   0  0  0  0  0  0
  -24.6130  -31.8745   23.2159 C   0  0  0  0  0  0
  -25.9021  -32.4870   23.8435 C   0  0  1  0  0  0
  -27.2122  -27.4337   20.0662 C   0  0  0  0  0  0
  -25.5897  -33.8661   24.2329 N   0  0  0  0  0  0
  -23.3985  -30.5033   21.5627 C   0  0  2  0  0  0
  -24.8379  -28.9911   20.1150 C   0  0  0  0  0  0
  -22.7389  -29.4685   22.5028 C   0  0  0  0  0  0
  -18.0264  -28.1386   22.8496 C   0  0  0  0  0  0
  -24.1491  -36.7317   23.2630 C   0  0  0  0  0  0
  -25.9358  -30.8292   21.3832 C   0  0  0  0  0  0
  -26.0046  -29.4729   20.7179 C   0  0  0  0  0  0
  -27.1961  -28.7014   20.6984 C   0  0  0  0  0  0
  -26.0132  -26.9956   19.4392 C   0  0  0  0  0  0
  -24.8355  -27.7485   19.4777 C   0  0  0  0  0  0
  -23.6028  -29.8548   20.1732 C   0  0  0  0  0  0
  -25.4116  -36.3116   24.0326 C   0  0  1  0  0  0
  -20.5854  -28.3660   23.1327 C   0  0  2  0  0  0
  -20.6763  -26.9405   22.5406 C   0  0  0  0  0  0
  -19.5749  -26.6393   21.5205 C   0  0  0  0  0  0
  -18.1926  -26.7929   22.1613 C   0  0  0  0  0  0
  -19.1507  -28.8844   23.2912 C   0  0  0  0  0  0
  -18.9447  -30.1458   23.8916 C   0  0  0  0  0  0
  -17.6445  -30.6611   24.0561 C   0  0  0  0  0  0
  -25.9055  -34.9499   23.5117 C   0  0  0  0  0  0
  -16.5338  -29.9107   23.6349 C   0  0  0  0  0  0
  -16.7244  -28.6521   23.0379 C   0  0  0  0  0  0
  -26.4448  -31.6664   25.0779 C   0  0  0  0  0  0
  -25.3680  -31.3780   26.1501 C   0  0  0  0  0  0
  -27.0306  -30.3096   24.6223 C   0  0  0  0  0  0
  -27.6033  -32.4398   25.7531 C   0  0  0  0  0  0
  -27.5587  -37.1808   24.8459 C   0  0  0  0  0  0
  -21.4123  -29.3027   22.3737 N   0  0  0  0  0  0
  -26.4301  -37.3799   23.9406 N   0  0  0  0  0  0
  -24.6662  -31.0848   22.1090 N   0  0  0  0  0  0
  -23.4166  -28.8193   23.3042 O   0  0  0  0  0  0
  -28.3564  -26.6366   20.0908 O   0  0  0  0  0  0
  -26.5616  -34.8942   22.4684 O   0  0  0  0  0  0
  -23.5324  -32.1516   23.7564 O   0  0  0  0  0  0
  -28.1255  -20.9502   18.2815 C   0  0  0  0  0  0
  -26.9165  -21.4173   18.7371 C   0  0  0  0  0  0
  -28.4998  -22.8336   19.4309 C   0  0  0  0  0  0
  -28.5076  -20.1930   15.9078 C   0  0  0  0  0  0
  -23.1444  -19.7816   16.7422 C   0  0  0  0  0  0
  -28.4219  -19.7779   17.3825 C   0  0  0  0  0  0
  -25.5175  -20.9231   18.5522 C   0  0  0  0  0  0
  -29.0964  -24.1235   19.9768 C   0  0  0  0  0  0
  -24.3269  -20.6510   16.2857 C   0  0  0  0  0  0
  -24.8117  -21.6262   17.3731 C   0  0  0  0  0  0
  -30.3159  -19.2163   20.0208 C   0  0  0  0  0  0
  -30.9875  -20.6315   20.0398 C   0  0  0  0  0  0
  -29.9352  -18.0513   20.9921 C   0  0  0  0  0  0
  -30.5413  -21.5346   18.8530 C   0  0  0  0  0  0
  -30.7711  -16.7919   20.6816 C   0  0  0  0  0  0
  -28.1189  -25.2756   19.6779 C   0  0  0  0  0  0
  -29.0874  -21.7712   18.8458 N   0  0  0  0  0  0
  -27.1907  -22.5490   19.4485 N   0  3  0  0  0  0
  -30.1421  -15.4913   20.9500 N   0  0  0  0  0  0
  -31.4334  -12.2581   19.1195 H   0  0  0  0  0  0
  -30.2051  -11.2349   19.8012 H   0  0  0  0  0  0
  -29.7113  -11.7994   17.3890 H   0  0  0  0  0  0
  -29.6779  -13.4969   17.7882 H   0  0  0  0  0  0
  -27.7545  -11.3446   18.7460 H   0  0  0  0  0  0
  -27.3678  -12.7408   17.7710 H   0  0  0  0  0  0
  -27.6997  -14.2668   19.5858 H   0  0  0  0  0  0
  -28.6510  -11.9745   21.3696 H   0  0  0  0  0  0
  -28.4930  -13.6386   21.8517 H   0  0  0  0  0  0
  -25.2797   -9.5767   22.4705 H   0  0  0  0  0  0
  -24.0076   -7.4669   22.7472 H   0  0  0  0  0  0
  -21.0847   -8.8719   19.8928 H   0  0  0  0  0  0
  -22.3655  -10.9659   19.6128 H   0  0  0  0  0  0
  -21.1998   -7.6164   23.9720 H   0  0  0  0  0  0
  -21.1479   -6.0544   25.9075 H   0  0  0  0  0  0
  -22.0585   -2.7628   23.2836 H   0  0  0  0  0  0
  -22.4266  -11.9830   22.4738 H   0  0  0  0  0  0
  -21.1162  -13.1159   22.2592 H   0  0  0  0  0  0
  -24.6388  -15.8301   20.5077 H   0  0  0  0  0  0
  -26.2707  -15.6476   20.1204 H   0  0  0  0  0  0
  -26.7078  -32.5606   23.1196 H   0  0  0  0  0  0
  -24.9976  -33.9831   25.0414 H   0  0  0  0  0  0
  -22.6847  -31.3204   21.4329 H   0  0  0  0  0  0
  -23.3778  -35.9635   23.3307 H   0  0  0  0  0  0
  -24.3532  -36.8941   22.2035 H   0  0  0  0  0  0
  -23.7245  -37.6519   23.6649 H   0  0  0  0  0  0
  -26.0617  -31.5988   20.6215 H   0  0  0  0  0  0
  -26.8174  -30.8636   22.0123 H   0  0  0  0  0  0
  -28.0929  -29.0642   21.1794 H   0  0  0  0  0  0
  -25.9306  -26.0623   18.9046 H   0  0  0  0  0  0
  -23.9409  -27.3699   19.0022 H   0  0  0  0  0  0
  -23.7136  -30.6371   19.4216 H   0  0  0  0  0  0
  -22.7252  -29.2759   19.8780 H   0  0  0  0  0  0
  -25.1305  -36.1950   25.0822 H   0  0  0  0  0  0
  -20.9925  -28.3228   24.1460 H   0  0  0  0  0  0
  -20.5690  -26.2272   23.3581 H   0  0  0  0  0  0
  -21.6639  -26.7494   22.1184 H   0  0  0  0  0  0
  -19.6916  -25.6301   21.1259 H   0  0  0  0  0  0
  -19.6706  -27.3188   20.6722 H   0  0  0  0  0  0
  -17.4182  -26.6678   21.4023 H   0  0  0  0  0  0
  -18.0336  -26.0082   22.9024 H   0  0  0  0  0  0
  -19.7922  -30.7274   24.2305 H   0  0  0  0  0  0
  -17.5014  -31.6300   24.5134 H   0  0  0  0  0  0
  -15.5341  -30.3018   23.7696 H   0  0  0  0  0  0
  -15.8640  -28.0849   22.7118 H   0  0  0  0  0  0
  -24.5812  -30.7207   25.7773 H   0  0  0  0  0  0
  -24.8922  -32.2958   26.4972 H   0  0  0  0  0  0
  -25.7972  -30.8863   27.0239 H   0  0  0  0  0  0
  -26.2901  -29.6851   24.1224 H   0  0  0  0  0  0
  -27.3976  -29.7346   25.4740 H   0  0  0  0  0  0
  -27.8757  -30.4411   23.9468 H   0  0  0  0  0  0
  -27.2646  -33.3677   26.2153 H   0  0  0  0  0  0
  -28.3786  -32.7013   25.0315 H   0  0  0  0  0  0
  -28.0758  -31.8510   26.5402 H   0  0  0  0  0  0
  -28.2604  -38.0106   24.7536 H   0  0  0  0  0  0
  -28.1088  -36.2653   24.6261 H   0  0  0  0  0  0
  -27.2295  -37.1424   25.8853 H   0  0  0  0  0  0
  -20.9262  -29.8751   21.6971 H   0  0  0  0  0  0
  -26.0200  -38.2874   24.1436 H   0  0  0  0  0  0
  -28.7168  -19.3305   15.2739 H   0  0  0  0  0  0
  -29.3050  -20.9170   15.7455 H   0  0  0  0  0  0
  -27.5779  -20.6463   15.5633 H   0  0  0  0  0  0
  -22.8536  -19.0830   15.9586 H   0  0  0  0  0  0
  -22.2718  -20.3882   16.9860 H   0  0  0  0  0  0
  -23.3952  -19.1912   17.6255 H   0  0  0  0  0  0
  -27.6500  -19.0195   17.5108 H   0  0  0  0  0  0
  -29.3554  -19.2995   17.6658 H   0  0  0  0  0  0
  -24.9558  -21.0875   19.4735 H   0  0  0  0  0  0
  -25.5408  -19.8404   18.4181 H   0  0  0  0  0  0
  -30.0561  -24.2995   19.4945 H   0  0  0  0  0  0
  -29.2548  -23.9982   21.0478 H   0  0  0  0  0  0
  -24.0348  -21.2169   15.4000 H   0  0  0  0  0  0
  -25.1545  -20.0152   15.9741 H   0  0  0  0  0  0
  -25.4769  -22.3628   16.9217 H   0  0  0  0  0  0
  -23.9654  -22.2077   17.7433 H   0  0  0  0  0  0
  -31.2227  -19.0452   20.5953 H   0  0  0  0  0  0
  -29.4093  -19.7015   20.3824 H   0  0  0  0  0  0
  -32.0805  -20.5900   19.9586 H   0  0  0  0  0  0
  -30.7979  -21.1433   20.9851 H   0  0  0  0  0  0
  -28.8875  -17.7880   20.8401 H   0  0  0  0  0  0
  -30.0204  -18.3292   22.0480 H   0  0  0  0  0  0
  -30.8091  -21.0802   17.8995 H   0  0  0  0  0  0
  -31.0667  -22.4870   18.8742 H   0  0  0  0  0  0
  -31.7272  -16.8425   21.2064 H   0  0  0  0  0  0
  -31.0044  -16.8203   19.6136 H   0  0  0  0  0  0
  -27.2085  -24.9536   20.1833 H   0  0  0  0  0  0
  -27.9387  -25.2791   18.6021 H   0  0  0  0  0  0
  -26.4848  -23.1182   19.9021 H   0  0  0  0  0  0
  -29.1744  -15.4335   21.2361 H   0  0  0  0  0  0
  1 25  1  0  0  0
  1 30  2  0  0  0
  1 89  1  0  0  0
  2  3  1  0  0  0
  2 25  1  0  0  0
  2 90  1  0  0  0
  2 91  1  0  0  0
  3  4  1  0  0  0
  3 92  1  0  0  0
  3 93  1  0  0  0
  4  5  1  0  0  0
  4 94  1  0  0  0
  4 95  1  0  0  0
  5  6  1  0  0  0
  5 26  1  0  0  0
  5 96  1  0  0  0
  6 25  1  0  0  0
  6 97  1  0  0  0
  6 98  1  0  0  0
  7  8  2  0  0  0
  7 26  1  0  0  0
  7 29  1  0  0  0
  8  9  1  0  0  0
  8 22  1  0  0  0
  9 10  1  0  0  0
  9 27  2  0  0  0
 10 11  2  0  0  0
 10 15  1  0  0  0
 11 12  1  0  0  0
 11 99  1  0  0  0
 12 13  2  0  0  0
 12100  1  0  0  0
 13 14  1  0  0  0
 13 31  1  0  0  0
 14 15  2  0  0  0
 14101  1  0  0  0
 15102  1  0  0  0
 16 17  2  0  0  0
 16 21  1  0  0  0
 16 31  1  0  0  0
 17 18  1  0  0  0
 17103  1  0  0  0
 18 19  2  0  0  0
 18104  1  0  0  0
 19 20  1  0  0  0
 19 24  1  0  0  0
 20 21  2  0  0  0
 20105  1  0  0  0
 21 23  1  0  0  0
 22 28  1  0  0  0
 22 32  2  0  0  0
 26 27  1  0  0  0
 28106  1  0  0  0
 28107  1  0  0  0
 29108  1  0  0  0
 29109  1  0  0  0
 33 34  1  0  0  0
 33 66  1  0  0  0
 33 70  2  0  0  0
 34 36  1  0  0  0
 34 59  1  0  0  0
 34110  1  0  0  0
 35 44  2  0  0  0
 35 45  1  0  0  0
 35 68  1  0  0  0
 36 56  1  0  0  0
 36111  1  0  0  0
 37 39  1  0  0  0
 37 47  1  0  0  0
 37 66  1  0  0  0
 37112  1  0  0  0
 38 43  2  0  0  0
 38 46  1  0  0  0
 38 47  1  0  0  0
 39 64  1  0  0  0
 39 67  2  0  0  0
 40 52  1  0  0  0
 40 53  2  0  0  0
 40 58  1  0  0  0
 41113  1  0  0  0
 41114  1  0  0  0
 41115  1  0  0  0
 41 48  1  0  0  0
 42 43  1  0  0  0
 42 66  1  0  0  0
 42116  1  0  0  0
 42117  1  0  0  0
 43 44  1  0  0  0
 44118  1  0  0  0
 45 46  2  0  0  0
 45119  1  0  0  0
 46120  1  0  0  0
 47121  1  0  0  0
 47122  1  0  0  0
 48 56  1  0  0  0
 48 65  1  0  0  0
 48123  1  0  0  0
 49 50  1  0  0  0
 49 53  1  0  0  0
 49 64  1  0  0  0
 49124  1  0  0  0
 50 51  1  0  0  0
 50125  1  0  0  0
 50126  1  0  0  0
 51 52  1  0  0  0
 51127  1  0  0  0
 51128  1  0  0  0
 52129  1  0  0  0
 52130  1  0  0  0
 53 54  1  0  0  0
 54 55  2  0  0  0
 54131  1  0  0  0
 55 57  1  0  0  0
 55132  1  0  0  0
 56 69  2  0  0  0
 57 58  2  0  0  0
 57133  1  0  0  0
 58134  1  0  0  0
 59 60  1  0  0  0
 59 61  1  0  0  0
 59 62  1  0  0  0
 60135  1  0  0  0
 60136  1  0  0  0
 60137  1  0  0  0
 61138  1  0  0  0
 61139  1  0  0  0
 61140  1  0  0  0
 62141  1  0  0  0
 62142  1  0  0  0
 62143  1  0  0  0
 63 65  1  0  0  0
 63144  1  0  0  0
 63145  1  0  0  0
 63146  1  0  0  0
 64147  1  0  0  0
 65148  1  0  0  0
 68 86  1  0  0  0
 71 72  2  0  0  0
 71 76  1  0  0  0
 71 87  1  0  0  0
 72 77  1  0  0  0
 72 88  1  0  0  0
 73 78  1  0  0  0
 73 87  1  0  0  0
 73 88  2  0  0  0
 74 76  1  0  0  0
 74149  1  0  0  0
 74150  1  0  0  0
 74151  1  0  0  0
 75 79  1  0  0  0
 75152  1  0  0  0
 75153  1  0  0  0
 75154  1  0  0  0
 76155  1  0  0  0
 76156  1  0  0  0
 77 80  1  0  0  0
 77157  1  0  0  0
 77158  1  0  0  0
 78 86  1  0  0  0
 78159  1  0  0  0
 78160  1  0  0  0
 79 80  1  0  0  0
 79161  1  0  0  0
 79162  1  0  0  0
 80163  1  0  0  0
 80164  1  0  0  0
 81 82  1  0  0  0
 81 83  1  0  0  0
 81165  1  0  0  0
 81166  1  0  0  0
 82 84  1  0  0  0
 82167  1  0  0  0
 82168  1  0  0  0
 83 85  1  0  0  0
 83169  1  0  0  0
 83170  1  0  0  0
 84 87  1  0  0  0
 84171  1  0  0  0
 84172  1  0  0  0
 85 89  1  0  0  0
 85173  1  0  0  0
 85174  1  0  0  0
 86175  1  0  0  0
 86176  1  0  0  0
 88177  1  0  0  0
 89178  1  0  0  0
M  CHG  1  88   1
M  ISO  4   1 100  68 101  86 101  89 100
M  END
> <chiral flag>
0

> <version>
0

> <s_m_source_file>
/data/baiqing/PycharmProjects/Reinvent-master-3.2/result/LINK_invent/BTK/process_docking_weight1_custom_sum_contain_oxygen_bond_distance_aromatic_linkinvent_7_9_3/rearranged_h_0042.sdf

> <i_m_source_file_index>
2

> <r_mmod_Potential_Energy-OPLS-2005>
259.584564208984

> <r_mmod_Stretch_Energy-OPLS-2005>
41.164363861084

> <r_mmod_Bend_Energy-OPLS-2005>
357.594268798828

> <r_mmod_Torsional_Energy-OPLS-2005>
260.511901855469

> <r_mmod_Improper_Torsional_Energy-OPLS-2005>
5.36586475372314

> <r_mmod_Van_der_Waal_Energy-OPLS-2005>
170.507705688477

> <r_mmod_Electrostatic_Energy-OPLS-2005>
-192.987243652344

> <r_mmod_Solvation_Energy-OPLS-2005>
-402.729766845703

> <b_mmod_Minimization_Converged-OPLS-2005>
0

> <r_mmod_RMS_Derivative-OPLS-2005>
5.30407094955444

$$$$
2
                    3D
 Structure written by MMmdl.
163171  0  0  1  0            999 V2000
  -30.6876  -14.5803   20.5296 C   0  0  0  0  0  0
  -30.4278  -12.3650   19.4572 C   0  0  0  0  0  0
  -29.5033  -12.4953   18.2292 C   0  0  0  0  0  0
  -28.0310  -12.3247   18.6478 C   0  0  0  0  0  0
  -27.6528  -13.2145   19.8631 C   0  0  2  0  0  0
  -28.6954  -13.0860   20.9968 C   0  0  0  0  0  0
  -25.2557  -13.8176   20.5666 C   0  0  0  0  0  0
  -24.1834  -13.0434   20.9184 C   0  0  0  0  0  0
  -24.6401  -11.6902   20.8747 C   0  0  0  0  0  0
  -23.9070  -10.4285   21.0425 C   0  0  0  0  0  0
  -24.3620   -9.4195   21.9204 C   0  0  0  0  0  0
  -23.6289   -8.2229   22.0769 C   0  0  0  0  0  0
  -22.4270   -8.0279   21.3557 C   0  0  0  0  0  0
  -21.9910   -9.0259   20.4662 C   0  0  0  0  0  0
  -22.7242  -10.2135   20.3068 C   0  0  0  0  0  0
  -21.6850   -6.0733   22.5286 C   0  0  0  0  0  0
  -21.4015   -6.5640   23.8218 C   0  0  0  0  0  0
  -21.3664   -5.6797   24.9185 C   0  0  0  0  0  0
  -21.6037   -4.3054   24.7237 C   0  0  0  0  0  0
  -21.8825   -3.8148   23.4359 C   0  0  0  0  0  0
  -21.9187   -4.6964   22.3414 C   0  0  0  0  0  0
  -22.7855  -13.5215   21.1837 C   0  0  0  0  0  0
  -22.1646   -4.2155   21.0992 F   0  0  0  0  0  0
  -21.5629   -3.4532   25.7743 F   0  0  0  0  0  0
  -30.0167  -13.3939   20.4297 N   0  0  0  0  0  0
  -26.2982  -12.9345   20.3321 N   0  0  0  0  0  0
  -25.9327  -11.6503   20.5786 N   0  0  0  0  0  0
  -22.0493  -12.8229   22.0407 N   0  0  0  0  0  0
  -25.4269  -15.1900   20.4060 N   0  0  0  0  0  0
  -31.8481  -14.6994   20.1306 O   0  0  0  0  0  0
  -21.6633   -6.8876   21.4247 O   0  0  0  0  0  0
  -22.3538  -14.5510   20.6671 O   0  0  0  0  0  0
  -24.6200  -31.8650   23.2056 C   0  0  0  0  0  0
  -25.9074  -32.4809   23.8376 C   0  0  1  0  0  0
  -27.2303  -27.3846   20.1093 C   0  0  0  0  0  0
  -25.5921  -33.8604   24.2328 N   0  0  0  0  0  0
  -23.4112  -30.4898   21.5460 C   0  0  2  0  0  0
  -24.8572  -28.9554   20.1102 C   0  0  0  0  0  0
  -22.7444  -29.4657   22.4951 C   0  0  0  0  0  0
  -18.0287  -28.1376   22.8500 C   0  0  0  0  0  0
  -24.1496  -36.7309   23.2640 C   0  0  0  0  0  0
  -25.9446  -30.8226   21.3602 C   0  0  0  0  0  0
  -26.0213  -29.4519   20.7098 C   0  0  0  0  0  0
  -27.2100  -28.6755   20.7028 C   0  0  0  0  0  0
  -26.0421  -26.9259   19.4880 C   0  0  0  0  0  0
  -24.8667  -27.6961   19.4914 C   0  0  0  0  0  0
  -23.6205  -29.8237   20.1611 C   0  0  0  0  0  0
  -25.4108  -36.3098   24.0347 C   0  0  1  0  0  0
  -20.5887  -28.3672   23.1303 C   0  0  2  0  0  0
  -20.6776  -26.9407   22.5412 C   0  0  0  0  0  0
  -19.5756  -26.6392   21.5211 C   0  0  0  0  0  0
  -18.1931  -26.7930   22.1614 C   0  0  0  0  0  0
  -19.1536  -28.8841   23.2905 C   0  0  0  0  0  0
  -18.9455  -30.1439   23.8928 C   0  0  0  0  0  0
  -17.6449  -30.6578   24.0577 C   0  0  0  0  0  0
  -25.9029  -34.9467   23.5129 C   0  0  0  0  0  0
  -16.5352  -29.9073   23.6324 C   0  0  0  0  0  0
  -16.7268  -28.6493   23.0354 C   0  0  0  0  0  0
  -26.4490  -31.6585   25.0706 C   0  0  0  0  0  0
  -25.3763  -31.3695   26.1460 C   0  0  0  0  0  0
  -27.0314  -30.3029   24.6070 C   0  0  0  0  0  0
  -27.6079  -32.4292   25.7466 C   0  0  0  0  0  0
  -27.5591  -37.1802   24.8467 C   0  0  0  0  0  0
  -21.4168  -29.3048   22.3705 N   0  0  0  0  0  0
  -26.4296  -37.3783   23.9418 N   0  0  0  0  0  0
  -24.6781  -31.0730   22.0963 N   0  0  0  0  0  0
  -23.4202  -28.8183   23.2990 O   0  0  0  0  0  0
  -28.3785  -26.5984   20.1630 O   0  0  0  0  0  0
  -26.5574  -34.8919   22.4677 O   0  0  0  0  0  0
  -23.5378  -32.1401   23.7417 O   0  0  0  0  0  0
  -30.3854  -21.5604   17.1636 C   0  0  0  0  0  0
  -29.8512  -23.2237   19.2240 C   0  0  0  0  0  0
  -30.3793  -23.6837   17.9902 C   0  0  0  0  0  0
  -29.7239  -21.7959   19.3479 C   0  0  0  0  0  0
  -32.2306  -25.4363   17.9146 C   0  0  0  0  0  0
  -29.4655  -24.2815   20.2866 C   0  0  0  0  0  0
  -30.7411  -25.1408   17.6926 C   0  0  0  0  0  0
  -29.2916  -20.9811   20.5884 C   0  0  0  0  0  0
  -30.1580  -19.6959   20.9183 C   0  0  0  0  0  0
  -29.5468  -18.2583   20.6820 C   0  0  0  0  0  0
  -30.5080  -17.0670   21.0631 C   0  0  0  0  0  0
  -28.2437  -25.1775   19.8839 C   0  0  0  0  0  0
  -30.6426  -22.8437   16.9774 N   0  0  0  0  0  0
  -29.9514  -21.0065   18.2826 N   0  0  0  0  0  0
  -29.9803  -15.6719   20.9305 N   0  0  0  0  0  0
  -31.4713  -12.4644   19.1558 H   0  0  0  0  0  0
  -30.3419  -11.3753   19.9064 H   0  0  0  0  0  0
  -29.7724  -11.7507   17.4782 H   0  0  0  0  0  0
  -29.6440  -13.4710   17.7617 H   0  0  0  0  0  0
  -27.8882  -11.2741   18.9059 H   0  0  0  0  0  0
  -27.3656  -12.5211   17.8070 H   0  0  0  0  0  0
  -27.6703  -14.2453   19.5088 H   0  0  0  0  0  0
  -28.6959  -12.0740   21.4049 H   0  0  0  0  0  0
  -28.4473  -13.7471   21.8291 H   0  0  0  0  0  0
  -25.2774   -9.5645   22.4775 H   0  0  0  0  0  0
  -23.9994   -7.4611   22.7487 H   0  0  0  0  0  0
  -21.0832   -8.8784   19.8967 H   0  0  0  0  0  0
  -22.3721  -10.9675   19.6162 H   0  0  0  0  0  0
  -21.2012   -7.6154   23.9728 H   0  0  0  0  0  0
  -21.1476   -6.0526   25.9087 H   0  0  0  0  0  0
  -22.0601   -2.7615   23.2864 H   0  0  0  0  0  0
  -22.4074  -11.9860   22.4765 H   0  0  0  0  0  0
  -21.1131  -13.1306   22.2639 H   0  0  0  0  0  0
  -24.6612  -15.8461   20.5149 H   0  0  0  0  0  0
  -26.2756  -15.6279   20.0671 H   0  0  0  0  0  0
  -26.7153  -32.5524   23.1144 H   0  0  0  0  0  0
  -25.0162  -33.9774   25.0536 H   0  0  0  0  0  0
  -22.7032  -31.3083   21.4026 H   0  0  0  0  0  0
  -23.3759  -35.9641   23.3288 H   0  0  0  0  0  0
  -24.3613  -36.8916   22.2061 H   0  0  0  0  0  0
  -23.7235  -37.6506   23.6645 H   0  0  0  0  0  0
  -26.0545  -31.5849   20.5864 H   0  0  0  0  0  0
  -26.8356  -30.8828   21.9746 H   0  0  0  0  0  0
  -28.1053  -29.0560   21.1749 H   0  0  0  0  0  0
  -25.9920  -25.9650   18.9976 H   0  0  0  0  0  0
  -23.9746  -27.3096   19.0173 H   0  0  0  0  0  0
  -23.7252  -30.5961   19.3976 H   0  0  0  0  0  0
  -22.7464  -29.2374   19.8700 H   0  0  0  0  0  0
  -25.1279  -36.1973   25.0840 H   0  0  0  0  0  0
  -21.0002  -28.3239   24.1411 H   0  0  0  0  0  0
  -20.5667  -26.2291   23.3604 H   0  0  0  0  0  0
  -21.6643  -26.7431   22.1213 H   0  0  0  0  0  0
  -19.6917  -25.6305   21.1229 H   0  0  0  0  0  0
  -19.6697  -27.3219   20.6758 H   0  0  0  0  0  0
  -17.4213  -26.6714   21.3998 H   0  0  0  0  0  0
  -18.0300  -26.0051   22.8987 H   0  0  0  0  0  0
  -19.7926  -30.7253   24.2323 H   0  0  0  0  0  0
  -17.4996  -31.6259   24.5168 H   0  0  0  0  0  0
  -15.5343  -30.2981   23.7617 H   0  0  0  0  0  0
  -15.8680  -28.0805   22.7057 H   0  0  0  0  0  0
  -24.5961  -30.7004   25.7806 H   0  0  0  0  0  0
  -24.8933  -32.2849   26.4883 H   0  0  0  0  0  0
  -25.8129  -30.8898   27.0231 H   0  0  0  0  0  0
  -26.2846  -29.6789   24.1145 H   0  0  0  0  0  0
  -27.4119  -29.7253   25.4501 H   0  0  0  0  0  0
  -27.8660  -30.4351   23.9186 H   0  0  0  0  0  0
  -27.2721  -33.3595   26.2056 H   0  0  0  0  0  0
  -28.3878  -32.6837   25.0279 H   0  0  0  0  0  0
  -28.0760  -31.8406   26.5363 H   0  0  0  0  0  0
  -28.2595  -38.0113   24.7509 H   0  0  0  0  0  0
  -28.1093  -36.2638   24.6276 H   0  0  0  0  0  0
  -27.2322  -37.1430   25.8874 H   0  0  0  0  0  0
  -20.9317  -29.8808   21.6971 H   0  0  0  0  0  0
  -26.0190  -38.2864   24.1397 H   0  0  0  0  0  0
  -30.5557  -20.9014   16.3258 H   0  0  0  0  0  0
  -32.4539  -26.4787   17.6838 H   0  0  0  0  0  0
  -32.8570  -24.8127   17.2763 H   0  0  0  0  0  0
  -32.5166  -25.2541   18.9502 H   0  0  0  0  0  0
  -30.3352  -24.9196   20.4465 H   0  0  0  0  0  0
  -29.2764  -23.8237   21.2551 H   0  0  0  0  0  0
  -30.1589  -25.8486   18.2770 H   0  0  0  0  0  0
  -30.4834  -25.3605   16.6556 H   0  0  0  0  0  0
  -28.2379  -20.7235   20.4936 H   0  0  0  0  0  0
  -29.3492  -21.6415   21.4511 H   0  0  0  0  0  0
  -30.4039  -19.7528   21.9789 H   0  0  0  0  0  0
  -31.1220  -19.7754   20.4168 H   0  0  0  0  0  0
  -29.2616  -18.1665   19.6331 H   0  0  0  0  0  0
  -28.6215  -18.1733   21.2536 H   0  0  0  0  0  0
  -30.8267  -17.1871   22.1004 H   0  0  0  0  0  0
  -31.4153  -17.1707   20.4673 H   0  0  0  0  0  0
  -27.3579  -24.7646   20.3702 H   0  0  0  0  0  0
  -28.0678  -25.0842   18.8124 H   0  0  0  0  0  0
  -29.0276  -15.5069   21.2186 H   0  0  0  0  0  0
  1 25  1  0  0  0
  1 30  2  0  0  0
  1 85  1  0  0  0
  2  3  1  0  0  0
  2 25  1  0  0  0
  2 86  1  0  0  0
  2 87  1  0  0  0
  3  4  1  0  0  0
  3 88  1  0  0  0
  3 89  1  0  0  0
  4  5  1  0  0  0
  4 90  1  0  0  0
  4 91  1  0  0  0
  5  6  1  0  0  0
  5 26  1  0  0  0
  5 92  1  0  0  0
  6 25  1  0  0  0
  6 93  1  0  0  0
  6 94  1  0  0  0
  7  8  2  0  0  0
  7 26  1  0  0  0
  7 29  1  0  0  0
  8  9  1  0  0  0
  8 22  1  0  0  0
  9 10  1  0  0  0
  9 27  2  0  0  0
 10 11  2  0  0  0
 10 15  1  0  0  0
 11 12  1  0  0  0
 11 95  1  0  0  0
 12 13  2  0  0  0
 12 96  1  0  0  0
 13 14  1  0  0  0
 13 31  1  0  0  0
 14 15  2  0  0  0
 14 97  1  0  0  0
 15 98  1  0  0  0
 16 17  2  0  0  0
 16 21  1  0  0  0
 16 31  1  0  0  0
 17 18  1  0  0  0
 17 99  1  0  0  0
 18 19  2  0  0  0
 18100  1  0  0  0
 19 20  1  0  0  0
 19 24  1  0  0  0
 20 21  2  0  0  0
 20101  1  0  0  0
 21 23  1  0  0  0
 22 28  1  0  0  0
 22 32  2  0  0  0
 26 27  1  0  0  0
 28102  1  0  0  0
 28103  1  0  0  0
 29104  1  0  0  0
 29105  1  0  0  0
 33 34  1  0  0  0
 33 66  1  0  0  0
 33 70  2  0  0  0
 34 36  1  0  0  0
 34 59  1  0  0  0
 34106  1  0  0  0
 35 44  2  0  0  0
 35 45  1  0  0  0
 35 68  1  0  0  0
 36 56  1  0  0  0
 36107  1  0  0  0
 37 39  1  0  0  0
 37 47  1  0  0  0
 37 66  1  0  0  0
 37108  1  0  0  0
 38 43  2  0  0  0
 38 46  1  0  0  0
 38 47  1  0  0  0
 39 64  1  0  0  0
 39 67  2  0  0  0
 40 52  1  0  0  0
 40 53  2  0  0  0
 40 58  1  0  0  0
 41109  1  0  0  0
 41110  1  0  0  0
 41111  1  0  0  0
 41 48  1  0  0  0
 42 43  1  0  0  0
 42 66  1  0  0  0
 42112  1  0  0  0
 42113  1  0  0  0
 43 44  1  0  0  0
 44114  1  0  0  0
 45 46  2  0  0  0
 45115  1  0  0  0
 46116  1  0  0  0
 47117  1  0  0  0
 47118  1  0  0  0
 48 56  1  0  0  0
 48 65  1  0  0  0
 48119  1  0  0  0
 49 50  1  0  0  0
 49 53  1  0  0  0
 49 64  1  0  0  0
 49120  1  0  0  0
 50 51  1  0  0  0
 50121  1  0  0  0
 50122  1  0  0  0
 51 52  1  0  0  0
 51123  1  0  0  0
 51124  1  0  0  0
 52125  1  0  0  0
 52126  1  0  0  0
 53 54  1  0  0  0
 54 55  2  0  0  0
 54127  1  0  0  0
 55 57  1  0  0  0
 55128  1  0  0  0
 56 69  2  0  0  0
 57 58  2  0  0  0
 57129  1  0  0  0
 58130  1  0  0  0
 59 60  1  0  0  0
 59 61  1  0  0  0
 59 62  1  0  0  0
 60131  1  0  0  0
 60132  1  0  0  0
 60133  1  0  0  0
 61134  1  0  0  0
 61135  1  0  0  0
 61136  1  0  0  0
 62137  1  0  0  0
 62138  1  0  0  0
 62139  1  0  0  0
 63 65  1  0  0  0
 63140  1  0  0  0
 63141  1  0  0  0
 63142  1  0  0  0
 64143  1  0  0  0
 65144  1  0  0  0
 68 82  1  0  0  0
 71 83  2  0  0  0
 71 84  1  0  0  0
 71145  1  0  0  0
 72 73  2  0  0  0
 72 74  1  0  0  0
 72 76  1  0  0  0
 73 77  1  0  0  0
 73 83  1  0  0  0
 74 78  1  0  0  0
 74 84  2  0  0  0
 75 77  1  0  0  0
 75146  1  0  0  0
 75147  1  0  0  0
 75148  1  0  0  0
 76 82  1  0  0  0
 76149  1  0  0  0
 76150  1  0  0  0
 77151  1  0  0  0
 77152  1  0  0  0
 78 79  1  0  0  0
 78153  1  0  0  0
 78154  1  0  0  0
 79 80  1  0  0  0
 79155  1  0  0  0
 79156  1  0  0  0
 80 81  1  0  0  0
 80157  1  0  0  0
 80158  1  0  0  0
 81 85  1  0  0  0
 81159  1  0  0  0
 81160  1  0  0  0
 82161  1  0  0  0
 82162  1  0  0  0
 85163  1  0  0  0
M  ISO  4   1 100  68 101  82 101  85 100
M  END
> <chiral flag>
0

> <version>
0

> <s_m_source_file>
/data/baiqing/PycharmProjects/Reinvent-master-3.2/result/LINK_invent/BTK/process_docking_weight1_custom_sum_contain_oxygen_bond_distance_aromatic_linkinvent_7_9_3/rearranged_h_0042.sdf

> <i_m_source_file_index>
3

> <r_mmod_Potential_Energy-OPLS-2005>
-423.608673095703

> <r_mmod_Stretch_Energy-OPLS-2005>
59.1917610168457

> <r_mmod_Bend_Energy-OPLS-2005>
126.765899658203

> <r_mmod_Torsional_Energy-OPLS-2005>
208.780212402344

> <r_mmod_Improper_Torsional_Energy-OPLS-2005>
3.56191182136536

> <r_mmod_Van_der_Waal_Energy-OPLS-2005>
162.590423583984

> <r_mmod_Electrostatic_Energy-OPLS-2005>
-786.081481933594

> <r_mmod_Solvation_Energy-OPLS-2005>
-228.786560058594

> <b_mmod_Minimization_Converged-OPLS-2005>
0

> <r_mmod_RMS_Derivative-OPLS-2005>
2.4106330871582

$$$$
3
                    3D
 Structure written by MMmdl.
166174  0  0  1  0            999 V2000
  -30.7166  -14.4408   20.6126 C   0  0  0  0  0  0
  -30.4223  -12.3077   19.4062 C   0  0  0  0  0  0
  -29.4893  -12.5211   18.1977 C   0  0  0  0  0  0
  -28.0111  -12.3813   18.6119 C   0  0  0  0  0  0
  -27.6639  -13.2071   19.8793 C   0  0  2  0  0  0
  -28.7057  -12.9647   20.9935 C   0  0  0  0  0  0
  -25.2594  -13.8166   20.5679 C   0  0  0  0  0  0
  -24.1842  -13.0437   20.9178 C   0  0  0  0  0  0
  -24.6400  -11.6907   20.8738 C   0  0  0  0  0  0
  -23.9069  -10.4295   21.0407 C   0  0  0  0  0  0
  -24.3617   -9.4210   21.9189 C   0  0  0  0  0  0
  -23.6292   -8.2245   22.0754 C   0  0  0  0  0  0
  -22.4275   -8.0286   21.3545 C   0  0  0  0  0  0
  -21.9916   -9.0258   20.4638 C   0  0  0  0  0  0
  -22.7246  -10.2138   20.3051 C   0  0  0  0  0  0
  -21.6856   -6.0741   22.5280 C   0  0  0  0  0  0
  -21.4010   -6.5641   23.8214 C   0  0  0  0  0  0
  -21.3659   -5.6794   24.9175 C   0  0  0  0  0  0
  -21.6043   -4.3057   24.7225 C   0  0  0  0  0  0
  -21.8822   -3.8151   23.4344 C   0  0  0  0  0  0
  -21.9190   -4.6968   22.3400 C   0  0  0  0  0  0
  -22.7864  -13.5239   21.1835 C   0  0  0  0  0  0
  -22.1663   -4.2154   21.0979 F   0  0  0  0  0  0
  -21.5628   -3.4539   25.7736 F   0  0  0  0  0  0
  -30.0373  -13.2755   20.4444 N   0  0  0  0  0  0
  -26.3036  -12.9335   20.3385 N   0  0  0  0  0  0
  -25.9329  -11.6494   20.5767 N   0  0  0  0  0  0
  -22.0496  -12.8221   22.0380 N   0  0  0  0  0  0
  -25.4315  -15.1883   20.4087 N   0  0  0  0  0  0
  -31.8186  -14.6588   20.1009 O   0  0  0  0  0  0
  -21.6636   -6.8885   21.4241 O   0  0  0  0  0  0
  -22.3555  -14.5551   20.6700 O   0  0  0  0  0  0
  -24.6151  -31.8700   23.2097 C   0  0  0  0  0  0
  -25.9054  -32.4824   23.8385 C   0  0  1  0  0  0
  -27.2309  -27.4340   20.0776 C   0  0  0  0  0  0
  -25.5906  -33.8620   24.2321 N   0  0  0  0  0  0
  -23.4006  -30.4940   21.5523 C   0  0  2  0  0  0
  -24.8424  -28.9576   20.1175 C   0  0  0  0  0  0
  -22.7415  -29.4672   22.5005 C   0  0  0  0  0  0
  -18.0286  -28.1363   22.8512 C   0  0  0  0  0  0
  -24.1487  -36.7318   23.2629 C   0  0  0  0  0  0
  -25.9302  -30.8296   21.3650 C   0  0  0  0  0  0
  -26.0034  -29.4621   20.7159 C   0  0  0  0  0  0
  -27.1959  -28.7023   20.7030 C   0  0  0  0  0  0
  -26.0418  -26.9388   19.4914 C   0  0  0  0  0  0
  -24.8549  -27.6931   19.5077 C   0  0  0  0  0  0
  -23.6071  -29.8271   20.1667 C   0  0  0  0  0  0
  -25.4107  -36.3108   24.0331 C   0  0  1  0  0  0
  -20.5876  -28.3658   23.1330 C   0  0  2  0  0  0
  -20.6785  -26.9402   22.5406 C   0  0  0  0  0  0
  -19.5751  -26.6395   21.5210 C   0  0  0  0  0  0
  -18.1934  -26.7914   22.1635 C   0  0  0  0  0  0
  -19.1533  -28.8828   23.2917 C   0  0  0  0  0  0
  -18.9456  -30.1432   23.8926 C   0  0  0  0  0  0
  -17.6459  -30.6576   24.0570 C   0  0  0  0  0  0
  -25.9044  -34.9476   23.5128 C   0  0  0  0  0  0
  -16.5352  -29.9081   23.6314 C   0  0  0  0  0  0
  -16.7275  -28.6489   23.0353 C   0  0  0  0  0  0
  -26.4472  -31.6592   25.0708 C   0  0  0  0  0  0
  -25.3707  -31.3690   26.1430 C   0  0  0  0  0  0
  -27.0330  -30.3045   24.6067 C   0  0  0  0  0  0
  -27.6039  -32.4301   25.7503 C   0  0  0  0  0  0
  -27.5584  -37.1821   24.8458 C   0  0  0  0  0  0
  -21.4145  -29.3040   22.3750 N   0  0  0  0  0  0
  -26.4296  -37.3792   23.9401 N   0  0  0  0  0  0
  -24.6671  -31.0792   22.1008 N   0  0  0  0  0  0
  -23.4201  -28.8210   23.3033 O   0  0  0  0  0  0
  -28.4212  -26.7291   20.0636 O   0  0  0  0  0  0
  -26.5610  -34.8929   22.4692 O   0  0  0  0  0  0
  -23.5348  -32.1473   23.7496 O   0  0  0  0  0  0
  -29.3664  -20.9208   19.9709 C   0  0  0  0  0  0
  -28.1896  -20.2522   21.7395 C   0  0  0  0  0  0
  -28.8757  -19.7713   20.6594 C   0  0  0  0  0  0
  -28.9889  -22.0529   20.6463 C   0  0  0  0  0  0
  -28.2895  -22.2637   24.1265 C   0  0  0  0  0  0
  -26.1017  -22.2589   22.8212 C   0  0  0  0  0  0
  -29.0647  -18.3143   20.2735 C   0  0  0  0  0  0
  -29.2992  -23.4981   20.3411 C   0  0  0  0  0  0
  -30.4867  -17.7786   20.5549 C   0  0  0  0  0  0
  -28.1632  -24.2704   19.6372 C   0  0  0  0  0  0
  -30.5940  -16.7145   21.6754 C   0  0  0  0  0  0
  -28.5845  -25.6659   19.1137 C   0  0  0  0  0  0
  -27.6202  -22.4850   22.7628 C   0  0  0  0  0  0
  -28.2397  -21.6392   21.7435 N   0  0  0  0  0  0
  -30.0730  -15.3888   21.3151 N   0  0  0  0  0  0
  -31.4652  -12.4144   19.1020 H   0  0  0  0  0  0
  -30.3275  -11.2903   19.7893 H   0  0  0  0  0  0
  -29.7255  -11.8079   17.4068 H   0  0  0  0  0  0
  -29.6594  -13.5133   17.7755 H   0  0  0  0  0  0
  -27.8156  -11.3241   18.7934 H   0  0  0  0  0  0
  -27.3616  -12.6736   17.7857 H   0  0  0  0  0  0
  -27.7155  -14.2593   19.5991 H   0  0  0  0  0  0
  -28.6799  -11.9221   21.3140 H   0  0  0  0  0  0
  -28.4638  -13.5438   21.8849 H   0  0  0  0  0  0
  -25.2760   -9.5686   22.4765 H   0  0  0  0  0  0
  -23.9999   -7.4638   22.7480 H   0  0  0  0  0  0
  -21.0849   -8.8781   19.8940 H   0  0  0  0  0  0
  -22.3714  -10.9677   19.6154 H   0  0  0  0  0  0
  -21.2005   -7.6152   23.9718 H   0  0  0  0  0  0
  -21.1478   -6.0524   25.9079 H   0  0  0  0  0  0
  -22.0601   -2.7614   23.2843 H   0  0  0  0  0  0
  -22.4098  -11.9865   22.4745 H   0  0  0  0  0  0
  -21.1108  -13.1242   22.2568 H   0  0  0  0  0  0
  -24.6658  -15.8452   20.5115 H   0  0  0  0  0  0
  -26.2886  -15.6257   20.0944 H   0  0  0  0  0  0
  -26.7131  -32.5528   23.1153 H   0  0  0  0  0  0
  -25.0017  -33.9771   25.0441 H   0  0  0  0  0  0
  -22.6881  -31.3104   21.4161 H   0  0  0  0  0  0
  -23.3745  -35.9656   23.3283 H   0  0  0  0  0  0
  -24.3572  -36.8938   22.2042 H   0  0  0  0  0  0
  -23.7257  -37.6522   23.6662 H   0  0  0  0  0  0
  -26.0401  -31.5916   20.5921 H   0  0  0  0  0  0
  -26.8205  -30.8850   21.9804 H   0  0  0  0  0  0
  -28.0938  -29.0900   21.1640 H   0  0  0  0  0  0
  -26.0045  -25.9688   19.0192 H   0  0  0  0  0  0
  -23.9599  -27.2952   19.0480 H   0  0  0  0  0  0
  -23.7164  -30.6019   19.4067 H   0  0  0  0  0  0
  -22.7304  -29.2474   19.8725 H   0  0  0  0  0  0
  -25.1289  -36.1971   25.0825 H   0  0  0  0  0  0
  -20.9971  -28.3218   24.1450 H   0  0  0  0  0  0
  -20.5712  -26.2260   23.3585 H   0  0  0  0  0  0
  -21.6652  -26.7470   22.1177 H   0  0  0  0  0  0
  -19.6903  -25.6321   21.1205 H   0  0  0  0  0  0
  -19.6672  -27.3239   20.6764 H   0  0  0  0  0  0
  -17.4208  -26.6686   21.4029 H   0  0  0  0  0  0
  -18.0317  -26.0040   22.9012 H   0  0  0  0  0  0
  -19.7932  -30.7232   24.2318 H   0  0  0  0  0  0
  -17.5023  -31.6258   24.5166 H   0  0  0  0  0  0
  -15.5354  -30.2997   23.7611 H   0  0  0  0  0  0
  -15.8679  -28.0811   22.7058 H   0  0  0  0  0  0
  -24.5876  -30.7066   25.7720 H   0  0  0  0  0  0
  -24.8897  -32.2845   26.4879 H   0  0  0  0  0  0
  -25.8009  -30.8824   27.0189 H   0  0  0  0  0  0
  -26.2899  -29.6797   24.1094 H   0  0  0  0  0  0
  -27.4103  -29.7275   25.4519 H   0  0  0  0  0  0
  -27.8719  -30.4387   23.9233 H   0  0  0  0  0  0
  -27.2659  -33.3597   26.2098 H   0  0  0  0  0  0
  -28.3860  -32.6854   25.0340 H   0  0  0  0  0  0
  -28.0698  -31.8399   26.5404 H   0  0  0  0  0  0
  -28.2582  -38.0139   24.7522 H   0  0  0  0  0  0
  -28.1103  -36.2666   24.6272 H   0  0  0  0  0  0
  -27.2294  -37.1444   25.8858 H   0  0  0  0  0  0
  -20.9311  -29.8765   21.6972 H   0  0  0  0  0  0
  -26.0178  -38.2871   24.1379 H   0  0  0  0  0  0
  -29.9564  -20.9199   19.0637 H   0  0  0  0  0  0
  -27.6627  -19.7236   22.5233 H   0  0  0  0  0  0
  -27.8826  -22.9417   24.8768 H   0  0  0  0  0  0
  -29.3631  -22.4445   24.0669 H   0  0  0  0  0  0
  -28.1460  -21.2447   24.4865 H   0  0  0  0  0  0
  -25.6358  -22.9357   23.5380 H   0  0  0  0  0  0
  -25.8529  -21.2401   23.1189 H   0  0  0  0  0  0
  -25.6423  -22.4446   21.8499 H   0  0  0  0  0  0
  -28.8547  -18.2281   19.2070 H   0  0  0  0  0  0
  -28.3119  -17.7019   20.7717 H   0  0  0  0  0  0
  -30.1817  -23.5235   19.7004 H   0  0  0  0  0  0
  -29.6005  -24.0221   21.2486 H   0  0  0  0  0  0
  -31.1383  -18.6166   20.8081 H   0  0  0  0  0  0
  -30.9076  -17.3738   19.6333 H   0  0  0  0  0  0
  -27.2830  -24.3427   20.2757 H   0  0  0  0  0  0
  -27.8531  -23.6776   18.7754 H   0  0  0  0  0  0
  -30.0698  -17.0666   22.5654 H   0  0  0  0  0  0
  -31.6402  -16.6106   21.9697 H   0  0  0  0  0  0
  -28.0608  -25.8981   18.1857 H   0  0  0  0  0  0
  -29.6344  -25.6427   18.8210 H   0  0  0  0  0  0
  -27.7741  -23.5289   22.4942 H   0  0  0  0  0  0
  -29.1711  -15.1323   21.6883 H   0  0  0  0  0  0
  1 25  1  0  0  0
  1 30  2  0  0  0
  1 85  1  0  0  0
  2  3  1  0  0  0
  2 25  1  0  0  0
  2 86  1  0  0  0
  2 87  1  0  0  0
  3  4  1  0  0  0
  3 88  1  0  0  0
  3 89  1  0  0  0
  4  5  1  0  0  0
  4 90  1  0  0  0
  4 91  1  0  0  0
  5  6  1  0  0  0
  5 26  1  0  0  0
  5 92  1  0  0  0
  6 25  1  0  0  0
  6 93  1  0  0  0
  6 94  1  0  0  0
  7  8  2  0  0  0
  7 26  1  0  0  0
  7 29  1  0  0  0
  8  9  1  0  0  0
  8 22  1  0  0  0
  9 10  1  0  0  0
  9 27  2  0  0  0
 10 11  2  0  0  0
 10 15  1  0  0  0
 11 12  1  0  0  0
 11 95  1  0  0  0
 12 13  2  0  0  0
 12 96  1  0  0  0
 13 14  1  0  0  0
 13 31  1  0  0  0
 14 15  2  0  0  0
 14 97  1  0  0  0
 15 98  1  0  0  0
 16 17  2  0  0  0
 16 21  1  0  0  0
 16 31  1  0  0  0
 17 18  1  0  0  0
 17 99  1  0  0  0
 18 19  2  0  0  0
 18100  1  0  0  0
 19 20  1  0  0  0
 19 24  1  0  0  0
 20 21  2  0  0  0
 20101  1  0  0  0
 21 23  1  0  0  0
 22 28  1  0  0  0
 22 32  2  0  0  0
 26 27  1  0  0  0
 28102  1  0  0  0
 28103  1  0  0  0
 29104  1  0  0  0
 29105  1  0  0  0
 33 34  1  0  0  0
 33 66  1  0  0  0
 33 70  2  0  0  0
 34 36  1  0  0  0
 34 59  1  0  0  0
 34106  1  0  0  0
 35 44  2  0  0  0
 35 45  1  0  0  0
 35 68  1  0  0  0
 36 56  1  0  0  0
 36107  1  0  0  0
 37 39  1  0  0  0
 37 47  1  0  0  0
 37 66  1  0  0  0
 37108  1  0  0  0
 38 43  2  0  0  0
 38 46  1  0  0  0
 38 47  1  0  0  0
 39 64  1  0  0  0
 39 67  2  0  0  0
 40 52  1  0  0  0
 40 53  2  0  0  0
 40 58  1  0  0  0
 41109  1  0  0  0
 41110  1  0  0  0
 41111  1  0  0  0
 41 48  1  0  0  0
 42 43  1  0  0  0
 42 66  1  0  0  0
 42112  1  0  0  0
 42113  1  0  0  0
 43 44  1  0  0  0
 44114  1  0  0  0
 45 46  2  0  0  0
 45115  1  0  0  0
 46116  1  0  0  0
 47117  1  0  0  0
 47118  1  0  0  0
 48 56  1  0  0  0
 48 65  1  0  0  0
 48119  1  0  0  0
 49 50  1  0  0  0
 49 53  1  0  0  0
 49 64  1  0  0  0
 49120  1  0  0  0
 50 51  1  0  0  0
 50121  1  0  0  0
 50122  1  0  0  0
 51 52  1  0  0  0
 51123  1  0  0  0
 51124  1  0  0  0
 52125  1  0  0  0
 52126  1  0  0  0
 53 54  1  0  0  0
 54 55  2  0  0  0
 54127  1  0  0  0
 55 57  1  0  0  0
 55128  1  0  0  0
 56 69  2  0  0  0
 57 58  2  0  0  0
 57129  1  0  0  0
 58130  1  0  0  0
 59 60  1  0  0  0
 59 61  1  0  0  0
 59 62  1  0  0  0
 60131  1  0  0  0
 60132  1  0  0  0
 60133  1  0  0  0
 61134  1  0  0  0
 61135  1  0  0  0
 61136  1  0  0  0
 62137  1  0  0  0
 62138  1  0  0  0
 62139  1  0  0  0
 63 65  1  0  0  0
 63140  1  0  0  0
 63141  1  0  0  0
 63142  1  0  0  0
 64143  1  0  0  0
 65144  1  0  0  0
 68 82  1  0  0  0
 71 73  1  0  0  0
 71 74  2  0  0  0
 71145  1  0  0  0
 72 73  2  0  0  0
 72 84  1  0  0  0
 72146  1  0  0  0
 73 77  1  0  0  0
 74 78  1  0  0  0
 74 84  1  0  0  0
 75147  1  0  0  0
 75148  1  0  0  0
 75149  1  0  0  0
 75 83  1  0  0  0
 76 83  1  0  0  0
 76150  1  0  0  0
 76151  1  0  0  0
 76152  1  0  0  0
 77 79  1  0  0  0
 77153  1  0  0  0
 77154  1  0  0  0
 78 80  1  0  0  0
 78155  1  0  0  0
 78156  1  0  0  0
 79 81  1  0  0  0
 79157  1  0  0  0
 79158  1  0  0  0
 80 82  1  0  0  0
 80159  1  0  0  0
 80160  1  0  0  0
 81 85  1  0  0  0
 81161  1  0  0  0
 81162  1  0  0  0
 82163  1  0  0  0
 82164  1  0  0  0
 83 84  1  0  0  0
 83165  1  0  0  0
 85166  1  0  0  0
M  ISO  4   1 100  68 101  82 101  85 100
M  END
> <chiral flag>
0

> <version>
0

> <s_m_source_file>
/data/baiqing/PycharmProjects/Reinvent-master-3.2/result/LINK_invent/BTK/process_docking_weight1_custom_sum_contain_oxygen_bond_distance_aromatic_linkinvent_7_9_3/rearranged_h_0042.sdf

> <i_m_source_file_index>
4

> <r_mmod_Potential_Energy-OPLS-2005>
-104.017784118652

> <r_mmod_Stretch_Energy-OPLS-2005>
34.5066375732422

> <r_mmod_Bend_Energy-OPLS-2005>
100.585418701172

> <r_mmod_Torsional_Energy-OPLS-2005>
237.508819580078

> <r_mmod_Improper_Torsional_Energy-OPLS-2005>
2.27094769477844

> <r_mmod_Van_der_Waal_Energy-OPLS-2005>
126.390548706055

> <r_mmod_Electrostatic_Energy-OPLS-2005>
-413.39208984375

> <r_mmod_Solvation_Energy-OPLS-2005>
-202.027206420898

> <b_mmod_Minimization_Converged-OPLS-2005>
0

> <r_mmod_RMS_Derivative-OPLS-2005>
1.29271388053894

$$$$
4
                    3D
 Structure written by MMmdl.
158166  0  0  1  0            999 V2000
  -30.7020  -14.5063   20.5193 C   0  0  0  0  0  0
  -30.4179  -12.3089   19.4485 C   0  0  0  0  0  0
  -29.5034  -12.4919   18.2198 C   0  0  0  0  0  0
  -28.0219  -12.3557   18.6228 C   0  0  0  0  0  0
  -27.6575  -13.2112   19.8667 C   0  0  2  0  0  0
  -28.6985  -13.0399   20.9986 C   0  0  0  0  0  0
  -25.2569  -13.8171   20.5655 C   0  0  0  0  0  0
  -24.1826  -13.0445   20.9170 C   0  0  0  0  0  0
  -24.6376  -11.6914   20.8709 C   0  0  0  0  0  0
  -23.9035  -10.4299   21.0383 C   0  0  0  0  0  0
  -24.3595   -9.4225   21.9169 C   0  0  0  0  0  0
  -23.6286   -8.2250   22.0748 C   0  0  0  0  0  0
  -22.4267   -8.0270   21.3545 C   0  0  0  0  0  0
  -21.9887   -9.0234   20.4645 C   0  0  0  0  0  0
  -22.7197  -10.2127   20.3040 C   0  0  0  0  0  0
  -21.6859   -6.0716   22.5277 C   0  0  0  0  0  0
  -21.4012   -6.5622   23.8209 C   0  0  0  0  0  0
  -21.3663   -5.6782   24.9176 C   0  0  0  0  0  0
  -21.6047   -4.3040   24.7235 C   0  0  0  0  0  0
  -21.8813   -3.8127   23.4358 C   0  0  0  0  0  0
  -21.9193   -4.6942   22.3407 C   0  0  0  0  0  0
  -22.7852  -13.5253   21.1831 C   0  0  0  0  0  0
  -22.1665   -4.2121   21.0987 F   0  0  0  0  0  0
  -21.5641   -3.4529   25.7753 F   0  0  0  0  0  0
  -30.0289  -13.3247   20.4402 N   0  0  0  0  0  0
  -26.3001  -12.9346   20.3317 N   0  0  0  0  0  0
  -25.9309  -11.6503   20.5737 N   0  0  0  0  0  0
  -22.0474  -12.8265   22.0389 N   0  0  0  0  0  0
  -25.4283  -15.1899   20.4061 N   0  0  0  0  0  0
  -31.8531  -14.6398   20.0967 O   0  0  0  0  0  0
  -21.6644   -6.8855   21.4237 O   0  0  0  0  0  0
  -22.3543  -14.5549   20.6656 O   0  0  0  0  0  0
  -24.6145  -31.8661   23.2065 C   0  0  0  0  0  0
  -25.9026  -32.4816   23.8379 C   0  0  1  0  0  0
  -27.2352  -27.4151   20.0985 C   0  0  0  0  0  0
  -25.5865  -33.8618   24.2299 N   0  0  0  0  0  0
  -23.4045  -30.4884   21.5485 C   0  0  2  0  0  0
  -24.8517  -28.9528   20.1167 C   0  0  0  0  0  0
  -22.7419  -29.4638   22.4977 C   0  0  0  0  0  0
  -18.0265  -28.1385   22.8485 C   0  0  0  0  0  0
  -24.1488  -36.7319   23.2636 C   0  0  0  0  0  0
  -25.9360  -30.8276   21.3621 C   0  0  0  0  0  0
  -26.0152  -29.4612   20.7076 C   0  0  0  0  0  0
  -27.2107  -28.7023   20.6906 C   0  0  0  0  0  0
  -26.0499  -26.9301   19.4973 C   0  0  0  0  0  0
  -24.8653  -27.6878   19.5081 C   0  0  0  0  0  0
  -23.6140  -29.8197   20.1648 C   0  0  0  0  0  0
  -25.4108  -36.3104   24.0328 C   0  0  1  0  0  0
  -20.5861  -28.3658   23.1319 C   0  0  2  0  0  0
  -20.6754  -26.9395   22.5413 C   0  0  0  0  0  0
  -19.5732  -26.6388   21.5209 C   0  0  0  0  0  0
  -18.1913  -26.7930   22.1620 C   0  0  0  0  0  0
  -19.1521  -28.8842   23.2898 C   0  0  0  0  0  0
  -18.9447  -30.1452   23.8900 C   0  0  0  0  0  0
  -17.6449  -30.6588   24.0572 C   0  0  0  0  0  0
  -25.9031  -34.9469   23.5120 C   0  0  0  0  0  0
  -16.5339  -29.9088   23.6339 C   0  0  0  0  0  0
  -16.7256  -28.6515   23.0345 C   0  0  0  0  0  0
  -26.4455  -31.6600   25.0711 C   0  0  0  0  0  0
  -25.3726  -31.3730   26.1469 C   0  0  0  0  0  0
  -27.0275  -30.3035   24.6089 C   0  0  0  0  0  0
  -27.6022  -32.4329   25.7477 C   0  0  0  0  0  0
  -27.5584  -37.1805   24.8457 C   0  0  0  0  0  0
  -21.4148  -29.3031   22.3737 N   0  0  0  0  0  0
  -26.4292  -37.3792   23.9408 N   0  0  0  0  0  0
  -24.6702  -31.0748   22.0975 N   0  0  0  0  0  0
  -23.4198  -28.8183   23.3016 O   0  0  0  0  0  0
  -28.3938  -26.6569   20.1125 O   0  0  0  0  0  0
  -26.5610  -34.8918   22.4692 O   0  0  0  0  0  0
  -23.5330  -32.1409   23.7445 O   0  0  0  0  0  0
  -29.1523  -20.7149   22.6730 C   0  0  0  0  0  0
  -29.0423  -23.1285   22.7200 C   0  0  0  0  0  0
  -28.9110  -21.8996   23.3893 C   0  0  0  0  0  0
  -29.5274  -20.7894   21.3162 C   0  0  0  0  0  0
  -29.3909  -23.1408   21.3562 C   0  0  0  0  0  0
  -28.5427  -21.8471   24.8580 C   0  0  0  0  0  0
  -29.9050  -19.5298   20.5122 C   0  0  0  0  0  0
  -29.5530  -24.4902   20.6356 C   0  0  0  0  0  0
  -29.7127  -18.1376   21.1993 C   0  0  0  0  0  0
  -30.2848  -16.9607   20.3594 C   0  0  0  0  0  0
  -28.2220  -25.2435   20.3726 C   0  0  0  0  0  0
  -29.6245  -21.9866   20.6691 N   0  0  0  0  0  0
  -29.9699  -15.5940   20.8438 N   0  0  0  0  0  0
  -31.4665  -12.3853   19.1567 H   0  0  0  0  0  0
  -30.3025  -11.3085   19.8706 H   0  0  0  0  0  0
  -29.7532  -11.7569   17.4529 H   0  0  0  0  0  0
  -29.6748  -13.4729   17.7736 H   0  0  0  0  0  0
  -27.8345  -11.3007   18.8297 H   0  0  0  0  0  0
  -27.3773  -12.6180   17.7827 H   0  0  0  0  0  0
  -27.6877  -14.2512   19.5436 H   0  0  0  0  0  0
  -28.6741  -12.0213   21.3898 H   0  0  0  0  0  0
  -28.4645  -13.6896   21.8422 H   0  0  0  0  0  0
  -25.2739   -9.5722   22.4738 H   0  0  0  0  0  0
  -24.0007   -7.4640   22.7462 H   0  0  0  0  0  0
  -21.0817   -8.8718   19.8957 H   0  0  0  0  0  0
  -22.3625  -10.9645   19.6133 H   0  0  0  0  0  0
  -21.1990   -7.6128   23.9704 H   0  0  0  0  0  0
  -21.1502   -6.0516   25.9080 H   0  0  0  0  0  0
  -22.0590   -2.7589   23.2868 H   0  0  0  0  0  0
  -22.4091  -11.9966   22.4853 H   0  0  0  0  0  0
  -21.1072  -13.1277   22.2522 H   0  0  0  0  0  0
  -24.6593  -15.8440   20.5076 H   0  0  0  0  0  0
  -26.2802  -15.6297   20.0826 H   0  0  0  0  0  0
  -26.7104  -32.5536   23.1151 H   0  0  0  0  0  0
  -24.9994  -33.9792   25.0430 H   0  0  0  0  0  0
  -22.6922  -31.3044   21.4088 H   0  0  0  0  0  0
  -23.3738  -35.9665   23.3298 H   0  0  0  0  0  0
  -24.3586  -36.8934   22.2052 H   0  0  0  0  0  0
  -23.7251  -37.6524   23.6664 H   0  0  0  0  0  0
  -26.0486  -31.5949   20.5952 H   0  0  0  0  0  0
  -26.8241  -30.8821   21.9802 H   0  0  0  0  0  0
  -28.1089  -29.0905   21.1518 H   0  0  0  0  0  0
  -26.0235  -25.9686   19.0085 H   0  0  0  0  0  0
  -23.9711  -27.2930   19.0456 H   0  0  0  0  0  0
  -23.7239  -30.5939   19.4038 H   0  0  0  0  0  0
  -22.7389  -29.2375   19.8690 H   0  0  0  0  0  0
  -25.1291  -36.1963   25.0821 H   0  0  0  0  0  0
  -20.9949  -28.3209   24.1443 H   0  0  0  0  0  0
  -20.5652  -26.2260   23.3595 H   0  0  0  0  0  0
  -21.6625  -26.7436   22.1214 H   0  0  0  0  0  0
  -19.6888  -25.6306   21.1227 H   0  0  0  0  0  0
  -19.6678  -27.3210   20.6752 H   0  0  0  0  0  0
  -17.4186  -26.6679   21.4022 H   0  0  0  0  0  0
  -18.0309  -26.0078   22.9022 H   0  0  0  0  0  0
  -19.7927  -30.7276   24.2256 H   0  0  0  0  0  0
  -17.5008  -31.6268   24.5177 H   0  0  0  0  0  0
  -15.5341  -30.2994   23.7674 H   0  0  0  0  0  0
  -15.8652  -28.0850   22.7038 H   0  0  0  0  0  0
  -24.5875  -30.7094   25.7826 H   0  0  0  0  0  0
  -24.8945  -32.2901   26.4923 H   0  0  0  0  0  0
  -25.8077  -30.8900   27.0225 H   0  0  0  0  0  0
  -26.2813  -29.6813   24.1126 H   0  0  0  0  0  0
  -27.4022  -29.7256   25.4546 H   0  0  0  0  0  0
  -27.8665  -30.4350   23.9249 H   0  0  0  0  0  0
  -27.2618  -33.3606   26.2098 H   0  0  0  0  0  0
  -28.3807  -32.6931   25.0291 H   0  0  0  0  0  0
  -28.0723  -31.8433   26.5359 H   0  0  0  0  0  0
  -28.2596  -38.0109   24.7513 H   0  0  0  0  0  0
  -28.1082  -36.2637   24.6268 H   0  0  0  0  0  0
  -27.2307  -37.1439   25.8861 H   0  0  0  0  0  0
  -20.9291  -29.8774   21.6989 H   0  0  0  0  0  0
  -26.0168  -38.2864   24.1416 H   0  0  0  0  0  0
  -29.0692  -19.7645   23.1815 H   0  0  0  0  0  0
  -28.8793  -24.0582   23.2491 H   0  0  0  0  0  0
  -29.3752  -21.4489   25.4385 H   0  0  0  0  0  0
  -27.6765  -21.2035   25.0128 H   0  0  0  0  0  0
  -28.3010  -22.8365   25.2463 H   0  0  0  0  0  0
  -30.9537  -19.6384   20.2324 H   0  0  0  0  0  0
  -29.3453  -19.5422   19.5768 H   0  0  0  0  0  0
  -30.0849  -24.3474   19.6935 H   0  0  0  0  0  0
  -30.1997  -25.1143   21.2527 H   0  0  0  0  0  0
  -28.6528  -17.9829   21.3995 H   0  0  0  0  0  0
  -30.2207  -18.1374   22.1644 H   0  0  0  0  0  0
  -31.3650  -17.0985   20.2748 H   0  0  0  0  0  0
  -29.8990  -17.0322   19.3410 H   0  0  0  0  0  0
  -27.5836  -25.1436   21.2522 H   0  0  0  0  0  0
  -27.7115  -24.7432   19.5499 H   0  0  0  0  0  0
  -29.0357  -15.4217   21.1838 H   0  0  0  0  0  0
  1 25  1  0  0  0
  1 30  2  0  0  0
  1 83  1  0  0  0
  2  3  1  0  0  0
  2 25  1  0  0  0
  2 84  1  0  0  0
  2 85  1  0  0  0
  3  4  1  0  0  0
  3 86  1  0  0  0
  3 87  1  0  0  0
  4  5  1  0  0  0
  4 88  1  0  0  0
  4 89  1  0  0  0
  5  6  1  0  0  0
  5 26  1  0  0  0
  5 90  1  0  0  0
  6 25  1  0  0  0
  6 91  1  0  0  0
  6 92  1  0  0  0
  7  8  2  0  0  0
  7 26  1  0  0  0
  7 29  1  0  0  0
  8  9  1  0  0  0
  8 22  1  0  0  0
  9 10  1  0  0  0
  9 27  2  0  0  0
 10 11  2  0  0  0
 10 15  1  0  0  0
 11 12  1  0  0  0
 11 93  1  0  0  0
 12 13  2  0  0  0
 12 94  1  0  0  0
 13 14  1  0  0  0
 13 31  1  0  0  0
 14 15  2  0  0  0
 14 95  1  0  0  0
 15 96  1  0  0  0
 16 17  2  0  0  0
 16 21  1  0  0  0
 16 31  1  0  0  0
 17 18  1  0  0  0
 17 97  1  0  0  0
 18 19  2  0  0  0
 18 98  1  0  0  0
 19 20  1  0  0  0
 19 24  1  0  0  0
 20 21  2  0  0  0
 20 99  1  0  0  0
 21 23  1  0  0  0
 22 28  1  0  0  0
 22 32  2  0  0  0
 26 27  1  0  0  0
 28100  1  0  0  0
 28101  1  0  0  0
 29102  1  0  0  0
 29103  1  0  0  0
 33 34  1  0  0  0
 33 66  1  0  0  0
 33 70  2  0  0  0
 34 36  1  0  0  0
 34 59  1  0  0  0
 34104  1  0  0  0
 35 44  2  0  0  0
 35 45  1  0  0  0
 35 68  1  0  0  0
 36 56  1  0  0  0
 36105  1  0  0  0
 37 39  1  0  0  0
 37 47  1  0  0  0
 37 66  1  0  0  0
 37106  1  0  0  0
 38 43  2  0  0  0
 38 46  1  0  0  0
 38 47  1  0  0  0
 39 64  1  0  0  0
 39 67  2  0  0  0
 40 52  1  0  0  0
 40 53  2  0  0  0
 40 58  1  0  0  0
 41107  1  0  0  0
 41108  1  0  0  0
 41109  1  0  0  0
 41 48  1  0  0  0
 42 43  1  0  0  0
 42 66  1  0  0  0
 42110  1  0  0  0
 42111  1  0  0  0
 43 44  1  0  0  0
 44112  1  0  0  0
 45 46  2  0  0  0
 45113  1  0  0  0
 46114  1  0  0  0
 47115  1  0  0  0
 47116  1  0  0  0
 48 56  1  0  0  0
 48 65  1  0  0  0
 48117  1  0  0  0
 49 50  1  0  0  0
 49 53  1  0  0  0
 49 64  1  0  0  0
 49118  1  0  0  0
 50 51  1  0  0  0
 50119  1  0  0  0
 50120  1  0  0  0
 51 52  1  0  0  0
 51121  1  0  0  0
 51122  1  0  0  0
 52123  1  0  0  0
 52124  1  0  0  0
 53 54  1  0  0  0
 54 55  2  0  0  0
 54125  1  0  0  0
 55 57  1  0  0  0
 55126  1  0  0  0
 56 69  2  0  0  0
 57 58  2  0  0  0
 57127  1  0  0  0
 58128  1  0  0  0
 59 60  1  0  0  0
 59 61  1  0  0  0
 59 62  1  0  0  0
 60129  1  0  0  0
 60130  1  0  0  0
 60131  1  0  0  0
 61132  1  0  0  0
 61133  1  0  0  0
 61134  1  0  0  0
 62135  1  0  0  0
 62136  1  0  0  0
 62137  1  0  0  0
 63 65  1  0  0  0
 63138  1  0  0  0
 63139  1  0  0  0
 63140  1  0  0  0
 64141  1  0  0  0
 65142  1  0  0  0
 68 81  1  0  0  0
 71 73  2  0  0  0
 71 74  1  0  0  0
 71143  1  0  0  0
 72 73  1  0  0  0
 72 75  2  0  0  0
 72144  1  0  0  0
 73 76  1  0  0  0
 74 77  1  0  0  0
 74 82  2  0  0  0
 75 78  1  0  0  0
 75 82  1  0  0  0
 76145  1  0  0  0
 76146  1  0  0  0
 76147  1  0  0  0
 77 79  1  0  0  0
 77148  1  0  0  0
 77149  1  0  0  0
 78 81  1  0  0  0
 78150  1  0  0  0
 78151  1  0  0  0
 79 80  1  0  0  0
 79152  1  0  0  0
 79153  1  0  0  0
 80 83  1  0  0  0
 80154  1  0  0  0
 80155  1  0  0  0
 81156  1  0  0  0
 81157  1  0  0  0
 83158  1  0  0  0
M  ISO  4   1 100  68 101  81 101  83 100
M  END
> <chiral flag>
0

> <version>
0

> <s_m_source_file>
/data/baiqing/PycharmProjects/Reinvent-master-3.2/result/LINK_invent/BTK/process_docking_weight1_custom_sum_contain_oxygen_bond_distance_aromatic_linkinvent_7_9_3/rearranged_h_0042.sdf

> <i_m_source_file_index>
5

> <r_mmod_Potential_Energy-OPLS-2005>
-208.719787597656

> <r_mmod_Stretch_Energy-OPLS-2005>
43.0161819458008

> <r_mmod_Bend_Energy-OPLS-2005>
96.7755432128906

> <r_mmod_Torsional_Energy-OPLS-2005>
210.003448486328

> <r_mmod_Improper_Torsional_Energy-OPLS-2005>
6.841796875

> <r_mmod_Van_der_Waal_Energy-OPLS-2005>
153.485778808594

> <r_mmod_Electrostatic_Energy-OPLS-2005>
-515.234985351562

> <r_mmod_Solvation_Energy-OPLS-2005>
-222.027969360352

> <b_mmod_Minimization_Converged-OPLS-2005>
0

> <r_mmod_RMS_Derivative-OPLS-2005>
1.8861358165741

$$$$
5
                    3D
 Structure written by MMmdl.
155163  0  0  1  0            999 V2000
  -30.6258  -14.6911   20.4827 C   0  0  0  0  0  0
  -30.4330  -12.4262   19.4565 C   0  0  0  0  0  0
  -29.5050  -12.5018   18.2247 C   0  0  0  0  0  0
  -28.0304  -12.3329   18.6411 C   0  0  0  0  0  0
  -27.6445  -13.2243   19.8519 C   0  0  2  0  0  0
  -28.6909  -13.1298   20.9830 C   0  0  0  0  0  0
  -25.2526  -13.8184   20.5688 C   0  0  0  0  0  0
  -24.1810  -13.0437   20.9203 C   0  0  0  0  0  0
  -24.6391  -11.6912   20.8747 C   0  0  0  0  0  0
  -23.9066  -10.4291   21.0407 C   0  0  0  0  0  0
  -24.3618   -9.4206   21.9184 C   0  0  0  0  0  0
  -23.6293   -8.2241   22.0754 C   0  0  0  0  0  0
  -22.4276   -8.0280   21.3544 C   0  0  0  0  0  0
  -21.9911   -9.0253   20.4646 C   0  0  0  0  0  0
  -22.7239  -10.2132   20.3056 C   0  0  0  0  0  0
  -21.6853   -6.0735   22.5279 C   0  0  0  0  0  0
  -21.4014   -6.5639   23.8212 C   0  0  0  0  0  0
  -21.3659   -5.6793   24.9174 C   0  0  0  0  0  0
  -21.6044   -4.3056   24.7225 C   0  0  0  0  0  0
  -21.8819   -3.8146   23.4346 C   0  0  0  0  0  0
  -21.9193   -4.6963   22.3402 C   0  0  0  0  0  0
  -22.7832  -13.5222   21.1865 C   0  0  0  0  0  0
  -22.1661   -4.2148   21.0980 F   0  0  0  0  0  0
  -21.5629   -3.4540   25.7737 F   0  0  0  0  0  0
  -29.9947  -13.4744   20.4016 N   0  0  0  0  0  0
  -26.2949  -12.9378   20.3285 N   0  0  0  0  0  0
  -25.9319  -11.6526   20.5753 N   0  0  0  0  0  0
  -22.0480  -12.8210   22.0421 N   0  0  0  0  0  0
  -25.4217  -15.1909   20.4097 N   0  0  0  0  0  0
  -31.8139  -14.8040   20.1709 O   0  0  0  0  0  0
  -21.6641   -6.8877   21.4240 O   0  0  0  0  0  0
  -22.3515  -14.5527   20.6711 O   0  0  0  0  0  0
  -24.6288  -31.8575   23.1998 C   0  0  0  0  0  0
  -25.9123  -32.4769   23.8339 C   0  0  1  0  0  0
  -27.2211  -27.2934   20.1298 C   0  0  0  0  0  0
  -25.5929  -33.8570   24.2267 N   0  0  0  0  0  0
  -23.4242  -30.4801   21.5429 C   0  0  2  0  0  0
  -24.8713  -28.9289   20.1138 C   0  0  0  0  0  0
  -22.7491  -29.4615   22.4925 C   0  0  0  0  0  0
  -18.0290  -28.1388   22.8486 C   0  0  0  0  0  0
  -24.1488  -36.7287   23.2640 C   0  0  0  0  0  0
  -25.9674  -30.7821   21.3728 C   0  0  0  0  0  0
  -26.0428  -29.4063   20.7169 C   0  0  0  0  0  0
  -27.2252  -28.6029   20.7088 C   0  0  0  0  0  0
  -26.0272  -26.8712   19.5078 C   0  0  0  0  0  0
  -24.8666  -27.6676   19.4984 C   0  0  0  0  0  0
  -23.6407  -29.8125   20.1598 C   0  0  0  0  0  0
  -25.4114  -36.3077   24.0329 C   0  0  1  0  0  0
  -20.5892  -28.3695   23.1275 C   0  0  2  0  0  0
  -20.6778  -26.9415   22.5408 C   0  0  0  0  0  0
  -19.5753  -26.6384   21.5212 C   0  0  0  0  0  0
  -18.1933  -26.7930   22.1624 C   0  0  0  0  0  0
  -19.1543  -28.8858   23.2875 C   0  0  0  0  0  0
  -18.9465  -30.1459   23.8892 C   0  0  0  0  0  0
  -17.6464  -30.6589   24.0563 C   0  0  0  0  0  0
  -25.9053  -34.9447   23.5099 C   0  0  0  0  0  0
  -16.5355  -29.9086   23.6332 C   0  0  0  0  0  0
  -16.7277  -28.6504   23.0352 C   0  0  0  0  0  0
  -26.4498  -31.6585   25.0719 C   0  0  0  0  0  0
  -25.3726  -31.3725   26.1442 C   0  0  0  0  0  0
  -27.0347  -30.3010   24.6183 C   0  0  0  0  0  0
  -27.6054  -32.4323   25.7493 C   0  0  0  0  0  0
  -27.5577  -37.1799   24.8467 C   0  0  0  0  0  0
  -21.4201  -29.3045   22.3668 N   0  0  0  0  0  0
  -26.4289  -37.3774   23.9410 N   0  0  0  0  0  0
  -24.6926  -31.0570   22.0955 N   0  0  0  0  0  0
  -23.4204  -28.8155   23.3015 O   0  0  0  0  0  0
  -28.3202  -26.4157   20.1350 O   0  0  0  0  0  0
  -26.5623  -34.8919   22.4667 O   0  0  0  0  0  0
  -23.5445  -32.1378   23.7314 O   0  0  0  0  0  0
  -28.8888  -22.5078   20.7486 C   0  0  0  0  0  0
  -29.4841  -21.3569   18.7254 C   0  0  0  0  0  0
  -29.3119  -21.2778   20.1175 C   0  0  0  0  0  0
  -28.6683  -23.7318   20.0077 C   0  0  0  0  0  0
  -28.8899  -23.6300   18.6143 C   0  0  0  0  0  0
  -28.6999  -24.8051   17.6741 C   0  0  0  0  0  0
  -29.7126  -19.9526   20.8938 C   0  0  0  0  0  0
  -28.1084  -25.0494   20.6991 C   0  0  0  0  0  0
  -29.4342  -18.4697   20.3183 C   0  0  0  0  0  0
  -30.2754  -17.2496   20.9539 C   0  0  0  0  0  0
  -29.2815  -22.4838   18.0061 N   0  0  0  0  0  0
  -29.8518  -15.8055   20.7335 N   0  0  0  0  0  0
  -31.4733  -12.5526   19.1518 H   0  0  0  0  0  0
  -30.3753  -11.4428   19.9258 H   0  0  0  0  0  0
  -29.7782  -11.7355   17.4979 H   0  0  0  0  0  0
  -29.6368  -13.4614   17.7221 H   0  0  0  0  0  0
  -27.8796  -11.2828   18.8942 H   0  0  0  0  0  0
  -27.3725  -12.5379   17.7958 H   0  0  0  0  0  0
  -27.6473  -14.2506   19.4843 H   0  0  0  0  0  0
  -28.7171  -12.1239   21.4047 H   0  0  0  0  0  0
  -28.4345  -13.7978   21.8069 H   0  0  0  0  0  0
  -25.2764   -9.5683   22.4758 H   0  0  0  0  0  0
  -24.0003   -7.4632   22.7473 H   0  0  0  0  0  0
  -21.0842   -8.8771   19.8951 H   0  0  0  0  0  0
  -22.3698  -10.9670   19.6165 H   0  0  0  0  0  0
  -21.2006   -7.6148   23.9714 H   0  0  0  0  0  0
  -21.1481   -6.0524   25.9077 H   0  0  0  0  0  0
  -22.0599   -2.7609   23.2847 H   0  0  0  0  0  0
  -22.4103  -11.9873   22.4806 H   0  0  0  0  0  0
  -21.1098  -13.1229   22.2632 H   0  0  0  0  0  0
  -24.6513  -15.8420   20.5171 H   0  0  0  0  0  0
  -26.2642  -15.6315   20.0631 H   0  0  0  0  0  0
  -26.7194  -32.5431   23.1089 H   0  0  0  0  0  0
  -25.0081  -33.9711   25.0416 H   0  0  0  0  0  0
  -22.7194  -31.3015   21.3974 H   0  0  0  0  0  0
  -23.3752  -35.9618   23.3304 H   0  0  0  0  0  0
  -24.3578  -36.8906   22.2054 H   0  0  0  0  0  0
  -23.7239  -37.6488   23.6662 H   0  0  0  0  0  0
  -26.1003  -31.5437   20.6032 H   0  0  0  0  0  0
  -26.8471  -30.8326   22.0028 H   0  0  0  0  0  0
  -28.1266  -28.9667   21.1819 H   0  0  0  0  0  0
  -25.9780  -25.8998   19.0381 H   0  0  0  0  0  0
  -23.9689  -27.2952   19.0240 H   0  0  0  0  0  0
  -23.7633  -30.5876   19.4026 H   0  0  0  0  0  0
  -22.7599  -29.2438   19.8560 H   0  0  0  0  0  0
  -25.1296  -36.1926   25.0822 H   0  0  0  0  0  0
  -20.9985  -28.3269   24.1395 H   0  0  0  0  0  0
  -20.5679  -26.2306   23.3610 H   0  0  0  0  0  0
  -21.6645  -26.7442   22.1200 H   0  0  0  0  0  0
  -19.6915  -25.6293   21.1244 H   0  0  0  0  0  0
  -19.6690  -27.3192   20.6740 H   0  0  0  0  0  0
  -17.4203  -26.6678   21.4027 H   0  0  0  0  0  0
  -18.0335  -26.0073   22.9022 H   0  0  0  0  0  0
  -19.7941  -30.7278   24.2258 H   0  0  0  0  0  0
  -17.5019  -31.6270   24.5164 H   0  0  0  0  0  0
  -15.5356  -30.2988   23.7659 H   0  0  0  0  0  0
  -15.8677  -28.0824   22.7069 H   0  0  0  0  0  0
  -24.5908  -30.7068   25.7767 H   0  0  0  0  0  0
  -24.8910  -32.2891   26.4858 H   0  0  0  0  0  0
  -25.8047  -30.8909   27.0223 H   0  0  0  0  0  0
  -26.2927  -29.6755   24.1206 H   0  0  0  0  0  0
  -27.4044  -29.7270   25.4690 H   0  0  0  0  0  0
  -27.8794  -30.4298   23.9412 H   0  0  0  0  0  0
  -27.2665  -33.3626   26.2061 H   0  0  0  0  0  0
  -28.3870  -32.6876   25.0325 H   0  0  0  0  0  0
  -28.0716  -31.8454   26.5417 H   0  0  0  0  0  0
  -28.2596  -38.0095   24.7510 H   0  0  0  0  0  0
  -28.1071  -36.2625   24.6296 H   0  0  0  0  0  0
  -27.2295  -37.1450   25.8870 H   0  0  0  0  0  0
  -20.9384  -29.8770   21.6877 H   0  0  0  0  0  0
  -26.0169  -38.2849   24.1409 H   0  0  0  0  0  0
  -28.7417  -22.5176   21.8192 H   0  0  0  0  0  0
  -29.8286  -20.5012   18.1640 H   0  0  0  0  0  0
  -29.3682  -25.6230   17.9423 H   0  0  0  0  0  0
  -27.6738  -25.1653   17.7091 H   0  0  0  0  0  0
  -28.9155  -24.5327   16.6405 H   0  0  0  0  0  0
  -29.2812  -20.0122   21.8938 H   0  0  0  0  0  0
  -30.7889  -20.0349   21.0505 H   0  0  0  0  0  0
  -28.5466  -25.0787   21.6971 H   0  0  0  0  0  0
  -27.0478  -24.8704   20.8779 H   0  0  0  0  0  0
  -29.6348  -18.4628   19.2473 H   0  0  0  0  0  0
  -28.3679  -18.2633   20.4153 H   0  0  0  0  0  0
  -30.2864  -17.3876   22.0357 H   0  0  0  0  0  0
  -31.3167  -17.3597   20.6467 H   0  0  0  0  0  0
  -28.8764  -15.6072   20.8996 H   0  0  0  0  0  0
  1 25  1  0  0  0
  1 30  2  0  0  0
  1 82  1  0  0  0
  2  3  1  0  0  0
  2 25  1  0  0  0
  2 83  1  0  0  0
  2 84  1  0  0  0
  3  4  1  0  0  0
  3 85  1  0  0  0
  3 86  1  0  0  0
  4  5  1  0  0  0
  4 87  1  0  0  0
  4 88  1  0  0  0
  5  6  1  0  0  0
  5 26  1  0  0  0
  5 89  1  0  0  0
  6 25  1  0  0  0
  6 90  1  0  0  0
  6 91  1  0  0  0
  7  8  2  0  0  0
  7 26  1  0  0  0
  7 29  1  0  0  0
  8  9  1  0  0  0
  8 22  1  0  0  0
  9 10  1  0  0  0
  9 27  2  0  0  0
 10 11  2  0  0  0
 10 15  1  0  0  0
 11 12  1  0  0  0
 11 92  1  0  0  0
 12 13  2  0  0  0
 12 93  1  0  0  0
 13 14  1  0  0  0
 13 31  1  0  0  0
 14 15  2  0  0  0
 14 94  1  0  0  0
 15 95  1  0  0  0
 16 17  2  0  0  0
 16 21  1  0  0  0
 16 31  1  0  0  0
 17 18  1  0  0  0
 17 96  1  0  0  0
 18 19  2  0  0  0
 18 97  1  0  0  0
 19 20  1  0  0  0
 19 24  1  0  0  0
 20 21  2  0  0  0
 20 98  1  0  0  0
 21 23  1  0  0  0
 22 28  1  0  0  0
 22 32  2  0  0  0
 26 27  1  0  0  0
 28 99  1  0  0  0
 28100  1  0  0  0
 29101  1  0  0  0
 29102  1  0  0  0
 33 34  1  0  0  0
 33 66  1  0  0  0
 33 70  2  0  0  0
 34 36  1  0  0  0
 34 59  1  0  0  0
 34103  1  0  0  0
 35 44  2  0  0  0
 35 45  1  0  0  0
 35 68  1  0  0  0
 36 56  1  0  0  0
 36104  1  0  0  0
 37 39  1  0  0  0
 37 47  1  0  0  0
 37 66  1  0  0  0
 37105  1  0  0  0
 38 43  2  0  0  0
 38 46  1  0  0  0
 38 47  1  0  0  0
 39 64  1  0  0  0
 39 67  2  0  0  0
 40 52  1  0  0  0
 40 53  2  0  0  0
 40 58  1  0  0  0
 41106  1  0  0  0
 41107  1  0  0  0
 41108  1  0  0  0
 41 48  1  0  0  0
 42 43  1  0  0  0
 42 66  1  0  0  0
 42109  1  0  0  0
 42110  1  0  0  0
 43 44  1  0  0  0
 44111  1  0  0  0
 45 46  2  0  0  0
 45112  1  0  0  0
 46113  1  0  0  0
 47114  1  0  0  0
 47115  1  0  0  0
 48 56  1  0  0  0
 48 65  1  0  0  0
 48116  1  0  0  0
 49 50  1  0  0  0
 49 53  1  0  0  0
 49 64  1  0  0  0
 49117  1  0  0  0
 50 51  1  0  0  0
 50118  1  0  0  0
 50119  1  0  0  0
 51 52  1  0  0  0
 51120  1  0  0  0
 51121  1  0  0  0
 52122  1  0  0  0
 52123  1  0  0  0
 53 54  1  0  0  0
 54 55  2  0  0  0
 54124  1  0  0  0
 55 57  1  0  0  0
 55125  1  0  0  0
 56 69  2  0  0  0
 57 58  2  0  0  0
 57126  1  0  0  0
 58127  1  0  0  0
 59 60  1  0  0  0
 59 61  1  0  0  0
 59 62  1  0  0  0
 60128  1  0  0  0
 60129  1  0  0  0
 60130  1  0  0  0
 61131  1  0  0  0
 61132  1  0  0  0
 61133  1  0  0  0
 62134  1  0  0  0
 62135  1  0  0  0
 62136  1  0  0  0
 63 65  1  0  0  0
 63137  1  0  0  0
 63138  1  0  0  0
 63139  1  0  0  0
 64140  1  0  0  0
 65141  1  0  0  0
 68 78  1  0  0  0
 71 73  2  0  0  0
 71 74  1  0  0  0
 71142  1  0  0  0
 72 73  1  0  0  0
 72 81  2  0  0  0
 72143  1  0  0  0
 73 77  1  0  0  0
 74 75  2  0  0  0
 74 78  1  0  0  0
 75 76  1  0  0  0
 75 81  1  0  0  0
 76144  1  0  0  0
 76145  1  0  0  0
 76146  1  0  0  0
 77 79  1  0  0  0
 77147  1  0  0  0
 77148  1  0  0  0
 78149  1  0  0  0
 78150  1  0  0  0
 79 80  1  0  0  0
 79151  1  0  0  0
 79152  1  0  0  0
 80 82  1  0  0  0
 80153  1  0  0  0
 80154  1  0  0  0
 82155  1  0  0  0
M  ISO  4   1 100  68 101  78 101  82 100
M  END
> <chiral flag>
0

> <version>
0

> <s_m_source_file>
/data/baiqing/PycharmProjects/Reinvent-master-3.2/result/LINK_invent/BTK/process_docking_weight1_custom_sum_contain_oxygen_bond_distance_aromatic_linkinvent_7_9_3/rearranged_h_0042.sdf

> <i_m_source_file_index>
6

> <r_mmod_Potential_Energy-OPLS-2005>
-17.9659214019775

> <r_mmod_Stretch_Energy-OPLS-2005>
101.98314666748

> <r_mmod_Bend_Energy-OPLS-2005>
148.177673339844

> <r_mmod_Torsional_Energy-OPLS-2005>
231.204925537109

> <r_mmod_Improper_Torsional_Energy-OPLS-2005>
4.84383487701416

> <r_mmod_Van_der_Waal_Energy-OPLS-2005>
138.088424682617

> <r_mmod_Electrostatic_Energy-OPLS-2005>
-485.352386474609

> <r_mmod_Solvation_Energy-OPLS-2005>
-222.151351928711

> <b_mmod_Minimization_Converged-OPLS-2005>
0

> <r_mmod_RMS_Derivative-OPLS-2005>
0.215175807476044

$$$$
6
                    3D
 Structure written by MMmdl.
161169  0  0  1  0            999 V2000
  -30.6446  -14.4713   20.6605 C   0  0  0  0  0  0
  -30.3895  -12.3301   19.4375 C   0  0  0  0  0  0
  -29.4908  -12.5554   18.2054 C   0  0  0  0  0  0
  -28.0014  -12.3860   18.5886 C   0  0  0  0  0  0
  -27.6345  -13.2121   19.8457 C   0  0  2  0  0  0
  -28.6548  -12.9293   20.9704 C   0  0  0  0  0  0
  -25.2300  -13.8070   20.5392 C   0  0  0  0  0  0
  -24.1632  -13.0302   20.9148 C   0  0  0  0  0  0
  -24.6233  -11.6871   20.8687 C   0  0  0  0  0  0
  -23.8866  -10.4228   21.0411 C   0  0  0  0  0  0
  -24.3366   -9.4191   21.9209 C   0  0  0  0  0  0
  -23.6130   -8.2218   22.0776 C   0  0  0  0  0  0
  -22.4140   -8.0187   21.3530 C   0  0  0  0  0  0
  -21.9711   -9.0102   20.4671 C   0  0  0  0  0  0
  -22.7022  -10.2036   20.3158 C   0  0  0  0  0  0
  -21.6780   -6.0714   22.5337 C   0  0  0  0  0  0
  -21.3820   -6.5611   23.8269 C   0  0  0  0  0  0
  -21.3533   -5.6798   24.9214 C   0  0  0  0  0  0
  -21.6054   -4.3083   24.7325 C   0  0  0  0  0  0
  -21.8804   -3.8138   23.4490 C   0  0  0  0  0  0
  -21.9188   -4.6950   22.3504 C   0  0  0  0  0  0
  -22.7712  -13.5132   21.1996 C   0  0  0  0  0  0
  -22.1733   -4.2143   21.1082 F   0  0  0  0  0  0
  -21.5618   -3.4563   25.7805 F   0  0  0  0  0  0
  -29.9732  -13.3023   20.4733 N   0  0  0  0  0  0
  -26.2714  -12.9310   20.3007 N   0  0  0  0  0  0
  -25.9160  -11.6427   20.5550 N   0  0  0  0  0  0
  -22.0231  -12.8037   22.0336 N   0  0  0  0  0  0
  -25.3749  -15.1808   20.3693 N   0  0  0  0  0  0
  -31.7568  -14.6416   20.1602 O   0  0  0  0  0  0
  -21.6518   -6.8803   21.4290 O   0  0  0  0  0  0
  -22.3535  -14.5682   20.7303 O   0  0  0  0  0  0
  -24.6100  -31.8640   23.2222 C   0  0  0  0  0  0
  -25.8992  -32.4813   23.8449 C   0  0  1  0  0  0
  -27.2465  -27.4190   20.1438 C   0  0  0  0  0  0
  -25.5880  -33.8593   24.2409 N   0  0  0  0  0  0
  -23.3974  -30.4993   21.5454 C   0  0  2  0  0  0
  -24.8592  -28.9573   20.1166 C   0  0  0  0  0  0
  -22.7374  -29.4648   22.4811 C   0  0  0  0  0  0
  -18.0288  -28.1342   22.8488 C   0  0  0  0  0  0
  -24.1477  -36.7320   23.2631 C   0  0  0  0  0  0
  -25.9340  -30.8392   21.3710 C   0  0  0  0  0  0
  -26.0159  -29.4676   20.7206 C   0  0  0  0  0  0
  -27.2085  -28.7057   20.7342 C   0  0  0  0  0  0
  -26.0803  -26.9323   19.5171 C   0  0  0  0  0  0
  -24.8859  -27.6824   19.5210 C   0  0  0  0  0  0
  -23.6173  -29.8290   20.1582 C   0  0  0  0  0  0
  -25.4063  -36.3117   24.0367 C   0  0  1  0  0  0
  -20.5893  -28.3611   23.1276 C   0  0  2  0  0  0
  -20.6739  -26.9311   22.5421 C   0  0  0  0  0  0
  -19.5686  -26.6351   21.5215 C   0  0  0  0  0  0
  -18.1888  -26.7897   22.1639 C   0  0  0  0  0  0
  -19.1552  -28.8775   23.2917 C   0  0  0  0  0  0
  -18.9458  -30.1397   23.8938 C   0  0  0  0  0  0
  -17.6456  -30.6561   24.0558 C   0  0  0  0  0  0
  -25.9007  -34.9472   23.5198 C   0  0  0  0  0  0
  -16.5357  -29.9057   23.6317 C   0  0  0  0  0  0
  -16.7280  -28.6465   23.0352 C   0  0  0  0  0  0
  -26.4469  -31.6591   25.0782 C   0  0  0  0  0  0
  -25.3829  -31.3644   26.1624 C   0  0  0  0  0  0
  -27.0287  -30.3018   24.6174 C   0  0  0  0  0  0
  -27.6037  -32.4326   25.7561 C   0  0  0  0  0  0
  -27.5575  -37.1828   24.8466 C   0  0  0  0  0  0
  -21.4099  -29.3052   22.3672 N   0  0  0  0  0  0
  -26.4269  -37.3788   23.9458 N   0  0  0  0  0  0
  -24.6631  -31.0839   22.1050 N   0  0  0  0  0  0
  -23.4207  -28.8047   23.2691 O   0  0  0  0  0  0
  -28.3853  -26.6389   20.1892 O   0  0  0  0  0  0
  -26.5532  -34.8915   22.4763 O   0  0  0  0  0  0
  -23.5314  -32.1316   23.7716 O   0  0  0  0  0  0
  -28.2473  -20.9624   21.9853 C   0  0  0  0  0  0
  -25.9155  -21.4674   21.6385 C   0  0  0  0  0  0
  -27.2321  -21.9239   21.8010 C   0  0  0  0  0  0
  -27.9024  -19.5861   22.0856 C   0  0  0  0  0  0
  -26.5123  -19.2718   22.1636 C   0  0  0  0  0  0
  -25.9310  -17.9369   22.6478 C   0  0  0  0  0  0
  -27.5083  -23.4192   21.9884 C   0  0  0  0  0  0
  -29.0384  -18.5525   21.8784 C   0  0  0  0  0  0
  -28.2025  -24.2216   20.8612 C   0  0  0  0  0  0
  -29.0956  -17.2707   22.7614 C   0  0  0  0  0  0
  -28.8511  -15.9555   21.9535 C   0  0  0  0  0  0
  -28.4171  -25.7011   21.2899 C   0  0  0  0  0  0
  -25.5516  -20.1867   21.8885 N   0  0  0  0  0  0
  -30.1331  -15.4987   21.3823 N   0  0  0  0  0  0
  -31.4412  -12.4293   19.1505 H   0  0  0  0  0  0
  -30.2812  -11.3097   19.8107 H   0  0  0  0  0  0
  -29.7523  -11.8778   17.3854 H   0  0  0  0  0  0
  -29.6719  -13.5667   17.8328 H   0  0  0  0  0  0
  -27.8375  -11.3251   18.7793 H   0  0  0  0  0  0
  -27.3505  -12.6144   17.7452 H   0  0  0  0  0  0
  -27.6741  -14.2616   19.5286 H   0  0  0  0  0  0
  -28.6610  -11.8632   21.1861 H   0  0  0  0  0  0
  -28.3995  -13.3808   21.9159 H   0  0  0  0  0  0
  -25.2499   -9.5819   22.4726 H   0  0  0  0  0  0
  -23.9905   -7.4668   22.7491 H   0  0  0  0  0  0
  -21.0674   -8.8595   19.8981 H   0  0  0  0  0  0
  -22.3413  -10.9548   19.6259 H   0  0  0  0  0  0
  -21.1620   -7.6108   23.9777 H   0  0  0  0  0  0
  -21.1403   -6.0488   25.9092 H   0  0  0  0  0  0
  -22.0640   -2.7597   23.3028 H   0  0  0  0  0  0
  -22.3716  -11.9877   22.5166 H   0  0  0  0  0  0
  -21.0800  -13.1087   22.2308 H   0  0  0  0  0  0
  -24.5627  -15.7914   20.3429 H   0  0  0  0  0  0
  -26.1528  -15.5558   19.8439 H   0  0  0  0  0  0
  -26.7035  -32.5562   23.1187 H   0  0  0  0  0  0
  -25.0127  -33.9705   25.0613 H   0  0  0  0  0  0
  -22.6917  -31.3217   21.4031 H   0  0  0  0  0  0
  -23.3764  -35.9652   23.3334 H   0  0  0  0  0  0
  -24.3542  -36.8897   22.2052 H   0  0  0  0  0  0
  -23.7258  -37.6543   23.6601 H   0  0  0  0  0  0
  -26.0622  -31.6184   20.6157 H   0  0  0  0  0  0
  -26.8155  -30.8835   22.0008 H   0  0  0  0  0  0
  -28.1001  -29.0980   21.2157 H   0  0  0  0  0  0
  -26.0961  -25.9670   19.0362 H   0  0  0  0  0  0
  -23.9861  -27.2754   19.0807 H   0  0  0  0  0  0
  -23.7629  -30.6090   19.4134 H   0  0  0  0  0  0
  -22.7423  -29.2643   19.8313 H   0  0  0  0  0  0
  -25.1258  -36.1967   25.0855 H   0  0  0  0  0  0
  -21.0066  -28.3236   24.1345 H   0  0  0  0  0  0
  -20.5563  -26.2207   23.3599 H   0  0  0  0  0  0
  -21.6589  -26.7248   22.1235 H   0  0  0  0  0  0
  -19.6824  -25.6269   21.1182 H   0  0  0  0  0  0
  -19.6695  -27.3213   20.6761 H   0  0  0  0  0  0
  -17.4177  -26.6689   21.4064 H   0  0  0  0  0  0
  -18.0298  -26.0035   22.8996 H   0  0  0  0  0  0
  -19.7941  -30.7198   24.2354 H   0  0  0  0  0  0
  -17.5020  -31.6248   24.5116 H   0  0  0  0  0  0
  -15.5361  -30.2965   23.7589 H   0  0  0  0  0  0
  -15.8694  -28.0797   22.7024 H   0  0  0  0  0  0
  -24.5992  -30.6938   25.8094 H   0  0  0  0  0  0
  -24.9047  -32.2762   26.5198 H   0  0  0  0  0  0
  -25.8312  -30.8825   27.0316 H   0  0  0  0  0  0
  -26.2807  -29.6778   24.1286 H   0  0  0  0  0  0
  -27.4072  -29.7254   25.4629 H   0  0  0  0  0  0
  -27.8649  -30.4340   23.9297 H   0  0  0  0  0  0
  -27.2585  -33.3530   26.2261 H   0  0  0  0  0  0
  -28.3795  -32.7023   25.0391 H   0  0  0  0  0  0
  -28.0759  -31.8406   26.5411 H   0  0  0  0  0  0
  -28.2608  -38.0109   24.7510 H   0  0  0  0  0  0
  -28.1048  -36.2659   24.6278 H   0  0  0  0  0  0
  -27.2297  -37.1487   25.8857 H   0  0  0  0  0  0
  -20.9146  -29.8875   21.7068 H   0  0  0  0  0  0
  -26.0180  -38.2875   24.1451 H   0  0  0  0  0  0
  -29.2752  -21.2909   22.0795 H   0  0  0  0  0  0
  -25.1134  -22.1567   21.4140 H   0  0  0  0  0  0
  -26.1188  -17.8073   23.7105 H   0  0  0  0  0  0
  -26.3241  -17.0588   22.1496 H   0  0  0  0  0  0
  -24.8408  -17.9263   22.5532 H   0  0  0  0  0  0
  -28.0874  -23.5059   22.9150 H   0  0  0  0  0  0
  -26.5296  -23.8752   22.1814 H   0  0  0  0  0  0
  -30.0100  -19.0595   21.9383 H   0  0  0  0  0  0
  -28.9337  -18.2786   20.8253 H   0  0  0  0  0  0
  -27.5664  -24.1932   19.9785 H   0  0  0  0  0  0
  -29.1575  -23.7631   20.5822 H   0  0  0  0  0  0
  -28.3970  -17.3524   23.5926 H   0  0  0  0  0  0
  -30.0818  -17.2196   23.2415 H   0  0  0  0  0  0
  -28.0897  -16.0990   21.1768 H   0  0  0  0  0  0
  -28.4022  -15.2666   22.6576 H   0  0  0  0  0  0
  -29.3477  -25.7982   21.8636 H   0  0  0  0  0  0
  -27.6379  -25.9738   22.0024 H   0  0  0  0  0  0
  -30.8228  -16.2288   21.4313 H   0  0  0  0  0  0
  1 25  1  0  0  0
  1 30  2  0  0  0
  1 84  1  0  0  0
  2  3  1  0  0  0
  2 25  1  0  0  0
  2 85  1  0  0  0
  2 86  1  0  0  0
  3  4  1  0  0  0
  3 87  1  0  0  0
  3 88  1  0  0  0
  4  5  1  0  0  0
  4 89  1  0  0  0
  4 90  1  0  0  0
  5  6  1  0  0  0
  5 26  1  0  0  0
  5 91  1  0  0  0
  6 25  1  0  0  0
  6 92  1  0  0  0
  6 93  1  0  0  0
  7  8  2  0  0  0
  7 26  1  0  0  0
  7 29  1  0  0  0
  8  9  1  0  0  0
  8 22  1  0  0  0
  9 10  1  0  0  0
  9 27  2  0  0  0
 10 11  2  0  0  0
 10 15  1  0  0  0
 11 12  1  0  0  0
 11 94  1  0  0  0
 12 13  2  0  0  0
 12 95  1  0  0  0
 13 14  1  0  0  0
 13 31  1  0  0  0
 14 15  2  0  0  0
 14 96  1  0  0  0
 15 97  1  0  0  0
 16 17  2  0  0  0
 16 21  1  0  0  0
 16 31  1  0  0  0
 17 18  1  0  0  0
 17 98  1  0  0  0
 18 19  2  0  0  0
 18 99  1  0  0  0
 19 20  1  0  0  0
 19 24  1  0  0  0
 20 21  2  0  0  0
 20100  1  0  0  0
 21 23  1  0  0  0
 22 28  1  0  0  0
 22 32  2  0  0  0
 26 27  1  0  0  0
 28101  1  0  0  0
 28102  1  0  0  0
 29103  1  0  0  0
 29104  1  0  0  0
 33 34  1  0  0  0
 33 66  1  0  0  0
 33 70  2  0  0  0
 34 36  1  0  0  0
 34 59  1  0  0  0
 34105  1  0  0  0
 35 44  2  0  0  0
 35 45  1  0  0  0
 35 68  1  0  0  0
 36 56  1  0  0  0
 36106  1  0  0  0
 37 39  1  0  0  0
 37 47  1  0  0  0
 37 66  1  0  0  0
 37107  1  0  0  0
 38 43  2  0  0  0
 38 46  1  0  0  0
 38 47  1  0  0  0
 39 64  1  0  0  0
 39 67  2  0  0  0
 40 52  1  0  0  0
 40 53  2  0  0  0
 40 58  1  0  0  0
 41108  1  0  0  0
 41109  1  0  0  0
 41110  1  0  0  0
 41 48  1  0  0  0
 42 43  1  0  0  0
 42 66  1  0  0  0
 42111  1  0  0  0
 42112  1  0  0  0
 43 44  1  0  0  0
 44113  1  0  0  0
 45 46  2  0  0  0
 45114  1  0  0  0
 46115  1  0  0  0
 47116  1  0  0  0
 47117  1  0  0  0
 48 56  1  0  0  0
 48 65  1  0  0  0
 48118  1  0  0  0
 49 50  1  0  0  0
 49 53  1  0  0  0
 49 64  1  0  0  0
 49119  1  0  0  0
 50 51  1  0  0  0
 50120  1  0  0  0
 50121  1  0  0  0
 51 52  1  0  0  0
 51122  1  0  0  0
 51123  1  0  0  0
 52124  1  0  0  0
 52125  1  0  0  0
 53 54  1  0  0  0
 54 55  2  0  0  0
 54126  1  0  0  0
 55 57  1  0  0  0
 55127  1  0  0  0
 56 69  2  0  0  0
 57 58  2  0  0  0
 57128  1  0  0  0
 58129  1  0  0  0
 59 60  1  0  0  0
 59 61  1  0  0  0
 59 62  1  0  0  0
 60130  1  0  0  0
 60131  1  0  0  0
 60132  1  0  0  0
 61133  1  0  0  0
 61134  1  0  0  0
 61135  1  0  0  0
 62136  1  0  0  0
 62137  1  0  0  0
 62138  1  0  0  0
 63 65  1  0  0  0
 63139  1  0  0  0
 63140  1  0  0  0
 63141  1  0  0  0
 64142  1  0  0  0
 65143  1  0  0  0
 68 82  1  0  0  0
 71 73  2  0  0  0
 71 74  1  0  0  0
 71144  1  0  0  0
 72 73  1  0  0  0
 72 83  2  0  0  0
 72145  1  0  0  0
 73 77  1  0  0  0
 74 75  2  0  0  0
 74 78  1  0  0  0
 75 76  1  0  0  0
 75 83  1  0  0  0
 76146  1  0  0  0
 76147  1  0  0  0
 76148  1  0  0  0
 77 79  1  0  0  0
 77149  1  0  0  0
 77150  1  0  0  0
 78 80  1  0  0  0
 78151  1  0  0  0
 78152  1  0  0  0
 79 82  1  0  0  0
 79153  1  0  0  0
 79154  1  0  0  0
 80 81  1  0  0  0
 80155  1  0  0  0
 80156  1  0  0  0
 81 84  1  0  0  0
 81157  1  0  0  0
 81158  1  0  0  0
 82159  1  0  0  0
 82160  1  0  0  0
 84161  1  0  0  0
M  ISO  4   1 100  68 101  82 101  84 100
M  END
> <chiral flag>
0

> <version>
0

> <s_m_source_file>
/data/baiqing/PycharmProjects/Reinvent-master-3.2/result/LINK_invent/BTK/process_docking_weight1_custom_sum_contain_oxygen_bond_distance_aromatic_linkinvent_7_9_3/rearranged_h_0042.sdf

> <i_m_source_file_index>
7

> <r_mmod_Potential_Energy-OPLS-2005>
-29.249641418457

> <r_mmod_Stretch_Energy-OPLS-2005>
46.9612426757812

> <r_mmod_Bend_Energy-OPLS-2005>
162.473739624023

> <r_mmod_Torsional_Energy-OPLS-2005>
321.640258789062

> <r_mmod_Improper_Torsional_Energy-OPLS-2005>
6.54538679122925

> <r_mmod_Van_der_Waal_Energy-OPLS-2005>
147.460586547852

> <r_mmod_Electrostatic_Energy-OPLS-2005>
-518.591796875

> <r_mmod_Solvation_Energy-OPLS-2005>
-216.279922485352

> <b_mmod_Minimization_Converged-OPLS-2005>
0

> <r_mmod_RMS_Derivative-OPLS-2005>
18.4339485168457

$$$$
7
                    3D
 Structure written by MMmdl.
171179  0  0  1  0            999 V2000
  -30.7326  -14.4118   20.6507 C   0  0  0  0  0  0
  -30.4223  -12.3039   19.3996 C   0  0  0  0  0  0
  -29.4869  -12.5194   18.1938 C   0  0  0  0  0  0
  -28.0100  -12.3752   18.6104 C   0  0  0  0  0  0
  -27.6636  -13.2022   19.8768 C   0  0  2  0  0  0
  -28.7030  -12.9500   20.9902 C   0  0  0  0  0  0
  -25.2598  -13.8154   20.5673 C   0  0  0  0  0  0
  -24.1841  -13.0437   20.9167 C   0  0  0  0  0  0
  -24.6386  -11.6902   20.8727 C   0  0  0  0  0  0
  -23.9051  -10.4292   21.0402 C   0  0  0  0  0  0
  -24.3607   -9.4209   21.9181 C   0  0  0  0  0  0
  -23.6285   -8.2243   22.0752 C   0  0  0  0  0  0
  -22.4268   -8.0279   21.3543 C   0  0  0  0  0  0
  -21.9900   -9.0251   20.4645 C   0  0  0  0  0  0
  -22.7225  -10.2133   20.3052 C   0  0  0  0  0  0
  -21.6852   -6.0733   22.5278 C   0  0  0  0  0  0
  -21.4014   -6.5638   23.8211 C   0  0  0  0  0  0
  -21.3659   -5.6791   24.9175 C   0  0  0  0  0  0
  -21.6044   -4.3054   24.7226 C   0  0  0  0  0  0
  -21.8820   -3.8145   23.4347 C   0  0  0  0  0  0
  -21.9192   -4.6961   22.3402 C   0  0  0  0  0  0
  -22.7867  -13.5243   21.1838 C   0  0  0  0  0  0
  -22.1661   -4.2146   21.0980 F   0  0  0  0  0  0
  -21.5629   -3.4537   25.7740 F   0  0  0  0  0  0
  -30.0382  -13.2613   20.4469 N   0  0  0  0  0  0
  -26.3030  -12.9314   20.3366 N   0  0  0  0  0  0
  -25.9310  -11.6476   20.5752 N   0  0  0  0  0  0
  -22.0506  -12.8237   22.0397 N   0  0  0  0  0  0
  -25.4339  -15.1869   20.4086 N   0  0  0  0  0  0
  -31.8135  -14.6557   20.1068 O   0  0  0  0  0  0
  -21.6636   -6.8874   21.4239 O   0  0  0  0  0  0
  -22.3554  -14.5551   20.6693 O   0  0  0  0  0  0
  -24.6138  -31.8697   23.2119 C   0  0  0  0  0  0
  -25.9037  -32.4831   23.8408 C   0  0  1  0  0  0
  -27.2313  -27.4371   20.0905 C   0  0  0  0  0  0
  -25.5895  -33.8628   24.2338 N   0  0  0  0  0  0
  -23.4004  -30.4941   21.5538 C   0  0  2  0  0  0
  -24.8431  -28.9595   20.1204 C   0  0  0  0  0  0
  -22.7406  -29.4666   22.5013 C   0  0  0  0  0  0
  -18.0268  -28.1374   22.8491 C   0  0  0  0  0  0
  -24.1487  -36.7319   23.2637 C   0  0  0  0  0  0
  -25.9296  -30.8345   21.3650 C   0  0  0  0  0  0
  -26.0042  -29.4687   20.7136 C   0  0  0  0  0  0
  -27.1998  -28.7155   20.6937 C   0  0  0  0  0  0
  -26.0481  -26.9447   19.4900 C   0  0  0  0  0  0
  -24.8595  -27.6961   19.5081 C   0  0  0  0  0  0
  -23.6071  -29.8277   20.1684 C   0  0  0  0  0  0
  -25.4107  -36.3118   24.0339 C   0  0  1  0  0  0
  -20.5857  -28.3657   23.1327 C   0  0  2  0  0  0
  -20.6761  -26.9397   22.5421 C   0  0  0  0  0  0
  -19.5740  -26.6383   21.5215 C   0  0  0  0  0  0
  -18.1916  -26.7919   22.1623 C   0  0  0  0  0  0
  -19.1517  -28.8832   23.2903 C   0  0  0  0  0  0
  -18.9448  -30.1438   23.8914 C   0  0  0  0  0  0
  -17.6452  -30.6580   24.0565 C   0  0  0  0  0  0
  -25.9034  -34.9482   23.5135 C   0  0  0  0  0  0
  -16.5342  -29.9085   23.6323 C   0  0  0  0  0  0
  -16.7259  -28.6501   23.0344 C   0  0  0  0  0  0
  -26.4467  -31.6604   25.0731 C   0  0  0  0  0  0
  -25.3736  -31.3704   26.1483 C   0  0  0  0  0  0
  -27.0296  -30.3050   24.6095 C   0  0  0  0  0  0
  -27.6046  -32.4322   25.7489 C   0  0  0  0  0  0
  -27.5582  -37.1814   24.8464 C   0  0  0  0  0  0
  -21.4137  -29.3031   22.3745 N   0  0  0  0  0  0
  -26.4297  -37.3799   23.9406 N   0  0  0  0  0  0
  -24.6663  -31.0804   22.1018 N   0  0  0  0  0  0
  -23.4187  -28.8205   23.3045 O   0  0  0  0  0  0
  -28.4261  -26.7443   20.0652 O   0  0  0  0  0  0
  -26.5600  -34.8930   22.4700 O   0  0  0  0  0  0
  -23.5334  -32.1448   23.7520 O   0  0  0  0  0  0
  -29.2937  -22.0382   20.7265 C   0  0  0  0  0  0
  -27.9608  -19.7622   21.6509 C   0  0  0  0  0  0
  -29.7383  -20.7578   20.3263 C   0  0  0  0  0  0
  -28.1699  -22.2034   21.5701 C   0  0  0  0  0  0
  -29.0684  -19.6014   20.7966 C   0  0  0  0  0  0
  -27.4907  -21.0399   22.0317 C   0  0  0  0  0  0
  -30.9311  -20.6570   19.3886 C   0  0  0  0  0  0
  -26.5718  -20.5707   24.3445 C   0  0  0  0  0  0
  -25.0470  -20.3897   22.3198 C   0  0  0  0  0  0
  -27.6852  -23.6013   21.9871 C   0  0  0  0  0  0
  -29.4730  -18.1852   20.3774 C   0  0  0  0  0  0
  -30.8117  -17.6938   20.9728 C   0  0  0  0  0  0
  -28.5240  -24.8450   21.6062 C   0  0  0  0  0  0
  -30.7128  -16.5387   21.9957 C   0  0  0  0  0  0
  -28.4086  -25.3101   20.1398 C   0  0  0  0  0  0
  -26.2569  -21.1081   22.9405 C   0  0  0  0  0  0
  -30.1433  -15.2924   21.4739 N   0  0  0  0  0  0
  -31.4644  -12.4143   19.0939 H   0  0  0  0  0  0
  -30.3316  -11.2845   19.7775 H   0  0  0  0  0  0
  -29.7227  -11.8069   17.4023 H   0  0  0  0  0  0
  -29.6533  -13.5118   17.7719 H   0  0  0  0  0  0
  -27.8189  -11.3175   18.7959 H   0  0  0  0  0  0
  -27.3567  -12.6606   17.7852 H   0  0  0  0  0  0
  -27.7190  -14.2551   19.5992 H   0  0  0  0  0  0
  -28.6765  -11.9040   21.2993 H   0  0  0  0  0  0
  -28.4521  -13.5160   21.8875 H   0  0  0  0  0  0
  -25.2753   -9.5688   22.4751 H   0  0  0  0  0  0
  -23.9998   -7.4637   22.7471 H   0  0  0  0  0  0
  -21.0832   -8.8766   19.8952 H   0  0  0  0  0  0
  -22.3682  -10.9669   19.6160 H   0  0  0  0  0  0
  -21.2005   -7.6147   23.9715 H   0  0  0  0  0  0
  -21.1481   -6.0522   25.9078 H   0  0  0  0  0  0
  -22.0599   -2.7607   23.2849 H   0  0  0  0  0  0
  -22.4116  -11.9893   22.4780 H   0  0  0  0  0  0
  -21.1126  -13.1268   22.2603 H   0  0  0  0  0  0
  -24.6712  -15.8461   20.5183 H   0  0  0  0  0  0
  -26.2927  -15.6227   20.0967 H   0  0  0  0  0  0
  -26.7105  -32.5544   23.1170 H   0  0  0  0  0  0
  -25.0044  -33.9792   25.0481 H   0  0  0  0  0  0
  -22.6883  -31.3105   21.4166 H   0  0  0  0  0  0
  -23.3747  -35.9654   23.3314 H   0  0  0  0  0  0
  -24.3578  -36.8920   22.2048 H   0  0  0  0  0  0
  -23.7243  -37.6529   23.6645 H   0  0  0  0  0  0
  -26.0427  -31.5999   20.5958 H   0  0  0  0  0  0
  -26.8178  -30.8869   21.9830 H   0  0  0  0  0  0
  -28.0993  -29.1107   21.1449 H   0  0  0  0  0  0
  -26.0172  -25.9989   18.9724 H   0  0  0  0  0  0
  -23.9686  -27.3022   19.0389 H   0  0  0  0  0  0
  -23.7171  -30.6032   19.4096 H   0  0  0  0  0  0
  -22.7301  -29.2490   19.8722 H   0  0  0  0  0  0
  -25.1283  -36.1988   25.0833 H   0  0  0  0  0  0
  -20.9943  -28.3220   24.1449 H   0  0  0  0  0  0
  -20.5674  -26.2263   23.3605 H   0  0  0  0  0  0
  -21.6631  -26.7449   22.1207 H   0  0  0  0  0  0
  -19.6908  -25.6302   21.1225 H   0  0  0  0  0  0
  -19.6680  -27.3210   20.6759 H   0  0  0  0  0  0
  -17.4191  -26.6669   21.4021 H   0  0  0  0  0  0
  -18.0312  -26.0060   22.9018 H   0  0  0  0  0  0
  -19.7928  -30.7240   24.2298 H   0  0  0  0  0  0
  -17.5011  -31.6263   24.5161 H   0  0  0  0  0  0
  -15.5344  -30.2992   23.7639 H   0  0  0  0  0  0
  -15.8657  -28.0826   22.7051 H   0  0  0  0  0  0
  -24.5902  -30.7060   25.7819 H   0  0  0  0  0  0
  -24.8933  -32.2855   26.4956 H   0  0  0  0  0  0
  -25.8088  -30.8854   27.0229 H   0  0  0  0  0  0
  -26.2838  -29.6817   24.1146 H   0  0  0  0  0  0
  -27.4070  -29.7277   25.4544 H   0  0  0  0  0  0
  -27.8671  -30.4374   23.9241 H   0  0  0  0  0  0
  -27.2667  -33.3608   26.2103 H   0  0  0  0  0  0
  -28.3832  -32.6907   25.0300 H   0  0  0  0  0  0
  -28.0743  -31.8427   26.5372 H   0  0  0  0  0  0
  -28.2608  -38.0104   24.7509 H   0  0  0  0  0  0
  -28.1070  -36.2636   24.6295 H   0  0  0  0  0  0
  -27.2300  -37.1470   25.8868 H   0  0  0  0  0  0
  -20.9302  -29.8762   21.6973 H   0  0  0  0  0  0
  -26.0191  -38.2882   24.1400 H   0  0  0  0  0  0
  -29.8312  -22.9015   20.3658 H   0  0  0  0  0  0
  -27.4483  -18.8818   22.0122 H   0  0  0  0  0  0
  -31.2047  -21.6326   18.9858 H   0  0  0  0  0  0
  -30.7127  -20.0075   18.5412 H   0  0  0  0  0  0
  -31.8020  -20.2625   19.9115 H   0  0  0  0  0  0
  -27.3899  -21.1291   24.8009 H   0  0  0  0  0  0
  -26.8604  -19.5196   24.3209 H   0  0  0  0  0  0
  -25.7071  -20.6607   25.0028 H   0  0  0  0  0  0
  -24.8109  -20.8022   21.3383 H   0  0  0  0  0  0
  -24.1612  -20.5082   22.9447 H   0  0  0  0  0  0
  -25.2171  -19.3200   22.1986 H   0  0  0  0  0  0
  -27.6200  -23.5975   23.0760 H   0  0  0  0  0  0
  -26.6668  -23.7402   21.6215 H   0  0  0  0  0  0
  -29.5287  -18.1560   19.2891 H   0  0  0  0  0  0
  -28.6729  -17.4879   20.6286 H   0  0  0  0  0  0
  -31.3304  -18.5273   21.4474 H   0  0  0  0  0  0
  -31.4649  -17.3860   20.1556 H   0  0  0  0  0  0
  -29.5682  -24.7250   21.8971 H   0  0  0  0  0  0
  -28.1504  -25.6585   22.2292 H   0  0  0  0  0  0
  -30.1074  -16.8594   22.8444 H   0  0  0  0  0  0
  -31.7046  -16.3266   22.3990 H   0  0  0  0  0  0
  -27.5549  -24.8419   19.6576 H   0  0  0  0  0  0
  -29.2711  -24.9501   19.5799 H   0  0  0  0  0  0
  -25.9385  -22.1393   23.0722 H   0  0  0  0  0  0
  -29.2519  -15.0080   21.8530 H   0  0  0  0  0  0
  1 25  1  0  0  0
  1 30  2  0  0  0
  1 87  1  0  0  0
  2  3  1  0  0  0
  2 25  1  0  0  0
  2 88  1  0  0  0
  2 89  1  0  0  0
  3  4  1  0  0  0
  3 90  1  0  0  0
  3 91  1  0  0  0
  4  5  1  0  0  0
  4 92  1  0  0  0
  4 93  1  0  0  0
  5  6  1  0  0  0
  5 26  1  0  0  0
  5 94  1  0  0  0
  6 25  1  0  0  0
  6 95  1  0  0  0
  6 96  1  0  0  0
  7  8  2  0  0  0
  7 26  1  0  0  0
  7 29  1  0  0  0
  8  9  1  0  0  0
  8 22  1  0  0  0
  9 10  1  0  0  0
  9 27  2  0  0  0
 10 11  2  0  0  0
 10 15  1  0  0  0
 11 12  1  0  0  0
 11 97  1  0  0  0
 12 13  2  0  0  0
 12 98  1  0  0  0
 13 14  1  0  0  0
 13 31  1  0  0  0
 14 15  2  0  0  0
 14 99  1  0  0  0
 15100  1  0  0  0
 16 17  2  0  0  0
 16 21  1  0  0  0
 16 31  1  0  0  0
 17 18  1  0  0  0
 17101  1  0  0  0
 18 19  2  0  0  0
 18102  1  0  0  0
 19 20  1  0  0  0
 19 24  1  0  0  0
 20 21  2  0  0  0
 20103  1  0  0  0
 21 23  1  0  0  0
 22 28  1  0  0  0
 22 32  2  0  0  0
 26 27  1  0  0  0
 28104  1  0  0  0
 28105  1  0  0  0
 29106  1  0  0  0
 29107  1  0  0  0
 33 34  1  0  0  0
 33 66  1  0  0  0
 33 70  2  0  0  0
 34 36  1  0  0  0
 34 59  1  0  0  0
 34108  1  0  0  0
 35 44  2  0  0  0
 35 45  1  0  0  0
 35 68  1  0  0  0
 36 56  1  0  0  0
 36109  1  0  0  0
 37 39  1  0  0  0
 37 47  1  0  0  0
 37 66  1  0  0  0
 37110  1  0  0  0
 38 43  2  0  0  0
 38 46  1  0  0  0
 38 47  1  0  0  0
 39 64  1  0  0  0
 39 67  2  0  0  0
 40 52  1  0  0  0
 40 53  2  0  0  0
 40 58  1  0  0  0
 41111  1  0  0  0
 41112  1  0  0  0
 41113  1  0  0  0
 41 48  1  0  0  0
 42 43  1  0  0  0
 42 66  1  0  0  0
 42114  1  0  0  0
 42115  1  0  0  0
 43 44  1  0  0  0
 44116  1  0  0  0
 45 46  2  0  0  0
 45117  1  0  0  0
 46118  1  0  0  0
 47119  1  0  0  0
 47120  1  0  0  0
 48 56  1  0  0  0
 48 65  1  0  0  0
 48121  1  0  0  0
 49 50  1  0  0  0
 49 53  1  0  0  0
 49 64  1  0  0  0
 49122  1  0  0  0
 50 51  1  0  0  0
 50123  1  0  0  0
 50124  1  0  0  0
 51 52  1  0  0  0
 51125  1  0  0  0
 51126  1  0  0  0
 52127  1  0  0  0
 52128  1  0  0  0
 53 54  1  0  0  0
 54 55  2  0  0  0
 54129  1  0  0  0
 55 57  1  0  0  0
 55130  1  0  0  0
 56 69  2  0  0  0
 57 58  2  0  0  0
 57131  1  0  0  0
 58132  1  0  0  0
 59 60  1  0  0  0
 59 61  1  0  0  0
 59 62  1  0  0  0
 60133  1  0  0  0
 60134  1  0  0  0
 60135  1  0  0  0
 61136  1  0  0  0
 61137  1  0  0  0
 61138  1  0  0  0
 62139  1  0  0  0
 62140  1  0  0  0
 62141  1  0  0  0
 63 65  1  0  0  0
 63142  1  0  0  0
 63143  1  0  0  0
 63144  1  0  0  0
 64145  1  0  0  0
 65146  1  0  0  0
 68 85  1  0  0  0
 71 73  2  0  0  0
 71 74  1  0  0  0
 71147  1  0  0  0
 72 75  2  0  0  0
 72 76  1  0  0  0
 72148  1  0  0  0
 73 75  1  0  0  0
 73 77  1  0  0  0
 74 76  2  0  0  0
 74 80  1  0  0  0
 75 81  1  0  0  0
 76 86  1  0  0  0
 77149  1  0  0  0
 77150  1  0  0  0
 77151  1  0  0  0
 78152  1  0  0  0
 78153  1  0  0  0
 78154  1  0  0  0
 78 86  1  0  0  0
 79 86  1  0  0  0
 79155  1  0  0  0
 79156  1  0  0  0
 79157  1  0  0  0
 80 83  1  0  0  0
 80158  1  0  0  0
 80159  1  0  0  0
 81 82  1  0  0  0
 81160  1  0  0  0
 81161  1  0  0  0
 82 84  1  0  0  0
 82162  1  0  0  0
 82163  1  0  0  0
 83 85  1  0  0  0
 83164  1  0  0  0
 83165  1  0  0  0
 84 87  1  0  0  0
 84166  1  0  0  0
 84167  1  0  0  0
 85168  1  0  0  0
 85169  1  0  0  0
 86170  1  0  0  0
 87171  1  0  0  0
M  ISO  4   1 100  68 101  85 101  87 100
M  END
> <chiral flag>
0

> <version>
0

> <s_m_source_file>
/data/baiqing/PycharmProjects/Reinvent-master-3.2/result/LINK_invent/BTK/process_docking_weight1_custom_sum_contain_oxygen_bond_distance_aromatic_linkinvent_7_9_3/rearranged_h_0042.sdf

> <i_m_source_file_index>
8

> <r_mmod_Potential_Energy-OPLS-2005>
-74.8073806762695

> <r_mmod_Stretch_Energy-OPLS-2005>
37.6377754211426

> <r_mmod_Bend_Energy-OPLS-2005>
109.456695556641

> <r_mmod_Torsional_Energy-OPLS-2005>
220.296096801758

> <r_mmod_Improper_Torsional_Energy-OPLS-2005>
1.95513999462128

> <r_mmod_Van_der_Waal_Energy-OPLS-2005>
157.101165771484

> <r_mmod_Electrostatic_Energy-OPLS-2005>
-413.975708007812

> <r_mmod_Solvation_Energy-OPLS-2005>
-196.126129150391

> <b_mmod_Minimization_Converged-OPLS-2005>
0

> <r_mmod_RMS_Derivative-OPLS-2005>
0.378138214349747

$$$$
8
                    3D
 Structure written by MMmdl.
156164  0  0  1  0            999 V2000
  -30.6661  -14.7661   20.3669 C   0  0  0  0  0  0
  -30.4302  -12.4534   19.4817 C   0  0  0  0  0  0
  -29.5157  -12.4746   18.2382 C   0  0  0  0  0  0
  -28.0578  -12.2135   18.6638 C   0  0  0  0  0  0
  -27.6257  -13.1544   19.8155 C   0  0  2  0  0  0
  -28.6784  -13.2498   20.9498 C   0  0  0  0  0  0
  -25.2598  -13.7960   20.5650 C   0  0  0  0  0  0
  -24.1832  -13.0320   20.9289 C   0  0  0  0  0  0
  -24.6313  -11.6796   20.8801 C   0  0  0  0  0  0
  -23.8945  -10.4223   21.0480 C   0  0  0  0  0  0
  -24.3528   -9.4163   21.9253 C   0  0  0  0  0  0
  -23.6216   -8.2187   22.0778 C   0  0  0  0  0  0
  -22.4200   -8.0231   21.3550 C   0  0  0  0  0  0
  -21.9810   -9.0212   20.4693 C   0  0  0  0  0  0
  -22.7121  -10.2103   20.3131 C   0  0  0  0  0  0
  -21.6828   -6.0682   22.5251 C   0  0  0  0  0  0
  -21.3974   -6.5594   23.8188 C   0  0  0  0  0  0
  -21.3646   -5.6765   24.9156 C   0  0  0  0  0  0
  -21.6071   -4.3026   24.7231 C   0  0  0  0  0  0
  -21.8832   -3.8104   23.4350 C   0  0  0  0  0  0
  -21.9186   -4.6906   22.3392 C   0  0  0  0  0  0
  -22.7908  -13.5236   21.1903 C   0  0  0  0  0  0
  -22.1672   -4.2100   21.0971 F   0  0  0  0  0  0
  -21.5643   -3.4522   25.7748 F   0  0  0  0  0  0
  -29.9842  -13.5648   20.3568 N   0  0  0  0  0  0
  -26.2890  -12.8979   20.3194 N   0  0  0  0  0  0
  -25.9222  -11.6234   20.5798 N   0  0  0  0  0  0
  -22.0442  -12.8260   22.0428 N   0  0  0  0  0  0
  -25.4236  -15.1675   20.3932 N   0  0  0  0  0  0
  -31.8953  -14.7147   20.3097 O   0  0  0  0  0  0
  -21.6601   -6.8798   21.4212 O   0  0  0  0  0  0
  -22.3650  -14.5538   20.6713 O   0  0  0  0  0  0
  -24.6275  -31.8580   23.2024 C   0  0  0  0  0  0
  -25.9082  -32.4786   23.8397 C   0  0  1  0  0  0
  -27.2030  -27.2919   20.1300 C   0  0  0  0  0  0
  -25.5847  -33.8600   24.2291 N   0  0  0  0  0  0
  -23.4252  -30.4810   21.5502 C   0  0  2  0  0  0
  -24.8663  -28.9329   20.1131 C   0  0  0  0  0  0
  -22.7479  -29.4607   22.4956 C   0  0  0  0  0  0
  -18.0281  -28.1380   22.8533 C   0  0  0  0  0  0
  -24.1482  -36.7326   23.2654 C   0  0  0  0  0  0
  -25.9711  -30.7748   21.3839 C   0  0  0  0  0  0
  -26.0375  -29.4032   20.7219 C   0  0  0  0  0  0
  -27.2130  -28.5936   20.7224 C   0  0  0  0  0  0
  -26.0181  -26.8884   19.4737 C   0  0  0  0  0  0
  -24.8577  -27.6791   19.4823 C   0  0  0  0  0  0
  -23.6388  -29.8181   20.1675 C   0  0  0  0  0  0
  -25.4108  -36.3130   24.0351 C   0  0  1  0  0  0
  -20.5888  -28.3654   23.1329 C   0  0  2  0  0  0
  -20.6765  -26.9357   22.5477 C   0  0  0  0  0  0
  -19.5737  -26.6366   21.5270 C   0  0  0  0  0  0
  -18.1915  -26.7947   22.1657 C   0  0  0  0  0  0
  -19.1538  -28.8836   23.2942 C   0  0  0  0  0  0
  -18.9458  -30.1447   23.8955 C   0  0  0  0  0  0
  -17.6444  -30.6596   24.0560 C   0  0  0  0  0  0
  -25.9009  -34.9472   23.5129 C   0  0  0  0  0  0
  -16.5350  -29.9083   23.6327 C   0  0  0  0  0  0
  -16.7271  -28.6490   23.0389 C   0  0  0  0  0  0
  -26.4413  -31.6618   25.0813 C   0  0  0  0  0  0
  -25.3619  -31.3762   26.1527 C   0  0  0  0  0  0
  -27.0195  -30.3028   24.6300 C   0  0  0  0  0  0
  -27.6010  -32.4331   25.7528 C   0  0  0  0  0  0
  -27.5587  -37.1815   24.8467 C   0  0  0  0  0  0
  -21.4190  -29.3024   22.3697 N   0  0  0  0  0  0
  -26.4317  -37.3810   23.9401 N   0  0  0  0  0  0
  -24.6944  -31.0542   22.1011 N   0  0  0  0  0  0
  -23.4171  -28.8150   23.3070 O   0  0  0  0  0  0
  -28.2803  -26.3940   20.1897 O   0  0  0  0  0  0
  -26.5616  -34.8931   22.4721 O   0  0  0  0  0  0
  -23.5409  -32.1388   23.7317 O   0  0  0  0  0  0
  -29.0888  -19.7923   21.4054 C   0  0  0  0  0  0
  -29.1676  -21.0059   20.7256 C   0  0  0  0  0  0
  -28.5410  -16.2904   19.7249 C   0  0  0  0  0  0
  -30.7717  -16.6105   18.6816 C   0  0  0  0  0  0
  -28.3977  -22.3551   20.9413 C   0  0  0  0  0  0
  -28.9103  -23.7689   20.3687 C   0  0  0  0  0  0
  -30.3254  -17.4350   21.0548 C   0  0  0  0  0  0
  -27.9621  -25.0171   20.6663 C   0  0  0  0  0  0
  -30.0519  -16.2390   20.0110 C   0  0  0  0  0  0
  -29.9885  -20.7521   19.6261 N   0  0  0  0  0  0
  -30.4507  -19.5250   19.6618 N   0  0  0  0  0  0
  -29.9073  -18.8677   20.7221 N   0  0  0  0  0  0
  -31.4739  -12.5477   19.1818 H   0  0  0  0  0  0
  -30.3650  -11.4956   20.0052 H   0  0  0  0  0  0
  -29.8431  -11.7311   17.5079 H   0  0  0  0  0  0
  -29.5932  -13.4470   17.7466 H   0  0  0  0  0  0
  -27.9875  -11.1730   18.9862 H   0  0  0  0  0  0
  -27.3898  -12.3185   17.8072 H   0  0  0  0  0  0
  -27.5336  -14.0821   19.2873 H   0  0  0  0  0  0
  -28.7366  -12.3177   21.5132 H   0  0  0  0  0  0
  -28.3998  -14.0089   21.6832 H   0  0  0  0  0  0
  -25.2664   -9.5652   22.4855 H   0  0  0  0  0  0
  -23.9956   -7.4554   22.7463 H   0  0  0  0  0  0
  -21.0762   -8.8702   19.8990 H   0  0  0  0  0  0
  -22.3554  -10.9658   19.6262 H   0  0  0  0  0  0
  -21.1924   -7.6095   23.9662 H   0  0  0  0  0  0
  -21.1473   -6.0500   25.9060 H   0  0  0  0  0  0
  -22.0627   -2.7573   23.2865 H   0  0  0  0  0  0
  -22.3925  -11.9915   22.4873 H   0  0  0  0  0  0
  -21.1085  -13.1431   22.2533 H   0  0  0  0  0  0
  -24.6558  -15.8171   20.5282 H   0  0  0  0  0  0
  -26.2637  -15.6092   20.0377 H   0  0  0  0  0  0
  -26.7159  -32.5418   23.1132 H   0  0  0  0  0  0
  -24.9888  -33.9727   25.0364 H   0  0  0  0  0  0
  -22.7247  -31.3033   21.4055 H   0  0  0  0  0  0
  -23.3745  -35.9642   23.3328 H   0  0  0  0  0  0
  -24.3603  -36.8924   22.2068 H   0  0  0  0  0  0
  -23.7171  -37.6530   23.6626 H   0  0  0  0  0  0
  -26.1157  -31.5318   20.6140 H   0  0  0  0  0  0
  -26.8516  -30.8194   22.0168 H   0  0  0  0  0  0
  -28.1110  -28.9429   21.2165 H   0  0  0  0  0  0
  -25.9713  -25.9421   18.9584 H   0  0  0  0  0  0
  -23.9601  -27.3071   19.0076 H   0  0  0  0  0  0
  -23.7610  -30.5994   19.4167 H   0  0  0  0  0  0
  -22.7532  -29.2548   19.8668 H   0  0  0  0  0  0
  -25.1260  -36.2075   25.0847 H   0  0  0  0  0  0
  -21.0014  -28.3255   24.1429 H   0  0  0  0  0  0
  -20.5652  -26.2258   23.3696 H   0  0  0  0  0  0
  -21.6629  -26.7361   22.1263 H   0  0  0  0  0  0
  -19.6864  -25.6272   21.1304 H   0  0  0  0  0  0
  -19.6720  -27.3181   20.6812 H   0  0  0  0  0  0
  -17.4204  -26.6750   21.4046 H   0  0  0  0  0  0
  -18.0237  -26.0102   22.9042 H   0  0  0  0  0  0
  -19.7933  -30.7264   24.2368 H   0  0  0  0  0  0
  -17.4994  -31.6288   24.5123 H   0  0  0  0  0  0
  -15.5341  -30.2982   23.7620 H   0  0  0  0  0  0
  -15.8700  -28.0795   22.7111 H   0  0  0  0  0  0
  -24.5888  -30.6983   25.7910 H   0  0  0  0  0  0
  -24.8664  -32.2895   26.4853 H   0  0  0  0  0  0
  -25.7972  -30.9092   27.0368 H   0  0  0  0  0  0
  -26.2779  -29.6884   24.1218 H   0  0  0  0  0  0
  -27.3693  -29.7230   25.4841 H   0  0  0  0  0  0
  -27.8730  -30.4289   23.9647 H   0  0  0  0  0  0
  -27.2693  -33.3665   26.2084 H   0  0  0  0  0  0
  -28.3808  -32.6841   25.0330 H   0  0  0  0  0  0
  -28.0673  -31.8460   26.5441 H   0  0  0  0  0  0
  -28.2607  -38.0111   24.7521 H   0  0  0  0  0  0
  -28.1070  -36.2642   24.6284 H   0  0  0  0  0  0
  -27.2300  -37.1472   25.8870 H   0  0  0  0  0  0
  -20.9316  -29.8746   21.6944 H   0  0  0  0  0  0
  -26.0228  -38.2897   24.1399 H   0  0  0  0  0  0
  -28.5252  -19.5113   22.2900 H   0  0  0  0  0  0
  -28.1514  -17.3079   19.7361 H   0  0  0  0  0  0
  -27.9819  -15.7794   20.5013 H   0  0  0  0  0  0
  -28.2982  -15.9166   18.7294 H   0  0  0  0  0  0
  -30.2841  -17.4216   18.1440 H   0  0  0  0  0  0
  -30.8139  -15.7685   17.9844 H   0  0  0  0  0  0
  -31.8068  -16.9153   18.8678 H   0  0  0  0  0  0
  -28.2529  -22.4907   22.0156 H   0  0  0  0  0  0
  -27.3862  -22.2051   20.5601 H   0  0  0  0  0  0
  -29.0224  -23.6790   19.2854 H   0  0  0  0  0  0
  -29.9031  -23.9964   20.7579 H   0  0  0  0  0  0
  -31.3955  -17.4682   21.2633 H   0  0  0  0  0  0
  -29.8546  -17.1679   22.0014 H   0  0  0  0  0  0
  -27.8689  -25.1008   21.7500 H   0  0  0  0  0  0
  -26.9738  -24.6975   20.3347 H   0  0  0  0  0  0
  1 25  1  0  0  0
  1 30  2  0  0  0
  1 79  1  0  0  0
  2  3  1  0  0  0
  2 25  1  0  0  0
  2 83  1  0  0  0
  2 84  1  0  0  0
  3  4  1  0  0  0
  3 85  1  0  0  0
  3 86  1  0  0  0
  4  5  1  0  0  0
  4 87  1  0  0  0
  4 88  1  0  0  0
  5  6  1  0  0  0
  5 26  1  0  0  0
  5 89  1  0  0  0
  6 25  1  0  0  0
  6 90  1  0  0  0
  6 91  1  0  0  0
  7  8  2  0  0  0
  7 26  1  0  0  0
  7 29  1  0  0  0
  8  9  1  0  0  0
  8 22  1  0  0  0
  9 10  1  0  0  0
  9 27  2  0  0  0
 10 11  2  0  0  0
 10 15  1  0  0  0
 11 12  1  0  0  0
 11 92  1  0  0  0
 12 13  2  0  0  0
 12 93  1  0  0  0
 13 14  1  0  0  0
 13 31  1  0  0  0
 14 15  2  0  0  0
 14 94  1  0  0  0
 15 95  1  0  0  0
 16 17  2  0  0  0
 16 21  1  0  0  0
 16 31  1  0  0  0
 17 18  1  0  0  0
 17 96  1  0  0  0
 18 19  2  0  0  0
 18 97  1  0  0  0
 19 20  1  0  0  0
 19 24  1  0  0  0
 20 21  2  0  0  0
 20 98  1  0  0  0
 21 23  1  0  0  0
 22 28  1  0  0  0
 22 32  2  0  0  0
 26 27  1  0  0  0
 28 99  1  0  0  0
 28100  1  0  0  0
 29101  1  0  0  0
 29102  1  0  0  0
 33 34  1  0  0  0
 33 66  1  0  0  0
 33 70  2  0  0  0
 34 36  1  0  0  0
 34 59  1  0  0  0
 34103  1  0  0  0
 35 44  2  0  0  0
 35 45  1  0  0  0
 35 68  1  0  0  0
 36 56  1  0  0  0
 36104  1  0  0  0
 37 39  1  0  0  0
 37 47  1  0  0  0
 37 66  1  0  0  0
 37105  1  0  0  0
 38 43  2  0  0  0
 38 46  1  0  0  0
 38 47  1  0  0  0
 39 64  1  0  0  0
 39 67  2  0  0  0
 40 52  1  0  0  0
 40 53  2  0  0  0
 40 58  1  0  0  0
 41106  1  0  0  0
 41107  1  0  0  0
 41108  1  0  0  0
 41 48  1  0  0  0
 42 43  1  0  0  0
 42 66  1  0  0  0
 42109  1  0  0  0
 42110  1  0  0  0
 43 44  1  0  0  0
 44111  1  0  0  0
 45 46  2  0  0  0
 45112  1  0  0  0
 46113  1  0  0  0
 47114  1  0  0  0
 47115  1  0  0  0
 48 56  1  0  0  0
 48 65  1  0  0  0
 48116  1  0  0  0
 49 50  1  0  0  0
 49 53  1  0  0  0
 49 64  1  0  0  0
 49117  1  0  0  0
 50 51  1  0  0  0
 50118  1  0  0  0
 50119  1  0  0  0
 51 52  1  0  0  0
 51120  1  0  0  0
 51121  1  0  0  0
 52122  1  0  0  0
 52123  1  0  0  0
 53 54  1  0  0  0
 54 55  2  0  0  0
 54124  1  0  0  0
 55 57  1  0  0  0
 55125  1  0  0  0
 56 69  2  0  0  0
 57 58  2  0  0  0
 57126  1  0  0  0
 58127  1  0  0  0
 59 60  1  0  0  0
 59 61  1  0  0  0
 59 62  1  0  0  0
 60128  1  0  0  0
 60129  1  0  0  0
 60130  1  0  0  0
 61131  1  0  0  0
 61132  1  0  0  0
 61133  1  0  0  0
 62134  1  0  0  0
 62135  1  0  0  0
 62136  1  0  0  0
 63 65  1  0  0  0
 63137  1  0  0  0
 63138  1  0  0  0
 63139  1  0  0  0
 64140  1  0  0  0
 65141  1  0  0  0
 68 78  1  0  0  0
 71 72  2  0  0  0
 71 82  1  0  0  0
 71142  1  0  0  0
 72 75  1  0  0  0
 72 80  1  0  0  0
 73143  1  0  0  0
 73144  1  0  0  0
 73145  1  0  0  0
 73 79  1  0  0  0
 74 79  1  0  0  0
 74146  1  0  0  0
 74147  1  0  0  0
 74148  1  0  0  0
 75 76  1  0  0  0
 75149  1  0  0  0
 75150  1  0  0  0
 76 78  1  0  0  0
 76151  1  0  0  0
 76152  1  0  0  0
 77 79  1  0  0  0
 77 82  1  0  0  0
 77153  1  0  0  0
 77154  1  0  0  0
 78155  1  0  0  0
 78156  1  0  0  0
 80 81  2  0  0  0
 81 82  1  0  0  0
M  ISO  4   1 100  68 101  78 101  79 100
M  END
> <chiral flag>
0

> <version>
0

> <s_m_source_file>
/data/baiqing/PycharmProjects/Reinvent-master-3.2/result/LINK_invent/BTK/process_docking_weight1_custom_sum_contain_oxygen_bond_distance_aromatic_linkinvent_7_9_3/rearranged_h_0042.sdf

> <i_m_source_file_index>
9

> <r_mmod_Potential_Energy-OPLS-2005>
224.942764282227

> <r_mmod_Stretch_Energy-OPLS-2005>
106.854270935059

> <r_mmod_Bend_Energy-OPLS-2005>
178.17822265625

> <r_mmod_Torsional_Energy-OPLS-2005>
242.996368408203

> <r_mmod_Improper_Torsional_Energy-OPLS-2005>
11.53830909729

> <r_mmod_Van_der_Waal_Energy-OPLS-2005>
135.990478515625

> <r_mmod_Electrostatic_Energy-OPLS-2005>
-346.737548828125

> <r_mmod_Solvation_Energy-OPLS-2005>
-208.155197143555

> <b_mmod_Minimization_Converged-OPLS-2005>
0

> <r_mmod_RMS_Derivative-OPLS-2005>
6.75321388244629

$$$$
10
                    3D
 Structure written by MMmdl.
155163  0  0  1  0            999 V2000
  -30.6216  -14.6827   20.4934 C   0  0  0  0  0  0
  -30.4338  -12.4208   19.4499 C   0  0  0  0  0  0
  -29.5076  -12.5036   18.2182 C   0  0  0  0  0  0
  -28.0280  -12.3423   18.6304 C   0  0  0  0  0  0
  -27.6440  -13.2259   19.8493 C   0  0  2  0  0  0
  -28.6911  -13.1170   20.9777 C   0  0  0  0  0  0
  -25.2529  -13.8200   20.5659 C   0  0  0  0  0  0
  -24.1815  -13.0453   20.9198 C   0  0  0  0  0  0
  -24.6399  -11.6923   20.8719 C   0  0  0  0  0  0
  -23.9074  -10.4295   21.0400 C   0  0  0  0  0  0
  -24.3624   -9.4203   21.9176 C   0  0  0  0  0  0
  -23.6300   -8.2231   22.0746 C   0  0  0  0  0  0
  -22.4281   -8.0273   21.3538 C   0  0  0  0  0  0
  -21.9920   -9.0238   20.4633 C   0  0  0  0  0  0
  -22.7250  -10.2121   20.3046 C   0  0  0  0  0  0
  -21.6864   -6.0732   22.5269 C   0  0  0  0  0  0
  -21.4011   -6.5629   23.8203 C   0  0  0  0  0  0
  -21.3657   -5.6791   24.9161 C   0  0  0  0  0  0
  -21.6059   -4.3053   24.7215 C   0  0  0  0  0  0
  -21.8821   -3.8144   23.4330 C   0  0  0  0  0  0
  -21.9196   -4.6958   22.3395 C   0  0  0  0  0  0
  -22.7826  -13.5208   21.1865 C   0  0  0  0  0  0
  -22.1666   -4.2152   21.0969 F   0  0  0  0  0  0
  -21.5624   -3.4528   25.7718 F   0  0  0  0  0  0
  -29.9977  -13.4653   20.3993 N   0  0  0  0  0  0
  -26.2940  -12.9383   20.3246 N   0  0  0  0  0  0
  -25.9326  -11.6529   20.5734 N   0  0  0  0  0  0
  -22.0486  -12.8165   22.0408 N   0  0  0  0  0  0
  -25.4262  -15.1909   20.4013 N   0  0  0  0  0  0
  -31.8094  -14.8132   20.1827 O   0  0  0  0  0  0
  -21.6647   -6.8863   21.4235 O   0  0  0  0  0  0
  -22.3511  -14.5539   20.6765 O   0  0  0  0  0  0
  -24.6300  -31.8628   23.1951 C   0  0  0  0  0  0
  -25.9135  -32.4815   23.8335 C   0  0  1  0  0  0
  -27.2190  -27.2863   20.0880 C   0  0  0  0  0  0
  -25.5979  -33.8600   24.2298 N   0  0  0  0  0  0
  -23.4258  -30.4867   21.5386 C   0  0  2  0  0  0
  -24.8708  -28.9426   20.1089 C   0  0  0  0  0  0
  -22.7535  -29.4652   22.4893 C   0  0  0  0  0  0
  -18.0317  -28.1378   22.8502 C   0  0  0  0  0  0
  -24.1501  -36.7240   23.2632 C   0  0  0  0  0  0
  -25.9742  -30.7814   21.3683 C   0  0  0  0  0  0
  -26.0483  -29.4035   20.7119 C   0  0  0  0  0  0
  -27.2264  -28.5879   20.6965 C   0  0  0  0  0  0
  -26.0077  -26.9015   19.4589 C   0  0  0  0  0  0
  -24.8542  -27.6968   19.4725 C   0  0  0  0  0  0
  -23.6422  -29.8251   20.1548 C   0  0  0  0  0  0
  -25.4129  -36.3082   24.0352 C   0  0  1  0  0  0
  -20.5951  -28.3685   23.1270 C   0  0  2  0  0  0
  -20.6806  -26.9408   22.5386 C   0  0  0  0  0  0
  -19.5752  -26.6410   21.5205 C   0  0  0  0  0  0
  -18.1938  -26.7929   22.1639 C   0  0  0  0  0  0
  -19.1574  -28.8849   23.2895 C   0  0  0  0  0  0
  -18.9497  -30.1463   23.8889 C   0  0  0  0  0  0
  -17.6492  -30.6576   24.0584 C   0  0  0  0  0  0
  -25.9088  -34.9464   23.5121 C   0  0  0  0  0  0
  -16.5385  -29.9086   23.6338 C   0  0  0  0  0  0
  -16.7308  -28.6509   23.0361 C   0  0  0  0  0  0
  -26.4487  -31.6560   25.0650 C   0  0  0  0  0  0
  -25.3747  -31.3686   26.1386 C   0  0  0  0  0  0
  -27.0286  -30.3007   24.5984 C   0  0  0  0  0  0
  -27.6073  -32.4211   25.7432 C   0  0  0  0  0  0
  -27.5587  -37.1796   24.8488 C   0  0  0  0  0  0
  -21.4247  -29.3056   22.3664 N   0  0  0  0  0  0
  -26.4290  -37.3802   23.9444 N   0  0  0  0  0  0
  -24.6972  -31.0644   22.0890 N   0  0  0  0  0  0
  -23.4265  -28.8181   23.2961 O   0  0  0  0  0  0
  -28.3075  -26.3765   20.1154 O   0  0  0  0  0  0
  -26.5631  -34.8939   22.4665 O   0  0  0  0  0  0
  -23.5465  -32.1415   23.7275 O   0  0  0  0  0  0
  -30.8792  -21.6781   20.2742 C   0  0  0  0  0  0
  -31.2012  -23.0262   20.0254 C   0  0  0  0  0  0
  -29.5392  -21.2786   20.4234 C   0  0  0  0  0  0
  -28.5673  -22.3413   20.2532 C   0  0  0  0  0  0
  -28.9778  -23.7254   20.0575 C   0  0  0  0  0  0
  -27.0818  -21.9841   20.2807 C   0  0  0  0  0  0
  -29.2387  -19.8009   20.9301 C   0  0  0  0  0  0
  -27.9759  -24.9373   19.8415 C   0  0  0  0  0  0
  -29.8125  -18.4676   20.2274 C   0  0  0  0  0  0
  -30.1821  -17.2050   21.1619 C   0  0  0  0  0  0
  -30.2919  -24.0234   19.9409 N   0  0  0  0  0  0
  -29.8342  -15.7766   20.7747 N   0  0  0  0  0  0
  -31.4765  -12.5452   19.1508 H   0  0  0  0  0  0
  -30.3709  -11.4341   19.9127 H   0  0  0  0  0  0
  -29.7749  -11.7347   17.4917 H   0  0  0  0  0  0
  -29.6460  -13.4626   17.7164 H   0  0  0  0  0  0
  -27.8649  -11.2898   18.8697 H   0  0  0  0  0  0
  -27.3780  -12.5658   17.7846 H   0  0  0  0  0  0
  -27.6503  -14.2536   19.4868 H   0  0  0  0  0  0
  -28.7143  -12.1062   21.3899 H   0  0  0  0  0  0
  -28.4366  -13.7744   21.8104 H   0  0  0  0  0  0
  -25.2763   -9.5679   22.4755 H   0  0  0  0  0  0
  -24.0010   -7.4627   22.7465 H   0  0  0  0  0  0
  -21.0855   -8.8758   19.8935 H   0  0  0  0  0  0
  -22.3720  -10.9647   19.6143 H   0  0  0  0  0  0
  -21.2023   -7.6135   23.9706 H   0  0  0  0  0  0
  -21.1475   -6.0510   25.9068 H   0  0  0  0  0  0
  -22.0618   -2.7605   23.2827 H   0  0  0  0  0  0
  -22.4090  -11.9778   22.4698 H   0  0  0  0  0  0
  -21.1119  -13.1170   22.2667 H   0  0  0  0  0  0
  -24.6643  -15.8529   20.5006 H   0  0  0  0  0  0
  -26.2715  -15.6147   20.0413 H   0  0  0  0  0  0
  -26.7207  -32.5479   23.1099 H   0  0  0  0  0  0
  -25.0245  -33.9794   25.0521 H   0  0  0  0  0  0
  -22.7144  -31.3040   21.3942 H   0  0  0  0  0  0
  -23.3807  -35.9529   23.3300 H   0  0  0  0  0  0
  -24.3584  -36.8810   22.2032 H   0  0  0  0  0  0
  -23.7224  -37.6439   23.6616 H   0  0  0  0  0  0
  -26.1149  -31.5385   20.5944 H   0  0  0  0  0  0
  -26.8551  -30.8355   21.9952 H   0  0  0  0  0  0
  -28.1285  -28.9443   21.1788 H   0  0  0  0  0  0
  -25.8922  -25.9619   18.9401 H   0  0  0  0  0  0
  -23.9560  -27.3374   18.9880 H   0  0  0  0  0  0
  -23.7588  -30.5988   19.3940 H   0  0  0  0  0  0
  -22.7631  -29.2544   19.8546 H   0  0  0  0  0  0
  -25.1319  -36.1914   25.0846 H   0  0  0  0  0  0
  -21.0082  -28.3229   24.1392 H   0  0  0  0  0  0
  -20.5698  -26.2317   23.3595 H   0  0  0  0  0  0
  -21.6674  -26.7423   22.1188 H   0  0  0  0  0  0
  -19.6894  -25.6343   21.1184 H   0  0  0  0  0  0
  -19.6645  -27.3275   20.6773 H   0  0  0  0  0  0
  -17.4232  -26.6745   21.4009 H   0  0  0  0  0  0
  -18.0289  -26.0050   22.9015 H   0  0  0  0  0  0
  -19.7976  -30.7309   24.2221 H   0  0  0  0  0  0
  -17.5043  -31.6238   24.5220 H   0  0  0  0  0  0
  -15.5390  -30.2993   23.7619 H   0  0  0  0  0  0
  -15.8730  -28.0824   22.7041 H   0  0  0  0  0  0
  -24.6062  -30.6822   25.7809 H   0  0  0  0  0  0
  -24.8757  -32.2815   26.4642 H   0  0  0  0  0  0
  -25.8140  -30.9101   27.0260 H   0  0  0  0  0  0
  -26.2812  -29.6827   24.0987 H   0  0  0  0  0  0
  -27.4052  -29.7146   25.4377 H   0  0  0  0  0  0
  -27.8670  -30.4341   23.9143 H   0  0  0  0  0  0
  -27.2788  -33.3593   26.1910 H   0  0  0  0  0  0
  -28.3984  -32.6588   25.0315 H   0  0  0  0  0  0
  -28.0612  -31.8340   26.5433 H   0  0  0  0  0  0
  -28.2626  -38.0076   24.7574 H   0  0  0  0  0  0
  -28.1066  -36.2622   24.6281 H   0  0  0  0  0  0
  -27.2304  -37.1398   25.8888 H   0  0  0  0  0  0
  -20.9403  -29.8834   21.6936 H   0  0  0  0  0  0
  -26.0147  -38.2864   24.1453 H   0  0  0  0  0  0
  -31.6776  -20.9580   20.3939 H   0  0  0  0  0  0
  -32.2349  -23.3222   19.9276 H   0  0  0  0  0  0
  -26.7213  -21.8871   21.3046 H   0  0  0  0  0  0
  -26.9045  -21.0412   19.7650 H   0  0  0  0  0  0
  -26.4625  -22.7152   19.7623 H   0  0  0  0  0  0
  -28.1655  -19.6644   21.0590 H   0  0  0  0  0  0
  -29.6177  -19.8093   21.9517 H   0  0  0  0  0  0
  -27.0881  -24.7019   20.4270 H   0  0  0  0  0  0
  -27.7036  -24.8604   18.7878 H   0  0  0  0  0  0
  -30.7266  -18.7320   19.6978 H   0  0  0  0  0  0
  -29.1197  -18.1550   19.4468 H   0  0  0  0  0  0
  -29.7007  -17.3613   22.1295 H   0  0  0  0  0  0
  -31.2495  -17.2437   21.3877 H   0  0  0  0  0  0
  -28.8645  -15.5337   20.9136 H   0  0  0  0  0  0
  1 25  1  0  0  0
  1 30  2  0  0  0
  1 82  1  0  0  0
  2  3  1  0  0  0
  2 25  1  0  0  0
  2 83  1  0  0  0
  2 84  1  0  0  0
  3  4  1  0  0  0
  3 85  1  0  0  0
  3 86  1  0  0  0
  4  5  1  0  0  0
  4 87  1  0  0  0
  4 88  1  0  0  0
  5  6  1  0  0  0
  5 26  1  0  0  0
  5 89  1  0  0  0
  6 25  1  0  0  0
  6 90  1  0  0  0
  6 91  1  0  0  0
  7  8  2  0  0  0
  7 26  1  0  0  0
  7 29  1  0  0  0
  8  9  1  0  0  0
  8 22  1  0  0  0
  9 10  1  0  0  0
  9 27  2  0  0  0
 10 11  2  0  0  0
 10 15  1  0  0  0
 11 12  1  0  0  0
 11 92  1  0  0  0
 12 13  2  0  0  0
 12 93  1  0  0  0
 13 14  1  0  0  0
 13 31  1  0  0  0
 14 15  2  0  0  0
 14 94  1  0  0  0
 15 95  1  0  0  0
 16 17  2  0  0  0
 16 21  1  0  0  0
 16 31  1  0  0  0
 17 18  1  0  0  0
 17 96  1  0  0  0
 18 19  2  0  0  0
 18 97  1  0  0  0
 19 20  1  0  0  0
 19 24  1  0  0  0
 20 21  2  0  0  0
 20 98  1  0  0  0
 21 23  1  0  0  0
 22 28  1  0  0  0
 22 32  2  0  0  0
 26 27  1  0  0  0
 28 99  1  0  0  0
 28100  1  0  0  0
 29101  1  0  0  0
 29102  1  0  0  0
 33 34  1  0  0  0
 33 66  1  0  0  0
 33 70  2  0  0  0
 34 36  1  0  0  0
 34 59  1  0  0  0
 34103  1  0  0  0
 35 44  2  0  0  0
 35 45  1  0  0  0
 35 68  1  0  0  0
 36 56  1  0  0  0
 36104  1  0  0  0
 37 39  1  0  0  0
 37 47  1  0  0  0
 37 66  1  0  0  0
 37105  1  0  0  0
 38 43  2  0  0  0
 38 46  1  0  0  0
 38 47  1  0  0  0
 39 64  1  0  0  0
 39 67  2  0  0  0
 40 52  1  0  0  0
 40 53  2  0  0  0
 40 58  1  0  0  0
 41106  1  0  0  0
 41107  1  0  0  0
 41108  1  0  0  0
 41 48  1  0  0  0
 42 43  1  0  0  0
 42 66  1  0  0  0
 42109  1  0  0  0
 42110  1  0  0  0
 43 44  1  0  0  0
 44111  1  0  0  0
 45 46  2  0  0  0
 45112  1  0  0  0
 46113  1  0  0  0
 47114  1  0  0  0
 47115  1  0  0  0
 48 56  1  0  0  0
 48 65  1  0  0  0
 48116  1  0  0  0
 49 50  1  0  0  0
 49 53  1  0  0  0
 49 64  1  0  0  0
 49117  1  0  0  0
 50 51  1  0  0  0
 50118  1  0  0  0
 50119  1  0  0  0
 51 52  1  0  0  0
 51120  1  0  0  0
 51121  1  0  0  0
 52122  1  0  0  0
 52123  1  0  0  0
 53 54  1  0  0  0
 54 55  2  0  0  0
 54124  1  0  0  0
 55 57  1  0  0  0
 55125  1  0  0  0
 56 69  2  0  0  0
 57 58  2  0  0  0
 57126  1  0  0  0
 58127  1  0  0  0
 59 60  1  0  0  0
 59 61  1  0  0  0
 59 62  1  0  0  0
 60128  1  0  0  0
 60129  1  0  0  0
 60130  1  0  0  0
 61131  1  0  0  0
 61132  1  0  0  0
 61133  1  0  0  0
 62134  1  0  0  0
 62135  1  0  0  0
 62136  1  0  0  0
 63 65  1  0  0  0
 63137  1  0  0  0
 63138  1  0  0  0
 63139  1  0  0  0
 64140  1  0  0  0
 65141  1  0  0  0
 68 78  1  0  0  0
 71 72  2  0  0  0
 71 73  1  0  0  0
 71142  1  0  0  0
 72 81  1  0  0  0
 72143  1  0  0  0
 73 74  2  0  0  0
 73 77  1  0  0  0
 74 75  1  0  0  0
 74 76  1  0  0  0
 75 78  1  0  0  0
 75 81  2  0  0  0
 76144  1  0  0  0
 76145  1  0  0  0
 76146  1  0  0  0
 77 79  1  0  0  0
 77147  1  0  0  0
 77148  1  0  0  0
 78149  1  0  0  0
 78150  1  0  0  0
 79 80  1  0  0  0
 79151  1  0  0  0
 79152  1  0  0  0
 80 82  1  0  0  0
 80153  1  0  0  0
 80154  1  0  0  0
 82155  1  0  0  0
M  ISO  4   1 100  68 101  78 101  82 100
M  END
> <chiral flag>
0

> <version>
0

> <s_m_source_file>
/data/baiqing/PycharmProjects/Reinvent-master-3.2/result/LINK_invent/BTK/process_docking_weight1_custom_sum_contain_oxygen_bond_distance_aromatic_linkinvent_7_9_3/rearranged_h_0042.sdf

> <i_m_source_file_index>
10

> <r_mmod_Potential_Energy-OPLS-2005>
6.4449143409729

> <r_mmod_Stretch_Energy-OPLS-2005>
110.483688354492

> <r_mmod_Bend_Energy-OPLS-2005>
164.24089050293

> <r_mmod_Torsional_Energy-OPLS-2005>
221.128890991211

> <r_mmod_Improper_Torsional_Energy-OPLS-2005>
5.18646812438965

> <r_mmod_Van_der_Waal_Energy-OPLS-2005>
152.134994506836

> <r_mmod_Electrostatic_Energy-OPLS-2005>
-476.096435546875

> <r_mmod_Solvation_Energy-OPLS-2005>
-238.373580932617

> <b_mmod_Minimization_Converged-OPLS-2005>
0

> <r_mmod_RMS_Derivative-OPLS-2005>
4.74703073501587

$$$$
11
                    3D
 Structure written by MMmdl.
163171  0  0  1  0            999 V2000
  -30.7278  -14.4202   20.6182 C   0  0  0  0  0  0
  -30.4195  -12.2842   19.4345 C   0  0  0  0  0  0
  -29.4902  -12.4998   18.2226 C   0  0  0  0  0  0
  -28.0111  -12.3633   18.6378 C   0  0  0  0  0  0
  -27.6610  -13.2075   19.8921 C   0  0  2  0  0  0
  -28.7015  -12.9719   21.0123 C   0  0  0  0  0  0
  -25.2533  -13.8169   20.5719 C   0  0  0  0  0  0
  -24.1790  -13.0446   20.9200 C   0  0  0  0  0  0
  -24.6353  -11.6911   20.8763 C   0  0  0  0  0  0
  -23.9040  -10.4301   21.0420 C   0  0  0  0  0  0
  -24.3592   -9.4207   21.9187 C   0  0  0  0  0  0
  -23.6287   -8.2225   22.0738 C   0  0  0  0  0  0
  -22.4270   -8.0260   21.3537 C   0  0  0  0  0  0
  -21.9908   -9.0228   20.4631 C   0  0  0  0  0  0
  -22.7222  -10.2124   20.3064 C   0  0  0  0  0  0
  -21.6847   -6.0742   22.5287 C   0  0  0  0  0  0
  -21.4012   -6.5652   23.8218 C   0  0  0  0  0  0
  -21.3660   -5.6807   24.9179 C   0  0  0  0  0  0
  -21.6046   -4.3068   24.7229 C   0  0  0  0  0  0
  -21.8813   -3.8162   23.4352 C   0  0  0  0  0  0
  -21.9177   -4.6970   22.3410 C   0  0  0  0  0  0
  -22.7799  -13.5188   21.1891 C   0  0  0  0  0  0
  -22.1650   -4.2161   21.0989 F   0  0  0  0  0  0
  -21.5630   -3.4561   25.7749 F   0  0  0  0  0  0
  -30.0402  -13.2598   20.4657 N   0  0  0  0  0  0
  -26.3003  -12.9358   20.3497 N   0  0  0  0  0  0
  -25.9282  -11.6517   20.5854 N   0  0  0  0  0  0
  -22.0453  -12.8161   22.0453 N   0  0  0  0  0  0
  -25.4242  -15.1887   20.4095 N   0  0  0  0  0  0
  -31.8073  -14.6413   20.0591 O   0  0  0  0  0  0
  -21.6619   -6.8871   21.4248 O   0  0  0  0  0  0
  -22.3462  -14.5482   20.6740 O   0  0  0  0  0  0
  -24.6117  -31.8699   23.2121 C   0  0  0  0  0  0
  -25.9020  -32.4837   23.8405 C   0  0  1  0  0  0
  -27.2384  -27.4624   20.0680 C   0  0  0  0  0  0
  -25.5884  -33.8634   24.2340 N   0  0  0  0  0  0
  -23.3990  -30.4916   21.5533 C   0  0  2  0  0  0
  -24.8448  -28.9595   20.1145 C   0  0  0  0  0  0
  -22.7392  -29.4660   22.5027 C   0  0  0  0  0  0
  -18.0265  -28.1379   22.8500 C   0  0  0  0  0  0
  -24.1484  -36.7316   23.2637 C   0  0  0  0  0  0
  -25.9251  -30.8369   21.3650 C   0  0  0  0  0  0
  -26.0016  -29.4720   20.7135 C   0  0  0  0  0  0
  -27.1973  -28.7226   20.7020 C   0  0  0  0  0  0
  -26.0597  -26.9483   19.4838 C   0  0  0  0  0  0
  -24.8653  -27.6932   19.5036 C   0  0  0  0  0  0
  -23.6055  -29.8225   20.1678 C   0  0  0  0  0  0
  -25.4105  -36.3120   24.0341 C   0  0  1  0  0  0
  -20.5849  -28.3650   23.1345 C   0  0  2  0  0  0
  -20.6763  -26.9396   22.5425 C   0  0  0  0  0  0
  -19.5745  -26.6387   21.5220 C   0  0  0  0  0  0
  -18.1919  -26.7928   22.1631 C   0  0  0  0  0  0
  -19.1515  -28.8833   23.2920 C   0  0  0  0  0  0
  -18.9447  -30.1444   23.8916 C   0  0  0  0  0  0
  -17.6451  -30.6588   24.0566 C   0  0  0  0  0  0
  -25.9031  -34.9484   23.5135 C   0  0  0  0  0  0
  -16.5340  -29.9086   23.6330 C   0  0  0  0  0  0
  -16.7258  -28.6506   23.0348 C   0  0  0  0  0  0
  -26.4456  -31.6608   25.0724 C   0  0  0  0  0  0
  -25.3734  -31.3699   26.1483 C   0  0  0  0  0  0
  -27.0284  -30.3057   24.6077 C   0  0  0  0  0  0
  -27.6038  -32.4324   25.7479 C   0  0  0  0  0  0
  -27.5583  -37.1812   24.8466 C   0  0  0  0  0  0
  -21.4129  -29.3016   22.3756 N   0  0  0  0  0  0
  -26.4297  -37.3800   23.9410 N   0  0  0  0  0  0
  -24.6633  -31.0797   22.1019 N   0  0  0  0  0  0
  -23.4172  -28.8216   23.3080 O   0  0  0  0  0  0
  -28.4143  -26.7514   20.0732 O   0  0  0  0  0  0
  -26.5589  -34.8927   22.4700 O   0  0  0  0  0  0
  -23.5314  -32.1452   23.7514 O   0  0  0  0  0  0
  -28.8275  -21.8701   19.4925 C   0  0  0  0  0  0
  -29.1022  -21.5841   20.8573 C   0  0  0  0  0  0
  -29.7376  -23.9868   19.7486 C   0  0  0  0  0  0
  -30.0114  -23.7035   21.1155 C   0  0  0  0  0  0
  -28.2129  -20.8645   18.5327 C   0  0  0  0  0  0
  -30.9197  -25.1121   17.8009 C   0  0  0  0  0  0
  -28.7557  -20.2445   21.5044 C   0  0  0  0  0  0
  -29.9104  -19.2239   21.4878 C   0  0  0  0  0  0
  -29.4308  -17.7588   21.4191 C   0  0  0  0  0  0
  -30.5915  -16.7496   21.4817 C   0  0  0  0  0  0
  -28.8378  -26.1879   18.8339 C   0  0  0  0  0  0
  -30.0868  -25.3198   19.0794 C   0  0  1  0  0  0
  -29.1335  -23.0704   18.9483 N   0  0  0  0  0  0
  -29.6954  -22.5009   21.6607 N   0  0  0  0  0  0
  -30.1240  -15.3662   21.3521 N   0  0  0  0  0  0
  -30.7559  -24.8695   22.1534 Cl  0  0  0  0  0  0
  -31.4670  -12.3719   19.1366 H   0  0  0  0  0  0
  -30.3111  -11.2753   19.8342 H   0  0  0  0  0  0
  -29.7229  -11.7841   17.4335 H   0  0  0  0  0  0
  -29.6639  -13.4919   17.8040 H   0  0  0  0  0  0
  -27.8189  -11.3086   18.8396 H   0  0  0  0  0  0
  -27.3575  -12.6305   17.8084 H   0  0  0  0  0  0
  -27.7092  -14.2576   19.6029 H   0  0  0  0  0  0
  -28.6626  -11.9344   21.3445 H   0  0  0  0  0  0
  -28.4621  -13.5596   21.9002 H   0  0  0  0  0  0
  -25.2718   -9.5689   22.4779 H   0  0  0  0  0  0
  -24.0009   -7.4597   22.7423 H   0  0  0  0  0  0
  -21.0853   -8.8714   19.8916 H   0  0  0  0  0  0
  -22.3650  -10.9651   19.6185 H   0  0  0  0  0  0
  -21.2020   -7.6159   23.9743 H   0  0  0  0  0  0
  -21.1493   -6.0528   25.9079 H   0  0  0  0  0  0
  -22.0593   -2.7626   23.2841 H   0  0  0  0  0  0
  -22.4106  -11.9839   22.4869 H   0  0  0  0  0  0
  -21.1060  -13.1153   22.2675 H   0  0  0  0  0  0
  -24.6531  -15.8426   20.4906 H   0  0  0  0  0  0
  -26.2840  -15.6292   20.1091 H   0  0  0  0  0  0
  -26.7086  -32.5555   23.1169 H   0  0  0  0  0  0
  -25.0047  -33.9804   25.0488 H   0  0  0  0  0  0
  -22.6870  -31.3073   21.4142 H   0  0  0  0  0  0
  -23.3747  -35.9652   23.3322 H   0  0  0  0  0  0
  -24.3572  -36.8906   22.2048 H   0  0  0  0  0  0
  -23.7237  -37.6528   23.6635 H   0  0  0  0  0  0
  -26.0332  -31.6022   20.5948 H   0  0  0  0  0  0
  -26.8147  -30.8919   21.9810 H   0  0  0  0  0  0
  -28.0935  -29.1129   21.1630 H   0  0  0  0  0  0
  -26.0469  -25.9697   19.0264 H   0  0  0  0  0  0
  -23.9703  -27.2895   19.0509 H   0  0  0  0  0  0
  -23.7087  -30.5957   19.4060 H   0  0  0  0  0  0
  -22.7313  -29.2376   19.8767 H   0  0  0  0  0  0
  -25.1284  -36.1993   25.0835 H   0  0  0  0  0  0
  -20.9930  -28.3200   24.1475 H   0  0  0  0  0  0
  -20.5690  -26.2248   23.3598 H   0  0  0  0  0  0
  -21.6637  -26.7463   22.1203 H   0  0  0  0  0  0
  -19.6906  -25.6304   21.1244 H   0  0  0  0  0  0
  -19.6693  -27.3212   20.6763 H   0  0  0  0  0  0
  -17.4193  -26.6682   21.4024 H   0  0  0  0  0  0
  -18.0315  -26.0062   22.9016 H   0  0  0  0  0  0
  -19.7919  -30.7265   24.2288 H   0  0  0  0  0  0
  -17.5000  -31.6272   24.5166 H   0  0  0  0  0  0
  -15.5339  -30.2998   23.7646 H   0  0  0  0  0  0
  -15.8656  -28.0838   22.7047 H   0  0  0  0  0  0
  -24.5897  -30.7062   25.7818 H   0  0  0  0  0  0
  -24.8941  -32.2850   26.4968 H   0  0  0  0  0  0
  -25.8099  -30.8839   27.0217 H   0  0  0  0  0  0
  -26.2816  -29.6828   24.1141 H   0  0  0  0  0  0
  -27.4076  -29.7282   25.4517 H   0  0  0  0  0  0
  -27.8640  -30.4391   23.9205 H   0  0  0  0  0  0
  -27.2662  -33.3613   26.2086 H   0  0  0  0  0  0
  -28.3826  -32.6901   25.0291 H   0  0  0  0  0  0
  -28.0728  -31.8433   26.5369 H   0  0  0  0  0  0
  -28.2609  -38.0100   24.7513 H   0  0  0  0  0  0
  -28.1070  -36.2635   24.6298 H   0  0  0  0  0  0
  -27.2299  -37.1469   25.8867 H   0  0  0  0  0  0
  -20.9290  -29.8716   21.6960 H   0  0  0  0  0  0
  -26.0192  -38.2884   24.1409 H   0  0  0  0  0  0
  -28.9888  -20.2301   18.1040 H   0  0  0  0  0  0
  -27.7013  -21.3705   17.7125 H   0  0  0  0  0  0
  -27.4764  -20.2218   19.0079 H   0  0  0  0  0  0
  -31.8244  -24.5434   18.0174 H   0  0  0  0  0  0
  -31.2270  -26.0647   17.3676 H   0  0  0  0  0  0
  -30.3543  -24.5691   17.0419 H   0  0  0  0  0  0
  -27.8724  -19.8221   21.0312 H   0  0  0  0  0  0
  -28.4552  -20.4197   22.5382 H   0  0  0  0  0  0
  -30.5355  -19.3819   22.3686 H   0  0  0  0  0  0
  -30.5524  -19.4092   20.6263 H   0  0  0  0  0  0
  -28.8881  -17.6022   20.4852 H   0  0  0  0  0  0
  -28.7239  -17.5690   22.2278 H   0  0  0  0  0  0
  -31.1416  -16.8462   22.4173 H   0  0  0  0  0  0
  -31.2966  -16.9958   20.6861 H   0  0  0  0  0  0
  -28.0682  -25.5980   18.3362 H   0  0  0  0  0  0
  -29.0804  -27.0126   18.1632 H   0  0  0  0  0  0
  -30.7322  -25.8898   19.7459 H   0  0  0  0  0  0
  -29.2678  -15.1085   21.8236 H   0  0  0  0  0  0
  1 25  1  0  0  0
  1 30  2  0  0  0
  1 85  1  0  0  0
  2  3  1  0  0  0
  2 25  1  0  0  0
  2 87  1  0  0  0
  2 88  1  0  0  0
  3  4  1  0  0  0
  3 89  1  0  0  0
  3 90  1  0  0  0
  4  5  1  0  0  0
  4 91  1  0  0  0
  4 92  1  0  0  0
  5  6  1  0  0  0
  5 26  1  0  0  0
  5 93  1  0  0  0
  6 25  1  0  0  0
  6 94  1  0  0  0
  6 95  1  0  0  0
  7  8  2  0  0  0
  7 26  1  0  0  0
  7 29  1  0  0  0
  8  9  1  0  0  0
  8 22  1  0  0  0
  9 10  1  0  0  0
  9 27  2  0  0  0
 10 11  2  0  0  0
 10 15  1  0  0  0
 11 12  1  0  0  0
 11 96  1  0  0  0
 12 13  2  0  0  0
 12 97  1  0  0  0
 13 14  1  0  0  0
 13 31  1  0  0  0
 14 15  2  0  0  0
 14 98  1  0  0  0
 15 99  1  0  0  0
 16 17  2  0  0  0
 16 21  1  0  0  0
 16 31  1  0  0  0
 17 18  1  0  0  0
 17100  1  0  0  0
 18 19  2  0  0  0
 18101  1  0  0  0
 19 20  1  0  0  0
 19 24  1  0  0  0
 20 21  2  0  0  0
 20102  1  0  0  0
 21 23  1  0  0  0
 22 28  1  0  0  0
 22 32  2  0  0  0
 26 27  1  0  0  0
 28103  1  0  0  0
 28104  1  0  0  0
 29105  1  0  0  0
 29106  1  0  0  0
 33 34  1  0  0  0
 33 66  1  0  0  0
 33 70  2  0  0  0
 34 36  1  0  0  0
 34 59  1  0  0  0
 34107  1  0  0  0
 35 44  2  0  0  0
 35 45  1  0  0  0
 35 68  1  0  0  0
 36 56  1  0  0  0
 36108  1  0  0  0
 37 39  1  0  0  0
 37 47  1  0  0  0
 37 66  1  0  0  0
 37109  1  0  0  0
 38 43  2  0  0  0
 38 46  1  0  0  0
 38 47  1  0  0  0
 39 64  1  0  0  0
 39 67  2  0  0  0
 40 52  1  0  0  0
 40 53  2  0  0  0
 40 58  1  0  0  0
 41110  1  0  0  0
 41111  1  0  0  0
 41112  1  0  0  0
 41 48  1  0  0  0
 42 43  1  0  0  0
 42 66  1  0  0  0
 42113  1  0  0  0
 42114  1  0  0  0
 43 44  1  0  0  0
 44115  1  0  0  0
 45 46  2  0  0  0
 45116  1  0  0  0
 46117  1  0  0  0
 47118  1  0  0  0
 47119  1  0  0  0
 48 56  1  0  0  0
 48 65  1  0  0  0
 48120  1  0  0  0
 49 50  1  0  0  0
 49 53  1  0  0  0
 49 64  1  0  0  0
 49121  1  0  0  0
 50 51  1  0  0  0
 50122  1  0  0  0
 50123  1  0  0  0
 51 52  1  0  0  0
 51124  1  0  0  0
 51125  1  0  0  0
 52126  1  0  0  0
 52127  1  0  0  0
 53 54  1  0  0  0
 54 55  2  0  0  0
 54128  1  0  0  0
 55 57  1  0  0  0
 55129  1  0  0  0
 56 69  2  0  0  0
 57 58  2  0  0  0
 57130  1  0  0  0
 58131  1  0  0  0
 59 60  1  0  0  0
 59 61  1  0  0  0
 59 62  1  0  0  0
 60132  1  0  0  0
 60133  1  0  0  0
 60134  1  0  0  0
 61135  1  0  0  0
 61136  1  0  0  0
 61137  1  0  0  0
 62138  1  0  0  0
 62139  1  0  0  0
 62140  1  0  0  0
 63 65  1  0  0  0
 63141  1  0  0  0
 63142  1  0  0  0
 63143  1  0  0  0
 64144  1  0  0  0
 65145  1  0  0  0
 68 81  1  0  0  0
 71 72  2  0  0  0
 71 75  1  0  0  0
 71 83  1  0  0  0
 72 77  1  0  0  0
 72 84  1  0  0  0
 73 74  1  0  0  0
 73 82  1  0  0  0
 73 83  2  0  0  0
 74 84  2  0  0  0
 74 86  1  0  0  0
 75146  1  0  0  0
 75147  1  0  0  0
 75148  1  0  0  0
 76149  1  0  0  0
 76150  1  0  0  0
 76151  1  0  0  0
 76 82  1  0  0  0
 77 78  1  0  0  0
 77152  1  0  0  0
 77153  1  0  0  0
 78 79  1  0  0  0
 78154  1  0  0  0
 78155  1  0  0  0
 79 80  1  0  0  0
 79156  1  0  0  0
 79157  1  0  0  0
 80 85  1  0  0  0
 80158  1  0  0  0
 80159  1  0  0  0
 81 82  1  0  0  0
 81160  1  0  0  0
 81161  1  0  0  0
 82162  1  0  0  0
 85163  1  0  0  0
M  ISO  4   1 100  68 101  81 101  85 100
M  END
> <chiral flag>
0

> <version>
0

> <s_m_source_file>
/data/baiqing/PycharmProjects/Reinvent-master-3.2/result/LINK_invent/BTK/process_docking_weight1_custom_sum_contain_oxygen_bond_distance_aromatic_linkinvent_7_9_3/rearranged_h_0042.sdf

> <i_m_source_file_index>
11

> <r_mmod_Potential_Energy-OPLS-2005>
-40.4488105773926

> <r_mmod_Stretch_Energy-OPLS-2005>
35.4974327087402

> <r_mmod_Bend_Energy-OPLS-2005>
94.6576766967773

> <r_mmod_Torsional_Energy-OPLS-2005>
188.713455200195

> <r_mmod_Improper_Torsional_Energy-OPLS-2005>
2.3499870300293

> <r_mmod_Van_der_Waal_Energy-OPLS-2005>
159.72932434082

> <r_mmod_Electrostatic_Energy-OPLS-2005>
-318.294952392578

> <r_mmod_Solvation_Energy-OPLS-2005>
-212.077789306641

> <b_mmod_Minimization_Converged-OPLS-2005>
0

> <r_mmod_RMS_Derivative-OPLS-2005>
3.28641819953918

$$$$
12
                    3D
 Structure written by MMmdl.
155163  0  0  1  0            999 V2000
  -30.6173  -14.6706   20.5478 C   0  0  0  0  0  0
  -30.4379  -12.4307   19.4364 C   0  0  0  0  0  0
  -29.5024  -12.5319   18.2125 C   0  0  0  0  0  0
  -28.0285  -12.3547   18.6283 C   0  0  0  0  0  0
  -27.6542  -13.2155   19.8651 C   0  0  2  0  0  0
  -28.7021  -13.0560   20.9874 C   0  0  0  0  0  0
  -25.2614  -13.8160   20.5739 C   0  0  0  0  0  0
  -24.1854  -13.0433   20.9192 C   0  0  0  0  0  0
  -24.6392  -11.6901   20.8715 C   0  0  0  0  0  0
  -23.9034  -10.4293   21.0395 C   0  0  0  0  0  0
  -24.3583   -9.4220   21.9181 C   0  0  0  0  0  0
  -23.6273   -8.2249   22.0749 C   0  0  0  0  0  0
  -22.4267   -8.0269   21.3532 C   0  0  0  0  0  0
  -21.9890   -9.0236   20.4635 C   0  0  0  0  0  0
  -22.7203  -10.2126   20.3053 C   0  0  0  0  0  0
  -21.6840   -6.0727   22.5282 C   0  0  0  0  0  0
  -21.3995   -6.5634   23.8213 C   0  0  0  0  0  0
  -21.3655   -5.6794   24.9177 C   0  0  0  0  0  0
  -21.6050   -4.3064   24.7237 C   0  0  0  0  0  0
  -21.8817   -3.8142   23.4365 C   0  0  0  0  0  0
  -21.9193   -4.6953   22.3413 C   0  0  0  0  0  0
  -22.7879  -13.5238   21.1842 C   0  0  0  0  0  0
  -22.1674   -4.2138   21.0998 F   0  0  0  0  0  0
  -21.5633   -3.4553   25.7750 F   0  0  0  0  0  0
  -30.0045  -13.4422   20.4258 N   0  0  0  0  0  0
  -26.3006  -12.9320   20.3327 N   0  0  0  0  0  0
  -25.9321  -11.6475   20.5732 N   0  0  0  0  0  0
  -22.0495  -12.8210   22.0361 N   0  0  0  0  0  0
  -25.4417  -15.1874   20.4245 N   0  0  0  0  0  0
  -31.7433  -14.8343   20.0660 O   0  0  0  0  0  0
  -21.6638   -6.8866   21.4241 O   0  0  0  0  0  0
  -22.3579  -14.5552   20.6699 O   0  0  0  0  0  0
  -24.6295  -31.8562   23.1977 C   0  0  0  0  0  0
  -25.9113  -32.4771   23.8340 C   0  0  1  0  0  0
  -27.2330  -27.2911   20.1092 C   0  0  0  0  0  0
  -25.5884  -33.8573   24.2247 N   0  0  0  0  0  0
  -23.4267  -30.4782   21.5432 C   0  0  2  0  0  0
  -24.8756  -28.9317   20.1113 C   0  0  0  0  0  0
  -22.7505  -29.4589   22.4930 C   0  0  0  0  0  0
  -18.0278  -28.1391   22.8478 C   0  0  0  0  0  0
  -24.1466  -36.7281   23.2648 C   0  0  0  0  0  0
  -25.9713  -30.7810   21.3713 C   0  0  0  0  0  0
  -26.0484  -29.4060   20.7112 C   0  0  0  0  0  0
  -27.2286  -28.5980   20.6998 C   0  0  0  0  0  0
  -26.0316  -26.8817   19.4826 C   0  0  0  0  0  0
  -24.8711  -27.6759   19.4894 C   0  0  0  0  0  0
  -23.6430  -29.8114   20.1607 C   0  0  0  0  0  0
  -25.4106  -36.3085   24.0334 C   0  0  1  0  0  0
  -20.5888  -28.3681   23.1282 C   0  0  2  0  0  0
  -20.6760  -26.9394   22.5423 C   0  0  0  0  0  0
  -19.5738  -26.6374   21.5229 C   0  0  0  0  0  0
  -18.1913  -26.7918   22.1626 C   0  0  0  0  0  0
  -19.1543  -28.8853   23.2859 C   0  0  0  0  0  0
  -18.9467  -30.1448   23.8879 C   0  0  0  0  0  0
  -17.6477  -30.6588   24.0560 C   0  0  0  0  0  0
  -25.9056  -34.9454   23.5104 C   0  0  0  0  0  0
  -16.5365  -29.9092   23.6345 C   0  0  0  0  0  0
  -16.7268  -28.6522   23.0339 C   0  0  0  0  0  0
  -26.4459  -31.6612   25.0740 C   0  0  0  0  0  0
  -25.3650  -31.3762   26.1440 C   0  0  0  0  0  0
  -27.0323  -30.3032   24.6209 C   0  0  0  0  0  0
  -27.6021  -32.4350   25.7503 C   0  0  0  0  0  0
  -27.5564  -37.1788   24.8468 C   0  0  0  0  0  0
  -21.4215  -29.3024   22.3669 N   0  0  0  0  0  0
  -26.4269  -37.3794   23.9423 N   0  0  0  0  0  0
  -24.6957  -31.0550   22.0945 N   0  0  0  0  0  0
  -23.4222  -28.8122   23.3009 O   0  0  0  0  0  0
  -28.3412  -26.4163   20.1634 O   0  0  0  0  0  0
  -26.5658  -34.8929   22.4691 O   0  0  0  0  0  0
  -23.5445  -32.1361   23.7287 O   0  0  0  0  0  0
  -30.0293  -18.6109   21.2218 C   0  0  0  0  0  0
  -29.3787  -19.0780   19.1488 C   0  0  0  0  0  0
  -29.8473  -17.3530   20.6405 C   0  0  0  0  0  0
  -29.4318  -17.7131   19.3245 C   0  0  0  0  0  0
  -30.5232  -15.9869   22.7224 C   0  0  0  0  0  0
  -28.8887  -22.2786   20.0608 C   0  0  0  0  0  0
  -29.2096  -23.8436   20.3177 C   0  0  0  0  0  0
  -29.9201  -21.1746   20.6121 C   0  0  0  0  0  0
  -28.1252  -24.9565   19.9136 C   0  0  0  0  0  0
  -29.9317  -15.9061   21.3016 C   0  0  2  0  0  0
  -29.7360  -19.6879   20.3431 N   0  0  0  0  0  0
  -29.0975  -16.8136   18.3695 F   0  0  0  0  0  0
  -31.4762  -12.5630   19.1275 H   0  0  0  0  0  0
  -30.3843  -11.4303   19.8686 H   0  0  0  0  0  0
  -29.7709  -11.7799   17.4701 H   0  0  0  0  0  0
  -29.6337  -13.5007   17.7267 H   0  0  0  0  0  0
  -27.8693  -11.2982   18.8499 H   0  0  0  0  0  0
  -27.3708  -12.5893   17.7902 H   0  0  0  0  0  0
  -27.6798  -14.2556   19.5380 H   0  0  0  0  0  0
  -28.7359  -12.0207   21.3322 H   0  0  0  0  0  0
  -28.4335  -13.6360   21.8691 H   0  0  0  0  0  0
  -25.2717   -9.5714   22.4766 H   0  0  0  0  0  0
  -23.9981   -7.4644   22.7469 H   0  0  0  0  0  0
  -21.0829   -8.8731   19.8936 H   0  0  0  0  0  0
  -22.3637  -10.9659   19.6175 H   0  0  0  0  0  0
  -21.1970   -7.6136   23.9704 H   0  0  0  0  0  0
  -21.1476   -6.0534   25.9077 H   0  0  0  0  0  0
  -22.0594   -2.7601   23.2880 H   0  0  0  0  0  0
  -22.4076  -11.9840   22.4724 H   0  0  0  0  0  0
  -21.1105  -13.1225   22.2528 H   0  0  0  0  0  0
  -24.6971  -15.8595   20.5727 H   0  0  0  0  0  0
  -26.3026  -15.6136   20.1028 H   0  0  0  0  0  0
  -26.7198  -32.5423   23.1106 H   0  0  0  0  0  0
  -24.9968  -33.9703   25.0343 H   0  0  0  0  0  0
  -22.7228  -31.2995   21.3946 H   0  0  0  0  0  0
  -23.3742  -35.9586   23.3321 H   0  0  0  0  0  0
  -24.3561  -36.8889   22.2057 H   0  0  0  0  0  0
  -23.7195  -37.6472   23.6671 H   0  0  0  0  0  0
  -26.1037  -31.5436   20.6034 H   0  0  0  0  0  0
  -26.8521  -30.8340   22.0011 H   0  0  0  0  0  0
  -28.1286  -28.9567   21.1808 H   0  0  0  0  0  0
  -25.9578  -25.9248   18.9904 H   0  0  0  0  0  0
  -23.9716  -27.3051   19.0178 H   0  0  0  0  0  0
  -23.7597  -30.5846   19.4012 H   0  0  0  0  0  0
  -22.7642  -29.2377   19.8609 H   0  0  0  0  0  0
  -25.1273  -36.1944   25.0822 H   0  0  0  0  0  0
  -20.9970  -28.3258   24.1406 H   0  0  0  0  0  0
  -20.5673  -26.2280   23.3621 H   0  0  0  0  0  0
  -21.6621  -26.7415   22.1202 H   0  0  0  0  0  0
  -19.6905  -25.6295   21.1227 H   0  0  0  0  0  0
  -19.6680  -27.3196   20.6771 H   0  0  0  0  0  0
  -17.4181  -26.6669   21.4022 H   0  0  0  0  0  0
  -18.0300  -26.0066   22.9024 H   0  0  0  0  0  0
  -19.7960  -30.7255   24.2232 H   0  0  0  0  0  0
  -17.5045  -31.6259   24.5160 H   0  0  0  0  0  0
  -15.5367  -30.2990   23.7681 H   0  0  0  0  0  0
  -15.8661  -28.0850   22.7055 H   0  0  0  0  0  0
  -24.5871  -30.7057   25.7767 H   0  0  0  0  0  0
  -24.8771  -32.2920   26.4791 H   0  0  0  0  0  0
  -25.7930  -30.9014   27.0276 H   0  0  0  0  0  0
  -26.2933  -29.6778   24.1182 H   0  0  0  0  0  0
  -27.3974  -29.7294   25.4735 H   0  0  0  0  0  0
  -27.8791  -30.4333   23.9472 H   0  0  0  0  0  0
  -27.2663  -33.3695   26.2010 H   0  0  0  0  0  0
  -28.3850  -32.6828   25.0331 H   0  0  0  0  0  0
  -28.0640  -31.8506   26.5468 H   0  0  0  0  0  0
  -28.2578  -38.0084   24.7547 H   0  0  0  0  0  0
  -28.1054  -36.2626   24.6253 H   0  0  0  0  0  0
  -27.2291  -37.1400   25.8867 H   0  0  0  0  0  0
  -20.9424  -29.8774   21.6878 H   0  0  0  0  0  0
  -26.0150  -38.2850   24.1468 H   0  0  0  0  0  0
  -30.3408  -18.8476   22.2304 H   0  0  0  0  0  0
  -29.1177  -19.6686   18.2818 H   0  0  0  0  0  0
  -29.9082  -16.6037   23.3777 H   0  0  0  0  0  0
  -31.5296  -16.4073   22.7097 H   0  0  0  0  0  0
  -30.5878  -15.0007   23.1850 H   0  0  0  0  0  0
  -28.7712  -22.1308   18.9874 H   0  0  0  0  0  0
  -27.9096  -22.0578   20.4859 H   0  0  0  0  0  0
  -30.1389  -24.0860   19.8003 H   0  0  0  0  0  0
  -29.4319  -23.9688   21.3769 H   0  0  0  0  0  0
  -29.9926  -21.2953   21.6943 H   0  0  0  0  0  0
  -30.9104  -21.4305   20.2351 H   0  0  0  0  0  0
  -27.2047  -24.6618   20.4189 H   0  0  0  0  0  0
  -27.9377  -24.8472   18.8445 H   0  0  0  0  0  0
  -28.8801  -15.6565   21.4200 H   0  0  0  0  0  0
  1 25  1  0  0  0
  1 30  2  0  0  0
  1 80  1  0  0  0
  2  3  1  0  0  0
  2 25  1  0  0  0
  2 83  1  0  0  0
  2 84  1  0  0  0
  3  4  1  0  0  0
  3 85  1  0  0  0
  3 86  1  0  0  0
  4  5  1  0  0  0
  4 87  1  0  0  0
  4 88  1  0  0  0
  5  6  1  0  0  0
  5 26  1  0  0  0
  5 89  1  0  0  0
  6 25  1  0  0  0
  6 90  1  0  0  0
  6 91  1  0  0  0
  7  8  2  0  0  0
  7 26  1  0  0  0
  7 29  1  0  0  0
  8  9  1  0  0  0
  8 22  1  0  0  0
  9 10  1  0  0  0
  9 27  2  0  0  0
 10 11  2  0  0  0
 10 15  1  0  0  0
 11 12  1  0  0  0
 11 92  1  0  0  0
 12 13  2  0  0  0
 12 93  1  0  0  0
 13 14  1  0  0  0
 13 31  1  0  0  0
 14 15  2  0  0  0
 14 94  1  0  0  0
 15 95  1  0  0  0
 16 17  2  0  0  0
 16 21  1  0  0  0
 16 31  1  0  0  0
 17 18  1  0  0  0
 17 96  1  0  0  0
 18 19  2  0  0  0
 18 97  1  0  0  0
 19 20  1  0  0  0
 19 24  1  0  0  0
 20 21  2  0  0  0
 20 98  1  0  0  0
 21 23  1  0  0  0
 22 28  1  0  0  0
 22 32  2  0  0  0
 26 27  1  0  0  0
 28 99  1  0  0  0
 28100  1  0  0  0
 29101  1  0  0  0
 29102  1  0  0  0
 33 34  1  0  0  0
 33 66  1  0  0  0
 33 70  2  0  0  0
 34 36  1  0  0  0
 34 59  1  0  0  0
 34103  1  0  0  0
 35 44  2  0  0  0
 35 45  1  0  0  0
 35 68  1  0  0  0
 36 56  1  0  0  0
 36104  1  0  0  0
 37 39  1  0  0  0
 37 47  1  0  0  0
 37 66  1  0  0  0
 37105  1  0  0  0
 38 43  2  0  0  0
 38 46  1  0  0  0
 38 47  1  0  0  0
 39 64  1  0  0  0
 39 67  2  0  0  0
 40 52  1  0  0  0
 40 53  2  0  0  0
 40 58  1  0  0  0
 41106  1  0  0  0
 41107  1  0  0  0
 41108  1  0  0  0
 41 48  1  0  0  0
 42 43  1  0  0  0
 42 66  1  0  0  0
 42109  1  0  0  0
 42110  1  0  0  0
 43 44  1  0  0  0
 44111  1  0  0  0
 45 46  2  0  0  0
 45112  1  0  0  0
 46113  1  0  0  0
 47114  1  0  0  0
 47115  1  0  0  0
 48 56  1  0  0  0
 48 65  1  0  0  0
 48116  1  0  0  0
 49 50  1  0  0  0
 49 53  1  0  0  0
 49 64  1  0  0  0
 49117  1  0  0  0
 50 51  1  0  0  0
 50118  1  0  0  0
 50119  1  0  0  0
 51 52  1  0  0  0
 51120  1  0  0  0
 51121  1  0  0  0
 52122  1  0  0  0
 52123  1  0  0  0
 53 54  1  0  0  0
 54 55  2  0  0  0
 54124  1  0  0  0
 55 57  1  0  0  0
 55125  1  0  0  0
 56 69  2  0  0  0
 57 58  2  0  0  0
 57126  1  0  0  0
 58127  1  0  0  0
 59 60  1  0  0  0
 59 61  1  0  0  0
 59 62  1  0  0  0
 60128  1  0  0  0
 60129  1  0  0  0
 60130  1  0  0  0
 61131  1  0  0  0
 61132  1  0  0  0
 61133  1  0  0  0
 62134  1  0  0  0
 62135  1  0  0  0
 62136  1  0  0  0
 63 65  1  0  0  0
 63137  1  0  0  0
 63138  1  0  0  0
 63139  1  0  0  0
 64140  1  0  0  0
 65141  1  0  0  0
 68 79  1  0  0  0
 71 73  2  0  0  0
 71 81  1  0  0  0
 71142  1  0  0  0
 72 74  2  0  0  0
 72 81  1  0  0  0
 72143  1  0  0  0
 73 74  1  0  0  0
 73 80  1  0  0  0
 74 82  1  0  0  0
 75144  1  0  0  0
 75145  1  0  0  0
 75146  1  0  0  0
 75 80  1  0  0  0
 76 77  1  0  0  0
 76 78  1  0  0  0
 76147  1  0  0  0
 76148  1  0  0  0
 77 79  1  0  0  0
 77149  1  0  0  0
 77150  1  0  0  0
 78 81  1  0  0  0
 78151  1  0  0  0
 78152  1  0  0  0
 79153  1  0  0  0
 79154  1  0  0  0
 80155  1  0  0  0
M  ISO  4   1 100  68 101  79 101  80 100
M  END
> <chiral flag>
0

> <version>
0

> <s_m_source_file>
/data/baiqing/PycharmProjects/Reinvent-master-3.2/result/LINK_invent/BTK/process_docking_weight1_custom_sum_contain_oxygen_bond_distance_aromatic_linkinvent_7_9_3/rearranged_h_0042.sdf

> <i_m_source_file_index>
12

> <r_mmod_Potential_Energy-OPLS-2005>
133.388534545898

> <r_mmod_Stretch_Energy-OPLS-2005>
106.464141845703

> <r_mmod_Bend_Energy-OPLS-2005>
162.297317504883

> <r_mmod_Torsional_Energy-OPLS-2005>
183.702041625977

> <r_mmod_Improper_Torsional_Energy-OPLS-2005>
2.74231958389282

> <r_mmod_Van_der_Waal_Energy-OPLS-2005>
116.846496582031

> <r_mmod_Electrostatic_Energy-OPLS-2005>
-302.965545654297

> <r_mmod_Solvation_Energy-OPLS-2005>
-193.939147949219

> <b_mmod_Minimization_Converged-OPLS-2005>
0

> <r_mmod_RMS_Derivative-OPLS-2005>
2.49458384513855

$$$$
13
                    3D
 Structure written by MMmdl.
161169  0  0  1  0            999 V2000
  -30.6211  -14.6716   20.4974 C   0  0  0  0  0  0
  -30.4355  -12.4212   19.4441 C   0  0  0  0  0  0
  -29.5014  -12.5077   18.2176 C   0  0  0  0  0  0
  -28.0270  -12.3372   18.6354 C   0  0  0  0  0  0
  -27.6447  -13.2221   19.8525 C   0  0  2  0  0  0
  -28.6917  -13.1078   20.9807 C   0  0  0  0  0  0
  -25.2526  -13.8184   20.5678 C   0  0  0  0  0  0
  -24.1808  -13.0443   20.9211 C   0  0  0  0  0  0
  -24.6389  -11.6917   20.8752 C   0  0  0  0  0  0
  -23.9067  -10.4294   21.0416 C   0  0  0  0  0  0
  -24.3619   -9.4211   21.9194 C   0  0  0  0  0  0
  -23.6302   -8.2240   22.0748 C   0  0  0  0  0  0
  -22.4281   -8.0279   21.3534 C   0  0  0  0  0  0
  -21.9921   -9.0259   20.4637 C   0  0  0  0  0  0
  -22.7247  -10.2141   20.3061 C   0  0  0  0  0  0
  -21.6854   -6.0748   22.5291 C   0  0  0  0  0  0
  -21.4006   -6.5648   23.8228 C   0  0  0  0  0  0
  -21.3651   -5.6793   24.9183 C   0  0  0  0  0  0
  -21.6041   -4.3058   24.7227 C   0  0  0  0  0  0
  -21.8819   -3.8158   23.4348 C   0  0  0  0  0  0
  -21.9191   -4.6977   22.3409 C   0  0  0  0  0  0
  -22.7831  -13.5234   21.1892 C   0  0  0  0  0  0
  -22.1663   -4.2163   21.0985 F   0  0  0  0  0  0
  -21.5626   -3.4541   25.7740 F   0  0  0  0  0  0
  -29.9949  -13.4568   20.4013 N   0  0  0  0  0  0
  -26.2947  -12.9372   20.3297 N   0  0  0  0  0  0
  -25.9310  -11.6522   20.5760 N   0  0  0  0  0  0
  -22.0472  -12.8203   22.0429 N   0  0  0  0  0  0
  -25.4224  -15.1906   20.4043 N   0  0  0  0  0  0
  -31.8085  -14.7996   20.1860 O   0  0  0  0  0  0
  -21.6637   -6.8885   21.4245 O   0  0  0  0  0  0
  -22.3516  -14.5544   20.6748 O   0  0  0  0  0  0
  -24.6285  -31.8591   23.2007 C   0  0  0  0  0  0
  -25.9128  -32.4778   23.8346 C   0  0  1  0  0  0
  -27.2183  -27.3121   20.1299 C   0  0  0  0  0  0
  -25.5955  -33.8569   24.2288 N   0  0  0  0  0  0
  -23.4223  -30.4812   21.5415 C   0  0  2  0  0  0
  -24.8699  -28.9309   20.1138 C   0  0  0  0  0  0
  -22.7495  -29.4623   22.4924 C   0  0  0  0  0  0
  -18.0302  -28.1404   22.8488 C   0  0  0  0  0  0
  -24.1478  -36.7258   23.2638 C   0  0  0  0  0  0
  -25.9625  -30.7913   21.3690 C   0  0  0  0  0  0
  -26.0383  -29.4133   20.7191 C   0  0  0  0  0  0
  -27.2197  -28.6127   20.7211 C   0  0  0  0  0  0
  -26.0349  -26.8766   19.5053 C   0  0  0  0  0  0
  -24.8689  -27.6678   19.4991 C   0  0  0  0  0  0
  -23.6385  -29.8132   20.1576 C   0  0  0  0  0  0
  -25.4103  -36.3071   24.0340 C   0  0  1  0  0  0
  -20.5905  -28.3696   23.1290 C   0  0  2  0  0  0
  -20.6793  -26.9418   22.5418 C   0  0  0  0  0  0
  -19.5763  -26.6395   21.5231 C   0  0  0  0  0  0
  -18.1937  -26.7958   22.1616 C   0  0  0  0  0  0
  -19.1553  -28.8869   23.2887 C   0  0  0  0  0  0
  -18.9480  -30.1477   23.8902 C   0  0  0  0  0  0
  -17.6474  -30.6600   24.0572 C   0  0  0  0  0  0
  -25.9049  -34.9446   23.5102 C   0  0  0  0  0  0
  -16.5366  -29.9095   23.6344 C   0  0  0  0  0  0
  -16.7285  -28.6517   23.0351 C   0  0  0  0  0  0
  -26.4500  -31.6581   25.0711 C   0  0  0  0  0  0
  -25.3724  -31.3703   26.1430 C   0  0  0  0  0  0
  -27.0336  -30.3013   24.6136 C   0  0  0  0  0  0
  -27.6089  -32.4288   25.7485 C   0  0  0  0  0  0
  -27.5570  -37.1776   24.8473 C   0  0  0  0  0  0
  -21.4206  -29.3041   22.3674 N   0  0  0  0  0  0
  -26.4266  -37.3784   23.9439 N   0  0  0  0  0  0
  -24.6897  -31.0612   22.0948 N   0  0  0  0  0  0
  -23.4223  -28.8165   23.3001 O   0  0  0  0  0  0
  -28.2956  -26.4182   20.1438 O   0  0  0  0  0  0
  -26.5599  -34.8924   22.4658 O   0  0  0  0  0  0
  -23.5443  -32.1379   23.7330 O   0  0  0  0  0  0
  -28.0156  -21.5379   21.8663 C   0  0  0  0  0  0
  -28.6775  -20.9591   20.7613 C   0  0  0  0  0  0
  -27.8398  -22.9396   21.9929 C   0  0  0  0  0  0
  -29.1395  -21.9125   19.8048 C   0  0  0  0  0  0
  -28.3434  -23.8300   20.9976 C   0  0  0  0  0  0
  -29.8083  -21.4390   18.5315 C   0  0  0  0  0  0
  -25.5889  -23.5944   22.9796 C   0  0  0  0  0  0
  -27.0941  -23.4281   23.2337 C   0  0  0  0  0  0
  -28.6698  -19.3726   20.6341 C   0  0  0  0  0  0
  -28.2629  -25.4087   21.2203 C   0  0  0  0  0  0
  -29.9637  -18.4850   20.3513 C   0  0  0  0  0  0
  -30.2620  -17.1562   21.2080 C   0  0  0  0  0  0
  -28.9960  -23.2809   19.9275 N   0  0  0  0  0  0
  -29.8383  -15.7677   20.7825 N   0  0  0  0  0  0
  -31.4734  -12.5616   19.1349 H   0  0  0  0  0  0
  -30.3879  -11.4328   19.9033 H   0  0  0  0  0  0
  -29.7721  -11.7504   17.4808 H   0  0  0  0  0  0
  -29.6304  -13.4727   17.7248 H   0  0  0  0  0  0
  -27.8726  -11.2856   18.8802 H   0  0  0  0  0  0
  -27.3676  -12.5509   17.7932 H   0  0  0  0  0  0
  -27.6505  -14.2515   19.4935 H   0  0  0  0  0  0
  -28.7176  -12.0941   21.3830 H   0  0  0  0  0  0
  -28.4374  -13.7586   21.8189 H   0  0  0  0  0  0
  -25.2763   -9.5697   22.4765 H   0  0  0  0  0  0
  -24.0020   -7.4628   22.7451 H   0  0  0  0  0  0
  -21.0862   -8.8776   19.8933 H   0  0  0  0  0  0
  -22.3714  -10.9678   19.6164 H   0  0  0  0  0  0
  -21.1992   -7.6154   23.9740 H   0  0  0  0  0  0
  -21.1465   -6.0518   25.9088 H   0  0  0  0  0  0
  -22.0600   -2.7617   23.2846 H   0  0  0  0  0  0
  -22.4077  -11.9846   22.4789 H   0  0  0  0  0  0
  -21.1085  -13.1207   22.2638 H   0  0  0  0  0  0
  -24.6472  -15.8386   20.4896 H   0  0  0  0  0  0
  -26.2615  -15.6253   20.0420 H   0  0  0  0  0  0
  -26.7199  -32.5453   23.1097 H   0  0  0  0  0  0
  -25.0190  -33.9728   25.0491 H   0  0  0  0  0  0
  -22.7163  -31.3012   21.3945 H   0  0  0  0  0  0
  -23.3770  -35.9562   23.3291 H   0  0  0  0  0  0
  -24.3579  -36.8883   22.2060 H   0  0  0  0  0  0
  -23.7195  -37.6439   23.6654 H   0  0  0  0  0  0
  -26.0864  -31.5490   20.5937 H   0  0  0  0  0  0
  -26.8473  -30.8486   21.9908 H   0  0  0  0  0  0
  -28.1166  -28.9733   21.2043 H   0  0  0  0  0  0
  -26.0058  -25.8996   19.0442 H   0  0  0  0  0  0
  -23.9710  -27.2920   19.0298 H   0  0  0  0  0  0
  -23.7541  -30.5886   19.3995 H   0  0  0  0  0  0
  -22.7602  -29.2404   19.8559 H   0  0  0  0  0  0
  -25.1265  -36.1916   25.0831 H   0  0  0  0  0  0
  -21.0000  -28.3271   24.1407 H   0  0  0  0  0  0
  -20.5730  -26.2296   23.3608 H   0  0  0  0  0  0
  -21.6652  -26.7452   22.1187 H   0  0  0  0  0  0
  -19.6933  -25.6314   21.1248 H   0  0  0  0  0  0
  -19.6734  -27.3217   20.6776 H   0  0  0  0  0  0
  -17.4217  -26.6755   21.3993 H   0  0  0  0  0  0
  -18.0294  -26.0094   22.8996 H   0  0  0  0  0  0
  -19.7955  -30.7307   24.2261 H   0  0  0  0  0  0
  -17.5018  -31.6284   24.5173 H   0  0  0  0  0  0
  -15.5364  -30.2987   23.7684 H   0  0  0  0  0  0
  -15.8684  -28.0839   22.7055 H   0  0  0  0  0  0
  -24.6026  -30.6888   25.7783 H   0  0  0  0  0  0
  -24.8754  -32.2834   26.4721 H   0  0  0  0  0  0
  -25.8063  -30.9040   27.0286 H   0  0  0  0  0  0
  -26.2899  -29.6789   24.1138 H   0  0  0  0  0  0
  -27.4040  -29.7240   25.4620 H   0  0  0  0  0  0
  -27.8759  -30.4321   23.9338 H   0  0  0  0  0  0
  -27.2780  -33.3680   26.1920 H   0  0  0  0  0  0
  -28.3979  -32.6677   25.0339 H   0  0  0  0  0  0
  -28.0630  -31.8457   26.5510 H   0  0  0  0  0  0
  -28.2559  -38.0101   24.7558 H   0  0  0  0  0  0
  -28.1084  -36.2637   24.6219 H   0  0  0  0  0  0
  -27.2295  -37.1315   25.8875 H   0  0  0  0  0  0
  -20.9392  -29.8720   21.6839 H   0  0  0  0  0  0
  -26.0141  -38.2840   24.1503 H   0  0  0  0  0  0
  -27.6004  -20.8919   22.6266 H   0  0  0  0  0  0
  -30.7163  -20.8815   18.7621 H   0  0  0  0  0  0
  -30.0829  -22.2753   17.8887 H   0  0  0  0  0  0
  -29.1364  -20.7879   17.9705 H   0  0  0  0  0  0
  -25.1455  -22.6697   22.6079 H   0  0  0  0  0  0
  -25.3848  -24.3765   22.2481 H   0  0  0  0  0  0
  -25.0610  -23.8551   23.8973 H   0  0  0  0  0  0
  -27.5291  -24.3511   23.6182 H   0  0  0  0  0  0
  -27.2329  -22.7044   24.0393 H   0  0  0  0  0  0
  -27.9339  -19.1318   19.8654 H   0  0  0  0  0  0
  -28.2245  -18.9827   21.5504 H   0  0  0  0  0  0
  -29.1012  -25.6544   21.8729 H   0  0  0  0  0  0
  -27.3764  -25.6146   21.8193 H   0  0  0  0  0  0
  -30.8093  -19.1443   20.5514 H   0  0  0  0  0  0
  -30.0424  -18.2686   19.2853 H   0  0  0  0  0  0
  -29.8715  -17.3113   22.2145 H   0  0  0  0  0  0
  -31.3432  -17.1112   21.3504 H   0  0  0  0  0  0
  -28.8619  -15.5521   20.9194 H   0  0  0  0  0  0
  1 25  1  0  0  0
  1 30  2  0  0  0
  1 84  1  0  0  0
  2  3  1  0  0  0
  2 25  1  0  0  0
  2 85  1  0  0  0
  2 86  1  0  0  0
  3  4  1  0  0  0
  3 87  1  0  0  0
  3 88  1  0  0  0
  4  5  1  0  0  0
  4 89  1  0  0  0
  4 90  1  0  0  0
  5  6  1  0  0  0
  5 26  1  0  0  0
  5 91  1  0  0  0
  6 25  1  0  0  0
  6 92  1  0  0  0
  6 93  1  0  0  0
  7  8  2  0  0  0
  7 26  1  0  0  0
  7 29  1  0  0  0
  8  9  1  0  0  0
  8 22  1  0  0  0
  9 10  1  0  0  0
  9 27  2  0  0  0
 10 11  2  0  0  0
 10 15  1  0  0  0
 11 12  1  0  0  0
 11 94  1  0  0  0
 12 13  2  0  0  0
 12 95  1  0  0  0
 13 14  1  0  0  0
 13 31  1  0  0  0
 14 15  2  0  0  0
 14 96  1  0  0  0
 15 97  1  0  0  0
 16 17  2  0  0  0
 16 21  1  0  0  0
 16 31  1  0  0  0
 17 18  1  0  0  0
 17 98  1  0  0  0
 18 19  2  0  0  0
 18 99  1  0  0  0
 19 20  1  0  0  0
 19 24  1  0  0  0
 20 21  2  0  0  0
 20100  1  0  0  0
 21 23  1  0  0  0
 22 28  1  0  0  0
 22 32  2  0  0  0
 26 27  1  0  0  0
 28101  1  0  0  0
 28102  1  0  0  0
 29103  1  0  0  0
 29104  1  0  0  0
 33 34  1  0  0  0
 33 66  1  0  0  0
 33 70  2  0  0  0
 34 36  1  0  0  0
 34 59  1  0  0  0
 34105  1  0  0  0
 35 44  2  0  0  0
 35 45  1  0  0  0
 35 68  1  0  0  0
 36 56  1  0  0  0
 36106  1  0  0  0
 37 39  1  0  0  0
 37 47  1  0  0  0
 37 66  1  0  0  0
 37107  1  0  0  0
 38 43  2  0  0  0
 38 46  1  0  0  0
 38 47  1  0  0  0
 39 64  1  0  0  0
 39 67  2  0  0  0
 40 52  1  0  0  0
 40 53  2  0  0  0
 40 58  1  0  0  0
 41108  1  0  0  0
 41109  1  0  0  0
 41110  1  0  0  0
 41 48  1  0  0  0
 42 43  1  0  0  0
 42 66  1  0  0  0
 42111  1  0  0  0
 42112  1  0  0  0
 43 44  1  0  0  0
 44113  1  0  0  0
 45 46  2  0  0  0
 45114  1  0  0  0
 46115  1  0  0  0
 47116  1  0  0  0
 47117  1  0  0  0
 48 56  1  0  0  0
 48 65  1  0  0  0
 48118  1  0  0  0
 49 50  1  0  0  0
 49 53  1  0  0  0
 49 64  1  0  0  0
 49119  1  0  0  0
 50 51  1  0  0  0
 50120  1  0  0  0
 50121  1  0  0  0
 51 52  1  0  0  0
 51122  1  0  0  0
 51123  1  0  0  0
 52124  1  0  0  0
 52125  1  0  0  0
 53 54  1  0  0  0
 54 55  2  0  0  0
 54126  1  0  0  0
 55 57  1  0  0  0
 55127  1  0  0  0
 56 69  2  0  0  0
 57 58  2  0  0  0
 57128  1  0  0  0
 58129  1  0  0  0
 59 60  1  0  0  0
 59 61  1  0  0  0
 59 62  1  0  0  0
 60130  1  0  0  0
 60131  1  0  0  0
 60132  1  0  0  0
 61133  1  0  0  0
 61134  1  0  0  0
 61135  1  0  0  0
 62136  1  0  0  0
 62137  1  0  0  0
 62138  1  0  0  0
 63 65  1  0  0  0
 63139  1  0  0  0
 63140  1  0  0  0
 63141  1  0  0  0
 64142  1  0  0  0
 65143  1  0  0  0
 68 80  1  0  0  0
 71 72  2  0  0  0
 71 73  1  0  0  0
 71144  1  0  0  0
 72 74  1  0  0  0
 72 79  1  0  0  0
 73 75  2  0  0  0
 73 78  1  0  0  0
 74 76  1  0  0  0
 74 83  2  0  0  0
 75 80  1  0  0  0
 75 83  1  0  0  0
 76145  1  0  0  0
 76146  1  0  0  0
 76147  1  0  0  0
 77 78  1  0  0  0
 77148  1  0  0  0
 77149  1  0  0  0
 77150  1  0  0  0
 78151  1  0  0  0
 78152  1  0  0  0
 79 81  1  0  0  0
 79153  1  0  0  0
 79154  1  0  0  0
 80155  1  0  0  0
 80156  1  0  0  0
 81 82  1  0  0  0
 81157  1  0  0  0
 81158  1  0  0  0
 82 84  1  0  0  0
 82159  1  0  0  0
 82160  1  0  0  0
 84161  1  0  0  0
M  ISO  4   1 100  68 101  80 101  84 100
M  END
> <chiral flag>
0

> <version>
0

> <s_m_source_file>
/data/baiqing/PycharmProjects/Reinvent-master-3.2/result/LINK_invent/BTK/process_docking_weight1_custom_sum_contain_oxygen_bond_distance_aromatic_linkinvent_7_9_3/rearranged_h_0042.sdf

> <i_m_source_file_index>
13

> <r_mmod_Potential_Energy-OPLS-2005>
18.9259185791016

> <r_mmod_Stretch_Energy-OPLS-2005>
92.1937408447266

> <r_mmod_Bend_Energy-OPLS-2005>
175.27033996582

> <r_mmod_Torsional_Energy-OPLS-2005>
256.418548583984

> <r_mmod_Improper_Torsional_Energy-OPLS-2005>
5.3355016708374

> <r_mmod_Van_der_Waal_Energy-OPLS-2005>
137.070495605469

> <r_mmod_Electrostatic_Energy-OPLS-2005>
-479.787994384766

> <r_mmod_Solvation_Energy-OPLS-2005>
-227.954803466797

> <b_mmod_Minimization_Converged-OPLS-2005>
0

> <r_mmod_RMS_Derivative-OPLS-2005>
2.36256003379822

$$$$
14
                    3D
 Structure written by MMmdl.
152160  0  0  1  0            999 V2000
  -30.5221  -14.9555   20.4401 C   0  0  0  0  0  0
  -30.4452  -12.5881   19.5058 C   0  0  0  0  0  0
  -29.5277  -12.5382   18.2601 C   0  0  0  0  0  0
  -28.0583  -12.3196   18.6692 C   0  0  0  0  0  0
  -27.6318  -13.2468   19.8357 C   0  0  2  0  0  0
  -28.6695  -13.2633   20.9751 C   0  0  0  0  0  0
  -25.2482  -13.8212   20.5703 C   0  0  0  0  0  0
  -24.1790  -13.0438   20.9209 C   0  0  0  0  0  0
  -24.6402  -11.6921   20.8736 C   0  0  0  0  0  0
  -23.9083  -10.4294   21.0399 C   0  0  0  0  0  0
  -24.3631   -9.4211   21.9179 C   0  0  0  0  0  0
  -23.6302   -8.2247   22.0754 C   0  0  0  0  0  0
  -22.4284   -8.0285   21.3544 C   0  0  0  0  0  0
  -21.9920   -9.0257   20.4646 C   0  0  0  0  0  0
  -22.7252  -10.2134   20.3051 C   0  0  0  0  0  0
  -21.6855   -6.0740   22.5280 C   0  0  0  0  0  0
  -21.4016   -6.5643   23.8214 C   0  0  0  0  0  0
  -21.3660   -5.6796   24.9175 C   0  0  0  0  0  0
  -21.6043   -4.3058   24.7224 C   0  0  0  0  0  0
  -21.8819   -3.8150   23.4346 C   0  0  0  0  0  0
  -21.9194   -4.6967   22.3403 C   0  0  0  0  0  0
  -22.7812  -13.5210   21.1878 C   0  0  0  0  0  0
  -22.1662   -4.2152   21.0980 F   0  0  0  0  0  0
  -21.5628   -3.4540   25.7737 F   0  0  0  0  0  0
  -29.9546  -13.6791   20.3981 N   0  0  0  0  0  0
  -26.2898  -12.9438   20.3211 N   0  0  0  0  0  0
  -25.9331  -11.6568   20.5702 N   0  0  0  0  0  0
  -22.0468  -12.8192   22.0435 N   0  0  0  0  0  0
  -25.4175  -15.1941   20.4173 N   0  0  0  0  0  0
  -31.7102  -15.0266   20.1040 O   0  0  0  0  0  0
  -21.6645   -6.8883   21.4242 O   0  0  0  0  0  0
  -22.3488  -14.5515   20.6729 O   0  0  0  0  0  0
  -24.6446  -31.8427   23.1863 C   0  0  0  0  0  0
  -25.9212  -32.4686   23.8259 C   0  0  1  0  0  0
  -27.2193  -27.1259   20.1539 C   0  0  0  0  0  0
  -25.5958  -33.8493   24.2177 N   0  0  0  0  0  0
  -23.4487  -30.4614   21.5325 C   0  0  2  0  0  0
  -24.8982  -28.8841   20.1115 C   0  0  0  0  0  0
  -22.7573  -29.4544   22.4857 C   0  0  0  0  0  0
  -18.0308  -28.1398   22.8484 C   0  0  0  0  0  0
  -24.1491  -36.7250   23.2642 C   0  0  0  0  0  0
  -26.0050  -30.7143   21.3853 C   0  0  0  0  0  0
  -26.0763  -29.3238   20.7280 C   0  0  0  0  0  0
  -27.2379  -28.4619   20.7290 C   0  0  0  0  0  0
  -26.0127  -26.7871   19.5033 C   0  0  0  0  0  0
  -24.8797  -27.6297   19.4836 C   0  0  0  0  0  0
  -23.6753  -29.7879   20.1528 C   0  0  0  0  0  0
  -25.4123  -36.3026   24.0314 C   0  0  1  0  0  0
  -20.5921  -28.3725   23.1235 C   0  0  2  0  0  0
  -20.6793  -26.9427   22.5406 C   0  0  0  0  0  0
  -19.5762  -26.6385   21.5218 C   0  0  0  0  0  0
  -18.1945  -26.7937   22.1632 C   0  0  0  0  0  0
  -19.1565  -28.8880   23.2851 C   0  0  0  0  0  0
  -18.9480  -30.1478   23.8873 C   0  0  0  0  0  0
  -17.6476  -30.6594   24.0561 C   0  0  0  0  0  0
  -25.9076  -34.9403   23.5055 C   0  0  0  0  0  0
  -16.5367  -29.9086   23.6337 C   0  0  0  0  0  0
  -16.7292  -28.6505   23.0359 C   0  0  0  0  0  0
  -26.4529  -31.6559   25.0707 C   0  0  0  0  0  0
  -25.3710  -31.3762   26.1401 C   0  0  0  0  0  0
  -27.0394  -30.2952   24.6295 C   0  0  0  0  0  0
  -27.6058  -32.4325   25.7494 C   0  0  0  0  0  0
  -27.5574  -37.1778   24.8464 C   0  0  0  0  0  0
  -21.4264  -29.3048   22.3606 N   0  0  0  0  0  0
  -26.4283  -37.3741   23.9412 N   0  0  0  0  0  0
  -24.7194  -31.0278   22.0897 N   0  0  0  0  0  0
  -23.4212  -28.8098   23.3016 O   0  0  0  0  0  0
  -28.2786  -26.1444   20.2159 O   0  0  0  0  0  0
  -26.5665  -34.8907   22.4636 O   0  0  0  0  0  0
  -23.5562  -32.1307   23.7078 O   0  0  0  0  0  0
  -28.0496  -19.7059   20.7769 C   0  0  0  0  0  0
  -27.8155  -21.0789   20.7886 C   0  0  0  0  0  0
  -29.8689  -20.7032   20.1312 C   0  0  0  0  0  0
  -29.3844  -19.3825   20.3534 C   0  0  0  0  0  0
  -29.6604  -16.5556   22.3086 C   0  0  0  0  0  0
  -30.1043  -17.8900   20.1224 C   0  0  0  0  0  0
  -29.1632  -23.3713   20.3328 C   0  0  0  0  0  0
  -28.0204  -24.6007   20.1363 C   0  0  0  0  0  0
  -29.7138  -16.3825   20.7808 C   0  0  1  0  0  0
  -28.9375  -21.7913   20.3760 N   0  0  0  0  0  0
  -31.4801  -12.7441   19.1981 H   0  0  0  0  0  0
  -30.4349  -11.6316   20.0310 H   0  0  0  0  0  0
  -29.8503  -11.7463   17.5831 H   0  0  0  0  0  0
  -29.6174  -13.4729   17.7042 H   0  0  0  0  0  0
  -27.9518  -11.2768   18.9701 H   0  0  0  0  0  0
  -27.3991  -12.4581   17.8114 H   0  0  0  0  0  0
  -27.5988  -14.2515   19.4138 H   0  0  0  0  0  0
  -28.7512  -12.2830   21.4468 H   0  0  0  0  0  0
  -28.3535  -13.9531   21.7568 H   0  0  0  0  0  0
  -25.2776   -9.5686   22.4754 H   0  0  0  0  0  0
  -24.0011   -7.4638   22.7474 H   0  0  0  0  0  0
  -21.0852   -8.8776   19.8951 H   0  0  0  0  0  0
  -22.3711  -10.9671   19.6161 H   0  0  0  0  0  0
  -21.2009   -7.6151   23.9717 H   0  0  0  0  0  0
  -21.1481   -6.0526   25.9078 H   0  0  0  0  0  0
  -22.0597   -2.7612   23.2845 H   0  0  0  0  0  0
  -22.4097  -11.9853   22.4812 H   0  0  0  0  0  0
  -21.1084  -13.1204   22.2648 H   0  0  0  0  0  0
  -24.6547  -15.8505   20.5430 H   0  0  0  0  0  0
  -26.2749  -15.6374   20.1131 H   0  0  0  0  0  0
  -26.7279  -32.5290   23.0987 H   0  0  0  0  0  0
  -25.0085  -33.9603   25.0312 H   0  0  0  0  0  0
  -22.7521  -31.2875   21.3762 H   0  0  0  0  0  0
  -23.3760  -35.9575   23.3287 H   0  0  0  0  0  0
  -24.3580  -36.8899   22.2060 H   0  0  0  0  0  0
  -23.7236  -37.6437   23.6692 H   0  0  0  0  0  0
  -26.1610  -31.4679   20.6121 H   0  0  0  0  0  0
  -26.8752  -30.7656   22.0281 H   0  0  0  0  0  0
  -28.1362  -28.7955   21.2292 H   0  0  0  0  0  0
  -25.9114  -25.8285   19.0182 H   0  0  0  0  0  0
  -23.9796  -27.2872   18.9918 H   0  0  0  0  0  0
  -23.8126  -30.5610   19.3957 H   0  0  0  0  0  0
  -22.7895  -29.2306   19.8426 H   0  0  0  0  0  0
  -25.1310  -36.1846   25.0804 H   0  0  0  0  0  0
  -21.0013  -28.3314   24.1356 H   0  0  0  0  0  0
  -20.5693  -26.2338   23.3627 H   0  0  0  0  0  0
  -21.6657  -26.7434   22.1196 H   0  0  0  0  0  0
  -19.6922  -25.6290   21.1261 H   0  0  0  0  0  0
  -19.6695  -27.3186   20.6740 H   0  0  0  0  0  0
  -17.4213  -26.6685   21.4035 H   0  0  0  0  0  0
  -18.0339  -26.0085   22.9032 H   0  0  0  0  0  0
  -19.7955  -30.7305   24.2228 H   0  0  0  0  0  0
  -17.5026  -31.6271   24.5170 H   0  0  0  0  0  0
  -15.5365  -30.2980   23.7674 H   0  0  0  0  0  0
  -15.8693  -28.0816   22.7083 H   0  0  0  0  0  0
  -24.5881  -30.7121   25.7721 H   0  0  0  0  0  0
  -24.8914  -32.2955   26.4771 H   0  0  0  0  0  0
  -25.7984  -30.8963   27.0214 H   0  0  0  0  0  0
  -26.3012  -29.6672   24.1295 H   0  0  0  0  0  0
  -27.3996  -29.7255   25.4870 H   0  0  0  0  0  0
  -27.8925  -30.4186   23.9621 H   0  0  0  0  0  0
  -27.2655  -33.3658   26.1993 H   0  0  0  0  0  0
  -28.3914  -32.6827   25.0352 H   0  0  0  0  0  0
  -28.0676  -31.8497   26.5475 H   0  0  0  0  0  0
  -28.2572  -38.0092   24.7523 H   0  0  0  0  0  0
  -28.1086  -36.2620   24.6274 H   0  0  0  0  0  0
  -27.2297  -37.1402   25.8868 H   0  0  0  0  0  0
  -20.9476  -29.8753   21.6776 H   0  0  0  0  0  0
  -26.0145  -38.2805   24.1424 H   0  0  0  0  0  0
  -27.2978  -18.9787   21.0546 H   0  0  0  0  0  0
  -26.9215  -21.6197   21.0732 H   0  0  0  0  0  0
  -30.8610  -20.9827   19.7986 H   0  0  0  0  0  0
  -28.8809  -17.2629   22.5926 H   0  0  0  0  0  0
  -30.6078  -16.9379   22.6894 H   0  0  0  0  0  0
  -29.4559  -15.6201   22.8284 H   0  0  0  0  0  0
  -31.1555  -18.0533   20.3619 H   0  0  0  0  0  0
  -30.1049  -17.7485   19.0415 H   0  0  0  0  0  0
  -29.6819  -23.6039   21.2625 H   0  0  0  0  0  0
  -29.9158  -23.5368   19.5620 H   0  0  0  0  0  0
  -27.2250  -24.3993   20.8542 H   0  0  0  0  0  0
  -27.5751  -24.4168   19.1593 H   0  0  0  0  0  0
  -28.6934  -16.1847   20.4541 H   0  0  0  0  0  0
  1 25  1  0  0  0
  1 30  2  0  0  0
  1 79  1  0  0  0
  2  3  1  0  0  0
  2 25  1  0  0  0
  2 81  1  0  0  0
  2 82  1  0  0  0
  3  4  1  0  0  0
  3 83  1  0  0  0
  3 84  1  0  0  0
  4  5  1  0  0  0
  4 85  1  0  0  0
  4 86  1  0  0  0
  5  6  1  0  0  0
  5 26  1  0  0  0
  5 87  1  0  0  0
  6 25  1  0  0  0
  6 88  1  0  0  0
  6 89  1  0  0  0
  7  8  2  0  0  0
  7 26  1  0  0  0
  7 29  1  0  0  0
  8  9  1  0  0  0
  8 22  1  0  0  0
  9 10  1  0  0  0
  9 27  2  0  0  0
 10 11  2  0  0  0
 10 15  1  0  0  0
 11 12  1  0  0  0
 11 90  1  0  0  0
 12 13  2  0  0  0
 12 91  1  0  0  0
 13 14  1  0  0  0
 13 31  1  0  0  0
 14 15  2  0  0  0
 14 92  1  0  0  0
 15 93  1  0  0  0
 16 17  2  0  0  0
 16 21  1  0  0  0
 16 31  1  0  0  0
 17 18  1  0  0  0
 17 94  1  0  0  0
 18 19  2  0  0  0
 18 95  1  0  0  0
 19 20  1  0  0  0
 19 24  1  0  0  0
 20 21  2  0  0  0
 20 96  1  0  0  0
 21 23  1  0  0  0
 22 28  1  0  0  0
 22 32  2  0  0  0
 26 27  1  0  0  0
 28 97  1  0  0  0
 28 98  1  0  0  0
 29 99  1  0  0  0
 29100  1  0  0  0
 33 34  1  0  0  0
 33 66  1  0  0  0
 33 70  2  0  0  0
 34 36  1  0  0  0
 34 59  1  0  0  0
 34101  1  0  0  0
 35 44  2  0  0  0
 35 45  1  0  0  0
 35 68  1  0  0  0
 36 56  1  0  0  0
 36102  1  0  0  0
 37 39  1  0  0  0
 37 47  1  0  0  0
 37 66  1  0  0  0
 37103  1  0  0  0
 38 43  2  0  0  0
 38 46  1  0  0  0
 38 47  1  0  0  0
 39 64  1  0  0  0
 39 67  2  0  0  0
 40 52  1  0  0  0
 40 53  2  0  0  0
 40 58  1  0  0  0
 41104  1  0  0  0
 41105  1  0  0  0
 41106  1  0  0  0
 41 48  1  0  0  0
 42 43  1  0  0  0
 42 66  1  0  0  0
 42107  1  0  0  0
 42108  1  0  0  0
 43 44  1  0  0  0
 44109  1  0  0  0
 45 46  2  0  0  0
 45110  1  0  0  0
 46111  1  0  0  0
 47112  1  0  0  0
 47113  1  0  0  0
 48 56  1  0  0  0
 48 65  1  0  0  0
 48114  1  0  0  0
 49 50  1  0  0  0
 49 53  1  0  0  0
 49 64  1  0  0  0
 49115  1  0  0  0
 50 51  1  0  0  0
 50116  1  0  0  0
 50117  1  0  0  0
 51 52  1  0  0  0
 51118  1  0  0  0
 51119  1  0  0  0
 52120  1  0  0  0
 52121  1  0  0  0
 53 54  1  0  0  0
 54 55  2  0  0  0
 54122  1  0  0  0
 55 57  1  0  0  0
 55123  1  0  0  0
 56 69  2  0  0  0
 57 58  2  0  0  0
 57124  1  0  0  0
 58125  1  0  0  0
 59 60  1  0  0  0
 59 61  1  0  0  0
 59 62  1  0  0  0
 60126  1  0  0  0
 60127  1  0  0  0
 60128  1  0  0  0
 61129  1  0  0  0
 61130  1  0  0  0
 61131  1  0  0  0
 62132  1  0  0  0
 62133  1  0  0  0
 62134  1  0  0  0
 63 65  1  0  0  0
 63135  1  0  0  0
 63136  1  0  0  0
 63137  1  0  0  0
 64138  1  0  0  0
 65139  1  0  0  0
 68 78  1  0  0  0
 71 72  2  0  0  0
 71 74  1  0  0  0
 71140  1  0  0  0
 72 80  1  0  0  0
 72141  1  0  0  0
 73 74  2  0  0  0
 73 80  1  0  0  0
 73142  1  0  0  0
 74 76  1  0  0  0
 75143  1  0  0  0
 75144  1  0  0  0
 75145  1  0  0  0
 75 79  1  0  0  0
 76 79  1  0  0  0
 76146  1  0  0  0
 76147  1  0  0  0
 77 78  1  0  0  0
 77 80  1  0  0  0
 77148  1  0  0  0
 77149  1  0  0  0
 78150  1  0  0  0
 78151  1  0  0  0
 79152  1  0  0  0
M  ISO  4   1 100  68 101  78 101  79 100
M  END
> <chiral flag>
0

> <version>
0

> <s_m_source_file>
/data/baiqing/PycharmProjects/Reinvent-master-3.2/result/LINK_invent/BTK/process_docking_weight1_custom_sum_contain_oxygen_bond_distance_aromatic_linkinvent_7_9_3/rearranged_h_0042.sdf

> <i_m_source_file_index>
14

> <r_mmod_Potential_Energy-OPLS-2005>
528.480285644531

> <r_mmod_Stretch_Energy-OPLS-2005>
271.893798828125

> <r_mmod_Bend_Energy-OPLS-2005>
258.971343994141

> <r_mmod_Torsional_Energy-OPLS-2005>
195.708724975586

> <r_mmod_Improper_Torsional_Energy-OPLS-2005>
2.99717378616333

> <r_mmod_Van_der_Waal_Energy-OPLS-2005>
105.401512145996

> <r_mmod_Electrostatic_Energy-OPLS-2005>
-302.610809326172

> <r_mmod_Solvation_Energy-OPLS-2005>
-198.965667724609

> <b_mmod_Minimization_Converged-OPLS-2005>
0

> <r_mmod_RMS_Derivative-OPLS-2005>
0.401552796363831

$$$$
15
                    3D
 Structure written by MMmdl.
176184  0  0  1  0            999 V2000
  -30.6795  -14.5232   20.5107 C   0  0  0  0  0  0
  -30.4230  -12.3308   19.4135 C   0  0  0  0  0  0
  -29.4962  -12.5105   18.1942 C   0  0  0  0  0  0
  -28.0133  -12.3850   18.6014 C   0  0  0  0  0  0
  -27.6579  -13.2182   19.8636 C   0  0  2  0  0  0
  -28.7040  -13.0217   20.9832 C   0  0  0  0  0  0
  -25.2565  -13.8183   20.5657 C   0  0  0  0  0  0
  -24.1840  -13.0436   20.9171 C   0  0  0  0  0  0
  -24.6422  -11.6905   20.8717 C   0  0  0  0  0  0
  -23.9098  -10.4284   21.0379 C   0  0  0  0  0  0
  -24.3648   -9.4189   21.9169 C   0  0  0  0  0  0
  -23.6318   -8.2222   22.0744 C   0  0  0  0  0  0
  -22.4299   -8.0262   21.3523 C   0  0  0  0  0  0
  -21.9946   -9.0244   20.4634 C   0  0  0  0  0  0
  -22.7266  -10.2127   20.3027 C   0  0  0  0  0  0
  -21.6868   -6.0728   22.5269 C   0  0  0  0  0  0
  -21.4008   -6.5631   23.8196 C   0  0  0  0  0  0
  -21.3655   -5.6788   24.9163 C   0  0  0  0  0  0
  -21.6053   -4.3056   24.7205 C   0  0  0  0  0  0
  -21.8826   -3.8131   23.4338 C   0  0  0  0  0  0
  -21.9190   -4.6950   22.3395 C   0  0  0  0  0  0
  -22.7858  -13.5211   21.1830 C   0  0  0  0  0  0
  -22.1656   -4.2126   21.0971 F   0  0  0  0  0  0
  -21.5640   -3.4548   25.7715 F   0  0  0  0  0  0
  -30.0252  -13.3327   20.4184 N   0  0  0  0  0  0
  -26.3020  -12.9370   20.3314 N   0  0  0  0  0  0
  -25.9348  -11.6518   20.5745 N   0  0  0  0  0  0
  -22.0516  -12.8182   22.0395 N   0  0  0  0  0  0
  -25.4268  -15.1900   20.4032 N   0  0  0  0  0  0
  -31.8379  -14.6732   20.1168 O   0  0  0  0  0  0
  -21.6652   -6.8870   21.4228 O   0  0  0  0  0  0
  -22.3511  -14.5494   20.6646 O   0  0  0  0  0  0
  -24.6186  -31.8673   23.2087 C   0  0  0  0  0  0
  -25.9082  -32.4808   23.8388 C   0  0  1  0  0  0
  -27.2215  -27.3975   20.0989 C   0  0  0  0  0  0
  -25.5943  -33.8606   24.2308 N   0  0  0  0  0  0
  -23.4051  -30.4944   21.5499 C   0  0  2  0  0  0
  -24.8485  -28.9564   20.1151 C   0  0  0  0  0  0
  -22.7418  -29.4679   22.4966 C   0  0  0  0  0  0
  -18.0287  -28.1370   22.8489 C   0  0  0  0  0  0
  -24.1496  -36.7289   23.2637 C   0  0  0  0  0  0
  -25.9404  -30.8196   21.3713 C   0  0  0  0  0  0
  -26.0139  -29.4545   20.7116 C   0  0  0  0  0  0
  -27.2048  -28.6847   20.6962 C   0  0  0  0  0  0
  -26.0333  -26.9266   19.4953 C   0  0  0  0  0  0
  -24.8540  -27.6923   19.5053 C   0  0  0  0  0  0
  -23.6140  -29.8287   20.1651 C   0  0  0  0  0  0
  -25.4118  -36.3091   24.0330 C   0  0  1  0  0  0
  -20.5878  -28.3663   23.1295 C   0  0  2  0  0  0
  -20.6778  -26.9397   22.5399 C   0  0  0  0  0  0
  -19.5761  -26.6371   21.5202 C   0  0  0  0  0  0
  -18.1939  -26.7921   22.1605 C   0  0  0  0  0  0
  -19.1532  -28.8829   23.2894 C   0  0  0  0  0  0
  -18.9461  -30.1436   23.8894 C   0  0  0  0  0  0
  -17.6467  -30.6580   24.0544 C   0  0  0  0  0  0
  -25.9054  -34.9463   23.5112 C   0  0  0  0  0  0
  -16.5359  -29.9069   23.6334 C   0  0  0  0  0  0
  -16.7274  -28.6486   23.0357 C   0  0  0  0  0  0
  -26.4490  -31.6608   25.0738 C   0  0  0  0  0  0
  -25.3734  -31.3726   26.1468 C   0  0  0  0  0  0
  -27.0354  -30.3058   24.6163 C   0  0  0  0  0  0
  -27.6059  -32.4331   25.7504 C   0  0  0  0  0  0
  -27.5579  -37.1810   24.8457 C   0  0  0  0  0  0
  -21.4140  -29.3033   22.3694 N   0  0  0  0  0  0
  -26.4290  -37.3787   23.9411 N   0  0  0  0  0  0
  -24.6725  -31.0768   22.0995 N   0  0  0  0  0  0
  -23.4186  -28.8237   23.3027 O   0  0  0  0  0  0
  -28.3737  -26.6252   20.1066 O   0  0  0  0  0  0
  -26.5591  -34.8921   22.4658 O   0  0  0  0  0  0
  -23.5377  -32.1431   23.7479 O   0  0  0  0  0  0
  -29.4983  -21.8637   20.0423 C   0  0  0  0  0  0
  -29.4766  -22.9688   20.9316 C   0  0  0  0  0  0
  -29.5135  -22.6786   22.3268 C   0  0  0  0  0  0
  -29.6104  -20.5450   20.5439 C   0  0  0  0  0  0
  -29.6017  -21.3193   22.7431 C   0  0  0  0  0  0
  -30.9793  -25.3999   24.7163 C   0  0  0  0  0  0
  -28.8950  -17.5323   26.1302 C   0  0  0  0  0  0
  -29.5408  -24.4194   20.3884 C   0  0  0  0  0  0
  -29.5271  -23.8114   23.3527 C   0  0  0  0  0  0
  -29.8081  -19.3373   19.6146 C   0  0  0  0  0  0
  -29.7042  -20.8895   24.2152 C   0  0  0  0  0  0
  -30.9533  -24.1764   23.7953 C   0  0  0  0  0  0
  -29.2180  -19.0247   25.9583 C   0  0  0  0  0  0
  -29.2759  -17.9377   20.0771 C   0  0  0  0  0  0
  -29.2715  -19.4253   24.4748 C   0  0  0  0  0  0
  -30.3189  -17.0174   20.7843 C   0  0  0  0  0  0
  -28.1979  -25.1959   20.2997 C   0  0  0  0  0  0
  -29.7004  -20.3021   21.8605 N   0  0  0  0  0  0
  -29.9213  -15.5897   20.8628 N   0  0  0  0  0  0
  -31.4650  -12.4326   19.1053 H   0  0  0  0  0  0
  -30.3259  -11.3241   19.8235 H   0  0  0  0  0  0
  -29.7373  -11.7706   17.4287 H   0  0  0  0  0  0
  -29.6702  -13.4864   17.7357 H   0  0  0  0  0  0
  -27.8053  -11.3315   18.7788 H   0  0  0  0  0  0
  -27.3749  -12.6789   17.7669 H   0  0  0  0  0  0
  -27.6928  -14.2668   19.5653 H   0  0  0  0  0  0
  -28.6943  -11.9905   21.3384 H   0  0  0  0  0  0
  -28.4754  -13.6430   21.8512 H   0  0  0  0  0  0
  -25.2787   -9.5655   22.4746 H   0  0  0  0  0  0
  -24.0009   -7.4617   22.7484 H   0  0  0  0  0  0
  -21.0863   -8.8779   19.8961 H   0  0  0  0  0  0
  -22.3728  -10.9667   19.6136 H   0  0  0  0  0  0
  -21.2001   -7.6143   23.9683 H   0  0  0  0  0  0
  -21.1485   -6.0524   25.9061 H   0  0  0  0  0  0
  -22.0618   -2.7595   23.2847 H   0  0  0  0  0  0
  -22.4178  -11.9851   22.4765 H   0  0  0  0  0  0
  -21.1110  -13.1139   22.2605 H   0  0  0  0  0  0
  -24.6611  -15.8489   20.5077 H   0  0  0  0  0  0
  -26.2772  -15.6218   20.0645 H   0  0  0  0  0  0
  -26.7151  -32.5519   23.1141 H   0  0  0  0  0  0
  -25.0129  -33.9764   25.0483 H   0  0  0  0  0  0
  -22.6952  -31.3123   21.4114 H   0  0  0  0  0  0
  -23.3764  -35.9616   23.3290 H   0  0  0  0  0  0
  -24.3591  -36.8918   22.2053 H   0  0  0  0  0  0
  -23.7231  -37.6485   23.6656 H   0  0  0  0  0  0
  -26.0705  -31.5900   20.6106 H   0  0  0  0  0  0
  -26.8216  -30.8582   22.0003 H   0  0  0  0  0  0
  -28.1031  -29.0621   21.1651 H   0  0  0  0  0  0
  -25.9953  -25.9677   19.0016 H   0  0  0  0  0  0
  -23.9585  -27.3017   19.0402 H   0  0  0  0  0  0
  -23.7219  -30.6017   19.4033 H   0  0  0  0  0  0
  -22.7374  -29.2496   19.8705 H   0  0  0  0  0  0
  -25.1301  -36.1934   25.0822 H   0  0  0  0  0  0
  -20.9978  -28.3232   24.1411 H   0  0  0  0  0  0
  -20.5685  -26.2272   23.3583 H   0  0  0  0  0  0
  -21.6655  -26.7446   22.1198 H   0  0  0  0  0  0
  -19.6924  -25.6282   21.1231 H   0  0  0  0  0  0
  -19.6710  -27.3169   20.6727 H   0  0  0  0  0  0
  -17.4216  -26.6662   21.3999 H   0  0  0  0  0  0
  -18.0345  -26.0052   22.8986 H   0  0  0  0  0  0
  -19.7945  -30.7244   24.2262 H   0  0  0  0  0  0
  -17.5032  -31.6274   24.5119 H   0  0  0  0  0  0
  -15.5356  -30.2964   23.7676 H   0  0  0  0  0  0
  -15.8674  -28.0802   22.7073 H   0  0  0  0  0  0
  -24.5882  -30.7116   25.7775 H   0  0  0  0  0  0
  -24.8953  -32.2890   26.4946 H   0  0  0  0  0  0
  -25.8063  -30.8841   27.0208 H   0  0  0  0  0  0
  -26.2937  -29.6790   24.1196 H   0  0  0  0  0  0
  -27.4096  -29.7331   25.4661 H   0  0  0  0  0  0
  -27.8779  -30.4383   23.9366 H   0  0  0  0  0  0
  -27.2686  -33.3620   26.2114 H   0  0  0  0  0  0
  -28.3861  -32.6911   25.0328 H   0  0  0  0  0  0
  -28.0737  -31.8429   26.5395 H   0  0  0  0  0  0
  -28.2587  -38.0123   24.7539 H   0  0  0  0  0  0
  -28.1086  -36.2658   24.6236 H   0  0  0  0  0  0
  -27.2303  -37.1396   25.8860 H   0  0  0  0  0  0
  -20.9290  -29.8722   21.6889 H   0  0  0  0  0  0
  -26.0165  -38.2859   24.1423 H   0  0  0  0  0  0
  -29.4984  -22.0289   18.9739 H   0  0  0  0  0  0
  -31.9969  -25.6279   25.0362 H   0  0  0  0  0  0
  -30.3801  -25.2284   25.6111 H   0  0  0  0  0  0
  -30.5831  -26.2813   24.2103 H   0  0  0  0  0  0
  -28.8550  -17.2518   27.1836 H   0  0  0  0  0  0
  -29.6572  -16.9130   25.6557 H   0  0  0  0  0  0
  -27.9336  -17.2755   25.6838 H   0  0  0  0  0  0
  -29.9950  -24.4002   19.3970 H   0  0  0  0  0  0
  -30.2409  -24.9907   20.9962 H   0  0  0  0  0  0
  -28.9137  -23.5575   24.2158 H   0  0  0  0  0  0
  -29.0404  -24.6971   22.9491 H   0  0  0  0  0  0
  -30.8618  -19.2701   19.3446 H   0  0  0  0  0  0
  -29.2918  -19.5890   18.6874 H   0  0  0  0  0  0
  -29.0722  -21.5285   24.8294 H   0  0  0  0  0  0
  -30.7283  -21.0431   24.5590 H   0  0  0  0  0  0
  -31.4152  -23.3305   24.3057 H   0  0  0  0  0  0
  -31.5744  -24.3825   22.9219 H   0  0  0  0  0  0
  -30.1781  -19.2340   26.4341 H   0  0  0  0  0  0
  -28.4716  -19.6268   26.4805 H   0  0  0  0  0  0
  -28.9654  -17.4183   19.1704 H   0  0  0  0  0  0
  -28.3694  -18.0485   20.6740 H   0  0  0  0  0  0
  -29.9636  -18.7569   23.9594 H   0  0  0  0  0  0
  -28.2902  -19.2593   24.0269 H   0  0  0  0  0  0
  -30.5097  -17.3892   21.7937 H   0  0  0  0  0  0
  -31.2689  -17.1060   20.2534 H   0  0  0  0  0  0
  -27.6237  -25.0477   21.2144 H   0  0  0  0  0  0
  -27.6194  -24.7440   19.4958 H   0  0  0  0  0  0
  -28.9757  -15.3861   21.1483 H   0  0  0  0  0  0
  1 25  1  0  0  0
  1 30  2  0  0  0
  1 89  1  0  0  0
  2  3  1  0  0  0
  2 25  1  0  0  0
  2 90  1  0  0  0
  2 91  1  0  0  0
  3  4  1  0  0  0
  3 92  1  0  0  0
  3 93  1  0  0  0
  4  5  1  0  0  0
  4 94  1  0  0  0
  4 95  1  0  0  0
  5  6  1  0  0  0
  5 26  1  0  0  0
  5 96  1  0  0  0
  6 25  1  0  0  0
  6 97  1  0  0  0
  6 98  1  0  0  0
  7  8  2  0  0  0
  7 26  1  0  0  0
  7 29  1  0  0  0
  8  9  1  0  0  0
  8 22  1  0  0  0
  9 10  1  0  0  0
  9 27  2  0  0  0
 10 11  2  0  0  0
 10 15  1  0  0  0
 11 12  1  0  0  0
 11 99  1  0  0  0
 12 13  2  0  0  0
 12100  1  0  0  0
 13 14  1  0  0  0
 13 31  1  0  0  0
 14 15  2  0  0  0
 14101  1  0  0  0
 15102  1  0  0  0
 16 17  2  0  0  0
 16 21  1  0  0  0
 16 31  1  0  0  0
 17 18  1  0  0  0
 17103  1  0  0  0
 18 19  2  0  0  0
 18104  1  0  0  0
 19 20  1  0  0  0
 19 24  1  0  0  0
 20 21  2  0  0  0
 20105  1  0  0  0
 21 23  1  0  0  0
 22 28  1  0  0  0
 22 32  2  0  0  0
 26 27  1  0  0  0
 28106  1  0  0  0
 28107  1  0  0  0
 29108  1  0  0  0
 29109  1  0  0  0
 33 34  1  0  0  0
 33 66  1  0  0  0
 33 70  2  0  0  0
 34 36  1  0  0  0
 34 59  1  0  0  0
 34110  1  0  0  0
 35 44  2  0  0  0
 35 45  1  0  0  0
 35 68  1  0  0  0
 36 56  1  0  0  0
 36111  1  0  0  0
 37 39  1  0  0  0
 37 47  1  0  0  0
 37 66  1  0  0  0
 37112  1  0  0  0
 38 43  2  0  0  0
 38 46  1  0  0  0
 38 47  1  0  0  0
 39 64  1  0  0  0
 39 67  2  0  0  0
 40 52  1  0  0  0
 40 53  2  0  0  0
 40 58  1  0  0  0
 41113  1  0  0  0
 41114  1  0  0  0
 41115  1  0  0  0
 41 48  1  0  0  0
 42 43  1  0  0  0
 42 66  1  0  0  0
 42116  1  0  0  0
 42117  1  0  0  0
 43 44  1  0  0  0
 44118  1  0  0  0
 45 46  2  0  0  0
 45119  1  0  0  0
 46120  1  0  0  0
 47121  1  0  0  0
 47122  1  0  0  0
 48 56  1  0  0  0
 48 65  1  0  0  0
 48123  1  0  0  0
 49 50  1  0  0  0
 49 53  1  0  0  0
 49 64  1  0  0  0
 49124  1  0  0  0
 50 51  1  0  0  0
 50125  1  0  0  0
 50126  1  0  0  0
 51 52  1  0  0  0
 51127  1  0  0  0
 51128  1  0  0  0
 52129  1  0  0  0
 52130  1  0  0  0
 53 54  1  0  0  0
 54 55  2  0  0  0
 54131  1  0  0  0
 55 57  1  0  0  0
 55132  1  0  0  0
 56 69  2  0  0  0
 57 58  2  0  0  0
 57133  1  0  0  0
 58134  1  0  0  0
 59 60  1  0  0  0
 59 61  1  0  0  0
 59 62  1  0  0  0
 60135  1  0  0  0
 60136  1  0  0  0
 60137  1  0  0  0
 61138  1  0  0  0
 61139  1  0  0  0
 61140  1  0  0  0
 62141  1  0  0  0
 62142  1  0  0  0
 62143  1  0  0  0
 63 65  1  0  0  0
 63144  1  0  0  0
 63145  1  0  0  0
 63146  1  0  0  0
 64147  1  0  0  0
 65148  1  0  0  0
 68 87  1  0  0  0
 71 72  2  0  0  0
 71 74  1  0  0  0
 71149  1  0  0  0
 72 73  1  0  0  0
 72 78  1  0  0  0
 73 75  2  0  0  0
 73 79  1  0  0  0
 74 80  1  0  0  0
 74 88  2  0  0  0
 75 81  1  0  0  0
 75 88  1  0  0  0
 76 82  1  0  0  0
 76150  1  0  0  0
 76151  1  0  0  0
 76152  1  0  0  0
 77 83  1  0  0  0
 77153  1  0  0  0
 77154  1  0  0  0
 77155  1  0  0  0
 78 87  1  0  0  0
 78156  1  0  0  0
 78157  1  0  0  0
 79 82  1  0  0  0
 79158  1  0  0  0
 79159  1  0  0  0
 80 84  1  0  0  0
 80160  1  0  0  0
 80161  1  0  0  0
 81 85  1  0  0  0
 81162  1  0  0  0
 81163  1  0  0  0
 82164  1  0  0  0
 82165  1  0  0  0
 83 85  1  0  0  0
 83166  1  0  0  0
 83167  1  0  0  0
 84 86  1  0  0  0
 84168  1  0  0  0
 84169  1  0  0  0
 85170  1  0  0  0
 85171  1  0  0  0
 86 89  1  0  0  0
 86172  1  0  0  0
 86173  1  0  0  0
 87174  1  0  0  0
 87175  1  0  0  0
 89176  1  0  0  0
M  ISO  4   1 100  68 101  87 101  89 100
M  END
> <chiral flag>
0

> <version>
0

> <s_m_source_file>
/data/baiqing/PycharmProjects/Reinvent-master-3.2/result/LINK_invent/BTK/process_docking_weight1_custom_sum_contain_oxygen_bond_distance_aromatic_linkinvent_7_9_3/rearranged_h_0042.sdf

> <i_m_source_file_index>
15

> <r_mmod_Potential_Energy-OPLS-2005>
-168.017608642578

> <r_mmod_Stretch_Energy-OPLS-2005>
48.6555480957031

> <r_mmod_Bend_Energy-OPLS-2005>
105.534202575684

> <r_mmod_Torsional_Energy-OPLS-2005>
222.127471923828

> <r_mmod_Improper_Torsional_Energy-OPLS-2005>
5.83642435073853

> <r_mmod_Van_der_Waal_Energy-OPLS-2005>
152.68391418457

> <r_mmod_Electrostatic_Energy-OPLS-2005>
-515.060913085938

> <r_mmod_Solvation_Energy-OPLS-2005>
-208.685028076172

> <b_mmod_Minimization_Converged-OPLS-2005>
0

> <r_mmod_RMS_Derivative-OPLS-2005>
3.13569903373718

$$$$
16
                    3D
 Structure written by MMmdl.
155163  0  0  1  0            999 V2000
  -30.5912  -14.8555   20.4237 C   0  0  0  0  0  0
  -30.4365  -12.5216   19.4881 C   0  0  0  0  0  0
  -29.5169  -12.5176   18.2462 C   0  0  0  0  0  0
  -28.0474  -12.3222   18.6645 C   0  0  0  0  0  0
  -27.6380  -13.2412   19.8448 C   0  0  2  0  0  0
  -28.6855  -13.2338   20.9812 C   0  0  0  0  0  0
  -25.2489  -13.8190   20.5699 C   0  0  0  0  0  0
  -24.1792  -13.0430   20.9213 C   0  0  0  0  0  0
  -24.6397  -11.6916   20.8762 C   0  0  0  0  0  0
  -23.9066  -10.4291   21.0407 C   0  0  0  0  0  0
  -24.3616   -9.4213   21.9181 C   0  0  0  0  0  0
  -23.6306   -8.2240   22.0737 C   0  0  0  0  0  0
  -22.4279   -8.0280   21.3538 C   0  0  0  0  0  0
  -21.9905   -9.0256   20.4641 C   0  0  0  0  0  0
  -22.7224  -10.2146   20.3057 C   0  0  0  0  0  0
  -21.6850   -6.0736   22.5279 C   0  0  0  0  0  0
  -21.4002   -6.5631   23.8215 C   0  0  0  0  0  0
  -21.3657   -5.6781   24.9176 C   0  0  0  0  0  0
  -21.6041   -4.3043   24.7217 C   0  0  0  0  0  0
  -21.8804   -3.8138   23.4341 C   0  0  0  0  0  0
  -21.9186   -4.6958   22.3401 C   0  0  0  0  0  0
  -22.7810  -13.5209   21.1877 C   0  0  0  0  0  0
  -22.1666   -4.2148   21.0976 F   0  0  0  0  0  0
  -21.5652   -3.4524   25.7732 F   0  0  0  0  0  0
  -29.9736  -13.6133   20.3861 N   0  0  0  0  0  0
  -26.2927  -12.9418   20.3268 N   0  0  0  0  0  0
  -25.9334  -11.6548   20.5762 N   0  0  0  0  0  0
  -22.0461  -12.8188   22.0428 N   0  0  0  0  0  0
  -25.4156  -15.1915   20.4138 N   0  0  0  0  0  0
  -31.7869  -14.9254   20.1272 O   0  0  0  0  0  0
  -21.6650   -6.8879   21.4238 O   0  0  0  0  0  0
  -22.3503  -14.5526   20.6734 O   0  0  0  0  0  0
  -24.6430  -31.8485   23.1938 C   0  0  0  0  0  0
  -25.9225  -32.4719   23.8303 C   0  0  1  0  0  0
  -27.2161  -27.1727   20.1316 C   0  0  0  0  0  0
  -25.5984  -33.8524   24.2221 N   0  0  0  0  0  0
  -23.4437  -30.4736   21.5384 C   0  0  2  0  0  0
  -24.8932  -28.9159   20.1095 C   0  0  0  0  0  0
  -22.7561  -29.4584   22.4861 C   0  0  0  0  0  0
  -18.0308  -28.1395   22.8482 C   0  0  0  0  0  0
  -24.1490  -36.7247   23.2635 C   0  0  0  0  0  0
  -26.0000  -30.7336   21.3906 C   0  0  0  0  0  0
  -26.0724  -29.3511   20.7274 C   0  0  0  0  0  0
  -27.2367  -28.4955   20.7257 C   0  0  0  0  0  0
  -26.0067  -26.8449   19.4697 C   0  0  0  0  0  0
  -24.8713  -27.6739   19.4670 C   0  0  0  0  0  0
  -23.6690  -29.8127   20.1553 C   0  0  0  0  0  0
  -25.4127  -36.3041   24.0314 C   0  0  1  0  0  0
  -20.5916  -28.3727   23.1230 C   0  0  2  0  0  0
  -20.6785  -26.9434   22.5397 C   0  0  0  0  0  0
  -19.5756  -26.6388   21.5203 C   0  0  0  0  0  0
  -18.1945  -26.7934   22.1625 C   0  0  0  0  0  0
  -19.1563  -28.8878   23.2852 C   0  0  0  0  0  0
  -18.9477  -30.1466   23.8889 C   0  0  0  0  0  0
  -17.6475  -30.6594   24.0562 C   0  0  0  0  0  0
  -25.9074  -34.9418   23.5068 C   0  0  0  0  0  0
  -16.5367  -29.9090   23.6329 C   0  0  0  0  0  0
  -16.7294  -28.6503   23.0366 C   0  0  0  0  0  0
  -26.4546  -31.6565   25.0721 C   0  0  0  0  0  0
  -25.3729  -31.3746   26.1412 C   0  0  0  0  0  0
  -27.0387  -30.2956   24.6274 C   0  0  0  0  0  0
  -27.6072  -32.4323   25.7521 C   0  0  0  0  0  0
  -27.5579  -37.1785   24.8470 C   0  0  0  0  0  0
  -21.4256  -29.3060   22.3598 N   0  0  0  0  0  0
  -26.4291  -37.3752   23.9407 N   0  0  0  0  0  0
  -24.7149  -31.0373   22.0964 N   0  0  0  0  0  0
  -23.4210  -28.8120   23.2993 O   0  0  0  0  0  0
  -28.2550  -26.1764   20.2102 O   0  0  0  0  0  0
  -26.5635  -34.8909   22.4628 O   0  0  0  0  0  0
  -23.5554  -32.1360   23.7174 O   0  0  0  0  0  0
  -28.9339  -22.6763   21.4117 C   0  0  0  0  0  0
  -29.2134  -21.2597   21.5444 C   0  0  0  0  0  0
  -29.1835  -20.3552   20.4226 C   0  0  0  0  0  0
  -28.6586  -23.2985   20.1585 C   0  0  0  0  0  0
  -29.0058  -21.0828   19.1975 C   0  0  0  0  0  0
  -29.4991  -20.7371   22.9407 C   0  0  0  0  0  0
  -29.0566  -20.3683   17.8583 C   0  0  0  0  0  0
  -29.0503  -18.7190   20.5612 C   0  0  0  0  0  0
  -27.8611  -24.7130   19.9293 C   0  0  0  0  0  0
  -30.1990  -17.5384   20.3975 C   0  0  0  0  0  0
  -28.7610  -22.4443   19.0865 N   0  0  0  0  0  0
  -29.8303  -16.0289   20.5776 N   0  0  0  0  0  0
  -31.4751  -12.6513   19.1805 H   0  0  0  0  0  0
  -30.3953  -11.5604   20.0037 H   0  0  0  0  0  0
  -29.8164  -11.7289   17.5546 H   0  0  0  0  0  0
  -29.6237  -13.4578   17.7041 H   0  0  0  0  0  0
  -27.9278  -11.2781   18.9553 H   0  0  0  0  0  0
  -27.3849  -12.4807   17.8129 H   0  0  0  0  0  0
  -27.6143  -14.2509   19.4363 H   0  0  0  0  0  0
  -28.7469  -12.2498   21.4509 H   0  0  0  0  0  0
  -28.4040  -13.9354   21.7684 H   0  0  0  0  0  0
  -25.2755   -9.5685   22.4762 H   0  0  0  0  0  0
  -24.0021   -7.4618   22.7432 H   0  0  0  0  0  0
  -21.0835   -8.8766   19.8959 H   0  0  0  0  0  0
  -22.3660  -10.9693   19.6184 H   0  0  0  0  0  0
  -21.1984   -7.6133   23.9723 H   0  0  0  0  0  0
  -21.1505   -6.0513   25.9092 H   0  0  0  0  0  0
  -22.0591   -2.7597   23.2850 H   0  0  0  0  0  0
  -22.4114  -11.9878   22.4843 H   0  0  0  0  0  0
  -21.1056  -13.1165   22.2607 H   0  0  0  0  0  0
  -24.6440  -15.8396   20.5282 H   0  0  0  0  0  0
  -26.2533  -15.6333   20.0580 H   0  0  0  0  0  0
  -26.7293  -32.5347   23.1031 H   0  0  0  0  0  0
  -25.0149  -33.9645   25.0378 H   0  0  0  0  0  0
  -22.7455  -31.2999   21.3901 H   0  0  0  0  0  0
  -23.3758  -35.9573   23.3306 H   0  0  0  0  0  0
  -24.3575  -36.8863   22.2047 H   0  0  0  0  0  0
  -23.7239  -37.6444   23.6660 H   0  0  0  0  0  0
  -26.1558  -31.4929   20.6231 H   0  0  0  0  0  0
  -26.8692  -30.7786   22.0351 H   0  0  0  0  0  0
  -28.1340  -28.8218   21.2328 H   0  0  0  0  0  0
  -25.8767  -25.9052   18.9572 H   0  0  0  0  0  0
  -23.9720  -27.3351   18.9705 H   0  0  0  0  0  0
  -23.8063  -30.5909   19.4032 H   0  0  0  0  0  0
  -22.7844  -29.2557   19.8407 H   0  0  0  0  0  0
  -25.1312  -36.1866   25.0804 H   0  0  0  0  0  0
  -21.0028  -28.3322   24.1343 H   0  0  0  0  0  0
  -20.5664  -26.2351   23.3622 H   0  0  0  0  0  0
  -21.6654  -26.7432   22.1207 H   0  0  0  0  0  0
  -19.6916  -25.6293   21.1251 H   0  0  0  0  0  0
  -19.6682  -27.3180   20.6717 H   0  0  0  0  0  0
  -17.4209  -26.6684   21.4037 H   0  0  0  0  0  0
  -18.0357  -26.0074   22.9020 H   0  0  0  0  0  0
  -19.7949  -30.7275   24.2281 H   0  0  0  0  0  0
  -17.5025  -31.6280   24.5149 H   0  0  0  0  0  0
  -15.5365  -30.2990   23.7649 H   0  0  0  0  0  0
  -15.8695  -28.0805   22.7109 H   0  0  0  0  0  0
  -24.5939  -30.7061   25.7727 H   0  0  0  0  0  0
  -24.8888  -32.2925   26.4764 H   0  0  0  0  0  0
  -25.8028  -30.8978   27.0229 H   0  0  0  0  0  0
  -26.2987  -29.6697   24.1274 H   0  0  0  0  0  0
  -27.3983  -29.7240   25.4836 H   0  0  0  0  0  0
  -27.8912  -30.4170   23.9589 H   0  0  0  0  0  0
  -27.2655  -33.3627   26.2072 H   0  0  0  0  0  0
  -28.3913  -32.6882   25.0378 H   0  0  0  0  0  0
  -28.0706  -31.8463   26.5468 H   0  0  0  0  0  0
  -28.2592  -38.0084   24.7511 H   0  0  0  0  0  0
  -28.1075  -36.2611   24.6304 H   0  0  0  0  0  0
  -27.2290  -37.1444   25.8871 H   0  0  0  0  0  0
  -20.9470  -29.8791   21.6786 H   0  0  0  0  0  0
  -26.0153  -38.2814   24.1418 H   0  0  0  0  0  0
  -28.8493  -23.2787   22.3068 H   0  0  0  0  0  0
  -30.2772  -21.3448   23.4055 H   0  0  0  0  0  0
  -29.8633  -19.7102   22.9414 H   0  0  0  0  0  0
  -28.6076  -20.7912   23.5653 H   0  0  0  0  0  0
  -28.8663  -19.3006   17.9346 H   0  0  0  0  0  0
  -30.0467  -20.4960   17.4204 H   0  0  0  0  0  0
  -28.3236  -20.7830   17.1657 H   0  0  0  0  0  0
  -28.2558  -18.4472   19.8657 H   0  0  0  0  0  0
  -28.5736  -18.5428   21.5255 H   0  0  0  0  0  0
  -26.9210  -24.5430   20.4551 H   0  0  0  0  0  0
  -27.6193  -24.6918   18.8666 H   0  0  0  0  0  0
  -31.0154  -17.7550   21.0870 H   0  0  0  0  0  0
  -30.6325  -17.6329   19.4007 H   0  0  0  0  0  0
  -28.8582  -15.8572   20.7878 H   0  0  0  0  0  0
  1 25  1  0  0  0
  1 30  2  0  0  0
  1 82  1  0  0  0
  2  3  1  0  0  0
  2 25  1  0  0  0
  2 83  1  0  0  0
  2 84  1  0  0  0
  3  4  1  0  0  0
  3 85  1  0  0  0
  3 86  1  0  0  0
  4  5  1  0  0  0
  4 87  1  0  0  0
  4 88  1  0  0  0
  5  6  1  0  0  0
  5 26  1  0  0  0
  5 89  1  0  0  0
  6 25  1  0  0  0
  6 90  1  0  0  0
  6 91  1  0  0  0
  7  8  2  0  0  0
  7 26  1  0  0  0
  7 29  1  0  0  0
  8  9  1  0  0  0
  8 22  1  0  0  0
  9 10  1  0  0  0
  9 27  2  0  0  0
 10 11  2  0  0  0
 10 15  1  0  0  0
 11 12  1  0  0  0
 11 92  1  0  0  0
 12 13  2  0  0  0
 12 93  1  0  0  0
 13 14  1  0  0  0
 13 31  1  0  0  0
 14 15  2  0  0  0
 14 94  1  0  0  0
 15 95  1  0  0  0
 16 17  2  0  0  0
 16 21  1  0  0  0
 16 31  1  0  0  0
 17 18  1  0  0  0
 17 96  1  0  0  0
 18 19  2  0  0  0
 18 97  1  0  0  0
 19 20  1  0  0  0
 19 24  1  0  0  0
 20 21  2  0  0  0
 20 98  1  0  0  0
 21 23  1  0  0  0
 22 28  1  0  0  0
 22 32  2  0  0  0
 26 27  1  0  0  0
 28 99  1  0  0  0
 28100  1  0  0  0
 29101  1  0  0  0
 29102  1  0  0  0
 33 34  1  0  0  0
 33 66  1  0  0  0
 33 70  2  0  0  0
 34 36  1  0  0  0
 34 59  1  0  0  0
 34103  1  0  0  0
 35 44  2  0  0  0
 35 45  1  0  0  0
 35 68  1  0  0  0
 36 56  1  0  0  0
 36104  1  0  0  0
 37 39  1  0  0  0
 37 47  1  0  0  0
 37 66  1  0  0  0
 37105  1  0  0  0
 38 43  2  0  0  0
 38 46  1  0  0  0
 38 47  1  0  0  0
 39 64  1  0  0  0
 39 67  2  0  0  0
 40 52  1  0  0  0
 40 53  2  0  0  0
 40 58  1  0  0  0
 41106  1  0  0  0
 41107  1  0  0  0
 41108  1  0  0  0
 41 48  1  0  0  0
 42 43  1  0  0  0
 42 66  1  0  0  0
 42109  1  0  0  0
 42110  1  0  0  0
 43 44  1  0  0  0
 44111  1  0  0  0
 45 46  2  0  0  0
 45112  1  0  0  0
 46113  1  0  0  0
 47114  1  0  0  0
 47115  1  0  0  0
 48 56  1  0  0  0
 48 65  1  0  0  0
 48116  1  0  0  0
 49 50  1  0  0  0
 49 53  1  0  0  0
 49 64  1  0  0  0
 49117  1  0  0  0
 50 51  1  0  0  0
 50118  1  0  0  0
 50119  1  0  0  0
 51 52  1  0  0  0
 51120  1  0  0  0
 51121  1  0  0  0
 52122  1  0  0  0
 52123  1  0  0  0
 53 54  1  0  0  0
 54 55  2  0  0  0
 54124  1  0  0  0
 55 57  1  0  0  0
 55125  1  0  0  0
 56 69  2  0  0  0
 57 58  2  0  0  0
 57126  1  0  0  0
 58127  1  0  0  0
 59 60  1  0  0  0
 59 61  1  0  0  0
 59 62  1  0  0  0
 60128  1  0  0  0
 60129  1  0  0  0
 60130  1  0  0  0
 61131  1  0  0  0
 61132  1  0  0  0
 61133  1  0  0  0
 62134  1  0  0  0
 62135  1  0  0  0
 62136  1  0  0  0
 63 65  1  0  0  0
 63137  1  0  0  0
 63138  1  0  0  0
 63139  1  0  0  0
 64140  1  0  0  0
 65141  1  0  0  0
 68 79  1  0  0  0
 71 72  2  0  0  0
 71 74  1  0  0  0
 71142  1  0  0  0
 72 73  1  0  0  0
 72 76  1  0  0  0
 73 75  2  0  0  0
 73 78  1  0  0  0
 74 79  1  0  0  0
 74 81  2  0  0  0
 75 77  1  0  0  0
 75 81  1  0  0  0
 76143  1  0  0  0
 76144  1  0  0  0
 76145  1  0  0  0
 77146  1  0  0  0
 77147  1  0  0  0
 77148  1  0  0  0
 78 80  1  0  0  0
 78149  1  0  0  0
 78150  1  0  0  0
 79151  1  0  0  0
 79152  1  0  0  0
 80 82  1  0  0  0
 80153  1  0  0  0
 80154  1  0  0  0
 82155  1  0  0  0
M  ISO  4   1 100  68 101  79 101  82 100
M  END
> <chiral flag>
0

> <version>
0

> <s_m_source_file>
/data/baiqing/PycharmProjects/Reinvent-master-3.2/result/LINK_invent/BTK/process_docking_weight1_custom_sum_contain_oxygen_bond_distance_aromatic_linkinvent_7_9_3/rearranged_h_0042.sdf

> <i_m_source_file_index>
16

> <r_mmod_Potential_Energy-OPLS-2005>
212.937683105469

> <r_mmod_Stretch_Energy-OPLS-2005>
195.119125366211

> <r_mmod_Bend_Energy-OPLS-2005>
240.716720581055

> <r_mmod_Torsional_Energy-OPLS-2005>
228.204605102539

> <r_mmod_Improper_Torsional_Energy-OPLS-2005>
9.49699115753174

> <r_mmod_Van_der_Waal_Energy-OPLS-2005>
144.909942626953

> <r_mmod_Electrostatic_Energy-OPLS-2005>
-523.966003417969

> <r_mmod_Solvation_Energy-OPLS-2005>
-231.08479309082

> <b_mmod_Minimization_Converged-OPLS-2005>
0

> <r_mmod_RMS_Derivative-OPLS-2005>
2.08570265769958

$$$$
17
                    3D
 Structure written by MMmdl.
150158  0  0  1  0            999 V2000
  -30.5112  -15.0117   20.3966 C   0  0  0  0  0  0
  -30.4365  -12.6225   19.5254 C   0  0  0  0  0  0
  -29.5316  -12.5491   18.2729 C   0  0  0  0  0  0
  -28.0630  -12.3242   18.6789 C   0  0  0  0  0  0
  -27.6276  -13.2565   19.8408 C   0  0  2  0  0  0
  -28.6622  -13.3068   20.9860 C   0  0  0  0  0  0
  -25.2446  -13.8226   20.5707 C   0  0  0  0  0  0
  -24.1772  -13.0440   20.9217 C   0  0  0  0  0  0
  -24.6397  -11.6927   20.8743 C   0  0  0  0  0  0
  -23.9086  -10.4292   21.0395 C   0  0  0  0  0  0
  -24.3637   -9.4207   21.9174 C   0  0  0  0  0  0
  -23.6304   -8.2244   22.0750 C   0  0  0  0  0  0
  -22.4284   -8.0282   21.3542 C   0  0  0  0  0  0
  -21.9923   -9.0256   20.4641 C   0  0  0  0  0  0
  -22.7258  -10.2132   20.3045 C   0  0  0  0  0  0
  -21.6853   -6.0737   22.5278 C   0  0  0  0  0  0
  -21.4014   -6.5638   23.8213 C   0  0  0  0  0  0
  -21.3660   -5.6788   24.9173 C   0  0  0  0  0  0
  -21.6043   -4.3052   24.7219 C   0  0  0  0  0  0
  -21.8821   -3.8147   23.4340 C   0  0  0  0  0  0
  -21.9195   -4.6965   22.3399 C   0  0  0  0  0  0
  -22.7792  -13.5207   21.1867 C   0  0  0  0  0  0
  -22.1661   -4.2154   21.0974 F   0  0  0  0  0  0
  -21.5629   -3.4534   25.7729 F   0  0  0  0  0  0
  -29.9365  -13.7337   20.3952 N   0  0  0  0  0  0
  -26.2872  -12.9471   20.3237 N   0  0  0  0  0  0
  -25.9331  -11.6594   20.5720 N   0  0  0  0  0  0
  -22.0446  -12.8202   22.0429 N   0  0  0  0  0  0
  -25.4107  -15.1955   20.4139 N   0  0  0  0  0  0
  -31.7009  -15.0683   20.0671 O   0  0  0  0  0  0
  -21.6643   -6.8883   21.4240 O   0  0  0  0  0  0
  -22.3475  -14.5511   20.6705 O   0  0  0  0  0  0
  -24.6470  -31.8377   23.1819 C   0  0  0  0  0  0
  -25.9222  -32.4667   23.8232 C   0  0  1  0  0  0
  -27.2206  -27.0839   20.1622 C   0  0  0  0  0  0
  -25.5956  -33.8480   24.2150 N   0  0  0  0  0  0
  -23.4533  -30.4519   21.5287 C   0  0  2  0  0  0
  -24.9036  -28.8668   20.1054 C   0  0  0  0  0  0
  -22.7582  -29.4496   22.4851 C   0  0  0  0  0  0
  -18.0303  -28.1389   22.8485 C   0  0  0  0  0  0
  -24.1484  -36.7237   23.2647 C   0  0  0  0  0  0
  -26.0104  -30.6940   21.3884 C   0  0  0  0  0  0
  -26.0785  -29.3001   20.7301 C   0  0  0  0  0  0
  -27.2320  -28.4241   20.7401 C   0  0  0  0  0  0
  -26.0204  -26.7581   19.4955 C   0  0  0  0  0  0
  -24.8906  -27.6124   19.4718 C   0  0  0  0  0  0
  -23.6805  -29.7741   20.1491 C   0  0  0  0  0  0
  -25.4123  -36.3016   24.0309 C   0  0  1  0  0  0
  -20.5917  -28.3704   23.1247 C   0  0  2  0  0  0
  -20.6786  -26.9405   22.5420 C   0  0  0  0  0  0
  -19.5762  -26.6366   21.5227 C   0  0  0  0  0  0
  -18.1938  -26.7934   22.1624 C   0  0  0  0  0  0
  -19.1564  -28.8871   23.2857 C   0  0  0  0  0  0
  -18.9478  -30.1470   23.8875 C   0  0  0  0  0  0
  -17.6474  -30.6593   24.0552 C   0  0  0  0  0  0
  -25.9076  -34.9393   23.5043 C   0  0  0  0  0  0
  -16.5365  -29.9080   23.6342 C   0  0  0  0  0  0
  -16.7287  -28.6494   23.0371 C   0  0  0  0  0  0
  -26.4527  -31.6571   25.0705 C   0  0  0  0  0  0
  -25.3687  -31.3798   26.1385 C   0  0  0  0  0  0
  -27.0423  -30.2969   24.6337 C   0  0  0  0  0  0
  -27.6038  -32.4357   25.7506 C   0  0  0  0  0  0
  -27.5573  -37.1774   24.8462 C   0  0  0  0  0  0
  -21.4270  -29.3023   22.3612 N   0  0  0  0  0  0
  -26.4282  -37.3737   23.9410 N   0  0  0  0  0  0
  -24.7236  -31.0182   22.0873 N   0  0  0  0  0  0
  -23.4209  -28.8061   23.3030 O   0  0  0  0  0  0
  -28.2862  -26.1047   20.2865 O   0  0  0  0  0  0
  -26.5670  -34.8905   22.4626 O   0  0  0  0  0  0
  -23.5578  -32.1272   23.7010 O   0  0  0  0  0  0
  -28.5380  -20.2131   20.2271 C   0  0  0  0  0  0
  -29.0200  -21.6174   20.4473 C   0  0  0  0  0  0
  -29.5795  -19.2295   20.2753 C   0  0  0  0  0  0
  -32.0409  -19.7316   20.6818 C   0  0  0  0  0  0
  -28.3504  -23.1395   20.7335 C   0  0  0  0  0  0
  -29.8624  -17.6366   19.8261 C   0  0  0  0  0  0
  -28.3535  -24.5896   19.8226 C   0  0  0  0  0  0
  -30.3253  -21.4388   20.6571 N   0  0  0  0  0  0
  -30.6423  -20.0950   20.5511 N   0  0  0  0  0  0
  -29.7370  -16.2130   20.5428 N   0  0  0  0  0  0
  -31.4739  -12.7741   19.2229 H   0  0  0  0  0  0
  -30.4243  -11.6743   20.0656 H   0  0  0  0  0  0
  -29.8666  -11.7534   17.6061 H   0  0  0  0  0  0
  -29.6178  -13.4787   17.7078 H   0  0  0  0  0  0
  -27.9625  -11.2819   18.9834 H   0  0  0  0  0  0
  -27.4064  -12.4552   17.8176 H   0  0  0  0  0  0
  -27.5851  -14.2559   19.4072 H   0  0  0  0  0  0
  -28.7565  -12.3364   21.4759 H   0  0  0  0  0  0
  -28.3473  -14.0136   21.7555 H   0  0  0  0  0  0
  -25.2782   -9.5685   22.4750 H   0  0  0  0  0  0
  -24.0010   -7.4640   22.7475 H   0  0  0  0  0  0
  -21.0852   -8.8776   19.8953 H   0  0  0  0  0  0
  -22.3711  -10.9669   19.6155 H   0  0  0  0  0  0
  -21.2003   -7.6145   23.9720 H   0  0  0  0  0  0
  -21.1479   -6.0513   25.9077 H   0  0  0  0  0  0
  -22.0601   -2.7608   23.2834 H   0  0  0  0  0  0
  -22.4067  -11.9869   22.4827 H   0  0  0  0  0  0
  -21.1058  -13.1218   22.2621 H   0  0  0  0  0  0
  -24.6395  -15.8460   20.5184 H   0  0  0  0  0  0
  -26.2538  -15.6364   20.0702 H   0  0  0  0  0  0
  -26.7289  -32.5246   23.0955 H   0  0  0  0  0  0
  -25.0086  -33.9596   25.0289 H   0  0  0  0  0  0
  -22.7586  -31.2791   21.3711 H   0  0  0  0  0  0
  -23.3763  -35.9550   23.3283 H   0  0  0  0  0  0
  -24.3565  -36.8900   22.2067 H   0  0  0  0  0  0
  -23.7218  -37.6417   23.6702 H   0  0  0  0  0  0
  -26.1750  -31.4460   20.6153 H   0  0  0  0  0  0
  -26.8774  -30.7427   22.0358 H   0  0  0  0  0  0
  -28.1243  -28.7496   21.2556 H   0  0  0  0  0  0
  -25.9169  -25.7931   19.0230 H   0  0  0  0  0  0
  -23.9912  -27.2768   18.9741 H   0  0  0  0  0  0
  -23.8156  -30.5454   19.3899 H   0  0  0  0  0  0
  -22.7942  -29.2149   19.8431 H   0  0  0  0  0  0
  -25.1318  -36.1829   25.0801 H   0  0  0  0  0  0
  -21.0010  -28.3281   24.1369 H   0  0  0  0  0  0
  -20.5679  -26.2308   23.3635 H   0  0  0  0  0  0
  -21.6648  -26.7407   22.1216 H   0  0  0  0  0  0
  -19.6914  -25.6270   21.1272 H   0  0  0  0  0  0
  -19.6711  -27.3164   20.6748 H   0  0  0  0  0  0
  -17.4218  -26.6696   21.4014 H   0  0  0  0  0  0
  -18.0312  -26.0081   22.9018 H   0  0  0  0  0  0
  -19.7955  -30.7292   24.2229 H   0  0  0  0  0  0
  -17.5028  -31.6277   24.5148 H   0  0  0  0  0  0
  -15.5363  -30.2971   23.7690 H   0  0  0  0  0  0
  -15.8684  -28.0799   22.7113 H   0  0  0  0  0  0
  -24.5846  -30.7181   25.7694 H   0  0  0  0  0  0
  -24.8908  -32.3007   26.4737 H   0  0  0  0  0  0
  -25.7931  -30.8999   27.0210 H   0  0  0  0  0  0
  -26.3076  -29.6672   24.1313 H   0  0  0  0  0  0
  -27.4003  -29.7293   25.4936 H   0  0  0  0  0  0
  -27.8980  -30.4226   23.9701 H   0  0  0  0  0  0
  -27.2613  -33.3674   26.2023 H   0  0  0  0  0  0
  -28.3885  -32.6897   25.0368 H   0  0  0  0  0  0
  -28.0664  -31.8529   26.5482 H   0  0  0  0  0  0
  -28.2573  -38.0089   24.7529 H   0  0  0  0  0  0
  -28.1090  -36.2622   24.6262 H   0  0  0  0  0  0
  -27.2296  -37.1382   25.8867 H   0  0  0  0  0  0
  -20.9479  -29.8723   21.6781 H   0  0  0  0  0  0
  -26.0137  -38.2800   24.1429 H   0  0  0  0  0  0
  -27.5070  -19.9579   20.0252 H   0  0  0  0  0  0
  -32.4732  -19.5723   19.6937 H   0  0  0  0  0  0
  -32.1342  -18.8124   21.2607 H   0  0  0  0  0  0
  -32.6005  -20.5179   21.1892 H   0  0  0  0  0  0
  -28.7705  -23.4488   21.6904 H   0  0  0  0  0  0
  -27.3020  -22.9713   20.9786 H   0  0  0  0  0  0
  -30.8663  -17.6199   19.4022 H   0  0  0  0  0  0
  -29.2404  -17.4942   18.9424 H   0  0  0  0  0  0
  -27.6571  -24.4547   18.9966 H   0  0  0  0  0  0
  -29.3256  -24.5656   19.3304 H   0  0  0  0  0  0
  -28.8124  -16.0386   20.9078 H   0  0  0  0  0  0
  1 25  1  0  0  0
  1 30  2  0  0  0
  1 80  1  0  0  0
  2  3  1  0  0  0
  2 25  1  0  0  0
  2 81  1  0  0  0
  2 82  1  0  0  0
  3  4  1  0  0  0
  3 83  1  0  0  0
  3 84  1  0  0  0
  4  5  1  0  0  0
  4 85  1  0  0  0
  4 86  1  0  0  0
  5  6  1  0  0  0
  5 26  1  0  0  0
  5 87  1  0  0  0
  6 25  1  0  0  0
  6 88  1  0  0  0
  6 89  1  0  0  0
  7  8  2  0  0  0
  7 26  1  0  0  0
  7 29  1  0  0  0
  8  9  1  0  0  0
  8 22  1  0  0  0
  9 10  1  0  0  0
  9 27  2  0  0  0
 10 11  2  0  0  0
 10 15  1  0  0  0
 11 12  1  0  0  0
 11 90  1  0  0  0
 12 13  2  0  0  0
 12 91  1  0  0  0
 13 14  1  0  0  0
 13 31  1  0  0  0
 14 15  2  0  0  0
 14 92  1  0  0  0
 15 93  1  0  0  0
 16 17  2  0  0  0
 16 21  1  0  0  0
 16 31  1  0  0  0
 17 18  1  0  0  0
 17 94  1  0  0  0
 18 19  2  0  0  0
 18 95  1  0  0  0
 19 20  1  0  0  0
 19 24  1  0  0  0
 20 21  2  0  0  0
 20 96  1  0  0  0
 21 23  1  0  0  0
 22 28  1  0  0  0
 22 32  2  0  0  0
 26 27  1  0  0  0
 28 97  1  0  0  0
 28 98  1  0  0  0
 29 99  1  0  0  0
 29100  1  0  0  0
 33 34  1  0  0  0
 33 66  1  0  0  0
 33 70  2  0  0  0
 34 36  1  0  0  0
 34 59  1  0  0  0
 34101  1  0  0  0
 35 44  2  0  0  0
 35 45  1  0  0  0
 35 68  1  0  0  0
 36 56  1  0  0  0
 36102  1  0  0  0
 37 39  1  0  0  0
 37 47  1  0  0  0
 37 66  1  0  0  0
 37103  1  0  0  0
 38 43  2  0  0  0
 38 46  1  0  0  0
 38 47  1  0  0  0
 39 64  1  0  0  0
 39 67  2  0  0  0
 40 52  1  0  0  0
 40 53  2  0  0  0
 40 58  1  0  0  0
 41104  1  0  0  0
 41105  1  0  0  0
 41106  1  0  0  0
 41 48  1  0  0  0
 42 43  1  0  0  0
 42 66  1  0  0  0
 42107  1  0  0  0
 42108  1  0  0  0
 43 44  1  0  0  0
 44109  1  0  0  0
 45 46  2  0  0  0
 45110  1  0  0  0
 46111  1  0  0  0
 47112  1  0  0  0
 47113  1  0  0  0
 48 56  1  0  0  0
 48 65  1  0  0  0
 48114  1  0  0  0
 49 50  1  0  0  0
 49 53  1  0  0  0
 49 64  1  0  0  0
 49115  1  0  0  0
 50 51  1  0  0  0
 50116  1  0  0  0
 50117  1  0  0  0
 51 52  1  0  0  0
 51118  1  0  0  0
 51119  1  0  0  0
 52120  1  0  0  0
 52121  1  0  0  0
 53 54  1  0  0  0
 54 55  2  0  0  0
 54122  1  0  0  0
 55 57  1  0  0  0
 55123  1  0  0  0
 56 69  2  0  0  0
 57 58  2  0  0  0
 57124  1  0  0  0
 58125  1  0  0  0
 59 60  1  0  0  0
 59 61  1  0  0  0
 59 62  1  0  0  0
 60126  1  0  0  0
 60127  1  0  0  0
 60128  1  0  0  0
 61129  1  0  0  0
 61130  1  0  0  0
 61131  1  0  0  0
 62132  1  0  0  0
 62133  1  0  0  0
 62134  1  0  0  0
 63 65  1  0  0  0
 63135  1  0  0  0
 63136  1  0  0  0
 63137  1  0  0  0
 64138  1  0  0  0
 65139  1  0  0  0
 68 77  1  0  0  0
 71 72  1  0  0  0
 71 73  2  0  0  0
 71140  1  0  0  0
 72 75  1  0  0  0
 72 78  2  0  0  0
 73 76  1  0  0  0
 73 79  1  0  0  0
 74 79  1  0  0  0
 74141  1  0  0  0
 74142  1  0  0  0
 74143  1  0  0  0
 75 77  1  0  0  0
 75144  1  0  0  0
 75145  1  0  0  0
 76 80  1  0  0  0
 76146  1  0  0  0
 76147  1  0  0  0
 77148  1  0  0  0
 77149  1  0  0  0
 78 79  1  0  0  0
 80150  1  0  0  0
M  ISO  4   1 100  68 101  77 101  80 100
M  END
> <chiral flag>
0

> <version>
0

> <s_m_source_file>
/data/baiqing/PycharmProjects/Reinvent-master-3.2/result/LINK_invent/BTK/process_docking_weight1_custom_sum_contain_oxygen_bond_distance_aromatic_linkinvent_7_9_3/rearranged_h_0042.sdf

> <i_m_source_file_index>
17

> <r_mmod_Potential_Energy-OPLS-2005>
579.498413085938

> <r_mmod_Stretch_Energy-OPLS-2005>
317.043823242188

> <r_mmod_Bend_Energy-OPLS-2005>
347.939117431641

> <r_mmod_Torsional_Energy-OPLS-2005>
217.277862548828

> <r_mmod_Improper_Torsional_Energy-OPLS-2005>
8.65524864196777

> <r_mmod_Van_der_Waal_Energy-OPLS-2005>
109.363983154297

> <r_mmod_Electrostatic_Energy-OPLS-2005>
-423.656402587891

> <r_mmod_Solvation_Energy-OPLS-2005>
-235.314117431641

> <b_mmod_Minimization_Converged-OPLS-2005>
0

> <r_mmod_RMS_Derivative-OPLS-2005>
1.01132214069366

$$$$
18
                    3D
 Structure written by MMmdl.
164172  0  0  1  0            999 V2000
  -30.6728  -14.5010   20.5900 C   0  0  0  0  0  0
  -30.4301  -12.3297   19.4213 C   0  0  0  0  0  0
  -29.4973  -12.5112   18.2048 C   0  0  0  0  0  0
  -28.0174  -12.3559   18.6153 C   0  0  0  0  0  0
  -27.6566  -13.2041   19.8648 C   0  0  2  0  0  0
  -28.6951  -12.9847   20.9860 C   0  0  0  0  0  0
  -25.2562  -13.8165   20.5684 C   0  0  0  0  0  0
  -24.1822  -13.0449   20.9175 C   0  0  0  0  0  0
  -24.6367  -11.6917   20.8711 C   0  0  0  0  0  0
  -23.9044  -10.4300   21.0396 C   0  0  0  0  0  0
  -24.3607   -9.4215   21.9177 C   0  0  0  0  0  0
  -23.6286   -8.2248   22.0748 C   0  0  0  0  0  0
  -22.4274   -8.0275   21.3536 C   0  0  0  0  0  0
  -21.9900   -9.0253   20.4646 C   0  0  0  0  0  0
  -22.7216  -10.2133   20.3046 C   0  0  0  0  0  0
  -21.6850   -6.0738   22.5292 C   0  0  0  0  0  0
  -21.4010   -6.5637   23.8223 C   0  0  0  0  0  0
  -21.3658   -5.6784   24.9187 C   0  0  0  0  0  0
  -21.6044   -4.3048   24.7220 C   0  0  0  0  0  0
  -21.8815   -3.8145   23.4340 C   0  0  0  0  0  0
  -21.9185   -4.6969   22.3399 C   0  0  0  0  0  0
  -22.7841  -13.5250   21.1841 C   0  0  0  0  0  0
  -22.1666   -4.2161   21.0977 F   0  0  0  0  0  0
  -21.5630   -3.4524   25.7728 F   0  0  0  0  0  0
  -30.0245  -13.3124   20.4388 N   0  0  0  0  0  0
  -26.2980  -12.9329   20.3294 N   0  0  0  0  0  0
  -25.9282  -11.6496   20.5701 N   0  0  0  0  0  0
  -22.0482  -12.8247   22.0407 N   0  0  0  0  0  0
  -25.4332  -15.1888   20.4126 N   0  0  0  0  0  0
  -31.8074  -14.7094   20.1480 O   0  0  0  0  0  0
  -21.6637   -6.8877   21.4251 O   0  0  0  0  0  0
  -22.3524  -14.5552   20.6675 O   0  0  0  0  0  0
  -24.6168  -31.8665   23.2062 C   0  0  0  0  0  0
  -25.9038  -32.4816   23.8372 C   0  0  1  0  0  0
  -27.2377  -27.3894   20.1039 C   0  0  0  0  0  0
  -25.5883  -33.8615   24.2307 N   0  0  0  0  0  0
  -23.4068  -30.4888   21.5486 C   0  0  2  0  0  0
  -24.8558  -28.9512   20.1102 C   0  0  0  0  0  0
  -22.7426  -29.4645   22.4960 C   0  0  0  0  0  0
  -18.0273  -28.1383   22.8499 C   0  0  0  0  0  0
  -24.1490  -36.7316   23.2638 C   0  0  0  0  0  0
  -25.9396  -30.8181   21.3675 C   0  0  0  0  0  0
  -26.0162  -29.4489   20.7129 C   0  0  0  0  0  0
  -27.2037  -28.6749   20.7089 C   0  0  0  0  0  0
  -26.0575  -26.9306   19.4700 C   0  0  0  0  0  0
  -24.8739  -27.6934   19.4857 C   0  0  0  0  0  0
  -23.6192  -29.8228   20.1634 C   0  0  0  0  0  0
  -25.4110  -36.3113   24.0341 C   0  0  1  0  0  0
  -20.5864  -28.3686   23.1306 C   0  0  2  0  0  0
  -20.6765  -26.9411   22.5427 C   0  0  0  0  0  0
  -19.5745  -26.6382   21.5222 C   0  0  0  0  0  0
  -18.1923  -26.7930   22.1635 C   0  0  0  0  0  0
  -19.1522  -28.8847   23.2900 C   0  0  0  0  0  0
  -18.9454  -30.1452   23.8916 C   0  0  0  0  0  0
  -17.6456  -30.6586   24.0572 C   0  0  0  0  0  0
  -25.9036  -34.9478   23.5124 C   0  0  0  0  0  0
  -16.5346  -29.9100   23.6316 C   0  0  0  0  0  0
  -16.7263  -28.6515   23.0340 C   0  0  0  0  0  0
  -26.4453  -31.6598   25.0710 C   0  0  0  0  0  0
  -25.3723  -31.3730   26.1468 C   0  0  0  0  0  0
  -27.0265  -30.3031   24.6095 C   0  0  0  0  0  0
  -27.6019  -32.4331   25.7476 C   0  0  0  0  0  0
  -27.5580  -37.1813   24.8458 C   0  0  0  0  0  0
  -21.4150  -29.3044   22.3706 N   0  0  0  0  0  0
  -26.4296  -37.3796   23.9399 N   0  0  0  0  0  0
  -24.6723  -31.0736   22.0982 N   0  0  0  0  0  0
  -23.4181  -28.8179   23.3002 O   0  0  0  0  0  0
  -28.4097  -26.6397   20.1697 O   0  0  0  0  0  0
  -26.5605  -34.8937   22.4687 O   0  0  0  0  0  0
  -23.5353  -32.1423   23.7427 O   0  0  0  0  0  0
  -29.4174  -21.7091   20.4782 C   0  0  0  0  0  0
  -29.9218  -20.5346   19.8404 C   0  0  0  0  0  0
  -30.7774  -20.7493   18.7124 C   0  0  0  0  0  0
  -29.7997  -23.0054   20.0394 C   0  0  0  0  0  0
  -31.1966  -22.0783   18.4326 C   0  0  0  0  0  0
  -32.2447  -22.4323   17.3906 C   0  0  0  0  0  0
  -30.7408  -19.7592   16.3329 C   0  0  0  0  0  0
  -29.4705  -19.1422   20.3976 C   0  0  0  0  0  0
  -31.2448  -19.6270   17.7790 C   0  0  0  0  0  0
  -29.3286  -24.3350   20.6704 C   0  0  0  0  0  0
  -30.4485  -17.9057   20.3953 C   0  0  0  0  0  0
  -30.3262  -16.8582   21.5493 C   0  0  0  0  0  0
  -28.4465  -25.2440   19.7548 C   0  0  0  0  0  0
  -30.7120  -23.1586   19.0684 N   0  0  0  0  0  0
  -29.9366  -15.4841   21.1539 N   0  0  0  0  0  0
  -30.3533  -11.3182   19.8253 H   0  0  0  0  0  0
  -31.4713  -12.4530   19.1178 H   0  0  0  0  0  0
  -29.7497  -11.7955   17.4194 H   0  0  0  0  0  0
  -29.6517  -13.5021   17.7759 H   0  0  0  0  0  0
  -27.8351  -11.3004   18.8223 H   0  0  0  0  0  0
  -27.3670  -12.6165   17.7785 H   0  0  0  0  0  0
  -27.7006  -14.2504   19.5599 H   0  0  0  0  0  0
  -28.6774  -11.9432   21.3115 H   0  0  0  0  0  0
  -28.4363  -13.5663   21.8717 H   0  0  0  0  0  0
  -25.2760   -9.5707   22.4731 H   0  0  0  0  0  0
  -24.0007   -7.4644   22.7459 H   0  0  0  0  0  0
  -21.0826   -8.8766   19.8949 H   0  0  0  0  0  0
  -22.3684  -10.9666   19.6133 H   0  0  0  0  0  0
  -21.2016   -7.6149   23.9745 H   0  0  0  0  0  0
  -21.1486   -6.0506   25.9092 H   0  0  0  0  0  0
  -22.0595   -2.7609   23.2829 H   0  0  0  0  0  0
  -22.4058  -11.9894   22.4803 H   0  0  0  0  0  0
  -21.1109  -13.1303   22.2606 H   0  0  0  0  0  0
  -24.6701  -15.8479   20.5234 H   0  0  0  0  0  0
  -26.2874  -15.6271   20.0927 H   0  0  0  0  0  0
  -26.7100  -32.5534   23.1127 H   0  0  0  0  0  0
  -25.0019  -33.9774   25.0442 H   0  0  0  0  0  0
  -22.6971  -31.3067   21.4084 H   0  0  0  0  0  0
  -23.3752  -35.9647   23.3309 H   0  0  0  0  0  0
  -24.3579  -36.8918   22.2047 H   0  0  0  0  0  0
  -23.7246  -37.6526   23.6649 H   0  0  0  0  0  0
  -26.0585  -31.5839   20.5997 H   0  0  0  0  0  0
  -26.8239  -30.8699   21.9902 H   0  0  0  0  0  0
  -28.0945  -29.0524   21.1905 H   0  0  0  0  0  0
  -26.0155  -25.9845   18.9537 H   0  0  0  0  0  0
  -23.9831  -27.3082   19.0087 H   0  0  0  0  0  0
  -23.7354  -30.5998   19.4075 H   0  0  0  0  0  0
  -22.7408  -29.2503   19.8616 H   0  0  0  0  0  0
  -25.1293  -36.1978   25.0840 H   0  0  0  0  0  0
  -20.9959  -28.3250   24.1425 H   0  0  0  0  0  0
  -20.5672  -26.2287   23.3619 H   0  0  0  0  0  0
  -21.6638  -26.7454   22.1218 H   0  0  0  0  0  0
  -19.6906  -25.6293   21.1247 H   0  0  0  0  0  0
  -19.6678  -27.3199   20.6756 H   0  0  0  0  0  0
  -17.4192  -26.6671   21.4034 H   0  0  0  0  0  0
  -18.0327  -26.0075   22.9037 H   0  0  0  0  0  0
  -19.7931  -30.7256   24.2294 H   0  0  0  0  0  0
  -17.5017  -31.6270   24.5176 H   0  0  0  0  0  0
  -15.5351  -30.3014   23.7623 H   0  0  0  0  0  0
  -15.8665  -28.0843   22.7037 H   0  0  0  0  0  0
  -24.5872  -30.7100   25.7808 H   0  0  0  0  0  0
  -24.8953  -32.2904   26.4938 H   0  0  0  0  0  0
  -25.8081  -30.8879   27.0209 H   0  0  0  0  0  0
  -26.2806  -29.6827   24.1113 H   0  0  0  0  0  0
  -27.3967  -29.7248   25.4563 H   0  0  0  0  0  0
  -27.8676  -30.4331   23.9282 H   0  0  0  0  0  0
  -27.2611  -33.3614   26.2079 H   0  0  0  0  0  0
  -28.3807  -32.6922   25.0290 H   0  0  0  0  0  0
  -28.0707  -31.8451   26.5375 H   0  0  0  0  0  0
  -28.2608  -38.0105   24.7506 H   0  0  0  0  0  0
  -28.1079  -36.2636   24.6297 H   0  0  0  0  0  0
  -27.2301  -37.1472   25.8866 H   0  0  0  0  0  0
  -20.9299  -29.8785   21.6949 H   0  0  0  0  0  0
  -26.0193  -38.2874   24.1408 H   0  0  0  0  0  0
  -28.7284  -21.6194   21.3078 H   0  0  0  0  0  0
  -32.9600  -21.6273   17.2304 H   0  0  0  0  0  0
  -32.8197  -23.3052   17.7060 H   0  0  0  0  0  0
  -31.7697  -22.6782   16.4408 H   0  0  0  0  0  0
  -29.6529  -19.8133   16.3003 H   0  0  0  0  0  0
  -31.0337  -18.8852   15.7500 H   0  0  0  0  0  0
  -31.1368  -20.6248   15.8064 H   0  0  0  0  0  0
  -28.5468  -18.8607   19.8923 H   0  0  0  0  0  0
  -29.1782  -19.3188   21.4330 H   0  0  0  0  0  0
  -30.8734  -18.6663   18.0788 H   0  0  0  0  0  0
  -32.3320  -19.5455   17.8190 H   0  0  0  0  0  0
  -30.2239  -24.8888   20.9538 H   0  0  0  0  0  0
  -28.7987  -24.1360   21.6021 H   0  0  0  0  0  0
  -31.4690  -18.2911   20.4226 H   0  0  0  0  0  0
  -30.3511  -17.3426   19.4718 H   0  0  0  0  0  0
  -29.6177  -17.2074   22.3016 H   0  0  0  0  0  0
  -31.2829  -16.7892   22.0691 H   0  0  0  0  0  0
  -27.4724  -24.7633   19.7153 H   0  0  0  0  0  0
  -28.8462  -25.2354   18.7403 H   0  0  0  0  0  0
  -29.0030  -15.2045   21.4176 H   0  0  0  0  0  0
  1 25  1  0  0  0
  1 30  2  0  0  0
  1 85  1  0  0  0
  2  3  1  0  0  0
  2 25  1  0  0  0
  2 86  1  0  0  0
  2 87  1  0  0  0
  3  4  1  0  0  0
  3 88  1  0  0  0
  3 89  1  0  0  0
  4  5  1  0  0  0
  4 90  1  0  0  0
  4 91  1  0  0  0
  5  6  1  0  0  0
  5 26  1  0  0  0
  5 92  1  0  0  0
  6 25  1  0  0  0
  6 93  1  0  0  0
  6 94  1  0  0  0
  7  8  2  0  0  0
  7 26  1  0  0  0
  7 29  1  0  0  0
  8  9  1  0  0  0
  8 22  1  0  0  0
  9 10  1  0  0  0
  9 27  2  0  0  0
 10 11  2  0  0  0
 10 15  1  0  0  0
 11 12  1  0  0  0
 11 95  1  0  0  0
 12 13  2  0  0  0
 12 96  1  0  0  0
 13 14  1  0  0  0
 13 31  1  0  0  0
 14 15  2  0  0  0
 14 97  1  0  0  0
 15 98  1  0  0  0
 16 17  2  0  0  0
 16 21  1  0  0  0
 16 31  1  0  0  0
 17 18  1  0  0  0
 17 99  1  0  0  0
 18 19  2  0  0  0
 18100  1  0  0  0
 19 20  1  0  0  0
 19 24  1  0  0  0
 20 21  2  0  0  0
 20101  1  0  0  0
 21 23  1  0  0  0
 22 28  1  0  0  0
 22 32  2  0  0  0
 26 27  1  0  0  0
 28102  1  0  0  0
 28103  1  0  0  0
 29104  1  0  0  0
 29105  1  0  0  0
 33 34  1  0  0  0
 33 66  1  0  0  0
 33 70  2  0  0  0
 34 36  1  0  0  0
 34 59  1  0  0  0
 34106  1  0  0  0
 35 44  2  0  0  0
 35 45  1  0  0  0
 35 68  1  0  0  0
 36 56  1  0  0  0
 36107  1  0  0  0
 37 39  1  0  0  0
 37 47  1  0  0  0
 37 66  1  0  0  0
 37108  1  0  0  0
 38 43  2  0  0  0
 38 46  1  0  0  0
 38 47  1  0  0  0
 39 64  1  0  0  0
 39 67  2  0  0  0
 40 52  1  0  0  0
 40 53  2  0  0  0
 40 58  1  0  0  0
 41109  1  0  0  0
 41110  1  0  0  0
 41111  1  0  0  0
 41 48  1  0  0  0
 42 43  1  0  0  0
 42 66  1  0  0  0
 42112  1  0  0  0
 42113  1  0  0  0
 43 44  1  0  0  0
 44114  1  0  0  0
 45 46  2  0  0  0
 45115  1  0  0  0
 46116  1  0  0  0
 47117  1  0  0  0
 47118  1  0  0  0
 48 56  1  0  0  0
 48 65  1  0  0  0
 48119  1  0  0  0
 49 50  1  0  0  0
 49 53  1  0  0  0
 49 64  1  0  0  0
 49120  1  0  0  0
 50 51  1  0  0  0
 50121  1  0  0  0
 50122  1  0  0  0
 51 52  1  0  0  0
 51123  1  0  0  0
 51124  1  0  0  0
 52125  1  0  0  0
 52126  1  0  0  0
 53 54  1  0  0  0
 54 55  2  0  0  0
 54127  1  0  0  0
 55 57  1  0  0  0
 55128  1  0  0  0
 56 69  2  0  0  0
 57 58  2  0  0  0
 57129  1  0  0  0
 58130  1  0  0  0
 59 60  1  0  0  0
 59 61  1  0  0  0
 59 62  1  0  0  0
 60131  1  0  0  0
 60132  1  0  0  0
 60133  1  0  0  0
 61134  1  0  0  0
 61135  1  0  0  0
 61136  1  0  0  0
 62137  1  0  0  0
 62138  1  0  0  0
 62139  1  0  0  0
 63 65  1  0  0  0
 63140  1  0  0  0
 63141  1  0  0  0
 63142  1  0  0  0
 64143  1  0  0  0
 65144  1  0  0  0
 68 83  1  0  0  0
 71 72  2  0  0  0
 71 74  1  0  0  0
 71145  1  0  0  0
 72 73  1  0  0  0
 72 78  1  0  0  0
 73 75  2  0  0  0
 73 79  1  0  0  0
 74 80  1  0  0  0
 74 84  2  0  0  0
 75 76  1  0  0  0
 75 84  1  0  0  0
 76146  1  0  0  0
 76147  1  0  0  0
 76148  1  0  0  0
 77 79  1  0  0  0
 77149  1  0  0  0
 77150  1  0  0  0
 77151  1  0  0  0
 78 81  1  0  0  0
 78152  1  0  0  0
 78153  1  0  0  0
 79154  1  0  0  0
 79155  1  0  0  0
 80 83  1  0  0  0
 80156  1  0  0  0
 80157  1  0  0  0
 81 82  1  0  0  0
 81158  1  0  0  0
 81159  1  0  0  0
 82 85  1  0  0  0
 82160  1  0  0  0
 82161  1  0  0  0
 83162  1  0  0  0
 83163  1  0  0  0
 85164  1  0  0  0
M  ISO  4   1 100  68 101  83 101  85 100
M  END
> <chiral flag>
0

> <version>
0

> <s_m_source_file>
/data/baiqing/PycharmProjects/Reinvent-master-3.2/result/LINK_invent/BTK/process_docking_weight1_custom_sum_contain_oxygen_bond_distance_aromatic_linkinvent_7_9_3/rearranged_h_0042.sdf

> <i_m_source_file_index>
18

> <r_mmod_Potential_Energy-OPLS-2005>
-153.627197265625

> <r_mmod_Stretch_Energy-OPLS-2005>
54.9137649536133

> <r_mmod_Bend_Energy-OPLS-2005>
136.084335327148

> <r_mmod_Torsional_Energy-OPLS-2005>
211.235015869141

> <r_mmod_Improper_Torsional_Energy-OPLS-2005>
3.04293513298035

> <r_mmod_Van_der_Waal_Energy-OPLS-2005>
165.91374206543

> <r_mmod_Electrostatic_Energy-OPLS-2005>
-520.664794921875

> <r_mmod_Solvation_Energy-OPLS-2005>
-223.720031738281

> <b_mmod_Minimization_Converged-OPLS-2005>
0

> <r_mmod_RMS_Derivative-OPLS-2005>
2.89097857475281

$$$$
19
                    3D
 Structure written by MMmdl.
155163  0  0  1  0            999 V2000
  -30.6604  -14.6048   20.5052 C   0  0  0  0  0  0
  -30.4242  -12.3694   19.4556 C   0  0  0  0  0  0
  -29.5029  -12.4987   18.2230 C   0  0  0  0  0  0
  -28.0238  -12.3475   18.6298 C   0  0  0  0  0  0
  -27.6512  -13.2177   19.8611 C   0  0  2  0  0  0
  -28.6944  -13.0808   20.9934 C   0  0  0  0  0  0
  -25.2551  -13.8166   20.5658 C   0  0  0  0  0  0
  -24.1824  -13.0431   20.9176 C   0  0  0  0  0  0
  -24.6385  -11.6900   20.8737 C   0  0  0  0  0  0
  -23.9058  -10.4287   21.0394 C   0  0  0  0  0  0
  -24.3614   -9.4201   21.9163 C   0  0  0  0  0  0
  -23.6298   -8.2239   22.0734 C   0  0  0  0  0  0
  -22.4277   -8.0276   21.3535 C   0  0  0  0  0  0
  -21.9911   -9.0235   20.4624 C   0  0  0  0  0  0
  -22.7233  -10.2124   20.3031 C   0  0  0  0  0  0
  -21.6860   -6.0736   22.5272 C   0  0  0  0  0  0
  -21.4014   -6.5643   23.8205 C   0  0  0  0  0  0
  -21.3656   -5.6794   24.9166 C   0  0  0  0  0  0
  -21.6046   -4.3056   24.7218 C   0  0  0  0  0  0
  -21.8820   -3.8147   23.4339 C   0  0  0  0  0  0
  -21.9198   -4.6964   22.3395 C   0  0  0  0  0  0
  -22.7856  -13.5222   21.1847 C   0  0  0  0  0  0
  -22.1670   -4.2148   21.0973 F   0  0  0  0  0  0
  -21.5625   -3.4535   25.7735 F   0  0  0  0  0  0
  -30.0122  -13.4013   20.4283 N   0  0  0  0  0  0
  -26.2971  -12.9341   20.3298 N   0  0  0  0  0  0
  -25.9312  -11.6490   20.5748 N   0  0  0  0  0  0
  -22.0516  -12.8196   22.0405 N   0  0  0  0  0  0
  -25.4280  -15.1874   20.4014 N   0  0  0  0  0  0
  -31.8223  -14.7371   20.1138 O   0  0  0  0  0  0
  -21.6642   -6.8873   21.4230 O   0  0  0  0  0  0
  -22.3528  -14.5523   20.6704 O   0  0  0  0  0  0
  -24.6247  -31.8594   23.1978 C   0  0  0  0  0  0
  -25.9095  -32.4777   23.8318 C   0  0  1  0  0  0
  -27.2379  -27.3493   20.1169 C   0  0  0  0  0  0
  -25.5921  -33.8581   24.2264 N   0  0  0  0  0  0
  -23.4179  -30.4809   21.5385 C   0  0  2  0  0  0
  -24.8645  -28.9307   20.1109 C   0  0  0  0  0  0
  -22.7477  -29.4637   22.4924 C   0  0  0  0  0  0
  -18.0295  -28.1408   22.8498 C   0  0  0  0  0  0
  -24.1488  -36.7299   23.2641 C   0  0  0  0  0  0
  -25.9541  -30.8035   21.3591 C   0  0  0  0  0  0
  -26.0303  -29.4278   20.7099 C   0  0  0  0  0  0
  -27.2209  -28.6505   20.6962 C   0  0  0  0  0  0
  -26.0526  -26.8872   19.5043 C   0  0  0  0  0  0
  -24.8751  -27.6649   19.4972 C   0  0  0  0  0  0
  -23.6302  -29.8068   20.1563 C   0  0  0  0  0  0
  -25.4117  -36.3094   24.0330 C   0  0  1  0  0  0
  -20.5895  -28.3696   23.1309 C   0  0  2  0  0  0
  -20.6783  -26.9417   22.5430 C   0  0  0  0  0  0
  -19.5759  -26.6394   21.5236 C   0  0  0  0  0  0
  -18.1939  -26.7948   22.1635 C   0  0  0  0  0  0
  -19.1547  -28.8867   23.2889 C   0  0  0  0  0  0
  -18.9461  -30.1478   23.8895 C   0  0  0  0  0  0
  -17.6459  -30.6594   24.0581 C   0  0  0  0  0  0
  -25.9050  -34.9465   23.5102 C   0  0  0  0  0  0
  -16.5355  -29.9102   23.6337 C   0  0  0  0  0  0
  -16.7280  -28.6525   23.0341 C   0  0  0  0  0  0
  -26.4475  -31.6584   25.0694 C   0  0  0  0  0  0
  -25.3719  -31.3730   26.1425 C   0  0  0  0  0  0
  -27.0279  -30.3017   24.6093 C   0  0  0  0  0  0
  -27.6056  -32.4285   25.7464 C   0  0  0  0  0  0
  -27.5573  -37.1813   24.8469 C   0  0  0  0  0  0
  -21.4188  -29.3043   22.3693 N   0  0  0  0  0  0
  -26.4285  -37.3799   23.9417 N   0  0  0  0  0  0
  -24.6842  -31.0645   22.0894 N   0  0  0  0  0  0
  -23.4219  -28.8187   23.2984 O   0  0  0  0  0  0
  -28.3863  -26.5551   20.1129 O   0  0  0  0  0  0
  -26.5605  -34.8934   22.4664 O   0  0  0  0  0  0
  -23.5418  -32.1343   23.7339 O   0  0  0  0  0  0
  -30.3681  -21.9358   20.2746 C   0  0  0  0  0  0
  -28.0896  -20.4836   20.5435 C   0  0  0  0  0  0
  -30.4846  -20.5389   20.5381 C   0  0  0  0  0  0
  -29.3031  -19.7524   20.6708 C   0  0  0  0  0  0
  -29.1050  -22.5682   20.1441 C   0  0  0  0  0  0
  -31.8716  -19.9349   20.6599 C   0  0  0  0  0  0
  -29.2083  -18.2148   21.0172 C   0  0  0  0  0  0
  -28.9601  -24.0559   19.6547 C   0  0  0  0  0  0
  -30.3036  -17.1388   20.6123 C   0  0  0  0  0  0
  -28.2949  -25.1561   20.5747 C   0  0  0  0  0  0
  -27.9848  -21.8182   20.2804 N   0  0  0  0  0  0
  -29.9132  -15.7026   20.8238 N   0  0  0  0  0  0
  -31.4680  -12.4707   19.1566 H   0  0  0  0  0  0
  -30.3357  -11.3770   19.8994 H   0  0  0  0  0  0
  -29.7633  -11.7484   17.4742 H   0  0  0  0  0  0
  -29.6535  -13.4686   17.7477 H   0  0  0  0  0  0
  -27.8463  -11.2946   18.8501 H   0  0  0  0  0  0
  -27.3745  -12.5903   17.7875 H   0  0  0  0  0  0
  -27.6701  -14.2529   19.5191 H   0  0  0  0  0  0
  -28.6944  -12.0652   21.3930 H   0  0  0  0  0  0
  -28.4457  -13.7335   21.8320 H   0  0  0  0  0  0
  -25.2768   -9.5687   22.4719 H   0  0  0  0  0  0
  -24.0024   -7.4625   22.7439 H   0  0  0  0  0  0
  -21.0852   -8.8723   19.8923 H   0  0  0  0  0  0
  -22.3674  -10.9643   19.6125 H   0  0  0  0  0  0
  -21.2002   -7.6150   23.9703 H   0  0  0  0  0  0
  -21.1481   -6.0527   25.9073 H   0  0  0  0  0  0
  -22.0608   -2.7604   23.2832 H   0  0  0  0  0  0
  -22.4205  -11.9884   22.4788 H   0  0  0  0  0  0
  -21.1104  -13.1133   22.2582 H   0  0  0  0  0  0
  -24.6518  -15.8373   20.4743 H   0  0  0  0  0  0
  -26.2639  -15.6113   20.0206 H   0  0  0  0  0  0
  -26.7180  -32.5442   23.1087 H   0  0  0  0  0  0
  -25.0105  -33.9713   25.0426 H   0  0  0  0  0  0
  -22.7120  -31.3011   21.3942 H   0  0  0  0  0  0
  -23.3743  -35.9650   23.3342 H   0  0  0  0  0  0
  -24.3568  -36.8855   22.2043 H   0  0  0  0  0  0
  -23.7238  -37.6517   23.6621 H   0  0  0  0  0  0
  -26.0735  -31.5605   20.5841 H   0  0  0  0  0  0
  -26.8416  -30.8603   21.9775 H   0  0  0  0  0  0
  -28.1217  -29.0365   21.1537 H   0  0  0  0  0  0
  -26.0346  -25.9189   19.0244 H   0  0  0  0  0  0
  -23.9848  -27.2833   19.0170 H   0  0  0  0  0  0
  -23.7401  -30.5773   19.3921 H   0  0  0  0  0  0
  -22.7533  -29.2268   19.8608 H   0  0  0  0  0  0
  -25.1305  -36.1952   25.0819 H   0  0  0  0  0  0
  -20.9999  -28.3250   24.1421 H   0  0  0  0  0  0
  -20.5716  -26.2292   23.3615 H   0  0  0  0  0  0
  -21.6644  -26.7449   22.1201 H   0  0  0  0  0  0
  -19.6902  -25.6307   21.1244 H   0  0  0  0  0  0
  -19.6702  -27.3224   20.6780 H   0  0  0  0  0  0
  -17.4215  -26.6722   21.4023 H   0  0  0  0  0  0
  -18.0303  -26.0103   22.9029 H   0  0  0  0  0  0
  -19.7934  -30.7322   24.2242 H   0  0  0  0  0  0
  -17.5002  -31.6264   24.5193 H   0  0  0  0  0  0
  -15.5353  -30.3003   23.7653 H   0  0  0  0  0  0
  -15.8678  -28.0855   22.7033 H   0  0  0  0  0  0
  -24.5919  -30.7037   25.7772 H   0  0  0  0  0  0
  -24.8885  -32.2899   26.4803 H   0  0  0  0  0  0
  -25.8053  -30.8949   27.0219 H   0  0  0  0  0  0
  -26.2803  -29.6825   24.1119 H   0  0  0  0  0  0
  -27.3992  -29.7217   25.4549 H   0  0  0  0  0  0
  -27.8684  -30.4323   23.9281 H   0  0  0  0  0  0
  -27.2686  -33.3605   26.2014 H   0  0  0  0  0  0
  -28.3886  -32.6780   25.0294 H   0  0  0  0  0  0
  -28.0699  -31.8405   26.5386 H   0  0  0  0  0  0
  -28.2624  -38.0079   24.7493 H   0  0  0  0  0  0
  -28.1024  -36.2611   24.6322 H   0  0  0  0  0  0
  -27.2286  -37.1480   25.8869 H   0  0  0  0  0  0
  -20.9363  -29.8734   21.6888 H   0  0  0  0  0  0
  -26.0168  -38.2885   24.1397 H   0  0  0  0  0  0
  -31.2639  -22.5260   20.1399 H   0  0  0  0  0  0
  -27.1455  -19.9714   20.6572 H   0  0  0  0  0  0
  -32.6457  -20.7014   20.6144 H   0  0  0  0  0  0
  -32.0617  -19.2362   19.8444 H   0  0  0  0  0  0
  -31.9864  -19.4143   21.6108 H   0  0  0  0  0  0
  -28.2684  -17.8727   20.5824 H   0  0  0  0  0  0
  -29.0540  -18.1514   22.0953 H   0  0  0  0  0  0
  -28.4149  -24.0317   18.7109 H   0  0  0  0  0  0
  -29.9612  -24.4044   19.3947 H   0  0  0  0  0  0
  -31.2237  -17.3084   21.1716 H   0  0  0  0  0  0
  -30.5555  -17.2592   19.5580 H   0  0  0  0  0  0
  -28.8029  -25.1312   21.5385 H   0  0  0  0  0  0
  -27.2648  -24.8735   20.7906 H   0  0  0  0  0  0
  -28.9671  -15.5225   21.1240 H   0  0  0  0  0  0
  1 25  1  0  0  0
  1 30  2  0  0  0
  1 82  1  0  0  0
  2  3  1  0  0  0
  2 25  1  0  0  0
  2 83  1  0  0  0
  2 84  1  0  0  0
  3  4  1  0  0  0
  3 85  1  0  0  0
  3 86  1  0  0  0
  4  5  1  0  0  0
  4 87  1  0  0  0
  4 88  1  0  0  0
  5  6  1  0  0  0
  5 26  1  0  0  0
  5 89  1  0  0  0
  6 25  1  0  0  0
  6 90  1  0  0  0
  6 91  1  0  0  0
  7  8  2  0  0  0
  7 26  1  0  0  0
  7 29  1  0  0  0
  8  9  1  0  0  0
  8 22  1  0  0  0
  9 10  1  0  0  0
  9 27  2  0  0  0
 10 11  2  0  0  0
 10 15  1  0  0  0
 11 12  1  0  0  0
 11 92  1  0  0  0
 12 13  2  0  0  0
 12 93  1  0  0  0
 13 14  1  0  0  0
 13 31  1  0  0  0
 14 15  2  0  0  0
 14 94  1  0  0  0
 15 95  1  0  0  0
 16 17  2  0  0  0
 16 21  1  0  0  0
 16 31  1  0  0  0
 17 18  1  0  0  0
 17 96  1  0  0  0
 18 19  2  0  0  0
 18 97  1  0  0  0
 19 20  1  0  0  0
 19 24  1  0  0  0
 20 21  2  0  0  0
 20 98  1  0  0  0
 21 23  1  0  0  0
 22 28  1  0  0  0
 22 32  2  0  0  0
 26 27  1  0  0  0
 28 99  1  0  0  0
 28100  1  0  0  0
 29101  1  0  0  0
 29102  1  0  0  0
 33 34  1  0  0  0
 33 66  1  0  0  0
 33 70  2  0  0  0
 34 36  1  0  0  0
 34 59  1  0  0  0
 34103  1  0  0  0
 35 44  2  0  0  0
 35 45  1  0  0  0
 35 68  1  0  0  0
 36 56  1  0  0  0
 36104  1  0  0  0
 37 39  1  0  0  0
 37 47  1  0  0  0
 37 66  1  0  0  0
 37105  1  0  0  0
 38 43  2  0  0  0
 38 46  1  0  0  0
 38 47  1  0  0  0
 39 64  1  0  0  0
 39 67  2  0  0  0
 40 52  1  0  0  0
 40 53  2  0  0  0
 40 58  1  0  0  0
 41106  1  0  0  0
 41107  1  0  0  0
 41108  1  0  0  0
 41 48  1  0  0  0
 42 43  1  0  0  0
 42 66  1  0  0  0
 42109  1  0  0  0
 42110  1  0  0  0
 43 44  1  0  0  0
 44111  1  0  0  0
 45 46  2  0  0  0
 45112  1  0  0  0
 46113  1  0  0  0
 47114  1  0  0  0
 47115  1  0  0  0
 48 56  1  0  0  0
 48 65  1  0  0  0
 48116  1  0  0  0
 49 50  1  0  0  0
 49 53  1  0  0  0
 49 64  1  0  0  0
 49117  1  0  0  0
 50 51  1  0  0  0
 50118  1  0  0  0
 50119  1  0  0  0
 51 52  1  0  0  0
 51120  1  0  0  0
 51121  1  0  0  0
 52122  1  0  0  0
 52123  1  0  0  0
 53 54  1  0  0  0
 54 55  2  0  0  0
 54124  1  0  0  0
 55 57  1  0  0  0
 55125  1  0  0  0
 56 69  2  0  0  0
 57 58  2  0  0  0
 57126  1  0  0  0
 58127  1  0  0  0
 59 60  1  0  0  0
 59 61  1  0  0  0
 59 62  1  0  0  0
 60128  1  0  0  0
 60129  1  0  0  0
 60130  1  0  0  0
 61131  1  0  0  0
 61132  1  0  0  0
 61133  1  0  0  0
 62134  1  0  0  0
 62135  1  0  0  0
 62136  1  0  0  0
 63 65  1  0  0  0
 63137  1  0  0  0
 63138  1  0  0  0
 63139  1  0  0  0
 64140  1  0  0  0
 65141  1  0  0  0
 68 80  1  0  0  0
 71 73  2  0  0  0
 71 75  1  0  0  0
 71142  1  0  0  0
 72 74  2  0  0  0
 72 81  1  0  0  0
 72143  1  0  0  0
 73 74  1  0  0  0
 73 76  1  0  0  0
 74 77  1  0  0  0
 75 78  1  0  0  0
 75 81  2  0  0  0
 76144  1  0  0  0
 76145  1  0  0  0
 76146  1  0  0  0
 77 79  1  0  0  0
 77147  1  0  0  0
 77148  1  0  0  0
 78 80  1  0  0  0
 78149  1  0  0  0
 78150  1  0  0  0
 79 82  1  0  0  0
 79151  1  0  0  0
 79152  1  0  0  0
 80153  1  0  0  0
 80154  1  0  0  0
 82155  1  0  0  0
M  ISO  4   1 100  68 101  80 101  82 100
M  END
> <chiral flag>
0

> <version>
0

> <s_m_source_file>
/data/baiqing/PycharmProjects/Reinvent-master-3.2/result/LINK_invent/BTK/process_docking_weight1_custom_sum_contain_oxygen_bond_distance_aromatic_linkinvent_7_9_3/rearranged_h_0042.sdf

> <i_m_source_file_index>
19

> <r_mmod_Potential_Energy-OPLS-2005>
-153.511215209961

> <r_mmod_Stretch_Energy-OPLS-2005>
71.6320343017578

> <r_mmod_Bend_Energy-OPLS-2005>
134.396438598633

> <r_mmod_Torsional_Energy-OPLS-2005>
208.972595214844

> <r_mmod_Improper_Torsional_Energy-OPLS-2005>
6.04438638687134

> <r_mmod_Van_der_Waal_Energy-OPLS-2005>
141.450546264648

> <r_mmod_Electrostatic_Energy-OPLS-2005>
-526.492553710938

> <r_mmod_Solvation_Energy-OPLS-2005>
-225.149642944336

> <b_mmod_Minimization_Converged-OPLS-2005>
0

> <r_mmod_RMS_Derivative-OPLS-2005>
3.02212047576904

$$$$
20
                    3D
 Structure written by MMmdl.
175183  0  0  1  0            999 V2000
  -30.7942  -14.3430   20.7213 C   0  0  0  0  0  0
  -30.4124  -12.2997   19.3841 C   0  0  0  0  0  0
  -29.4777  -12.5458   18.1870 C   0  0  0  0  0  0
  -28.0021  -12.4013   18.6037 C   0  0  0  0  0  0
  -27.6684  -13.2074   19.8851 C   0  0  2  0  0  0
  -28.7097  -12.9316   20.9909 C   0  0  0  0  0  0
  -25.2623  -13.8172   20.5689 C   0  0  0  0  0  0
  -24.1860  -13.0444   20.9155 C   0  0  0  0  0  0
  -24.6416  -11.6917   20.8731 C   0  0  0  0  0  0
  -23.9080  -10.4301   21.0389 C   0  0  0  0  0  0
  -24.3626   -9.4222   21.9170 C   0  0  0  0  0  0
  -23.6291   -8.2263   22.0751 C   0  0  0  0  0  0
  -22.4272   -8.0297   21.3544 C   0  0  0  0  0  0
  -21.9920   -9.0270   20.4645 C   0  0  0  0  0  0
  -22.7253  -10.2144   20.3046 C   0  0  0  0  0  0
  -21.6858   -6.0744   22.5283 C   0  0  0  0  0  0
  -21.4018   -6.5644   23.8218 C   0  0  0  0  0  0
  -21.3658   -5.6791   24.9174 C   0  0  0  0  0  0
  -21.6040   -4.3055   24.7226 C   0  0  0  0  0  0
  -21.8817   -3.8155   23.4347 C   0  0  0  0  0  0
  -21.9196   -4.6972   22.3406 C   0  0  0  0  0  0
  -22.7878  -13.5247   21.1809 C   0  0  0  0  0  0
  -22.1659   -4.2159   21.0982 F   0  0  0  0  0  0
  -21.5632   -3.4539   25.7739 F   0  0  0  0  0  0
  -30.0484  -13.2362   20.4578 N   0  0  0  0  0  0
  -26.3076  -12.9345   20.3435 N   0  0  0  0  0  0
  -25.9349  -11.6501   20.5790 N   0  0  0  0  0  0
  -22.0516  -12.8250   22.0370 N   0  0  0  0  0  0
  -25.4327  -15.1885   20.4142 N   0  0  0  0  0  0
  -31.7836  -14.6285   20.0346 O   0  0  0  0  0  0
  -21.6643   -6.8884   21.4238 O   0  0  0  0  0  0
  -22.3567  -14.5548   20.6654 O   0  0  0  0  0  0
  -24.6116  -31.8734   23.2162 C   0  0  0  0  0  0
  -25.9023  -32.4852   23.8445 C   0  0  1  0  0  0
  -27.2315  -27.4776   20.0590 C   0  0  0  0  0  0
  -25.5902  -33.8659   24.2371 N   0  0  0  0  0  0
  -23.3960  -30.4982   21.5594 C   0  0  2  0  0  0
  -24.8380  -28.9723   20.1196 C   0  0  0  0  0  0
  -22.7380  -29.4695   22.5053 C   0  0  0  0  0  0
  -18.0250  -28.1365   22.8501 C   0  0  0  0  0  0
  -24.1485  -36.7330   23.2639 C   0  0  0  0  0  0
  -25.9242  -30.8417   21.3690 C   0  0  0  0  0  0
  -25.9968  -29.4774   20.7216 C   0  0  0  0  0  0
  -27.1939  -28.7285   20.7083 C   0  0  0  0  0  0
  -26.0496  -26.9728   19.4731 C   0  0  0  0  0  0
  -24.8535  -27.7117   19.5037 C   0  0  0  0  0  0
  -23.5990  -29.8343   20.1734 C   0  0  0  0  0  0
  -25.4104  -36.3133   24.0349 C   0  0  1  0  0  0
  -20.5839  -28.3659   23.1322 C   0  0  2  0  0  0
  -20.6740  -26.9397   22.5405 C   0  0  0  0  0  0
  -19.5722  -26.6385   21.5197 C   0  0  0  0  0  0
  -18.1900  -26.7913   22.1611 C   0  0  0  0  0  0
  -19.1505  -28.8826   23.2908 C   0  0  0  0  0  0
  -18.9434  -30.1433   23.8918 C   0  0  0  0  0  0
  -17.6441  -30.6582   24.0564 C   0  0  0  0  0  0
  -25.9037  -34.9496   23.5154 C   0  0  0  0  0  0
  -16.5331  -29.9088   23.6320 C   0  0  0  0  0  0
  -16.7242  -28.6496   23.0357 C   0  0  0  0  0  0
  -26.4460  -31.6621   25.0754 C   0  0  0  0  0  0
  -25.3742  -31.3680   26.1504 C   0  0  0  0  0  0
  -27.0308  -30.3078   24.6117 C   0  0  0  0  0  0
  -27.6072  -32.4338   25.7484 C   0  0  0  0  0  0
  -27.5585  -37.1806   24.8460 C   0  0  0  0  0  0
  -21.4120  -29.3051   22.3767 N   0  0  0  0  0  0
  -26.4286  -37.3812   23.9416 N   0  0  0  0  0  0
  -24.6622  -31.0852   22.1068 N   0  0  0  0  0  0
  -23.4151  -28.8242   23.3087 O   0  0  0  0  0  0
  -28.4126  -26.7742   20.0023 O   0  0  0  0  0  0
  -26.5584  -34.8933   22.4704 O   0  0  0  0  0  0
  -23.5314  -32.1509   23.7556 O   0  0  0  0  0  0
  -27.8698  -18.1067   21.6925 C   0  0  0  0  0  0
  -30.3311  -17.3893   20.5858 C   0  0  0  0  0  0
  -28.4730  -16.8929   22.0826 C   0  0  0  0  0  0
  -29.7426  -18.6123   20.2163 C   0  0  0  0  0  0
  -28.4967  -18.9780   20.7810 C   0  0  0  0  0  0
  -29.7228  -16.5177   21.5189 C   0  0  0  0  0  0
  -27.7573  -16.0546   23.1318 C   0  0  0  0  0  0
  -30.4897  -19.4854   19.2186 C   0  0  0  0  0  0
  -32.5478  -14.4803   23.3329 C   0  0  0  0  0  0
  -27.8298  -20.3090   20.4748 C   0  0  0  0  0  0
  -31.7620  -15.6548   22.7254 C   0  0  0  0  0  0
  -27.1929  -20.3657   19.0745 C   0  0  0  0  0  0
  -29.0744  -24.8978   18.5503 C   0  0  0  0  0  0
  -26.8130  -21.7991   18.6734 C   0  0  0  0  0  0
  -27.7718  -24.0813   18.5876 C   0  0  0  0  0  0
  -28.8521  -26.4143   18.6892 C   0  0  0  0  0  0
  -30.4833  -15.2505   21.9441 C   0  0  2  0  0  0
  -28.0182  -22.6332   18.4803 N   0  3  0  0  0  0
  -31.4541  -12.3969   19.0754 H   0  0  0  0  0  0
  -30.3113  -11.2739   19.7415 H   0  0  0  0  0  0
  -29.7071  -11.8496   17.3801 H   0  0  0  0  0  0
  -29.6483  -13.5476   17.7886 H   0  0  0  0  0  0
  -27.8004  -11.3411   18.7636 H   0  0  0  0  0  0
  -27.3495  -12.7137   17.7884 H   0  0  0  0  0  0
  -27.7308  -14.2663   19.6325 H   0  0  0  0  0  0
  -28.6748  -11.8822   21.2883 H   0  0  0  0  0  0
  -28.4437  -13.4843   21.8841 H   0  0  0  0  0  0
  -25.2769   -9.5703   22.4743 H   0  0  0  0  0  0
  -24.0005   -7.4662   22.7482 H   0  0  0  0  0  0
  -21.0851   -8.8790   19.8952 H   0  0  0  0  0  0
  -22.3711  -10.9679   19.6161 H   0  0  0  0  0  0
  -21.2008   -7.6150   23.9724 H   0  0  0  0  0  0
  -21.1473   -6.0519   25.9074 H   0  0  0  0  0  0
  -22.0597   -2.7619   23.2849 H   0  0  0  0  0  0
  -22.4126  -11.9908   22.4764 H   0  0  0  0  0  0
  -21.1141  -13.1283   22.2560 H   0  0  0  0  0  0
  -24.6742  -15.8462   20.5472 H   0  0  0  0  0  0
  -26.3119  -15.6384   20.1884 H   0  0  0  0  0  0
  -26.7112  -32.5558   23.1218 H   0  0  0  0  0  0
  -25.0073  -33.9854   25.0528 H   0  0  0  0  0  0
  -22.6831  -31.3156   21.4252 H   0  0  0  0  0  0
  -23.3753  -35.9652   23.3308 H   0  0  0  0  0  0
  -24.3583  -36.8935   22.2051 H   0  0  0  0  0  0
  -23.7234  -37.6538   23.6651 H   0  0  0  0  0  0
  -26.0289  -31.6018   20.5943 H   0  0  0  0  0  0
  -26.8163  -30.8992   21.9808 H   0  0  0  0  0  0
  -28.0919  -29.1184   21.1685 H   0  0  0  0  0  0
  -26.0309  -26.0180   18.9799 H   0  0  0  0  0  0
  -23.9590  -27.3158   19.0414 H   0  0  0  0  0  0
  -23.6970  -30.6100   19.4133 H   0  0  0  0  0  0
  -22.7226  -29.2503   19.8853 H   0  0  0  0  0  0
  -25.1256  -36.2003   25.0834 H   0  0  0  0  0  0
  -20.9908  -28.3219   24.1450 H   0  0  0  0  0  0
  -20.5631  -26.2273   23.3587 H   0  0  0  0  0  0
  -21.6614  -26.7452   22.1201 H   0  0  0  0  0  0
  -19.6895  -25.6298   21.1222 H   0  0  0  0  0  0
  -19.6658  -27.3200   20.6724 H   0  0  0  0  0  0
  -17.4158  -26.6667   21.4019 H   0  0  0  0  0  0
  -18.0317  -26.0044   22.8991 H   0  0  0  0  0  0
  -19.7916  -30.7238   24.2312 H   0  0  0  0  0  0
  -17.4997  -31.6265   24.5153 H   0  0  0  0  0  0
  -15.5328  -30.2994   23.7660 H   0  0  0  0  0  0
  -15.8634  -28.0824   22.7081 H   0  0  0  0  0  0
  -24.5943  -30.6987   25.7832 H   0  0  0  0  0  0
  -24.8879  -32.2801   26.4983 H   0  0  0  0  0  0
  -25.8111  -30.8838   27.0251 H   0  0  0  0  0  0
  -26.2854  -29.6804   24.1214 H   0  0  0  0  0  0
  -27.4137  -29.7338   25.4567 H   0  0  0  0  0  0
  -27.8654  -30.4411   23.9235 H   0  0  0  0  0  0
  -27.2745  -33.3655   26.2071 H   0  0  0  0  0  0
  -28.3861  -32.6876   25.0279 H   0  0  0  0  0  0
  -28.0775  -31.8453   26.5365 H   0  0  0  0  0  0
  -28.2598  -38.0109   24.7541 H   0  0  0  0  0  0
  -28.1087  -36.2650   24.6245 H   0  0  0  0  0  0
  -27.2307  -37.1415   25.8860 H   0  0  0  0  0  0
  -20.9278  -29.8787   21.7007 H   0  0  0  0  0  0
  -26.0186  -38.2893   24.1417 H   0  0  0  0  0  0
  -26.9197  -18.3935   22.1247 H   0  0  0  0  0  0
  -31.2913  -17.1317   20.1593 H   0  0  0  0  0  0
  -26.9620  -16.6261   23.6115 H   0  0  0  0  0  0
  -28.4353  -15.7366   23.9230 H   0  0  0  0  0  0
  -27.2915  -15.1801   22.6819 H   0  0  0  0  0  0
  -31.5655  -19.3215   19.2935 H   0  0  0  0  0  0
  -30.3270  -20.5488   19.3779 H   0  0  0  0  0  0
  -30.1881  -19.2349   18.2010 H   0  0  0  0  0  0
  -33.3671  -14.8482   23.9499 H   0  0  0  0  0  0
  -32.9851  -13.8496   22.5587 H   0  0  0  0  0  0
  -31.9131  -13.8546   23.9622 H   0  0  0  0  0  0
  -28.5735  -21.0937   20.6110 H   0  0  0  0  0  0
  -27.0648  -20.5243   21.2230 H   0  0  0  0  0  0
  -32.4302  -16.2386   22.0901 H   0  0  0  0  0  0
  -31.4725  -16.3254   23.5355 H   0  0  0  0  0  0
  -26.3055  -19.7321   19.0632 H   0  0  0  0  0  0
  -27.8653  -19.9503   18.3268 H   0  0  0  0  0  0
  -29.5812  -24.7123   17.6017 H   0  0  0  0  0  0
  -29.7556  -24.5606   19.3322 H   0  0  0  0  0  0
  -26.1673  -22.2287   19.4429 H   0  0  0  0  0  0
  -26.2331  -21.7978   17.7490 H   0  0  0  0  0  0
  -27.1051  -24.3903   17.7816 H   0  0  0  0  0  0
  -27.2623  -24.2734   19.5335 H   0  0  0  0  0  0
  -28.1899  -26.7758   17.8996 H   0  0  0  0  0  0
  -29.8027  -26.9236   18.5271 H   0  0  0  0  0  0
  -29.9027  -14.6847   22.6616 H   0  0  0  0  0  0
  -28.4267  -22.4177   17.5837 H   0  0  0  0  0  0
  -28.6850  -22.3894   19.1925 H   0  0  0  0  0  0
  1 25  1  0  0  0
  1 30  2  0  0  0
  1 87  1  0  0  0
  2  3  1  0  0  0
  2 25  1  0  0  0
  2 89  1  0  0  0
  2 90  1  0  0  0
  3  4  1  0  0  0
  3 91  1  0  0  0
  3 92  1  0  0  0
  4  5  1  0  0  0
  4 93  1  0  0  0
  4 94  1  0  0  0
  5  6  1  0  0  0
  5 26  1  0  0  0
  5 95  1  0  0  0
  6 25  1  0  0  0
  6 96  1  0  0  0
  6 97  1  0  0  0
  7  8  2  0  0  0
  7 26  1  0  0  0
  7 29  1  0  0  0
  8  9  1  0  0  0
  8 22  1  0  0  0
  9 10  1  0  0  0
  9 27  2  0  0  0
 10 11  2  0  0  0
 10 15  1  0  0  0
 11 12  1  0  0  0
 11 98  1  0  0  0
 12 13  2  0  0  0
 12 99  1  0  0  0
 13 14  1  0  0  0
 13 31  1  0  0  0
 14 15  2  0  0  0
 14100  1  0  0  0
 15101  1  0  0  0
 16 17  2  0  0  0
 16 21  1  0  0  0
 16 31  1  0  0  0
 17 18  1  0  0  0
 17102  1  0  0  0
 18 19  2  0  0  0
 18103  1  0  0  0
 19 20  1  0  0  0
 19 24  1  0  0  0
 20 21  2  0  0  0
 20104  1  0  0  0
 21 23  1  0  0  0
 22 28  1  0  0  0
 22 32  2  0  0  0
 26 27  1  0  0  0
 28105  1  0  0  0
 28106  1  0  0  0
 29107  1  0  0  0
 29108  1  0  0  0
 33 34  1  0  0  0
 33 66  1  0  0  0
 33 70  2  0  0  0
 34 36  1  0  0  0
 34 59  1  0  0  0
 34109  1  0  0  0
 35 44  2  0  0  0
 35 45  1  0  0  0
 35 68  1  0  0  0
 36 56  1  0  0  0
 36110  1  0  0  0
 37 39  1  0  0  0
 37 47  1  0  0  0
 37 66  1  0  0  0
 37111  1  0  0  0
 38 43  2  0  0  0
 38 46  1  0  0  0
 38 47  1  0  0  0
 39 64  1  0  0  0
 39 67  2  0  0  0
 40 52  1  0  0  0
 40 53  2  0  0  0
 40 58  1  0  0  0
 41112  1  0  0  0
 41113  1  0  0  0
 41114  1  0  0  0
 41 48  1  0  0  0
 42 43  1  0  0  0
 42 66  1  0  0  0
 42115  1  0  0  0
 42116  1  0  0  0
 43 44  1  0  0  0
 44117  1  0  0  0
 45 46  2  0  0  0
 45118  1  0  0  0
 46119  1  0  0  0
 47120  1  0  0  0
 47121  1  0  0  0
 48 56  1  0  0  0
 48 65  1  0  0  0
 48122  1  0  0  0
 49 50  1  0  0  0
 49 53  1  0  0  0
 49 64  1  0  0  0
 49123  1  0  0  0
 50 51  1  0  0  0
 50124  1  0  0  0
 50125  1  0  0  0
 51 52  1  0  0  0
 51126  1  0  0  0
 51127  1  0  0  0
 52128  1  0  0  0
 52129  1  0  0  0
 53 54  1  0  0  0
 54 55  2  0  0  0
 54130  1  0  0  0
 55 57  1  0  0  0
 55131  1  0  0  0
 56 69  2  0  0  0
 57 58  2  0  0  0
 57132  1  0  0  0
 58133  1  0  0  0
 59 60  1  0  0  0
 59 61  1  0  0  0
 59 62  1  0  0  0
 60134  1  0  0  0
 60135  1  0  0  0
 60136  1  0  0  0
 61137  1  0  0  0
 61138  1  0  0  0
 61139  1  0  0  0
 62140  1  0  0  0
 62141  1  0  0  0
 62142  1  0  0  0
 63 65  1  0  0  0
 63143  1  0  0  0
 63144  1  0  0  0
 63145  1  0  0  0
 64146  1  0  0  0
 65147  1  0  0  0
 68 86  1  0  0  0
 71 73  2  0  0  0
 71 75  1  0  0  0
 71148  1  0  0  0
 72 74  1  0  0  0
 72 76  2  0  0  0
 72149  1  0  0  0
 73 76  1  0  0  0
 73 77  1  0  0  0
 74 75  2  0  0  0
 74 78  1  0  0  0
 75 80  1  0  0  0
 76 87  1  0  0  0
 77150  1  0  0  0
 77151  1  0  0  0
 77152  1  0  0  0
 78153  1  0  0  0
 78154  1  0  0  0
 78155  1  0  0  0
 79 81  1  0  0  0
 79156  1  0  0  0
 79157  1  0  0  0
 79158  1  0  0  0
 80 82  1  0  0  0
 80159  1  0  0  0
 80160  1  0  0  0
 81161  1  0  0  0
 81162  1  0  0  0
 81 87  1  0  0  0
 82 84  1  0  0  0
 82163  1  0  0  0
 82164  1  0  0  0
 83 85  1  0  0  0
 83 86  1  0  0  0
 83165  1  0  0  0
 83166  1  0  0  0
 84 88  1  0  0  0
 84167  1  0  0  0
 84168  1  0  0  0
 85 88  1  0  0  0
 85169  1  0  0  0
 85170  1  0  0  0
 86171  1  0  0  0
 86172  1  0  0  0
 87173  1  0  0  0
 88174  1  0  0  0
 88175  1  0  0  0
M  CHG  1  88   1
M  ISO  4   1 100  68 101  86 101  87 100
M  END
> <chiral flag>
0

> <version>
0

> <s_m_source_file>
/data/baiqing/PycharmProjects/Reinvent-master-3.2/result/LINK_invent/BTK/process_docking_weight1_custom_sum_contain_oxygen_bond_distance_aromatic_linkinvent_7_9_3/rearranged_h_0042.sdf

> <i_m_source_file_index>
20

> <r_mmod_Potential_Energy-OPLS-2005>
-139.99072265625

> <r_mmod_Stretch_Energy-OPLS-2005>
35.3171920776367

> <r_mmod_Bend_Energy-OPLS-2005>
96.3812713623047

> <r_mmod_Torsional_Energy-OPLS-2005>
194.316665649414

> <r_mmod_Improper_Torsional_Energy-OPLS-2005>
1.98276007175446

> <r_mmod_Van_der_Waal_Energy-OPLS-2005>
148.583312988281

> <r_mmod_Electrostatic_Energy-OPLS-2005>
-195.251510620117

> <r_mmod_Solvation_Energy-OPLS-2005>
-429.217376708984

> <b_mmod_Minimization_Converged-OPLS-2005>
0

> <r_mmod_RMS_Derivative-OPLS-2005>
2.51175045967102

$$$$
21
                    3D
 Structure written by MMmdl.
162170  0  0  1  0            999 V2000
  -30.7227  -14.5397   20.4964 C   0  0  0  0  0  0
  -30.4024  -12.3386   19.4389 C   0  0  0  0  0  0
  -29.4870  -12.4873   18.2067 C   0  0  0  0  0  0
  -28.0114  -12.3378   18.6239 C   0  0  0  0  0  0
  -27.6435  -13.2173   19.8498 C   0  0  2  0  0  0
  -28.6916  -13.1010   20.9792 C   0  0  0  0  0  0
  -25.2530  -13.8171   20.5688 C   0  0  0  0  0  0
  -24.1804  -13.0422   20.9198 C   0  0  0  0  0  0
  -24.6383  -11.6919   20.8749 C   0  0  0  0  0  0
  -23.9060  -10.4296   21.0408 C   0  0  0  0  0  0
  -24.3611   -9.4223   21.9197 C   0  0  0  0  0  0
  -23.6294   -8.2255   22.0762 C   0  0  0  0  0  0
  -22.4282   -8.0277   21.3539 C   0  0  0  0  0  0
  -21.9911   -9.0256   20.4653 C   0  0  0  0  0  0
  -22.7231  -10.2143   20.3067 C   0  0  0  0  0  0
  -21.6862   -6.0747   22.5287 C   0  0  0  0  0  0
  -21.4017   -6.5643   23.8222 C   0  0  0  0  0  0
  -21.3657   -5.6792   24.9170 C   0  0  0  0  0  0
  -21.6033   -4.3058   24.7223 C   0  0  0  0  0  0
  -21.8821   -3.8152   23.4347 C   0  0  0  0  0  0
  -21.9191   -4.6970   22.3400 C   0  0  0  0  0  0
  -22.7838  -13.5234   21.1836 C   0  0  0  0  0  0
  -22.1666   -4.2151   21.0983 F   0  0  0  0  0  0
  -21.5615   -3.4541   25.7741 F   0  0  0  0  0  0
  -30.0003  -13.3913   20.3891 N   0  0  0  0  0  0
  -26.2937  -12.9356   20.3287 N   0  0  0  0  0  0
  -25.9302  -11.6505   20.5778 N   0  0  0  0  0  0
  -22.0470  -12.8235   22.0394 N   0  0  0  0  0  0
  -25.4175  -15.1890   20.4064 N   0  0  0  0  0  0
  -31.9227  -14.5707   20.2398 O   0  0  0  0  0  0
  -21.6636   -6.8881   21.4248 O   0  0  0  0  0  0
  -22.3527  -14.5528   20.6679 O   0  0  0  0  0  0
  -24.6149  -31.8662   23.2059 C   0  0  0  0  0  0
  -25.9030  -32.4814   23.8348 C   0  0  1  0  0  0
  -27.2159  -27.3680   20.1093 C   0  0  0  0  0  0
  -25.5848  -33.8630   24.2269 N   0  0  0  0  0  0
  -23.4044  -30.4888   21.5506 C   0  0  2  0  0  0
  -24.8482  -28.9554   20.1091 C   0  0  0  0  0  0
  -22.7404  -29.4658   22.4984 C   0  0  0  0  0  0
  -18.0264  -28.1355   22.8524 C   0  0  0  0  0  0
  -24.1487  -36.7342   23.2641 C   0  0  0  0  0  0
  -25.9386  -30.8108   21.3687 C   0  0  0  0  0  0
  -26.0094  -29.4396   20.7213 C   0  0  0  0  0  0
  -27.1882  -28.6472   20.7318 C   0  0  0  0  0  0
  -26.0459  -26.9444   19.4409 C   0  0  0  0  0  0
  -24.8666  -27.7092   19.4674 C   0  0  0  0  0  0
  -23.6099  -29.8212   20.1641 C   0  0  0  0  0  0
  -25.4111  -36.3146   24.0337 C   0  0  1  0  0  0
  -20.5859  -28.3673   23.1328 C   0  0  2  0  0  0
  -20.6754  -26.9397   22.5448 C   0  0  0  0  0  0
  -19.5741  -26.6380   21.5225 C   0  0  0  0  0  0
  -18.1913  -26.7906   22.1635 C   0  0  0  0  0  0
  -19.1512  -28.8823   23.2915 C   0  0  0  0  0  0
  -18.9431  -30.1413   23.8953 C   0  0  0  0  0  0
  -17.6434  -30.6576   24.0574 C   0  0  0  0  0  0
  -25.9047  -34.9502   23.5124 C   0  0  0  0  0  0
  -16.5322  -29.9098   23.6299 C   0  0  0  0  0  0
  -16.7253  -28.6490   23.0364 C   0  0  0  0  0  0
  -26.4411  -31.6604   25.0710 C   0  0  0  0  0  0
  -25.3624  -31.3745   26.1417 C   0  0  0  0  0  0
  -27.0203  -30.3038   24.6123 C   0  0  0  0  0  0
  -27.6006  -32.4281   25.7461 C   0  0  0  0  0  0
  -27.5581  -37.1851   24.8451 C   0  0  0  0  0  0
  -21.4116  -29.3027   22.3713 N   0  0  0  0  0  0
  -26.4318  -37.3818   23.9387 N   0  0  0  0  0  0
  -24.6719  -31.0713   22.0997 N   0  0  0  0  0  0
  -23.4176  -28.8172   23.3021 O   0  0  0  0  0  0
  -28.3456  -26.5625   20.2095 O   0  0  0  0  0  0
  -26.5630  -34.8968   22.4712 O   0  0  0  0  0  0
  -23.5329  -32.1417   23.7444 O   0  0  0  0  0  0
  -28.3434  -23.2081   22.0163 C   0  0  0  0  0  0
  -28.0921  -21.5525   20.2483 C   0  0  0  0  0  0
  -28.0788  -22.9189   20.6640 C   0  0  0  0  0  0
  -28.6020  -22.1687   22.9451 C   0  0  0  0  0  0
  -28.3347  -20.4878   21.1670 C   0  0  0  0  0  0
  -28.5866  -20.8212   22.5162 C   0  0  0  0  0  0
  -29.5640  -23.7784   24.7245 C   0  0  0  0  0  0
  -27.5983  -24.0425   19.7149 C   0  0  0  0  0  0
  -28.8057  -22.4776   24.4277 C   0  0  0  0  0  0
  -28.1523  -18.9984   20.7670 C   0  0  0  0  0  0
  -29.3524  -18.0144   20.9658 C   0  0  0  0  0  0
  -29.0050  -16.4816   20.8707 C   0  0  0  0  0  0
  -28.4799  -25.3290   19.4422 C   0  0  0  0  0  0
  -30.0980  -15.7131   20.2484 N   0  0  0  0  0  0
  -28.7624  -19.8274   23.4223 F   0  0  0  0  0  0
  -31.4482  -12.4125   19.1377 H   0  0  0  0  0  0
  -30.2878  -11.3504   19.8906 H   0  0  0  0  0  0
  -29.7395  -11.7436   17.4509 H   0  0  0  0  0  0
  -29.6416  -13.4618   17.7411 H   0  0  0  0  0  0
  -27.8375  -11.2879   18.8546 H   0  0  0  0  0  0
  -27.3561  -12.5727   17.7837 H   0  0  0  0  0  0
  -27.6524  -14.2454   19.4907 H   0  0  0  0  0  0
  -28.6884  -12.0990   21.4100 H   0  0  0  0  0  0
  -28.4675  -13.7875   21.7955 H   0  0  0  0  0  0
  -25.2765   -9.5693   22.4769 H   0  0  0  0  0  0
  -24.0000   -7.4646   22.7503 H   0  0  0  0  0  0
  -21.0828   -8.8783   19.8979 H   0  0  0  0  0  0
  -22.3692  -10.9678   19.6176 H   0  0  0  0  0  0
  -21.2032   -7.6159   23.9720 H   0  0  0  0  0  0
  -21.1464   -6.0525   25.9068 H   0  0  0  0  0  0
  -22.0601   -2.7619   23.2845 H   0  0  0  0  0  0
  -22.4086  -11.9894   22.4782 H   0  0  0  0  0  0
  -21.1101  -13.1289   22.2605 H   0  0  0  0  0  0
  -24.6430  -15.8354   20.5084 H   0  0  0  0  0  0
  -26.2537  -15.6282   20.0452 H   0  0  0  0  0  0
  -26.7099  -32.5518   23.1099 H   0  0  0  0  0  0
  -24.9894  -33.9741   25.0335 H   0  0  0  0  0  0
  -22.7013  -31.3118   21.4104 H   0  0  0  0  0  0
  -23.3743  -35.9669   23.3302 H   0  0  0  0  0  0
  -24.3564  -36.8969   22.2060 H   0  0  0  0  0  0
  -23.7259  -37.6569   23.6620 H   0  0  0  0  0  0
  -26.0532  -31.5664   20.5872 H   0  0  0  0  0  0
  -26.8256  -30.8689   21.9869 H   0  0  0  0  0  0
  -28.0725  -29.0070   21.2384 H   0  0  0  0  0  0
  -26.0084  -26.0171   18.8942 H   0  0  0  0  0  0
  -23.9859  -27.3414   18.9640 H   0  0  0  0  0  0
  -23.7078  -30.5917   19.3982 H   0  0  0  0  0  0
  -22.7339  -29.2320   19.8813 H   0  0  0  0  0  0
  -25.1296  -36.2057   25.0829 H   0  0  0  0  0  0
  -20.9945  -28.3234   24.1444 H   0  0  0  0  0  0
  -20.5656  -26.2263   23.3637 H   0  0  0  0  0  0
  -21.6632  -26.7433   22.1227 H   0  0  0  0  0  0
  -19.6914  -25.6285   21.1246 H   0  0  0  0  0  0
  -19.6681  -27.3203   20.6761 H   0  0  0  0  0  0
  -17.4180  -26.6644   21.4032 H   0  0  0  0  0  0
  -18.0330  -26.0019   22.9014 H   0  0  0  0  0  0
  -19.7897  -30.7200   24.2393 H   0  0  0  0  0  0
  -17.4993  -31.6299   24.5114 H   0  0  0  0  0  0
  -15.5327  -30.3038   23.7586 H   0  0  0  0  0  0
  -15.8639  -28.0830   22.7087 H   0  0  0  0  0  0
  -24.5821  -30.7074   25.7707 H   0  0  0  0  0  0
  -24.8749  -32.2912   26.4758 H   0  0  0  0  0  0
  -25.7904  -30.8984   27.0243 H   0  0  0  0  0  0
  -26.2773  -29.6909   24.1019 H   0  0  0  0  0  0
  -27.3755  -29.7196   25.4607 H   0  0  0  0  0  0
  -27.8674  -30.4299   23.9381 H   0  0  0  0  0  0
  -27.2646  -33.3586   26.2025 H   0  0  0  0  0  0
  -28.3786  -32.6847   25.0254 H   0  0  0  0  0  0
  -28.0648  -31.8415   26.5388 H   0  0  0  0  0  0
  -28.2637  -38.0119   24.7480 H   0  0  0  0  0  0
  -28.1070  -36.2684   24.6290 H   0  0  0  0  0  0
  -27.2298  -37.1497   25.8853 H   0  0  0  0  0  0
  -20.9275  -29.8769   21.6935 H   0  0  0  0  0  0
  -26.0242  -38.2915   24.1345 H   0  0  0  0  0  0
  -28.2930  -24.2372   22.3380 H   0  0  0  0  0  0
  -27.8409  -21.3043   19.2260 H   0  0  0  0  0  0
  -29.6535  -23.9135   25.8018 H   0  0  0  0  0  0
  -29.0448  -24.6582   24.3410 H   0  0  0  0  0  0
  -30.5741  -23.7521   24.3131 H   0  0  0  0  0  0
  -26.6012  -24.3231   20.0492 H   0  0  0  0  0  0
  -27.4420  -23.5632   18.7461 H   0  0  0  0  0  0
  -29.3398  -21.6544   24.9128 H   0  0  0  0  0  0
  -27.8254  -22.5181   24.9038 H   0  0  0  0  0  0
  -27.8410  -18.9550   19.7236 H   0  0  0  0  0  0
  -27.3004  -18.6201   21.3323 H   0  0  0  0  0  0
  -29.8205  -18.1850   21.9357 H   0  0  0  0  0  0
  -30.1126  -18.2765   20.2319 H   0  0  0  0  0  0
  -28.7545  -16.0878   21.8559 H   0  0  0  0  0  0
  -28.1206  -16.3581   20.2485 H   0  0  0  0  0  0
  -28.3129  -25.6215   18.4047 H   0  0  0  0  0  0
  -29.5313  -25.0381   19.4675 H   0  0  0  0  0  0
  -30.7592  -16.3366   19.8099 H   0  0  0  0  0  0
  1 25  1  0  0  0
  1 30  2  0  0  0
  1 84  1  0  0  0
  2  3  1  0  0  0
  2 25  1  0  0  0
  2 86  1  0  0  0
  2 87  1  0  0  0
  3  4  1  0  0  0
  3 88  1  0  0  0
  3 89  1  0  0  0
  4  5  1  0  0  0
  4 90  1  0  0  0
  4 91  1  0  0  0
  5  6  1  0  0  0
  5 26  1  0  0  0
  5 92  1  0  0  0
  6 25  1  0  0  0
  6 93  1  0  0  0
  6 94  1  0  0  0
  7  8  2  0  0  0
  7 26  1  0  0  0
  7 29  1  0  0  0
  8  9  1  0  0  0
  8 22  1  0  0  0
  9 10  1  0  0  0
  9 27  2  0  0  0
 10 11  2  0  0  0
 10 15  1  0  0  0
 11 12  1  0  0  0
 11 95  1  0  0  0
 12 13  2  0  0  0
 12 96  1  0  0  0
 13 14  1  0  0  0
 13 31  1  0  0  0
 14 15  2  0  0  0
 14 97  1  0  0  0
 15 98  1  0  0  0
 16 17  2  0  0  0
 16 21  1  0  0  0
 16 31  1  0  0  0
 17 18  1  0  0  0
 17 99  1  0  0  0
 18 19  2  0  0  0
 18100  1  0  0  0
 19 20  1  0  0  0
 19 24  1  0  0  0
 20 21  2  0  0  0
 20101  1  0  0  0
 21 23  1  0  0  0
 22 28  1  0  0  0
 22 32  2  0  0  0
 26 27  1  0  0  0
 28102  1  0  0  0
 28103  1  0  0  0
 29104  1  0  0  0
 29105  1  0  0  0
 33 34  1  0  0  0
 33 66  1  0  0  0
 33 70  2  0  0  0
 34 36  1  0  0  0
 34 59  1  0  0  0
 34106  1  0  0  0
 35 44  2  0  0  0
 35 45  1  0  0  0
 35 68  1  0  0  0
 36 56  1  0  0  0
 36107  1  0  0  0
 37 39  1  0  0  0
 37 47  1  0  0  0
 37 66  1  0  0  0
 37108  1  0  0  0
 38 43  2  0  0  0
 38 46  1  0  0  0
 38 47  1  0  0  0
 39 64  1  0  0  0
 39 67  2  0  0  0
 40 52  1  0  0  0
 40 53  2  0  0  0
 40 58  1  0  0  0
 41109  1  0  0  0
 41110  1  0  0  0
 41111  1  0  0  0
 41 48  1  0  0  0
 42 43  1  0  0  0
 42 66  1  0  0  0
 42112  1  0  0  0
 42113  1  0  0  0
 43 44  1  0  0  0
 44114  1  0  0  0
 45 46  2  0  0  0
 45115  1  0  0  0
 46116  1  0  0  0
 47117  1  0  0  0
 47118  1  0  0  0
 48 56  1  0  0  0
 48 65  1  0  0  0
 48119  1  0  0  0
 49 50  1  0  0  0
 49 53  1  0  0  0
 49 64  1  0  0  0
 49120  1  0  0  0
 50 51  1  0  0  0
 50121  1  0  0  0
 50122  1  0  0  0
 51 52  1  0  0  0
 51123  1  0  0  0
 51124  1  0  0  0
 52125  1  0  0  0
 52126  1  0  0  0
 53 54  1  0  0  0
 54 55  2  0  0  0
 54127  1  0  0  0
 55 57  1  0  0  0
 55128  1  0  0  0
 56 69  2  0  0  0
 57 58  2  0  0  0
 57129  1  0  0  0
 58130  1  0  0  0
 59 60  1  0  0  0
 59 61  1  0  0  0
 59 62  1  0  0  0
 60131  1  0  0  0
 60132  1  0  0  0
 60133  1  0  0  0
 61134  1  0  0  0
 61135  1  0  0  0
 61136  1  0  0  0
 62137  1  0  0  0
 62138  1  0  0  0
 62139  1  0  0  0
 63 65  1  0  0  0
 63140  1  0  0  0
 63141  1  0  0  0
 63142  1  0  0  0
 64143  1  0  0  0
 65144  1  0  0  0
 68 83  1  0  0  0
 71 73  2  0  0  0
 71 74  1  0  0  0
 71145  1  0  0  0
 72 73  1  0  0  0
 72 75  2  0  0  0
 72146  1  0  0  0
 73 78  1  0  0  0
 74 76  2  0  0  0
 74 79  1  0  0  0
 75 76  1  0  0  0
 75 80  1  0  0  0
 76 85  1  0  0  0
 77 79  1  0  0  0
 77147  1  0  0  0
 77148  1  0  0  0
 77149  1  0  0  0
 78 83  1  0  0  0
 78150  1  0  0  0
 78151  1  0  0  0
 79152  1  0  0  0
 79153  1  0  0  0
 80 81  1  0  0  0
 80154  1  0  0  0
 80155  1  0  0  0
 81 82  1  0  0  0
 81156  1  0  0  0
 81157  1  0  0  0
 82 84  1  0  0  0
 82158  1  0  0  0
 82159  1  0  0  0
 83160  1  0  0  0
 83161  1  0  0  0
 84162  1  0  0  0
M  ISO  4   1 100  68 101  83 101  84 100
M  END
> <chiral flag>
0

> <version>
0

> <s_m_source_file>
/data/baiqing/PycharmProjects/Reinvent-master-3.2/result/LINK_invent/BTK/process_docking_weight1_custom_sum_contain_oxygen_bond_distance_aromatic_linkinvent_7_9_3/rearranged_h_0042.sdf

> <i_m_source_file_index>
21

> <r_mmod_Potential_Energy-OPLS-2005>
119.121734619141

> <r_mmod_Stretch_Energy-OPLS-2005>
52.3789100646973

> <r_mmod_Bend_Energy-OPLS-2005>
160.396331787109

> <r_mmod_Torsional_Energy-OPLS-2005>
259.875366210938

> <r_mmod_Improper_Torsional_Energy-OPLS-2005>
26.2869663238525

> <r_mmod_Van_der_Waal_Energy-OPLS-2005>
141.06640625

> <r_mmod_Electrostatic_Energy-OPLS-2005>
-365.308502197266

> <r_mmod_Solvation_Energy-OPLS-2005>
-194.521453857422

> <b_mmod_Minimization_Converged-OPLS-2005>
0

> <r_mmod_RMS_Derivative-OPLS-2005>
4.49833965301514

$$$$
22
                    3D
 Structure written by MMmdl.
159167  0  0  1  0            999 V2000
  -30.6327  -14.7352   20.4633 C   0  0  0  0  0  0
  -30.4428  -12.4440   19.4906 C   0  0  0  0  0  0
  -29.5224  -12.4900   18.2505 C   0  0  0  0  0  0
  -28.0510  -12.3129   18.6655 C   0  0  0  0  0  0
  -27.6530  -13.2270   19.8557 C   0  0  2  0  0  0
  -28.6948  -13.1671   20.9974 C   0  0  0  0  0  0
  -25.2572  -13.8181   20.5674 C   0  0  0  0  0  0
  -24.1842  -13.0443   20.9171 C   0  0  0  0  0  0
  -24.6410  -11.6909   20.8719 C   0  0  0  0  0  0
  -23.9064  -10.4298   21.0389 C   0  0  0  0  0  0
  -24.3611   -9.4225   21.9182 C   0  0  0  0  0  0
  -23.6292   -8.2253   22.0764 C   0  0  0  0  0  0
  -22.4280   -8.0268   21.3539 C   0  0  0  0  0  0
  -21.9905   -9.0239   20.4643 C   0  0  0  0  0  0
  -22.7229  -10.2127   20.3051 C   0  0  0  0  0  0
  -21.6853   -6.0729   22.5281 C   0  0  0  0  0  0
  -21.4022   -6.5632   23.8220 C   0  0  0  0  0  0
  -21.3654   -5.6786   24.9172 C   0  0  0  0  0  0
  -21.6047   -4.3050   24.7224 C   0  0  0  0  0  0
  -21.8822   -3.8136   23.4350 C   0  0  0  0  0  0
  -21.9201   -4.6959   22.3407 C   0  0  0  0  0  0
  -22.7871  -13.5244   21.1831 C   0  0  0  0  0  0
  -22.1666   -4.2139   21.0985 F   0  0  0  0  0  0
  -21.5614   -3.4535   25.7739 F   0  0  0  0  0  0
  -30.0076  -13.5074   20.4262 N   0  0  0  0  0  0
  -26.2999  -12.9385   20.3281 N   0  0  0  0  0  0
  -25.9359  -11.6529   20.5752 N   0  0  0  0  0  0
  -22.0489  -12.8210   22.0353 N   0  0  0  0  0  0
  -25.4304  -15.1898   20.4081 N   0  0  0  0  0  0
  -31.7955  -14.8499   20.0669 O   0  0  0  0  0  0
  -21.6636   -6.8871   21.4246 O   0  0  0  0  0  0
  -22.3578  -14.5571   20.6713 O   0  0  0  0  0  0
  -24.6319  -31.8525   23.1947 C   0  0  0  0  0  0
  -25.9140  -32.4734   23.8305 C   0  0  1  0  0  0
  -27.2362  -27.2618   20.1197 C   0  0  0  0  0  0
  -25.5948  -33.8542   24.2256 N   0  0  0  0  0  0
  -23.4313  -30.4705   21.5398 C   0  0  2  0  0  0
  -24.8806  -28.9210   20.1075 C   0  0  0  0  0  0
  -22.7527  -29.4531   22.4907 C   0  0  0  0  0  0
  -18.0311  -28.1337   22.8485 C   0  0  0  0  0  0
  -24.1480  -36.7278   23.2653 C   0  0  0  0  0  0
  -25.9772  -30.7646   21.3748 C   0  0  0  0  0  0
  -26.0536  -29.3881   20.7179 C   0  0  0  0  0  0
  -27.2288  -28.5708   20.7150 C   0  0  0  0  0  0
  -26.0399  -26.8685   19.4762 C   0  0  0  0  0  0
  -24.8814  -27.6682   19.4772 C   0  0  0  0  0  0
  -23.6505  -29.8050   20.1571 C   0  0  0  0  0  0
  -25.4122  -36.3074   24.0332 C   0  0  1  0  0  0
  -20.5920  -28.3636   23.1297 C   0  0  2  0  0  0
  -20.6781  -26.9348   22.5429 C   0  0  0  0  0  0
  -19.5765  -26.6353   21.5220 C   0  0  0  0  0  0
  -18.1937  -26.7888   22.1610 C   0  0  0  0  0  0
  -19.1567  -28.8810   23.2879 C   0  0  0  0  0  0
  -18.9478  -30.1418   23.8882 C   0  0  0  0  0  0
  -17.6479  -30.6541   24.0547 C   0  0  0  0  0  0
  -25.9065  -34.9433   23.5111 C   0  0  0  0  0  0
  -16.5367  -29.9033   23.6336 C   0  0  0  0  0  0
  -16.7301  -28.6455   23.0349 C   0  0  0  0  0  0
  -26.4487  -31.6542   25.0691 C   0  0  0  0  0  0
  -25.3697  -31.3678   26.1397 C   0  0  0  0  0  0
  -27.0338  -30.2967   24.6154 C   0  0  0  0  0  0
  -27.6056  -32.4253   25.7468 C   0  0  0  0  0  0
  -27.5566  -37.1781   24.8498 C   0  0  0  0  0  0
  -21.4229  -29.2976   22.3659 N   0  0  0  0  0  0
  -26.4289  -37.3768   23.9429 N   0  0  0  0  0  0
  -24.6997  -31.0474   22.0937 N   0  0  0  0  0  0
  -23.4227  -28.8065   23.3000 O   0  0  0  0  0  0
  -28.3398  -26.3687   20.1674 O   0  0  0  0  0  0
  -26.5641  -34.8906   22.4687 O   0  0  0  0  0  0
  -23.5461  -32.1366   23.7209 O   0  0  0  0  0  0
  -28.1802  -20.4280   20.9585 C   0  0  0  0  0  0
  -29.5387  -20.0009   20.8165 C   0  0  0  0  0  0
  -30.1170  -21.2175   20.4318 C   0  0  0  0  0  0
  -31.5482  -21.4451   20.0629 C   0  0  0  0  0  0
  -29.7233  -18.1675   22.6045 C   0  0  0  0  0  0
  -27.5149  -24.8057   21.8312 C   0  0  0  0  0  0
  -29.3264  -23.8097   20.2233 C   0  0  0  0  0  0
  -29.9634  -17.2912   20.1904 C   0  0  0  0  0  0
  -30.1450  -18.5586   21.1797 C   0  0  1  0  0  0
  -28.1116  -24.8895   20.4123 C   0  0  2  0  0  0
  -27.9691  -21.7320   20.7368 N   0  0  0  0  0  0
  -29.1696  -22.2911   20.4609 N   0  0  0  0  0  0
  -29.8685  -15.8558   20.7292 N   0  0  0  0  0  0
  -31.4831  -12.5650   19.1818 H   0  0  0  0  0  0
  -30.3872  -11.4687   19.9768 H   0  0  0  0  0  0
  -29.8079  -11.7080   17.5471 H   0  0  0  0  0  0
  -29.6534  -13.4362   17.7234 H   0  0  0  0  0  0
  -27.9235  -11.2689   18.9520 H   0  0  0  0  0  0
  -27.3927  -12.4757   17.8113 H   0  0  0  0  0  0
  -27.6491  -14.2460   19.4674 H   0  0  0  0  0  0
  -28.7203  -12.1739   21.4471 H   0  0  0  0  0  0
  -28.4275  -13.8553   21.8004 H   0  0  0  0  0  0
  -25.2756   -9.5695   22.4761 H   0  0  0  0  0  0
  -23.9988   -7.4655   22.7498 H   0  0  0  0  0  0
  -21.0837   -8.8750   19.8955 H   0  0  0  0  0  0
  -22.3683  -10.9654   19.6151 H   0  0  0  0  0  0
  -21.2021   -7.6147   23.9721 H   0  0  0  0  0  0
  -21.1467   -6.0510   25.9072 H   0  0  0  0  0  0
  -22.0611   -2.7604   23.2852 H   0  0  0  0  0  0
  -22.4071  -11.9853   22.4716 H   0  0  0  0  0  0
  -21.1112  -13.1264   22.2547 H   0  0  0  0  0  0
  -24.6665  -15.8478   20.5181 H   0  0  0  0  0  0
  -26.2769  -15.6195   20.0596 H   0  0  0  0  0  0
  -26.7189  -32.5370   23.1021 H   0  0  0  0  0  0
  -25.0117  -33.9682   25.0402 H   0  0  0  0  0  0
  -22.7286  -31.2940   21.3890 H   0  0  0  0  0  0
  -23.3750  -35.9605   23.3349 H   0  0  0  0  0  0
  -24.3590  -36.8875   22.2073 H   0  0  0  0  0  0
  -23.7209  -37.6466   23.6653 H   0  0  0  0  0  0
  -26.1211  -31.5261   20.6058 H   0  0  0  0  0  0
  -26.8543  -30.8104   22.0090 H   0  0  0  0  0  0
  -28.1196  -28.9249   21.2133 H   0  0  0  0  0  0
  -25.9772  -25.9231   18.9616 H   0  0  0  0  0  0
  -23.9857  -27.3084   18.9903 H   0  0  0  0  0  0
  -23.7703  -30.5799   19.4011 H   0  0  0  0  0  0
  -22.7703  -29.2359   19.8530 H   0  0  0  0  0  0
  -25.1267  -36.1936   25.0814 H   0  0  0  0  0  0
  -21.0013  -28.3166   24.1421 H   0  0  0  0  0  0
  -20.5713  -26.2175   23.3584 H   0  0  0  0  0  0
  -21.6623  -26.7362   22.1180 H   0  0  0  0  0  0
  -19.6937  -25.6300   21.1170 H   0  0  0  0  0  0
  -19.6724  -27.3224   20.6810 H   0  0  0  0  0  0
  -17.4215  -26.6691   21.3992 H   0  0  0  0  0  0
  -18.0279  -26.0012   22.8991 H   0  0  0  0  0  0
  -19.7971  -30.7238   24.2192 H   0  0  0  0  0  0
  -17.5048  -31.6233   24.5136 H   0  0  0  0  0  0
  -15.5369  -30.2933   23.7645 H   0  0  0  0  0  0
  -15.8702  -28.0772   22.7042 H   0  0  0  0  0  0
  -24.5968  -30.6897   25.7759 H   0  0  0  0  0  0
  -24.8764  -32.2809   26.4724 H   0  0  0  0  0  0
  -25.8012  -30.8975   27.0247 H   0  0  0  0  0  0
  -26.2932  -29.6715   24.1150 H   0  0  0  0  0  0
  -27.4031  -29.7183   25.4634 H   0  0  0  0  0  0
  -27.8772  -30.4270   23.9378 H   0  0  0  0  0  0
  -27.2727  -33.3645   26.1887 H   0  0  0  0  0  0
  -28.3924  -32.6658   25.0316 H   0  0  0  0  0  0
  -28.0613  -31.8459   26.5503 H   0  0  0  0  0  0
  -28.2570  -38.0075   24.7524 H   0  0  0  0  0  0
  -28.1030  -36.2595   24.6311 H   0  0  0  0  0  0
  -27.2290  -37.1446   25.8898 H   0  0  0  0  0  0
  -20.9383  -29.8749   21.6930 H   0  0  0  0  0  0
  -26.0170  -38.2842   24.1440 H   0  0  0  0  0  0
  -27.3376  -19.8286   21.2718 H   0  0  0  0  0  0
  -31.8382  -20.8006   19.2320 H   0  0  0  0  0  0
  -32.2104  -21.2109   20.8967 H   0  0  0  0  0  0
  -31.7349  -22.4728   19.7516 H   0  0  0  0  0  0
  -29.9838  -18.9417   23.3264 H   0  0  0  0  0  0
  -30.2329  -17.2584   22.9318 H   0  0  0  0  0  0
  -28.6496  -17.9905   22.6670 H   0  0  0  0  0  0
  -27.2457  -23.7860   22.1050 H   0  0  0  0  0  0
  -26.6000  -25.3908   21.9188 H   0  0  0  0  0  0
  -28.2207  -25.1808   22.5746 H   0  0  0  0  0  0
  -30.1417  -24.1349   20.8693 H   0  0  0  0  0  0
  -29.7171  -23.9205   19.2129 H   0  0  0  0  0  0
  -30.7486  -17.3336   19.4340 H   0  0  0  0  0  0
  -29.0384  -17.4436   19.6359 H   0  0  0  0  0  0
  -31.2275  -18.6815   21.2594 H   0  0  0  0  0  0
  -27.3545  -24.5480   19.7099 H   0  0  0  0  0  0
  -28.9714  -15.6307   21.1322 H   0  0  0  0  0  0
  1 25  1  0  0  0
  1 30  2  0  0  0
  1 83  1  0  0  0
  2  3  1  0  0  0
  2 25  1  0  0  0
  2 84  1  0  0  0
  2 85  1  0  0  0
  3  4  1  0  0  0
  3 86  1  0  0  0
  3 87  1  0  0  0
  4  5  1  0  0  0
  4 88  1  0  0  0
  4 89  1  0  0  0
  5  6  1  0  0  0
  5 26  1  0  0  0
  5 90  1  0  0  0
  6 25  1  0  0  0
  6 91  1  0  0  0
  6 92  1  0  0  0
  7  8  2  0  0  0
  7 26  1  0  0  0
  7 29  1  0  0  0
  8  9  1  0  0  0
  8 22  1  0  0  0
  9 10  1  0  0  0
  9 27  2  0  0  0
 10 11  2  0  0  0
 10 15  1  0  0  0
 11 12  1  0  0  0
 11 93  1  0  0  0
 12 13  2  0  0  0
 12 94  1  0  0  0
 13 14  1  0  0  0
 13 31  1  0  0  0
 14 15  2  0  0  0
 14 95  1  0  0  0
 15 96  1  0  0  0
 16 17  2  0  0  0
 16 21  1  0  0  0
 16 31  1  0  0  0
 17 18  1  0  0  0
 17 97  1  0  0  0
 18 19  2  0  0  0
 18 98  1  0  0  0
 19 20  1  0  0  0
 19 24  1  0  0  0
 20 21  2  0  0  0
 20 99  1  0  0  0
 21 23  1  0  0  0
 22 28  1  0  0  0
 22 32  2  0  0  0
 26 27  1  0  0  0
 28100  1  0  0  0
 28101  1  0  0  0
 29102  1  0  0  0
 29103  1  0  0  0
 33 34  1  0  0  0
 33 66  1  0  0  0
 33 70  2  0  0  0
 34 36  1  0  0  0
 34 59  1  0  0  0
 34104  1  0  0  0
 35 44  2  0  0  0
 35 45  1  0  0  0
 35 68  1  0  0  0
 36 56  1  0  0  0
 36105  1  0  0  0
 37 39  1  0  0  0
 37 47  1  0  0  0
 37 66  1  0  0  0
 37106  1  0  0  0
 38 43  2  0  0  0
 38 46  1  0  0  0
 38 47  1  0  0  0
 39 64  1  0  0  0
 39 67  2  0  0  0
 40 52  1  0  0  0
 40 53  2  0  0  0
 40 58  1  0  0  0
 41107  1  0  0  0
 41108  1  0  0  0
 41109  1  0  0  0
 41 48  1  0  0  0
 42 43  1  0  0  0
 42 66  1  0  0  0
 42110  1  0  0  0
 42111  1  0  0  0
 43 44  1  0  0  0
 44112  1  0  0  0
 45 46  2  0  0  0
 45113  1  0  0  0
 46114  1  0  0  0
 47115  1  0  0  0
 47116  1  0  0  0
 48 56  1  0  0  0
 48 65  1  0  0  0
 48117  1  0  0  0
 49 50  1  0  0  0
 49 53  1  0  0  0
 49 64  1  0  0  0
 49118  1  0  0  0
 50 51  1  0  0  0
 50119  1  0  0  0
 50120  1  0  0  0
 51 52  1  0  0  0
 51121  1  0  0  0
 51122  1  0  0  0
 52123  1  0  0  0
 52124  1  0  0  0
 53 54  1  0  0  0
 54 55  2  0  0  0
 54125  1  0  0  0
 55 57  1  0  0  0
 55126  1  0  0  0
 56 69  2  0  0  0
 57 58  2  0  0  0
 57127  1  0  0  0
 58128  1  0  0  0
 59 60  1  0  0  0
 59 61  1  0  0  0
 59 62  1  0  0  0
 60129  1  0  0  0
 60130  1  0  0  0
 60131  1  0  0  0
 61132  1  0  0  0
 61133  1  0  0  0
 61134  1  0  0  0
 62135  1  0  0  0
 62136  1  0  0  0
 62137  1  0  0  0
 63 65  1  0  0  0
 63138  1  0  0  0
 63139  1  0  0  0
 63140  1  0  0  0
 64141  1  0  0  0
 65142  1  0  0  0
 68 80  1  0  0  0
 71 72  1  0  0  0
 71 81  2  0  0  0
 71143  1  0  0  0
 72 73  2  0  0  0
 72 79  1  0  0  0
 73 74  1  0  0  0
 73 82  1  0  0  0
 74144  1  0  0  0
 74145  1  0  0  0
 74146  1  0  0  0
 75147  1  0  0  0
 75148  1  0  0  0
 75149  1  0  0  0
 75 79  1  0  0  0
 76150  1  0  0  0
 76151  1  0  0  0
 76152  1  0  0  0
 76 80  1  0  0  0
 77 80  1  0  0  0
 77 82  1  0  0  0
 77153  1  0  0  0
 77154  1  0  0  0
 78 79  1  0  0  0
 78 83  1  0  0  0
 78155  1  0  0  0
 78156  1  0  0  0
 79157  1  0  0  0
 80158  1  0  0  0
 81 82  1  0  0  0
 83159  1  0  0  0
M  ISO  4   1 100  68 101  80 101  83 100
M  END
> <chiral flag>
0

> <version>
0

> <s_m_source_file>
/data/baiqing/PycharmProjects/Reinvent-master-3.2/result/LINK_invent/BTK/process_docking_weight1_custom_sum_contain_oxygen_bond_distance_aromatic_linkinvent_7_9_3/rearranged_h_0042.sdf

> <i_m_source_file_index>
22

> <r_mmod_Potential_Energy-OPLS-2005>
122.732200622559

> <r_mmod_Stretch_Energy-OPLS-2005>
133.169921875

> <r_mmod_Bend_Energy-OPLS-2005>
175.491897583008

> <r_mmod_Torsional_Energy-OPLS-2005>
237.029388427734

> <r_mmod_Improper_Torsional_Energy-OPLS-2005>
6.72012901306152

> <r_mmod_Van_der_Waal_Energy-OPLS-2005>
114.808235168457

> <r_mmod_Electrostatic_Energy-OPLS-2005>
-412.526397705078

> <r_mmod_Solvation_Energy-OPLS-2005>
-214.412078857422

> <b_mmod_Minimization_Converged-OPLS-2005>
0

> <r_mmod_RMS_Derivative-OPLS-2005>
4.2383861541748

$$$$
23
                    3D
 Structure written by MMmdl.
160168  0  0  1  0            999 V2000
  -30.6622  -14.5545   20.5503 C   0  0  0  0  0  0
  -30.4337  -12.3549   19.4279 C   0  0  0  0  0  0
  -29.5004  -12.5076   18.2074 C   0  0  0  0  0  0
  -28.0210  -12.3593   18.6188 C   0  0  0  0  0  0
  -27.6570  -13.2111   19.8643 C   0  0  2  0  0  0
  -28.7016  -13.0240   20.9868 C   0  0  0  0  0  0
  -25.2578  -13.8163   20.5668 C   0  0  0  0  0  0
  -24.1836  -13.0433   20.9171 C   0  0  0  0  0  0
  -24.6394  -11.6899   20.8716 C   0  0  0  0  0  0
  -23.9057  -10.4289   21.0388 C   0  0  0  0  0  0
  -24.3614   -9.4208   21.9170 C   0  0  0  0  0  0
  -23.6298   -8.2238   22.0747 C   0  0  0  0  0  0
  -22.4278   -8.0273   21.3540 C   0  0  0  0  0  0
  -21.9902   -9.0239   20.4639 C   0  0  0  0  0  0
  -22.7224  -10.2124   20.3043 C   0  0  0  0  0  0
  -21.6854   -6.0727   22.5281 C   0  0  0  0  0  0
  -21.4013   -6.5634   23.8210 C   0  0  0  0  0  0
  -21.3662   -5.6793   24.9174 C   0  0  0  0  0  0
  -21.6047   -4.3055   24.7229 C   0  0  0  0  0  0
  -21.8823   -3.8143   23.4353 C   0  0  0  0  0  0
  -21.9195   -4.6957   22.3407 C   0  0  0  0  0  0
  -22.7860  -13.5223   21.1848 C   0  0  0  0  0  0
  -22.1665   -4.2143   21.0985 F   0  0  0  0  0  0
  -21.5627   -3.4535   25.7742 F   0  0  0  0  0  0
  -30.0227  -13.3546   20.4282 N   0  0  0  0  0  0
  -26.3007  -12.9332   20.3314 N   0  0  0  0  0  0
  -25.9322  -11.6492   20.5728 N   0  0  0  0  0  0
  -22.0513  -12.8206   22.0411 N   0  0  0  0  0  0
  -25.4308  -15.1881   20.4093 N   0  0  0  0  0  0
  -31.8119  -14.7376   20.1418 O   0  0  0  0  0  0
  -21.6644   -6.8866   21.4243 O   0  0  0  0  0  0
  -22.3535  -14.5527   20.6701 O   0  0  0  0  0  0
  -24.6207  -31.8642   23.2072 C   0  0  0  0  0  0
  -25.9075  -32.4804   23.8380 C   0  0  1  0  0  0
  -27.2285  -27.3747   20.1015 C   0  0  0  0  0  0
  -25.5909  -33.8605   24.2309 N   0  0  0  0  0  0
  -23.4116  -30.4887   21.5497 C   0  0  2  0  0  0
  -24.8568  -28.9523   20.1122 C   0  0  0  0  0  0
  -22.7447  -29.4641   22.4973 C   0  0  0  0  0  0
  -18.0283  -28.1378   22.8485 C   0  0  0  0  0  0
  -24.1490  -36.7308   23.2637 C   0  0  0  0  0  0
  -25.9483  -30.8119   21.3703 C   0  0  0  0  0  0
  -26.0237  -29.4447   20.7103 C   0  0  0  0  0  0
  -27.2126  -28.6670   20.6950 C   0  0  0  0  0  0
  -26.0368  -26.9199   19.4876 C   0  0  0  0  0  0
  -24.8626  -27.6927   19.4939 C   0  0  0  0  0  0
  -23.6225  -29.8252   20.1640 C   0  0  0  0  0  0
  -25.4113  -36.3105   24.0331 C   0  0  1  0  0  0
  -20.5876  -28.3672   23.1305 C   0  0  2  0  0  0
  -20.6776  -26.9402   22.5417 C   0  0  0  0  0  0
  -19.5757  -26.6383   21.5214 C   0  0  0  0  0  0
  -18.1932  -26.7925   22.1618 C   0  0  0  0  0  0
  -19.1530  -28.8843   23.2891 C   0  0  0  0  0  0
  -18.9453  -30.1448   23.8905 C   0  0  0  0  0  0
  -17.6453  -30.6584   24.0561 C   0  0  0  0  0  0
  -25.9041  -34.9467   23.5119 C   0  0  0  0  0  0
  -16.5346  -29.9080   23.6327 C   0  0  0  0  0  0
  -16.7268  -28.6497   23.0346 C   0  0  0  0  0  0
  -26.4473  -31.6592   25.0727 C   0  0  0  0  0  0
  -25.3726  -31.3713   26.1470 C   0  0  0  0  0  0
  -27.0304  -30.3024   24.6138 C   0  0  0  0  0  0
  -27.6052  -32.4310   25.7489 C   0  0  0  0  0  0
  -27.5583  -37.1812   24.8462 C   0  0  0  0  0  0
  -21.4168  -29.3032   22.3708 N   0  0  0  0  0  0
  -26.4300  -37.3793   23.9401 N   0  0  0  0  0  0
  -24.6789  -31.0698   22.1001 N   0  0  0  0  0  0
  -23.4195  -28.8178   23.3030 O   0  0  0  0  0  0
  -28.3733  -26.5786   20.1382 O   0  0  0  0  0  0
  -26.5612  -34.8919   22.4686 O   0  0  0  0  0  0
  -23.5385  -32.1412   23.7435 O   0  0  0  0  0  0
  -29.5985  -21.4786   17.1220 C   0  0  0  0  0  0
  -29.3606  -22.4471   18.0408 C   0  0  0  0  0  0
  -29.8609  -20.2639   17.8068 C   0  0  0  0  0  0
  -29.7521  -20.5083   19.1638 C   0  0  0  0  0  0
  -30.1956  -18.9865   17.0773 C   0  0  0  0  0  0
  -29.9389  -19.5410   20.3490 C   0  0  0  0  0  0
  -29.8983  -17.9876   20.0560 C   0  0  0  0  0  0
  -29.4255  -24.2581   20.4311 C   0  0  0  0  0  0
  -29.2290  -22.6890   20.5329 C   0  0  0  0  0  0
  -30.2434  -17.0102   21.2305 C   0  0  0  0  0  0
  -28.1918  -25.1337   20.0242 C   0  0  0  0  0  0
  -29.4585  -21.8946   19.3048 N   0  0  0  0  0  0
  -29.8980  -15.5792   21.0030 N   0  0  0  0  0  0
  -31.4746  -12.4766   19.1236 H   0  0  0  0  0  0
  -30.3602  -11.3506   19.8473 H   0  0  0  0  0  0
  -29.7520  -11.7694   17.4444 H   0  0  0  0  0  0
  -29.6560  -13.4847   17.7468 H   0  0  0  0  0  0
  -27.8374  -11.3042   18.8241 H   0  0  0  0  0  0
  -27.3716  -12.6206   17.7829 H   0  0  0  0  0  0
  -27.6885  -14.2542   19.5484 H   0  0  0  0  0  0
  -28.6980  -11.9911   21.3376 H   0  0  0  0  0  0
  -28.4551  -13.6326   21.8583 H   0  0  0  0  0  0
  -25.2759   -9.5693   22.4738 H   0  0  0  0  0  0
  -24.0019   -7.4627   22.7461 H   0  0  0  0  0  0
  -21.0831   -8.8743   19.8946 H   0  0  0  0  0  0
  -22.3670  -10.9655   19.6148 H   0  0  0  0  0  0
  -21.2009   -7.6142   23.9713 H   0  0  0  0  0  0
  -21.1479   -6.0520   25.9077 H   0  0  0  0  0  0
  -22.0605   -2.7605   23.2857 H   0  0  0  0  0  0
  -22.4140  -11.9873   22.4807 H   0  0  0  0  0  0
  -21.1123  -13.1213   22.2604 H   0  0  0  0  0  0
  -24.6654  -15.8445   20.5170 H   0  0  0  0  0  0
  -26.2817  -15.6274   20.0806 H   0  0  0  0  0  0
  -26.7140  -32.5489   23.1134 H   0  0  0  0  0  0
  -25.0068  -33.9764   25.0460 H   0  0  0  0  0  0
  -22.7036  -31.3078   21.4105 H   0  0  0  0  0  0
  -23.3752  -35.9642   23.3310 H   0  0  0  0  0  0
  -24.3582  -36.8918   22.2051 H   0  0  0  0  0  0
  -23.7239  -37.6511   23.6648 H   0  0  0  0  0  0
  -26.0725  -31.5809   20.6065 H   0  0  0  0  0  0
  -26.8315  -30.8592   21.9958 H   0  0  0  0  0  0
  -28.1111  -29.0431   21.1642 H   0  0  0  0  0  0
  -25.9839  -25.9593   18.9976 H   0  0  0  0  0  0
  -23.9670  -27.3107   19.0229 H   0  0  0  0  0  0
  -23.7351  -30.6021   19.4069 H   0  0  0  0  0  0
  -22.7442  -29.2505   19.8640 H   0  0  0  0  0  0
  -25.1292  -36.1979   25.0825 H   0  0  0  0  0  0
  -20.9959  -28.3232   24.1426 H   0  0  0  0  0  0
  -20.5691  -26.2268   23.3602 H   0  0  0  0  0  0
  -21.6644  -26.7453   22.1198 H   0  0  0  0  0  0
  -19.6920  -25.6294   21.1239 H   0  0  0  0  0  0
  -19.6700  -27.3198   20.6750 H   0  0  0  0  0  0
  -17.4205  -26.6670   21.4021 H   0  0  0  0  0  0
  -18.0330  -26.0068   22.9018 H   0  0  0  0  0  0
  -19.7929  -30.7264   24.2276 H   0  0  0  0  0  0
  -17.5006  -31.6266   24.5156 H   0  0  0  0  0  0
  -15.5342  -30.2984   23.7650 H   0  0  0  0  0  0
  -15.8668  -28.0824   22.7055 H   0  0  0  0  0  0
  -24.5893  -30.7073   25.7793 H   0  0  0  0  0  0
  -24.8927  -32.2875   26.4922 H   0  0  0  0  0  0
  -25.8068  -30.8867   27.0225 H   0  0  0  0  0  0
  -26.2864  -29.6801   24.1155 H   0  0  0  0  0  0
  -27.4010  -29.7254   25.4619 H   0  0  0  0  0  0
  -27.8728  -30.4325   23.9342 H   0  0  0  0  0  0
  -27.2673  -33.3603   26.2089 H   0  0  0  0  0  0
  -28.3846  -32.6887   25.0303 H   0  0  0  0  0  0
  -28.0733  -31.8421   26.5385 H   0  0  0  0  0  0
  -28.2606  -38.0106   24.7508 H   0  0  0  0  0  0
  -28.1075  -36.2638   24.6295 H   0  0  0  0  0  0
  -27.2299  -37.1470   25.8866 H   0  0  0  0  0  0
  -20.9338  -29.8748   21.6919 H   0  0  0  0  0  0
  -26.0190  -38.2871   24.1401 H   0  0  0  0  0  0
  -29.5913  -21.6327   16.0508 H   0  0  0  0  0  0
  -29.1363  -23.4918   17.8850 H   0  0  0  0  0  0
  -30.1829  -19.1502   15.9993 H   0  0  0  0  0  0
  -29.4691  -18.2037   17.2955 H   0  0  0  0  0  0
  -31.1960  -18.6389   17.3357 H   0  0  0  0  0  0
  -29.1799  -19.7609   21.1004 H   0  0  0  0  0  0
  -30.8906  -19.7725   20.8284 H   0  0  0  0  0  0
  -30.6201  -17.7496   19.2802 H   0  0  0  0  0  0
  -28.9149  -17.7417   19.6553 H   0  0  0  0  0  0
  -30.2767  -24.4878   19.7896 H   0  0  0  0  0  0
  -29.7250  -24.5998   21.4219 H   0  0  0  0  0  0
  -28.2298  -22.4607   20.9064 H   0  0  0  0  0  0
  -29.9205  -22.3096   21.2858 H   0  0  0  0  0  0
  -29.6981  -17.3260   22.1204 H   0  0  0  0  0  0
  -31.3012  -17.0963   21.4851 H   0  0  0  0  0  0
  -27.3558  -24.8353   20.6594 H   0  0  0  0  0  0
  -27.9063  -24.8956   19.0005 H   0  0  0  0  0  0
  -28.9612  -15.3125   21.2679 H   0  0  0  0  0  0
  1 25  1  0  0  0
  1 30  2  0  0  0
  1 83  1  0  0  0
  2  3  1  0  0  0
  2 25  1  0  0  0
  2 84  1  0  0  0
  2 85  1  0  0  0
  3  4  1  0  0  0
  3 86  1  0  0  0
  3 87  1  0  0  0
  4  5  1  0  0  0
  4 88  1  0  0  0
  4 89  1  0  0  0
  5  6  1  0  0  0
  5 26  1  0  0  0
  5 90  1  0  0  0
  6 25  1  0  0  0
  6 91  1  0  0  0
  6 92  1  0  0  0
  7  8  2  0  0  0
  7 26  1  0  0  0
  7 29  1  0  0  0
  8  9  1  0  0  0
  8 22  1  0  0  0
  9 10  1  0  0  0
  9 27  2  0  0  0
 10 11  2  0  0  0
 10 15  1  0  0  0
 11 12  1  0  0  0
 11 93  1  0  0  0
 12 13  2  0  0  0
 12 94  1  0  0  0
 13 14  1  0  0  0
 13 31  1  0  0  0
 14 15  2  0  0  0
 14 95  1  0  0  0
 15 96  1  0  0  0
 16 17  2  0  0  0
 16 21  1  0  0  0
 16 31  1  0  0  0
 17 18  1  0  0  0
 17 97  1  0  0  0
 18 19  2  0  0  0
 18 98  1  0  0  0
 19 20  1  0  0  0
 19 24  1  0  0  0
 20 21  2  0  0  0
 20 99  1  0  0  0
 21 23  1  0  0  0
 22 28  1  0  0  0
 22 32  2  0  0  0
 26 27  1  0  0  0
 28100  1  0  0  0
 28101  1  0  0  0
 29102  1  0  0  0
 29103  1  0  0  0
 33 34  1  0  0  0
 33 66  1  0  0  0
 33 70  2  0  0  0
 34 36  1  0  0  0
 34 59  1  0  0  0
 34104  1  0  0  0
 35 44  2  0  0  0
 35 45  1  0  0  0
 35 68  1  0  0  0
 36 56  1  0  0  0
 36105  1  0  0  0
 37 39  1  0  0  0
 37 47  1  0  0  0
 37 66  1  0  0  0
 37106  1  0  0  0
 38 43  2  0  0  0
 38 46  1  0  0  0
 38 47  1  0  0  0
 39 64  1  0  0  0
 39 67  2  0  0  0
 40 52  1  0  0  0
 40 53  2  0  0  0
 40 58  1  0  0  0
 41107  1  0  0  0
 41108  1  0  0  0
 41109  1  0  0  0
 41 48  1  0  0  0
 42 43  1  0  0  0
 42 66  1  0  0  0
 42110  1  0  0  0
 42111  1  0  0  0
 43 44  1  0  0  0
 44112  1  0  0  0
 45 46  2  0  0  0
 45113  1  0  0  0
 46114  1  0  0  0
 47115  1  0  0  0
 47116  1  0  0  0
 48 56  1  0  0  0
 48 65  1  0  0  0
 48117  1  0  0  0
 49 50  1  0  0  0
 49 53  1  0  0  0
 49 64  1  0  0  0
 49118  1  0  0  0
 50 51  1  0  0  0
 50119  1  0  0  0
 50120  1  0  0  0
 51 52  1  0  0  0
 51121  1  0  0  0
 51122  1  0  0  0
 52123  1  0  0  0
 52124  1  0  0  0
 53 54  1  0  0  0
 54 55  2  0  0  0
 54125  1  0  0  0
 55 57  1  0  0  0
 55126  1  0  0  0
 56 69  2  0  0  0
 57 58  2  0  0  0
 57127  1  0  0  0
 58128  1  0  0  0
 59 60  1  0  0  0
 59 61  1  0  0  0
 59 62  1  0  0  0
 60129  1  0  0  0
 60130  1  0  0  0
 60131  1  0  0  0
 61132  1  0  0  0
 61133  1  0  0  0
 61134  1  0  0  0
 62135  1  0  0  0
 62136  1  0  0  0
 62137  1  0  0  0
 63 65  1  0  0  0
 63138  1  0  0  0
 63139  1  0  0  0
 63140  1  0  0  0
 64141  1  0  0  0
 65142  1  0  0  0
 68 81  1  0  0  0
 71 72  2  0  0  0
 71 73  1  0  0  0
 71143  1  0  0  0
 72 82  1  0  0  0
 72144  1  0  0  0
 73 74  2  0  0  0
 73 75  1  0  0  0
 74 76  1  0  0  0
 74 82  1  0  0  0
 75145  1  0  0  0
 75146  1  0  0  0
 75147  1  0  0  0
 76 77  1  0  0  0
 76148  1  0  0  0
 76149  1  0  0  0
 77 80  1  0  0  0
 77150  1  0  0  0
 77151  1  0  0  0
 78 79  1  0  0  0
 78 81  1  0  0  0
 78152  1  0  0  0
 78153  1  0  0  0
 79 82  1  0  0  0
 79154  1  0  0  0
 79155  1  0  0  0
 80 83  1  0  0  0
 80156  1  0  0  0
 80157  1  0  0  0
 81158  1  0  0  0
 81159  1  0  0  0
 83160  1  0  0  0
M  ISO  4   1 100  68 101  81 101  83 100
M  END
> <chiral flag>
0

> <version>
0

> <s_m_source_file>
/data/baiqing/PycharmProjects/Reinvent-master-3.2/result/LINK_invent/BTK/process_docking_weight1_custom_sum_contain_oxygen_bond_distance_aromatic_linkinvent_7_9_3/rearranged_h_0042.sdf

> <i_m_source_file_index>
23

> <r_mmod_Potential_Energy-OPLS-2005>
-58.1631317138672

> <r_mmod_Stretch_Energy-OPLS-2005>
59.1907501220703

> <r_mmod_Bend_Energy-OPLS-2005>
120.31379699707

> <r_mmod_Torsional_Energy-OPLS-2005>
211.407501220703

> <r_mmod_Improper_Torsional_Energy-OPLS-2005>
3.48494863510132

> <r_mmod_Van_der_Waal_Energy-OPLS-2005>
129.871627807617

> <r_mmod_Electrostatic_Energy-OPLS-2005>
-392.291625976562

> <r_mmod_Solvation_Energy-OPLS-2005>
-216.626815795898

> <b_mmod_Minimization_Converged-OPLS-2005>
0

> <r_mmod_RMS_Derivative-OPLS-2005>
1.09735810756683

$$$$
24
                    3D
 Structure written by MMmdl.
174183  0  0  1  0            999 V2000
  -30.7625  -14.3756   20.6612 C   0  0  0  0  0  0
  -30.4121  -12.2844   19.4010 C   0  0  0  0  0  0
  -29.4830  -12.5144   18.1947 C   0  0  0  0  0  0
  -28.0071  -12.3703   18.6102 C   0  0  0  0  0  0
  -27.6615  -13.1984   19.8749 C   0  0  2  0  0  0
  -28.6997  -12.9570   20.9919 C   0  0  0  0  0  0
  -25.2596  -13.8148   20.5673 C   0  0  0  0  0  0
  -24.1838  -13.0434   20.9171 C   0  0  0  0  0  0
  -24.6385  -11.6898   20.8739 C   0  0  0  0  0  0
  -23.9049  -10.4290   21.0411 C   0  0  0  0  0  0
  -24.3599   -9.4208   21.9189 C   0  0  0  0  0  0
  -23.6281   -8.2241   22.0758 C   0  0  0  0  0  0
  -22.4266   -8.0278   21.3543 C   0  0  0  0  0  0
  -21.9905   -9.0251   20.4644 C   0  0  0  0  0  0
  -22.7228  -10.2132   20.3055 C   0  0  0  0  0  0
  -21.6849   -6.0733   22.5280 C   0  0  0  0  0  0
  -21.4012   -6.5640   23.8213 C   0  0  0  0  0  0
  -21.3658   -5.6795   24.9177 C   0  0  0  0  0  0
  -21.6050   -4.3058   24.7226 C   0  0  0  0  0  0
  -21.8823   -3.8146   23.4351 C   0  0  0  0  0  0
  -21.9189   -4.6960   22.3406 C   0  0  0  0  0  0
  -22.7870  -13.5238   21.1830 C   0  0  0  0  0  0
  -22.1660   -4.2146   21.0985 F   0  0  0  0  0  0
  -21.5630   -3.4544   25.7742 F   0  0  0  0  0  0
  -30.0408  -13.2434   20.4502 N   0  0  0  0  0  0
  -26.3017  -12.9294   20.3362 N   0  0  0  0  0  0
  -25.9301  -11.6461   20.5755 N   0  0  0  0  0  0
  -22.0514  -12.8229   22.0390 N   0  0  0  0  0  0
  -25.4332  -15.1863   20.4069 N   0  0  0  0  0  0
  -31.8341  -14.6093   20.0919 O   0  0  0  0  0  0
  -21.6631   -6.8874   21.4241 O   0  0  0  0  0  0
  -22.3556  -14.5537   20.6673 O   0  0  0  0  0  0
  -24.6110  -31.8735   23.2153 C   0  0  0  0  0  0
  -25.9025  -32.4847   23.8432 C   0  0  1  0  0  0
  -27.2376  -27.4824   20.0692 C   0  0  0  0  0  0
  -25.5887  -33.8643   24.2352 N   0  0  0  0  0  0
  -23.3962  -30.4981   21.5556 C   0  0  2  0  0  0
  -24.8404  -28.9650   20.1238 C   0  0  0  0  0  0
  -22.7367  -29.4713   22.5031 C   0  0  0  0  0  0
  -18.0267  -28.1377   22.8508 C   0  0  0  0  0  0
  -24.1489  -36.7335   23.2638 C   0  0  0  0  0  0
  -25.9219  -30.8472   21.3652 C   0  0  0  0  0  0
  -25.9975  -29.4812   20.7201 C   0  0  0  0  0  0
  -27.1975  -28.7409   20.7034 C   0  0  0  0  0  0
  -26.0554  -26.9541   19.5073 C   0  0  0  0  0  0
  -24.8592  -27.6924   19.5262 C   0  0  0  0  0  0
  -23.6031  -29.8307   20.1701 C   0  0  0  0  0  0
  -25.4107  -36.3117   24.0336 C   0  0  1  0  0  0
  -20.5849  -28.3672   23.1337 C   0  0  2  0  0  0
  -20.6766  -26.9422   22.5420 C   0  0  0  0  0  0
  -19.5737  -26.6395   21.5221 C   0  0  0  0  0  0
  -18.1910  -26.7934   22.1626 C   0  0  0  0  0  0
  -19.1513  -28.8831   23.2923 C   0  0  0  0  0  0
  -18.9441  -30.1441   23.8939 C   0  0  0  0  0  0
  -17.6444  -30.6585   24.0569 C   0  0  0  0  0  0
  -25.9034  -34.9485   23.5138 C   0  0  0  0  0  0
  -16.5337  -29.9094   23.6323 C   0  0  0  0  0  0
  -16.7257  -28.6501   23.0361 C   0  0  0  0  0  0
  -26.4469  -31.6602   25.0740 C   0  0  0  0  0  0
  -25.3725  -31.3642   26.1457 C   0  0  0  0  0  0
  -27.0339  -30.3065   24.6100 C   0  0  0  0  0  0
  -27.6047  -32.4316   25.7502 C   0  0  0  0  0  0
  -27.5586  -37.1815   24.8463 C   0  0  0  0  0  0
  -21.4105  -29.3045   22.3738 N   0  0  0  0  0  0
  -26.4301  -37.3797   23.9408 N   0  0  0  0  0  0
  -24.6614  -31.0864   22.1041 N   0  0  0  0  0  0
  -23.4152  -28.8265   23.3072 O   0  0  0  0  0  0
  -28.4310  -26.8093   19.9921 O   0  0  0  0  0  0
  -26.5602  -34.8931   22.4703 O   0  0  0  0  0  0
  -23.5307  -32.1497   23.7548 O   0  0  0  0  0  0
  -28.9790  -23.9933   18.8411 C   0  0  0  0  0  0
  -27.5221  -24.9297   17.1583 C   0  0  0  0  0  0
  -28.4461  -25.1240   18.2038 C   0  0  0  0  0  0
  -28.5627  -22.7169   18.4281 C   0  0  0  0  0  0
  -27.1397  -23.6185   16.8295 C   0  0  0  0  0  0
  -29.8605  -20.5645   18.0563 C   0  0  0  0  0  0
  -28.1629  -20.6842   19.9294 C   0  0  0  0  0  0
  -30.5799  -19.4113   18.7680 C   0  0  0  0  0  0
  -28.8671  -19.5204   20.6503 C   0  0  0  0  0  0
  -29.1645  -21.4794   19.0759 C   0  0  2  0  0  0
  -29.6242  -18.5987   19.6677 C   0  0  2  0  0  0
  -24.6866  -23.1983   16.3565 C   0  0  0  0  0  0
  -30.8557  -15.4024   22.8612 C   0  0  0  0  0  0
  -28.8614  -26.5105   18.6604 C   0  0  0  0  0  0
  -26.0915  -23.3607   15.7629 C   0  0  0  0  0  0
  -30.4044  -17.4876   20.3937 C   0  0  0  0  0  0
  -29.5027  -16.4316   21.0719 C   0  0  0  0  0  0
  -27.6426  -22.5318   17.4543 N   0  0  0  0  0  0
  -30.2377  -15.2493   21.5444 N   0  0  0  0  0  0
  -31.4563  -12.3776   19.0960 H   0  0  0  0  0  0
  -30.3042  -11.2667   19.7784 H   0  0  0  0  0  0
  -29.7175  -11.8080   17.3972 H   0  0  0  0  0  0
  -29.6541  -13.5108   17.7835 H   0  0  0  0  0  0
  -27.8120  -11.3128   18.7924 H   0  0  0  0  0  0
  -27.3544  -12.6581   17.7847 H   0  0  0  0  0  0
  -27.7101  -14.2466   19.5845 H   0  0  0  0  0  0
  -28.6614  -11.9204   21.3281 H   0  0  0  0  0  0
  -28.4518  -13.5530   21.8712 H   0  0  0  0  0  0
  -25.2735   -9.5690   22.4773 H   0  0  0  0  0  0
  -23.9988   -7.4638   22.7483 H   0  0  0  0  0  0
  -21.0836   -8.8760   19.8947 H   0  0  0  0  0  0
  -22.3675  -10.9668   19.6167 H   0  0  0  0  0  0
  -21.2006   -7.6144   23.9710 H   0  0  0  0  0  0
  -21.1482   -6.0528   25.9079 H   0  0  0  0  0  0
  -22.0607   -2.7609   23.2853 H   0  0  0  0  0  0
  -22.4125  -11.9881   22.4761 H   0  0  0  0  0  0
  -21.1142  -13.1272   22.2610 H   0  0  0  0  0  0
  -24.6702  -15.8463   20.5133 H   0  0  0  0  0  0
  -26.2935  -15.6225   20.0996 H   0  0  0  0  0  0
  -26.7104  -32.5586   23.1211 H   0  0  0  0  0  0
  -25.0019  -33.9819   25.0475 H   0  0  0  0  0  0
  -22.6820  -31.3132   21.4181 H   0  0  0  0  0  0
  -23.3747  -35.9674   23.3299 H   0  0  0  0  0  0
  -24.3590  -36.8964   22.2056 H   0  0  0  0  0  0
  -23.7251  -37.6535   23.6683 H   0  0  0  0  0  0
  -26.0244  -31.6096   20.5920 H   0  0  0  0  0  0
  -26.8137  -30.9067   21.9779 H   0  0  0  0  0  0
  -28.0978  -29.1453   21.1465 H   0  0  0  0  0  0
  -26.0476  -25.9742   19.0577 H   0  0  0  0  0  0
  -23.9645  -27.2792   19.0817 H   0  0  0  0  0  0
  -23.7137  -30.6066   19.4110 H   0  0  0  0  0  0
  -22.7261  -29.2516   19.8748 H   0  0  0  0  0  0
  -25.1275  -36.1994   25.0827 H   0  0  0  0  0  0
  -20.9952  -28.3253   24.1457 H   0  0  0  0  0  0
  -20.5698  -26.2275   23.3604 H   0  0  0  0  0  0
  -21.6641  -26.7487   22.1205 H   0  0  0  0  0  0
  -19.6911  -25.6310   21.1233 H   0  0  0  0  0  0
  -19.6673  -27.3209   20.6757 H   0  0  0  0  0  0
  -17.4196  -26.6708   21.4012 H   0  0  0  0  0  0
  -18.0286  -26.0056   22.8992 H   0  0  0  0  0  0
  -19.7917  -30.7229   24.2349 H   0  0  0  0  0  0
  -17.5006  -31.6276   24.5154 H   0  0  0  0  0  0
  -15.5336  -30.3004   23.7624 H   0  0  0  0  0  0
  -15.8657  -28.0812   22.7089 H   0  0  0  0  0  0
  -24.5955  -30.6946   25.7757 H   0  0  0  0  0  0
  -24.8837  -32.2759   26.4902 H   0  0  0  0  0  0
  -25.8071  -30.8813   27.0216 H   0  0  0  0  0  0
  -26.2897  -29.6774   24.1205 H   0  0  0  0  0  0
  -27.4190  -29.7343   25.4548 H   0  0  0  0  0  0
  -27.8682  -30.4415   23.9210 H   0  0  0  0  0  0
  -27.2685  -33.3600   26.2125 H   0  0  0  0  0  0
  -28.3830  -32.6887   25.0310 H   0  0  0  0  0  0
  -28.0757  -31.8413   26.5374 H   0  0  0  0  0  0
  -28.2579  -38.0133   24.7535 H   0  0  0  0  0  0
  -28.1103  -36.2660   24.6268 H   0  0  0  0  0  0
  -27.2298  -37.1430   25.8860 H   0  0  0  0  0  0
  -20.9256  -29.8744   21.6946 H   0  0  0  0  0  0
  -26.0190  -38.2874   24.1424 H   0  0  0  0  0  0
  -29.6986  -24.1104   19.6394 H   0  0  0  0  0  0
  -27.0854  -25.7780   16.6479 H   0  0  0  0  0  0
  -29.1294  -20.1707   17.3480 H   0  0  0  0  0  0
  -30.5777  -21.1422   17.4715 H   0  0  0  0  0  0
  -27.7005  -21.3437   20.6647 H   0  0  0  0  0  0
  -27.3557  -20.3054   19.3015 H   0  0  0  0  0  0
  -31.4014  -19.8131   19.3641 H   0  0  0  0  0  0
  -31.0361  -18.7621   18.0191 H   0  0  0  0  0  0
  -28.1254  -18.9504   21.2100 H   0  0  0  0  0  0
  -29.5636  -19.9214   21.3884 H   0  0  0  0  0  0
  -29.9411  -21.8364   19.7546 H   0  0  0  0  0  0
  -28.8902  -18.1243   19.0134 H   0  0  0  0  0  0
  -23.9547  -22.9953   15.5755 H   0  0  0  0  0  0
  -24.3771  -24.1040   16.8803 H   0  0  0  0  0  0
  -24.6553  -22.3718   17.0660 H   0  0  0  0  0  0
  -30.1230  -15.7254   23.6017 H   0  0  0  0  0  0
  -31.6574  -16.1414   22.8261 H   0  0  0  0  0  0
  -31.2824  -14.4622   23.2160 H   0  0  0  0  0  0
  -28.5133  -27.2628   17.9509 H   0  0  0  0  0  0
  -29.9498  -26.5655   18.6376 H   0  0  0  0  0  0
  -26.3620  -22.4640   15.2028 H   0  0  0  0  0  0
  -26.0965  -24.1803   15.0428 H   0  0  0  0  0  0
  -31.0815  -17.9238   21.1294 H   0  0  0  0  0  0
  -31.0452  -17.0046   19.6563 H   0  0  0  0  0  0
  -28.7403  -16.1068   20.3646 H   0  0  0  0  0  0
  -28.9574  -16.8761   21.9050 H   0  0  0  0  0  0
  1 25  1  0  0  0
  1 30  2  0  0  0
  1 89  1  0  0  0
  2  3  1  0  0  0
  2 25  1  0  0  0
  2 90  1  0  0  0
  2 91  1  0  0  0
  3  4  1  0  0  0
  3 92  1  0  0  0
  3 93  1  0  0  0
  4  5  1  0  0  0
  4 94  1  0  0  0
  4 95  1  0  0  0
  5  6  1  0  0  0
  5 26  1  0  0  0
  5 96  1  0  0  0
  6 25  1  0  0  0
  6 97  1  0  0  0
  6 98  1  0  0  0
  7  8  2  0  0  0
  7 26  1  0  0  0
  7 29  1  0  0  0
  8  9  1  0  0  0
  8 22  1  0  0  0
  9 10  1  0  0  0
  9 27  2  0  0  0
 10 11  2  0  0  0
 10 15  1  0  0  0
 11 12  1  0  0  0
 11 99  1  0  0  0
 12 13  2  0  0  0
 12100  1  0  0  0
 13 14  1  0  0  0
 13 31  1  0  0  0
 14 15  2  0  0  0
 14101  1  0  0  0
 15102  1  0  0  0
 16 17  2  0  0  0
 16 21  1  0  0  0
 16 31  1  0  0  0
 17 18  1  0  0  0
 17103  1  0  0  0
 18 19  2  0  0  0
 18104  1  0  0  0
 19 20  1  0  0  0
 19 24  1  0  0  0
 20 21  2  0  0  0
 20105  1  0  0  0
 21 23  1  0  0  0
 22 28  1  0  0  0
 22 32  2  0  0  0
 26 27  1  0  0  0
 28106  1  0  0  0
 28107  1  0  0  0
 29108  1  0  0  0
 29109  1  0  0  0
 33 34  1  0  0  0
 33 66  1  0  0  0
 33 70  2  0  0  0
 34 36  1  0  0  0
 34 59  1  0  0  0
 34110  1  0  0  0
 35 44  2  0  0  0
 35 45  1  0  0  0
 35 68  1  0  0  0
 36 56  1  0  0  0
 36111  1  0  0  0
 37 39  1  0  0  0
 37 47  1  0  0  0
 37 66  1  0  0  0
 37112  1  0  0  0
 38 43  2  0  0  0
 38 46  1  0  0  0
 38 47  1  0  0  0
 39 64  1  0  0  0
 39 67  2  0  0  0
 40 52  1  0  0  0
 40 53  2  0  0  0
 40 58  1  0  0  0
 41113  1  0  0  0
 41114  1  0  0  0
 41115  1  0  0  0
 41 48  1  0  0  0
 42 43  1  0  0  0
 42 66  1  0  0  0
 42116  1  0  0  0
 42117  1  0  0  0
 43 44  1  0  0  0
 44118  1  0  0  0
 45 46  2  0  0  0
 45119  1  0  0  0
 46120  1  0  0  0
 47121  1  0  0  0
 47122  1  0  0  0
 48 56  1  0  0  0
 48 65  1  0  0  0
 48123  1  0  0  0
 49 50  1  0  0  0
 49 53  1  0  0  0
 49 64  1  0  0  0
 49124  1  0  0  0
 50 51  1  0  0  0
 50125  1  0  0  0
 50126  1  0  0  0
 51 52  1  0  0  0
 51127  1  0  0  0
 51128  1  0  0  0
 52129  1  0  0  0
 52130  1  0  0  0
 53 54  1  0  0  0
 54 55  2  0  0  0
 54131  1  0  0  0
 55 57  1  0  0  0
 55132  1  0  0  0
 56 69  2  0  0  0
 57 58  2  0  0  0
 57133  1  0  0  0
 58134  1  0  0  0
 59 60  1  0  0  0
 59 61  1  0  0  0
 59 62  1  0  0  0
 60135  1  0  0  0
 60136  1  0  0  0
 60137  1  0  0  0
 61138  1  0  0  0
 61139  1  0  0  0
 61140  1  0  0  0
 62141  1  0  0  0
 62142  1  0  0  0
 62143  1  0  0  0
 63 65  1  0  0  0
 63144  1  0  0  0
 63145  1  0  0  0
 63146  1  0  0  0
 64147  1  0  0  0
 65148  1  0  0  0
 68 84  1  0  0  0
 71 73  2  0  0  0
 71 74  1  0  0  0
 71149  1  0  0  0
 72 73  1  0  0  0
 72 75  2  0  0  0
 72150  1  0  0  0
 73 84  1  0  0  0
 74 88  2  0  0  0
 74 80  1  0  0  0
 75 85  1  0  0  0
 75 88  1  0  0  0
 76 78  1  0  0  0
 76 80  1  0  0  0
 76151  1  0  0  0
 76152  1  0  0  0
 77 79  1  0  0  0
 77 80  1  0  0  0
 77153  1  0  0  0
 77154  1  0  0  0
 78 81  1  0  0  0
 78155  1  0  0  0
 78156  1  0  0  0
 79 81  1  0  0  0
 79157  1  0  0  0
 79158  1  0  0  0
 80159  1  0  0  0
 81 86  1  0  0  0
 81160  1  0  0  0
 82 85  1  0  0  0
 82161  1  0  0  0
 82162  1  0  0  0
 82163  1  0  0  0
 83 89  1  0  0  0
 83164  1  0  0  0
 83165  1  0  0  0
 83166  1  0  0  0
 84167  1  0  0  0
 84168  1  0  0  0
 85169  1  0  0  0
 85170  1  0  0  0
 86 87  1  0  0  0
 86171  1  0  0  0
 86172  1  0  0  0
 87 89  1  0  0  0
 87173  1  0  0  0
 87174  1  0  0  0
M  ISO  4   1 100  68 101  84 101  89 100
M  END
> <chiral flag>
0

> <version>
0

> <s_m_source_file>
/data/baiqing/PycharmProjects/Reinvent-master-3.2/result/LINK_invent/BTK/process_docking_weight1_custom_sum_contain_oxygen_bond_distance_aromatic_linkinvent_7_9_3/rearranged_h_0042.sdf

> <i_m_source_file_index>
24

> <r_mmod_Potential_Energy-OPLS-2005>
-33.4220237731934

> <r_mmod_Stretch_Energy-OPLS-2005>
32.1740417480469

> <r_mmod_Bend_Energy-OPLS-2005>
90.0282592773438

> <r_mmod_Torsional_Energy-OPLS-2005>
312.569427490234

> <r_mmod_Improper_Torsional_Energy-OPLS-2005>
3.52185797691345

> <r_mmod_Van_der_Waal_Energy-OPLS-2005>
155.543609619141

> <r_mmod_Electrostatic_Energy-OPLS-2005>
-444.257171630859

> <r_mmod_Solvation_Energy-OPLS-2005>
-190.762619018555

> <b_mmod_Minimization_Converged-OPLS-2005>
0

> <r_mmod_RMS_Derivative-OPLS-2005>
1.92668378353119

$$$$
25
                    3D
 Structure written by MMmdl.
172180  0  0  1  0            999 V2000
  -30.7667  -14.3699   20.6795 C   0  0  0  0  0  0
  -30.4160  -12.2898   19.4001 C   0  0  0  0  0  0
  -29.4844  -12.5462   18.1993 C   0  0  0  0  0  0
  -28.0059  -12.4114   18.6120 C   0  0  0  0  0  0
  -27.6724  -13.2014   19.9049 C   0  0  2  0  0  0
  -28.7159  -12.8856   21.0032 C   0  0  0  0  0  0
  -25.2597  -13.8195   20.5708 C   0  0  0  0  0  0
  -24.1838  -13.0445   20.9181 C   0  0  0  0  0  0
  -24.6399  -11.6920   20.8734 C   0  0  0  0  0  0
  -23.9059  -10.4286   21.0378 C   0  0  0  0  0  0
  -24.3592   -9.4207   21.9171 C   0  0  0  0  0  0
  -23.6263   -8.2237   22.0772 C   0  0  0  0  0  0
  -22.4251   -8.0247   21.3532 C   0  0  0  0  0  0
  -21.9855   -9.0239   20.4649 C   0  0  0  0  0  0
  -22.7214  -10.2113   20.3052 C   0  0  0  0  0  0
  -21.6842   -6.0700   22.5241 C   0  0  0  0  0  0
  -21.4029   -6.5620   23.8183 C   0  0  0  0  0  0
  -21.3672   -5.6771   24.9155 C   0  0  0  0  0  0
  -21.6050   -4.3030   24.7202 C   0  0  0  0  0  0
  -21.8834   -3.8113   23.4327 C   0  0  0  0  0  0
  -21.9205   -4.6926   22.3375 C   0  0  0  0  0  0
  -22.7834  -13.5239   21.1829 C   0  0  0  0  0  0
  -22.1679   -4.2107   21.0961 F   0  0  0  0  0  0
  -21.5638   -3.4527   25.7727 F   0  0  0  0  0  0
  -30.0503  -13.2264   20.4766 N   0  0  0  0  0  0
  -26.3067  -12.9350   20.3517 N   0  0  0  0  0  0
  -25.9334  -11.6503   20.5814 N   0  0  0  0  0  0
  -22.0452  -12.8243   22.0389 N   0  0  0  0  0  0
  -25.4242  -15.1910   20.4105 N   0  0  0  0  0  0
  -31.7754  -14.6435   20.0265 O   0  0  0  0  0  0
  -21.6637   -6.8824   21.4200 O   0  0  0  0  0  0
  -22.3487  -14.5533   20.6696 O   0  0  0  0  0  0
  -24.6133  -31.8750   23.2127 C   0  0  0  0  0  0
  -25.9056  -32.4865   23.8421 C   0  0  1  0  0  0
  -27.2382  -27.4682   20.0813 C   0  0  0  0  0  0
  -25.5931  -33.8657   24.2337 N   0  0  0  0  0  0
  -23.3993  -30.4930   21.5571 C   0  0  2  0  0  0
  -24.8540  -28.9712   20.1147 C   0  0  0  0  0  0
  -22.7440  -29.4655   22.5053 C   0  0  0  0  0  0
  -18.0312  -28.1329   22.8600 C   0  0  0  0  0  0
  -24.1495  -36.7309   23.2636 C   0  0  0  0  0  0
  -25.9308  -30.8439   21.3698 C   0  0  0  0  0  0
  -26.0127  -29.4815   20.7163 C   0  0  0  0  0  0
  -27.2108  -28.7306   20.7087 C   0  0  0  0  0  0
  -26.0808  -26.9944   19.4383 C   0  0  0  0  0  0
  -24.8809  -27.7264   19.4695 C   0  0  0  0  0  0
  -23.6109  -29.8279   20.1722 C   0  0  0  0  0  0
  -25.4117  -36.3144   24.0334 C   0  0  1  0  0  0
  -20.5893  -28.3667   23.1444 C   0  0  2  0  0  0
  -20.6764  -26.9420   22.5503 C   0  0  0  0  0  0
  -19.5806  -26.6743   21.5155 C   0  0  0  0  0  0
  -18.2109  -26.7819   22.1885 C   0  0  0  0  0  0
  -19.1545  -28.8839   23.3008 C   0  0  0  0  0  0
  -18.9442  -30.1457   23.8991 C   0  0  0  0  0  0
  -17.6425  -30.6598   24.0573 C   0  0  0  0  0  0
  -25.9040  -34.9508   23.5121 C   0  0  0  0  0  0
  -16.5358  -29.9041   23.6344 C   0  0  0  0  0  0
  -16.7296  -28.6436   23.0401 C   0  0  0  0  0  0
  -26.4470  -31.6657   25.0748 C   0  0  0  0  0  0
  -25.3701  -31.3766   26.1466 C   0  0  0  0  0  0
  -27.0277  -30.3121   24.6097 C   0  0  0  0  0  0
  -27.6081  -32.4337   25.7493 C   0  0  0  0  0  0
  -27.5579  -37.1798   24.8453 C   0  0  0  0  0  0
  -21.4171  -29.2992   22.3789 N   0  0  0  0  0  0
  -26.4309  -37.3822   23.9390 N   0  0  0  0  0  0
  -24.6647  -31.0848   22.1041 N   0  0  0  0  0  0
  -23.4209  -28.8239   23.3104 O   0  0  0  0  0  0
  -28.3530  -26.6657   20.1453 O   0  0  0  0  0  0
  -26.5595  -34.8962   22.4663 O   0  0  0  0  0  0
  -23.5325  -32.1478   23.7555 O   0  0  0  0  0  0
  -27.6730  -20.0067   21.5720 C   0  0  0  0  0  0
  -28.6594  -21.3624   23.7035 C   0  0  0  0  0  0
  -28.0855  -19.3342   22.7437 C   0  0  0  0  0  0
  -28.2423  -22.0479   22.5254 C   0  0  0  0  0  0
  -27.1153  -19.2956   20.3543 C   0  0  0  0  0  0
  -29.1667  -22.0658   24.9510 C   0  0  0  0  0  0
  -26.0254  -23.7740   20.2425 C   0  0  0  0  0  0
  -29.9218  -23.9851   20.6549 C   0  0  0  0  0  0
  -28.0417  -17.8228   22.8664 C   0  0  0  0  0  0
  -28.1508  -23.5797   22.4300 C   0  0  0  0  0  0
  -27.5262  -23.8683   19.9003 C   0  0  0  0  0  0
  -29.3646  -17.1981   22.4004 C   0  0  0  0  0  0
  -29.2512  -15.6831   22.2264 C   0  0  0  0  0  0
  -28.3469  -25.8370   21.3229 C   0  0  0  0  0  0
  -28.4700  -24.3002   21.0666 C   0  0  2  0  0  0
  -28.5916  -20.0111   23.8028 N   0  0  0  0  0  0
  -27.7427  -21.3475   21.4815 N   0  0  0  0  0  0
  -30.5153  -15.1074   21.7719 N   0  0  0  0  0  0
  -31.4621  -12.3861   19.0991 H   0  0  0  0  0  0
  -30.3022  -11.2634   19.7538 H   0  0  0  0  0  0
  -29.7163  -11.8652   17.3820 H   0  0  0  0  0  0
  -29.6590  -13.5488   17.8113 H   0  0  0  0  0  0
  -27.7840  -11.3527   18.7442 H   0  0  0  0  0  0
  -27.3633  -12.7486   17.7989 H   0  0  0  0  0  0
  -27.7387  -14.2640   19.6688 H   0  0  0  0  0  0
  -28.6948  -11.8221   21.2435 H   0  0  0  0  0  0
  -28.4714  -13.3480   21.9535 H   0  0  0  0  0  0
  -25.2750   -9.5698   22.4731 H   0  0  0  0  0  0
  -23.9975   -7.4648   22.7523 H   0  0  0  0  0  0
  -21.0774   -8.8783   19.8960 H   0  0  0  0  0  0
  -22.3683  -10.9658   19.6160 H   0  0  0  0  0  0
  -21.2025   -7.6122   23.9664 H   0  0  0  0  0  0
  -21.1490   -6.0508   25.9053 H   0  0  0  0  0  0
  -22.0593   -2.7561   23.2841 H   0  0  0  0  0  0
  -22.4060  -11.9951   22.4859 H   0  0  0  0  0  0
  -21.1058  -13.1293   22.2565 H   0  0  0  0  0  0
  -24.6474  -15.8371   20.5074 H   0  0  0  0  0  0
  -26.2707  -15.6357   20.0800 H   0  0  0  0  0  0
  -26.7091  -32.5655   23.1177 H   0  0  0  0  0  0
  -25.0115  -33.9777   25.0514 H   0  0  0  0  0  0
  -22.6860  -31.3071   21.4191 H   0  0  0  0  0  0
  -23.3783  -35.9618   23.3347 H   0  0  0  0  0  0
  -24.3566  -36.8903   22.2040 H   0  0  0  0  0  0
  -23.7226  -37.6511   23.6621 H   0  0  0  0  0  0
  -26.0393  -31.6106   20.6003 H   0  0  0  0  0  0
  -26.8204  -30.9023   21.9866 H   0  0  0  0  0  0
  -28.1029  -29.1014   21.1892 H   0  0  0  0  0  0
  -26.0952  -26.0545   18.9135 H   0  0  0  0  0  0
  -23.9965  -27.3362   18.9864 H   0  0  0  0  0  0
  -23.7204  -30.6064   19.4186 H   0  0  0  0  0  0
  -22.7388  -29.2463   19.8672 H   0  0  0  0  0  0
  -25.1292  -36.2002   25.0829 H   0  0  0  0  0  0
  -20.9927  -28.3183   24.1600 H   0  0  0  0  0  0
  -20.5472  -26.2218   23.3600 H   0  0  0  0  0  0
  -21.6674  -26.7382   22.1464 H   0  0  0  0  0  0
  -19.7124  -25.6949   21.0570 H   0  0  0  0  0  0
  -19.6560  -27.4072   20.7087 H   0  0  0  0  0  0
  -17.4121  -26.5966   21.4696 H   0  0  0  0  0  0
  -18.1221  -26.0089   22.9520 H   0  0  0  0  0  0
  -19.7861  -30.7299   24.2478 H   0  0  0  0  0  0
  -17.4932  -31.6310   24.5118 H   0  0  0  0  0  0
  -15.5358  -30.2892   23.7752 H   0  0  0  0  0  0
  -15.8739  -28.0712   22.7094 H   0  0  0  0  0  0
  -24.5812  -30.7226   25.7751 H   0  0  0  0  0  0
  -24.8955  -32.2934   26.4995 H   0  0  0  0  0  0
  -25.7997  -30.8822   27.0197 H   0  0  0  0  0  0
  -26.2812  -29.6930   24.1115 H   0  0  0  0  0  0
  -27.4047  -29.7322   25.4540 H   0  0  0  0  0  0
  -27.8668  -30.4493   23.9257 H   0  0  0  0  0  0
  -27.2740  -33.3612   26.2167 H   0  0  0  0  0  0
  -28.3842  -32.6956   25.0277 H   0  0  0  0  0  0
  -28.0802  -31.8400   26.5335 H   0  0  0  0  0  0
  -28.2607  -38.0085   24.7501 H   0  0  0  0  0  0
  -28.1049  -36.2616   24.6269 H   0  0  0  0  0  0
  -27.2277  -37.1451   25.8851 H   0  0  0  0  0  0
  -20.9383  -29.8478   21.6812 H   0  0  0  0  0  0
  -26.0226  -38.2924   24.1364 H   0  0  0  0  0  0
  -26.1349  -18.8787   20.5867 H   0  0  0  0  0  0
  -27.7755  -18.4897   20.0348 H   0  0  0  0  0  0
  -27.0051  -19.9896   19.5193 H   0  0  0  0  0  0
  -28.3606  -22.6037   25.4490 H   0  0  0  0  0  0
  -29.9681  -22.7662   24.7159 H   0  0  0  0  0  0
  -29.5624  -21.3448   25.6675 H   0  0  0  0  0  0
  -25.4329  -23.5870   19.3478 H   0  0  0  0  0  0
  -25.6480  -24.6846   20.7070 H   0  0  0  0  0  0
  -25.8128  -22.9619   20.9328 H   0  0  0  0  0  0
  -30.0576  -22.9157   20.4795 H   0  0  0  0  0  0
  -30.6266  -24.2854   21.4302 H   0  0  0  0  0  0
  -30.2017  -24.4998   19.7370 H   0  0  0  0  0  0
  -27.2003  -17.4406   22.2902 H   0  0  0  0  0  0
  -27.8404  -17.5446   23.9015 H   0  0  0  0  0  0
  -28.8264  -23.9978   23.1758 H   0  0  0  0  0  0
  -27.1523  -23.8597   22.7655 H   0  0  0  0  0  0
  -27.6648  -24.5437   19.0566 H   0  0  0  0  0  0
  -27.8433  -22.9108   19.4902 H   0  0  0  0  0  0
  -30.1561  -17.4577   23.1067 H   0  0  0  0  0  0
  -29.6488  -17.6326   21.4422 H   0  0  0  0  0  0
  -28.4407  -15.4847   21.5278 H   0  0  0  0  0  0
  -28.9852  -15.2350   23.1835 H   0  0  0  0  0  0
  -29.1630  -26.1685   21.9659 H   0  0  0  0  0  0
  -27.4448  -26.0200   21.9135 H   0  0  0  0  0  0
  -31.3042  -15.7025   21.9801 H   0  0  0  0  0  0
  1 25  1  0  0  0
  1 30  2  0  0  0
  1 88  1  0  0  0
  2  3  1  0  0  0
  2 25  1  0  0  0
  2 89  1  0  0  0
  2 90  1  0  0  0
  3  4  1  0  0  0
  3 91  1  0  0  0
  3 92  1  0  0  0
  4  5  1  0  0  0
  4 93  1  0  0  0
  4 94  1  0  0  0
  5  6  1  0  0  0
  5 26  1  0  0  0
  5 95  1  0  0  0
  6 25  1  0  0  0
  6 96  1  0  0  0
  6 97  1  0  0  0
  7  8  2  0  0  0
  7 26  1  0  0  0
  7 29  1  0  0  0
  8  9  1  0  0  0
  8 22  1  0  0  0
  9 10  1  0  0  0
  9 27  2  0  0  0
 10 11  2  0  0  0
 10 15  1  0  0  0
 11 12  1  0  0  0
 11 98  1  0  0  0
 12 13  2  0  0  0
 12 99  1  0  0  0
 13 14  1  0  0  0
 13 31  1  0  0  0
 14 15  2  0  0  0
 14100  1  0  0  0
 15101  1  0  0  0
 16 17  2  0  0  0
 16 21  1  0  0  0
 16 31  1  0  0  0
 17 18  1  0  0  0
 17102  1  0  0  0
 18 19  2  0  0  0
 18103  1  0  0  0
 19 20  1  0  0  0
 19 24  1  0  0  0
 20 21  2  0  0  0
 20104  1  0  0  0
 21 23  1  0  0  0
 22 28  1  0  0  0
 22 32  2  0  0  0
 26 27  1  0  0  0
 28105  1  0  0  0
 28106  1  0  0  0
 29107  1  0  0  0
 29108  1  0  0  0
 33 34  1  0  0  0
 33 66  1  0  0  0
 33 70  2  0  0  0
 34 36  1  0  0  0
 34 59  1  0  0  0
 34109  1  0  0  0
 35 44  2  0  0  0
 35 45  1  0  0  0
 35 68  1  0  0  0
 36 56  1  0  0  0
 36110  1  0  0  0
 37 39  1  0  0  0
 37 47  1  0  0  0
 37 66  1  0  0  0
 37111  1  0  0  0
 38 43  2  0  0  0
 38 46  1  0  0  0
 38 47  1  0  0  0
 39 64  1  0  0  0
 39 67  2  0  0  0
 40 52  1  0  0  0
 40 53  2  0  0  0
 40 58  1  0  0  0
 41112  1  0  0  0
 41113  1  0  0  0
 41114  1  0  0  0
 41 48  1  0  0  0
 42 43  1  0  0  0
 42 66  1  0  0  0
 42115  1  0  0  0
 42116  1  0  0  0
 43 44  1  0  0  0
 44117  1  0  0  0
 45 46  2  0  0  0
 45118  1  0  0  0
 46119  1  0  0  0
 47120  1  0  0  0
 47121  1  0  0  0
 48 56  1  0  0  0
 48 65  1  0  0  0
 48122  1  0  0  0
 49 50  1  0  0  0
 49 53  1  0  0  0
 49 64  1  0  0  0
 49123  1  0  0  0
 50 51  1  0  0  0
 50124  1  0  0  0
 50125  1  0  0  0
 51 52  1  0  0  0
 51126  1  0  0  0
 51127  1  0  0  0
 52128  1  0  0  0
 52129  1  0  0  0
 53 54  1  0  0  0
 54 55  2  0  0  0
 54130  1  0  0  0
 55 57  1  0  0  0
 55131  1  0  0  0
 56 69  2  0  0  0
 57 58  2  0  0  0
 57132  1  0  0  0
 58133  1  0  0  0
 59 60  1  0  0  0
 59 61  1  0  0  0
 59 62  1  0  0  0
 60134  1  0  0  0
 60135  1  0  0  0
 60136  1  0  0  0
 61137  1  0  0  0
 61138  1  0  0  0
 61139  1  0  0  0
 62140  1  0  0  0
 62141  1  0  0  0
 62142  1  0  0  0
 63 65  1  0  0  0
 63143  1  0  0  0
 63144  1  0  0  0
 63145  1  0  0  0
 64146  1  0  0  0
 65147  1  0  0  0
 68 84  1  0  0  0
 71 73  2  0  0  0
 71 75  1  0  0  0
 71 87  1  0  0  0
 72 74  1  0  0  0
 72 76  1  0  0  0
 72 86  2  0  0  0
 73 79  1  0  0  0
 73 86  1  0  0  0
 74 80  1  0  0  0
 74 87  2  0  0  0
 75148  1  0  0  0
 75149  1  0  0  0
 75150  1  0  0  0
 76151  1  0  0  0
 76152  1  0  0  0
 76153  1  0  0  0
 77 81  1  0  0  0
 77154  1  0  0  0
 77155  1  0  0  0
 77156  1  0  0  0
 78157  1  0  0  0
 78158  1  0  0  0
 78159  1  0  0  0
 78 85  1  0  0  0
 79 82  1  0  0  0
 79160  1  0  0  0
 79161  1  0  0  0
 80 85  1  0  0  0
 80162  1  0  0  0
 80163  1  0  0  0
 81 85  1  0  0  0
 81164  1  0  0  0
 81165  1  0  0  0
 82 83  1  0  0  0
 82166  1  0  0  0
 82167  1  0  0  0
 83 88  1  0  0  0
 83168  1  0  0  0
 83169  1  0  0  0
 84 85  1  0  0  0
 84170  1  0  0  0
 84171  1  0  0  0
 88172  1  0  0  0
M  ISO  4   1 100  68 101  84 101  88 100
M  END
> <chiral flag>
0

> <version>
0

> <s_m_source_file>
/data/baiqing/PycharmProjects/Reinvent-master-3.2/result/LINK_invent/BTK/process_docking_weight1_custom_sum_contain_oxygen_bond_distance_aromatic_linkinvent_7_9_3/rearranged_h_0042.sdf

> <i_m_source_file_index>
25

> <r_mmod_Potential_Energy-OPLS-2005>
55.8262100219727

> <r_mmod_Stretch_Energy-OPLS-2005>
41.2384338378906

> <r_mmod_Bend_Energy-OPLS-2005>
126.160789489746

> <r_mmod_Torsional_Energy-OPLS-2005>
275.657318115234

> <r_mmod_Improper_Torsional_Energy-OPLS-2005>
8.8074836730957

> <r_mmod_Van_der_Waal_Energy-OPLS-2005>
166.466812133789

> <r_mmod_Electrostatic_Energy-OPLS-2005>
-365.366180419922

> <r_mmod_Solvation_Energy-OPLS-2005>
-208.354614257812

> <b_mmod_Minimization_Converged-OPLS-2005>
0

> <r_mmod_RMS_Derivative-OPLS-2005>
5.87419271469116

$$$$
26
                    3D
 Structure written by MMmdl.
160168  0  0  1  0            999 V2000
  -30.6764  -14.5422   20.5478 C   0  0  0  0  0  0
  -30.4207  -12.3432   19.4500 C   0  0  0  0  0  0
  -29.5047  -12.5054   18.2185 C   0  0  0  0  0  0
  -28.0128  -12.4090   18.6012 C   0  0  0  0  0  0
  -27.6515  -13.2324   19.8672 C   0  0  2  0  0  0
  -28.6885  -13.0431   20.9951 C   0  0  0  0  0  0
  -25.2506  -13.8230   20.5719 C   0  0  0  0  0  0
  -24.1790  -13.0463   20.9178 C   0  0  0  0  0  0
  -24.6381  -11.6937   20.8705 C   0  0  0  0  0  0
  -23.9067  -10.4300   21.0371 C   0  0  0  0  0  0
  -24.3622   -9.4217   21.9151 C   0  0  0  0  0  0
  -23.6305   -8.2251   22.0737 C   0  0  0  0  0  0
  -22.4282   -8.0280   21.3527 C   0  0  0  0  0  0
  -21.9924   -9.0241   20.4612 C   0  0  0  0  0  0
  -22.7248  -10.2119   20.3012 C   0  0  0  0  0  0
  -21.6854   -6.0736   22.5272 C   0  0  0  0  0  0
  -21.4005   -6.5635   23.8208 C   0  0  0  0  0  0
  -21.3665   -5.6781   24.9165 C   0  0  0  0  0  0
  -21.6055   -4.3048   24.7212 C   0  0  0  0  0  0
  -21.8820   -3.8140   23.4334 C   0  0  0  0  0  0
  -21.9202   -4.6962   22.3393 C   0  0  0  0  0  0
  -22.7797  -13.5212   21.1869 C   0  0  0  0  0  0
  -22.1664   -4.2154   21.0970 F   0  0  0  0  0  0
  -21.5647   -3.4530   25.7725 F   0  0  0  0  0  0
  -30.0163  -13.3524   20.4464 N   0  0  0  0  0  0
  -26.2950  -12.9451   20.3298 N   0  0  0  0  0  0
  -25.9297  -11.6569   20.5675 N   0  0  0  0  0  0
  -22.0445  -12.8158   22.0387 N   0  0  0  0  0  0
  -25.4244  -15.1975   20.4258 N   0  0  0  0  0  0
  -31.8203  -14.6911   20.1110 O   0  0  0  0  0  0
  -21.6641   -6.8880   21.4232 O   0  0  0  0  0  0
  -22.3453  -14.5519   20.6720 O   0  0  0  0  0  0
  -24.6198  -31.8675   23.2088 C   0  0  0  0  0  0
  -25.9055  -32.4842   23.8395 C   0  0  1  0  0  0
  -27.2265  -27.3744   20.0973 C   0  0  0  0  0  0
  -25.5906  -33.8647   24.2337 N   0  0  0  0  0  0
  -23.4079  -30.4952   21.5513 C   0  0  2  0  0  0
  -24.8509  -28.9621   20.1076 C   0  0  0  0  0  0
  -22.7437  -29.4678   22.4966 C   0  0  0  0  0  0
  -18.0274  -28.1401   22.8486 C   0  0  0  0  0  0
  -24.1471  -36.7295   23.2646 C   0  0  0  0  0  0
  -25.9431  -30.8216   21.3608 C   0  0  0  0  0  0
  -26.0171  -29.4500   20.7076 C   0  0  0  0  0  0
  -27.2022  -28.6650   20.6979 C   0  0  0  0  0  0
  -26.0234  -26.9141   19.5054 C   0  0  0  0  0  0
  -24.8548  -27.6981   19.5010 C   0  0  0  0  0  0
  -23.6140  -29.8345   20.1634 C   0  0  0  0  0  0
  -25.4097  -36.3148   24.0359 C   0  0  1  0  0  0
  -20.5868  -28.3678   23.1305 C   0  0  2  0  0  0
  -20.6773  -26.9410   22.5409 C   0  0  0  0  0  0
  -19.5753  -26.6411   21.5207 C   0  0  0  0  0  0
  -18.1924  -26.7954   22.1605 C   0  0  0  0  0  0
  -19.1526  -28.8860   23.2907 C   0  0  0  0  0  0
  -18.9466  -30.1459   23.8922 C   0  0  0  0  0  0
  -17.6470  -30.6602   24.0585 C   0  0  0  0  0  0
  -25.9025  -34.9499   23.5153 C   0  0  0  0  0  0
  -16.5357  -29.9100   23.6350 C   0  0  0  0  0  0
  -16.7268  -28.6533   23.0352 C   0  0  0  0  0  0
  -26.4435  -31.6628   25.0736 C   0  0  0  0  0  0
  -25.3684  -31.3723   26.1478 C   0  0  0  0  0  0
  -27.0236  -30.3088   24.6065 C   0  0  0  0  0  0
  -27.6051  -32.4309   25.7470 C   0  0  0  0  0  0
  -27.5577  -37.1818   24.8483 C   0  0  0  0  0  0
  -21.4154  -29.3058   22.3712 N   0  0  0  0  0  0
  -26.4288  -37.3828   23.9419 N   0  0  0  0  0  0
  -24.6774  -31.0747   22.0982 N   0  0  0  0  0  0
  -23.4204  -28.8210   23.3013 O   0  0  0  0  0  0
  -28.3931  -26.6063   20.1637 O   0  0  0  0  0  0
  -26.5596  -34.8948   22.4719 O   0  0  0  0  0  0
  -23.5381  -32.1418   23.7451 O   0  0  0  0  0  0
  -30.6840  -22.9100   21.1921 C   0  0  0  0  0  0
  -29.5250  -22.1856   21.2272 C   0  0  0  0  0  0
  -28.5271  -23.0302   20.6242 C   0  0  0  0  0  0
  -29.1128  -24.2191   20.2276 C   0  0  0  0  0  0
  -27.0779  -22.6627   20.4284 C   0  0  0  0  0  0
  -31.4720  -25.1574   20.4127 C   0  0  0  0  0  0
  -29.3678  -20.7762   21.8326 C   0  0  0  0  0  0
  -28.5489  -25.3794   19.3973 C   0  0  0  0  0  0
  -29.8077  -19.5930   20.9177 C   0  0  0  0  0  0
  -29.6546  -18.1485   21.5125 C   0  0  0  0  0  0
  -30.3009  -17.0263   20.6316 C   0  0  0  0  0  0
  -30.4492  -24.1419   20.6035 N   0  0  0  0  0  0
  -29.9502  -15.6168   20.9541 N   0  0  0  0  0  0
  -31.4644  -12.4501   19.1534 H   0  0  0  0  0  0
  -30.3357  -11.3419   19.8727 H   0  0  0  0  0  0
  -29.7423  -11.7478   17.4711 H   0  0  0  0  0  0
  -29.6982  -13.4697   17.7476 H   0  0  0  0  0  0
  -27.7653  -11.3593   18.7471 H   0  0  0  0  0  0
  -27.3990  -12.7471   17.7644 H   0  0  0  0  0  0
  -27.6823  -14.2816   19.5699 H   0  0  0  0  0  0
  -28.6652  -12.0148   21.3578 H   0  0  0  0  0  0
  -28.4440  -13.6687   21.8552 H   0  0  0  0  0  0
  -25.2779   -9.5697   22.4704 H   0  0  0  0  0  0
  -24.0028   -7.4640   22.7447 H   0  0  0  0  0  0
  -21.0877   -8.8730   19.8900 H   0  0  0  0  0  0
  -22.3719  -10.9631   19.6090 H   0  0  0  0  0  0
  -21.1962   -7.6138   23.9710 H   0  0  0  0  0  0
  -21.1498   -6.0507   25.9074 H   0  0  0  0  0  0
  -22.0596   -2.7605   23.2820 H   0  0  0  0  0  0
  -22.4081  -11.9819   22.4768 H   0  0  0  0  0  0
  -21.1004  -13.1066   22.2517 H   0  0  0  0  0  0
  -24.6736  -15.8621   20.5782 H   0  0  0  0  0  0
  -26.2892  -15.6371   20.1363 H   0  0  0  0  0  0
  -26.7131  -32.5538   23.1159 H   0  0  0  0  0  0
  -25.0127  -33.9801   25.0541 H   0  0  0  0  0  0
  -22.6991  -31.3165   21.4173 H   0  0  0  0  0  0
  -23.3774  -35.9595   23.3347 H   0  0  0  0  0  0
  -24.3572  -36.8841   22.2054 H   0  0  0  0  0  0
  -23.7150  -37.6493   23.6600 H   0  0  0  0  0  0
  -26.0446  -31.5815   20.5833 H   0  0  0  0  0  0
  -26.8366  -30.8890   21.9707 H   0  0  0  0  0  0
  -28.0996  -29.0385   21.1699 H   0  0  0  0  0  0
  -25.9182  -25.9371   19.0670 H   0  0  0  0  0  0
  -23.9534  -27.3156   19.0409 H   0  0  0  0  0  0
  -23.7112  -30.6140   19.4062 H   0  0  0  0  0  0
  -22.7350  -29.2563   19.8725 H   0  0  0  0  0  0
  -25.1250  -36.2050   25.0854 H   0  0  0  0  0  0
  -20.9988  -28.3257   24.1417 H   0  0  0  0  0  0
  -20.5679  -26.2276   23.3594 H   0  0  0  0  0  0
  -21.6630  -26.7458   22.1188 H   0  0  0  0  0  0
  -19.6908  -25.6340   21.1191 H   0  0  0  0  0  0
  -19.6699  -27.3271   20.6782 H   0  0  0  0  0  0
  -17.4190  -26.6756   21.3994 H   0  0  0  0  0  0
  -18.0300  -26.0076   22.8976 H   0  0  0  0  0  0
  -19.7945  -30.7282   24.2283 H   0  0  0  0  0  0
  -17.5023  -31.6269   24.5202 H   0  0  0  0  0  0
  -15.5358  -30.3017   23.7667 H   0  0  0  0  0  0
  -15.8666  -28.0871   22.7038 H   0  0  0  0  0  0
  -24.5995  -30.6873   25.7856 H   0  0  0  0  0  0
  -24.8684  -32.2843   26.4770 H   0  0  0  0  0  0
  -25.8049  -30.9096   27.0331 H   0  0  0  0  0  0
  -26.2774  -29.6916   24.1049 H   0  0  0  0  0  0
  -27.3969  -29.7244   25.4473 H   0  0  0  0  0  0
  -27.8594  -30.4441   23.9201 H   0  0  0  0  0  0
  -27.2775  -33.3687   26.1950 H   0  0  0  0  0  0
  -28.3891  -32.6712   25.0282 H   0  0  0  0  0  0
  -28.0645  -31.8455   26.5440 H   0  0  0  0  0  0
  -28.2620  -38.0093   24.7557 H   0  0  0  0  0  0
  -28.1035  -36.2637   24.6279 H   0  0  0  0  0  0
  -27.2300  -37.1439   25.8887 H   0  0  0  0  0  0
  -20.9315  -29.8788   21.6938 H   0  0  0  0  0  0
  -26.0204  -38.2900   24.1467 H   0  0  0  0  0  0
  -31.6750  -22.6493   21.5415 H   0  0  0  0  0  0
  -26.9085  -21.6005   20.6041 H   0  0  0  0  0  0
  -26.7559  -22.8863   19.4115 H   0  0  0  0  0  0
  -26.4488  -23.2198   21.1227 H   0  0  0  0  0  0
  -32.4576  -24.7440   20.6294 H   0  0  0  0  0  0
  -31.2965  -25.9876   21.0969 H   0  0  0  0  0  0
  -31.4683  -25.5238   19.3847 H   0  0  0  0  0  0
  -28.3347  -20.6441   22.1539 H   0  0  0  0  0  0
  -29.9604  -20.7414   22.7483 H   0  0  0  0  0  0
  -27.6664  -25.0256   18.8759 H   0  0  0  0  0  0
  -29.2456  -25.6050   18.5894 H   0  0  0  0  0  0
  -30.8500  -19.7582   20.6422 H   0  0  0  0  0  0
  -29.2361  -19.6444   19.9902 H   0  0  0  0  0  0
  -28.5947  -17.9453   21.6692 H   0  0  0  0  0  0
  -30.1147  -18.1182   22.5005 H   0  0  0  0  0  0
  -31.3836  -17.1487   20.6774 H   0  0  0  0  0  0
  -30.0295  -17.1945   19.5878 H   0  0  0  0  0  0
  -29.0098  -15.4340   21.2739 H   0  0  0  0  0  0
  1 25  1  0  0  0
  1 30  2  0  0  0
  1 83  1  0  0  0
  2  3  1  0  0  0
  2 25  1  0  0  0
  2 84  1  0  0  0
  2 85  1  0  0  0
  3  4  1  0  0  0
  3 86  1  0  0  0
  3 87  1  0  0  0
  4  5  1  0  0  0
  4 88  1  0  0  0
  4 89  1  0  0  0
  5  6  1  0  0  0
  5 26  1  0  0  0
  5 90  1  0  0  0
  6 25  1  0  0  0
  6 91  1  0  0  0
  6 92  1  0  0  0
  7  8  2  0  0  0
  7 26  1  0  0  0
  7 29  1  0  0  0
  8  9  1  0  0  0
  8 22  1  0  0  0
  9 10  1  0  0  0
  9 27  2  0  0  0
 10 11  2  0  0  0
 10 15  1  0  0  0
 11 12  1  0  0  0
 11 93  1  0  0  0
 12 13  2  0  0  0
 12 94  1  0  0  0
 13 14  1  0  0  0
 13 31  1  0  0  0
 14 15  2  0  0  0
 14 95  1  0  0  0
 15 96  1  0  0  0
 16 17  2  0  0  0
 16 21  1  0  0  0
 16 31  1  0  0  0
 17 18  1  0  0  0
 17 97  1  0  0  0
 18 19  2  0  0  0
 18 98  1  0  0  0
 19 20  1  0  0  0
 19 24  1  0  0  0
 20 21  2  0  0  0
 20 99  1  0  0  0
 21 23  1  0  0  0
 22 28  1  0  0  0
 22 32  2  0  0  0
 26 27  1  0  0  0
 28100  1  0  0  0
 28101  1  0  0  0
 29102  1  0  0  0
 29103  1  0  0  0
 33 34  1  0  0  0
 33 66  1  0  0  0
 33 70  2  0  0  0
 34 36  1  0  0  0
 34 59  1  0  0  0
 34104  1  0  0  0
 35 44  2  0  0  0
 35 45  1  0  0  0
 35 68  1  0  0  0
 36 56  1  0  0  0
 36105  1  0  0  0
 37 39  1  0  0  0
 37 47  1  0  0  0
 37 66  1  0  0  0
 37106  1  0  0  0
 38 43  2  0  0  0
 38 46  1  0  0  0
 38 47  1  0  0  0
 39 64  1  0  0  0
 39 67  2  0  0  0
 40 52  1  0  0  0
 40 53  2  0  0  0
 40 58  1  0  0  0
 41107  1  0  0  0
 41108  1  0  0  0
 41109  1  0  0  0
 41 48  1  0  0  0
 42 43  1  0  0  0
 42 66  1  0  0  0
 42110  1  0  0  0
 42111  1  0  0  0
 43 44  1  0  0  0
 44112  1  0  0  0
 45 46  2  0  0  0
 45113  1  0  0  0
 46114  1  0  0  0
 47115  1  0  0  0
 47116  1  0  0  0
 48 56  1  0  0  0
 48 65  1  0  0  0
 48117  1  0  0  0
 49 50  1  0  0  0
 49 53  1  0  0  0
 49 64  1  0  0  0
 49118  1  0  0  0
 50 51  1  0  0  0
 50119  1  0  0  0
 50120  1  0  0  0
 51 52  1  0  0  0
 51121  1  0  0  0
 51122  1  0  0  0
 52123  1  0  0  0
 52124  1  0  0  0
 53 54  1  0  0  0
 54 55  2  0  0  0
 54125  1  0  0  0
 55 57  1  0  0  0
 55126  1  0  0  0
 56 69  2  0  0  0
 57 58  2  0  0  0
 57127  1  0  0  0
 58128  1  0  0  0
 59 60  1  0  0  0
 59 61  1  0  0  0
 59 62  1  0  0  0
 60129  1  0  0  0
 60130  1  0  0  0
 60131  1  0  0  0
 61132  1  0  0  0
 61133  1  0  0  0
 61134  1  0  0  0
 62135  1  0  0  0
 62136  1  0  0  0
 62137  1  0  0  0
 63 65  1  0  0  0
 63138  1  0  0  0
 63139  1  0  0  0
 63140  1  0  0  0
 64141  1  0  0  0
 65142  1  0  0  0
 68 78  1  0  0  0
 71 72  2  0  0  0
 71 82  1  0  0  0
 71143  1  0  0  0
 72 73  1  0  0  0
 72 77  1  0  0  0
 73 74  2  0  0  0
 73 75  1  0  0  0
 74 78  1  0  0  0
 74 82  1  0  0  0
 75144  1  0  0  0
 75145  1  0  0  0
 75146  1  0  0  0
 76 82  1  0  0  0
 76147  1  0  0  0
 76148  1  0  0  0
 76149  1  0  0  0
 77 79  1  0  0  0
 77150  1  0  0  0
 77151  1  0  0  0
 78152  1  0  0  0
 78153  1  0  0  0
 79 80  1  0  0  0
 79154  1  0  0  0
 79155  1  0  0  0
 80 81  1  0  0  0
 80156  1  0  0  0
 80157  1  0  0  0
 81 83  1  0  0  0
 81158  1  0  0  0
 81159  1  0  0  0
 83160  1  0  0  0
M  ISO  4   1 100  68 101  78 101  83 100
M  END
> <chiral flag>
0

> <version>
0

> <s_m_source_file>
/data/baiqing/PycharmProjects/Reinvent-master-3.2/result/LINK_invent/BTK/process_docking_weight1_custom_sum_contain_oxygen_bond_distance_aromatic_linkinvent_7_9_3/rearranged_h_0042.sdf

> <i_m_source_file_index>
26

> <r_mmod_Potential_Energy-OPLS-2005>
-53.2127265930176

> <r_mmod_Stretch_Energy-OPLS-2005>
50.7006607055664

> <r_mmod_Bend_Energy-OPLS-2005>
120.833450317383

> <r_mmod_Torsional_Energy-OPLS-2005>
207.759017944336

> <r_mmod_Improper_Torsional_Energy-OPLS-2005>
5.66555881500244

> <r_mmod_Van_der_Waal_Energy-OPLS-2005>
124.247039794922

> <r_mmod_Electrostatic_Energy-OPLS-2005>
-371.668487548828

> <r_mmod_Solvation_Energy-OPLS-2005>
-215.78791809082

> <b_mmod_Minimization_Converged-OPLS-2005>
0

> <r_mmod_RMS_Derivative-OPLS-2005>
3.54016041755676

$$$$
27
                    3D
 Structure written by MMmdl.
154162  0  0  1  0            999 V2000
  -30.6461  -14.6426   20.4894 C   0  0  0  0  0  0
  -30.4271  -12.3968   19.4408 C   0  0  0  0  0  0
  -29.4983  -12.5038   18.2136 C   0  0  0  0  0  0
  -28.0224  -12.3479   18.6309 C   0  0  0  0  0  0
  -27.6473  -13.2240   19.8560 C   0  0  2  0  0  0
  -28.6967  -13.1051   20.9822 C   0  0  0  0  0  0
  -25.2538  -13.8197   20.5702 C   0  0  0  0  0  0
  -24.1835  -13.0447   20.9221 C   0  0  0  0  0  0
  -24.6424  -11.6926   20.8765 C   0  0  0  0  0  0
  -23.9093  -10.4296   21.0422 C   0  0  0  0  0  0
  -24.3644   -9.4203   21.9192 C   0  0  0  0  0  0
  -23.6316   -8.2241   22.0757 C   0  0  0  0  0  0
  -22.4298   -8.0286   21.3545 C   0  0  0  0  0  0
  -21.9935   -9.0265   20.4647 C   0  0  0  0  0  0
  -22.7277  -10.2139   20.3055 C   0  0  0  0  0  0
  -21.6851   -6.0754   22.5283 C   0  0  0  0  0  0
  -21.4012   -6.5653   23.8221 C   0  0  0  0  0  0
  -21.3650   -5.6799   24.9185 C   0  0  0  0  0  0
  -21.6040   -4.3068   24.7226 C   0  0  0  0  0  0
  -21.8818   -3.8161   23.4350 C   0  0  0  0  0  0
  -21.9201   -4.6977   22.3410 C   0  0  0  0  0  0
  -22.7854  -13.5212   21.1878 C   0  0  0  0  0  0
  -22.1663   -4.2172   21.0987 F   0  0  0  0  0  0
  -21.5624   -3.4535   25.7731 F   0  0  0  0  0  0
  -30.0033  -13.4371   20.3991 N   0  0  0  0  0  0
  -26.2973  -12.9385   20.3313 N   0  0  0  0  0  0
  -25.9339  -11.6531   20.5771 N   0  0  0  0  0  0
  -22.0497  -12.8187   22.0431 N   0  0  0  0  0  0
  -25.4235  -15.1915   20.4096 N   0  0  0  0  0  0
  -31.8296  -14.7593   20.1636 O   0  0  0  0  0  0
  -21.6652   -6.8897   21.4251 O   0  0  0  0  0  0
  -22.3528  -14.5531   20.6753 O   0  0  0  0  0  0
  -24.6270  -31.8578   23.2009 C   0  0  0  0  0  0
  -25.9132  -32.4770   23.8330 C   0  0  1  0  0  0
  -27.2179  -27.3123   20.1191 C   0  0  0  0  0  0
  -25.5980  -33.8576   24.2283 N   0  0  0  0  0  0
  -23.4196  -30.4825   21.5408 C   0  0  2  0  0  0
  -24.8708  -28.9347   20.1053 C   0  0  0  0  0  0
  -22.7470  -29.4637   22.4901 C   0  0  0  0  0  0
  -18.0279  -28.1386   22.8511 C   0  0  0  0  0  0
  -24.1471  -36.7241   23.2651 C   0  0  0  0  0  0
  -25.9625  -30.7880   21.3707 C   0  0  0  0  0  0
  -26.0381  -29.4123   20.7174 C   0  0  0  0  0  0
  -27.2204  -28.6090   20.7205 C   0  0  0  0  0  0
  -26.0330  -26.8813   19.4933 C   0  0  0  0  0  0
  -24.8688  -27.6729   19.4862 C   0  0  0  0  0  0
  -23.6365  -29.8128   20.1569 C   0  0  0  0  0  0
  -25.4111  -36.3073   24.0341 C   0  0  1  0  0  0
  -20.5895  -28.3690   23.1288 C   0  0  2  0  0  0
  -20.6791  -26.9404   22.5405 C   0  0  0  0  0  0
  -19.5750  -26.6389   21.5220 C   0  0  0  0  0  0
  -18.1923  -26.7945   22.1613 C   0  0  0  0  0  0
  -19.1541  -28.8846   23.2897 C   0  0  0  0  0  0
  -18.9477  -30.1467   23.8878 C   0  0  0  0  0  0
  -17.6488  -30.6604   24.0544 C   0  0  0  0  0  0
  -25.9056  -34.9462   23.5097 C   0  0  0  0  0  0
  -16.5363  -29.9099   23.6347 C   0  0  0  0  0  0
  -16.7275  -28.6505   23.0375 C   0  0  0  0  0  0
  -26.4522  -31.6591   25.0701 C   0  0  0  0  0  0
  -25.3776  -31.3761   26.1439 C   0  0  0  0  0  0
  -27.0404  -30.3036   24.6175 C   0  0  0  0  0  0
  -27.6057  -32.4343   25.7497 C   0  0  0  0  0  0
  -27.5539  -37.1779   24.8481 C   0  0  0  0  0  0
  -21.4180  -29.3059   22.3682 N   0  0  0  0  0  0
  -26.4255  -37.3777   23.9432 N   0  0  0  0  0  0
  -24.6884  -31.0603   22.0944 N   0  0  0  0  0  0
  -23.4207  -28.8162   23.2959 O   0  0  0  0  0  0
  -28.2916  -26.4121   20.1291 O   0  0  0  0  0  0
  -26.5563  -34.8942   22.4623 O   0  0  0  0  0  0
  -23.5441  -32.1349   23.7369 O   0  0  0  0  0  0
  -28.4956  -21.8013   19.6325 C   0  0  0  0  0  0
  -28.9029  -20.9995   20.7472 C   0  0  0  0  0  0
  -29.0109  -22.9956   21.9871 C   0  0  0  0  0  0
  -28.5845  -23.8109   20.8855 C   0  0  0  0  0  0
  -29.2021  -23.5555   23.3874 C   0  0  0  0  0  0
  -28.7912  -19.4219   20.8485 C   0  0  0  0  0  0
  -28.1651  -25.3290   21.1255 C   0  0  0  0  0  0
  -29.8744  -18.4223   20.2458 C   0  0  0  0  0  0
  -30.3539  -17.1485   21.0952 C   0  0  0  0  0  0
  -28.3477  -23.1766   19.6943 N   0  0  0  0  0  0
  -29.1946  -21.6432   21.9067 N   0  0  0  0  0  0
  -29.8848  -15.7491   20.7792 N   0  0  0  0  0  0
  -31.4692  -12.5088   19.1353 H   0  0  0  0  0  0
  -30.3526  -11.4074   19.8930 H   0  0  0  0  0  0
  -29.7575  -11.7478   17.4702 H   0  0  0  0  0  0
  -29.6421  -13.4706   17.7270 H   0  0  0  0  0  0
  -27.8565  -11.2955   18.8630 H   0  0  0  0  0  0
  -27.3654  -12.5793   17.7914 H   0  0  0  0  0  0
  -27.6587  -14.2566   19.5051 H   0  0  0  0  0  0
  -28.7141  -12.0948   21.3918 H   0  0  0  0  0  0
  -28.4521  -13.7642   21.8168 H   0  0  0  0  0  0
  -25.2787   -9.5673   22.4764 H   0  0  0  0  0  0
  -24.0023   -7.4620   22.7459 H   0  0  0  0  0  0
  -21.0868   -8.8793   19.8938 H   0  0  0  0  0  0
  -22.3750  -10.9682   19.6155 H   0  0  0  0  0  0
  -21.1998   -7.6156   23.9738 H   0  0  0  0  0  0
  -21.1460   -6.0526   25.9091 H   0  0  0  0  0  0
  -22.0603   -2.7626   23.2844 H   0  0  0  0  0  0
  -22.4121  -11.9816   22.4753 H   0  0  0  0  0  0
  -21.1116  -13.1186   22.2669 H   0  0  0  0  0  0
  -24.6547  -15.8450   20.5172 H   0  0  0  0  0  0
  -26.2698  -15.6319   20.0720 H   0  0  0  0  0  0
  -26.7201  -32.5427   23.1080 H   0  0  0  0  0  0
  -25.0331  -33.9744   25.0567 H   0  0  0  0  0  0
  -22.7144  -31.3029   21.3974 H   0  0  0  0  0  0
  -23.3759  -35.9539   23.3321 H   0  0  0  0  0  0
  -24.3560  -36.8816   22.2054 H   0  0  0  0  0  0
  -23.7213  -37.6456   23.6640 H   0  0  0  0  0  0
  -26.0958  -31.5476   20.5989 H   0  0  0  0  0  0
  -26.8418  -30.8415   21.9997 H   0  0  0  0  0  0
  -28.1130  -28.9694   21.2117 H   0  0  0  0  0  0
  -26.0038  -25.9002   19.0363 H   0  0  0  0  0  0
  -23.9725  -27.2955   19.0153 H   0  0  0  0  0  0
  -23.7529  -30.5844   19.3960 H   0  0  0  0  0  0
  -22.7575  -29.2369   19.8594 H   0  0  0  0  0  0
  -25.1308  -36.1870   25.0832 H   0  0  0  0  0  0
  -20.9991  -28.3217   24.1403 H   0  0  0  0  0  0
  -20.5713  -26.2273   23.3603 H   0  0  0  0  0  0
  -21.6656  -26.7434   22.1165 H   0  0  0  0  0  0
  -19.6889  -25.6293   21.1260 H   0  0  0  0  0  0
  -19.6695  -27.3199   20.6752 H   0  0  0  0  0  0
  -17.4205  -26.6716   21.3994 H   0  0  0  0  0  0
  -18.0242  -26.0100   22.9003 H   0  0  0  0  0  0
  -19.7962  -30.7297   24.2205 H   0  0  0  0  0  0
  -17.5046  -31.6278   24.5140 H   0  0  0  0  0  0
  -15.5370  -30.2988   23.7744 H   0  0  0  0  0  0
  -15.8649  -28.0839   22.7114 H   0  0  0  0  0  0
  -24.5944  -30.7098   25.7811 H   0  0  0  0  0  0
  -24.8981  -32.2953   26.4816 H   0  0  0  0  0  0
  -25.8116  -30.8994   27.0242 H   0  0  0  0  0  0
  -26.2995  -29.6739   24.1242 H   0  0  0  0  0  0
  -27.4187  -29.7335   25.4670 H   0  0  0  0  0  0
  -27.8811  -30.4353   23.9368 H   0  0  0  0  0  0
  -27.2658  -33.3688   26.1986 H   0  0  0  0  0  0
  -28.3950  -32.6822   25.0387 H   0  0  0  0  0  0
  -28.0646  -31.8521   26.5500 H   0  0  0  0  0  0
  -28.2583  -38.0050   24.7513 H   0  0  0  0  0  0
  -28.0994  -36.2583   24.6310 H   0  0  0  0  0  0
  -27.2252  -37.1420   25.8882 H   0  0  0  0  0  0
  -20.9315  -29.8786   21.6923 H   0  0  0  0  0  0
  -26.0106  -38.2828   24.1480 H   0  0  0  0  0  0
  -28.2115  -21.3332   18.6996 H   0  0  0  0  0  0
  -30.1823  -24.0240   23.4803 H   0  0  0  0  0  0
  -29.1362  -22.7673   24.1394 H   0  0  0  0  0  0
  -28.4310  -24.2839   23.6412 H   0  0  0  0  0  0
  -27.8124  -19.1366   20.4615 H   0  0  0  0  0  0
  -28.7251  -19.1972   21.9139 H   0  0  0  0  0  0
  -28.7717  -25.6999   21.9497 H   0  0  0  0  0  0
  -27.1469  -25.2967   21.5195 H   0  0  0  0  0  0
  -30.7704  -19.0249   20.0888 H   0  0  0  0  0  0
  -29.5800  -18.1160   19.2415 H   0  0  0  0  0  0
  -30.1497  -17.3259   22.1509 H   0  0  0  0  0  0
  -31.4442  -17.1330   21.0426 H   0  0  0  0  0  0
  -28.9092  -15.5565   20.9518 H   0  0  0  0  0  0
  1 25  1  0  0  0
  1 30  2  0  0  0
  1 82  1  0  0  0
  2  3  1  0  0  0
  2 25  1  0  0  0
  2 83  1  0  0  0
  2 84  1  0  0  0
  3  4  1  0  0  0
  3 85  1  0  0  0
  3 86  1  0  0  0
  4  5  1  0  0  0
  4 87  1  0  0  0
  4 88  1  0  0  0
  5  6  1  0  0  0
  5 26  1  0  0  0
  5 89  1  0  0  0
  6 25  1  0  0  0
  6 90  1  0  0  0
  6 91  1  0  0  0
  7  8  2  0  0  0
  7 26  1  0  0  0
  7 29  1  0  0  0
  8  9  1  0  0  0
  8 22  1  0  0  0
  9 10  1  0  0  0
  9 27  2  0  0  0
 10 11  2  0  0  0
 10 15  1  0  0  0
 11 12  1  0  0  0
 11 92  1  0  0  0
 12 13  2  0  0  0
 12 93  1  0  0  0
 13 14  1  0  0  0
 13 31  1  0  0  0
 14 15  2  0  0  0
 14 94  1  0  0  0
 15 95  1  0  0  0
 16 17  2  0  0  0
 16 21  1  0  0  0
 16 31  1  0  0  0
 17 18  1  0  0  0
 17 96  1  0  0  0
 18 19  2  0  0  0
 18 97  1  0  0  0
 19 20  1  0  0  0
 19 24  1  0  0  0
 20 21  2  0  0  0
 20 98  1  0  0  0
 21 23  1  0  0  0
 22 28  1  0  0  0
 22 32  2  0  0  0
 26 27  1  0  0  0
 28 99  1  0  0  0
 28100  1  0  0  0
 29101  1  0  0  0
 29102  1  0  0  0
 33 34  1  0  0  0
 33 66  1  0  0  0
 33 70  2  0  0  0
 34 36  1  0  0  0
 34 59  1  0  0  0
 34103  1  0  0  0
 35 44  2  0  0  0
 35 45  1  0  0  0
 35 68  1  0  0  0
 36 56  1  0  0  0
 36104  1  0  0  0
 37 39  1  0  0  0
 37 47  1  0  0  0
 37 66  1  0  0  0
 37105  1  0  0  0
 38 43  2  0  0  0
 38 46  1  0  0  0
 38 47  1  0  0  0
 39 64  1  0  0  0
 39 67  2  0  0  0
 40 52  1  0  0  0
 40 53  2  0  0  0
 40 58  1  0  0  0
 41106  1  0  0  0
 41107  1  0  0  0
 41108  1  0  0  0
 41 48  1  0  0  0
 42 43  1  0  0  0
 42 66  1  0  0  0
 42109  1  0  0  0
 42110  1  0  0  0
 43 44  1  0  0  0
 44111  1  0  0  0
 45 46  2  0  0  0
 45112  1  0  0  0
 46113  1  0  0  0
 47114  1  0  0  0
 47115  1  0  0  0
 48 56  1  0  0  0
 48 65  1  0  0  0
 48116  1  0  0  0
 49 50  1  0  0  0
 49 53  1  0  0  0
 49 64  1  0  0  0
 49117  1  0  0  0
 50 51  1  0  0  0
 50118  1  0  0  0
 50119  1  0  0  0
 51 52  1  0  0  0
 51120  1  0  0  0
 51121  1  0  0  0
 52122  1  0  0  0
 52123  1  0  0  0
 53 54  1  0  0  0
 54 55  2  0  0  0
 54124  1  0  0  0
 55 57  1  0  0  0
 55125  1  0  0  0
 56 69  2  0  0  0
 57 58  2  0  0  0
 57126  1  0  0  0
 58127  1  0  0  0
 59 60  1  0  0  0
 59 61  1  0  0  0
 59 62  1  0  0  0
 60128  1  0  0  0
 60129  1  0  0  0
 60130  1  0  0  0
 61131  1  0  0  0
 61132  1  0  0  0
 61133  1  0  0  0
 62134  1  0  0  0
 62135  1  0  0  0
 62136  1  0  0  0
 63 65  1  0  0  0
 63137  1  0  0  0
 63138  1  0  0  0
 63139  1  0  0  0
 64140  1  0  0  0
 65141  1  0  0  0
 68 77  1  0  0  0
 71 72  2  0  0  0
 71 80  1  0  0  0
 71142  1  0  0  0
 72 76  1  0  0  0
 72 81  1  0  0  0
 73 74  1  0  0  0
 73 75  1  0  0  0
 73 81  2  0  0  0
 74 77  1  0  0  0
 74 80  2  0  0  0
 75143  1  0  0  0
 75144  1  0  0  0
 75145  1  0  0  0
 76 78  1  0  0  0
 76146  1  0  0  0
 76147  1  0  0  0
 77148  1  0  0  0
 77149  1  0  0  0
 78 79  1  0  0  0
 78150  1  0  0  0
 78151  1  0  0  0
 79 82  1  0  0  0
 79152  1  0  0  0
 79153  1  0  0  0
 82154  1  0  0  0
M  ISO  4   1 100  68 101  77 101  82 100
M  END
> <chiral flag>
0

> <version>
0

> <s_m_source_file>
/data/baiqing/PycharmProjects/Reinvent-master-3.2/result/LINK_invent/BTK/process_docking_weight1_custom_sum_contain_oxygen_bond_distance_aromatic_linkinvent_7_9_3/rearranged_h_0042.sdf

> <i_m_source_file_index>
27

> <r_mmod_Potential_Energy-OPLS-2005>
190.351425170898

> <r_mmod_Stretch_Energy-OPLS-2005>
91.8036956787109

> <r_mmod_Bend_Energy-OPLS-2005>
163.572357177734

> <r_mmod_Torsional_Energy-OPLS-2005>
256.384735107422

> <r_mmod_Improper_Torsional_Energy-OPLS-2005>
6.62362957000732

> <r_mmod_Van_der_Waal_Energy-OPLS-2005>
144.919830322266

> <r_mmod_Electrostatic_Energy-OPLS-2005>
-299.538452148438

> <r_mmod_Solvation_Energy-OPLS-2005>
-228.531341552734

> <b_mmod_Minimization_Converged-OPLS-2005>
0

> <r_mmod_RMS_Derivative-OPLS-2005>
3.56467437744141

$$$$
28
                    3D
 Structure written by MMmdl.
160168  0  0  1  0            999 V2000
  -30.7161  -14.5414   20.4993 C   0  0  0  0  0  0
  -30.4236  -12.3321   19.4402 C   0  0  0  0  0  0
  -29.4970  -12.4660   18.2152 C   0  0  0  0  0  0
  -28.0196  -12.3257   18.6340 C   0  0  0  0  0  0
  -27.6502  -13.2002   19.8635 C   0  0  2  0  0  0
  -28.7051  -13.0818   20.9875 C   0  0  0  0  0  0
  -25.2591  -13.8133   20.5719 C   0  0  0  0  0  0
  -24.1831  -13.0426   20.9194 C   0  0  0  0  0  0
  -24.6379  -11.6886   20.8767 C   0  0  0  0  0  0
  -23.9047  -10.4276   21.0413 C   0  0  0  0  0  0
  -24.3609   -9.4200   21.9185 C   0  0  0  0  0  0
  -23.6298   -8.2231   22.0746 C   0  0  0  0  0  0
  -22.4280   -8.0268   21.3529 C   0  0  0  0  0  0
  -21.9902   -9.0245   20.4637 C   0  0  0  0  0  0
  -22.7228  -10.2124   20.3056 C   0  0  0  0  0  0
  -21.6841   -6.0733   22.5272 C   0  0  0  0  0  0
  -21.4009   -6.5640   23.8205 C   0  0  0  0  0  0
  -21.3666   -5.6791   24.9167 C   0  0  0  0  0  0
  -21.6049   -4.3054   24.7216 C   0  0  0  0  0  0
  -21.8830   -3.8150   23.4338 C   0  0  0  0  0  0
  -21.9193   -4.6964   22.3395 C   0  0  0  0  0  0
  -22.7858  -13.5249   21.1832 C   0  0  0  0  0  0
  -22.1660   -4.2156   21.0969 F   0  0  0  0  0  0
  -21.5634   -3.4539   25.7734 F   0  0  0  0  0  0
  -30.0233  -13.3679   20.4049 N   0  0  0  0  0  0
  -26.2997  -12.9272   20.3401 N   0  0  0  0  0  0
  -25.9312  -11.6453   20.5840 N   0  0  0  0  0  0
  -22.0462  -12.8263   22.0375 N   0  0  0  0  0  0
  -25.4359  -15.1847   20.4146 N   0  0  0  0  0  0
  -31.9056  -14.6244   20.1855 O   0  0  0  0  0  0
  -21.6640   -6.8873   21.4234 O   0  0  0  0  0  0
  -22.3575  -14.5561   20.6668 O   0  0  0  0  0  0
  -24.6172  -31.8645   23.2073 C   0  0  0  0  0  0
  -25.9056  -32.4796   23.8372 C   0  0  1  0  0  0
  -27.2263  -27.4031   20.1081 C   0  0  0  0  0  0
  -25.5904  -33.8596   24.2298 N   0  0  0  0  0  0
  -23.4066  -30.4876   21.5482 C   0  0  2  0  0  0
  -24.8517  -28.9487   20.1138 C   0  0  0  0  0  0
  -22.7422  -29.4637   22.4972 C   0  0  0  0  0  0
  -18.0273  -28.1361   22.8503 C   0  0  0  0  0  0
  -24.1488  -36.7317   23.2635 C   0  0  0  0  0  0
  -25.9370  -30.8227   21.3617 C   0  0  0  0  0  0
  -26.0142  -29.4548   20.7096 C   0  0  0  0  0  0
  -27.2079  -28.6917   20.6958 C   0  0  0  0  0  0
  -26.0488  -26.9183   19.5011 C   0  0  0  0  0  0
  -24.8655  -27.6832   19.5022 C   0  0  0  0  0  0
  -23.6155  -29.8195   20.1629 C   0  0  0  0  0  0
  -25.4104  -36.3091   24.0328 C   0  0  1  0  0  0
  -20.5867  -28.3652   23.1314 C   0  0  2  0  0  0
  -20.6761  -26.9386   22.5418 C   0  0  0  0  0  0
  -19.5737  -26.6376   21.5216 C   0  0  0  0  0  0
  -18.1917  -26.7913   22.1633 C   0  0  0  0  0  0
  -19.1526  -28.8828   23.2905 C   0  0  0  0  0  0
  -18.9450  -30.1432   23.8911 C   0  0  0  0  0  0
  -17.6452  -30.6574   24.0562 C   0  0  0  0  0  0
  -25.9034  -34.9461   23.5106 C   0  0  0  0  0  0
  -16.5345  -29.9074   23.6319 C   0  0  0  0  0  0
  -16.7264  -28.6487   23.0356 C   0  0  0  0  0  0
  -26.4480  -31.6588   25.0715 C   0  0  0  0  0  0
  -25.3766  -31.3704   26.1485 C   0  0  0  0  0  0
  -27.0285  -30.3023   24.6087 C   0  0  0  0  0  0
  -27.6037  -32.4323   25.7495 C   0  0  0  0  0  0
  -27.5572  -37.1807   24.8457 C   0  0  0  0  0  0
  -21.4148  -29.3021   22.3717 N   0  0  0  0  0  0
  -26.4286  -37.3778   23.9402 N   0  0  0  0  0  0
  -24.6721  -31.0733   22.0976 N   0  0  0  0  0  0
  -23.4189  -28.8165   23.3012 O   0  0  0  0  0  0
  -28.3777  -26.6391   20.0906 O   0  0  0  0  0  0
  -26.5596  -34.8922   22.4670 O   0  0  0  0  0  0
  -23.5362  -32.1402   23.7469 O   0  0  0  0  0  0
  -29.4841  -21.7043   20.4695 C   0  0  0  0  0  0
  -30.2206  -20.6998   21.1628 C   0  0  0  0  0  0
  -29.6599  -23.0683   20.8378 C   0  0  0  0  0  0
  -31.0712  -21.1677   22.1983 C   0  0  0  0  0  0
  -32.0166  -20.2660   22.9721 C   0  0  0  0  0  0
  -29.3610  -16.2523   19.5154 C   0  0  0  0  0  0
  -30.2180  -19.2254   20.6918 C   0  0  0  0  0  0
  -29.1428  -24.2493   19.9892 C   0  0  0  0  0  0
  -29.8015  -18.1202   21.7206 C   0  0  0  0  0  0
  -30.5462  -16.7349   21.6163 C   0  0  0  0  0  0
  -28.3068  -25.3382   20.7278 C   0  0  0  0  0  0
  -30.4775  -23.4111   21.8617 N   0  0  0  0  0  0
  -31.1500  -22.4778   22.5394 N   0  0  0  0  0  0
  -29.9971  -15.6836   20.7108 N   0  0  0  0  0  0
  -31.4663  -12.4232   19.1304 H   0  0  0  0  0  0
  -30.3301  -11.3433   19.8929 H   0  0  0  0  0  0
  -29.7503  -11.7066   17.4740 H   0  0  0  0  0  0
  -29.6589  -13.4281   17.7293 H   0  0  0  0  0  0
  -27.8434  -11.2734   18.8641 H   0  0  0  0  0  0
  -27.3673  -12.5589   17.7922 H   0  0  0  0  0  0
  -27.6451  -14.2266   19.5128 H   0  0  0  0  0  0
  -28.6981  -12.0816   21.4233 H   0  0  0  0  0  0
  -28.4748  -13.7707   21.8022 H   0  0  0  0  0  0
  -25.2740   -9.5713   22.4782 H   0  0  0  0  0  0
  -24.0008   -7.4638   22.7484 H   0  0  0  0  0  0
  -21.0815   -8.8785   19.8953 H   0  0  0  0  0  0
  -22.3678  -10.9683   19.6191 H   0  0  0  0  0  0
  -21.1989   -7.6140   23.9714 H   0  0  0  0  0  0
  -21.1481   -6.0507   25.9071 H   0  0  0  0  0  0
  -22.0602   -2.7611   23.2827 H   0  0  0  0  0  0
  -22.4046  -11.9941   22.4819 H   0  0  0  0  0  0
  -21.1086  -13.1335   22.2541 H   0  0  0  0  0  0
  -24.6829  -15.8522   20.5366 H   0  0  0  0  0  0
  -26.3079  -15.6163   20.1355 H   0  0  0  0  0  0
  -26.7117  -32.5492   23.1120 H   0  0  0  0  0  0
  -25.0050  -33.9750   25.0440 H   0  0  0  0  0  0
  -22.6975  -31.3056   21.4082 H   0  0  0  0  0  0
  -23.3730  -35.9669   23.3308 H   0  0  0  0  0  0
  -24.3569  -36.8933   22.2046 H   0  0  0  0  0  0
  -23.7282  -37.6540   23.6650 H   0  0  0  0  0  0
  -26.0521  -31.5883   20.5933 H   0  0  0  0  0  0
  -26.8238  -30.8754   21.9811 H   0  0  0  0  0  0
  -28.1087  -29.0805   21.1498 H   0  0  0  0  0  0
  -26.0471  -25.9487   19.0232 H   0  0  0  0  0  0
  -23.9721  -27.2942   19.0325 H   0  0  0  0  0  0
  -23.7235  -30.5943   19.4029 H   0  0  0  0  0  0
  -22.7395  -29.2392   19.8673 H   0  0  0  0  0  0
  -25.1284  -36.1937   25.0820 H   0  0  0  0  0  0
  -20.9960  -28.3210   24.1435 H   0  0  0  0  0  0
  -20.5656  -26.2253   23.3598 H   0  0  0  0  0  0
  -21.6628  -26.7410   22.1212 H   0  0  0  0  0  0
  -19.6888  -25.6290   21.1228 H   0  0  0  0  0  0
  -19.6676  -27.3203   20.6758 H   0  0  0  0  0  0
  -17.4183  -26.6672   21.4034 H   0  0  0  0  0  0
  -18.0312  -26.0044   22.9019 H   0  0  0  0  0  0
  -19.7925  -30.7246   24.2291 H   0  0  0  0  0  0
  -17.5004  -31.6260   24.5154 H   0  0  0  0  0  0
  -15.5344  -30.2981   23.7626 H   0  0  0  0  0  0
  -15.8666  -28.0801   22.7070 H   0  0  0  0  0  0
  -24.5930  -30.7042   25.7859 H   0  0  0  0  0  0
  -24.8974  -32.2864   26.4951 H   0  0  0  0  0  0
  -25.8159  -30.8886   27.0230 H   0  0  0  0  0  0
  -26.2804  -29.6815   24.1139 H   0  0  0  0  0  0
  -27.4043  -29.7227   25.4528 H   0  0  0  0  0  0
  -27.8652  -30.4323   23.9219 H   0  0  0  0  0  0
  -27.2612  -33.3600   26.2090 H   0  0  0  0  0  0
  -28.3845  -32.6927   25.0340 H   0  0  0  0  0  0
  -28.0699  -31.8447   26.5414 H   0  0  0  0  0  0
  -28.2585  -38.0106   24.7485 H   0  0  0  0  0  0
  -28.1071  -36.2634   24.6293 H   0  0  0  0  0  0
  -27.2283  -37.1473   25.8859 H   0  0  0  0  0  0
  -20.9300  -29.8763   21.6957 H   0  0  0  0  0  0
  -26.0166  -38.2848   24.1422 H   0  0  0  0  0  0
  -28.8673  -21.4452   19.6211 H   0  0  0  0  0  0
  -32.3526  -19.4165   22.3804 H   0  0  0  0  0  0
  -31.5344  -19.8941   23.8750 H   0  0  0  0  0  0
  -32.9083  -20.8159   23.2753 H   0  0  0  0  0  0
  -28.3982  -16.6984   19.7609 H   0  0  0  0  0  0
  -29.1919  -15.5187   18.7274 H   0  0  0  0  0  0
  -29.9974  -17.0132   19.0641 H   0  0  0  0  0  0
  -31.2267  -19.0151   20.3338 H   0  0  0  0  0  0
  -29.5783  -19.1480   19.8129 H   0  0  0  0  0  0
  -28.5674  -23.8654   19.1472 H   0  0  0  0  0  0
  -30.0227  -24.7216   19.5510 H   0  0  0  0  0  0
  -28.7183  -17.9927   21.7370 H   0  0  0  0  0  0
  -30.0290  -18.4998   22.7154 H   0  0  0  0  0  0
  -30.5565  -16.2914   22.6139 H   0  0  0  0  0  0
  -31.5971  -16.9194   21.3836 H   0  0  0  0  0  0
  -28.7031  -25.4831   21.7327 H   0  0  0  0  0  0
  -27.2851  -24.9801   20.8649 H   0  0  0  0  0  0
  1 25  1  0  0  0
  1 30  2  0  0  0
  1 84  1  0  0  0
  2  3  1  0  0  0
  2 25  1  0  0  0
  2 85  1  0  0  0
  2 86  1  0  0  0
  3  4  1  0  0  0
  3 87  1  0  0  0
  3 88  1  0  0  0
  4  5  1  0  0  0
  4 89  1  0  0  0
  4 90  1  0  0  0
  5  6  1  0  0  0
  5 26  1  0  0  0
  5 91  1  0  0  0
  6 25  1  0  0  0
  6 92  1  0  0  0
  6 93  1  0  0  0
  7  8  2  0  0  0
  7 26  1  0  0  0
  7 29  1  0  0  0
  8  9  1  0  0  0
  8 22  1  0  0  0
  9 10  1  0  0  0
  9 27  2  0  0  0
 10 11  2  0  0  0
 10 15  1  0  0  0
 11 12  1  0  0  0
 11 94  1  0  0  0
 12 13  2  0  0  0
 12 95  1  0  0  0
 13 14  1  0  0  0
 13 31  1  0  0  0
 14 15  2  0  0  0
 14 96  1  0  0  0
 15 97  1  0  0  0
 16 17  2  0  0  0
 16 21  1  0  0  0
 16 31  1  0  0  0
 17 18  1  0  0  0
 17 98  1  0  0  0
 18 19  2  0  0  0
 18 99  1  0  0  0
 19 20  1  0  0  0
 19 24  1  0  0  0
 20 21  2  0  0  0
 20100  1  0  0  0
 21 23  1  0  0  0
 22 28  1  0  0  0
 22 32  2  0  0  0
 26 27  1  0  0  0
 28101  1  0  0  0
 28102  1  0  0  0
 29103  1  0  0  0
 29104  1  0  0  0
 33 34  1  0  0  0
 33 66  1  0  0  0
 33 70  2  0  0  0
 34 36  1  0  0  0
 34 59  1  0  0  0
 34105  1  0  0  0
 35 44  2  0  0  0
 35 45  1  0  0  0
 35 68  1  0  0  0
 36 56  1  0  0  0
 36106  1  0  0  0
 37 39  1  0  0  0
 37 47  1  0  0  0
 37 66  1  0  0  0
 37107  1  0  0  0
 38 43  2  0  0  0
 38 46  1  0  0  0
 38 47  1  0  0  0
 39 64  1  0  0  0
 39 67  2  0  0  0
 40 52  1  0  0  0
 40 53  2  0  0  0
 40 58  1  0  0  0
 41108  1  0  0  0
 41109  1  0  0  0
 41110  1  0  0  0
 41 48  1  0  0  0
 42 43  1  0  0  0
 42 66  1  0  0  0
 42111  1  0  0  0
 42112  1  0  0  0
 43 44  1  0  0  0
 44113  1  0  0  0
 45 46  2  0  0  0
 45114  1  0  0  0
 46115  1  0  0  0
 47116  1  0  0  0
 47117  1  0  0  0
 48 56  1  0  0  0
 48 65  1  0  0  0
 48118  1  0  0  0
 49 50  1  0  0  0
 49 53  1  0  0  0
 49 64  1  0  0  0
 49119  1  0  0  0
 50 51  1  0  0  0
 50120  1  0  0  0
 50121  1  0  0  0
 51 52  1  0  0  0
 51122  1  0  0  0
 51123  1  0  0  0
 52124  1  0  0  0
 52125  1  0  0  0
 53 54  1  0  0  0
 54 55  2  0  0  0
 54126  1  0  0  0
 55 57  1  0  0  0
 55127  1  0  0  0
 56 69  2  0  0  0
 57 58  2  0  0  0
 57128  1  0  0  0
 58129  1  0  0  0
 59 60  1  0  0  0
 59 61  1  0  0  0
 59 62  1  0  0  0
 60130  1  0  0  0
 60131  1  0  0  0
 60132  1  0  0  0
 61133  1  0  0  0
 61134  1  0  0  0
 61135  1  0  0  0
 62136  1  0  0  0
 62137  1  0  0  0
 62138  1  0  0  0
 63 65  1  0  0  0
 63139  1  0  0  0
 63140  1  0  0  0
 63141  1  0  0  0
 64142  1  0  0  0
 65143  1  0  0  0
 68 81  1  0  0  0
 71 72  2  0  0  0
 71 73  1  0  0  0
 71144  1  0  0  0
 72 74  1  0  0  0
 72 77  1  0  0  0
 73 78  1  0  0  0
 73 82  2  0  0  0
 74 75  1  0  0  0
 74 83  2  0  0  0
 75145  1  0  0  0
 75146  1  0  0  0
 75147  1  0  0  0
 76 84  1  0  0  0
 76148  1  0  0  0
 76149  1  0  0  0
 76150  1  0  0  0
 77 79  1  0  0  0
 77151  1  0  0  0
 77152  1  0  0  0
 78 81  1  0  0  0
 78153  1  0  0  0
 78154  1  0  0  0
 79 80  1  0  0  0
 79155  1  0  0  0
 79156  1  0  0  0
 80 84  1  0  0  0
 80157  1  0  0  0
 80158  1  0  0  0
 81159  1  0  0  0
 81160  1  0  0  0
 82 83  1  0  0  0
M  ISO  4   1 100  68 101  81 101  84 100
M  END
> <chiral flag>
0

> <version>
0

> <s_m_source_file>
/data/baiqing/PycharmProjects/Reinvent-master-3.2/result/LINK_invent/BTK/process_docking_weight1_custom_sum_contain_oxygen_bond_distance_aromatic_linkinvent_7_9_3/rearranged_h_0042.sdf

> <i_m_source_file_index>
28

> <r_mmod_Potential_Energy-OPLS-2005>
172.319137573242

> <r_mmod_Stretch_Energy-OPLS-2005>
51.0813789367676

> <r_mmod_Bend_Energy-OPLS-2005>
120.284545898438

> <r_mmod_Torsional_Energy-OPLS-2005>
325.872772216797

> <r_mmod_Improper_Torsional_Energy-OPLS-2005>
10.6254987716675

> <r_mmod_Van_der_Waal_Energy-OPLS-2005>
153.905303955078

> <r_mmod_Electrostatic_Energy-OPLS-2005>
-291.861724853516

> <r_mmod_Solvation_Energy-OPLS-2005>
-224.036331176758

> <b_mmod_Minimization_Converged-OPLS-2005>
0

> <r_mmod_RMS_Derivative-OPLS-2005>
2.09571027755737

$$$$
29
                    3D
 Structure written by MMmdl.
153161  0  0  1  0            999 V2000
  -30.6014  -14.7388   20.4592 C   0  0  0  0  0  0
  -30.4354  -12.4509   19.4717 C   0  0  0  0  0  0
  -29.5106  -12.5051   18.2349 C   0  0  0  0  0  0
  -28.0367  -12.3295   18.6494 C   0  0  0  0  0  0
  -27.6426  -13.2284   19.8516 C   0  0  2  0  0  0
  -28.6864  -13.1525   20.9872 C   0  0  0  0  0  0
  -25.2513  -13.8190   20.5699 C   0  0  0  0  0  0
  -24.1799  -13.0444   20.9216 C   0  0  0  0  0  0
  -24.6386  -11.6920   20.8755 C   0  0  0  0  0  0
  -23.9062  -10.4295   21.0414 C   0  0  0  0  0  0
  -24.3616   -9.4209   21.9188 C   0  0  0  0  0  0
  -23.6297   -8.2241   22.0750 C   0  0  0  0  0  0
  -22.4279   -8.0280   21.3541 C   0  0  0  0  0  0
  -21.9913   -9.0251   20.4641 C   0  0  0  0  0  0
  -22.7237  -10.2134   20.3058 C   0  0  0  0  0  0
  -21.6851   -6.0743   22.5283 C   0  0  0  0  0  0
  -21.4012   -6.5644   23.8218 C   0  0  0  0  0  0
  -21.3661   -5.6792   24.9176 C   0  0  0  0  0  0
  -21.6046   -4.3056   24.7222 C   0  0  0  0  0  0
  -21.8818   -3.8152   23.4342 C   0  0  0  0  0  0
  -21.9189   -4.6972   22.3402 C   0  0  0  0  0  0
  -22.7819  -13.5231   21.1871 C   0  0  0  0  0  0
  -22.1661   -4.2162   21.0979 F   0  0  0  0  0  0
  -21.5626   -3.4536   25.7732 F   0  0  0  0  0  0
  -29.9883  -13.5076   20.4080 N   0  0  0  0  0  0
  -26.2934  -12.9391   20.3279 N   0  0  0  0  0  0
  -25.9312  -11.6539   20.5745 N   0  0  0  0  0  0
  -22.0458  -12.8223   22.0423 N   0  0  0  0  0  0
  -25.4204  -15.1912   20.4110 N   0  0  0  0  0  0
  -31.7864  -14.8524   20.1334 O   0  0  0  0  0  0
  -21.6640   -6.8883   21.4243 O   0  0  0  0  0  0
  -22.3509  -14.5542   20.6719 O   0  0  0  0  0  0
  -24.6299  -31.8540   23.1967 C   0  0  0  0  0  0
  -25.9129  -32.4746   23.8308 C   0  0  1  0  0  0
  -27.2267  -27.2645   20.1259 C   0  0  0  0  0  0
  -25.5925  -33.8546   24.2233 N   0  0  0  0  0  0
  -23.4262  -30.4752   21.5397 C   0  0  2  0  0  0
  -24.8727  -28.9170   20.1097 C   0  0  0  0  0  0
  -22.7489  -29.4592   22.4905 C   0  0  0  0  0  0
  -18.0289  -28.1386   22.8485 C   0  0  0  0  0  0
  -24.1493  -36.7282   23.2641 C   0  0  0  0  0  0
  -25.9700  -30.7683   21.3740 C   0  0  0  0  0  0
  -26.0421  -29.3900   20.7167 C   0  0  0  0  0  0
  -27.2172  -28.5756   20.7118 C   0  0  0  0  0  0
  -26.0297  -26.8485   19.5017 C   0  0  0  0  0  0
  -24.8718  -27.6547   19.4931 C   0  0  0  0  0  0
  -23.6435  -29.8047   20.1567 C   0  0  0  0  0  0
  -25.4121  -36.3061   24.0321 C   0  0  1  0  0  0
  -20.5891  -28.3695   23.1273 C   0  0  2  0  0  0
  -20.6779  -26.9413   22.5411 C   0  0  0  0  0  0
  -19.5754  -26.6382   21.5215 C   0  0  0  0  0  0
  -18.1933  -26.7927   22.1625 C   0  0  0  0  0  0
  -19.1542  -28.8857   23.2876 C   0  0  0  0  0  0
  -18.9464  -30.1458   23.8894 C   0  0  0  0  0  0
  -17.6464  -30.6587   24.0562 C   0  0  0  0  0  0
  -25.9057  -34.9435   23.5082 C   0  0  0  0  0  0
  -16.5355  -29.9084   23.6332 C   0  0  0  0  0  0
  -16.7276  -28.6503   23.0351 C   0  0  0  0  0  0
  -26.4499  -31.6577   25.0703 C   0  0  0  0  0  0
  -25.3723  -31.3733   26.1426 C   0  0  0  0  0  0
  -27.0349  -30.2992   24.6198 C   0  0  0  0  0  0
  -27.6041  -32.4329   25.7485 C   0  0  0  0  0  0
  -27.5577  -37.1798   24.8463 C   0  0  0  0  0  0
  -21.4197  -29.3038   22.3652 N   0  0  0  0  0  0
  -26.4292  -37.3764   23.9402 N   0  0  0  0  0  0
  -24.6945  -31.0508   22.0935 N   0  0  0  0  0  0
  -23.4191  -28.8139   23.3007 O   0  0  0  0  0  0
  -28.3614  -26.4251   20.1974 O   0  0  0  0  0  0
  -26.5636  -34.8915   22.4654 O   0  0  0  0  0  0
  -23.5454  -32.1352   23.7277 O   0  0  0  0  0  0
  -28.3284  -21.0697   20.7520 C   0  0  0  0  0  0
  -29.1916  -20.0219   20.4120 C   0  0  0  0  0  0
  -30.2712  -20.7834   19.8535 C   0  0  0  0  0  0
  -31.5608  -20.2633   19.2862 C   0  0  0  0  0  0
  -28.9790  -18.4438   20.5896 C   0  0  0  0  0  0
  -28.3620  -23.7558   20.7702 C   0  0  0  0  0  0
  -30.1647  -17.3445   20.4831 C   0  0  0  0  0  0
  -28.4298  -24.9936   19.7320 C   0  0  0  0  0  0
  -30.0698  -22.1162   19.8697 N   0  0  0  0  0  0
  -28.8482  -22.3425   20.4152 N   0  0  0  0  0  0
  -29.8148  -15.8629   20.6621 N   0  0  0  0  0  0
  -31.4752  -12.5822   19.1679 H   0  0  0  0  0  0
  -30.3851  -11.4725   19.9519 H   0  0  0  0  0  0
  -29.7934  -11.7325   17.5182 H   0  0  0  0  0  0
  -29.6359  -13.4594   17.7205 H   0  0  0  0  0  0
  -27.8934  -11.2804   18.9109 H   0  0  0  0  0  0
  -27.3790  -12.5228   17.8018 H   0  0  0  0  0  0
  -27.6394  -14.2511   19.4738 H   0  0  0  0  0  0
  -28.7184  -12.1502   21.4174 H   0  0  0  0  0  0
  -28.4218  -13.8265   21.8037 H   0  0  0  0  0  0
  -25.2760   -9.5691   22.4763 H   0  0  0  0  0  0
  -24.0011   -7.4632   22.7466 H   0  0  0  0  0  0
  -21.0845   -8.8767   19.8944 H   0  0  0  0  0  0
  -22.3695  -10.9672   19.6169 H   0  0  0  0  0  0
  -21.2007   -7.6152   23.9728 H   0  0  0  0  0  0
  -21.1486   -6.0520   25.9081 H   0  0  0  0  0  0
  -22.0597   -2.7617   23.2834 H   0  0  0  0  0  0
  -22.4078  -11.9892   22.4823 H   0  0  0  0  0  0
  -21.1072  -13.1242   22.2624 H   0  0  0  0  0  0
  -24.6495  -15.8418   20.5188 H   0  0  0  0  0  0
  -26.2602  -15.6285   20.0550 H   0  0  0  0  0  0
  -26.7189  -32.5396   23.1041 H   0  0  0  0  0  0
  -25.0063  -33.9681   25.0374 H   0  0  0  0  0  0
  -22.7221  -31.2967   21.3929 H   0  0  0  0  0  0
  -23.3752  -35.9618   23.3302 H   0  0  0  0  0  0
  -24.3579  -36.8909   22.2054 H   0  0  0  0  0  0
  -23.7254  -37.6484   23.6672 H   0  0  0  0  0  0
  -26.1084  -31.5294   20.6047 H   0  0  0  0  0  0
  -26.8476  -30.8167   22.0074 H   0  0  0  0  0  0
  -28.1149  -28.9364   21.1945 H   0  0  0  0  0  0
  -25.9520  -25.8800   19.0337 H   0  0  0  0  0  0
  -23.9731  -27.2849   19.0185 H   0  0  0  0  0  0
  -23.7666  -30.5792   19.3984 H   0  0  0  0  0  0
  -22.7614  -29.2368   19.8552 H   0  0  0  0  0  0
  -25.1308  -36.1901   25.0813 H   0  0  0  0  0  0
  -20.9994  -28.3284   24.1390 H   0  0  0  0  0  0
  -20.5685  -26.2306   23.3616 H   0  0  0  0  0  0
  -21.6646  -26.7439   22.1202 H   0  0  0  0  0  0
  -19.6916  -25.6294   21.1244 H   0  0  0  0  0  0
  -19.6693  -27.3194   20.6747 H   0  0  0  0  0  0
  -17.4204  -26.6676   21.4026 H   0  0  0  0  0  0
  -18.0331  -26.0071   22.9023 H   0  0  0  0  0  0
  -19.7941  -30.7274   24.2262 H   0  0  0  0  0  0
  -17.5019  -31.6270   24.5161 H   0  0  0  0  0  0
  -15.5355  -30.2984   23.7662 H   0  0  0  0  0  0
  -15.8676  -28.0825   22.7062 H   0  0  0  0  0  0
  -24.5897  -30.7082   25.7758 H   0  0  0  0  0  0
  -24.8918  -32.2907   26.4835 H   0  0  0  0  0  0
  -25.8039  -30.8920   27.0210 H   0  0  0  0  0  0
  -26.2933  -29.6732   24.1222 H   0  0  0  0  0  0
  -27.4023  -29.7264   25.4722 H   0  0  0  0  0  0
  -27.8811  -30.4257   23.9443 H   0  0  0  0  0  0
  -27.2631  -33.3630   26.2045 H   0  0  0  0  0  0
  -28.3864  -32.6890   25.0328 H   0  0  0  0  0  0
  -28.0695  -31.8469   26.5420 H   0  0  0  0  0  0
  -28.2595  -38.0094   24.7502 H   0  0  0  0  0  0
  -28.1072  -36.2622   24.6302 H   0  0  0  0  0  0
  -27.2289  -37.1462   25.8865 H   0  0  0  0  0  0
  -20.9377  -29.8748   21.6850 H   0  0  0  0  0  0
  -26.0165  -38.2835   24.1402 H   0  0  0  0  0  0
  -27.3642  -21.0119   21.2385 H   0  0  0  0  0  0
  -31.3776  -19.6131   18.4312 H   0  0  0  0  0  0
  -32.1124  -19.6884   20.0298 H   0  0  0  0  0  0
  -32.2136  -21.0696   18.9505 H   0  0  0  0  0  0
  -28.2178  -18.1323   19.8740 H   0  0  0  0  0  0
  -28.5039  -18.2768   21.5567 H   0  0  0  0  0  0
  -27.3334  -23.6672   21.1196 H   0  0  0  0  0  0
  -28.9315  -24.0493   21.6524 H   0  0  0  0  0  0
  -30.9341  -17.5890   21.2162 H   0  0  0  0  0  0
  -30.6428  -17.4441   19.5081 H   0  0  0  0  0  0
  -27.7477  -24.8076   18.9052 H   0  0  0  0  0  0
  -29.4120  -24.9284   19.2639 H   0  0  0  0  0  0
  -28.8540  -15.6671   20.8987 H   0  0  0  0  0  0
  1 25  1  0  0  0
  1 30  2  0  0  0
  1 81  1  0  0  0
  2  3  1  0  0  0
  2 25  1  0  0  0
  2 82  1  0  0  0
  2 83  1  0  0  0
  3  4  1  0  0  0
  3 84  1  0  0  0
  3 85  1  0  0  0
  4  5  1  0  0  0
  4 86  1  0  0  0
  4 87  1  0  0  0
  5  6  1  0  0  0
  5 26  1  0  0  0
  5 88  1  0  0  0
  6 25  1  0  0  0
  6 89  1  0  0  0
  6 90  1  0  0  0
  7  8  2  0  0  0
  7 26  1  0  0  0
  7 29  1  0  0  0
  8  9  1  0  0  0
  8 22  1  0  0  0
  9 10  1  0  0  0
  9 27  2  0  0  0
 10 11  2  0  0  0
 10 15  1  0  0  0
 11 12  1  0  0  0
 11 91  1  0  0  0
 12 13  2  0  0  0
 12 92  1  0  0  0
 13 14  1  0  0  0
 13 31  1  0  0  0
 14 15  2  0  0  0
 14 93  1  0  0  0
 15 94  1  0  0  0
 16 17  2  0  0  0
 16 21  1  0  0  0
 16 31  1  0  0  0
 17 18  1  0  0  0
 17 95  1  0  0  0
 18 19  2  0  0  0
 18 96  1  0  0  0
 19 20  1  0  0  0
 19 24  1  0  0  0
 20 21  2  0  0  0
 20 97  1  0  0  0
 21 23  1  0  0  0
 22 28  1  0  0  0
 22 32  2  0  0  0
 26 27  1  0  0  0
 28 98  1  0  0  0
 28 99  1  0  0  0
 29100  1  0  0  0
 29101  1  0  0  0
 33 34  1  0  0  0
 33 66  1  0  0  0
 33 70  2  0  0  0
 34 36  1  0  0  0
 34 59  1  0  0  0
 34102  1  0  0  0
 35 44  2  0  0  0
 35 45  1  0  0  0
 35 68  1  0  0  0
 36 56  1  0  0  0
 36103  1  0  0  0
 37 39  1  0  0  0
 37 47  1  0  0  0
 37 66  1  0  0  0
 37104  1  0  0  0
 38 43  2  0  0  0
 38 46  1  0  0  0
 38 47  1  0  0  0
 39 64  1  0  0  0
 39 67  2  0  0  0
 40 52  1  0  0  0
 40 53  2  0  0  0
 40 58  1  0  0  0
 41105  1  0  0  0
 41106  1  0  0  0
 41107  1  0  0  0
 41 48  1  0  0  0
 42 43  1  0  0  0
 42 66  1  0  0  0
 42108  1  0  0  0
 42109  1  0  0  0
 43 44  1  0  0  0
 44110  1  0  0  0
 45 46  2  0  0  0
 45111  1  0  0  0
 46112  1  0  0  0
 47113  1  0  0  0
 47114  1  0  0  0
 48 56  1  0  0  0
 48 65  1  0  0  0
 48115  1  0  0  0
 49 50  1  0  0  0
 49 53  1  0  0  0
 49 64  1  0  0  0
 49116  1  0  0  0
 50 51  1  0  0  0
 50117  1  0  0  0
 50118  1  0  0  0
 51 52  1  0  0  0
 51119  1  0  0  0
 51120  1  0  0  0
 52121  1  0  0  0
 52122  1  0  0  0
 53 54  1  0  0  0
 54 55  2  0  0  0
 54123  1  0  0  0
 55 57  1  0  0  0
 55124  1  0  0  0
 56 69  2  0  0  0
 57 58  2  0  0  0
 57125  1  0  0  0
 58126  1  0  0  0
 59 60  1  0  0  0
 59 61  1  0  0  0
 59 62  1  0  0  0
 60127  1  0  0  0
 60128  1  0  0  0
 60129  1  0  0  0
 61130  1  0  0  0
 61131  1  0  0  0
 61132  1  0  0  0
 62133  1  0  0  0
 62134  1  0  0  0
 62135  1  0  0  0
 63 65  1  0  0  0
 63136  1  0  0  0
 63137  1  0  0  0
 63138  1  0  0  0
 64139  1  0  0  0
 65140  1  0  0  0
 68 78  1  0  0  0
 71 72  2  0  0  0
 71 80  1  0  0  0
 71141  1  0  0  0
 72 73  1  0  0  0
 72 75  1  0  0  0
 73 74  1  0  0  0
 73 79  2  0  0  0
 74142  1  0  0  0
 74143  1  0  0  0
 74144  1  0  0  0
 75 77  1  0  0  0
 75145  1  0  0  0
 75146  1  0  0  0
 76 78  1  0  0  0
 76 80  1  0  0  0
 76147  1  0  0  0
 76148  1  0  0  0
 77 81  1  0  0  0
 77149  1  0  0  0
 77150  1  0  0  0
 78151  1  0  0  0
 78152  1  0  0  0
 79 80  1  0  0  0
 81153  1  0  0  0
M  ISO  4   1 100  68 101  78 101  81 100
M  END
> <chiral flag>
0

> <version>
0

> <s_m_source_file>
/data/baiqing/PycharmProjects/Reinvent-master-3.2/result/LINK_invent/BTK/process_docking_weight1_custom_sum_contain_oxygen_bond_distance_aromatic_linkinvent_7_9_3/rearranged_h_0042.sdf

> <i_m_source_file_index>
29

> <r_mmod_Potential_Energy-OPLS-2005>
63.1075744628906

> <r_mmod_Stretch_Energy-OPLS-2005>
118.485618591309

> <r_mmod_Bend_Energy-OPLS-2005>
178.017242431641

> <r_mmod_Torsional_Energy-OPLS-2005>
203.565048217773

> <r_mmod_Improper_Torsional_Energy-OPLS-2005>
5.94572877883911

> <r_mmod_Van_der_Waal_Energy-OPLS-2005>
110.958869934082

> <r_mmod_Electrostatic_Energy-OPLS-2005>
-402.235687255859

> <r_mmod_Solvation_Energy-OPLS-2005>
-231.477951049805

> <b_mmod_Minimization_Converged-OPLS-2005>
0

> <r_mmod_RMS_Derivative-OPLS-2005>
0.769316911697388

$$$$
30
                    3D
 Structure written by MMmdl.
168176  0  0  1  0            999 V2000
  -30.6492  -14.5795   20.5403 C   0  0  0  0  0  0
  -30.4343  -12.3665   19.4318 C   0  0  0  0  0  0
  -29.5012  -12.5062   18.2098 C   0  0  0  0  0  0
  -28.0242  -12.3485   18.6258 C   0  0  0  0  0  0
  -27.6553  -13.2109   19.8626 C   0  0  2  0  0  0
  -28.7003  -13.0387   20.9869 C   0  0  0  0  0  0
  -25.2579  -13.8156   20.5683 C   0  0  0  0  0  0
  -24.1838  -13.0425   20.9174 C   0  0  0  0  0  0
  -24.6401  -11.6895   20.8729 C   0  0  0  0  0  0
  -23.9069  -10.4281   21.0401 C   0  0  0  0  0  0
  -24.3617   -9.4199   21.9184 C   0  0  0  0  0  0
  -23.6292   -8.2236   22.0755 C   0  0  0  0  0  0
  -22.4273   -8.0277   21.3545 C   0  0  0  0  0  0
  -21.9909   -9.0250   20.4647 C   0  0  0  0  0  0
  -22.7238  -10.2128   20.3056 C   0  0  0  0  0  0
  -21.6854   -6.0736   22.5280 C   0  0  0  0  0  0
  -21.4015   -6.5638   23.8211 C   0  0  0  0  0  0
  -21.3658   -5.6794   24.9175 C   0  0  0  0  0  0
  -21.6044   -4.3056   24.7227 C   0  0  0  0  0  0
  -21.8821   -3.8144   23.4347 C   0  0  0  0  0  0
  -21.9191   -4.6964   22.3401 C   0  0  0  0  0  0
  -22.7864  -13.5225   21.1847 C   0  0  0  0  0  0
  -22.1663   -4.2149   21.0982 F   0  0  0  0  0  0
  -21.5626   -3.4539   25.7740 F   0  0  0  0  0  0
  -30.0169  -13.3742   20.4225 N   0  0  0  0  0  0
  -26.2998  -12.9327   20.3305 N   0  0  0  0  0  0
  -25.9324  -11.6485   20.5738 N   0  0  0  0  0  0
  -22.0513  -12.8213   22.0404 N   0  0  0  0  0  0
  -25.4284  -15.1878   20.4125 N   0  0  0  0  0  0
  -31.8102  -14.7525   20.1594 O   0  0  0  0  0  0
  -21.6637   -6.8876   21.4241 O   0  0  0  0  0  0
  -22.3553  -14.5530   20.6701 O   0  0  0  0  0  0
  -24.6207  -31.8650   23.2056 C   0  0  0  0  0  0
  -25.9069  -32.4815   23.8371 C   0  0  1  0  0  0
  -27.2272  -27.3612   20.1110 C   0  0  0  0  0  0
  -25.5900  -33.8615   24.2297 N   0  0  0  0  0  0
  -23.4139  -30.4835   21.5503 C   0  0  2  0  0  0
  -24.8627  -28.9402   20.1189 C   0  0  0  0  0  0
  -22.7459  -29.4617   22.4996 C   0  0  0  0  0  0
  -18.0276  -28.1369   22.8485 C   0  0  0  0  0  0
  -24.1484  -36.7307   23.2630 C   0  0  0  0  0  0
  -25.9501  -30.8019   21.3776 C   0  0  0  0  0  0
  -26.0269  -29.4285   20.7291 C   0  0  0  0  0  0
  -27.2142  -28.6436   20.7294 C   0  0  0  0  0  0
  -26.0569  -26.9263   19.4607 C   0  0  0  0  0  0
  -24.8745  -27.6884   19.4829 C   0  0  0  0  0  0
  -23.6275  -29.8151   20.1672 C   0  0  0  0  0  0
  -25.4113  -36.3114   24.0320 C   0  0  1  0  0  0
  -20.5873  -28.3666   23.1310 C   0  0  2  0  0  0
  -20.6777  -26.9401   22.5419 C   0  0  0  0  0  0
  -19.5757  -26.6375   21.5214 C   0  0  0  0  0  0
  -18.1929  -26.7916   22.1612 C   0  0  0  0  0  0
  -19.1527  -28.8837   23.2886 C   0  0  0  0  0  0
  -18.9454  -30.1441   23.8899 C   0  0  0  0  0  0
  -17.6460  -30.6586   24.0553 C   0  0  0  0  0  0
  -25.9045  -34.9479   23.5117 C   0  0  0  0  0  0
  -16.5347  -29.9077   23.6335 C   0  0  0  0  0  0
  -16.7263  -28.6491   23.0359 C   0  0  0  0  0  0
  -26.4467  -31.6620   25.0729 C   0  0  0  0  0  0
  -25.3692  -31.3760   26.1453 C   0  0  0  0  0  0
  -27.0293  -30.3040   24.6164 C   0  0  0  0  0  0
  -27.6047  -32.4344   25.7490 C   0  0  0  0  0  0
  -27.5592  -37.1801   24.8454 C   0  0  0  0  0  0
  -21.4178  -29.3020   22.3724 N   0  0  0  0  0  0
  -26.4298  -37.3802   23.9402 N   0  0  0  0  0  0
  -24.6799  -31.0660   22.1018 N   0  0  0  0  0  0
  -23.4197  -28.8160   23.3069 O   0  0  0  0  0  0
  -28.3438  -26.5343   20.0694 O   0  0  0  0  0  0
  -26.5629  -34.8938   22.4694 O   0  0  0  0  0  0
  -23.5373  -32.1444   23.7398 O   0  0  0  0  0  0
  -25.4695  -21.5203   19.0678 C   0  0  0  0  0  0
  -26.3349  -23.5210   20.0976 C   0  0  0  0  0  0
  -25.2580  -22.8139   19.5508 C   0  0  0  0  0  0
  -26.7298  -20.9015   19.1837 C   0  0  0  0  0  0
  -27.6383  -22.9780   20.1690 C   0  0  0  0  0  0
  -27.8329  -21.5835   19.7970 C   0  0  0  0  0  0
  -23.8855  -23.4524   19.4564 C   0  0  0  0  0  0
  -27.4817  -19.4736   17.1955 C   0  0  0  0  0  0
  -26.8179  -19.5023   18.5808 C   0  0  0  0  0  0
  -28.7607  -23.9538   20.6298 C   0  0  0  0  0  0
  -29.1823  -20.8099   19.9670 C   0  0  0  0  0  0
  -29.2061  -19.5053   20.8752 C   0  0  0  0  0  0
  -29.7668  -18.1501   20.2623 C   0  0  0  0  0  0
  -30.2226  -17.0316   21.2784 C   0  0  0  0  0  0
  -28.4132  -25.4567   21.0554 C   0  0  0  0  0  0
  -29.8707  -15.6163   20.9540 N   0  0  0  0  0  0
  -31.4761  -12.4883   19.1301 H   0  0  0  0  0  0
  -30.3603  -11.3649   19.8574 H   0  0  0  0  0  0
  -29.7561  -11.7637   17.4524 H   0  0  0  0  0  0
  -29.6495  -13.4811   17.7426 H   0  0  0  0  0  0
  -27.8566  -11.2941   18.8486 H   0  0  0  0  0  0
  -27.3682  -12.5880   17.7879 H   0  0  0  0  0  0
  -27.6821  -14.2498   19.5342 H   0  0  0  0  0  0
  -28.7034  -12.0105   21.3509 H   0  0  0  0  0  0
  -28.4528  -13.6565   21.8511 H   0  0  0  0  0  0
  -25.2767   -9.5674   22.4753 H   0  0  0  0  0  0
  -23.9998   -7.4633   22.7478 H   0  0  0  0  0  0
  -21.0836   -8.8773   19.8957 H   0  0  0  0  0  0
  -22.3700  -10.9668   19.6161 H   0  0  0  0  0  0
  -21.2011   -7.6153   23.9716 H   0  0  0  0  0  0
  -21.1479   -6.0527   25.9080 H   0  0  0  0  0  0
  -22.0601   -2.7610   23.2851 H   0  0  0  0  0  0
  -22.4130  -11.9870   22.4778 H   0  0  0  0  0  0
  -21.1135  -13.1244   22.2622 H   0  0  0  0  0  0
  -24.6586  -15.8381   20.5251 H   0  0  0  0  0  0
  -26.2796  -15.6332   20.0948 H   0  0  0  0  0  0
  -26.7141  -32.5516   23.1130 H   0  0  0  0  0  0
  -25.0017  -33.9766   25.0419 H   0  0  0  0  0  0
  -22.7050  -31.3016   21.4087 H   0  0  0  0  0  0
  -23.3755  -35.9631   23.3298 H   0  0  0  0  0  0
  -24.3573  -36.8932   22.2044 H   0  0  0  0  0  0
  -23.7219  -37.6495   23.6659 H   0  0  0  0  0  0
  -26.0756  -31.5619   20.6051 H   0  0  0  0  0  0
  -26.8321  -30.8566   22.0029 H   0  0  0  0  0  0
  -28.1115  -29.0102   21.2089 H   0  0  0  0  0  0
  -26.0595  -25.9920   18.9201 H   0  0  0  0  0  0
  -23.9857  -27.3136   18.9936 H   0  0  0  0  0  0
  -23.7413  -30.5901   19.4087 H   0  0  0  0  0  0
  -22.7498  -29.2377   19.8702 H   0  0  0  0  0  0
  -25.1292  -36.1983   25.0811 H   0  0  0  0  0  0
  -20.9943  -28.3238   24.1437 H   0  0  0  0  0  0
  -20.5702  -26.2265   23.3606 H   0  0  0  0  0  0
  -21.6649  -26.7461   22.1206 H   0  0  0  0  0  0
  -19.6927  -25.6288   21.1244 H   0  0  0  0  0  0
  -19.6705  -27.3188   20.6751 H   0  0  0  0  0  0
  -17.4212  -26.6669   21.3999 H   0  0  0  0  0  0
  -18.0307  -26.0052   22.8999 H   0  0  0  0  0  0
  -19.7935  -30.7236   24.2286 H   0  0  0  0  0  0
  -17.5021  -31.6272   24.5141 H   0  0  0  0  0  0
  -15.5350  -30.2977   23.7663 H   0  0  0  0  0  0
  -15.8657  -28.0803   22.7090 H   0  0  0  0  0  0
  -24.5881  -30.7101   25.7769 H   0  0  0  0  0  0
  -24.8848  -32.2921   26.4847 H   0  0  0  0  0  0
  -25.7995  -30.8960   27.0252 H   0  0  0  0  0  0
  -26.2857  -29.6810   24.1175 H   0  0  0  0  0  0
  -27.3966  -29.7286   25.4670 H   0  0  0  0  0  0
  -27.8746  -30.4309   23.9393 H   0  0  0  0  0  0
  -27.2683  -33.3651   26.2074 H   0  0  0  0  0  0
  -28.3847  -32.6899   25.0306 H   0  0  0  0  0  0
  -28.0724  -31.8460   26.5394 H   0  0  0  0  0  0
  -28.2609  -38.0104   24.7551 H   0  0  0  0  0  0
  -28.1100  -36.2645   24.6242 H   0  0  0  0  0  0
  -27.2317  -37.1405   25.8858 H   0  0  0  0  0  0
  -20.9365  -29.8726   21.6917 H   0  0  0  0  0  0
  -26.0197  -38.2878   24.1431 H   0  0  0  0  0  0
  -24.6453  -20.9935   18.6053 H   0  0  0  0  0  0
  -26.1314  -24.5144   20.4551 H   0  0  0  0  0  0
  -23.3794  -23.1545   18.5375 H   0  0  0  0  0  0
  -23.9513  -24.5403   19.4601 H   0  0  0  0  0  0
  -23.2662  -23.1492   20.3002 H   0  0  0  0  0  0
  -27.4833  -18.4618   16.7889 H   0  0  0  0  0  0
  -28.5146  -19.8145   17.2174 H   0  0  0  0  0  0
  -26.9420  -20.1082   16.4928 H   0  0  0  0  0  0
  -25.8105  -19.0987   18.4687 H   0  0  0  0  0  0
  -27.2828  -18.8105   19.2681 H   0  0  0  0  0  0
  -29.5392  -23.9714   19.8669 H   0  0  0  0  0  0
  -29.2148  -23.4802   21.5006 H   0  0  0  0  0  0
  -29.9331  -21.4992   20.3526 H   0  0  0  0  0  0
  -29.5555  -20.5587   18.9768 H   0  0  0  0  0  0
  -28.2074  -19.3219   21.2735 H   0  0  0  0  0  0
  -29.7980  -19.7463   21.7584 H   0  0  0  0  0  0
  -30.6268  -18.3897   19.6361 H   0  0  0  0  0  0
  -29.0418  -17.7174   19.5766 H   0  0  0  0  0  0
  -29.7679  -17.2377   22.2483 H   0  0  0  0  0  0
  -31.2982  -17.1137   21.4474 H   0  0  0  0  0  0
  -29.2460  -25.7732   21.6840 H   0  0  0  0  0  0
  -27.5624  -25.4813   21.7372 H   0  0  0  0  0  0
  -28.9231  -15.3504   21.1775 H   0  0  0  0  0  0
  1 25  1  0  0  0
  1 30  2  0  0  0
  1 86  1  0  0  0
  2  3  1  0  0  0
  2 25  1  0  0  0
  2 87  1  0  0  0
  2 88  1  0  0  0
  3  4  1  0  0  0
  3 89  1  0  0  0
  3 90  1  0  0  0
  4  5  1  0  0  0
  4 91  1  0  0  0
  4 92  1  0  0  0
  5  6  1  0  0  0
  5 26  1  0  0  0
  5 93  1  0  0  0
  6 25  1  0  0  0
  6 94  1  0  0  0
  6 95  1  0  0  0
  7  8  2  0  0  0
  7 26  1  0  0  0
  7 29  1  0  0  0
  8  9  1  0  0  0
  8 22  1  0  0  0
  9 10  1  0  0  0
  9 27  2  0  0  0
 10 11  2  0  0  0
 10 15  1  0  0  0
 11 12  1  0  0  0
 11 96  1  0  0  0
 12 13  2  0  0  0
 12 97  1  0  0  0
 13 14  1  0  0  0
 13 31  1  0  0  0
 14 15  2  0  0  0
 14 98  1  0  0  0
 15 99  1  0  0  0
 16 17  2  0  0  0
 16 21  1  0  0  0
 16 31  1  0  0  0
 17 18  1  0  0  0
 17100  1  0  0  0
 18 19  2  0  0  0
 18101  1  0  0  0
 19 20  1  0  0  0
 19 24  1  0  0  0
 20 21  2  0  0  0
 20102  1  0  0  0
 21 23  1  0  0  0
 22 28  1  0  0  0
 22 32  2  0  0  0
 26 27  1  0  0  0
 28103  1  0  0  0
 28104  1  0  0  0
 29105  1  0  0  0
 29106  1  0  0  0
 33 34  1  0  0  0
 33 66  1  0  0  0
 33 70  2  0  0  0
 34 36  1  0  0  0
 34 59  1  0  0  0
 34107  1  0  0  0
 35 44  2  0  0  0
 35 45  1  0  0  0
 35 68  1  0  0  0
 36 56  1  0  0  0
 36108  1  0  0  0
 37 39  1  0  0  0
 37 47  1  0  0  0
 37 66  1  0  0  0
 37109  1  0  0  0
 38 43  2  0  0  0
 38 46  1  0  0  0
 38 47  1  0  0  0
 39 64  1  0  0  0
 39 67  2  0  0  0
 40 52  1  0  0  0
 40 53  2  0  0  0
 40 58  1  0  0  0
 41110  1  0  0  0
 41111  1  0  0  0
 41112  1  0  0  0
 41 48  1  0  0  0
 42 43  1  0  0  0
 42 66  1  0  0  0
 42113  1  0  0  0
 42114  1  0  0  0
 43 44  1  0  0  0
 44115  1  0  0  0
 45 46  2  0  0  0
 45116  1  0  0  0
 46117  1  0  0  0
 47118  1  0  0  0
 47119  1  0  0  0
 48 56  1  0  0  0
 48 65  1  0  0  0
 48120  1  0  0  0
 49 50  1  0  0  0
 49 53  1  0  0  0
 49 64  1  0  0  0
 49121  1  0  0  0
 50 51  1  0  0  0
 50122  1  0  0  0
 50123  1  0  0  0
 51 52  1  0  0  0
 51124  1  0  0  0
 51125  1  0  0  0
 52126  1  0  0  0
 52127  1  0  0  0
 53 54  1  0  0  0
 54 55  2  0  0  0
 54128  1  0  0  0
 55 57  1  0  0  0
 55129  1  0  0  0
 56 69  2  0  0  0
 57 58  2  0  0  0
 57130  1  0  0  0
 58131  1  0  0  0
 59 60  1  0  0  0
 59 61  1  0  0  0
 59 62  1  0  0  0
 60132  1  0  0  0
 60133  1  0  0  0
 60134  1  0  0  0
 61135  1  0  0  0
 61136  1  0  0  0
 61137  1  0  0  0
 62138  1  0  0  0
 62139  1  0  0  0
 62140  1  0  0  0
 63 65  1  0  0  0
 63141  1  0  0  0
 63142  1  0  0  0
 63143  1  0  0  0
 64144  1  0  0  0
 65145  1  0  0  0
 68 85  1  0  0  0
 71 73  2  0  0  0
 71 74  1  0  0  0
 71146  1  0  0  0
 72 73  1  0  0  0
 72 75  2  0  0  0
 72147  1  0  0  0
 73 77  1  0  0  0
 74 76  2  0  0  0
 74 79  1  0  0  0
 75 76  1  0  0  0
 75 80  1  0  0  0
 76 81  1  0  0  0
 77148  1  0  0  0
 77149  1  0  0  0
 77150  1  0  0  0
 78 79  1  0  0  0
 78151  1  0  0  0
 78152  1  0  0  0
 78153  1  0  0  0
 79154  1  0  0  0
 79155  1  0  0  0
 80 85  1  0  0  0
 80156  1  0  0  0
 80157  1  0  0  0
 81 82  1  0  0  0
 81158  1  0  0  0
 81159  1  0  0  0
 82 83  1  0  0  0
 82160  1  0  0  0
 82161  1  0  0  0
 83 84  1  0  0  0
 83162  1  0  0  0
 83163  1  0  0  0
 84 86  1  0  0  0
 84164  1  0  0  0
 84165  1  0  0  0
 85166  1  0  0  0
 85167  1  0  0  0
 86168  1  0  0  0
M  ISO  4   1 100  68 101  85 101  86 100
M  END
> <chiral flag>
0

> <version>
0

> <s_m_source_file>
/data/baiqing/PycharmProjects/Reinvent-master-3.2/result/LINK_invent/BTK/process_docking_weight1_custom_sum_contain_oxygen_bond_distance_aromatic_linkinvent_7_9_3/rearranged_h_0042.sdf

> <i_m_source_file_index>
30

> <r_mmod_Potential_Energy-OPLS-2005>
60.7389907836914

> <r_mmod_Stretch_Energy-OPLS-2005>
74.0690841674805

> <r_mmod_Bend_Energy-OPLS-2005>
144.289855957031

> <r_mmod_Torsional_Energy-OPLS-2005>
255.651626586914

> <r_mmod_Improper_Torsional_Energy-OPLS-2005>
3.63714289665222

> <r_mmod_Van_der_Waal_Energy-OPLS-2005>
141.818374633789

> <r_mmod_Electrostatic_Energy-OPLS-2005>
-386.508850097656

> <r_mmod_Solvation_Energy-OPLS-2005>
-203.940383911133

> <b_mmod_Minimization_Converged-OPLS-2005>
0

> <r_mmod_RMS_Derivative-OPLS-2005>
1.45163428783417

$$$$
31
                    3D
 Structure written by MMmdl.
156164  0  0  1  0            999 V2000
  -30.6167  -14.5129   20.6084 C   0  0  0  0  0  0
  -30.4456  -12.3532   19.4015 C   0  0  0  0  0  0
  -29.4957  -12.5326   18.1971 C   0  0  0  0  0  0
  -28.0151  -12.3685   18.6112 C   0  0  0  0  0  0
  -27.6583  -13.1930   19.8769 C   0  0  2  0  0  0
  -28.7029  -12.9309   20.9855 C   0  0  0  0  0  0
  -25.2566  -13.8109   20.5616 C   0  0  0  0  0  0
  -24.1819  -13.0395   20.9146 C   0  0  0  0  0  0
  -24.6393  -11.6880   20.8728 C   0  0  0  0  0  0
  -23.9068  -10.4272   21.0399 C   0  0  0  0  0  0
  -24.3641   -9.4183   21.9174 C   0  0  0  0  0  0
  -23.6308   -8.2226   22.0755 C   0  0  0  0  0  0
  -22.4276   -8.0286   21.3556 C   0  0  0  0  0  0
  -21.9914   -9.0246   20.4632 C   0  0  0  0  0  0
  -22.7237  -10.2127   20.3038 C   0  0  0  0  0  0
  -21.6833   -6.0732   22.5284 C   0  0  0  0  0  0
  -21.3999   -6.5622   23.8215 C   0  0  0  0  0  0
  -21.3668   -5.6768   24.9181 C   0  0  0  0  0  0
  -21.6048   -4.3023   24.7212 C   0  0  0  0  0  0
  -21.8813   -3.8135   23.4322 C   0  0  0  0  0  0
  -21.9187   -4.6969   22.3391 C   0  0  0  0  0  0
  -22.7847  -13.5202   21.1810 C   0  0  0  0  0  0
  -22.1649   -4.2175   21.0958 F   0  0  0  0  0  0
  -21.5683   -3.4483   25.7707 F   0  0  0  0  0  0
  -30.0190  -13.3017   20.4385 N   0  0  0  0  0  0
  -26.3011  -12.9259   20.3371 N   0  0  0  0  0  0
  -25.9310  -11.6441   20.5766 N   0  0  0  0  0  0
  -22.0520  -12.8211   22.0403 N   0  0  0  0  0  0
  -25.4196  -15.1828   20.3963 N   0  0  0  0  0  0
  -31.7579  -14.7658   20.2033 O   0  0  0  0  0  0
  -21.6632   -6.8888   21.4248 O   0  0  0  0  0  0
  -22.3507  -14.5498   20.6656 O   0  0  0  0  0  0
  -24.6199  -31.8660   23.2090 C   0  0  0  0  0  0
  -25.9080  -32.4809   23.8394 C   0  0  1  0  0  0
  -27.2236  -27.3875   20.0880 C   0  0  0  0  0  0
  -25.5928  -33.8608   24.2304 N   0  0  0  0  0  0
  -23.4079  -30.4908   21.5522 C   0  0  2  0  0  0
  -24.8474  -28.9486   20.1163 C   0  0  0  0  0  0
  -22.7411  -29.4673   22.5007 C   0  0  0  0  0  0
  -18.0276  -28.1392   22.8495 C   0  0  0  0  0  0
  -24.1499  -36.7296   23.2645 C   0  0  0  0  0  0
  -25.9433  -30.8142   21.3710 C   0  0  0  0  0  0
  -26.0141  -29.4488   20.7068 C   0  0  0  0  0  0
  -27.2019  -28.6770   20.6839 C   0  0  0  0  0  0
  -26.0287  -26.9057   19.5042 C   0  0  0  0  0  0
  -24.8527  -27.6791   19.5145 C   0  0  0  0  0  0
  -23.6149  -29.8238   20.1670 C   0  0  0  0  0  0
  -25.4123  -36.3098   24.0337 C   0  0  1  0  0  0
  -20.5868  -28.3680   23.1323 C   0  0  2  0  0  0
  -20.6779  -26.9415   22.5428 C   0  0  0  0  0  0
  -19.5763  -26.6394   21.5226 C   0  0  0  0  0  0
  -18.1934  -26.7954   22.1626 C   0  0  0  0  0  0
  -19.1524  -28.8858   23.2908 C   0  0  0  0  0  0
  -18.9450  -30.1460   23.8916 C   0  0  0  0  0  0
  -17.6462  -30.6599   24.0557 C   0  0  0  0  0  0
  -25.9052  -34.9471   23.5118 C   0  0  0  0  0  0
  -16.5344  -29.9100   23.6335 C   0  0  0  0  0  0
  -16.7264  -28.6508   23.0361 C   0  0  0  0  0  0
  -26.4482  -31.6620   25.0761 C   0  0  0  0  0  0
  -25.3734  -31.3748   26.1499 C   0  0  0  0  0  0
  -27.0326  -30.3058   24.6208 C   0  0  0  0  0  0
  -27.6045  -32.4367   25.7516 C   0  0  0  0  0  0
  -27.5588  -37.1806   24.8457 C   0  0  0  0  0  0
  -21.4147  -29.3040   22.3711 N   0  0  0  0  0  0
  -26.4294  -37.3788   23.9406 N   0  0  0  0  0  0
  -24.6756  -31.0717   22.1015 N   0  0  0  0  0  0
  -23.4160  -28.8226   23.3084 O   0  0  0  0  0  0
  -28.4067  -26.6629   20.0974 O   0  0  0  0  0  0
  -26.5597  -34.8920   22.4670 O   0  0  0  0  0  0
  -23.5378  -32.1450   23.7448 O   0  0  0  0  0  0
  -28.7823  -21.8353   21.5612 C   0  0  0  0  0  0
  -29.2586  -20.6911   20.9547 C   0  0  0  0  0  0
  -29.3172  -21.0896   19.5802 C   0  0  0  0  0  0
  -29.7649  -20.2912   18.3888 C   0  0  0  0  0  0
  -29.6689  -19.3787   21.6616 C   0  0  0  0  0  0
  -29.6262  -18.0252   20.8631 C   0  0  0  0  0  0
  -28.1962  -24.2443   20.8385 C   0  0  0  0  0  0
  -30.0848  -16.7859   21.7081 C   0  0  0  0  0  0
  -28.4667  -25.2684   19.6902 C   0  0  0  0  0  0
  -28.9365  -22.3561   19.3914 N   0  0  0  0  0  0
  -28.6347  -22.8420   20.6184 N   0  0  0  0  0  0
  -29.8002  -15.4508   21.1436 N   0  0  0  0  0  0
  -31.4814  -12.5146   19.0939 H   0  0  0  0  0  0
  -30.4018  -11.3327   19.7818 H   0  0  0  0  0  0
  -29.7487  -11.8267   17.4046 H   0  0  0  0  0  0
  -29.6402  -13.5252   17.7693 H   0  0  0  0  0  0
  -27.8319  -11.3066   18.7893 H   0  0  0  0  0  0
  -27.3643  -12.6541   17.7859 H   0  0  0  0  0  0
  -27.7061  -14.2455   19.5961 H   0  0  0  0  0  0
  -28.7073  -11.8725   21.2592 H   0  0  0  0  0  0
  -28.4592  -13.4591   21.9077 H   0  0  0  0  0  0
  -25.2819   -9.5613   22.4720 H   0  0  0  0  0  0
  -23.9997   -7.4590   22.7463 H   0  0  0  0  0  0
  -21.0849   -8.8719   19.8944 H   0  0  0  0  0  0
  -22.3687  -10.9650   19.6123 H   0  0  0  0  0  0
  -21.1964   -7.6124   23.9680 H   0  0  0  0  0  0
  -21.1529   -6.0544   25.9083 H   0  0  0  0  0  0
  -22.0603   -2.7600   23.2802 H   0  0  0  0  0  0
  -22.4187  -11.9902   22.4811 H   0  0  0  0  0  0
  -21.1129  -13.1225   22.2626 H   0  0  0  0  0  0
  -24.6377  -15.8223   20.4890 H   0  0  0  0  0  0
  -26.2573  -15.6309   20.0517 H   0  0  0  0  0  0
  -26.7156  -32.5475   23.1143 H   0  0  0  0  0  0
  -25.0102  -33.9759   25.0469 H   0  0  0  0  0  0
  -22.7028  -31.3116   21.4123 H   0  0  0  0  0  0
  -23.3773  -35.9617   23.3305 H   0  0  0  0  0  0
  -24.3594  -36.8911   22.2059 H   0  0  0  0  0  0
  -23.7231  -37.6490   23.6663 H   0  0  0  0  0  0
  -26.0780  -31.5902   20.6144 H   0  0  0  0  0  0
  -26.8210  -30.8498   22.0055 H   0  0  0  0  0  0
  -28.1059  -29.0620   21.1359 H   0  0  0  0  0  0
  -25.9687  -25.9348   19.0369 H   0  0  0  0  0  0
  -23.9491  -27.2869   19.0678 H   0  0  0  0  0  0
  -23.7305  -30.6022   19.4118 H   0  0  0  0  0  0
  -22.7335  -29.2549   19.8641 H   0  0  0  0  0  0
  -25.1305  -36.1964   25.0828 H   0  0  0  0  0  0
  -20.9947  -28.3261   24.1450 H   0  0  0  0  0  0
  -20.5738  -26.2277   23.3604 H   0  0  0  0  0  0
  -21.6652  -26.7501   22.1179 H   0  0  0  0  0  0
  -19.6930  -25.6301   21.1271 H   0  0  0  0  0  0
  -19.6729  -27.3201   20.6753 H   0  0  0  0  0  0
  -17.4203  -26.6712   21.4011 H   0  0  0  0  0  0
  -18.0312  -26.0089   22.9013 H   0  0  0  0  0  0
  -19.7926  -30.7273   24.2303 H   0  0  0  0  0  0
  -17.5009  -31.6288   24.5152 H   0  0  0  0  0  0
  -15.5353  -30.3004   23.7661 H   0  0  0  0  0  0
  -15.8658  -28.0830   22.7098 H   0  0  0  0  0  0
  -24.5844  -30.7181   25.7815 H   0  0  0  0  0  0
  -24.9007  -32.2915   26.5035 H   0  0  0  0  0  0
  -25.8059  -30.8819   27.0213 H   0  0  0  0  0  0
  -26.2904  -29.6813   24.1223 H   0  0  0  0  0  0
  -27.4012  -29.7318   25.4719 H   0  0  0  0  0  0
  -27.8777  -30.4358   23.9443 H   0  0  0  0  0  0
  -27.2639  -33.3629   26.2155 H   0  0  0  0  0  0
  -28.3803  -32.7001   25.0318 H   0  0  0  0  0  0
  -28.0781  -31.8484   26.5377 H   0  0  0  0  0  0
  -28.2589  -38.0121   24.7509 H   0  0  0  0  0  0
  -28.1102  -36.2646   24.6279 H   0  0  0  0  0  0
  -27.2296  -37.1428   25.8856 H   0  0  0  0  0  0
  -20.9329  -29.8701   21.6867 H   0  0  0  0  0  0
  -26.0193  -38.2867   24.1421 H   0  0  0  0  0  0
  -28.5697  -22.0339   22.6024 H   0  0  0  0  0  0
  -29.0662  -19.4808   18.1865 H   0  0  0  0  0  0
  -30.7531  -19.8606   18.5530 H   0  0  0  0  0  0
  -29.8288  -20.8986   17.4855 H   0  0  0  0  0  0
  -29.0436  -19.2460   22.5483 H   0  0  0  0  0  0
  -30.6772  -19.4957   22.0650 H   0  0  0  0  0  0
  -30.2814  -18.0848   19.9947 H   0  0  0  0  0  0
  -28.6129  -17.8641   20.4864 H   0  0  0  0  0  0
  -27.1358  -24.2311   21.0880 H   0  0  0  0  0  0
  -28.7112  -24.6017   21.7336 H   0  0  0  0  0  0
  -29.5374  -16.7989   22.6530 H   0  0  0  0  0  0
  -31.1397  -16.8585   21.9795 H   0  0  0  0  0  0
  -27.8542  -25.0476   18.8159 H   0  0  0  0  0  0
  -29.4879  -25.1179   19.3388 H   0  0  0  0  0  0
  -28.8691  -15.1066   21.3264 H   0  0  0  0  0  0
  1 25  1  0  0  0
  1 30  2  0  0  0
  1 82  1  0  0  0
  2  3  1  0  0  0
  2 25  1  0  0  0
  2 83  1  0  0  0
  2 84  1  0  0  0
  3  4  1  0  0  0
  3 85  1  0  0  0
  3 86  1  0  0  0
  4  5  1  0  0  0
  4 87  1  0  0  0
  4 88  1  0  0  0
  5  6  1  0  0  0
  5 26  1  0  0  0
  5 89  1  0  0  0
  6 25  1  0  0  0
  6 90  1  0  0  0
  6 91  1  0  0  0
  7  8  2  0  0  0
  7 26  1  0  0  0
  7 29  1  0  0  0
  8  9  1  0  0  0
  8 22  1  0  0  0
  9 10  1  0  0  0
  9 27  2  0  0  0
 10 11  2  0  0  0
 10 15  1  0  0  0
 11 12  1  0  0  0
 11 92  1  0  0  0
 12 13  2  0  0  0
 12 93  1  0  0  0
 13 14  1  0  0  0
 13 31  1  0  0  0
 14 15  2  0  0  0
 14 94  1  0  0  0
 15 95  1  0  0  0
 16 17  2  0  0  0
 16 21  1  0  0  0
 16 31  1  0  0  0
 17 18  1  0  0  0
 17 96  1  0  0  0
 18 19  2  0  0  0
 18 97  1  0  0  0
 19 20  1  0  0  0
 19 24  1  0  0  0
 20 21  2  0  0  0
 20 98  1  0  0  0
 21 23  1  0  0  0
 22 28  1  0  0  0
 22 32  2  0  0  0
 26 27  1  0  0  0
 28 99  1  0  0  0
 28100  1  0  0  0
 29101  1  0  0  0
 29102  1  0  0  0
 33 34  1  0  0  0
 33 66  1  0  0  0
 33 70  2  0  0  0
 34 36  1  0  0  0
 34 59  1  0  0  0
 34103  1  0  0  0
 35 44  2  0  0  0
 35 45  1  0  0  0
 35 68  1  0  0  0
 36 56  1  0  0  0
 36104  1  0  0  0
 37 39  1  0  0  0
 37 47  1  0  0  0
 37 66  1  0  0  0
 37105  1  0  0  0
 38 43  2  0  0  0
 38 46  1  0  0  0
 38 47  1  0  0  0
 39 64  1  0  0  0
 39 67  2  0  0  0
 40 52  1  0  0  0
 40 53  2  0  0  0
 40 58  1  0  0  0
 41106  1  0  0  0
 41107  1  0  0  0
 41108  1  0  0  0
 41 48  1  0  0  0
 42 43  1  0  0  0
 42 66  1  0  0  0
 42109  1  0  0  0
 42110  1  0  0  0
 43 44  1  0  0  0
 44111  1  0  0  0
 45 46  2  0  0  0
 45112  1  0  0  0
 46113  1  0  0  0
 47114  1  0  0  0
 47115  1  0  0  0
 48 56  1  0  0  0
 48 65  1  0  0  0
 48116  1  0  0  0
 49 50  1  0  0  0
 49 53  1  0  0  0
 49 64  1  0  0  0
 49117  1  0  0  0
 50 51  1  0  0  0
 50118  1  0  0  0
 50119  1  0  0  0
 51 52  1  0  0  0
 51120  1  0  0  0
 51121  1  0  0  0
 52122  1  0  0  0
 52123  1  0  0  0
 53 54  1  0  0  0
 54 55  2  0  0  0
 54124  1  0  0  0
 55 57  1  0  0  0
 55125  1  0  0  0
 56 69  2  0  0  0
 57 58  2  0  0  0
 57126  1  0  0  0
 58127  1  0  0  0
 59 60  1  0  0  0
 59 61  1  0  0  0
 59 62  1  0  0  0
 60128  1  0  0  0
 60129  1  0  0  0
 60130  1  0  0  0
 61131  1  0  0  0
 61132  1  0  0  0
 61133  1  0  0  0
 62134  1  0  0  0
 62135  1  0  0  0
 62136  1  0  0  0
 63 65  1  0  0  0
 63137  1  0  0  0
 63138  1  0  0  0
 63139  1  0  0  0
 64140  1  0  0  0
 65141  1  0  0  0
 68 79  1  0  0  0
 71 72  2  0  0  0
 71 81  1  0  0  0
 71142  1  0  0  0
 72 73  1  0  0  0
 72 75  1  0  0  0
 73 74  1  0  0  0
 73 80  2  0  0  0
 74143  1  0  0  0
 74144  1  0  0  0
 74145  1  0  0  0
 75 76  1  0  0  0
 75146  1  0  0  0
 75147  1  0  0  0
 76 78  1  0  0  0
 76148  1  0  0  0
 76149  1  0  0  0
 77 79  1  0  0  0
 77 81  1  0  0  0
 77150  1  0  0  0
 77151  1  0  0  0
 78 82  1  0  0  0
 78152  1  0  0  0
 78153  1  0  0  0
 79154  1  0  0  0
 79155  1  0  0  0
 80 81  1  0  0  0
 82156  1  0  0  0
M  ISO  4   1 100  68 101  79 101  82 100
M  END
> <chiral flag>
0

> <version>
0

> <s_m_source_file>
/data/baiqing/PycharmProjects/Reinvent-master-3.2/result/LINK_invent/BTK/process_docking_weight1_custom_sum_contain_oxygen_bond_distance_aromatic_linkinvent_7_9_3/rearranged_h_0042.sdf

> <i_m_source_file_index>
31

> <r_mmod_Potential_Energy-OPLS-2005>
-90.0079879760742

> <r_mmod_Stretch_Energy-OPLS-2005>
46.9710845947266

> <r_mmod_Bend_Energy-OPLS-2005>
124.682258605957

> <r_mmod_Torsional_Energy-OPLS-2005>
197.27766418457

> <r_mmod_Improper_Torsional_Energy-OPLS-2005>
3.53525876998901

> <r_mmod_Van_der_Waal_Energy-OPLS-2005>
123.577293395996

> <r_mmod_Electrostatic_Energy-OPLS-2005>
-385.107788085938

> <r_mmod_Solvation_Energy-OPLS-2005>
-222.813354492188

> <b_mmod_Minimization_Converged-OPLS-2005>
0

> <r_mmod_RMS_Derivative-OPLS-2005>
4.33204698562622

$$$$
32
                    3D
 Structure written by MMmdl.
158166  0  0  1  0            999 V2000
  -30.6362  -14.6399   20.4900 C   0  0  0  0  0  0
  -30.4383  -12.3885   19.4634 C   0  0  0  0  0  0
  -29.5104  -12.5033   18.2325 C   0  0  0  0  0  0
  -28.0350  -12.3411   18.6451 C   0  0  0  0  0  0
  -27.6587  -13.2163   19.8702 C   0  0  2  0  0  0
  -28.7039  -13.0786   21.0037 C   0  0  0  0  0  0
  -25.2585  -13.8168   20.5694 C   0  0  0  0  0  0
  -24.1845  -13.0440   20.9177 C   0  0  0  0  0  0
  -24.6410  -11.6909   20.8734 C   0  0  0  0  0  0
  -23.9077  -10.4302   21.0405 C   0  0  0  0  0  0
  -24.3623   -9.4213   21.9191 C   0  0  0  0  0  0
  -23.6287   -8.2249   22.0767 C   0  0  0  0  0  0
  -22.4273   -8.0287   21.3551 C   0  0  0  0  0  0
  -21.9912   -9.0259   20.4655 C   0  0  0  0  0  0
  -22.7241  -10.2138   20.3059 C   0  0  0  0  0  0
  -21.6855   -6.0738   22.5274 C   0  0  0  0  0  0
  -21.4015   -6.5642   23.8206 C   0  0  0  0  0  0
  -21.3655   -5.6792   24.9170 C   0  0  0  0  0  0
  -21.6043   -4.3055   24.7220 C   0  0  0  0  0  0
  -21.8821   -3.8148   23.4344 C   0  0  0  0  0  0
  -21.9193   -4.6965   22.3400 C   0  0  0  0  0  0
  -22.7870  -13.5238   21.1827 C   0  0  0  0  0  0
  -22.1658   -4.2155   21.0976 F   0  0  0  0  0  0
  -21.5630   -3.4539   25.7733 F   0  0  0  0  0  0
  -30.0235  -13.4138   20.4443 N   0  0  0  0  0  0
  -26.3028  -12.9351   20.3356 N   0  0  0  0  0  0
  -25.9344  -11.6507   20.5781 N   0  0  0  0  0  0
  -22.0499  -12.8242   22.0381 N   0  0  0  0  0  0
  -25.4311  -15.1887   20.4123 N   0  0  0  0  0  0
  -31.7731  -14.8073   20.0411 O   0  0  0  0  0  0
  -21.6634   -6.8886   21.4241 O   0  0  0  0  0  0
  -22.3564  -14.5549   20.6680 O   0  0  0  0  0  0
  -24.6281  -31.8616   23.2094 C   0  0  0  0  0  0
  -25.9132  -32.4786   23.8390 C   0  0  1  0  0  0
  -27.2082  -27.2994   20.0931 C   0  0  0  0  0  0
  -25.5950  -33.8580   24.2306 N   0  0  0  0  0  0
  -23.4208  -30.4933   21.5539 C   0  0  2  0  0  0
  -24.8658  -28.9693   20.1004 C   0  0  0  0  0  0
  -22.7490  -29.4622   22.4930 C   0  0  0  0  0  0
  -18.0293  -28.1368   22.8461 C   0  0  0  0  0  0
  -24.1487  -36.7285   23.2633 C   0  0  0  0  0  0
  -25.9690  -30.7784   21.3976 C   0  0  0  0  0  0
  -26.0387  -29.4094   20.7301 C   0  0  0  0  0  0
  -27.2079  -28.5820   20.7361 C   0  0  0  0  0  0
  -26.0195  -26.9685   19.3847 C   0  0  0  0  0  0
  -24.8614  -27.7520   19.4180 C   0  0  0  0  0  0
  -23.6358  -29.8480   20.1628 C   0  0  0  0  0  0
  -25.4109  -36.3071   24.0320 C   0  0  1  0  0  0
  -20.5887  -28.3680   23.1248 C   0  0  2  0  0  0
  -20.6781  -26.9398   22.5391 C   0  0  0  0  0  0
  -19.5755  -26.6370   21.5194 C   0  0  0  0  0  0
  -18.1933  -26.7907   22.1614 C   0  0  0  0  0  0
  -19.1552  -28.8842   23.2844 C   0  0  0  0  0  0
  -18.9477  -30.1448   23.8857 C   0  0  0  0  0  0
  -17.6485  -30.6567   24.0549 C   0  0  0  0  0  0
  -25.9060  -34.9443   23.5103 C   0  0  0  0  0  0
  -16.5377  -29.9061   23.6338 C   0  0  0  0  0  0
  -16.7285  -28.6489   23.0330 C   0  0  0  0  0  0
  -26.4524  -31.6591   25.0760 C   0  0  0  0  0  0
  -25.3738  -31.3744   26.1488 C   0  0  0  0  0  0
  -27.0398  -30.2995   24.6256 C   0  0  0  0  0  0
  -27.6069  -32.4350   25.7523 C   0  0  0  0  0  0
  -27.5577  -37.1783   24.8459 C   0  0  0  0  0  0
  -21.4204  -29.3039   22.3656 N   0  0  0  0  0  0
  -26.4286  -37.3759   23.9406 N   0  0  0  0  0  0
  -24.6909  -31.0597   22.1085 N   0  0  0  0  0  0
  -23.4199  -28.8118   23.2988 O   0  0  0  0  0  0
  -28.2686  -26.3578   20.1796 O   0  0  0  0  0  0
  -26.5612  -34.8917   22.4664 O   0  0  0  0  0  0
  -23.5446  -32.1430   23.7408 O   0  0  0  0  0  0
  -29.8259  -23.3655   20.6705 C   0  0  0  0  0  0
  -30.2349  -22.0339   21.0032 C   0  0  0  0  0  0
  -28.5351  -23.5949   20.1300 C   0  0  0  0  0  0
  -29.3739  -20.9256   20.7840 C   0  0  0  0  0  0
  -27.7681  -22.4068   19.8986 C   0  0  0  0  0  0
  -25.2950  -22.4604   20.4582 C   0  0  0  0  0  0
  -27.9097  -24.9859   19.7195 C   0  0  0  0  0  0
  -29.6071  -19.4817   21.3652 C   0  0  0  0  0  0
  -26.3484  -22.4348   19.3386 C   0  0  0  0  0  0
  -30.4171  -18.3639   20.5776 C   0  0  0  0  0  0
  -29.7015  -17.0211   20.1076 C   0  0  0  0  0  0
  -28.1723  -21.1445   20.2114 N   0  0  0  0  0  0
  -29.8522  -15.7086   20.8371 N   0  0  0  0  0  0
  -31.4813  -12.5014   19.1636 H   0  0  0  0  0  0
  -30.3649  -11.3952   19.9073 H   0  0  0  0  0  0
  -29.7751  -11.7472   17.4918 H   0  0  0  0  0  0
  -29.6530  -13.4702   17.7468 H   0  0  0  0  0  0
  -27.8755  -11.2883   18.8821 H   0  0  0  0  0  0
  -27.3786  -12.5657   17.8041 H   0  0  0  0  0  0
  -27.6774  -14.2504   19.5255 H   0  0  0  0  0  0
  -28.7140  -12.0591   21.3930 H   0  0  0  0  0  0
  -28.4509  -13.7193   21.8499 H   0  0  0  0  0  0
  -25.2774   -9.5679   22.4765 H   0  0  0  0  0  0
  -23.9991   -7.4644   22.7501 H   0  0  0  0  0  0
  -21.0840   -8.8783   19.8960 H   0  0  0  0  0  0
  -22.3707  -10.9681   19.6165 H   0  0  0  0  0  0
  -21.2009   -7.6150   23.9711 H   0  0  0  0  0  0
  -21.1471   -6.0526   25.9075 H   0  0  0  0  0  0
  -22.0607   -2.7614   23.2837 H   0  0  0  0  0  0
  -22.4100  -11.9889   22.4757 H   0  0  0  0  0  0
  -21.1128  -13.1298   22.2600 H   0  0  0  0  0  0
  -24.6668  -15.8458   20.5284 H   0  0  0  0  0  0
  -26.2842  -15.6278   20.0897 H   0  0  0  0  0  0
  -26.7195  -32.5462   23.1130 H   0  0  0  0  0  0
  -25.0118  -33.9717   25.0468 H   0  0  0  0  0  0
  -22.7175  -31.3189   21.4223 H   0  0  0  0  0  0
  -23.3743  -35.9626   23.3302 H   0  0  0  0  0  0
  -24.3580  -36.8900   22.2048 H   0  0  0  0  0  0
  -23.7262  -37.6483   23.6672 H   0  0  0  0  0  0
  -26.1127  -31.5470   20.6367 H   0  0  0  0  0  0
  -26.8412  -30.8131   22.0364 H   0  0  0  0  0  0
  -28.0914  -28.9040   21.2727 H   0  0  0  0  0  0
  -25.9197  -26.0778   18.7847 H   0  0  0  0  0  0
  -23.9767  -27.4244   18.8886 H   0  0  0  0  0  0
  -23.7553  -30.6385   19.4216 H   0  0  0  0  0  0
  -22.7527  -29.2853   19.8503 H   0  0  0  0  0  0
  -25.1283  -36.1912   25.0806 H   0  0  0  0  0  0
  -20.9984  -28.3268   24.1367 H   0  0  0  0  0  0
  -20.5690  -26.2285   23.3589 H   0  0  0  0  0  0
  -21.6641  -26.7430   22.1170 H   0  0  0  0  0  0
  -19.6915  -25.6278   21.1213 H   0  0  0  0  0  0
  -19.6678  -27.3196   20.6730 H   0  0  0  0  0  0
  -17.4190  -26.6652   21.4023 H   0  0  0  0  0  0
  -18.0327  -26.0059   22.9024 H   0  0  0  0  0  0
  -19.7976  -30.7245   24.2199 H   0  0  0  0  0  0
  -17.5058  -31.6255   24.5157 H   0  0  0  0  0  0
  -15.5365  -30.2941   23.7697 H   0  0  0  0  0  0
  -15.8693  -28.0814   22.7020 H   0  0  0  0  0  0
  -24.5926  -30.7073   25.7832 H   0  0  0  0  0  0
  -24.8930  -32.2920   26.4881 H   0  0  0  0  0  0
  -25.8065  -30.8960   27.0284 H   0  0  0  0  0  0
  -26.3001  -29.6703   24.1296 H   0  0  0  0  0  0
  -27.4069  -29.7294   25.4799 H   0  0  0  0  0  0
  -27.8887  -30.4240   23.9532 H   0  0  0  0  0  0
  -27.2662  -33.3678   26.2041 H   0  0  0  0  0  0
  -28.3909  -32.6867   25.0363 H   0  0  0  0  0  0
  -28.0705  -31.8511   26.5483 H   0  0  0  0  0  0
  -28.2562  -38.0116   24.7517 H   0  0  0  0  0  0
  -28.1105  -36.2624   24.6273 H   0  0  0  0  0  0
  -27.2282  -37.1405   25.8862 H   0  0  0  0  0  0
  -20.9379  -29.8841   21.6934 H   0  0  0  0  0  0
  -26.0166  -38.2814   24.1459 H   0  0  0  0  0  0
  -30.4867  -24.1994   20.8578 H   0  0  0  0  0  0
  -31.1948  -21.8774   21.4751 H   0  0  0  0  0  0
  -24.2852  -22.4900   20.0497 H   0  0  0  0  0  0
  -25.4179  -23.3295   21.1026 H   0  0  0  0  0  0
  -25.3729  -21.5724   21.0873 H   0  0  0  0  0  0
  -26.9120  -24.8246   20.1190 H   0  0  0  0  0  0
  -27.8613  -24.9999   18.6284 H   0  0  0  0  0  0
  -28.6309  -19.0773   21.6353 H   0  0  0  0  0  0
  -30.1040  -19.6251   22.3243 H   0  0  0  0  0  0
  -26.1908  -21.5432   18.7291 H   0  0  0  0  0  0
  -26.2022  -23.2664   18.6509 H   0  0  0  0  0  0
  -31.3017  -18.0973   21.1557 H   0  0  0  0  0  0
  -30.8182  -18.8486   19.6855 H   0  0  0  0  0  0
  -30.0108  -16.8359   19.0773 H   0  0  0  0  0  0
  -28.6318  -17.2186   20.0271 H   0  0  0  0  0  0
  -29.0123  -15.4250   21.3211 H   0  0  0  0  0  0
  1 25  1  0  0  0
  1 30  2  0  0  0
  1 83  1  0  0  0
  2  3  1  0  0  0
  2 25  1  0  0  0
  2 84  1  0  0  0
  2 85  1  0  0  0
  3  4  1  0  0  0
  3 86  1  0  0  0
  3 87  1  0  0  0
  4  5  1  0  0  0
  4 88  1  0  0  0
  4 89  1  0  0  0
  5  6  1  0  0  0
  5 26  1  0  0  0
  5 90  1  0  0  0
  6 25  1  0  0  0
  6 91  1  0  0  0
  6 92  1  0  0  0
  7  8  2  0  0  0
  7 26  1  0  0  0
  7 29  1  0  0  0
  8  9  1  0  0  0
  8 22  1  0  0  0
  9 10  1  0  0  0
  9 27  2  0  0  0
 10 11  2  0  0  0
 10 15  1  0  0  0
 11 12  1  0  0  0
 11 93  1  0  0  0
 12 13  2  0  0  0
 12 94  1  0  0  0
 13 14  1  0  0  0
 13 31  1  0  0  0
 14 15  2  0  0  0
 14 95  1  0  0  0
 15 96  1  0  0  0
 16 17  2  0  0  0
 16 21  1  0  0  0
 16 31  1  0  0  0
 17 18  1  0  0  0
 17 97  1  0  0  0
 18 19  2  0  0  0
 18 98  1  0  0  0
 19 20  1  0  0  0
 19 24  1  0  0  0
 20 21  2  0  0  0
 20 99  1  0  0  0
 21 23  1  0  0  0
 22 28  1  0  0  0
 22 32  2  0  0  0
 26 27  1  0  0  0
 28100  1  0  0  0
 28101  1  0  0  0
 29102  1  0  0  0
 29103  1  0  0  0
 33 34  1  0  0  0
 33 66  1  0  0  0
 33 70  2  0  0  0
 34 36  1  0  0  0
 34 59  1  0  0  0
 34104  1  0  0  0
 35 44  2  0  0  0
 35 45  1  0  0  0
 35 68  1  0  0  0
 36 56  1  0  0  0
 36105  1  0  0  0
 37 39  1  0  0  0
 37 47  1  0  0  0
 37 66  1  0  0  0
 37106  1  0  0  0
 38 43  2  0  0  0
 38 46  1  0  0  0
 38 47  1  0  0  0
 39 64  1  0  0  0
 39 67  2  0  0  0
 40 52  1  0  0  0
 40 53  2  0  0  0
 40 58  1  0  0  0
 41107  1  0  0  0
 41108  1  0  0  0
 41109  1  0  0  0
 41 48  1  0  0  0
 42 43  1  0  0  0
 42 66  1  0  0  0
 42110  1  0  0  0
 42111  1  0  0  0
 43 44  1  0  0  0
 44112  1  0  0  0
 45 46  2  0  0  0
 45113  1  0  0  0
 46114  1  0  0  0
 47115  1  0  0  0
 47116  1  0  0  0
 48 56  1  0  0  0
 48 65  1  0  0  0
 48117  1  0  0  0
 49 50  1  0  0  0
 49 53  1  0  0  0
 49 64  1  0  0  0
 49118  1  0  0  0
 50 51  1  0  0  0
 50119  1  0  0  0
 50120  1  0  0  0
 51 52  1  0  0  0
 51121  1  0  0  0
 51122  1  0  0  0
 52123  1  0  0  0
 52124  1  0  0  0
 53 54  1  0  0  0
 54 55  2  0  0  0
 54125  1  0  0  0
 55 57  1  0  0  0
 55126  1  0  0  0
 56 69  2  0  0  0
 57 58  2  0  0  0
 57127  1  0  0  0
 58128  1  0  0  0
 59 60  1  0  0  0
 59 61  1  0  0  0
 59 62  1  0  0  0
 60129  1  0  0  0
 60130  1  0  0  0
 60131  1  0  0  0
 61132  1  0  0  0
 61133  1  0  0  0
 61134  1  0  0  0
 62135  1  0  0  0
 62136  1  0  0  0
 62137  1  0  0  0
 63 65  1  0  0  0
 63138  1  0  0  0
 63139  1  0  0  0
 63140  1  0  0  0
 64141  1  0  0  0
 65142  1  0  0  0
 68 77  1  0  0  0
 71 72  2  0  0  0
 71 73  1  0  0  0
 71143  1  0  0  0
 72 74  1  0  0  0
 72144  1  0  0  0
 73 75  2  0  0  0
 73 77  1  0  0  0
 74 78  1  0  0  0
 74 82  2  0  0  0
 75 79  1  0  0  0
 75 82  1  0  0  0
 76 79  1  0  0  0
 76145  1  0  0  0
 76146  1  0  0  0
 76147  1  0  0  0
 77148  1  0  0  0
 77149  1  0  0  0
 78 80  1  0  0  0
 78150  1  0  0  0
 78151  1  0  0  0
 79152  1  0  0  0
 79153  1  0  0  0
 80 81  1  0  0  0
 80154  1  0  0  0
 80155  1  0  0  0
 81 83  1  0  0  0
 81156  1  0  0  0
 81157  1  0  0  0
 83158  1  0  0  0
M  ISO  4   1 100  68 101  77 101  83 100
M  END
> <chiral flag>
0

> <version>
0

> <s_m_source_file>
/data/baiqing/PycharmProjects/Reinvent-master-3.2/result/LINK_invent/BTK/process_docking_weight1_custom_sum_contain_oxygen_bond_distance_aromatic_linkinvent_7_9_3/rearranged_h_0042.sdf

> <i_m_source_file_index>
32

> <r_mmod_Potential_Energy-OPLS-2005>
1.38591909408569

> <r_mmod_Stretch_Energy-OPLS-2005>
86.2753219604492

> <r_mmod_Bend_Energy-OPLS-2005>
184.434814453125

> <r_mmod_Torsional_Energy-OPLS-2005>
243.063339233398

> <r_mmod_Improper_Torsional_Energy-OPLS-2005>
8.79846954345703

> <r_mmod_Van_der_Waal_Energy-OPLS-2005>
161.516647338867

> <r_mmod_Electrostatic_Energy-OPLS-2005>
-523.372985839844

> <r_mmod_Solvation_Energy-OPLS-2005>
-222.608306884766

> <b_mmod_Minimization_Converged-OPLS-2005>
0

> <r_mmod_RMS_Derivative-OPLS-2005>
2.68461942672729

$$$$
33
                    3D
 Structure written by MMmdl.
165173  0  0  1  0            999 V2000
  -30.5967  -14.7460   20.4292 C   0  0  0  0  0  0
  -30.4312  -12.4517   19.4576 C   0  0  0  0  0  0
  -29.5057  -12.4965   18.2230 C   0  0  0  0  0  0
  -28.0306  -12.3270   18.6377 C   0  0  0  0  0  0
  -27.6412  -13.2251   19.8436 C   0  0  2  0  0  0
  -28.6897  -13.1616   20.9752 C   0  0  0  0  0  0
  -25.2534  -13.8198   20.5681 C   0  0  0  0  0  0
  -24.1830  -13.0450   20.9214 C   0  0  0  0  0  0
  -24.6395  -11.6919   20.8732 C   0  0  0  0  0  0
  -23.9061  -10.4303   21.0377 C   0  0  0  0  0  0
  -24.3622   -9.4227   21.9159 C   0  0  0  0  0  0
  -23.6312   -8.2252   22.0736 C   0  0  0  0  0  0
  -22.4293   -8.0274   21.3524 C   0  0  0  0  0  0
  -21.9918   -9.0239   20.4622 C   0  0  0  0  0  0
  -22.7227  -10.2128   20.3024 C   0  0  0  0  0  0
  -21.6867   -6.0721   22.5266 C   0  0  0  0  0  0
  -21.4014   -6.5624   23.8200 C   0  0  0  0  0  0
  -21.3669   -5.6786   24.9170 C   0  0  0  0  0  0
  -21.6052   -4.3046   24.7226 C   0  0  0  0  0  0
  -21.8823   -3.8128   23.4350 C   0  0  0  0  0  0
  -21.9204   -4.6948   22.3398 C   0  0  0  0  0  0
  -22.7842  -13.5221   21.1889 C   0  0  0  0  0  0
  -22.1670   -4.2119   21.0983 F   0  0  0  0  0  0
  -21.5640   -3.4532   25.7750 F   0  0  0  0  0  0
  -29.9854  -13.5154   20.3835 N   0  0  0  0  0  0
  -26.2942  -12.9380   20.3248 N   0  0  0  0  0  0
  -25.9322  -11.6523   20.5733 N   0  0  0  0  0  0
  -22.0511  -12.8169   22.0432 N   0  0  0  0  0  0
  -25.4237  -15.1931   20.4061 N   0  0  0  0  0  0
  -31.7921  -14.8531   20.1400 O   0  0  0  0  0  0
  -21.6659   -6.8867   21.4228 O   0  0  0  0  0  0
  -22.3503  -14.5529   20.6760 O   0  0  0  0  0  0
  -24.6300  -31.8543   23.1946 C   0  0  0  0  0  0
  -25.9120  -32.4757   23.8299 C   0  0  1  0  0  0
  -27.2200  -27.2714   20.1424 C   0  0  0  0  0  0
  -25.5914  -33.8559   24.2230 N   0  0  0  0  0  0
  -23.4278  -30.4729   21.5377 C   0  0  2  0  0  0
  -24.8734  -28.9128   20.1116 C   0  0  0  0  0  0
  -22.7490  -29.4594   22.4906 C   0  0  0  0  0  0
  -18.0285  -28.1395   22.8494 C   0  0  0  0  0  0
  -24.1477  -36.7286   23.2643 C   0  0  0  0  0  0
  -25.9683  -30.7713   21.3705 C   0  0  0  0  0  0
  -26.0408  -29.3918   20.7187 C   0  0  0  0  0  0
  -27.2199  -28.5864   20.7127 C   0  0  0  0  0  0
  -26.0372  -26.8488   19.5056 C   0  0  0  0  0  0
  -24.8757  -27.6505   19.4912 C   0  0  0  0  0  0
  -23.6442  -29.7990   20.1557 C   0  0  0  0  0  0
  -25.4111  -36.3081   24.0326 C   0  0  1  0  0  0
  -20.5892  -28.3697   23.1270 C   0  0  2  0  0  0
  -20.6781  -26.9419   22.5405 C   0  0  0  0  0  0
  -19.5754  -26.6392   21.5212 C   0  0  0  0  0  0
  -18.1930  -26.7941   22.1626 C   0  0  0  0  0  0
  -19.1542  -28.8866   23.2878 C   0  0  0  0  0  0
  -18.9468  -30.1465   23.8899 C   0  0  0  0  0  0
  -17.6466  -30.6595   24.0570 C   0  0  0  0  0  0
  -25.9054  -34.9450   23.5084 C   0  0  0  0  0  0
  -16.5358  -29.9095   23.6340 C   0  0  0  0  0  0
  -16.7273  -28.6508   23.0358 C   0  0  0  0  0  0
  -26.4479  -31.6597   25.0700 C   0  0  0  0  0  0
  -25.3686  -31.3760   26.1415 C   0  0  0  0  0  0
  -27.0327  -30.3016   24.6190 C   0  0  0  0  0  0
  -27.6043  -32.4335   25.7465 C   0  0  0  0  0  0
  -27.5575  -37.1795   24.8461 C   0  0  0  0  0  0
  -21.4198  -29.3041   22.3654 N   0  0  0  0  0  0
  -26.4279  -37.3785   23.9416 N   0  0  0  0  0  0
  -24.6945  -31.0509   22.0919 N   0  0  0  0  0  0
  -23.4184  -28.8163   23.3033 O   0  0  0  0  0  0
  -28.3443  -26.4256   20.1540 O   0  0  0  0  0  0
  -26.5627  -34.8931   22.4662 O   0  0  0  0  0  0
  -23.5445  -32.1351   23.7240 O   0  0  0  0  0  0
  -28.3003  -21.0604   19.9783 C   0  0  0  0  0  0
  -29.2296  -20.0474   20.2573 C   0  0  0  0  0  0
  -30.3729  -20.8632   20.5625 C   0  0  0  0  0  0
  -32.8176  -20.9388   19.9469 C   0  0  0  0  0  0
  -27.3291  -25.7427   23.0740 C   0  0  0  0  0  0
  -29.7460  -25.0598   21.4359 C   0  0  0  0  0  0
  -29.0153  -18.4556   20.2094 C   0  0  0  0  0  0
  -31.7682  -20.4667   20.9644 C   0  0  0  0  0  0
  -27.2742  -24.8284   21.8327 C   0  0  0  0  0  0
  -28.3164  -23.7588   19.7368 C   0  0  0  0  0  0
  -30.1632  -17.3595   20.5461 C   0  0  0  0  0  0
  -28.3684  -25.0360   20.7437 C   0  0  1  0  0  0
  -30.1361  -22.1788   20.4677 N   0  0  0  0  0  0
  -28.8430  -22.3625   20.1185 N   0  0  0  0  0  0
  -29.7988  -15.8704   20.5818 N   0  0  0  0  0  0
  -31.4696  -12.5794   19.1501 H   0  0  0  0  0  0
  -30.3775  -11.4769   19.9445 H   0  0  0  0  0  0
  -29.7833  -11.7134   17.5144 H   0  0  0  0  0  0
  -29.6344  -13.4424   17.6964 H   0  0  0  0  0  0
  -27.8807  -11.2777   18.8933 H   0  0  0  0  0  0
  -27.3760  -12.5285   17.7876 H   0  0  0  0  0  0
  -27.6347  -14.2462   19.4634 H   0  0  0  0  0  0
  -28.7357  -12.1641   21.4145 H   0  0  0  0  0  0
  -28.4287  -13.8462   21.7834 H   0  0  0  0  0  0
  -25.2768   -9.5721   22.4731 H   0  0  0  0  0  0
  -24.0026   -7.4647   22.7450 H   0  0  0  0  0  0
  -21.0851   -8.8746   19.8925 H   0  0  0  0  0  0
  -22.3671  -10.9665   19.6130 H   0  0  0  0  0  0
  -21.1989   -7.6125   23.9688 H   0  0  0  0  0  0
  -21.1497   -6.0520   25.9075 H   0  0  0  0  0  0
  -22.0599   -2.7585   23.2866 H   0  0  0  0  0  0
  -22.4178  -11.9825   22.4774 H   0  0  0  0  0  0
  -21.1105  -13.1112   22.2634 H   0  0  0  0  0  0
  -24.6557  -15.8472   20.5152 H   0  0  0  0  0  0
  -26.2566  -15.6255   20.0290 H   0  0  0  0  0  0
  -26.7195  -32.5394   23.1046 H   0  0  0  0  0  0
  -25.0057  -33.9689   25.0373 H   0  0  0  0  0  0
  -22.7249  -31.2949   21.3874 H   0  0  0  0  0  0
  -23.3748  -35.9608   23.3302 H   0  0  0  0  0  0
  -24.3558  -36.8909   22.2057 H   0  0  0  0  0  0
  -23.7213  -37.6483   23.6661 H   0  0  0  0  0  0
  -26.1002  -31.5293   20.5973 H   0  0  0  0  0  0
  -26.8505  -30.8243   21.9980 H   0  0  0  0  0  0
  -28.1215  -28.9516   21.1835 H   0  0  0  0  0  0
  -26.0102  -25.8798   19.0269 H   0  0  0  0  0  0
  -23.9857  -27.2811   18.9996 H   0  0  0  0  0  0
  -23.7648  -30.5703   19.3935 H   0  0  0  0  0  0
  -22.7640  -29.2269   19.8568 H   0  0  0  0  0  0
  -25.1294  -36.1932   25.0815 H   0  0  0  0  0  0
  -20.9982  -28.3279   24.1393 H   0  0  0  0  0  0
  -20.5681  -26.2310   23.3607 H   0  0  0  0  0  0
  -21.6645  -26.7445   22.1199 H   0  0  0  0  0  0
  -19.6914  -25.6300   21.1246 H   0  0  0  0  0  0
  -19.6697  -27.3198   20.6740 H   0  0  0  0  0  0
  -17.4199  -26.6685   21.4026 H   0  0  0  0  0  0
  -18.0334  -26.0081   22.9023 H   0  0  0  0  0  0
  -19.7940  -30.7282   24.2261 H   0  0  0  0  0  0
  -17.5022  -31.6277   24.5171 H   0  0  0  0  0  0
  -15.5357  -30.3002   23.7665 H   0  0  0  0  0  0
  -15.8668  -28.0832   22.7080 H   0  0  0  0  0  0
  -24.5847  -30.7140   25.7720 H   0  0  0  0  0  0
  -24.8888  -32.2936   26.4831 H   0  0  0  0  0  0
  -25.7970  -30.8920   27.0200 H   0  0  0  0  0  0
  -26.2911  -29.6770   24.1201 H   0  0  0  0  0  0
  -27.4001  -29.7281   25.4710 H   0  0  0  0  0  0
  -27.8784  -30.4307   23.9435 H   0  0  0  0  0  0
  -27.2669  -33.3644   26.2038 H   0  0  0  0  0  0
  -28.3844  -32.6889   25.0280 H   0  0  0  0  0  0
  -28.0728  -31.8466   26.5377 H   0  0  0  0  0  0
  -28.2596  -38.0091   24.7527 H   0  0  0  0  0  0
  -28.1061  -36.2624   24.6260 H   0  0  0  0  0  0
  -27.2289  -37.1420   25.8862 H   0  0  0  0  0  0
  -20.9377  -29.8740   21.6846 H   0  0  0  0  0  0
  -26.0161  -38.2853   24.1443 H   0  0  0  0  0  0
  -27.2752  -20.9511   19.6521 H   0  0  0  0  0  0
  -33.8170  -20.6086   20.2307 H   0  0  0  0  0  0
  -32.8384  -22.0276   19.8841 H   0  0  0  0  0  0
  -32.5986  -20.5506   18.9507 H   0  0  0  0  0  0
  -26.5000  -25.5141   23.7434 H   0  0  0  0  0  0
  -27.2542  -26.7975   22.8210 H   0  0  0  0  0  0
  -28.2461  -25.6049   23.6461 H   0  0  0  0  0  0
  -29.8562  -24.2351   22.1413 H   0  0  0  0  0  0
  -29.9076  -25.9827   21.9919 H   0  0  0  0  0  0
  -30.5541  -24.9778   20.7088 H   0  0  0  0  0  0
  -28.6645  -18.2037   19.2084 H   0  0  0  0  0  0
  -28.1642  -18.2169   20.8469 H   0  0  0  0  0  0
  -31.8489  -19.3905   21.0772 H   0  0  0  0  0  0
  -32.0000  -20.8844   21.9447 H   0  0  0  0  0  0
  -26.2846  -24.8969   21.3816 H   0  0  0  0  0  0
  -27.3413  -23.8004   22.1926 H   0  0  0  0  0  0
  -28.8711  -24.0481   18.8447 H   0  0  0  0  0  0
  -27.2923  -23.6354   19.3845 H   0  0  0  0  0  0
  -30.9823  -17.4921   19.8390 H   0  0  0  0  0  0
  -30.5724  -17.5810   21.5309 H   0  0  0  0  0  0
  -28.8239  -15.6690   20.7473 H   0  0  0  0  0  0
  1 25  1  0  0  0
  1 30  2  0  0  0
  1 85  1  0  0  0
  2  3  1  0  0  0
  2 25  1  0  0  0
  2 86  1  0  0  0
  2 87  1  0  0  0
  3  4  1  0  0  0
  3 88  1  0  0  0
  3 89  1  0  0  0
  4  5  1  0  0  0
  4 90  1  0  0  0
  4 91  1  0  0  0
  5  6  1  0  0  0
  5 26  1  0  0  0
  5 92  1  0  0  0
  6 25  1  0  0  0
  6 93  1  0  0  0
  6 94  1  0  0  0
  7  8  2  0  0  0
  7 26  1  0  0  0
  7 29  1  0  0  0
  8  9  1  0  0  0
  8 22  1  0  0  0
  9 10  1  0  0  0
  9 27  2  0  0  0
 10 11  2  0  0  0
 10 15  1  0  0  0
 11 12  1  0  0  0
 11 95  1  0  0  0
 12 13  2  0  0  0
 12 96  1  0  0  0
 13 14  1  0  0  0
 13 31  1  0  0  0
 14 15  2  0  0  0
 14 97  1  0  0  0
 15 98  1  0  0  0
 16 17  2  0  0  0
 16 21  1  0  0  0
 16 31  1  0  0  0
 17 18  1  0  0  0
 17 99  1  0  0  0
 18 19  2  0  0  0
 18100  1  0  0  0
 19 20  1  0  0  0
 19 24  1  0  0  0
 20 21  2  0  0  0
 20101  1  0  0  0
 21 23  1  0  0  0
 22 28  1  0  0  0
 22 32  2  0  0  0
 26 27  1  0  0  0
 28102  1  0  0  0
 28103  1  0  0  0
 29104  1  0  0  0
 29105  1  0  0  0
 33 34  1  0  0  0
 33 66  1  0  0  0
 33 70  2  0  0  0
 34 36  1  0  0  0
 34 59  1  0  0  0
 34106  1  0  0  0
 35 44  2  0  0  0
 35 45  1  0  0  0
 35 68  1  0  0  0
 36 56  1  0  0  0
 36107  1  0  0  0
 37 39  1  0  0  0
 37 47  1  0  0  0
 37 66  1  0  0  0
 37108  1  0  0  0
 38 43  2  0  0  0
 38 46  1  0  0  0
 38 47  1  0  0  0
 39 64  1  0  0  0
 39 67  2  0  0  0
 40 52  1  0  0  0
 40 53  2  0  0  0
 40 58  1  0  0  0
 41109  1  0  0  0
 41110  1  0  0  0
 41111  1  0  0  0
 41 48  1  0  0  0
 42 43  1  0  0  0
 42 66  1  0  0  0
 42112  1  0  0  0
 42113  1  0  0  0
 43 44  1  0  0  0
 44114  1  0  0  0
 45 46  2  0  0  0
 45115  1  0  0  0
 46116  1  0  0  0
 47117  1  0  0  0
 47118  1  0  0  0
 48 56  1  0  0  0
 48 65  1  0  0  0
 48119  1  0  0  0
 49 50  1  0  0  0
 49 53  1  0  0  0
 49 64  1  0  0  0
 49120  1  0  0  0
 50 51  1  0  0  0
 50121  1  0  0  0
 50122  1  0  0  0
 51 52  1  0  0  0
 51123  1  0  0  0
 51124  1  0  0  0
 52125  1  0  0  0
 52126  1  0  0  0
 53 54  1  0  0  0
 54 55  2  0  0  0
 54127  1  0  0  0
 55 57  1  0  0  0
 55128  1  0  0  0
 56 69  2  0  0  0
 57 58  2  0  0  0
 57129  1  0  0  0
 58130  1  0  0  0
 59 60  1  0  0  0
 59 61  1  0  0  0
 59 62  1  0  0  0
 60131  1  0  0  0
 60132  1  0  0  0
 60133  1  0  0  0
 61134  1  0  0  0
 61135  1  0  0  0
 61136  1  0  0  0
 62137  1  0  0  0
 62138  1  0  0  0
 62139  1  0  0  0
 63 65  1  0  0  0
 63140  1  0  0  0
 63141  1  0  0  0
 63142  1  0  0  0
 64143  1  0  0  0
 65144  1  0  0  0
 68 82  1  0  0  0
 71 72  2  0  0  0
 71 84  1  0  0  0
 71145  1  0  0  0
 72 73  1  0  0  0
 72 77  1  0  0  0
 73 78  1  0  0  0
 73 83  2  0  0  0
 74 78  1  0  0  0
 74146  1  0  0  0
 74147  1  0  0  0
 74148  1  0  0  0
 75 79  1  0  0  0
 75149  1  0  0  0
 75150  1  0  0  0
 75151  1  0  0  0
 76152  1  0  0  0
 76153  1  0  0  0
 76154  1  0  0  0
 76 82  1  0  0  0
 77 81  1  0  0  0
 77155  1  0  0  0
 77156  1  0  0  0
 78157  1  0  0  0
 78158  1  0  0  0
 79 82  1  0  0  0
 79159  1  0  0  0
 79160  1  0  0  0
 80 82  1  0  0  0
 80 84  1  0  0  0
 80161  1  0  0  0
 80162  1  0  0  0
 81 85  1  0  0  0
 81163  1  0  0  0
 81164  1  0  0  0
 83 84  1  0  0  0
 85165  1  0  0  0
M  ISO  4   1 100  68 101  82 101  85 100
M  END
> <chiral flag>
0

> <version>
0

> <s_m_source_file>
/data/baiqing/PycharmProjects/Reinvent-master-3.2/result/LINK_invent/BTK/process_docking_weight1_custom_sum_contain_oxygen_bond_distance_aromatic_linkinvent_7_9_3/rearranged_h_0042.sdf

> <i_m_source_file_index>
33

> <r_mmod_Potential_Energy-OPLS-2005>
114.880760192871

> <r_mmod_Stretch_Energy-OPLS-2005>
123.651313781738

> <r_mmod_Bend_Energy-OPLS-2005>
187.830490112305

> <r_mmod_Torsional_Energy-OPLS-2005>
228.61897277832

> <r_mmod_Improper_Torsional_Energy-OPLS-2005>
6.01339721679688

> <r_mmod_Van_der_Waal_Energy-OPLS-2005>
108.79443359375

> <r_mmod_Electrostatic_Energy-OPLS-2005>
-404.773132324219

> <r_mmod_Solvation_Energy-OPLS-2005>
-216.289566040039

> <b_mmod_Minimization_Converged-OPLS-2005>
0

> <r_mmod_RMS_Derivative-OPLS-2005>
2.55331921577454

$$$$
34
                    3D
 Structure written by MMmdl.
158166  0  0  1  0            999 V2000
  -30.7095  -14.4751   20.4892 C   0  0  0  0  0  0
  -30.4301  -12.2882   19.4363 C   0  0  0  0  0  0
  -29.5134  -12.4886   18.2142 C   0  0  0  0  0  0
  -28.0292  -12.3615   18.6135 C   0  0  0  0  0  0
  -27.6631  -13.2086   19.8626 C   0  0  2  0  0  0
  -28.7039  -13.0167   20.9893 C   0  0  0  0  0  0
  -25.2575  -13.8173   20.5668 C   0  0  0  0  0  0
  -24.1849  -13.0450   20.9158 C   0  0  0  0  0  0
  -24.6416  -11.6912   20.8701 C   0  0  0  0  0  0
  -23.9069  -10.4315   21.0404 C   0  0  0  0  0  0
  -24.3602   -9.4229   21.9171 C   0  0  0  0  0  0
  -23.6287   -8.2273   22.0755 C   0  0  0  0  0  0
  -22.4283   -8.0278   21.3548 C   0  0  0  0  0  0
  -21.9915   -9.0264   20.4671 C   0  0  0  0  0  0
  -22.7242  -10.2143   20.3073 C   0  0  0  0  0  0
  -21.6858   -6.0734   22.5310 C   0  0  0  0  0  0
  -21.4008   -6.5634   23.8242 C   0  0  0  0  0  0
  -21.3662   -5.6779   24.9192 C   0  0  0  0  0  0
  -21.6061   -4.3048   24.7234 C   0  0  0  0  0  0
  -21.8814   -3.8150   23.4352 C   0  0  0  0  0  0
  -21.9191   -4.6967   22.3411 C   0  0  0  0  0  0
  -22.7866  -13.5239   21.1837 C   0  0  0  0  0  0
  -22.1652   -4.2183   21.0984 F   0  0  0  0  0  0
  -21.5639   -3.4522   25.7726 F   0  0  0  0  0  0
  -30.0416  -13.2923   20.4337 N   0  0  0  0  0  0
  -26.3034  -12.9352   20.3265 N   0  0  0  0  0  0
  -25.9329  -11.6512   20.5698 N   0  0  0  0  0  0
  -22.0457  -12.8299   22.0387 N   0  0  0  0  0  0
  -25.4200  -15.1921   20.4116 N   0  0  0  0  0  0
  -31.8816  -14.6064   20.1274 O   0  0  0  0  0  0
  -21.6644   -6.8869   21.4258 O   0  0  0  0  0  0
  -22.3546  -14.5532   20.6661 O   0  0  0  0  0  0
  -24.6166  -31.8682   23.2101 C   0  0  0  0  0  0
  -25.9039  -32.4863   23.8423 C   0  0  1  0  0  0
  -27.2357  -27.4369   20.0702 C   0  0  0  0  0  0
  -25.5905  -33.8651   24.2362 N   0  0  0  0  0  0
  -23.4119  -30.4837   21.5542 C   0  0  2  0  0  0
  -24.8564  -28.9469   20.1224 C   0  0  0  0  0  0
  -22.7465  -29.4611   22.5073 C   0  0  0  0  0  0
  -18.0274  -28.1380   22.8518 C   0  0  0  0  0  0
  -24.1489  -36.7315   23.2644 C   0  0  0  0  0  0
  -25.9376  -30.8250   21.3660 C   0  0  0  0  0  0
  -26.0158  -29.4546   20.7231 C   0  0  0  0  0  0
  -27.2125  -28.6985   20.7103 C   0  0  0  0  0  0
  -26.0626  -26.9428   19.4686 C   0  0  0  0  0  0
  -24.8726  -27.6880   19.4985 C   0  0  0  0  0  0
  -23.6194  -29.8111   20.1713 C   0  0  0  0  0  0
  -25.4111  -36.3145   24.0342 C   0  0  1  0  0  0
  -20.5876  -28.3620   23.1392 C   0  0  2  0  0  0
  -20.6772  -26.9381   22.5438 C   0  0  0  0  0  0
  -19.5754  -26.6384   21.5250 C   0  0  0  0  0  0
  -18.1913  -26.7925   22.1649 C   0  0  0  0  0  0
  -19.1531  -28.8830   23.2932 C   0  0  0  0  0  0
  -18.9433  -30.1444   23.8939 C   0  0  0  0  0  0
  -17.6427  -30.6577   24.0571 C   0  0  0  0  0  0
  -25.9030  -34.9509   23.5153 C   0  0  0  0  0  0
  -16.5328  -29.9080   23.6325 C   0  0  0  0  0  0
  -16.7258  -28.6501   23.0352 C   0  0  0  0  0  0
  -26.4442  -31.6637   25.0755 C   0  0  0  0  0  0
  -25.3698  -31.3698   26.1502 C   0  0  0  0  0  0
  -27.0253  -30.3130   24.6027 C   0  0  0  0  0  0
  -27.6077  -32.4319   25.7460 C   0  0  0  0  0  0
  -27.5587  -37.1819   24.8462 C   0  0  0  0  0  0
  -21.4193  -29.3000   22.3825 N   0  0  0  0  0  0
  -26.4330  -37.3815   23.9402 N   0  0  0  0  0  0
  -24.6743  -31.0741   22.1027 N   0  0  0  0  0  0
  -23.4215  -28.8145   23.3119 O   0  0  0  0  0  0
  -28.3645  -26.6549   20.0273 O   0  0  0  0  0  0
  -26.5586  -34.8948   22.4712 O   0  0  0  0  0  0
  -23.5355  -32.1441   23.7477 O   0  0  0  0  0  0
  -30.2214  -22.4405   21.6752 C   0  0  0  0  0  0
  -28.3779  -23.6304   20.0379 C   0  0  0  0  0  0
  -30.0147  -23.8332   21.7957 C   0  0  0  0  0  0
  -29.0351  -24.4475   20.9800 C   0  0  0  0  0  0
  -29.4649  -21.6988   20.7465 C   0  0  0  0  0  0
  -30.7807  -24.6207   22.8420 C   0  0  0  0  0  0
  -28.5651  -25.8911   21.2186 C   0  0  0  0  0  0
  -29.4225  -20.1642   20.7500 C   0  0  0  0  0  0
  -30.7726  -19.4006   20.7649 C   0  0  0  0  0  0
  -30.6436  -17.9193   21.2396 C   0  0  0  0  0  0
  -30.2177  -16.9087   20.1521 C   0  0  0  0  0  0
  -28.5871  -22.2983   19.9168 N   0  0  0  0  0  0
  -29.9314  -15.5550   20.6684 N   0  0  0  0  0  0
  -31.4798  -12.3749   19.1409 H   0  0  0  0  0  0
  -30.3167  -11.2839   19.8470 H   0  0  0  0  0  0
  -29.7629  -11.7601   17.4408 H   0  0  0  0  0  0
  -29.7003  -13.4731   17.7822 H   0  0  0  0  0  0
  -27.8416  -11.3078   18.8138 H   0  0  0  0  0  0
  -27.3896  -12.6233   17.7733 H   0  0  0  0  0  0
  -27.6976  -14.2484   19.5459 H   0  0  0  0  0  0
  -28.6630  -11.9976   21.3768 H   0  0  0  0  0  0
  -28.4841  -13.6692   21.8328 H   0  0  0  0  0  0
  -25.2755   -9.5719   22.4690 H   0  0  0  0  0  0
  -24.0019   -7.4686   22.7488 H   0  0  0  0  0  0
  -21.0839   -8.8796   19.8979 H   0  0  0  0  0  0
  -22.3712  -10.9650   19.6173 H   0  0  0  0  0  0
  -21.1978   -7.6153   23.9777 H   0  0  0  0  0  0
  -21.1486   -6.0494   25.9119 H   0  0  0  0  0  0
  -22.0577   -2.7622   23.2859 H   0  0  0  0  0  0
  -22.4014  -11.9955   22.4826 H   0  0  0  0  0  0
  -21.1091  -13.1387   22.2543 H   0  0  0  0  0  0
  -24.6415  -15.8291   20.5410 H   0  0  0  0  0  0
  -26.2616  -15.6570   20.0912 H   0  0  0  0  0  0
  -26.7133  -32.5558   23.1207 H   0  0  0  0  0  0
  -25.0082  -33.9823   25.0534 H   0  0  0  0  0  0
  -22.7013  -31.2984   21.4113 H   0  0  0  0  0  0
  -23.3772  -35.9638   23.3341 H   0  0  0  0  0  0
  -24.3574  -36.8887   22.2049 H   0  0  0  0  0  0
  -23.7202  -37.6527   23.6610 H   0  0  0  0  0  0
  -26.0356  -31.5718   20.5774 H   0  0  0  0  0  0
  -26.8351  -30.8979   21.9664 H   0  0  0  0  0  0
  -28.1112  -29.0694   21.1826 H   0  0  0  0  0  0
  -26.0696  -25.9767   18.9854 H   0  0  0  0  0  0
  -23.9798  -27.2983   19.0276 H   0  0  0  0  0  0
  -23.7315  -30.5790   19.4050 H   0  0  0  0  0  0
  -22.7446  -29.2267   19.8821 H   0  0  0  0  0  0
  -25.1288  -36.2059   25.0843 H   0  0  0  0  0  0
  -20.9929  -28.3115   24.1541 H   0  0  0  0  0  0
  -20.5724  -26.2189   23.3570 H   0  0  0  0  0  0
  -21.6611  -26.7448   22.1207 H   0  0  0  0  0  0
  -19.6894  -25.6309   21.1230 H   0  0  0  0  0  0
  -19.6715  -27.3232   20.6815 H   0  0  0  0  0  0
  -17.4195  -26.6732   21.4015 H   0  0  0  0  0  0
  -18.0294  -26.0053   22.9028 H   0  0  0  0  0  0
  -19.7886  -30.7266   24.2340 H   0  0  0  0  0  0
  -17.4958  -31.6264   24.5144 H   0  0  0  0  0  0
  -15.5328  -30.2976   23.7626 H   0  0  0  0  0  0
  -15.8658  -28.0808   22.7071 H   0  0  0  0  0  0
  -24.5881  -30.7061   25.7796 H   0  0  0  0  0  0
  -24.8857  -32.2824   26.4996 H   0  0  0  0  0  0
  -25.8048  -30.8813   27.0227 H   0  0  0  0  0  0
  -26.2760  -29.6933   24.1100 H   0  0  0  0  0  0
  -27.4131  -29.7330   25.4392 H   0  0  0  0  0  0
  -27.8534  -30.4558   23.9086 H   0  0  0  0  0  0
  -27.2790  -33.3617   26.2100 H   0  0  0  0  0  0
  -28.3806  -32.6879   25.0203 H   0  0  0  0  0  0
  -28.0826  -31.8392   26.5279 H   0  0  0  0  0  0
  -28.2648  -38.0087   24.7526 H   0  0  0  0  0  0
  -28.1066  -36.2621   24.6309 H   0  0  0  0  0  0
  -27.2299  -37.1478   25.8874 H   0  0  0  0  0  0
  -20.9389  -29.8708   21.7007 H   0  0  0  0  0  0
  -26.0232  -38.2926   24.1401 H   0  0  0  0  0  0
  -30.8969  -21.9323   22.3509 H   0  0  0  0  0  0
  -27.6022  -24.0251   19.4047 H   0  0  0  0  0  0
  -31.3114  -25.4540   22.3719 H   0  0  0  0  0  0
  -31.5115  -23.9952   23.3556 H   0  0  0  0  0  0
  -30.0872  -25.0184   23.5848 H   0  0  0  0  0  0
  -29.2647  -26.4500   21.8387 H   0  0  0  0  0  0
  -27.6471  -25.8105   21.8092 H   0  0  0  0  0  0
  -28.8324  -19.8172   19.9001 H   0  0  0  0  0  0
  -28.8425  -19.8940   21.6324 H   0  0  0  0  0  0
  -31.4431  -19.9038   21.4609 H   0  0  0  0  0  0
  -31.2615  -19.4639   19.7895 H   0  0  0  0  0  0
  -31.6126  -17.6102   21.6310 H   0  0  0  0  0  0
  -29.9538  -17.8622   22.0817 H   0  0  0  0  0  0
  -30.9820  -16.8677   19.3724 H   0  0  0  0  0  0
  -29.3109  -17.2674   19.6633 H   0  0  0  0  0  0
  -28.9764  -15.3614   20.9265 H   0  0  0  0  0  0
  1 25  1  0  0  0
  1 30  2  0  0  0
  1 83  1  0  0  0
  2  3  1  0  0  0
  2 25  1  0  0  0
  2 84  1  0  0  0
  2 85  1  0  0  0
  3  4  1  0  0  0
  3 86  1  0  0  0
  3 87  1  0  0  0
  4  5  1  0  0  0
  4 88  1  0  0  0
  4 89  1  0  0  0
  5  6  1  0  0  0
  5 26  1  0  0  0
  5 90  1  0  0  0
  6 25  1  0  0  0
  6 91  1  0  0  0
  6 92  1  0  0  0
  7  8  2  0  0  0
  7 26  1  0  0  0
  7 29  1  0  0  0
  8  9  1  0  0  0
  8 22  1  0  0  0
  9 10  1  0  0  0
  9 27  2  0  0  0
 10 11  2  0  0  0
 10 15  1  0  0  0
 11 12  1  0  0  0
 11 93  1  0  0  0
 12 13  2  0  0  0
 12 94  1  0  0  0
 13 14  1  0  0  0
 13 31  1  0  0  0
 14 15  2  0  0  0
 14 95  1  0  0  0
 15 96  1  0  0  0
 16 17  2  0  0  0
 16 21  1  0  0  0
 16 31  1  0  0  0
 17 18  1  0  0  0
 17 97  1  0  0  0
 18 19  2  0  0  0
 18 98  1  0  0  0
 19 20  1  0  0  0
 19 24  1  0  0  0
 20 21  2  0  0  0
 20 99  1  0  0  0
 21 23  1  0  0  0
 22 28  1  0  0  0
 22 32  2  0  0  0
 26 27  1  0  0  0
 28100  1  0  0  0
 28101  1  0  0  0
 29102  1  0  0  0
 29103  1  0  0  0
 33 34  1  0  0  0
 33 66  1  0  0  0
 33 70  2  0  0  0
 34 36  1  0  0  0
 34 59  1  0  0  0
 34104  1  0  0  0
 35 44  2  0  0  0
 35 45  1  0  0  0
 35 68  1  0  0  0
 36 56  1  0  0  0
 36105  1  0  0  0
 37 39  1  0  0  0
 37 47  1  0  0  0
 37 66  1  0  0  0
 37106  1  0  0  0
 38 43  2  0  0  0
 38 46  1  0  0  0
 38 47  1  0  0  0
 39 64  1  0  0  0
 39 67  2  0  0  0
 40 52  1  0  0  0
 40 53  2  0  0  0
 40 58  1  0  0  0
 41107  1  0  0  0
 41108  1  0  0  0
 41109  1  0  0  0
 41 48  1  0  0  0
 42 43  1  0  0  0
 42 66  1  0  0  0
 42110  1  0  0  0
 42111  1  0  0  0
 43 44  1  0  0  0
 44112  1  0  0  0
 45 46  2  0  0  0
 45113  1  0  0  0
 46114  1  0  0  0
 47115  1  0  0  0
 47116  1  0  0  0
 48 56  1  0  0  0
 48 65  1  0  0  0
 48117  1  0  0  0
 49 50  1  0  0  0
 49 53  1  0  0  0
 49 64  1  0  0  0
 49118  1  0  0  0
 50 51  1  0  0  0
 50119  1  0  0  0
 50120  1  0  0  0
 51 52  1  0  0  0
 51121  1  0  0  0
 51122  1  0  0  0
 52123  1  0  0  0
 52124  1  0  0  0
 53 54  1  0  0  0
 54 55  2  0  0  0
 54125  1  0  0  0
 55 57  1  0  0  0
 55126  1  0  0  0
 56 69  2  0  0  0
 57 58  2  0  0  0
 57127  1  0  0  0
 58128  1  0  0  0
 59 60  1  0  0  0
 59 61  1  0  0  0
 59 62  1  0  0  0
 60129  1  0  0  0
 60130  1  0  0  0
 60131  1  0  0  0
 61132  1  0  0  0
 61133  1  0  0  0
 61134  1  0  0  0
 62135  1  0  0  0
 62136  1  0  0  0
 62137  1  0  0  0
 63 65  1  0  0  0
 63138  1  0  0  0
 63139  1  0  0  0
 63140  1  0  0  0
 64141  1  0  0  0
 65142  1  0  0  0
 68 77  1  0  0  0
 71 73  2  0  0  0
 71 75  1  0  0  0
 71143  1  0  0  0
 72 74  2  0  0  0
 72 82  1  0  0  0
 72144  1  0  0  0
 73 74  1  0  0  0
 73 76  1  0  0  0
 74 77  1  0  0  0
 75 78  1  0  0  0
 75 82  2  0  0  0
 76145  1  0  0  0
 76146  1  0  0  0
 76147  1  0  0  0
 77148  1  0  0  0
 77149  1  0  0  0
 78 79  1  0  0  0
 78150  1  0  0  0
 78151  1  0  0  0
 79 80  1  0  0  0
 79152  1  0  0  0
 79153  1  0  0  0
 80 81  1  0  0  0
 80154  1  0  0  0
 80155  1  0  0  0
 81 83  1  0  0  0
 81156  1  0  0  0
 81157  1  0  0  0
 83158  1  0  0  0
M  ISO  4   1 100  68 101  77 101  83 100
M  END
> <chiral flag>
0

> <version>
0

> <s_m_source_file>
/data/baiqing/PycharmProjects/Reinvent-master-3.2/result/LINK_invent/BTK/process_docking_weight1_custom_sum_contain_oxygen_bond_distance_aromatic_linkinvent_7_9_3/rearranged_h_0042.sdf

> <i_m_source_file_index>
34

> <r_mmod_Potential_Energy-OPLS-2005>
-141.052841186523

> <r_mmod_Stretch_Energy-OPLS-2005>
36.7293968200684

> <r_mmod_Bend_Energy-OPLS-2005>
94.6315231323242

> <r_mmod_Torsional_Energy-OPLS-2005>
254.53889465332

> <r_mmod_Improper_Torsional_Energy-OPLS-2005>
10.0418462753296

> <r_mmod_Van_der_Waal_Energy-OPLS-2005>
150.013610839844

> <r_mmod_Electrostatic_Energy-OPLS-2005>
-482.998840332031

> <r_mmod_Solvation_Energy-OPLS-2005>
-221.33024597168

> <b_mmod_Minimization_Converged-OPLS-2005>
0

> <r_mmod_RMS_Derivative-OPLS-2005>
6.48786497116089

$$$$
35
                    3D
 Structure written by MMmdl.
153161  0  0  1  0            999 V2000
  -30.6517  -14.7049   20.4668 C   0  0  0  0  0  0
  -30.4237  -12.4313   19.4765 C   0  0  0  0  0  0
  -29.5071  -12.4985   18.2365 C   0  0  0  0  0  0
  -28.0323  -12.3339   18.6498 C   0  0  0  0  0  0
  -27.6422  -13.2339   19.8534 C   0  0  2  0  0  0
  -28.6868  -13.1690   20.9893 C   0  0  0  0  0  0
  -25.2509  -13.8203   20.5705 C   0  0  0  0  0  0
  -24.1803  -13.0445   20.9222 C   0  0  0  0  0  0
  -24.6398  -11.6924   20.8757 C   0  0  0  0  0  0
  -23.9071  -10.4298   21.0406 C   0  0  0  0  0  0
  -24.3623   -9.4211   21.9181 C   0  0  0  0  0  0
  -23.6297   -8.2246   22.0751 C   0  0  0  0  0  0
  -22.4278   -8.0285   21.3544 C   0  0  0  0  0  0
  -21.9916   -9.0258   20.4646 C   0  0  0  0  0  0
  -22.7242  -10.2139   20.3057 C   0  0  0  0  0  0
  -21.6854   -6.0741   22.5279 C   0  0  0  0  0  0
  -21.4012   -6.5643   23.8212 C   0  0  0  0  0  0
  -21.3659   -5.6793   24.9172 C   0  0  0  0  0  0
  -21.6046   -4.3056   24.7221 C   0  0  0  0  0  0
  -21.8818   -3.8150   23.4339 C   0  0  0  0  0  0
  -21.9191   -4.6969   22.3398 C   0  0  0  0  0  0
  -22.7822  -13.5223   21.1873 C   0  0  0  0  0  0
  -22.1663   -4.2157   21.0975 F   0  0  0  0  0  0
  -21.5628   -3.4539   25.7731 F   0  0  0  0  0  0
  -29.9912  -13.5006   20.4049 N   0  0  0  0  0  0
  -26.2943  -12.9417   20.3304 N   0  0  0  0  0  0
  -25.9332  -11.6556   20.5770 N   0  0  0  0  0  0
  -22.0466  -12.8212   22.0428 N   0  0  0  0  0  0
  -25.4187  -15.1926   20.4110 N   0  0  0  0  0  0
  -31.8407  -14.7674   20.1453 O   0  0  0  0  0  0
  -21.6642   -6.8883   21.4240 O   0  0  0  0  0  0
  -22.3503  -14.5523   20.6713 O   0  0  0  0  0  0
  -24.6311  -31.8567   23.2014 C   0  0  0  0  0  0
  -25.9143  -32.4760   23.8349 C   0  0  1  0  0  0
  -27.2128  -27.2692   20.1218 C   0  0  0  0  0  0
  -25.5941  -33.8562   24.2272 N   0  0  0  0  0  0
  -23.4262  -30.4826   21.5451 C   0  0  2  0  0  0
  -24.8724  -28.9384   20.1063 C   0  0  0  0  0  0
  -22.7501  -29.4609   22.4918 C   0  0  0  0  0  0
  -18.0294  -28.1391   22.8487 C   0  0  0  0  0  0
  -24.1489  -36.7284   23.2640 C   0  0  0  0  0  0
  -25.9733  -30.7708   21.3830 C   0  0  0  0  0  0
  -26.0443  -29.3966   20.7212 C   0  0  0  0  0  0
  -27.2164  -28.5733   20.7220 C   0  0  0  0  0  0
  -26.0200  -26.8915   19.4599 C   0  0  0  0  0  0
  -24.8655  -27.6935   19.4646 C   0  0  0  0  0  0
  -23.6428  -29.8236   20.1585 C   0  0  0  0  0  0
  -25.4114  -36.3074   24.0330 C   0  0  1  0  0  0
  -20.5899  -28.3695   23.1275 C   0  0  2  0  0  0
  -20.6785  -26.9414   22.5411 C   0  0  0  0  0  0
  -19.5758  -26.6389   21.5218 C   0  0  0  0  0  0
  -18.1935  -26.7933   22.1626 C   0  0  0  0  0  0
  -19.1550  -28.8861   23.2874 C   0  0  0  0  0  0
  -18.9469  -30.1465   23.8892 C   0  0  0  0  0  0
  -17.6465  -30.6587   24.0565 C   0  0  0  0  0  0
  -25.9056  -34.9443   23.5103 C   0  0  0  0  0  0
  -16.5356  -29.9084   23.6334 C   0  0  0  0  0  0
  -16.7280  -28.6504   23.0348 C   0  0  0  0  0  0
  -26.4510  -31.6581   25.0738 C   0  0  0  0  0  0
  -25.3731  -31.3729   26.1457 C   0  0  0  0  0  0
  -27.0363  -30.2995   24.6237 C   0  0  0  0  0  0
  -27.6063  -32.4324   25.7503 C   0  0  0  0  0  0
  -27.5578  -37.1799   24.8466 C   0  0  0  0  0  0
  -21.4208  -29.3040   22.3657 N   0  0  0  0  0  0
  -26.4290  -37.3772   23.9411 N   0  0  0  0  0  0
  -24.6959  -31.0540   22.0992 N   0  0  0  0  0  0
  -23.4206  -28.8145   23.3006 O   0  0  0  0  0  0
  -28.2947  -26.3583   20.2032 O   0  0  0  0  0  0
  -26.5623  -34.8913   22.4668 O   0  0  0  0  0  0
  -23.5463  -32.1391   23.7309 O   0  0  0  0  0  0
  -29.7160  -19.7505   19.7256 C   0  0  0  0  0  0
  -29.0119  -20.8215   20.4053 C   0  0  0  0  0  0
  -29.7561  -18.6277   20.5499 C   0  0  0  0  0  0
  -28.8458  -18.3219   22.9088 C   0  0  0  0  0  0
  -28.4802  -22.2145   19.8722 C   0  0  0  0  0  0
  -30.5247  -17.2594   20.3995 C   0  0  0  0  0  0
  -28.9294  -23.6627   20.4242 C   0  0  0  0  0  0
  -28.0260  -24.9057   19.9263 C   0  0  0  0  0  0
  -28.6365  -20.3553   21.5943 N   0  0  0  0  0  0
  -29.0863  -19.0610   21.6858 N   0  0  0  0  0  0
  -29.9411  -15.8765   20.6549 N   0  0  0  0  0  0
  -31.4679  -12.5339   19.1760 H   0  0  0  0  0  0
  -30.3493  -11.4558   19.9596 H   0  0  0  0  0  0
  -29.7832  -11.7241   17.5201 H   0  0  0  0  0  0
  -29.6437  -13.4524   17.7246 H   0  0  0  0  0  0
  -27.8817  -11.2855   18.9093 H   0  0  0  0  0  0
  -27.3760  -12.5322   17.8017 H   0  0  0  0  0  0
  -27.6381  -14.2561   19.4744 H   0  0  0  0  0  0
  -28.7120  -12.1750   21.4380 H   0  0  0  0  0  0
  -28.4316  -13.8632   21.7917 H   0  0  0  0  0  0
  -25.2767   -9.5688   22.4758 H   0  0  0  0  0  0
  -24.0011   -7.4631   22.7466 H   0  0  0  0  0  0
  -21.0850   -8.8772   19.8947 H   0  0  0  0  0  0
  -22.3696  -10.9679   19.6170 H   0  0  0  0  0  0
  -21.2007   -7.6151   23.9717 H   0  0  0  0  0  0
  -21.1483   -6.0523   25.9076 H   0  0  0  0  0  0
  -22.0600   -2.7614   23.2832 H   0  0  0  0  0  0
  -22.4089  -11.9888   22.4836 H   0  0  0  0  0  0
  -21.1078  -13.1226   22.2623 H   0  0  0  0  0  0
  -24.6471  -15.8421   20.5186 H   0  0  0  0  0  0
  -26.2589  -15.6331   20.0594 H   0  0  0  0  0  0
  -26.7206  -32.5410   23.1084 H   0  0  0  0  0  0
  -25.0084  -33.9699   25.0415 H   0  0  0  0  0  0
  -22.7224  -31.3051   21.4034 H   0  0  0  0  0  0
  -23.3753  -35.9614   23.3301 H   0  0  0  0  0  0
  -24.3579  -36.8910   22.2055 H   0  0  0  0  0  0
  -23.7241  -37.6485   23.6662 H   0  0  0  0  0  0
  -26.1169  -31.5340   20.6168 H   0  0  0  0  0  0
  -26.8492  -30.8145   22.0189 H   0  0  0  0  0  0
  -28.1089  -28.9142   21.2278 H   0  0  0  0  0  0
  -25.9378  -25.9492   18.9405 H   0  0  0  0  0  0
  -23.9716  -27.3412   18.9680 H   0  0  0  0  0  0
  -23.7651  -30.6038   19.4066 H   0  0  0  0  0  0
  -22.7605  -29.2584   19.8527 H   0  0  0  0  0  0
  -25.1295  -36.1922   25.0822 H   0  0  0  0  0  0
  -20.9996  -28.3271   24.1393 H   0  0  0  0  0  0
  -20.5697  -26.2301   23.3612 H   0  0  0  0  0  0
  -21.6649  -26.7446   22.1197 H   0  0  0  0  0  0
  -19.6914  -25.6298   21.1250 H   0  0  0  0  0  0
  -19.6705  -27.3201   20.6751 H   0  0  0  0  0  0
  -17.4210  -26.6684   21.4020 H   0  0  0  0  0  0
  -18.0334  -26.0076   22.9027 H   0  0  0  0  0  0
  -19.7943  -30.7285   24.2255 H   0  0  0  0  0  0
  -17.5014  -31.6265   24.5173 H   0  0  0  0  0  0
  -15.5355  -30.2975   23.7667 H   0  0  0  0  0  0
  -15.8680  -28.0823   22.7059 H   0  0  0  0  0  0
  -24.5901  -30.7086   25.7780 H   0  0  0  0  0  0
  -24.8928  -32.2902   26.4877 H   0  0  0  0  0  0
  -25.8048  -30.8905   27.0237 H   0  0  0  0  0  0
  -26.2959  -29.6731   24.1250 H   0  0  0  0  0  0
  -27.4026  -29.7270   25.4769 H   0  0  0  0  0  0
  -27.8843  -30.4261   23.9503 H   0  0  0  0  0  0
  -27.2670  -33.3622   26.2078 H   0  0  0  0  0  0
  -28.3871  -32.6893   25.0331 H   0  0  0  0  0  0
  -28.0738  -31.8458   26.5423 H   0  0  0  0  0  0
  -28.2600  -38.0092   24.7509 H   0  0  0  0  0  0
  -28.1075  -36.2626   24.6296 H   0  0  0  0  0  0
  -27.2298  -37.1450   25.8870 H   0  0  0  0  0  0
  -20.9386  -29.8768   21.6872 H   0  0  0  0  0  0
  -26.0173  -38.2849   24.1402 H   0  0  0  0  0  0
  -30.1403  -19.8008   18.7322 H   0  0  0  0  0  0
  -29.7963  -18.0467   23.3661 H   0  0  0  0  0  0
  -28.2860  -17.4139   22.6839 H   0  0  0  0  0  0
  -28.2719  -18.9205   23.6174 H   0  0  0  0  0  0
  -27.3942  -22.1842   19.9647 H   0  0  0  0  0  0
  -28.6454  -22.2349   18.7948 H   0  0  0  0  0  0
  -31.4123  -17.3298   21.0296 H   0  0  0  0  0  0
  -30.9202  -17.2303   19.3833 H   0  0  0  0  0  0
  -29.9700  -23.8346   20.1494 H   0  0  0  0  0  0
  -28.9061  -23.6418   21.5136 H   0  0  0  0  0  0
  -27.0382  -24.6740   20.3266 H   0  0  0  0  0  0
  -27.9420  -24.8196   18.8422 H   0  0  0  0  0  0
  -28.9568  -15.8089   20.8607 H   0  0  0  0  0  0
  1 25  1  0  0  0
  1 30  2  0  0  0
  1 81  1  0  0  0
  2  3  1  0  0  0
  2 25  1  0  0  0
  2 82  1  0  0  0
  2 83  1  0  0  0
  3  4  1  0  0  0
  3 84  1  0  0  0
  3 85  1  0  0  0
  4  5  1  0  0  0
  4 86  1  0  0  0
  4 87  1  0  0  0
  5  6  1  0  0  0
  5 26  1  0  0  0
  5 88  1  0  0  0
  6 25  1  0  0  0
  6 89  1  0  0  0
  6 90  1  0  0  0
  7  8  2  0  0  0
  7 26  1  0  0  0
  7 29  1  0  0  0
  8  9  1  0  0  0
  8 22  1  0  0  0
  9 10  1  0  0  0
  9 27  2  0  0  0
 10 11  2  0  0  0
 10 15  1  0  0  0
 11 12  1  0  0  0
 11 91  1  0  0  0
 12 13  2  0  0  0
 12 92  1  0  0  0
 13 14  1  0  0  0
 13 31  1  0  0  0
 14 15  2  0  0  0
 14 93  1  0  0  0
 15 94  1  0  0  0
 16 17  2  0  0  0
 16 21  1  0  0  0
 16 31  1  0  0  0
 17 18  1  0  0  0
 17 95  1  0  0  0
 18 19  2  0  0  0
 18 96  1  0  0  0
 19 20  1  0  0  0
 19 24  1  0  0  0
 20 21  2  0  0  0
 20 97  1  0  0  0
 21 23  1  0  0  0
 22 28  1  0  0  0
 22 32  2  0  0  0
 26 27  1  0  0  0
 28 98  1  0  0  0
 28 99  1  0  0  0
 29100  1  0  0  0
 29101  1  0  0  0
 33 34  1  0  0  0
 33 66  1  0  0  0
 33 70  2  0  0  0
 34 36  1  0  0  0
 34 59  1  0  0  0
 34102  1  0  0  0
 35 44  2  0  0  0
 35 45  1  0  0  0
 35 68  1  0  0  0
 36 56  1  0  0  0
 36103  1  0  0  0
 37 39  1  0  0  0
 37 47  1  0  0  0
 37 66  1  0  0  0
 37104  1  0  0  0
 38 43  2  0  0  0
 38 46  1  0  0  0
 38 47  1  0  0  0
 39 64  1  0  0  0
 39 67  2  0  0  0
 40 52  1  0  0  0
 40 53  2  0  0  0
 40 58  1  0  0  0
 41105  1  0  0  0
 41106  1  0  0  0
 41107  1  0  0  0
 41 48  1  0  0  0
 42 43  1  0  0  0
 42 66  1  0  0  0
 42108  1  0  0  0
 42109  1  0  0  0
 43 44  1  0  0  0
 44110  1  0  0  0
 45 46  2  0  0  0
 45111  1  0  0  0
 46112  1  0  0  0
 47113  1  0  0  0
 47114  1  0  0  0
 48 56  1  0  0  0
 48 65  1  0  0  0
 48115  1  0  0  0
 49 50  1  0  0  0
 49 53  1  0  0  0
 49 64  1  0  0  0
 49116  1  0  0  0
 50 51  1  0  0  0
 50117  1  0  0  0
 50118  1  0  0  0
 51 52  1  0  0  0
 51119  1  0  0  0
 51120  1  0  0  0
 52121  1  0  0  0
 52122  1  0  0  0
 53 54  1  0  0  0
 54 55  2  0  0  0
 54123  1  0  0  0
 55 57  1  0  0  0
 55124  1  0  0  0
 56 69  2  0  0  0
 57 58  2  0  0  0
 57125  1  0  0  0
 58126  1  0  0  0
 59 60  1  0  0  0
 59 61  1  0  0  0
 59 62  1  0  0  0
 60127  1  0  0  0
 60128  1  0  0  0
 60129  1  0  0  0
 61130  1  0  0  0
 61131  1  0  0  0
 61132  1  0  0  0
 62133  1  0  0  0
 62134  1  0  0  0
 62135  1  0  0  0
 63 65  1  0  0  0
 63136  1  0  0  0
 63137  1  0  0  0
 63138  1  0  0  0
 64139  1  0  0  0
 65140  1  0  0  0
 68 78  1  0  0  0
 71 72  1  0  0  0
 71 73  2  0  0  0
 71141  1  0  0  0
 72 75  1  0  0  0
 72 79  2  0  0  0
 73 76  1  0  0  0
 73 80  1  0  0  0
 74 80  1  0  0  0
 74142  1  0  0  0
 74143  1  0  0  0
 74144  1  0  0  0
 75 77  1  0  0  0
 75145  1  0  0  0
 75146  1  0  0  0
 76 81  1  0  0  0
 76147  1  0  0  0
 76148  1  0  0  0
 77 78  1  0  0  0
 77149  1  0  0  0
 77150  1  0  0  0
 78151  1  0  0  0
 78152  1  0  0  0
 79 80  1  0  0  0
 81153  1  0  0  0
M  ISO  4   1 100  68 101  78 101  81 100
M  END
> <chiral flag>
0

> <version>
0

> <s_m_source_file>
/data/baiqing/PycharmProjects/Reinvent-master-3.2/result/LINK_invent/BTK/process_docking_weight1_custom_sum_contain_oxygen_bond_distance_aromatic_linkinvent_7_9_3/rearranged_h_0042.sdf

> <i_m_source_file_index>
35

> <r_mmod_Potential_Energy-OPLS-2005>
3.40182542800903

> <r_mmod_Stretch_Energy-OPLS-2005>
105.635475158691

> <r_mmod_Bend_Energy-OPLS-2005>
174.181259155273

> <r_mmod_Torsional_Energy-OPLS-2005>
199.101928710938

> <r_mmod_Improper_Torsional_Energy-OPLS-2005>
6.96911478042603

> <r_mmod_Van_der_Waal_Energy-OPLS-2005>
122.316299438477

> <r_mmod_Electrostatic_Energy-OPLS-2005>
-458.195678710938

> <r_mmod_Solvation_Energy-OPLS-2005>
-225.084457397461

> <b_mmod_Minimization_Converged-OPLS-2005>
0

> <r_mmod_RMS_Derivative-OPLS-2005>
0.753861606121063

$$$$
36
                    3D
 Structure written by MMmdl.
168176  0  0  1  0            999 V2000
  -30.6955  -14.4501   20.5804 C   0  0  0  0  0  0
  -30.4187  -12.2884   19.4192 C   0  0  0  0  0  0
  -29.4912  -12.4965   18.2040 C   0  0  0  0  0  0
  -28.0127  -12.3592   18.6172 C   0  0  0  0  0  0
  -27.6608  -13.2026   19.8708 C   0  0  2  0  0  0
  -28.7019  -12.9837   20.9906 C   0  0  0  0  0  0
  -25.2602  -13.8150   20.5689 C   0  0  0  0  0  0
  -24.1853  -13.0427   20.9172 C   0  0  0  0  0  0
  -24.6404  -11.6892   20.8744 C   0  0  0  0  0  0
  -23.9067  -10.4281   21.0409 C   0  0  0  0  0  0
  -24.3617   -9.4190   21.9185 C   0  0  0  0  0  0
  -23.6288   -8.2229   22.0758 C   0  0  0  0  0  0
  -22.4272   -8.0277   21.3540 C   0  0  0  0  0  0
  -21.9913   -9.0252   20.4640 C   0  0  0  0  0  0
  -22.7244  -10.2125   20.3050 C   0  0  0  0  0  0
  -21.6852   -6.0735   22.5277 C   0  0  0  0  0  0
  -21.4018   -6.5642   23.8210 C   0  0  0  0  0  0
  -21.3654   -5.6798   24.9172 C   0  0  0  0  0  0
  -21.6038   -4.3058   24.7226 C   0  0  0  0  0  0
  -21.8823   -3.8145   23.4347 C   0  0  0  0  0  0
  -21.9193   -4.6962   22.3398 C   0  0  0  0  0  0
  -22.7870  -13.5218   21.1834 C   0  0  0  0  0  0
  -22.1663   -4.2148   21.0977 F   0  0  0  0  0  0
  -21.5619   -3.4540   25.7737 F   0  0  0  0  0  0
  -30.0339  -13.2713   20.4423 N   0  0  0  0  0  0
  -26.3029  -12.9315   20.3351 N   0  0  0  0  0  0
  -25.9325  -11.6476   20.5775 N   0  0  0  0  0  0
  -22.0519  -12.8210   22.0393 N   0  0  0  0  0  0
  -25.4339  -15.1872   20.4123 N   0  0  0  0  0  0
  -31.8237  -14.6189   20.1068 O   0  0  0  0  0  0
  -21.6629   -6.8876   21.4240 O   0  0  0  0  0  0
  -22.3553  -14.5524   20.6680 O   0  0  0  0  0  0
  -24.6120  -31.8698   23.2117 C   0  0  0  0  0  0
  -25.9019  -32.4834   23.8418 C   0  0  1  0  0  0
  -27.2441  -27.4583   20.0979 C   0  0  0  0  0  0
  -25.5882  -33.8632   24.2340 N   0  0  0  0  0  0
  -23.4006  -30.4917   21.5512 C   0  0  2  0  0  0
  -24.8506  -28.9530   20.1231 C   0  0  0  0  0  0
  -22.7392  -29.4677   22.5011 C   0  0  0  0  0  0
  -18.0268  -28.1389   22.8491 C   0  0  0  0  0  0
  -24.1482  -36.7327   23.2644 C   0  0  0  0  0  0
  -25.9272  -30.8395   21.3649 C   0  0  0  0  0  0
  -26.0071  -29.4716   20.7215 C   0  0  0  0  0  0
  -27.2085  -28.7284   20.7132 C   0  0  0  0  0  0
  -26.0781  -26.9478   19.4950 C   0  0  0  0  0  0
  -24.8785  -27.6855   19.5124 C   0  0  0  0  0  0
  -23.6098  -29.8170   20.1685 C   0  0  0  0  0  0
  -25.4104  -36.3116   24.0335 C   0  0  1  0  0  0
  -20.5850  -28.3682   23.1323 C   0  0  2  0  0  0
  -20.6753  -26.9415   22.5426 C   0  0  0  0  0  0
  -19.5737  -26.6391   21.5217 C   0  0  0  0  0  0
  -18.1911  -26.7940   22.1606 C   0  0  0  0  0  0
  -19.1513  -28.8850   23.2905 C   0  0  0  0  0  0
  -18.9441  -30.1455   23.8927 C   0  0  0  0  0  0
  -17.6444  -30.6595   24.0575 C   0  0  0  0  0  0
  -25.9028  -34.9479   23.5134 C   0  0  0  0  0  0
  -16.5338  -29.9096   23.6331 C   0  0  0  0  0  0
  -16.7257  -28.6511   23.0356 C   0  0  0  0  0  0
  -26.4441  -31.6614   25.0746 C   0  0  0  0  0  0
  -25.3697  -31.3696   26.1481 C   0  0  0  0  0  0
  -27.0295  -30.3064   24.6124 C   0  0  0  0  0  0
  -27.6004  -32.4352   25.7503 C   0  0  0  0  0  0
  -27.5578  -37.1815   24.8460 C   0  0  0  0  0  0
  -21.4125  -29.3045   22.3730 N   0  0  0  0  0  0
  -26.4294  -37.3799   23.9401 N   0  0  0  0  0  0
  -24.6644  -31.0810   22.1018 N   0  0  0  0  0  0
  -23.4168  -28.8227   23.3054 O   0  0  0  0  0  0
  -28.4080  -26.7370   20.0038 O   0  0  0  0  0  0
  -26.5593  -34.8930   22.4699 O   0  0  0  0  0  0
  -23.5311  -32.1457   23.7506 O   0  0  0  0  0  0
  -31.6711  -24.2801   22.2075 C   0  0  0  0  0  0
  -33.0079  -24.0323   21.8658 C   0  0  0  0  0  0
  -30.6816  -23.3238   21.8950 C   0  0  0  0  0  0
  -33.3196  -22.8349   21.2096 C   0  0  0  0  0  0
  -31.1022  -22.0977   21.3037 C   0  0  0  0  0  0
  -34.9852  -23.0940   19.3244 C   0  0  0  0  0  0
  -29.2242  -23.6922   22.1911 C   0  0  0  0  0  0
  -34.7349  -22.5558   20.7386 C   0  0  0  0  0  0
  -30.1773  -20.9051   21.0039 C   0  0  0  0  0  0
  -29.9682  -15.6651   21.2099 C   0  0  0  0  0  0
  -28.5737  -24.5622   21.0861 C   0  0  0  0  0  0
  -30.8452  -19.5387   21.3141 C   0  0  0  0  0  0
  -30.7742  -16.9915   21.1605 C   0  0  0  0  0  0
  -29.9365  -18.2905   21.2495 C   0  0  0  0  0  0
  -28.8464  -26.0804   21.1928 C   0  0  0  0  0  0
  -32.3887  -21.9026   20.9275 N   0  0  0  0  0  0
  -31.4641  -12.3780   19.1193 H   0  0  0  0  0  0
  -30.3098  -11.2775   19.8156 H   0  0  0  0  0  0
  -29.7258  -11.7742   17.4211 H   0  0  0  0  0  0
  -29.6636  -13.4832   17.7722 H   0  0  0  0  0  0
  -27.8210  -11.3041   18.8165 H   0  0  0  0  0  0
  -27.3613  -12.6331   17.7865 H   0  0  0  0  0  0
  -27.7030  -14.2474   19.5663 H   0  0  0  0  0  0
  -28.6704  -11.9500   21.3393 H   0  0  0  0  0  0
  -28.4676  -13.5936   21.8623 H   0  0  0  0  0  0
  -25.2762   -9.5655   22.4761 H   0  0  0  0  0  0
  -23.9981   -7.4628   22.7489 H   0  0  0  0  0  0
  -21.0839   -8.8774   19.8954 H   0  0  0  0  0  0
  -22.3706  -10.9669   19.6159 H   0  0  0  0  0  0
  -21.2021   -7.6156   23.9712 H   0  0  0  0  0  0
  -21.1473   -6.0529   25.9075 H   0  0  0  0  0  0
  -22.0611   -2.7607   23.2851 H   0  0  0  0  0  0
  -22.4142  -11.9859   22.4750 H   0  0  0  0  0  0
  -21.1145  -13.1245   22.2626 H   0  0  0  0  0  0
  -24.6716  -15.8478   20.5227 H   0  0  0  0  0  0
  -26.2947  -15.6260   20.1110 H   0  0  0  0  0  0
  -26.7096  -32.5554   23.1198 H   0  0  0  0  0  0
  -25.0014  -33.9796   25.0466 H   0  0  0  0  0  0
  -22.6896  -31.3079   21.4087 H   0  0  0  0  0  0
  -23.3738  -35.9666   23.3310 H   0  0  0  0  0  0
  -24.3578  -36.8952   22.2062 H   0  0  0  0  0  0
  -23.7242  -37.6532   23.6665 H   0  0  0  0  0  0
  -26.0365  -31.6013   20.5911 H   0  0  0  0  0  0
  -26.8157  -30.8987   21.9808 H   0  0  0  0  0  0
  -28.1089  -29.1319   21.1553 H   0  0  0  0  0  0
  -26.1052  -25.9830   19.0081 H   0  0  0  0  0  0
  -23.9911  -27.2802   19.0464 H   0  0  0  0  0  0
  -23.7112  -30.5882   19.4038 H   0  0  0  0  0  0
  -22.7364  -29.2302   19.8784 H   0  0  0  0  0  0
  -25.1280  -36.1986   25.0828 H   0  0  0  0  0  0
  -20.9947  -28.3259   24.1442 H   0  0  0  0  0  0
  -20.5654  -26.2297   23.3618 H   0  0  0  0  0  0
  -21.6633  -26.7455   22.1238 H   0  0  0  0  0  0
  -19.6905  -25.6304   21.1244 H   0  0  0  0  0  0
  -19.6687  -27.3204   20.6750 H   0  0  0  0  0  0
  -17.4195  -26.6729   21.3992 H   0  0  0  0  0  0
  -18.0277  -26.0073   22.8982 H   0  0  0  0  0  0
  -19.7917  -30.7260   24.2316 H   0  0  0  0  0  0
  -17.4998  -31.6273   24.5178 H   0  0  0  0  0  0
  -15.5335  -30.3008   23.7644 H   0  0  0  0  0  0
  -15.8652  -28.0834   22.7067 H   0  0  0  0  0  0
  -24.5932  -30.6963   25.7833 H   0  0  0  0  0  0
  -24.8792  -32.2827   26.4868 H   0  0  0  0  0  0
  -25.8059  -30.8946   27.0281 H   0  0  0  0  0  0
  -26.2867  -29.6827   24.1140 H   0  0  0  0  0  0
  -27.4040  -29.7289   25.4589 H   0  0  0  0  0  0
  -27.8698  -30.4407   23.9307 H   0  0  0  0  0  0
  -27.2609  -33.3638   26.2107 H   0  0  0  0  0  0
  -28.3781  -32.6956   25.0311 H   0  0  0  0  0  0
  -28.0713  -31.8482   26.5397 H   0  0  0  0  0  0
  -28.2594  -38.0116   24.7513 H   0  0  0  0  0  0
  -28.1073  -36.2644   24.6275 H   0  0  0  0  0  0
  -27.2297  -37.1470   25.8867 H   0  0  0  0  0  0
  -20.9293  -29.8745   21.6933 H   0  0  0  0  0  0
  -26.0181  -38.2877   24.1404 H   0  0  0  0  0  0
  -31.4112  -25.2108   22.6906 H   0  0  0  0  0  0
  -33.7755  -24.7654   22.0756 H   0  0  0  0  0  0
  -36.0024  -22.8767   19.0001 H   0  0  0  0  0  0
  -34.8461  -24.1753   19.2922 H   0  0  0  0  0  0
  -34.2983  -22.6470   18.6053 H   0  0  0  0  0  0
  -29.1782  -24.2204   23.1452 H   0  0  0  0  0  0
  -28.6222  -22.8011   22.3474 H   0  0  0  0  0  0
  -34.9254  -21.4816   20.7654 H   0  0  0  0  0  0
  -35.4426  -23.0061   21.4364 H   0  0  0  0  0  0
  -29.8753  -20.9449   19.9569 H   0  0  0  0  0  0
  -29.2623  -20.9663   21.5865 H   0  0  0  0  0  0
  -29.0368  -15.8064   20.6616 H   0  0  0  0  0  0
  -29.6961  -15.4413   22.2410 H   0  0  0  0  0  0
  -27.4923  -24.4259   21.1310 H   0  0  0  0  0  0
  -28.8755  -24.1908   20.1060 H   0  0  0  0  0  0
  -31.2979  -19.5819   22.3061 H   0  0  0  0  0  0
  -31.6695  -19.4039   20.6117 H   0  0  0  0  0  0
  -31.3464  -17.0447   20.2327 H   0  0  0  0  0  0
  -31.5119  -16.9757   21.9641 H   0  0  0  0  0  0
  -29.2841  -18.3571   20.3785 H   0  0  0  0  0  0
  -29.2827  -18.2673   22.1226 H   0  0  0  0  0  0
  -29.9156  -26.2690   21.2833 H   0  0  0  0  0  0
  -28.3798  -26.4934   22.0899 H   0  0  0  0  0  0
  1 25  1  0  0  0
  1 30  2  0  0  0
  1 80  1  0  0  0
  2  3  1  0  0  0
  2 25  1  0  0  0
  2 87  1  0  0  0
  2 88  1  0  0  0
  3  4  1  0  0  0
  3 89  1  0  0  0
  3 90  1  0  0  0
  4  5  1  0  0  0
  4 91  1  0  0  0
  4 92  1  0  0  0
  5  6  1  0  0  0
  5 26  1  0  0  0
  5 93  1  0  0  0
  6 25  1  0  0  0
  6 94  1  0  0  0
  6 95  1  0  0  0
  7  8  2  0  0  0
  7 26  1  0  0  0
  7 29  1  0  0  0
  8  9  1  0  0  0
  8 22  1  0  0  0
  9 10  1  0  0  0
  9 27  2  0  0  0
 10 11  2  0  0  0
 10 15  1  0  0  0
 11 12  1  0  0  0
 11 96  1  0  0  0
 12 13  2  0  0  0
 12 97  1  0  0  0
 13 14  1  0  0  0
 13 31  1  0  0  0
 14 15  2  0  0  0
 14 98  1  0  0  0
 15 99  1  0  0  0
 16 17  2  0  0  0
 16 21  1  0  0  0
 16 31  1  0  0  0
 17 18  1  0  0  0
 17100  1  0  0  0
 18 19  2  0  0  0
 18101  1  0  0  0
 19 20  1  0  0  0
 19 24  1  0  0  0
 20 21  2  0  0  0
 20102  1  0  0  0
 21 23  1  0  0  0
 22 28  1  0  0  0
 22 32  2  0  0  0
 26 27  1  0  0  0
 28103  1  0  0  0
 28104  1  0  0  0
 29105  1  0  0  0
 29106  1  0  0  0
 33 34  1  0  0  0
 33 66  1  0  0  0
 33 70  2  0  0  0
 34 36  1  0  0  0
 34 59  1  0  0  0
 34107  1  0  0  0
 35 44  2  0  0  0
 35 45  1  0  0  0
 35 68  1  0  0  0
 36 56  1  0  0  0
 36108  1  0  0  0
 37 39  1  0  0  0
 37 47  1  0  0  0
 37 66  1  0  0  0
 37109  1  0  0  0
 38 43  2  0  0  0
 38 46  1  0  0  0
 38 47  1  0  0  0
 39 64  1  0  0  0
 39 67  2  0  0  0
 40 52  1  0  0  0
 40 53  2  0  0  0
 40 58  1  0  0  0
 41110  1  0  0  0
 41111  1  0  0  0
 41112  1  0  0  0
 41 48  1  0  0  0
 42 43  1  0  0  0
 42 66  1  0  0  0
 42113  1  0  0  0
 42114  1  0  0  0
 43 44  1  0  0  0
 44115  1  0  0  0
 45 46  2  0  0  0
 45116  1  0  0  0
 46117  1  0  0  0
 47118  1  0  0  0
 47119  1  0  0  0
 48 56  1  0  0  0
 48 65  1  0  0  0
 48120  1  0  0  0
 49 50  1  0  0  0
 49 53  1  0  0  0
 49 64  1  0  0  0
 49121  1  0  0  0
 50 51  1  0  0  0
 50122  1  0  0  0
 50123  1  0  0  0
 51 52  1  0  0  0
 51124  1  0  0  0
 51125  1  0  0  0
 52126  1  0  0  0
 52127  1  0  0  0
 53 54  1  0  0  0
 54 55  2  0  0  0
 54128  1  0  0  0
 55 57  1  0  0  0
 55129  1  0  0  0
 56 69  2  0  0  0
 57 58  2  0  0  0
 57130  1  0  0  0
 58131  1  0  0  0
 59 60  1  0  0  0
 59 61  1  0  0  0
 59 62  1  0  0  0
 60132  1  0  0  0
 60133  1  0  0  0
 60134  1  0  0  0
 61135  1  0  0  0
 61136  1  0  0  0
 61137  1  0  0  0
 62138  1  0  0  0
 62139  1  0  0  0
 62140  1  0  0  0
 63 65  1  0  0  0
 63141  1  0  0  0
 63142  1  0  0  0
 63143  1  0  0  0
 64144  1  0  0  0
 65145  1  0  0  0
 68 85  1  0  0  0
 71 72  2  0  0  0
 71 73  1  0  0  0
 71146  1  0  0  0
 72 74  1  0  0  0
 72147  1  0  0  0
 73 75  2  0  0  0
 73 77  1  0  0  0
 74 78  1  0  0  0
 74 86  2  0  0  0
 75 79  1  0  0  0
 75 86  1  0  0  0
 76 78  1  0  0  0
 76148  1  0  0  0
 76149  1  0  0  0
 76150  1  0  0  0
 77 81  1  0  0  0
 77151  1  0  0  0
 77152  1  0  0  0
 78153  1  0  0  0
 78154  1  0  0  0
 79 82  1  0  0  0
 79155  1  0  0  0
 79156  1  0  0  0
 80 83  1  0  0  0
 80157  1  0  0  0
 80158  1  0  0  0
 81 85  1  0  0  0
 81159  1  0  0  0
 81160  1  0  0  0
 82 84  1  0  0  0
 82161  1  0  0  0
 82162  1  0  0  0
 83 84  1  0  0  0
 83163  1  0  0  0
 83164  1  0  0  0
 84165  1  0  0  0
 84166  1  0  0  0
 85167  1  0  0  0
 85168  1  0  0  0
M  ISO  4   1 100  68 101  80 100  85 101
M  END
> <chiral flag>
0

> <version>
0

> <s_m_source_file>
/data/baiqing/PycharmProjects/Reinvent-master-3.2/result/LINK_invent/BTK/process_docking_weight1_custom_sum_contain_oxygen_bond_distance_aromatic_linkinvent_7_9_3/rearranged_h_0042.sdf

> <i_m_source_file_index>
36

> <r_mmod_Potential_Energy-OPLS-2005>
-180.827041625977

> <r_mmod_Stretch_Energy-OPLS-2005>
36.3887748718262

> <r_mmod_Bend_Energy-OPLS-2005>
95.248405456543

> <r_mmod_Torsional_Energy-OPLS-2005>
198.570236206055

> <r_mmod_Improper_Torsional_Energy-OPLS-2005>
3.27182364463806

> <r_mmod_Van_der_Waal_Energy-OPLS-2005>
152.114242553711

> <r_mmod_Electrostatic_Energy-OPLS-2005>
-474.235412597656

> <r_mmod_Solvation_Energy-OPLS-2005>
-201.973571777344

> <b_mmod_Minimization_Converged-OPLS-2005>
0

> <r_mmod_RMS_Derivative-OPLS-2005>
1.63861262798309

$$$$
37
                    3D
 Structure written by MMmdl.
160168  0  0  1  0            999 V2000
  -30.7171  -14.4289   20.5236 C   0  0  0  0  0  0
  -30.4067  -12.2618   19.4305 C   0  0  0  0  0  0
  -29.4907  -12.4766   18.2094 C   0  0  0  0  0  0
  -28.0086  -12.3571   18.6135 C   0  0  0  0  0  0
  -27.6583  -13.2027   19.8684 C   0  0  2  0  0  0
  -28.6969  -13.0022   20.9967 C   0  0  0  0  0  0
  -25.2594  -13.8153   20.5656 C   0  0  0  0  0  0
  -24.1826  -13.0452   20.9149 C   0  0  0  0  0  0
  -24.6362  -11.6915   20.8715 C   0  0  0  0  0  0
  -23.9028  -10.4305   21.0400 C   0  0  0  0  0  0
  -24.3598   -9.4229   21.9178 C   0  0  0  0  0  0
  -23.6294   -8.2256   22.0756 C   0  0  0  0  0  0
  -22.4276   -8.0276   21.3548 C   0  0  0  0  0  0
  -21.9897   -9.0239   20.4650 C   0  0  0  0  0  0
  -22.7203  -10.2133   20.3050 C   0  0  0  0  0  0
  -21.6868   -6.0723   22.5280 C   0  0  0  0  0  0
  -21.4022   -6.5641   23.8209 C   0  0  0  0  0  0
  -21.3655   -5.6797   24.9179 C   0  0  0  0  0  0
  -21.6043   -4.3059   24.7219 C   0  0  0  0  0  0
  -21.8834   -3.8141   23.4348 C   0  0  0  0  0  0
  -21.9202   -4.6954   22.3402 C   0  0  0  0  0  0
  -22.7870  -13.5279   21.1817 C   0  0  0  0  0  0
  -22.1681   -4.2140   21.0979 F   0  0  0  0  0  0
  -21.5613   -3.4544   25.7728 F   0  0  0  0  0  0
  -30.0333  -13.2630   20.4371 N   0  0  0  0  0  0
  -26.3001  -12.9301   20.3340 N   0  0  0  0  0  0
  -25.9278  -11.6469   20.5746 N   0  0  0  0  0  0
  -22.0530  -12.8249   22.0382 N   0  0  0  0  0  0
  -25.4374  -15.1858   20.4044 N   0  0  0  0  0  0
  -31.8755  -14.5674   20.1183 O   0  0  0  0  0  0
  -21.6671   -6.8853   21.4230 O   0  0  0  0  0  0
  -22.3551  -14.5588   20.6688 O   0  0  0  0  0  0
  -24.6088  -31.8715   23.2105 C   0  0  0  0  0  0
  -25.9018  -32.4838   23.8371 C   0  0  1  0  0  0
  -27.2313  -27.4542   20.0774 C   0  0  0  0  0  0
  -25.5903  -33.8636   24.2324 N   0  0  0  0  0  0
  -23.3929  -30.4963   21.5511 C   0  0  2  0  0  0
  -24.8363  -28.9610   20.1124 C   0  0  0  0  0  0
  -22.7361  -29.4685   22.4996 C   0  0  0  0  0  0
  -18.0273  -28.1359   22.8488 C   0  0  0  0  0  0
  -24.1477  -36.7310   23.2632 C   0  0  0  0  0  0
  -25.9187  -30.8411   21.3599 C   0  0  0  0  0  0
  -25.9950  -29.4766   20.7048 C   0  0  0  0  0  0
  -27.1925  -28.7301   20.6835 C   0  0  0  0  0  0
  -26.0512  -26.9493   19.4828 C   0  0  0  0  0  0
  -24.8582  -27.6959   19.5008 C   0  0  0  0  0  0
  -23.5968  -29.8239   20.1656 C   0  0  0  0  0  0
  -25.4113  -36.3138   24.0334 C   0  0  1  0  0  0
  -20.5849  -28.3654   23.1344 C   0  0  2  0  0  0
  -20.6779  -26.9402   22.5421 C   0  0  0  0  0  0
  -19.5760  -26.6379   21.5211 C   0  0  0  0  0  0
  -18.1934  -26.7898   22.1616 C   0  0  0  0  0  0
  -19.1513  -28.8827   23.2912 C   0  0  0  0  0  0
  -18.9435  -30.1435   23.8923 C   0  0  0  0  0  0
  -17.6445  -30.6576   24.0571 C   0  0  0  0  0  0
  -25.9038  -34.9500   23.5133 C   0  0  0  0  0  0
  -16.5345  -29.9082   23.6312 C   0  0  0  0  0  0
  -16.7263  -28.6488   23.0347 C   0  0  0  0  0  0
  -26.4461  -31.6608   25.0679 C   0  0  0  0  0  0
  -25.3725  -31.3730   26.1427 C   0  0  0  0  0  0
  -27.0273  -30.3036   24.6041 C   0  0  0  0  0  0
  -27.6043  -32.4322   25.7457 C   0  0  0  0  0  0
  -27.5588  -37.1816   24.8464 C   0  0  0  0  0  0
  -21.4092  -29.3041   22.3748 N   0  0  0  0  0  0
  -26.4310  -37.3820   23.9403 N   0  0  0  0  0  0
  -24.6584  -31.0826   22.0992 N   0  0  0  0  0  0
  -23.4154  -28.8228   23.3029 O   0  0  0  0  0  0
  -28.4302  -26.7740   20.0840 O   0  0  0  0  0  0
  -26.5582  -34.8964   22.4681 O   0  0  0  0  0  0
  -23.5300  -32.1461   23.7534 O   0  0  0  0  0  0
  -29.7590  -21.3017   20.9897 C   0  0  0  0  0  0
  -29.1263  -20.4771   20.0478 C   0  0  0  0  0  0
  -27.9910  -21.0103   19.4090 C   0  0  0  0  0  0
  -28.2871  -22.9902   20.5438 C   0  0  0  0  0  0
  -25.7522  -20.6875   18.1877 C   0  0  0  0  0  0
  -29.7682  -19.1494   19.6688 C   0  0  0  0  0  0
  -27.2177  -20.2419   18.3422 C   0  0  0  0  0  0
  -27.8802  -24.4425   20.7530 C   0  0  0  0  0  0
  -29.3064  -17.9173   20.4732 C   0  0  0  0  0  0
  -30.4205  -16.8557   20.4687 C   0  0  0  0  0  0
  -28.4889  -25.3928   19.7022 C   0  0  0  0  0  0
  -29.3383  -22.5549   21.2310 N   0  0  0  0  0  0
  -27.6056  -22.2827   19.6484 N   0  0  0  0  0  0
  -29.9814  -15.5054   20.8315 N   0  0  0  0  0  0
  -31.4575  -12.3283   19.1412 H   0  0  0  0  0  0
  -30.2722  -11.2605   19.8393 H   0  0  0  0  0  0
  -29.7273  -11.7513   17.4313 H   0  0  0  0  0  0
  -29.6735  -13.4577   17.7702 H   0  0  0  0  0  0
  -27.8077  -11.3017   18.8071 H   0  0  0  0  0  0
  -27.3631  -12.6451   17.7806 H   0  0  0  0  0  0
  -27.7025  -14.2486   19.5632 H   0  0  0  0  0  0
  -28.6496  -11.9859   21.3909 H   0  0  0  0  0  0
  -28.4757  -13.6551   21.8417 H   0  0  0  0  0  0
  -25.2749   -9.5743   22.4736 H   0  0  0  0  0  0
  -24.0028   -7.4672   22.7489 H   0  0  0  0  0  0
  -21.0828   -8.8732   19.8966 H   0  0  0  0  0  0
  -22.3641  -10.9656   19.6152 H   0  0  0  0  0  0
  -21.2038   -7.6155   23.9704 H   0  0  0  0  0  0
  -21.1458   -6.0534   25.9078 H   0  0  0  0  0  0
  -22.0615   -2.7596   23.2858 H   0  0  0  0  0  0
  -22.4163  -11.9888   22.4691 H   0  0  0  0  0  0
  -21.1157  -13.1267   22.2629 H   0  0  0  0  0  0
  -24.6760  -15.8472   20.5001 H   0  0  0  0  0  0
  -26.2889  -15.6135   20.0646 H   0  0  0  0  0  0
  -26.7075  -32.5569   23.1132 H   0  0  0  0  0  0
  -25.0121  -33.9783   25.0514 H   0  0  0  0  0  0
  -22.6799  -31.3128   21.4129 H   0  0  0  0  0  0
  -23.3762  -35.9620   23.3308 H   0  0  0  0  0  0
  -24.3551  -36.8889   22.2038 H   0  0  0  0  0  0
  -23.7197  -37.6518   23.6614 H   0  0  0  0  0  0
  -26.0271  -31.6105   20.5944 H   0  0  0  0  0  0
  -26.8089  -30.8904   21.9761 H   0  0  0  0  0  0
  -28.0916  -29.1268   21.1334 H   0  0  0  0  0  0
  -26.0274  -25.9914   18.9856 H   0  0  0  0  0  0
  -23.9690  -27.2887   19.0405 H   0  0  0  0  0  0
  -23.6991  -30.5955   19.4008 H   0  0  0  0  0  0
  -22.7214  -29.2390   19.8758 H   0  0  0  0  0  0
  -25.1296  -36.2011   25.0826 H   0  0  0  0  0  0
  -20.9939  -28.3216   24.1478 H   0  0  0  0  0  0
  -20.5707  -26.2253   23.3590 H   0  0  0  0  0  0
  -21.6651  -26.7495   22.1212 H   0  0  0  0  0  0
  -19.6930  -25.6295   21.1230 H   0  0  0  0  0  0
  -19.6683  -27.3201   20.6744 H   0  0  0  0  0  0
  -17.4201  -26.6630   21.4022 H   0  0  0  0  0  0
  -18.0341  -26.0042   22.9013 H   0  0  0  0  0  0
  -19.7920  -30.7237   24.2288 H   0  0  0  0  0  0
  -17.5016  -31.6253   24.5175 H   0  0  0  0  0  0
  -15.5352  -30.3009   23.7618 H   0  0  0  0  0  0
  -15.8649  -28.0825   22.7070 H   0  0  0  0  0  0
  -24.5888  -30.7092   25.7755 H   0  0  0  0  0  0
  -24.8945  -32.2898   26.4882 H   0  0  0  0  0  0
  -25.8078  -30.8891   27.0172 H   0  0  0  0  0  0
  -26.2806  -29.6833   24.1070 H   0  0  0  0  0  0
  -27.4000  -29.7250   25.4514 H   0  0  0  0  0  0
  -27.8666  -30.4341   23.9209 H   0  0  0  0  0  0
  -27.2643  -33.3598   26.2086 H   0  0  0  0  0  0
  -28.3847  -32.6896   25.0282 H   0  0  0  0  0  0
  -28.0705  -31.8401   26.5350 H   0  0  0  0  0  0
  -28.2639  -38.0089   24.7540 H   0  0  0  0  0  0
  -28.1058  -36.2633   24.6285 H   0  0  0  0  0  0
  -27.2292  -37.1450   25.8863 H   0  0  0  0  0  0
  -20.9238  -29.8746   21.6954 H   0  0  0  0  0  0
  -26.0206  -38.2902   24.1416 H   0  0  0  0  0  0
  -30.6488  -20.9735   21.5066 H   0  0  0  0  0  0
  -25.2150  -20.6245   19.1363 H   0  0  0  0  0  0
  -25.2318  -20.0731   17.4532 H   0  0  0  0  0  0
  -25.6979  -21.7168   17.8331 H   0  0  0  0  0  0
  -30.8464  -19.2772   19.7813 H   0  0  0  0  0  0
  -29.6299  -18.9611   18.6034 H   0  0  0  0  0  0
  -27.2306  -19.1814   18.5978 H   0  0  0  0  0  0
  -27.7407  -20.3348   17.3900 H   0  0  0  0  0  0
  -28.2101  -24.7445   21.7477 H   0  0  0  0  0  0
  -26.7924  -24.5170   20.7567 H   0  0  0  0  0  0
  -28.3903  -17.5241   20.0309 H   0  0  0  0  0  0
  -29.0755  -18.1862   21.5046 H   0  0  0  0  0  0
  -31.2323  -17.1600   21.1323 H   0  0  0  0  0  0
  -30.8425  -16.8243   19.4612 H   0  0  0  0  0  0
  -28.0614  -25.2149   18.7147 H   0  0  0  0  0  0
  -29.5492  -25.1595   19.5995 H   0  0  0  0  0  0
  -29.0236  -15.3604   21.1133 H   0  0  0  0  0  0
  1 25  1  0  0  0
  1 30  2  0  0  0
  1 84  1  0  0  0
  2  3  1  0  0  0
  2 25  1  0  0  0
  2 85  1  0  0  0
  2 86  1  0  0  0
  3  4  1  0  0  0
  3 87  1  0  0  0
  3 88  1  0  0  0
  4  5  1  0  0  0
  4 89  1  0  0  0
  4 90  1  0  0  0
  5  6  1  0  0  0
  5 26  1  0  0  0
  5 91  1  0  0  0
  6 25  1  0  0  0
  6 92  1  0  0  0
  6 93  1  0  0  0
  7  8  2  0  0  0
  7 26  1  0  0  0
  7 29  1  0  0  0
  8  9  1  0  0  0
  8 22  1  0  0  0
  9 10  1  0  0  0
  9 27  2  0  0  0
 10 11  2  0  0  0
 10 15  1  0  0  0
 11 12  1  0  0  0
 11 94  1  0  0  0
 12 13  2  0  0  0
 12 95  1  0  0  0
 13 14  1  0  0  0
 13 31  1  0  0  0
 14 15  2  0  0  0
 14 96  1  0  0  0
 15 97  1  0  0  0
 16 17  2  0  0  0
 16 21  1  0  0  0
 16 31  1  0  0  0
 17 18  1  0  0  0
 17 98  1  0  0  0
 18 19  2  0  0  0
 18 99  1  0  0  0
 19 20  1  0  0  0
 19 24  1  0  0  0
 20 21  2  0  0  0
 20100  1  0  0  0
 21 23  1  0  0  0
 22 28  1  0  0  0
 22 32  2  0  0  0
 26 27  1  0  0  0
 28101  1  0  0  0
 28102  1  0  0  0
 29103  1  0  0  0
 29104  1  0  0  0
 33 34  1  0  0  0
 33 66  1  0  0  0
 33 70  2  0  0  0
 34 36  1  0  0  0
 34 59  1  0  0  0
 34105  1  0  0  0
 35 44  2  0  0  0
 35 45  1  0  0  0
 35 68  1  0  0  0
 36 56  1  0  0  0
 36106  1  0  0  0
 37 39  1  0  0  0
 37 47  1  0  0  0
 37 66  1  0  0  0
 37107  1  0  0  0
 38 43  2  0  0  0
 38 46  1  0  0  0
 38 47  1  0  0  0
 39 64  1  0  0  0
 39 67  2  0  0  0
 40 52  1  0  0  0
 40 53  2  0  0  0
 40 58  1  0  0  0
 41108  1  0  0  0
 41109  1  0  0  0
 41110  1  0  0  0
 41 48  1  0  0  0
 42 43  1  0  0  0
 42 66  1  0  0  0
 42111  1  0  0  0
 42112  1  0  0  0
 43 44  1  0  0  0
 44113  1  0  0  0
 45 46  2  0  0  0
 45114  1  0  0  0
 46115  1  0  0  0
 47116  1  0  0  0
 47117  1  0  0  0
 48 56  1  0  0  0
 48 65  1  0  0  0
 48118  1  0  0  0
 49 50  1  0  0  0
 49 53  1  0  0  0
 49 64  1  0  0  0
 49119  1  0  0  0
 50 51  1  0  0  0
 50120  1  0  0  0
 50121  1  0  0  0
 51 52  1  0  0  0
 51122  1  0  0  0
 51123  1  0  0  0
 52124  1  0  0  0
 52125  1  0  0  0
 53 54  1  0  0  0
 54 55  2  0  0  0
 54126  1  0  0  0
 55 57  1  0  0  0
 55127  1  0  0  0
 56 69  2  0  0  0
 57 58  2  0  0  0
 57128  1  0  0  0
 58129  1  0  0  0
 59 60  1  0  0  0
 59 61  1  0  0  0
 59 62  1  0  0  0
 60130  1  0  0  0
 60131  1  0  0  0
 60132  1  0  0  0
 61133  1  0  0  0
 61134  1  0  0  0
 61135  1  0  0  0
 62136  1  0  0  0
 62137  1  0  0  0
 62138  1  0  0  0
 63 65  1  0  0  0
 63139  1  0  0  0
 63140  1  0  0  0
 63141  1  0  0  0
 64142  1  0  0  0
 65143  1  0  0  0
 68 81  1  0  0  0
 71 72  2  0  0  0
 71 82  1  0  0  0
 71144  1  0  0  0
 72 73  1  0  0  0
 72 76  1  0  0  0
 73 77  1  0  0  0
 73 83  2  0  0  0
 74 78  1  0  0  0
 74 82  2  0  0  0
 74 83  1  0  0  0
 75 77  1  0  0  0
 75145  1  0  0  0
 75146  1  0  0  0
 75147  1  0  0  0
 76 79  1  0  0  0
 76148  1  0  0  0
 76149  1  0  0  0
 77150  1  0  0  0
 77151  1  0  0  0
 78 81  1  0  0  0
 78152  1  0  0  0
 78153  1  0  0  0
 79 80  1  0  0  0
 79154  1  0  0  0
 79155  1  0  0  0
 80 84  1  0  0  0
 80156  1  0  0  0
 80157  1  0  0  0
 81158  1  0  0  0
 81159  1  0  0  0
 84160  1  0  0  0
M  ISO  4   1 100  68 101  81 101  84 100
M  END
> <chiral flag>
0

> <version>
0

> <s_m_source_file>
/data/baiqing/PycharmProjects/Reinvent-master-3.2/result/LINK_invent/BTK/process_docking_weight1_custom_sum_contain_oxygen_bond_distance_aromatic_linkinvent_7_9_3/rearranged_h_0042.sdf

> <i_m_source_file_index>
37

> <r_mmod_Potential_Energy-OPLS-2005>
-460.695770263672

> <r_mmod_Stretch_Energy-OPLS-2005>
31.7244625091553

> <r_mmod_Bend_Energy-OPLS-2005>
102.378257751465

> <r_mmod_Torsional_Energy-OPLS-2005>
191.4326171875

> <r_mmod_Improper_Torsional_Energy-OPLS-2005>
7.5215539932251

> <r_mmod_Van_der_Waal_Energy-OPLS-2005>
165.648406982422

> <r_mmod_Electrostatic_Energy-OPLS-2005>
-746.5068359375

> <r_mmod_Solvation_Energy-OPLS-2005>
-226.773742675781

> <b_mmod_Minimization_Converged-OPLS-2005>
0

> <r_mmod_RMS_Derivative-OPLS-2005>
3.39541411399841

$$$$
38
                    3D
 Structure written by MMmdl.
152160  0  0  1  0            999 V2000
  -30.5956  -14.7655   20.4535 C   0  0  0  0  0  0
  -30.4360  -12.4672   19.4777 C   0  0  0  0  0  0
  -29.5136  -12.5102   18.2393 C   0  0  0  0  0  0
  -28.0402  -12.3296   18.6533 C   0  0  0  0  0  0
  -27.6425  -13.2319   19.8518 C   0  0  2  0  0  0
  -28.6855  -13.1709   20.9886 C   0  0  0  0  0  0
  -25.2517  -13.8193   20.5690 C   0  0  0  0  0  0
  -24.1804  -13.0444   20.9207 C   0  0  0  0  0  0
  -24.6395  -11.6922   20.8748 C   0  0  0  0  0  0
  -23.9072  -10.4298   21.0409 C   0  0  0  0  0  0
  -24.3625   -9.4213   21.9183 C   0  0  0  0  0  0
  -23.6304   -8.2244   22.0747 C   0  0  0  0  0  0
  -22.4282   -8.0285   21.3541 C   0  0  0  0  0  0
  -21.9921   -9.0255   20.4643 C   0  0  0  0  0  0
  -22.7246  -10.2136   20.3055 C   0  0  0  0  0  0
  -21.6856   -6.0748   22.5280 C   0  0  0  0  0  0
  -21.4016   -6.5645   23.8217 C   0  0  0  0  0  0
  -21.3654   -5.6791   24.9175 C   0  0  0  0  0  0
  -21.6043   -4.3055   24.7220 C   0  0  0  0  0  0
  -21.8818   -3.8154   23.4339 C   0  0  0  0  0  0
  -21.9195   -4.6976   22.3399 C   0  0  0  0  0  0
  -22.7825  -13.5227   21.1871 C   0  0  0  0  0  0
  -22.1665   -4.2162   21.0979 F   0  0  0  0  0  0
  -21.5628   -3.4535   25.7732 F   0  0  0  0  0  0
  -29.9843  -13.5307   20.4068 N   0  0  0  0  0  0
  -26.2942  -12.9398   20.3282 N   0  0  0  0  0  0
  -25.9326  -11.6541   20.5750 N   0  0  0  0  0  0
  -22.0469  -12.8216   22.0427 N   0  0  0  0  0  0
  -25.4222  -15.1915   20.4093 N   0  0  0  0  0  0
  -31.7811  -14.8715   20.1277 O   0  0  0  0  0  0
  -21.6643   -6.8887   21.4241 O   0  0  0  0  0  0
  -22.3513  -14.5539   20.6724 O   0  0  0  0  0  0
  -24.6318  -31.8529   23.1950 C   0  0  0  0  0  0
  -25.9140  -32.4739   23.8301 C   0  0  1  0  0  0
  -27.2273  -27.2485   20.1305 C   0  0  0  0  0  0
  -25.5927  -33.8540   24.2231 N   0  0  0  0  0  0
  -23.4287  -30.4733   21.5384 C   0  0  2  0  0  0
  -24.8762  -28.9126   20.1093 C   0  0  0  0  0  0
  -22.7503  -29.4590   22.4907 C   0  0  0  0  0  0
  -18.0293  -28.1381   22.8490 C   0  0  0  0  0  0
  -24.1489  -36.7277   23.2642 C   0  0  0  0  0  0
  -25.9736  -30.7621   21.3746 C   0  0  0  0  0  0
  -26.0458  -29.3823   20.7179 C   0  0  0  0  0  0
  -27.2190  -28.5622   20.7160 C   0  0  0  0  0  0
  -26.0297  -26.8411   19.5020 C   0  0  0  0  0  0
  -24.8740  -27.6512   19.4913 C   0  0  0  0  0  0
  -23.6468  -29.8012   20.1558 C   0  0  0  0  0  0
  -25.4116  -36.3060   24.0325 C   0  0  1  0  0  0
  -20.5897  -28.3695   23.1272 C   0  0  2  0  0  0
  -20.6780  -26.9412   22.5411 C   0  0  0  0  0  0
  -19.5752  -26.6382   21.5217 C   0  0  0  0  0  0
  -18.1934  -26.7923   22.1629 C   0  0  0  0  0  0
  -19.1547  -28.8854   23.2875 C   0  0  0  0  0  0
  -18.9467  -30.1457   23.8892 C   0  0  0  0  0  0
  -17.6468  -30.6586   24.0560 C   0  0  0  0  0  0
  -25.9059  -34.9431   23.5085 C   0  0  0  0  0  0
  -16.5358  -29.9084   23.6330 C   0  0  0  0  0  0
  -16.7281  -28.6497   23.0358 C   0  0  0  0  0  0
  -26.4502  -31.6571   25.0700 C   0  0  0  0  0  0
  -25.3721  -31.3732   26.1420 C   0  0  0  0  0  0
  -27.0354  -30.2985   24.6199 C   0  0  0  0  0  0
  -27.6044  -32.4322   25.7480 C   0  0  0  0  0  0
  -27.5577  -37.1796   24.8467 C   0  0  0  0  0  0
  -21.4210  -29.3039   22.3655 N   0  0  0  0  0  0
  -26.4290  -37.3763   23.9409 N   0  0  0  0  0  0
  -24.6972  -31.0484   22.0924 N   0  0  0  0  0  0
  -23.4200  -28.8147   23.3021 O   0  0  0  0  0  0
  -28.3549  -26.3946   20.2100 O   0  0  0  0  0  0
  -26.5641  -34.8916   22.4661 O   0  0  0  0  0  0
  -23.5467  -32.1355   23.7247 O   0  0  0  0  0  0
  -30.3003  -20.7906   19.6784 C   0  0  0  0  0  0
  -29.2614  -20.1026   20.3845 C   0  0  0  0  0  0
  -31.5047  -20.1878   19.0231 C   0  0  0  0  0  0
  -29.0336  -18.5395   20.6487 C   0  0  0  0  0  0
  -28.4044  -23.6819   20.7376 C   0  0  0  0  0  0
  -30.1620  -17.3837   20.4221 C   0  0  0  0  0  0
  -28.4252  -24.9596   19.7311 C   0  0  0  0  0  0
  -30.0959  -22.1011   19.6607 N   0  0  0  0  0  0
  -28.4222  -21.0699   20.7903 N   0  0  0  0  0  0
  -28.9237  -22.2923   20.3250 N   0  0  0  0  0  0
  -29.8131  -15.8996   20.6480 N   0  0  0  0  0  0
  -31.4757  -12.5984   19.1732 H   0  0  0  0  0  0
  -30.3885  -11.4913   19.9631 H   0  0  0  0  0  0
  -29.8015  -11.7361   17.5265 H   0  0  0  0  0  0
  -29.6365  -13.4632   17.7229 H   0  0  0  0  0  0
  -27.9023  -11.2816   18.9206 H   0  0  0  0  0  0
  -27.3816  -12.5157   17.8041 H   0  0  0  0  0  0
  -27.6363  -14.2529   19.4695 H   0  0  0  0  0  0
  -28.7252  -12.1735   21.4284 H   0  0  0  0  0  0
  -28.4163  -13.8512   21.7984 H   0  0  0  0  0  0
  -25.2768   -9.5694   22.4762 H   0  0  0  0  0  0
  -24.0018   -7.4635   22.7459 H   0  0  0  0  0  0
  -21.0856   -8.8772   19.8944 H   0  0  0  0  0  0
  -22.3702  -10.9677   19.6168 H   0  0  0  0  0  0
  -21.2008   -7.6152   23.9728 H   0  0  0  0  0  0
  -21.1478   -6.0517   25.9081 H   0  0  0  0  0  0
  -22.0604   -2.7619   23.2829 H   0  0  0  0  0  0
  -22.4088  -11.9875   22.4807 H   0  0  0  0  0  0
  -21.1081  -13.1233   22.2634 H   0  0  0  0  0  0
  -24.6531  -15.8447   20.5135 H   0  0  0  0  0  0
  -26.2633  -15.6262   20.0529 H   0  0  0  0  0  0
  -26.7204  -32.5385   23.1038 H   0  0  0  0  0  0
  -25.0060  -33.9666   25.0366 H   0  0  0  0  0  0
  -22.7258  -31.2955   21.3898 H   0  0  0  0  0  0
  -23.3753  -35.9609   23.3300 H   0  0  0  0  0  0
  -24.3579  -36.8907   22.2057 H   0  0  0  0  0  0
  -23.7244  -37.6477   23.6671 H   0  0  0  0  0  0
  -26.1126  -31.5221   20.6044 H   0  0  0  0  0  0
  -26.8505  -30.8120   22.0083 H   0  0  0  0  0  0
  -28.1151  -28.9189   21.2044 H   0  0  0  0  0  0
  -25.9480  -25.8728   19.0349 H   0  0  0  0  0  0
  -23.9756  -27.2830   19.0153 H   0  0  0  0  0  0
  -23.7706  -30.5743   19.3966 H   0  0  0  0  0  0
  -22.7650  -29.2334   19.8536 H   0  0  0  0  0  0
  -25.1302  -36.1900   25.0819 H   0  0  0  0  0  0
  -20.9993  -28.3276   24.1390 H   0  0  0  0  0  0
  -20.5678  -26.2309   23.3620 H   0  0  0  0  0  0
  -21.6648  -26.7434   22.1207 H   0  0  0  0  0  0
  -19.6913  -25.6293   21.1247 H   0  0  0  0  0  0
  -19.6683  -27.3192   20.6746 H   0  0  0  0  0  0
  -17.4207  -26.6679   21.4029 H   0  0  0  0  0  0
  -18.0327  -26.0059   22.9017 H   0  0  0  0  0  0
  -19.7945  -30.7274   24.2258 H   0  0  0  0  0  0
  -17.5022  -31.6264   24.5164 H   0  0  0  0  0  0
  -15.5359  -30.2985   23.7647 H   0  0  0  0  0  0
  -15.8682  -28.0811   22.7079 H   0  0  0  0  0  0
  -24.5897  -30.7079   25.7752 H   0  0  0  0  0  0
  -24.8912  -32.2907   26.4820 H   0  0  0  0  0  0
  -25.8034  -30.8927   27.0210 H   0  0  0  0  0  0
  -26.2941  -29.6724   24.1219 H   0  0  0  0  0  0
  -27.4030  -29.7257   25.4722 H   0  0  0  0  0  0
  -27.8818  -30.4255   23.9444 H   0  0  0  0  0  0
  -27.2637  -33.3627   26.2033 H   0  0  0  0  0  0
  -28.3866  -32.6878   25.0319 H   0  0  0  0  0  0
  -28.0696  -31.8465   26.5419 H   0  0  0  0  0  0
  -28.2597  -38.0090   24.7509 H   0  0  0  0  0  0
  -28.1072  -36.2623   24.6298 H   0  0  0  0  0  0
  -27.2297  -37.1450   25.8870 H   0  0  0  0  0  0
  -20.9398  -29.8751   21.6848 H   0  0  0  0  0  0
  -26.0166  -38.2839   24.1400 H   0  0  0  0  0  0
  -31.2173  -19.5100   18.2199 H   0  0  0  0  0  0
  -32.0997  -19.6206   19.7388 H   0  0  0  0  0  0
  -32.1579  -20.9471   18.5917 H   0  0  0  0  0  0
  -28.1738  -18.2412   20.0490 H   0  0  0  0  0  0
  -28.6870  -18.4301   21.6765 H   0  0  0  0  0  0
  -27.3850  -23.5532   21.0999 H   0  0  0  0  0  0
  -28.9837  -23.9601   21.6175 H   0  0  0  0  0  0
  -31.0239  -17.6169   21.0490 H   0  0  0  0  0  0
  -30.5187  -17.4609   19.3948 H   0  0  0  0  0  0
  -27.7276  -24.7803   18.9162 H   0  0  0  0  0  0
  -29.3948  -24.9143   19.2353 H   0  0  0  0  0  0
  -28.8518  -15.7095   20.8893 H   0  0  0  0  0  0
  1 25  1  0  0  0
  1 30  2  0  0  0
  1 81  1  0  0  0
  2  3  1  0  0  0
  2 25  1  0  0  0
  2 82  1  0  0  0
  2 83  1  0  0  0
  3  4  1  0  0  0
  3 84  1  0  0  0
  3 85  1  0  0  0
  4  5  1  0  0  0
  4 86  1  0  0  0
  4 87  1  0  0  0
  5  6  1  0  0  0
  5 26  1  0  0  0
  5 88  1  0  0  0
  6 25  1  0  0  0
  6 89  1  0  0  0
  6 90  1  0  0  0
  7  8  2  0  0  0
  7 26  1  0  0  0
  7 29  1  0  0  0
  8  9  1  0  0  0
  8 22  1  0  0  0
  9 10  1  0  0  0
  9 27  2  0  0  0
 10 11  2  0  0  0
 10 15  1  0  0  0
 11 12  1  0  0  0
 11 91  1  0  0  0
 12 13  2  0  0  0
 12 92  1  0  0  0
 13 14  1  0  0  0
 13 31  1  0  0  0
 14 15  2  0  0  0
 14 93  1  0  0  0
 15 94  1  0  0  0
 16 17  2  0  0  0
 16 21  1  0  0  0
 16 31  1  0  0  0
 17 18  1  0  0  0
 17 95  1  0  0  0
 18 19  2  0  0  0
 18 96  1  0  0  0
 19 20  1  0  0  0
 19 24  1  0  0  0
 20 21  2  0  0  0
 20 97  1  0  0  0
 21 23  1  0  0  0
 22 28  1  0  0  0
 22 32  2  0  0  0
 26 27  1  0  0  0
 28 98  1  0  0  0
 28 99  1  0  0  0
 29100  1  0  0  0
 29101  1  0  0  0
 33 34  1  0  0  0
 33 66  1  0  0  0
 33 70  2  0  0  0
 34 36  1  0  0  0
 34 59  1  0  0  0
 34102  1  0  0  0
 35 44  2  0  0  0
 35 45  1  0  0  0
 35 68  1  0  0  0
 36 56  1  0  0  0
 36103  1  0  0  0
 37 39  1  0  0  0
 37 47  1  0  0  0
 37 66  1  0  0  0
 37104  1  0  0  0
 38 43  2  0  0  0
 38 46  1  0  0  0
 38 47  1  0  0  0
 39 64  1  0  0  0
 39 67  2  0  0  0
 40 52  1  0  0  0
 40 53  2  0  0  0
 40 58  1  0  0  0
 41105  1  0  0  0
 41106  1  0  0  0
 41107  1  0  0  0
 41 48  1  0  0  0
 42 43  1  0  0  0
 42 66  1  0  0  0
 42108  1  0  0  0
 42109  1  0  0  0
 43 44  1  0  0  0
 44110  1  0  0  0
 45 46  2  0  0  0
 45111  1  0  0  0
 46112  1  0  0  0
 47113  1  0  0  0
 47114  1  0  0  0
 48 56  1  0  0  0
 48 65  1  0  0  0
 48115  1  0  0  0
 49 50  1  0  0  0
 49 53  1  0  0  0
 49 64  1  0  0  0
 49116  1  0  0  0
 50 51  1  0  0  0
 50117  1  0  0  0
 50118  1  0  0  0
 51 52  1  0  0  0
 51119  1  0  0  0
 51120  1  0  0  0
 52121  1  0  0  0
 52122  1  0  0  0
 53 54  1  0  0  0
 54 55  2  0  0  0
 54123  1  0  0  0
 55 57  1  0  0  0
 55124  1  0  0  0
 56 69  2  0  0  0
 57 58  2  0  0  0
 57125  1  0  0  0
 58126  1  0  0  0
 59 60  1  0  0  0
 59 61  1  0  0  0
 59 62  1  0  0  0
 60127  1  0  0  0
 60128  1  0  0  0
 60129  1  0  0  0
 61130  1  0  0  0
 61131  1  0  0  0
 61132  1  0  0  0
 62133  1  0  0  0
 62134  1  0  0  0
 62135  1  0  0  0
 63 65  1  0  0  0
 63136  1  0  0  0
 63137  1  0  0  0
 63138  1  0  0  0
 64139  1  0  0  0
 65140  1  0  0  0
 68 77  1  0  0  0
 71 72  1  0  0  0
 71 73  1  0  0  0
 71 78  2  0  0  0
 72 74  1  0  0  0
 72 79  2  0  0  0
 73141  1  0  0  0
 73142  1  0  0  0
 73143  1  0  0  0
 74 76  1  0  0  0
 74144  1  0  0  0
 74145  1  0  0  0
 75 77  1  0  0  0
 75 80  1  0  0  0
 75146  1  0  0  0
 75147  1  0  0  0
 76 81  1  0  0  0
 76148  1  0  0  0
 76149  1  0  0  0
 77150  1  0  0  0
 77151  1  0  0  0
 78 80  1  0  0  0
 79 80  1  0  0  0
 81152  1  0  0  0
M  ISO  4   1 100  68 101  77 101  81 100
M  END
> <chiral flag>
0

> <version>
0

> <s_m_source_file>
/data/baiqing/PycharmProjects/Reinvent-master-3.2/result/LINK_invent/BTK/process_docking_weight1_custom_sum_contain_oxygen_bond_distance_aromatic_linkinvent_7_9_3/rearranged_h_0042.sdf

> <i_m_source_file_index>
38

> <r_mmod_Potential_Energy-OPLS-2005>
127.326179504395

> <r_mmod_Stretch_Energy-OPLS-2005>
134.328338623047

> <r_mmod_Bend_Energy-OPLS-2005>
193.750473022461

> <r_mmod_Torsional_Energy-OPLS-2005>
203.393127441406

> <r_mmod_Improper_Torsional_Energy-OPLS-2005>
6.53013134002686

> <r_mmod_Van_der_Waal_Energy-OPLS-2005>
111.012023925781

> <r_mmod_Electrostatic_Energy-OPLS-2005>
-386.061706542969

> <r_mmod_Solvation_Energy-OPLS-2005>
-226.521530151367

> <b_mmod_Minimization_Converged-OPLS-2005>
0

> <r_mmod_RMS_Derivative-OPLS-2005>
0.791807770729065

$$$$
39
                    3D
 Structure written by MMmdl.
161169  0  0  1  0            999 V2000
  -30.7116  -14.4737   20.6026 C   0  0  0  0  0  0
  -30.4242  -12.3246   19.4108 C   0  0  0  0  0  0
  -29.4904  -12.5107   18.1986 C   0  0  0  0  0  0
  -28.0138  -12.3650   18.6162 C   0  0  0  0  0  0
  -27.6599  -13.2079   19.8704 C   0  0  2  0  0  0
  -28.7026  -12.9928   20.9886 C   0  0  0  0  0  0
  -25.2588  -13.8163   20.5678 C   0  0  0  0  0  0
  -24.1842  -13.0441   20.9174 C   0  0  0  0  0  0
  -24.6396  -11.6908   20.8731 C   0  0  0  0  0  0
  -23.9061  -10.4295   21.0403 C   0  0  0  0  0  0
  -24.3616   -9.4209   21.9181 C   0  0  0  0  0  0
  -23.6290   -8.2245   22.0752 C   0  0  0  0  0  0
  -22.4274   -8.0282   21.3542 C   0  0  0  0  0  0
  -21.9908   -9.0256   20.4644 C   0  0  0  0  0  0
  -22.7235  -10.2134   20.3051 C   0  0  0  0  0  0
  -21.6852   -6.0737   22.5279 C   0  0  0  0  0  0
  -21.4013   -6.5640   23.8214 C   0  0  0  0  0  0
  -21.3658   -5.6792   24.9176 C   0  0  0  0  0  0
  -21.6046   -4.3057   24.7226 C   0  0  0  0  0  0
  -21.8819   -3.8149   23.4346 C   0  0  0  0  0  0
  -21.9194   -4.6965   22.3402 C   0  0  0  0  0  0
  -22.7869  -13.5240   21.1842 C   0  0  0  0  0  0
  -22.1663   -4.2154   21.0979 F   0  0  0  0  0  0
  -21.5628   -3.4537   25.7737 F   0  0  0  0  0  0
  -30.0299  -13.3073   20.4327 N   0  0  0  0  0  0
  -26.3019  -12.9332   20.3347 N   0  0  0  0  0  0
  -25.9319  -11.6491   20.5753 N   0  0  0  0  0  0
  -22.0510  -12.8230   22.0395 N   0  0  0  0  0  0
  -25.4321  -15.1881   20.4096 N   0  0  0  0  0  0
  -31.8296  -14.6723   20.1200 O   0  0  0  0  0  0
  -21.6640   -6.8881   21.4242 O   0  0  0  0  0  0
  -22.3559  -14.5551   20.6696 O   0  0  0  0  0  0
  -24.6160  -31.8684   23.2098 C   0  0  0  0  0  0
  -25.9057  -32.4820   23.8391 C   0  0  1  0  0  0
  -27.2274  -27.4121   20.1053 C   0  0  0  0  0  0
  -25.5920  -33.8620   24.2331 N   0  0  0  0  0  0
  -23.4034  -30.4909   21.5521 C   0  0  2  0  0  0
  -24.8476  -28.9529   20.1198 C   0  0  0  0  0  0
  -22.7414  -29.4649   22.5001 C   0  0  0  0  0  0
  -18.0264  -28.1362   22.8481 C   0  0  0  0  0  0
  -24.1489  -36.7299   23.2637 C   0  0  0  0  0  0
  -25.9342  -30.8244   21.3689 C   0  0  0  0  0  0
  -26.0091  -29.4560   20.7193 C   0  0  0  0  0  0
  -27.2022  -28.6935   20.7081 C   0  0  0  0  0  0
  -26.0521  -26.9375   19.4851 C   0  0  0  0  0  0
  -24.8646  -27.6924   19.5001 C   0  0  0  0  0  0
  -23.6122  -29.8246   20.1665 C   0  0  0  0  0  0
  -25.4113  -36.3108   24.0334 C   0  0  1  0  0  0
  -20.5855  -28.3659   23.1309 C   0  0  2  0  0  0
  -20.6764  -26.9399   22.5408 C   0  0  0  0  0  0
  -19.5742  -26.6377   21.5200 C   0  0  0  0  0  0
  -18.1916  -26.7909   22.1610 C   0  0  0  0  0  0
  -19.1517  -28.8829   23.2888 C   0  0  0  0  0  0
  -18.9453  -30.1431   23.8905 C   0  0  0  0  0  0
  -17.6462  -30.6584   24.0552 C   0  0  0  0  0  0
  -25.9041  -34.9479   23.5128 C   0  0  0  0  0  0
  -16.5348  -29.9083   23.6324 C   0  0  0  0  0  0
  -16.7257  -28.6492   23.0354 C   0  0  0  0  0  0
  -26.4486  -31.6595   25.0718 C   0  0  0  0  0  0
  -25.3748  -31.3699   26.1465 C   0  0  0  0  0  0
  -27.0337  -30.3039   24.6100 C   0  0  0  0  0  0
  -27.6059  -32.4319   25.7485 C   0  0  0  0  0  0
  -27.5586  -37.1806   24.8471 C   0  0  0  0  0  0
  -21.4142  -29.3029   22.3732 N   0  0  0  0  0  0
  -26.4305  -37.3789   23.9401 N   0  0  0  0  0  0
  -24.6694  -31.0763   22.1013 N   0  0  0  0  0  0
  -23.4183  -28.8200   23.3051 O   0  0  0  0  0  0
  -28.4001  -26.6832   20.0589 O   0  0  0  0  0  0
  -26.5602  -34.8941   22.4688 O   0  0  0  0  0  0
  -23.5349  -32.1457   23.7484 O   0  0  0  0  0  0
  -27.9003  -20.7009   21.4510 C   0  0  0  0  0  0
  -27.6026  -22.0666   21.2437 C   0  0  0  0  0  0
  -28.8293  -20.0390   20.6198 C   0  0  0  0  0  0
  -28.2642  -22.7601   20.2040 C   0  0  0  0  0  0
  -29.4668  -20.8250   19.6272 C   0  0  0  0  0  0
  -26.5554  -22.7392   22.1193 C   0  0  0  0  0  0
  -30.4785  -20.2459   18.6582 C   0  0  0  0  0  0
  -29.0174  -18.5109   20.7839 C   0  0  0  0  0  0
  -27.8883  -24.1943   19.7764 C   0  0  0  0  0  0
  -30.4651  -17.9742   20.9376 C   0  0  0  0  0  0
  -30.6376  -16.6917   21.8037 C   0  0  0  0  0  0
  -28.4237  -25.3621   20.6532 C   0  0  0  0  0  0
  -29.1975  -22.1417   19.4436 N   0  0  0  0  0  0
  -30.0591  -15.4423   21.2752 N   0  0  0  0  0  0
  -31.4657  -12.4345   19.1038 H   0  0  0  0  0  0
  -30.3380  -11.3134   19.8108 H   0  0  0  0  0  0
  -29.7315  -11.7834   17.4218 H   0  0  0  0  0  0
  -29.6519  -13.4956   17.7563 H   0  0  0  0  0  0
  -27.8297  -11.3086   18.8164 H   0  0  0  0  0  0
  -27.3597  -12.6337   17.7857 H   0  0  0  0  0  0
  -27.7034  -14.2559   19.5708 H   0  0  0  0  0  0
  -28.6860  -11.9563   21.3279 H   0  0  0  0  0  0
  -28.4572  -13.5883   21.8685 H   0  0  0  0  0  0
  -25.2765   -9.5685   22.4752 H   0  0  0  0  0  0
  -24.0004   -7.4637   22.7471 H   0  0  0  0  0  0
  -21.0843   -8.8773   19.8950 H   0  0  0  0  0  0
  -22.3699  -10.9671   19.6162 H   0  0  0  0  0  0
  -21.2003   -7.6151   23.9718 H   0  0  0  0  0  0
  -21.1478   -6.0522   25.9077 H   0  0  0  0  0  0
  -22.0600   -2.7612   23.2845 H   0  0  0  0  0  0
  -22.4123  -11.9887   22.4778 H   0  0  0  0  0  0
  -21.1129  -13.1256   22.2601 H   0  0  0  0  0  0
  -24.6670  -15.8451   20.5168 H   0  0  0  0  0  0
  -26.2874  -15.6250   20.0901 H   0  0  0  0  0  0
  -26.7129  -32.5526   23.1151 H   0  0  0  0  0  0
  -25.0099  -33.9774   25.0499 H   0  0  0  0  0  0
  -22.6912  -31.3075   21.4139 H   0  0  0  0  0  0
  -23.3756  -35.9631   23.3324 H   0  0  0  0  0  0
  -24.3582  -36.8892   22.2048 H   0  0  0  0  0  0
  -23.7244  -37.6507   23.6643 H   0  0  0  0  0  0
  -26.0513  -31.5891   20.6004 H   0  0  0  0  0  0
  -26.8194  -30.8745   21.9905 H   0  0  0  0  0  0
  -28.1020  -29.0812   21.1656 H   0  0  0  0  0  0
  -26.0432  -26.0039   18.9493 H   0  0  0  0  0  0
  -23.9770  -27.3061   19.0173 H   0  0  0  0  0  0
  -23.7257  -30.6005   19.4080 H   0  0  0  0  0  0
  -22.7337  -29.2480   19.8706 H   0  0  0  0  0  0
  -25.1290  -36.1972   25.0825 H   0  0  0  0  0  0
  -20.9926  -28.3236   24.1435 H   0  0  0  0  0  0
  -20.5659  -26.2276   23.3599 H   0  0  0  0  0  0
  -21.6639  -26.7449   22.1202 H   0  0  0  0  0  0
  -19.6919  -25.6286   21.1230 H   0  0  0  0  0  0
  -19.6681  -27.3194   20.6734 H   0  0  0  0  0  0
  -17.4183  -26.6646   21.4010 H   0  0  0  0  0  0
  -18.0320  -26.0044   22.9001 H   0  0  0  0  0  0
  -19.7941  -30.7219   24.2291 H   0  0  0  0  0  0
  -17.5032  -31.6267   24.5153 H   0  0  0  0  0  0
  -15.5351  -30.2995   23.7652 H   0  0  0  0  0  0
  -15.8647  -28.0817   22.7083 H   0  0  0  0  0  0
  -24.5917  -30.7055   25.7795 H   0  0  0  0  0  0
  -24.8942  -32.2852   26.4925 H   0  0  0  0  0  0
  -25.8094  -30.8855   27.0215 H   0  0  0  0  0  0
  -26.2887  -29.6767   24.1190 H   0  0  0  0  0  0
  -27.4148  -29.7304   25.4556 H   0  0  0  0  0  0
  -27.8704  -30.4351   23.9234 H   0  0  0  0  0  0
  -27.2675  -33.3610   26.2083 H   0  0  0  0  0  0
  -28.3861  -32.6894   25.0308 H   0  0  0  0  0  0
  -28.0739  -31.8428   26.5380 H   0  0  0  0  0  0
  -28.2616  -38.0097   24.7522 H   0  0  0  0  0  0
  -28.1077  -36.2629   24.6305 H   0  0  0  0  0  0
  -27.2302  -37.1459   25.8877 H   0  0  0  0  0  0
  -20.9316  -29.8770   21.6963 H   0  0  0  0  0  0
  -26.0202  -38.2867   24.1399 H   0  0  0  0  0  0
  -27.3807  -20.1486   22.2216 H   0  0  0  0  0  0
  -26.0795  -22.0231   22.7906 H   0  0  0  0  0  0
  -25.7665  -23.1935   21.5198 H   0  0  0  0  0  0
  -27.0115  -23.5137   22.7363 H   0  0  0  0  0  0
  -30.1216  -19.3058   18.2388 H   0  0  0  0  0  0
  -31.4283  -20.0698   19.1629 H   0  0  0  0  0  0
  -30.6678  -20.9262   17.8270 H   0  0  0  0  0  0
  -28.5370  -18.0097   19.9421 H   0  0  0  0  0  0
  -28.4502  -18.2013   21.6626 H   0  0  0  0  0  0
  -26.8032  -24.2273   19.7344 H   0  0  0  0  0  0
  -28.2262  -24.3489   18.7511 H   0  0  0  0  0  0
  -31.0570  -18.7506   21.4242 H   0  0  0  0  0  0
  -30.9262  -17.8226   19.9616 H   0  0  0  0  0  0
  -30.1991  -16.8668   22.7865 H   0  0  0  0  0  0
  -31.7018  -16.5376   21.9938 H   0  0  0  0  0  0
  -29.4722  -25.1600   20.8710 H   0  0  0  0  0  0
  -27.9205  -25.3792   21.6200 H   0  0  0  0  0  0
  -29.1258  -15.2083   21.5815 H   0  0  0  0  0  0
  1 25  1  0  0  0
  1 30  2  0  0  0
  1 84  1  0  0  0
  2  3  1  0  0  0
  2 25  1  0  0  0
  2 85  1  0  0  0
  2 86  1  0  0  0
  3  4  1  0  0  0
  3 87  1  0  0  0
  3 88  1  0  0  0
  4  5  1  0  0  0
  4 89  1  0  0  0
  4 90  1  0  0  0
  5  6  1  0  0  0
  5 26  1  0  0  0
  5 91  1  0  0  0
  6 25  1  0  0  0
  6 92  1  0  0  0
  6 93  1  0  0  0
  7  8  2  0  0  0
  7 26  1  0  0  0
  7 29  1  0  0  0
  8  9  1  0  0  0
  8 22  1  0  0  0
  9 10  1  0  0  0
  9 27  2  0  0  0
 10 11  2  0  0  0
 10 15  1  0  0  0
 11 12  1  0  0  0
 11 94  1  0  0  0
 12 13  2  0  0  0
 12 95  1  0  0  0
 13 14  1  0  0  0
 13 31  1  0  0  0
 14 15  2  0  0  0
 14 96  1  0  0  0
 15 97  1  0  0  0
 16 17  2  0  0  0
 16 21  1  0  0  0
 16 31  1  0  0  0
 17 18  1  0  0  0
 17 98  1  0  0  0
 18 19  2  0  0  0
 18 99  1  0  0  0
 19 20  1  0  0  0
 19 24  1  0  0  0
 20 21  2  0  0  0
 20100  1  0  0  0
 21 23  1  0  0  0
 22 28  1  0  0  0
 22 32  2  0  0  0
 26 27  1  0  0  0
 28101  1  0  0  0
 28102  1  0  0  0
 29103  1  0  0  0
 29104  1  0  0  0
 33 34  1  0  0  0
 33 66  1  0  0  0
 33 70  2  0  0  0
 34 36  1  0  0  0
 34 59  1  0  0  0
 34105  1  0  0  0
 35 44  2  0  0  0
 35 45  1  0  0  0
 35 68  1  0  0  0
 36 56  1  0  0  0
 36106  1  0  0  0
 37 39  1  0  0  0
 37 47  1  0  0  0
 37 66  1  0  0  0
 37107  1  0  0  0
 38 43  2  0  0  0
 38 46  1  0  0  0
 38 47  1  0  0  0
 39 64  1  0  0  0
 39 67  2  0  0  0
 40 52  1  0  0  0
 40 53  2  0  0  0
 40 58  1  0  0  0
 41108  1  0  0  0
 41109  1  0  0  0
 41110  1  0  0  0
 41 48  1  0  0  0
 42 43  1  0  0  0
 42 66  1  0  0  0
 42111  1  0  0  0
 42112  1  0  0  0
 43 44  1  0  0  0
 44113  1  0  0  0
 45 46  2  0  0  0
 45114  1  0  0  0
 46115  1  0  0  0
 47116  1  0  0  0
 47117  1  0  0  0
 48 56  1  0  0  0
 48 65  1  0  0  0
 48118  1  0  0  0
 49 50  1  0  0  0
 49 53  1  0  0  0
 49 64  1  0  0  0
 49119  1  0  0  0
 50 51  1  0  0  0
 50120  1  0  0  0
 50121  1  0  0  0
 51 52  1  0  0  0
 51122  1  0  0  0
 51123  1  0  0  0
 52124  1  0  0  0
 52125  1  0  0  0
 53 54  1  0  0  0
 54 55  2  0  0  0
 54126  1  0  0  0
 55 57  1  0  0  0
 55127  1  0  0  0
 56 69  2  0  0  0
 57 58  2  0  0  0
 57128  1  0  0  0
 58129  1  0  0  0
 59 60  1  0  0  0
 59 61  1  0  0  0
 59 62  1  0  0  0
 60130  1  0  0  0
 60131  1  0  0  0
 60132  1  0  0  0
 61133  1  0  0  0
 61134  1  0  0  0
 61135  1  0  0  0
 62136  1  0  0  0
 62137  1  0  0  0
 62138  1  0  0  0
 63 65  1  0  0  0
 63139  1  0  0  0
 63140  1  0  0  0
 63141  1  0  0  0
 64142  1  0  0  0
 65143  1  0  0  0
 68 82  1  0  0  0
 71 72  2  0  0  0
 71 73  1  0  0  0
 71144  1  0  0  0
 72 74  1  0  0  0
 72 76  1  0  0  0
 73 75  2  0  0  0
 73 78  1  0  0  0
 74 79  1  0  0  0
 74 83  2  0  0  0
 75 77  1  0  0  0
 75 83  1  0  0  0
 76145  1  0  0  0
 76146  1  0  0  0
 76147  1  0  0  0
 77148  1  0  0  0
 77149  1  0  0  0
 77150  1  0  0  0
 78 80  1  0  0  0
 78151  1  0  0  0
 78152  1  0  0  0
 79 82  1  0  0  0
 79153  1  0  0  0
 79154  1  0  0  0
 80 81  1  0  0  0
 80155  1  0  0  0
 80156  1  0  0  0
 81 84  1  0  0  0
 81157  1  0  0  0
 81158  1  0  0  0
 82159  1  0  0  0
 82160  1  0  0  0
 84161  1  0  0  0
M  ISO  4   1 100  68 101  82 101  84 100
M  END
> <chiral flag>
0

> <version>
0

> <s_m_source_file>
/data/baiqing/PycharmProjects/Reinvent-master-3.2/result/LINK_invent/BTK/process_docking_weight1_custom_sum_contain_oxygen_bond_distance_aromatic_linkinvent_7_9_3/rearranged_h_0042.sdf

> <i_m_source_file_index>
39

> <r_mmod_Potential_Energy-OPLS-2005>
-202.014587402344

> <r_mmod_Stretch_Energy-OPLS-2005>
41.7913284301758

> <r_mmod_Bend_Energy-OPLS-2005>
111.203979492188

> <r_mmod_Torsional_Energy-OPLS-2005>
218.166580200195

> <r_mmod_Improper_Torsional_Energy-OPLS-2005>
3.0491418838501

> <r_mmod_Van_der_Waal_Energy-OPLS-2005>
148.866516113281

> <r_mmod_Electrostatic_Energy-OPLS-2005>
-514.137084960938

> <r_mmod_Solvation_Energy-OPLS-2005>
-223.932373046875

> <b_mmod_Minimization_Converged-OPLS-2005>
0

> <r_mmod_RMS_Derivative-OPLS-2005>
1.17429327964783

$$$$
40
                    3D
 Structure written by MMmdl.
157165  0  0  1  0            999 V2000
  -30.6926  -14.4339   20.5367 C   0  0  0  0  0  0
  -30.4238  -12.2652   19.4268 C   0  0  0  0  0  0
  -29.4987  -12.4932   18.2115 C   0  0  0  0  0  0
  -28.0169  -12.3609   18.6193 C   0  0  0  0  0  0
  -27.6666  -13.1928   19.8817 C   0  0  2  0  0  0
  -28.7085  -12.9576   21.0034 C   0  0  0  0  0  0
  -25.2633  -13.8133   20.5715 C   0  0  0  0  0  0
  -24.1860  -13.0428   20.9171 C   0  0  0  0  0  0
  -24.6381  -11.6887   20.8728 C   0  0  0  0  0  0
  -23.9034  -10.4288   21.0413 C   0  0  0  0  0  0
  -24.3597   -9.4208   21.9186 C   0  0  0  0  0  0
  -23.6286   -8.2237   22.0748 C   0  0  0  0  0  0
  -22.4266   -8.0276   21.3542 C   0  0  0  0  0  0
  -21.9890   -9.0237   20.4642 C   0  0  0  0  0  0
  -22.7208  -10.2123   20.3062 C   0  0  0  0  0  0
  -21.6841   -6.0739   22.5281 C   0  0  0  0  0  0
  -21.4009   -6.5641   23.8219 C   0  0  0  0  0  0
  -21.3662   -5.6796   24.9177 C   0  0  0  0  0  0
  -21.6043   -4.3059   24.7220 C   0  0  0  0  0  0
  -21.8820   -3.8150   23.4337 C   0  0  0  0  0  0
  -21.9191   -4.6969   22.3398 C   0  0  0  0  0  0
  -22.7888  -13.5251   21.1826 C   0  0  0  0  0  0
  -22.1658   -4.2157   21.0971 F   0  0  0  0  0  0
  -21.5629   -3.4539   25.7730 F   0  0  0  0  0  0
  -30.0484  -13.2421   20.4588 N   0  0  0  0  0  0
  -26.3053  -12.9269   20.3408 N   0  0  0  0  0  0
  -25.9307  -11.6436   20.5775 N   0  0  0  0  0  0
  -22.0509  -12.8262   22.0389 N   0  0  0  0  0  0
  -25.4371  -15.1854   20.4153 N   0  0  0  0  0  0
  -31.8270  -14.6314   20.0918 O   0  0  0  0  0  0
  -21.6623   -6.8878   21.4247 O   0  0  0  0  0  0
  -22.3589  -14.5553   20.6656 O   0  0  0  0  0  0
  -24.6118  -31.8721   23.2117 C   0  0  0  0  0  0
  -25.9031  -32.4842   23.8401 C   0  0  1  0  0  0
  -27.2384  -27.4595   20.0945 C   0  0  0  0  0  0
  -25.5904  -33.8640   24.2342 N   0  0  0  0  0  0
  -23.3970  -30.4961   21.5524 C   0  0  2  0  0  0
  -24.8426  -28.9636   20.1157 C   0  0  0  0  0  0
  -22.7384  -29.4697   22.5010 C   0  0  0  0  0  0
  -18.0268  -28.1386   22.8491 C   0  0  0  0  0  0
  -24.1488  -36.7318   23.2636 C   0  0  0  0  0  0
  -25.9231  -30.8451   21.3605 C   0  0  0  0  0  0
  -26.0004  -29.4814   20.7079 C   0  0  0  0  0  0
  -27.1989  -28.7370   20.6935 C   0  0  0  0  0  0
  -26.0614  -26.9515   19.4945 C   0  0  0  0  0  0
  -24.8664  -27.6956   19.5092 C   0  0  0  0  0  0
  -23.6032  -29.8280   20.1663 C   0  0  0  0  0  0
  -25.4109  -36.3126   24.0344 C   0  0  1  0  0  0
  -20.5856  -28.3673   23.1328 C   0  0  2  0  0  0
  -20.6775  -26.9417   22.5419 C   0  0  0  0  0  0
  -19.5756  -26.6394   21.5217 C   0  0  0  0  0  0
  -18.1930  -26.7933   22.1624 C   0  0  0  0  0  0
  -19.1519  -28.8841   23.2909 C   0  0  0  0  0  0
  -18.9451  -30.1452   23.8916 C   0  0  0  0  0  0
  -17.6456  -30.6597   24.0570 C   0  0  0  0  0  0
  -25.9036  -34.9491   23.5139 C   0  0  0  0  0  0
  -16.5346  -29.9101   23.6329 C   0  0  0  0  0  0
  -16.7261  -28.6520   23.0342 C   0  0  0  0  0  0
  -26.4461  -31.6611   25.0722 C   0  0  0  0  0  0
  -25.3721  -31.3721   26.1465 C   0  0  0  0  0  0
  -27.0293  -30.3057   24.6092 C   0  0  0  0  0  0
  -27.6055  -32.4314   25.7475 C   0  0  0  0  0  0
  -27.5589  -37.1815   24.8468 C   0  0  0  0  0  0
  -21.4117  -29.3047   22.3734 N   0  0  0  0  0  0
  -26.4302  -37.3804   23.9412 N   0  0  0  0  0  0
  -24.6622  -31.0842   22.1005 N   0  0  0  0  0  0
  -23.4170  -28.8256   23.3056 O   0  0  0  0  0  0
  -28.4282  -26.7630   20.1164 O   0  0  0  0  0  0
  -26.5589  -34.8937   22.4696 O   0  0  0  0  0  0
  -23.5325  -32.1473   23.7530 O   0  0  0  0  0  0
  -30.3565  -22.5083   19.4956 C   0  0  0  0  0  0
  -29.5968  -23.1826   20.4787 C   0  0  0  0  0  0
  -28.6645  -21.1746   21.1401 C   0  0  0  0  0  0
  -29.3836  -20.5050   20.1145 C   0  0  0  0  0  0
  -27.7119  -20.4564   22.0777 C   0  0  0  0  0  0
  -29.6219  -24.6985   20.5938 C   0  0  0  0  0  0
  -29.1462  -19.0457   19.7499 C   0  0  0  0  0  0
  -29.7751  -17.9914   20.6831 C   0  0  0  0  0  0
  -29.7715  -16.6272   19.9706 C   0  0  0  0  0  0
  -28.3699  -25.3433   19.9758 C   0  0  0  0  0  0
  -30.2573  -21.1691   19.3172 N   0  0  0  0  0  0
  -28.7767  -22.5130   21.3265 N   0  0  0  0  0  0
  -29.8889  -15.4601   20.8470 N   0  0  0  0  0  0
  -31.4703  -12.3540   19.1294 H   0  0  0  0  0  0
  -30.3077  -11.2501   19.8118 H   0  0  0  0  0  0
  -29.7326  -11.7789   17.4207 H   0  0  0  0  0  0
  -29.6796  -13.4835   17.7914 H   0  0  0  0  0  0
  -27.8193  -11.3044   18.8057 H   0  0  0  0  0  0
  -27.3695  -12.6469   17.7895 H   0  0  0  0  0  0
  -27.7125  -14.2401   19.5855 H   0  0  0  0  0  0
  -28.6703  -11.9222   21.3447 H   0  0  0  0  0  0
  -28.4836  -13.5618   21.8838 H   0  0  0  0  0  0
  -25.2737   -9.5689   22.4766 H   0  0  0  0  0  0
  -23.9991   -7.4630   22.7467 H   0  0  0  0  0  0
  -21.0815   -8.8749   19.8953 H   0  0  0  0  0  0
  -22.3657  -10.9659   19.6177 H   0  0  0  0  0  0
  -21.1997   -7.6147   23.9727 H   0  0  0  0  0  0
  -21.1491   -6.0517   25.9087 H   0  0  0  0  0  0
  -22.0599   -2.7611   23.2825 H   0  0  0  0  0  0
  -22.4076  -11.9913   22.4796 H   0  0  0  0  0  0
  -21.1138  -13.1333   22.2577 H   0  0  0  0  0  0
  -24.6715  -15.8395   20.5378 H   0  0  0  0  0  0
  -26.2925  -15.6299   20.1093 H   0  0  0  0  0  0
  -26.7109  -32.5566   23.1175 H   0  0  0  0  0  0
  -25.0064  -33.9807   25.0491 H   0  0  0  0  0  0
  -22.6852  -31.3132   21.4148 H   0  0  0  0  0  0
  -23.3759  -35.9644   23.3306 H   0  0  0  0  0  0
  -24.3582  -36.8916   22.2049 H   0  0  0  0  0  0
  -23.7229  -37.6525   23.6633 H   0  0  0  0  0  0
  -26.0317  -31.6135   20.5935 H   0  0  0  0  0  0
  -26.8121  -30.8983   21.9765 H   0  0  0  0  0  0
  -28.0925  -29.1364   21.1530 H   0  0  0  0  0  0
  -26.0511  -25.9880   19.0070 H   0  0  0  0  0  0
  -23.9750  -27.2888   19.0517 H   0  0  0  0  0  0
  -23.7102  -30.6046   19.4078 H   0  0  0  0  0  0
  -22.7268  -29.2487   19.8710 H   0  0  0  0  0  0
  -25.1282  -36.1998   25.0839 H   0  0  0  0  0  0
  -20.9946  -28.3244   24.1449 H   0  0  0  0  0  0
  -20.5701  -26.2284   23.3600 H   0  0  0  0  0  0
  -21.6649  -26.7490   22.1202 H   0  0  0  0  0  0
  -19.6926  -25.6305   21.1248 H   0  0  0  0  0  0
  -19.6700  -27.3204   20.6747 H   0  0  0  0  0  0
  -17.4202  -26.6676   21.4022 H   0  0  0  0  0  0
  -18.0333  -26.0073   22.9020 H   0  0  0  0  0  0
  -19.7927  -30.7259   24.2293 H   0  0  0  0  0  0
  -17.5017  -31.6275   24.5175 H   0  0  0  0  0  0
  -15.5352  -30.3015   23.7644 H   0  0  0  0  0  0
  -15.8657  -28.0853   22.7041 H   0  0  0  0  0  0
  -24.5898  -30.7064   25.7794 H   0  0  0  0  0  0
  -24.8901  -32.2880   26.4901 H   0  0  0  0  0  0
  -25.8062  -30.8895   27.0228 H   0  0  0  0  0  0
  -26.2843  -29.6817   24.1141 H   0  0  0  0  0  0
  -27.4067  -29.7296   25.4551 H   0  0  0  0  0  0
  -27.8671  -30.4386   23.9240 H   0  0  0  0  0  0
  -27.2708  -33.3627   26.2054 H   0  0  0  0  0  0
  -28.3860  -32.6843   25.0286 H   0  0  0  0  0  0
  -28.0718  -31.8421   26.5379 H   0  0  0  0  0  0
  -28.2616  -38.0105   24.7523 H   0  0  0  0  0  0
  -28.1075  -36.2643   24.6280 H   0  0  0  0  0  0
  -27.2306  -37.1443   25.8869 H   0  0  0  0  0  0
  -20.9269  -29.8750   21.6943 H   0  0  0  0  0  0
  -26.0201  -38.2888   24.1403 H   0  0  0  0  0  0
  -31.0118  -23.0463   18.8256 H   0  0  0  0  0  0
  -27.0788  -19.7491   21.5443 H   0  0  0  0  0  0
  -27.0553  -21.1609   22.5881 H   0  0  0  0  0  0
  -28.2747  -19.9127   22.8363 H   0  0  0  0  0  0
  -30.5155  -25.0844   20.1033 H   0  0  0  0  0  0
  -29.7054  -24.9751   21.6453 H   0  0  0  0  0  0
  -29.5285  -18.8922   18.7396 H   0  0  0  0  0  0
  -28.0724  -18.8734   19.6684 H   0  0  0  0  0  0
  -29.2219  -17.9467   21.6210 H   0  0  0  0  0  0
  -30.8004  -18.2673   20.9315 H   0  0  0  0  0  0
  -30.5308  -16.6265   19.1848 H   0  0  0  0  0  0
  -28.8217  -16.5034   19.4476 H   0  0  0  0  0  0
  -27.4926  -24.9393   20.4840 H   0  0  0  0  0  0
  -28.2923  -25.0843   18.9191 H   0  0  0  0  0  0
  -29.0317  -15.1824   21.3026 H   0  0  0  0  0  0
  1 25  1  0  0  0
  1 30  2  0  0  0
  1 83  1  0  0  0
  2  3  1  0  0  0
  2 25  1  0  0  0
  2 84  1  0  0  0
  2 85  1  0  0  0
  3  4  1  0  0  0
  3 86  1  0  0  0
  3 87  1  0  0  0
  4  5  1  0  0  0
  4 88  1  0  0  0
  4 89  1  0  0  0
  5  6  1  0  0  0
  5 26  1  0  0  0
  5 90  1  0  0  0
  6 25  1  0  0  0
  6 91  1  0  0  0
  6 92  1  0  0  0
  7  8  2  0  0  0
  7 26  1  0  0  0
  7 29  1  0  0  0
  8  9  1  0  0  0
  8 22  1  0  0  0
  9 10  1  0  0  0
  9 27  2  0  0  0
 10 11  2  0  0  0
 10 15  1  0  0  0
 11 12  1  0  0  0
 11 93  1  0  0  0
 12 13  2  0  0  0
 12 94  1  0  0  0
 13 14  1  0  0  0
 13 31  1  0  0  0
 14 15  2  0  0  0
 14 95  1  0  0  0
 15 96  1  0  0  0
 16 17  2  0  0  0
 16 21  1  0  0  0
 16 31  1  0  0  0
 17 18  1  0  0  0
 17 97  1  0  0  0
 18 19  2  0  0  0
 18 98  1  0  0  0
 19 20  1  0  0  0
 19 24  1  0  0  0
 20 21  2  0  0  0
 20 99  1  0  0  0
 21 23  1  0  0  0
 22 28  1  0  0  0
 22 32  2  0  0  0
 26 27  1  0  0  0
 28100  1  0  0  0
 28101  1  0  0  0
 29102  1  0  0  0
 29103  1  0  0  0
 33 34  1  0  0  0
 33 66  1  0  0  0
 33 70  2  0  0  0
 34 36  1  0  0  0
 34 59  1  0  0  0
 34104  1  0  0  0
 35 44  2  0  0  0
 35 45  1  0  0  0
 35 68  1  0  0  0
 36 56  1  0  0  0
 36105  1  0  0  0
 37 39  1  0  0  0
 37 47  1  0  0  0
 37 66  1  0  0  0
 37106  1  0  0  0
 38 43  2  0  0  0
 38 46  1  0  0  0
 38 47  1  0  0  0
 39 64  1  0  0  0
 39 67  2  0  0  0
 40 52  1  0  0  0
 40 53  2  0  0  0
 40 58  1  0  0  0
 41107  1  0  0  0
 41108  1  0  0  0
 41109  1  0  0  0
 41 48  1  0  0  0
 42 43  1  0  0  0
 42 66  1  0  0  0
 42110  1  0  0  0
 42111  1  0  0  0
 43 44  1  0  0  0
 44112  1  0  0  0
 45 46  2  0  0  0
 45113  1  0  0  0
 46114  1  0  0  0
 47115  1  0  0  0
 47116  1  0  0  0
 48 56  1  0  0  0
 48 65  1  0  0  0
 48117  1  0  0  0
 49 50  1  0  0  0
 49 53  1  0  0  0
 49 64  1  0  0  0
 49118  1  0  0  0
 50 51  1  0  0  0
 50119  1  0  0  0
 50120  1  0  0  0
 51 52  1  0  0  0
 51121  1  0  0  0
 51122  1  0  0  0
 52123  1  0  0  0
 52124  1  0  0  0
 53 54  1  0  0  0
 54 55  2  0  0  0
 54125  1  0  0  0
 55 57  1  0  0  0
 55126  1  0  0  0
 56 69  2  0  0  0
 57 58  2  0  0  0
 57127  1  0  0  0
 58128  1  0  0  0
 59 60  1  0  0  0
 59 61  1  0  0  0
 59 62  1  0  0  0
 60129  1  0  0  0
 60130  1  0  0  0
 60131  1  0  0  0
 61132  1  0  0  0
 61133  1  0  0  0
 61134  1  0  0  0
 62135  1  0  0  0
 62136  1  0  0  0
 62137  1  0  0  0
 63 65  1  0  0  0
 63138  1  0  0  0
 63139  1  0  0  0
 63140  1  0  0  0
 64141  1  0  0  0
 65142  1  0  0  0
 68 80  1  0  0  0
 71 72  2  0  0  0
 71 81  1  0  0  0
 71143  1  0  0  0
 72 76  1  0  0  0
 72 82  1  0  0  0
 73 74  1  0  0  0
 73 75  1  0  0  0
 73 82  2  0  0  0
 74 77  1  0  0  0
 74 81  2  0  0  0
 75144  1  0  0  0
 75145  1  0  0  0
 75146  1  0  0  0
 76 80  1  0  0  0
 76147  1  0  0  0
 76148  1  0  0  0
 77 78  1  0  0  0
 77149  1  0  0  0
 77150  1  0  0  0
 78 79  1  0  0  0
 78151  1  0  0  0
 78152  1  0  0  0
 79 83  1  0  0  0
 79153  1  0  0  0
 79154  1  0  0  0
 80155  1  0  0  0
 80156  1  0  0  0
 83157  1  0  0  0
M  ISO  4   1 100  68 101  80 101  83 100
M  END
> <chiral flag>
0

> <version>
0

> <s_m_source_file>
/data/baiqing/PycharmProjects/Reinvent-master-3.2/result/LINK_invent/BTK/process_docking_weight1_custom_sum_contain_oxygen_bond_distance_aromatic_linkinvent_7_9_3/rearranged_h_0042.sdf

> <i_m_source_file_index>
40

> <r_mmod_Potential_Energy-OPLS-2005>
-40.1105194091797

> <r_mmod_Stretch_Energy-OPLS-2005>
34.0649566650391

> <r_mmod_Bend_Energy-OPLS-2005>
94.9856719970703

> <r_mmod_Torsional_Energy-OPLS-2005>
216.231033325195

> <r_mmod_Improper_Torsional_Energy-OPLS-2005>
11.0535612106323

> <r_mmod_Van_der_Waal_Energy-OPLS-2005>
161.027542114258

> <r_mmod_Electrostatic_Energy-OPLS-2005>
-337.442108154297

> <r_mmod_Solvation_Energy-OPLS-2005>
-231.392105102539

> <b_mmod_Minimization_Converged-OPLS-2005>
0

> <r_mmod_RMS_Derivative-OPLS-2005>
1.5203640460968

$$$$
41
                    3D
 Structure written by MMmdl.
177185  0  0  1  0            999 V2000
  -30.6865  -14.4075   20.7145 C   0  0  0  0  0  0
  -30.4422  -12.3301   19.3856 C   0  0  0  0  0  0
  -29.4923  -12.5541   18.1850 C   0  0  0  0  0  0
  -28.0098  -12.3929   18.5861 C   0  0  0  0  0  0
  -27.6689  -13.1729   19.8817 C   0  0  2  0  0  0
  -28.7053  -12.7871   20.9553 C   0  0  0  0  0  0
  -25.2631  -13.8077   20.5581 C   0  0  0  0  0  0
  -24.1837  -13.0418   20.9103 C   0  0  0  0  0  0
  -24.6337  -11.6862   20.8669 C   0  0  0  0  0  0
  -23.8990  -10.4272   21.0361 C   0  0  0  0  0  0
  -24.3533   -9.4241   21.9203 C   0  0  0  0  0  0
  -23.6216   -8.2277   22.0796 C   0  0  0  0  0  0
  -22.4256   -8.0254   21.3507 C   0  0  0  0  0  0
  -21.9905   -9.0182   20.4549 C   0  0  0  0  0  0
  -22.7218  -10.2066   20.2947 C   0  0  0  0  0  0
  -21.6842   -6.0720   22.5246 C   0  0  0  0  0  0
  -21.3999   -6.5627   23.8173 C   0  0  0  0  0  0
  -21.3650   -5.6787   24.9140 C   0  0  0  0  0  0
  -21.6062   -4.3055   24.7186 C   0  0  0  0  0  0
  -21.8830   -3.8133   23.4310 C   0  0  0  0  0  0
  -21.9191   -4.6948   22.3368 C   0  0  0  0  0  0
  -22.7890  -13.5248   21.1777 C   0  0  0  0  0  0
  -22.1659   -4.2155   21.0935 F   0  0  0  0  0  0
  -21.5633   -3.4529   25.7693 F   0  0  0  0  0  0
  -30.0281  -13.2287   20.4829 N   0  0  0  0  0  0
  -26.3028  -12.9179   20.3339 N   0  0  0  0  0  0
  -25.9250  -11.6376   20.5729 N   0  0  0  0  0  0
  -22.0461  -12.8166   22.0218 N   0  0  0  0  0  0
  -25.4385  -15.1780   20.3910 N   0  0  0  0  0  0
  -31.7373  -14.6820   20.1237 O   0  0  0  0  0  0
  -21.6617   -6.8853   21.4214 O   0  0  0  0  0  0
  -22.3633  -14.5629   20.6716 O   0  0  0  0  0  0
  -24.6100  -31.8713   23.2142 C   0  0  0  0  0  0
  -25.9030  -32.4824   23.8413 C   0  0  1  0  0  0
  -27.2387  -27.4792   20.0805 C   0  0  0  0  0  0
  -25.5942  -33.8622   24.2370 N   0  0  0  0  0  0
  -23.3954  -30.4988   21.5529 C   0  0  2  0  0  0
  -24.8412  -28.9650   20.1263 C   0  0  0  0  0  0
  -22.7378  -29.4683   22.4987 C   0  0  0  0  0  0
  -18.0283  -28.1360   22.8494 C   0  0  0  0  0  0
  -24.1496  -36.7286   23.2631 C   0  0  0  0  0  0
  -25.9198  -30.8523   21.3596 C   0  0  0  0  0  0
  -26.0001  -29.4881   20.7114 C   0  0  0  0  0  0
  -27.2027  -28.7527   20.6862 C   0  0  0  0  0  0
  -26.0595  -26.9567   19.5011 C   0  0  0  0  0  0
  -24.8601  -27.6961   19.5260 C   0  0  0  0  0  0
  -23.6028  -29.8313   20.1684 C   0  0  0  0  0  0
  -25.4107  -36.3077   24.0333 C   0  0  1  0  0  0
  -20.5866  -28.3657   23.1310 C   0  0  2  0  0  0
  -20.6765  -26.9395   22.5412 C   0  0  0  0  0  0
  -19.5754  -26.6380   21.5195 C   0  0  0  0  0  0
  -18.1924  -26.7922   22.1604 C   0  0  0  0  0  0
  -19.1528  -28.8821   23.2919 C   0  0  0  0  0  0
  -18.9461  -30.1425   23.8949 C   0  0  0  0  0  0
  -17.6460  -30.6577   24.0553 C   0  0  0  0  0  0
  -25.9037  -34.9450   23.5137 C   0  0  0  0  0  0
  -16.5350  -29.9081   23.6312 C   0  0  0  0  0  0
  -16.7270  -28.6486   23.0352 C   0  0  0  0  0  0
  -26.4504  -31.6569   25.0691 C   0  0  0  0  0  0
  -25.3817  -31.3662   26.1476 C   0  0  0  0  0  0
  -27.0317  -30.3023   24.5980 C   0  0  0  0  0  0
  -27.6101  -32.4278   25.7450 C   0  0  0  0  0  0
  -27.5582  -37.1780   24.8463 C   0  0  0  0  0  0
  -21.4111  -29.3029   22.3718 N   0  0  0  0  0  0
  -26.4302  -37.3752   23.9401 N   0  0  0  0  0  0
  -24.6592  -31.0870   22.1018 N   0  0  0  0  0  0
  -23.4159  -28.8196   23.3003 O   0  0  0  0  0  0
  -28.4505  -26.8292   20.0315 O   0  0  0  0  0  0
  -26.5556  -34.8886   22.4665 O   0  0  0  0  0  0
  -23.5312  -32.1474   23.7558 O   0  0  0  0  0  0
  -28.3690  -21.4865   21.7534 C   0  0  0  0  0  0
  -27.0599  -21.7529   22.1160 C   0  0  0  0  0  0
  -28.1856  -23.6280   21.9015 C   0  0  0  0  0  0
  -29.0653  -20.1993   21.4327 C   0  0  0  0  0  0
  -27.3641  -17.6580   25.8201 C   0  0  0  0  0  0
  -25.1291  -17.5213   24.7352 C   0  0  0  0  0  0
  -25.7862  -23.9484   22.5124 C   0  0  0  0  0  0
  -25.8520  -20.8629   22.3090 C   0  0  0  0  0  0
  -28.4661  -25.0808   21.7132 C   0  0  0  0  0  0
  -28.6155  -16.7477   23.0101 C   0  0  0  0  0  0
  -27.1415  -16.7039   23.4913 C   0  0  0  0  0  0
  -28.9483  -15.3983   22.3541 C   0  0  0  0  0  0
  -26.8105  -19.2365   23.9437 C   0  0  0  0  0  0
  -28.4623  -25.4204   20.2157 C   0  0  0  0  0  0
  -26.6299  -17.7918   24.4728 C   0  0  0  0  0  0
  -29.0762  -22.6765   21.6570 N   0  0  0  0  0  0
  -26.9656  -23.1478   22.2037 N   0  0  0  0  0  0
  -30.2158  -15.3058   21.6170 N   0  0  0  0  0  0
  -26.1198  -19.4552   22.6563 N   0  3  0  0  0  0
  -31.4799  -12.4814   19.0799 H   0  0  0  0  0  0
  -30.3953  -11.2906   19.7129 H   0  0  0  0  0  0
  -29.7356  -11.8653   17.3758 H   0  0  0  0  0  0
  -29.6481  -13.5585   17.7916 H   0  0  0  0  0  0
  -27.8133  -11.3296   18.7378 H   0  0  0  0  0  0
  -27.3614  -12.7083   17.7686 H   0  0  0  0  0  0
  -27.7574  -14.2368   19.6645 H   0  0  0  0  0  0
  -28.7028  -11.6992   21.0532 H   0  0  0  0  0  0
  -28.4255  -13.0699   21.9574 H   0  0  0  0  0  0
  -25.2633   -9.5808   22.4827 H   0  0  0  0  0  0
  -23.9872   -7.4776   22.7658 H   0  0  0  0  0  0
  -21.0849   -8.8661   19.8823 H   0  0  0  0  0  0
  -22.3694  -10.9554   19.5984 H   0  0  0  0  0  0
  -21.1967   -7.6135   23.9657 H   0  0  0  0  0  0
  -21.1463   -6.0516   25.9048 H   0  0  0  0  0  0
  -22.0607   -2.7592   23.2798 H   0  0  0  0  0  0
  -22.4018  -11.9742   22.4478 H   0  0  0  0  0  0
  -21.1063  -13.1199   22.2329 H   0  0  0  0  0  0
  -24.6415  -15.8051   20.3975 H   0  0  0  0  0  0
  -26.2612  -15.5830   19.9624 H   0  0  0  0  0  0
  -26.7075  -32.5569   23.1157 H   0  0  0  0  0  0
  -25.0202  -33.9788   25.0597 H   0  0  0  0  0  0
  -22.6851  -31.3164   21.4144 H   0  0  0  0  0  0
  -23.3744  -35.9644   23.3303 H   0  0  0  0  0  0
  -24.3612  -36.8890   22.2049 H   0  0  0  0  0  0
  -23.7267  -37.6497   23.6641 H   0  0  0  0  0  0
  -26.0194  -31.6178   20.5892 H   0  0  0  0  0  0
  -26.8143  -30.9128   21.9674 H   0  0  0  0  0  0
  -28.1059  -29.1605   21.1191 H   0  0  0  0  0  0
  -26.0444  -26.0057   18.9905 H   0  0  0  0  0  0
  -23.9682  -27.2885   19.0718 H   0  0  0  0  0  0
  -23.7107  -30.6065   19.4088 H   0  0  0  0  0  0
  -22.7287  -29.2478   19.8733 H   0  0  0  0  0  0
  -25.1265  -36.1939   25.0823 H   0  0  0  0  0  0
  -20.9998  -28.3238   24.1411 H   0  0  0  0  0  0
  -20.5637  -26.2270   23.3596 H   0  0  0  0  0  0
  -21.6640  -26.7418   22.1224 H   0  0  0  0  0  0
  -19.6922  -25.6288   21.1228 H   0  0  0  0  0  0
  -19.6702  -27.3205   20.6739 H   0  0  0  0  0  0
  -17.4189  -26.6689   21.3992 H   0  0  0  0  0  0
  -18.0327  -26.0042   22.8992 H   0  0  0  0  0  0
  -19.7933  -30.7216   24.2359 H   0  0  0  0  0  0
  -17.5013  -31.6267   24.5120 H   0  0  0  0  0  0
  -15.5355  -30.2987   23.7596 H   0  0  0  0  0  0
  -15.8675  -28.0798   22.7061 H   0  0  0  0  0  0
  -24.5985  -30.6994   25.7839 H   0  0  0  0  0  0
  -24.9004  -32.2817   26.4927 H   0  0  0  0  0  0
  -25.8219  -30.8847   27.0221 H   0  0  0  0  0  0
  -26.2816  -29.6767   24.1116 H   0  0  0  0  0  0
  -27.4239  -29.7232   25.4350 H   0  0  0  0  0  0
  -27.8583  -30.4352   23.8994 H   0  0  0  0  0  0
  -27.2739  -33.3570   26.2074 H   0  0  0  0  0  0
  -28.3913  -32.6872   25.0283 H   0  0  0  0  0  0
  -28.0780  -31.8367   26.5337 H   0  0  0  0  0  0
  -28.2569  -38.0092   24.7497 H   0  0  0  0  0  0
  -28.1096  -36.2616   24.6300 H   0  0  0  0  0  0
  -27.2305  -37.1464   25.8868 H   0  0  0  0  0  0
  -20.9248  -29.8758   21.6962 H   0  0  0  0  0  0
  -26.0172  -38.2813   24.1449 H   0  0  0  0  0  0
  -29.4943  -19.7500   22.3276 H   0  0  0  0  0  0
  -29.8936  -20.3596   20.7443 H   0  0  0  0  0  0
  -28.4007  -19.4799   20.9565 H   0  0  0  0  0  0
  -27.3184  -16.6366   26.1978 H   0  0  0  0  0  0
  -26.9188  -18.3003   26.5806 H   0  0  0  0  0  0
  -28.4159  -17.9336   25.7451 H   0  0  0  0  0  0
  -24.9785  -16.5379   25.1857 H   0  0  0  0  0  0
  -24.5347  -17.5396   23.8198 H   0  0  0  0  0  0
  -24.6964  -18.2555   25.4177 H   0  0  0  0  0  0
  -24.8755  -23.3544   22.5083 H   0  0  0  0  0  0
  -25.6652  -24.7391   21.7704 H   0  0  0  0  0  0
  -25.8976  -24.4010   23.4979 H   0  0  0  0  0  0
  -25.2557  -20.8814   21.3975 H   0  0  0  0  0  0
  -25.2109  -21.2663   23.0918 H   0  0  0  0  0  0
  -29.4305  -25.3280   22.1553 H   0  0  0  0  0  0
  -27.7341  -25.6822   22.2517 H   0  0  0  0  0  0
  -29.3009  -16.9321   23.8374 H   0  0  0  0  0  0
  -28.7546  -17.5586   22.2996 H   0  0  0  0  0  0
  -26.9693  -15.7378   23.9684 H   0  0  0  0  0  0
  -26.5000  -16.6777   22.6098 H   0  0  0  0  0  0
  -28.1253  -15.1881   21.6773 H   0  0  0  0  0  0
  -28.9605  -14.6580   23.1544 H   0  0  0  0  0  0
  -27.8676  -19.4753   23.8457 H   0  0  0  0  0  0
  -26.4222  -19.9401   24.6830 H   0  0  0  0  0  0
  -27.6425  -24.9108   19.7126 H   0  0  0  0  0  0
  -29.3642  -25.0222   19.7500 H   0  0  0  0  0  0
  -30.8271  -16.1026   21.7212 H   0  0  0  0  0  0
  -26.6214  -19.0125   21.9065 H   0  0  0  0  0  0
  -25.2215  -19.0023   22.7199 H   0  0  0  0  0  0
  1 25  1  0  0  0
  1 30  2  0  0  0
  1 88  1  0  0  0
  2  3  1  0  0  0
  2 25  1  0  0  0
  2 90  1  0  0  0
  2 91  1  0  0  0
  3  4  1  0  0  0
  3 92  1  0  0  0
  3 93  1  0  0  0
  4  5  1  0  0  0
  4 94  1  0  0  0
  4 95  1  0  0  0
  5  6  1  0  0  0
  5 26  1  0  0  0
  5 96  1  0  0  0
  6 25  1  0  0  0
  6 97  1  0  0  0
  6 98  1  0  0  0
  7  8  2  0  0  0
  7 26  1  0  0  0
  7 29  1  0  0  0
  8  9  1  0  0  0
  8 22  1  0  0  0
  9 10  1  0  0  0
  9 27  2  0  0  0
 10 11  2  0  0  0
 10 15  1  0  0  0
 11 12  1  0  0  0
 11 99  1  0  0  0
 12 13  2  0  0  0
 12100  1  0  0  0
 13 14  1  0  0  0
 13 31  1  0  0  0
 14 15  2  0  0  0
 14101  1  0  0  0
 15102  1  0  0  0
 16 17  2  0  0  0
 16 21  1  0  0  0
 16 31  1  0  0  0
 17 18  1  0  0  0
 17103  1  0  0  0
 18 19  2  0  0  0
 18104  1  0  0  0
 19 20  1  0  0  0
 19 24  1  0  0  0
 20 21  2  0  0  0
 20105  1  0  0  0
 21 23  1  0  0  0
 22 28  1  0  0  0
 22 32  2  0  0  0
 26 27  1  0  0  0
 28106  1  0  0  0
 28107  1  0  0  0
 29108  1  0  0  0
 29109  1  0  0  0
 33 34  1  0  0  0
 33 66  1  0  0  0
 33 70  2  0  0  0
 34 36  1  0  0  0
 34 59  1  0  0  0
 34110  1  0  0  0
 35 44  2  0  0  0
 35 45  1  0  0  0
 35 68  1  0  0  0
 36 56  1  0  0  0
 36111  1  0  0  0
 37 39  1  0  0  0
 37 47  1  0  0  0
 37 66  1  0  0  0
 37112  1  0  0  0
 38 43  2  0  0  0
 38 46  1  0  0  0
 38 47  1  0  0  0
 39 64  1  0  0  0
 39 67  2  0  0  0
 40 52  1  0  0  0
 40 53  2  0  0  0
 40 58  1  0  0  0
 41113  1  0  0  0
 41114  1  0  0  0
 41115  1  0  0  0
 41 48  1  0  0  0
 42 43  1  0  0  0
 42 66  1  0  0  0
 42116  1  0  0  0
 42117  1  0  0  0
 43 44  1  0  0  0
 44118  1  0  0  0
 45 46  2  0  0  0
 45119  1  0  0  0
 46120  1  0  0  0
 47121  1  0  0  0
 47122  1  0  0  0
 48 56  1  0  0  0
 48 65  1  0  0  0
 48123  1  0  0  0
 49 50  1  0  0  0
 49 53  1  0  0  0
 49 64  1  0  0  0
 49124  1  0  0  0
 50 51  1  0  0  0
 50125  1  0  0  0
 50126  1  0  0  0
 51 52  1  0  0  0
 51127  1  0  0  0
 51128  1  0  0  0
 52129  1  0  0  0
 52130  1  0  0  0
 53 54  1  0  0  0
 54 55  2  0  0  0
 54131  1  0  0  0
 55 57  1  0  0  0
 55132  1  0  0  0
 56 69  2  0  0  0
 57 58  2  0  0  0
 57133  1  0  0  0
 58134  1  0  0  0
 59 60  1  0  0  0
 59 61  1  0  0  0
 59 62  1  0  0  0
 60135  1  0  0  0
 60136  1  0  0  0
 60137  1  0  0  0
 61138  1  0  0  0
 61139  1  0  0  0
 61140  1  0  0  0
 62141  1  0  0  0
 62142  1  0  0  0
 62143  1  0  0  0
 63 65  1  0  0  0
 63144  1  0  0  0
 63145  1  0  0  0
 63146  1  0  0  0
 64147  1  0  0  0
 65148  1  0  0  0
 68 84  1  0  0  0
 71 72  2  0  0  0
 71 74  1  0  0  0
 71 86  1  0  0  0
 72 78  1  0  0  0
 72 87  1  0  0  0
 73 79  1  0  0  0
 73 86  2  0  0  0
 73 87  1  0  0  0
 74149  1  0  0  0
 74150  1  0  0  0
 74151  1  0  0  0
 75152  1  0  0  0
 75153  1  0  0  0
 75154  1  0  0  0
 75 85  1  0  0  0
 76 85  1  0  0  0
 76155  1  0  0  0
 76156  1  0  0  0
 76157  1  0  0  0
 77 87  1  0  0  0
 77158  1  0  0  0
 77159  1  0  0  0
 77160  1  0  0  0
 78 89  1  0  0  0
 78161  1  0  0  0
 78162  1  0  0  0
 79 84  1  0  0  0
 79163  1  0  0  0
 79164  1  0  0  0
 80 81  1  0  0  0
 80 82  1  0  0  0
 80165  1  0  0  0
 80166  1  0  0  0
 81 85  1  0  0  0
 81167  1  0  0  0
 81168  1  0  0  0
 82 88  1  0  0  0
 82169  1  0  0  0
 82170  1  0  0  0
 83 85  1  0  0  0
 83 89  1  0  0  0
 83171  1  0  0  0
 83172  1  0  0  0
 84173  1  0  0  0
 84174  1  0  0  0
 88175  1  0  0  0
 89176  1  0  0  0
 89177  1  0  0  0
M  CHG  1  89   1
M  ISO  4   1 100  68 101  84 101  88 100
M  END
> <chiral flag>
0

> <version>
0

> <s_m_source_file>
/data/baiqing/PycharmProjects/Reinvent-master-3.2/result/LINK_invent/BTK/process_docking_weight1_custom_sum_contain_oxygen_bond_distance_aromatic_linkinvent_7_9_3/rearranged_h_0042.sdf

> <i_m_source_file_index>
41

> <r_mmod_Potential_Energy-OPLS-2005>
-208.416687011719

> <r_mmod_Stretch_Energy-OPLS-2005>
36.8526878356934

> <r_mmod_Bend_Energy-OPLS-2005>
152.717102050781

> <r_mmod_Torsional_Energy-OPLS-2005>
259.293518066406

> <r_mmod_Improper_Torsional_Energy-OPLS-2005>
3.71909856796265

> <r_mmod_Van_der_Waal_Energy-OPLS-2005>
138.922943115234

> <r_mmod_Electrostatic_Energy-OPLS-2005>
-343.670501708984

> <r_mmod_Solvation_Energy-OPLS-2005>
-469.488830566406

> <b_mmod_Minimization_Converged-OPLS-2005>
0

> <r_mmod_RMS_Derivative-OPLS-2005>
4.08805513381958

$$$$
42
                    3D
 Structure written by MMmdl.
158166  0  0  1  0            999 V2000
  -30.6954  -14.4947   20.4012 C   0  0  0  0  0  0
  -30.4236  -12.2766   19.4242 C   0  0  0  0  0  0
  -29.4874  -12.4436   18.2039 C   0  0  0  0  0  0
  -28.0068  -12.3283   18.6268 C   0  0  0  0  0  0
  -27.6569  -13.2020   19.8614 C   0  0  2  0  0  0
  -28.7108  -13.0676   20.9821 C   0  0  0  0  0  0
  -25.2662  -13.8067   20.5738 C   0  0  0  0  0  0
  -24.1879  -13.0387   20.9323 C   0  0  0  0  0  0
  -24.6403  -11.6881   20.8822 C   0  0  0  0  0  0
  -23.8989  -10.4261   21.0458 C   0  0  0  0  0  0
  -24.3513   -9.4213   21.9301 C   0  0  0  0  0  0
  -23.6222   -8.2243   22.0822 C   0  0  0  0  0  0
  -22.4201   -8.0308   21.3621 C   0  0  0  0  0  0
  -21.9778   -9.0277   20.4790 C   0  0  0  0  0  0
  -22.7126  -10.2163   20.3156 C   0  0  0  0  0  0
  -21.6808   -6.0758   22.5286 C   0  0  0  0  0  0
  -21.3989   -6.5672   23.8237 C   0  0  0  0  0  0
  -21.3599   -5.6846   24.9192 C   0  0  0  0  0  0
  -21.5976   -4.3065   24.7289 C   0  0  0  0  0  0
  -21.8774   -3.8191   23.4411 C   0  0  0  0  0  0
  -21.9196   -4.7016   22.3463 C   0  0  0  0  0  0
  -22.7905  -13.5217   21.1946 C   0  0  0  0  0  0
  -22.1608   -4.2185   21.1054 F   0  0  0  0  0  0
  -21.5655   -3.4537   25.7778 F   0  0  0  0  0  0
  -30.0296  -13.3119   20.3831 N   0  0  0  0  0  0
  -26.3070  -12.9259   20.3473 N   0  0  0  0  0  0
  -25.9390  -11.6412   20.6086 N   0  0  0  0  0  0
  -22.0458  -12.8168   22.0469 N   0  0  0  0  0  0
  -25.4347  -15.1798   20.4043 N   0  0  0  0  0  0
  -31.9056  -14.5963   20.1999 O   0  0  0  0  0  0
  -21.6599   -6.8900   21.4248 O   0  0  0  0  0  0
  -22.3740  -14.5602   20.6918 O   0  0  0  0  0  0
  -24.6164  -31.8714   23.2203 C   0  0  0  0  0  0
  -25.9051  -32.4855   23.8489 C   0  0  1  0  0  0
  -27.2351  -27.4298   20.0626 C   0  0  0  0  0  0
  -25.5889  -33.8656   24.2393 N   0  0  0  0  0  0
  -23.4046  -30.5068   21.5648 C   0  0  2  0  0  0
  -24.8449  -28.9946   20.1250 C   0  0  0  0  0  0
  -22.7446  -29.4664   22.5016 C   0  0  0  0  0  0
  -18.0276  -28.1362   22.8508 C   0  0  0  0  0  0
  -24.1476  -36.7290   23.2647 C   0  0  0  0  0  0
  -25.9474  -30.8222   21.3908 C   0  0  0  0  0  0
  -26.0189  -29.4637   20.7303 C   0  0  0  0  0  0
  -27.2098  -28.6888   20.7129 C   0  0  0  0  0  0
  -26.0355  -27.0257   19.4159 C   0  0  0  0  0  0
  -24.8478  -27.7598   19.4756 C   0  0  0  0  0  0
  -23.6114  -29.8616   20.1786 C   0  0  0  0  0  0
  -25.4091  -36.3114   24.0356 C   0  0  1  0  0  0
  -20.5866  -28.3617   23.1343 C   0  0  2  0  0  0
  -20.6748  -26.9352   22.5412 C   0  0  0  0  0  0
  -19.5708  -26.6364   21.5226 C   0  0  0  0  0  0
  -18.1905  -26.7905   22.1660 C   0  0  0  0  0  0
  -19.1531  -28.8807   23.2917 C   0  0  0  0  0  0
  -18.9460  -30.1426   23.8900 C   0  0  0  0  0  0
  -17.6455  -30.6569   24.0553 C   0  0  0  0  0  0
  -25.9024  -34.9479   23.5173 C   0  0  0  0  0  0
  -16.5337  -29.9061   23.6331 C   0  0  0  0  0  0
  -16.7260  -28.6474   23.0365 C   0  0  0  0  0  0
  -26.4466  -31.6618   25.0804 C   0  0  0  0  0  0
  -25.3758  -31.3686   26.1567 C   0  0  0  0  0  0
  -27.0300  -30.3063   24.6195 C   0  0  0  0  0  0
  -27.6043  -32.4344   25.7545 C   0  0  0  0  0  0
  -27.5573  -37.1799   24.8473 C   0  0  0  0  0  0
  -21.4182  -29.3004   22.3750 N   0  0  0  0  0  0
  -26.4280  -37.3789   23.9433 N   0  0  0  0  0  0
  -24.6747  -31.0810   22.1128 N   0  0  0  0  0  0
  -23.4190  -28.8158   23.3036 O   0  0  0  0  0  0
  -28.3772  -26.6161   20.0646 O   0  0  0  0  0  0
  -26.5580  -34.8910   22.4746 O   0  0  0  0  0  0
  -23.5348  -32.1475   23.7557 O   0  0  0  0  0  0
  -28.3273  -22.8320   18.9989 C   0  0  0  0  0  0
  -26.9485  -22.7738   18.5725 C   0  0  0  0  0  0
  -28.9296  -21.7489   18.3806 C   0  0  0  0  0  0
  -25.7159  -23.2097   19.3108 C   0  0  0  0  0  0
  -28.9692  -23.9827   19.8033 C   0  0  0  0  0  0
  -28.6715  -20.2856   18.7125 C   0  0  0  0  0  0
  -29.8337  -19.3714   19.1578 C   0  0  0  0  0  0
  -29.3167  -17.9399   19.4925 C   0  0  0  0  0  0
  -30.4134  -16.9101   19.8600 C   0  0  0  0  0  0
  -28.1031  -25.2596   19.6338 C   0  0  0  0  0  0
  -26.8283  -22.3815   17.3199 N   0  0  0  0  0  0
  -29.9124  -15.5875   20.2943 N   0  0  0  0  0  0
  -28.3817  -22.0461   16.7691 S   0  0  0  0  0  0
  -31.4657  -12.3674   19.1084 H   0  0  0  0  0  0
  -30.3227  -11.2783   19.8589 H   0  0  0  0  0  0
  -29.7102  -11.6835   17.4578 H   0  0  0  0  0  0
  -29.6553  -13.4125   17.7223 H   0  0  0  0  0  0
  -27.8096  -11.2869   18.8785 H   0  0  0  0  0  0
  -27.3570  -12.5882   17.7905 H   0  0  0  0  0  0
  -27.6610  -14.2403   19.5225 H   0  0  0  0  0  0
  -28.6724  -12.0742   21.4297 H   0  0  0  0  0  0
  -28.5122  -13.7721   21.7883 H   0  0  0  0  0  0
  -25.2653   -9.5673   22.4925 H   0  0  0  0  0  0
  -24.0007   -7.4488   22.7377 H   0  0  0  0  0  0
  -21.0784   -8.8677   19.9014 H   0  0  0  0  0  0
  -22.3608  -10.9663   19.6220 H   0  0  0  0  0  0
  -21.1849   -7.6162   23.9766 H   0  0  0  0  0  0
  -21.1485   -6.0564   25.9108 H   0  0  0  0  0  0
  -22.0648   -2.7697   23.2855 H   0  0  0  0  0  0
  -22.4026  -11.9734   22.4693 H   0  0  0  0  0  0
  -21.1160  -13.1201   22.2912 H   0  0  0  0  0  0
  -24.6764  -15.8335   20.5509 H   0  0  0  0  0  0
  -26.2984  -15.6201   20.1145 H   0  0  0  0  0  0
  -26.7089  -32.5529   23.1215 H   0  0  0  0  0  0
  -25.0032  -33.9826   25.0524 H   0  0  0  0  0  0
  -22.6927  -31.3258   21.4398 H   0  0  0  0  0  0
  -23.3748  -35.9623   23.3361 H   0  0  0  0  0  0
  -24.3566  -36.8849   22.2055 H   0  0  0  0  0  0
  -23.7211  -37.6507   23.6620 H   0  0  0  0  0  0
  -26.0770  -31.5927   20.6273 H   0  0  0  0  0  0
  -26.8308  -30.8586   22.0201 H   0  0  0  0  0  0
  -28.1036  -29.0484   21.2027 H   0  0  0  0  0  0
  -25.9673  -26.1442   18.8052 H   0  0  0  0  0  0
  -23.9577  -27.3922   18.9819 H   0  0  0  0  0  0
  -23.7181  -30.6450   19.4294 H   0  0  0  0  0  0
  -22.7310  -29.2915   19.8759 H   0  0  0  0  0  0
  -25.1269  -36.2017   25.0847 H   0  0  0  0  0  0
  -20.9962  -28.3149   24.1465 H   0  0  0  0  0  0
  -20.5683  -26.2206   23.3588 H   0  0  0  0  0  0
  -21.6633  -26.7398   22.1198 H   0  0  0  0  0  0
  -19.6870  -25.6292   21.1225 H   0  0  0  0  0  0
  -19.6669  -27.3214   20.6794 H   0  0  0  0  0  0
  -17.4179  -26.6662   21.4055 H   0  0  0  0  0  0
  -18.0293  -26.0040   22.9053 H   0  0  0  0  0  0
  -19.7927  -30.7259   24.2267 H   0  0  0  0  0  0
  -17.4997  -31.6278   24.5133 H   0  0  0  0  0  0
  -15.5330  -30.2971   23.7652 H   0  0  0  0  0  0
  -15.8658  -28.0800   22.7080 H   0  0  0  0  0  0
  -24.5896  -30.7072   25.7897 H   0  0  0  0  0  0
  -24.8979  -32.2823   26.5122 H   0  0  0  0  0  0
  -25.8135  -30.8768   27.0274 H   0  0  0  0  0  0
  -26.2854  -29.6845   24.1208 H   0  0  0  0  0  0
  -27.4009  -29.7269   25.4669 H   0  0  0  0  0  0
  -27.8725  -30.4381   23.9404 H   0  0  0  0  0  0
  -27.2639  -33.3579   26.2254 H   0  0  0  0  0  0
  -28.3765  -32.7043   25.0317 H   0  0  0  0  0  0
  -28.0834  -31.8420   26.5358 H   0  0  0  0  0  0
  -28.2611  -38.0077   24.7520 H   0  0  0  0  0  0
  -28.1054  -36.2618   24.6315 H   0  0  0  0  0  0
  -27.2295  -37.1455   25.8873 H   0  0  0  0  0  0
  -20.9303  -29.8723   21.6995 H   0  0  0  0  0  0
  -26.0190  -38.2880   24.1463 H   0  0  0  0  0  0
  -25.8843  -23.1951   20.3868 H   0  0  0  0  0  0
  -24.8665  -22.5627   19.1082 H   0  0  0  0  0  0
  -25.4030  -24.2087   19.0357 H   0  0  0  0  0  0
  -29.9826  -24.1699   19.4504 H   0  0  0  0  0  0
  -29.0621  -23.7289   20.8576 H   0  0  0  0  0  0
  -28.2268  -19.7863   17.8428 H   0  0  0  0  0  0
  -27.8851  -20.2464   19.4652 H   0  0  0  0  0  0
  -30.3053  -19.8044   20.0385 H   0  0  0  0  0  0
  -30.5851  -19.3273   18.3706 H   0  0  0  0  0  0
  -28.7329  -17.5600   18.6530 H   0  0  0  0  0  0
  -28.6109  -18.0184   20.3163 H   0  0  0  0  0  0
  -31.0464  -17.3098   20.6572 H   0  0  0  0  0  0
  -31.0552  -16.7751   18.9870 H   0  0  0  0  0  0
  -27.2360  -24.9874   20.2331 H   0  0  0  0  0  0
  -27.8416  -25.3274   18.5743 H   0  0  0  0  0  0
  -28.9173  -15.4278   20.3035 H   0  0  0  0  0  0
  1 25  1  0  0  0
  1 30  2  0  0  0
  1 82  1  0  0  0
  2  3  1  0  0  0
  2 25  1  0  0  0
  2 84  1  0  0  0
  2 85  1  0  0  0
  3  4  1  0  0  0
  3 86  1  0  0  0
  3 87  1  0  0  0
  4  5  1  0  0  0
  4 88  1  0  0  0
  4 89  1  0  0  0
  5  6  1  0  0  0
  5 26  1  0  0  0
  5 90  1  0  0  0
  6 25  1  0  0  0
  6 91  1  0  0  0
  6 92  1  0  0  0
  7  8  2  0  0  0
  7 26  1  0  0  0
  7 29  1  0  0  0
  8  9  1  0  0  0
  8 22  1  0  0  0
  9 10  1  0  0  0
  9 27  2  0  0  0
 10 11  2  0  0  0
 10 15  1  0  0  0
 11 12  1  0  0  0
 11 93  1  0  0  0
 12 13  2  0  0  0
 12 94  1  0  0  0
 13 14  1  0  0  0
 13 31  1  0  0  0
 14 15  2  0  0  0
 14 95  1  0  0  0
 15 96  1  0  0  0
 16 17  2  0  0  0
 16 21  1  0  0  0
 16 31  1  0  0  0
 17 18  1  0  0  0
 17 97  1  0  0  0
 18 19  2  0  0  0
 18 98  1  0  0  0
 19 20  1  0  0  0
 19 24  1  0  0  0
 20 21  2  0  0  0
 20 99  1  0  0  0
 21 23  1  0  0  0
 22 28  1  0  0  0
 22 32  2  0  0  0
 26 27  1  0  0  0
 28100  1  0  0  0
 28101  1  0  0  0
 29102  1  0  0  0
 29103  1  0  0  0
 33 34  1  0  0  0
 33 66  1  0  0  0
 33 70  2  0  0  0
 34 36  1  0  0  0
 34 59  1  0  0  0
 34104  1  0  0  0
 35 44  2  0  0  0
 35 45  1  0  0  0
 35 68  1  0  0  0
 36 56  1  0  0  0
 36105  1  0  0  0
 37 39  1  0  0  0
 37 47  1  0  0  0
 37 66  1  0  0  0
 37106  1  0  0  0
 38 43  2  0  0  0
 38 46  1  0  0  0
 38 47  1  0  0  0
 39 64  1  0  0  0
 39 67  2  0  0  0
 40 52  1  0  0  0
 40 53  2  0  0  0
 40 58  1  0  0  0
 41107  1  0  0  0
 41108  1  0  0  0
 41109  1  0  0  0
 41 48  1  0  0  0
 42 43  1  0  0  0
 42 66  1  0  0  0
 42110  1  0  0  0
 42111  1  0  0  0
 43 44  1  0  0  0
 44112  1  0  0  0
 45 46  2  0  0  0
 45113  1  0  0  0
 46114  1  0  0  0
 47115  1  0  0  0
 47116  1  0  0  0
 48 56  1  0  0  0
 48 65  1  0  0  0
 48117  1  0  0  0
 49 50  1  0  0  0
 49 53  1  0  0  0
 49 64  1  0  0  0
 49118  1  0  0  0
 50 51  1  0  0  0
 50119  1  0  0  0
 50120  1  0  0  0
 51 52  1  0  0  0
 51121  1  0  0  0
 51122  1  0  0  0
 52123  1  0  0  0
 52124  1  0  0  0
 53 54  1  0  0  0
 54 55  2  0  0  0
 54125  1  0  0  0
 55 57  1  0  0  0
 55126  1  0  0  0
 56 69  2  0  0  0
 57 58  2  0  0  0
 57127  1  0  0  0
 58128  1  0  0  0
 59 60  1  0  0  0
 59 61  1  0  0  0
 59 62  1  0  0  0
 60129  1  0  0  0
 60130  1  0  0  0
 60131  1  0  0  0
 61132  1  0  0  0
 61133  1  0  0  0
 61134  1  0  0  0
 62135  1  0  0  0
 62136  1  0  0  0
 62137  1  0  0  0
 63 65  1  0  0  0
 63138  1  0  0  0
 63139  1  0  0  0
 63140  1  0  0  0
 64141  1  0  0  0
 65142  1  0  0  0
 68 80  1  0  0  0
 71 72  1  0  0  0
 71 73  2  0  0  0
 71 75  1  0  0  0
 72 74  1  0  0  0
 72 81  2  0  0  0
 73 76  1  0  0  0
 73 83  1  0  0  0
 74143  1  0  0  0
 74144  1  0  0  0
 74145  1  0  0  0
 75 80  1  0  0  0
 75146  1  0  0  0
 75147  1  0  0  0
 76 77  1  0  0  0
 76148  1  0  0  0
 76149  1  0  0  0
 77 78  1  0  0  0
 77150  1  0  0  0
 77151  1  0  0  0
 78 79  1  0  0  0
 78152  1  0  0  0
 78153  1  0  0  0
 79 82  1  0  0  0
 79154  1  0  0  0
 79155  1  0  0  0
 80156  1  0  0  0
 80157  1  0  0  0
 81 83  1  0  0  0
 82158  1  0  0  0
M  ISO  4   1 100  68 101  80 101  82 100
M  END
> <chiral flag>
0

> <version>
0

> <s_m_source_file>
/data/baiqing/PycharmProjects/Reinvent-master-3.2/result/LINK_invent/BTK/process_docking_weight1_custom_sum_contain_oxygen_bond_distance_aromatic_linkinvent_7_9_3/rearranged_h_0042.sdf

> <i_m_source_file_index>
42

> <r_mmod_Potential_Energy-OPLS-2005>
226.030456542969

> <r_mmod_Stretch_Energy-OPLS-2005>
44.3917694091797

> <r_mmod_Bend_Energy-OPLS-2005>
177.417526245117

> <r_mmod_Torsional_Energy-OPLS-2005>
388.432220458984

> <r_mmod_Improper_Torsional_Energy-OPLS-2005>
29.4445934295654

> <r_mmod_Van_der_Waal_Energy-OPLS-2005>
160.981491088867

> <r_mmod_Electrostatic_Energy-OPLS-2005>
-389

> <r_mmod_Solvation_Energy-OPLS-2005>
-216.41259765625

> <b_mmod_Minimization_Converged-OPLS-2005>
0

> <r_mmod_RMS_Derivative-OPLS-2005>
11.6792469024658

$$$$
43
                    3D
 Structure written by MMmdl.
161169  0  0  1  0            999 V2000
  -30.7156  -14.5235   20.4633 C   0  0  0  0  0  0
  -30.4320  -12.3137   19.4387 C   0  0  0  0  0  0
  -29.4994  -12.4337   18.2169 C   0  0  0  0  0  0
  -28.0198  -12.3113   18.6362 C   0  0  0  0  0  0
  -27.6479  -13.1937   19.8604 C   0  0  2  0  0  0
  -28.7056  -13.0812   20.9807 C   0  0  0  0  0  0
  -25.2571  -13.8146   20.5735 C   0  0  0  0  0  0
  -24.1814  -13.0434   20.9215 C   0  0  0  0  0  0
  -24.6370  -11.6910   20.8810 C   0  0  0  0  0  0
  -23.9036  -10.4312   21.0446 C   0  0  0  0  0  0
  -24.3597   -9.4223   21.9204 C   0  0  0  0  0  0
  -23.6302   -8.2234   22.0742 C   0  0  0  0  0  0
  -22.4295   -8.0267   21.3519 C   0  0  0  0  0  0
  -21.9915   -9.0260   20.4645 C   0  0  0  0  0  0
  -22.7228  -10.2156   20.3069 C   0  0  0  0  0  0
  -21.6868   -6.0743   22.5270 C   0  0  0  0  0  0
  -21.4026   -6.5647   23.8207 C   0  0  0  0  0  0
  -21.3659   -5.6779   24.9160 C   0  0  0  0  0  0
  -21.6056   -4.3047   24.7205 C   0  0  0  0  0  0
  -21.8833   -3.8141   23.4327 C   0  0  0  0  0  0
  -21.9230   -4.6974   22.3392 C   0  0  0  0  0  0
  -22.7838  -13.5263   21.1809 C   0  0  0  0  0  0
  -22.1667   -4.2156   21.0960 F   0  0  0  0  0  0
  -21.5627   -3.4535   25.7717 F   0  0  0  0  0  0
  -30.0256  -13.3526   20.3942 N   0  0  0  0  0  0
  -26.2967  -12.9254   20.3386 N   0  0  0  0  0  0
  -25.9277  -11.6452   20.5840 N   0  0  0  0  0  0
  -22.0411  -12.8304   22.0336 N   0  0  0  0  0  0
  -25.4373  -15.1875   20.4157 N   0  0  0  0  0  0
  -31.9195  -14.5955   20.2043 O   0  0  0  0  0  0
  -21.6654   -6.8873   21.4226 O   0  0  0  0  0  0
  -22.3542  -14.5584   20.6648 O   0  0  0  0  0  0
  -24.6188  -31.8650   23.2102 C   0  0  0  0  0  0
  -25.9058  -32.4793   23.8424 C   0  0  1  0  0  0
  -27.2252  -27.4213   20.0704 C   0  0  0  0  0  0
  -25.5884  -33.8592   24.2358 N   0  0  0  0  0  0
  -23.4053  -30.4961   21.5519 C   0  0  2  0  0  0
  -24.8446  -28.9661   20.1059 C   0  0  0  0  0  0
  -22.7426  -29.4664   22.4958 C   0  0  0  0  0  0
  -18.0268  -28.1386   22.8476 C   0  0  0  0  0  0
  -24.1471  -36.7329   23.2639 C   0  0  0  0  0  0
  -25.9392  -30.8234   21.3670 C   0  0  0  0  0  0
  -26.0099  -29.4627   20.7042 C   0  0  0  0  0  0
  -27.2054  -28.7018   20.6745 C   0  0  0  0  0  0
  -26.0406  -26.9559   19.4502 C   0  0  0  0  0  0
  -24.8579  -27.7166   19.4691 C   0  0  0  0  0  0
  -23.6108  -29.8383   20.1641 C   0  0  0  0  0  0
  -25.4079  -36.3110   24.0361 C   0  0  1  0  0  0
  -20.5858  -28.3681   23.1279 C   0  0  2  0  0  0
  -20.6746  -26.9417   22.5386 C   0  0  0  0  0  0
  -19.5731  -26.6395   21.5184 C   0  0  0  0  0  0
  -18.1915  -26.7920   22.1618 C   0  0  0  0  0  0
  -19.1517  -28.8851   23.2877 C   0  0  0  0  0  0
  -18.9452  -30.1438   23.8909 C   0  0  0  0  0  0
  -17.6458  -30.6581   24.0570 C   0  0  0  0  0  0
  -25.9024  -34.9467   23.5165 C   0  0  0  0  0  0
  -16.5345  -29.9105   23.6295 C   0  0  0  0  0  0
  -16.7262  -28.6517   23.0337 C   0  0  0  0  0  0
  -26.4496  -31.6542   25.0731 C   0  0  0  0  0  0
  -25.3794  -31.3595   26.1504 C   0  0  0  0  0  0
  -27.0293  -30.2980   24.6055 C   0  0  0  0  0  0
  -27.6090  -32.4243   25.7476 C   0  0  0  0  0  0
  -27.5582  -37.1798   24.8465 C   0  0  0  0  0  0
  -21.4157  -29.3055   22.3712 N   0  0  0  0  0  0
  -26.4272  -37.3798   23.9439 N   0  0  0  0  0  0
  -24.6724  -31.0772   22.1002 N   0  0  0  0  0  0
  -23.4206  -28.8183   23.2982 O   0  0  0  0  0  0
  -28.3766  -26.6476   20.1058 O   0  0  0  0  0  0
  -26.5613  -34.8922   22.4748 O   0  0  0  0  0  0
  -23.5371  -32.1425   23.7506 O   0  0  0  0  0  0
  -29.7553  -21.8380   20.9498 C   0  0  0  0  0  0
  -28.5044  -20.7045   22.6796 C   0  0  0  0  0  0
  -28.0992  -22.9495   22.3135 C   0  0  0  0  0  0
  -29.4959  -20.6505   21.6813 C   0  0  0  0  0  0
  -29.0593  -23.0295   21.2873 C   0  0  0  0  0  0
  -30.5108  -16.9592   18.4329 C   0  0  0  0  0  0
  -30.3233  -19.3654   21.4757 C   0  0  0  0  0  0
  -29.3902  -24.4027   20.6665 C   0  0  0  0  0  0
  -29.5737  -18.0102   21.6746 C   0  0  0  0  0  0
  -29.4661  -16.1971   19.2651 C   0  0  0  0  0  0
  -30.4548  -16.7259   21.4895 C   0  0  0  0  0  0
  -28.1649  -25.2207   20.1670 C   0  0  0  0  0  0
  -27.8128  -21.8197   22.9826 N   0  0  0  0  0  0
  -29.9805  -15.6712   20.5523 N   0  0  0  0  0  0
  -31.4727  -12.4178   19.1193 H   0  0  0  0  0  0
  -30.3534  -11.3282   19.9011 H   0  0  0  0  0  0
  -29.7398  -11.6565   17.4896 H   0  0  0  0  0  0
  -29.6672  -13.3788   17.7024 H   0  0  0  0  0  0
  -27.8357  -11.2640   18.8760 H   0  0  0  0  0  0
  -27.3742  -12.5426   17.7900 H   0  0  0  0  0  0
  -27.6360  -14.2187   19.5100 H   0  0  0  0  0  0
  -28.6979  -12.0857   21.4258 H   0  0  0  0  0  0
  -28.4823  -13.7857   21.7830 H   0  0  0  0  0  0
  -25.2747   -9.5756   22.4752 H   0  0  0  0  0  0
  -24.0067   -7.4676   22.7467 H   0  0  0  0  0  0
  -21.0827   -8.8837   19.8961 H   0  0  0  0  0  0
  -22.3716  -10.9717   19.6185 H   0  0  0  0  0  0
  -21.1980   -7.6146   23.9729 H   0  0  0  0  0  0
  -21.1456   -6.0475   25.9070 H   0  0  0  0  0  0
  -22.0612   -2.7599   23.2822 H   0  0  0  0  0  0
  -22.4002  -12.0051   22.4878 H   0  0  0  0  0  0
  -21.1024  -13.1382   22.2465 H   0  0  0  0  0  0
  -24.6870  -15.8586   20.5304 H   0  0  0  0  0  0
  -26.3094  -15.6151   20.1300 H   0  0  0  0  0  0
  -26.7102  -32.5498   23.1171 H   0  0  0  0  0  0
  -24.9964  -33.9729   25.0457 H   0  0  0  0  0  0
  -22.6954  -31.3162   21.4202 H   0  0  0  0  0  0
  -23.3729  -35.9662   23.3264 H   0  0  0  0  0  0
  -24.3587  -36.8978   22.2061 H   0  0  0  0  0  0
  -23.7205  -37.6523   23.6667 H   0  0  0  0  0  0
  -26.0641  -31.5852   20.5974 H   0  0  0  0  0  0
  -26.8267  -30.8666   21.9870 H   0  0  0  0  0  0
  -28.1079  -29.0844   21.1302 H   0  0  0  0  0  0
  -26.0092  -26.0075   18.9321 H   0  0  0  0  0  0
  -23.9686  -27.3429   18.9789 H   0  0  0  0  0  0
  -23.7269  -30.6204   19.4131 H   0  0  0  0  0  0
  -22.7296  -29.2679   19.8603 H   0  0  0  0  0  0
  -25.1225  -36.1995   25.0852 H   0  0  0  0  0  0
  -20.9955  -28.3247   24.1402 H   0  0  0  0  0  0
  -20.5605  -26.2310   23.3592 H   0  0  0  0  0  0
  -21.6619  -26.7429   22.1204 H   0  0  0  0  0  0
  -19.6884  -25.6312   21.1195 H   0  0  0  0  0  0
  -19.6647  -27.3213   20.6720 H   0  0  0  0  0  0
  -17.4172  -26.6647   21.4041 H   0  0  0  0  0  0
  -18.0353  -26.0068   22.9027 H   0  0  0  0  0  0
  -19.7935  -30.7224   24.2311 H   0  0  0  0  0  0
  -17.5026  -31.6255   24.5197 H   0  0  0  0  0  0
  -15.5349  -30.3039   23.7578 H   0  0  0  0  0  0
  -15.8660  -28.0835   22.7059 H   0  0  0  0  0  0
  -24.6015  -30.6871   25.7867 H   0  0  0  0  0  0
  -24.8938  -32.2703   26.4998 H   0  0  0  0  0  0
  -25.8222  -30.8770   27.0231 H   0  0  0  0  0  0
  -26.2781  -29.6741   24.1185 H   0  0  0  0  0  0
  -27.4148  -29.7197   25.4464 H   0  0  0  0  0  0
  -27.8601  -30.4295   23.9123 H   0  0  0  0  0  0
  -27.2733  -33.3544   26.2079 H   0  0  0  0  0  0
  -28.3881  -32.6785   25.0273 H   0  0  0  0  0  0
  -28.0775  -31.8338   26.5365 H   0  0  0  0  0  0
  -28.2567  -38.0129   24.7555 H   0  0  0  0  0  0
  -28.1109  -36.2663   24.6207 H   0  0  0  0  0  0
  -27.2334  -37.1351   25.8879 H   0  0  0  0  0  0
  -20.9334  -29.8844   21.6975 H   0  0  0  0  0  0
  -26.0167  -38.2873   24.1475 H   0  0  0  0  0  0
  -30.5154  -21.8527   20.1797 H   0  0  0  0  0  0
  -28.2719  -19.8451   23.2874 H   0  0  0  0  0  0
  -27.5561  -23.8198   22.6434 H   0  0  0  0  0  0
  -30.9996  -17.7576   18.9894 H   0  0  0  0  0  0
  -30.0394  -17.4139   17.5631 H   0  0  0  0  0  0
  -31.2860  -16.2890   18.0651 H   0  0  0  0  0  0
  -31.1561  -19.4122   22.1805 H   0  0  0  0  0  0
  -30.7801  -19.3950   20.4864 H   0  0  0  0  0  0
  -30.1092  -24.2790   19.8525 H   0  0  0  0  0  0
  -29.9064  -24.9809   21.4342 H   0  0  0  0  0  0
  -28.6723  -18.0055   21.0696 H   0  0  0  0  0  0
  -29.1997  -17.9720   22.6961 H   0  0  0  0  0  0
  -29.1327  -15.3867   18.6217 H   0  0  0  0  0  0
  -28.5692  -16.7930   19.4048 H   0  0  0  0  0  0
  -30.5526  -16.2464   22.4652 H   0  0  0  0  0  0
  -31.4702  -17.0173   21.2193 H   0  0  0  0  0  0
  -27.3255  -25.0540   20.8418 H   0  0  0  0  0  0
  -27.8650  -24.8432   19.1903 H   0  0  0  0  0  0
  1 25  1  0  0  0
  1 30  2  0  0  0
  1 84  1  0  0  0
  2  3  1  0  0  0
  2 25  1  0  0  0
  2 85  1  0  0  0
  2 86  1  0  0  0
  3  4  1  0  0  0
  3 87  1  0  0  0
  3 88  1  0  0  0
  4  5  1  0  0  0
  4 89  1  0  0  0
  4 90  1  0  0  0
  5  6  1  0  0  0
  5 26  1  0  0  0
  5 91  1  0  0  0
  6 25  1  0  0  0
  6 92  1  0  0  0
  6 93  1  0  0  0
  7  8  2  0  0  0
  7 26  1  0  0  0
  7 29  1  0  0  0
  8  9  1  0  0  0
  8 22  1  0  0  0
  9 10  1  0  0  0
  9 27  2  0  0  0
 10 11  2  0  0  0
 10 15  1  0  0  0
 11 12  1  0  0  0
 11 94  1  0  0  0
 12 13  2  0  0  0
 12 95  1  0  0  0
 13 14  1  0  0  0
 13 31  1  0  0  0
 14 15  2  0  0  0
 14 96  1  0  0  0
 15 97  1  0  0  0
 16 17  2  0  0  0
 16 21  1  0  0  0
 16 31  1  0  0  0
 17 18  1  0  0  0
 17 98  1  0  0  0
 18 19  2  0  0  0
 18 99  1  0  0  0
 19 20  1  0  0  0
 19 24  1  0  0  0
 20 21  2  0  0  0
 20100  1  0  0  0
 21 23  1  0  0  0
 22 28  1  0  0  0
 22 32  2  0  0  0
 26 27  1  0  0  0
 28101  1  0  0  0
 28102  1  0  0  0
 29103  1  0  0  0
 29104  1  0  0  0
 33 34  1  0  0  0
 33 66  1  0  0  0
 33 70  2  0  0  0
 34 36  1  0  0  0
 34 59  1  0  0  0
 34105  1  0  0  0
 35 44  2  0  0  0
 35 45  1  0  0  0
 35 68  1  0  0  0
 36 56  1  0  0  0
 36106  1  0  0  0
 37 39  1  0  0  0
 37 47  1  0  0  0
 37 66  1  0  0  0
 37107  1  0  0  0
 38 43  2  0  0  0
 38 46  1  0  0  0
 38 47  1  0  0  0
 39 64  1  0  0  0
 39 67  2  0  0  0
 40 52  1  0  0  0
 40 53  2  0  0  0
 40 58  1  0  0  0
 41108  1  0  0  0
 41109  1  0  0  0
 41110  1  0  0  0
 41 48  1  0  0  0
 42 43  1  0  0  0
 42 66  1  0  0  0
 42111  1  0  0  0
 42112  1  0  0  0
 43 44  1  0  0  0
 44113  1  0  0  0
 45 46  2  0  0  0
 45114  1  0  0  0
 46115  1  0  0  0
 47116  1  0  0  0
 47117  1  0  0  0
 48 56  1  0  0  0
 48 65  1  0  0  0
 48118  1  0  0  0
 49 50  1  0  0  0
 49 53  1  0  0  0
 49 64  1  0  0  0
 49119  1  0  0  0
 50 51  1  0  0  0
 50120  1  0  0  0
 50121  1  0  0  0
 51 52  1  0  0  0
 51122  1  0  0  0
 51123  1  0  0  0
 52124  1  0  0  0
 52125  1  0  0  0
 53 54  1  0  0  0
 54 55  2  0  0  0
 54126  1  0  0  0
 55 57  1  0  0  0
 55127  1  0  0  0
 56 69  2  0  0  0
 57 58  2  0  0  0
 57128  1  0  0  0
 58129  1  0  0  0
 59 60  1  0  0  0
 59 61  1  0  0  0
 59 62  1  0  0  0
 60130  1  0  0  0
 60131  1  0  0  0
 60132  1  0  0  0
 61133  1  0  0  0
 61134  1  0  0  0
 61135  1  0  0  0
 62136  1  0  0  0
 62137  1  0  0  0
 62138  1  0  0  0
 63 65  1  0  0  0
 63139  1  0  0  0
 63140  1  0  0  0
 63141  1  0  0  0
 64142  1  0  0  0
 65143  1  0  0  0
 68 82  1  0  0  0
 71 74  2  0  0  0
 71 75  1  0  0  0
 71144  1  0  0  0
 72 74  1  0  0  0
 72 83  2  0  0  0
 72145  1  0  0  0
 73 75  2  0  0  0
 73 83  1  0  0  0
 73146  1  0  0  0
 74 77  1  0  0  0
 75 78  1  0  0  0
 76 80  1  0  0  0
 76147  1  0  0  0
 76148  1  0  0  0
 76149  1  0  0  0
 77 79  1  0  0  0
 77150  1  0  0  0
 77151  1  0  0  0
 78 82  1  0  0  0
 78152  1  0  0  0
 78153  1  0  0  0
 79 81  1  0  0  0
 79154  1  0  0  0
 79155  1  0  0  0
 80 84  1  0  0  0
 80156  1  0  0  0
 80157  1  0  0  0
 81 84  1  0  0  0
 81158  1  0  0  0
 81159  1  0  0  0
 82160  1  0  0  0
 82161  1  0  0  0
M  ISO  4   1 100  68 101  82 101  84 100
M  END
> <chiral flag>
0

> <version>
0

> <s_m_source_file>
/data/baiqing/PycharmProjects/Reinvent-master-3.2/result/LINK_invent/BTK/process_docking_weight1_custom_sum_contain_oxygen_bond_distance_aromatic_linkinvent_7_9_3/rearranged_h_0042.sdf

> <i_m_source_file_index>
43

> <r_mmod_Potential_Energy-OPLS-2005>
74.7628479003906

> <r_mmod_Stretch_Energy-OPLS-2005>
46.2093696594238

> <r_mmod_Bend_Energy-OPLS-2005>
110.497817993164

> <r_mmod_Torsional_Energy-OPLS-2005>
330.459289550781

> <r_mmod_Improper_Torsional_Energy-OPLS-2005>
10.3339328765869

> <r_mmod_Van_der_Waal_Energy-OPLS-2005>
164.643157958984

> <r_mmod_Electrostatic_Energy-OPLS-2005>
-410.846557617188

> <r_mmod_Solvation_Energy-OPLS-2005>
-205.78125

> <b_mmod_Minimization_Converged-OPLS-2005>
0

> <r_mmod_RMS_Derivative-OPLS-2005>
4.80357885360718

$$$$
44
                    3D
 Structure written by MMmdl.
162170  0  0  1  0            999 V2000
  -30.7125  -14.4236   20.5335 C   0  0  0  0  0  0
  -30.4131  -12.2619   19.4262 C   0  0  0  0  0  0
  -29.4937  -12.4888   18.2086 C   0  0  0  0  0  0
  -28.0121  -12.3670   18.6175 C   0  0  0  0  0  0
  -27.6641  -13.2007   19.8806 C   0  0  2  0  0  0
  -28.7050  -12.9756   21.0039 C   0  0  0  0  0  0
  -25.2601  -13.8151   20.5681 C   0  0  0  0  0  0
  -24.1841  -13.0443   20.9168 C   0  0  0  0  0  0
  -24.6384  -11.6905   20.8735 C   0  0  0  0  0  0
  -23.9051  -10.4299   21.0403 C   0  0  0  0  0  0
  -24.3611   -9.4217   21.9176 C   0  0  0  0  0  0
  -23.6299   -8.2245   22.0752 C   0  0  0  0  0  0
  -22.4284   -8.0278   21.3544 C   0  0  0  0  0  0
  -21.9910   -9.0251   20.4648 C   0  0  0  0  0  0
  -22.7223  -10.2134   20.3061 C   0  0  0  0  0  0
  -21.6853   -6.0743   22.5287 C   0  0  0  0  0  0
  -21.4008   -6.5647   23.8222 C   0  0  0  0  0  0
  -21.3659   -5.6796   24.9181 C   0  0  0  0  0  0
  -21.6043   -4.3063   24.7222 C   0  0  0  0  0  0
  -21.8815   -3.8159   23.4344 C   0  0  0  0  0  0
  -21.9188   -4.6976   22.3405 C   0  0  0  0  0  0
  -22.7862  -13.5231   21.1837 C   0  0  0  0  0  0
  -22.1652   -4.2170   21.0977 F   0  0  0  0  0  0
  -21.5640   -3.4536   25.7726 F   0  0  0  0  0  0
  -30.0401  -13.2486   20.4496 N   0  0  0  0  0  0
  -26.3036  -12.9311   20.3395 N   0  0  0  0  0  0
  -25.9309  -11.6481   20.5777 N   0  0  0  0  0  0
  -22.0515  -12.8227   22.0399 N   0  0  0  0  0  0
  -25.4340  -15.1865   20.4061 N   0  0  0  0  0  0
  -31.8606  -14.5790   20.1100 O   0  0  0  0  0  0
  -21.6644   -6.8884   21.4248 O   0  0  0  0  0  0
  -22.3539  -14.5543   20.6696 O   0  0  0  0  0  0
  -24.6110  -31.8716   23.2133 C   0  0  0  0  0  0
  -25.9015  -32.4847   23.8419 C   0  0  1  0  0  0
  -27.2410  -27.4727   20.0890 C   0  0  0  0  0  0
  -25.5887  -33.8643   24.2355 N   0  0  0  0  0  0
  -23.3969  -30.4948   21.5548 C   0  0  2  0  0  0
  -24.8421  -28.9674   20.1128 C   0  0  0  0  0  0
  -22.7396  -29.4668   22.5026 C   0  0  0  0  0  0
  -18.0272  -28.1374   22.8500 C   0  0  0  0  0  0
  -24.1485  -36.7330   23.2641 C   0  0  0  0  0  0
  -25.9208  -30.8487   21.3590 C   0  0  0  0  0  0
  -25.9986  -29.4858   20.7071 C   0  0  0  0  0  0
  -27.1986  -28.7462   20.6914 C   0  0  0  0  0  0
  -26.0655  -26.9606   19.4881 C   0  0  0  0  0  0
  -24.8695  -27.7029   19.4991 C   0  0  0  0  0  0
  -23.6016  -29.8296   20.1667 C   0  0  0  0  0  0
  -25.4105  -36.3137   24.0349 C   0  0  1  0  0  0
  -20.5857  -28.3656   23.1338 C   0  0  2  0  0  0
  -20.6765  -26.9399   22.5423 C   0  0  0  0  0  0
  -19.5742  -26.6388   21.5222 C   0  0  0  0  0  0
  -18.1919  -26.7923   22.1630 C   0  0  0  0  0  0
  -19.1516  -28.8831   23.2918 C   0  0  0  0  0  0
  -18.9444  -30.1440   23.8925 C   0  0  0  0  0  0
  -17.6443  -30.6580   24.0566 C   0  0  0  0  0  0
  -25.9027  -34.9493   23.5150 C   0  0  0  0  0  0
  -16.5338  -29.9087   23.6316 C   0  0  0  0  0  0
  -16.7260  -28.6504   23.0340 C   0  0  0  0  0  0
  -26.4451  -31.6613   25.0728 C   0  0  0  0  0  0
  -25.3732  -31.3681   26.1484 C   0  0  0  0  0  0
  -27.0263  -30.3073   24.6043 C   0  0  0  0  0  0
  -27.6052  -32.4312   25.7467 C   0  0  0  0  0  0
  -27.5586  -37.1819   24.8466 C   0  0  0  0  0  0
  -21.4127  -29.3027   22.3750 N   0  0  0  0  0  0
  -26.4302  -37.3812   23.9407 N   0  0  0  0  0  0
  -24.6615  -31.0843   22.1021 N   0  0  0  0  0  0
  -23.4183  -28.8215   23.3056 O   0  0  0  0  0  0
  -28.4367  -26.7903   20.1083 O   0  0  0  0  0  0
  -26.5584  -34.8939   22.4707 O   0  0  0  0  0  0
  -23.5314  -32.1446   23.7556 O   0  0  0  0  0  0
  -28.9452  -21.0117   21.0695 C   0  0  0  0  0  0
  -29.8832  -21.2455   18.8395 C   0  0  0  0  0  0
  -29.3186  -20.4336   19.8420 C   0  0  0  0  0  0
  -29.1054  -22.3974   21.2837 C   0  0  0  0  0  0
  -30.0419  -22.6306   19.0308 C   0  0  0  0  0  0
  -29.6331  -23.2221   20.2532 C   0  0  0  0  0  0
  -28.6818  -22.9720   22.6260 C   0  0  0  0  0  0
  -30.6309  -23.4564   17.8954 C   0  0  0  0  0  0
  -29.0769  -18.9637   19.5405 C   0  0  0  0  0  0
  -29.6898  -24.7378   20.4216 C   0  0  0  0  0  0
  -29.3957  -17.9569   20.6697 C   0  0  0  0  0  0
  -30.1638  -16.7490   20.1035 C   0  0  0  0  0  0
  -28.3878  -25.3825   19.9229 C   0  0  0  0  0  0
  -29.9499  -15.4895   20.8173 N   0  0  0  0  0  0
  -31.4610  -12.3368   19.1302 H   0  0  0  0  0  0
  -30.2887  -11.2515   19.8161 H   0  0  0  0  0  0
  -29.7234  -11.7676   17.4230 H   0  0  0  0  0  0
  -29.6814  -13.4750   17.7812 H   0  0  0  0  0  0
  -27.8049  -11.3118   18.8005 H   0  0  0  0  0  0
  -27.3697  -12.6612   17.7864 H   0  0  0  0  0  0
  -27.7111  -14.2475   19.5840 H   0  0  0  0  0  0
  -28.6638  -11.9453   21.3618 H   0  0  0  0  0  0
  -28.4870  -13.5964   21.8742 H   0  0  0  0  0  0
  -25.2753   -9.5695   22.4752 H   0  0  0  0  0  0
  -24.0026   -7.4625   22.7451 H   0  0  0  0  0  0
  -21.0857   -8.8754   19.8925 H   0  0  0  0  0  0
  -22.3683  -10.9678   19.6180 H   0  0  0  0  0  0
  -21.2001   -7.6154   23.9735 H   0  0  0  0  0  0
  -21.1482   -6.0524   25.9088 H   0  0  0  0  0  0
  -22.0596   -2.7626   23.2835 H   0  0  0  0  0  0
  -22.4147  -11.9897   22.4788 H   0  0  0  0  0  0
  -21.1123  -13.1233   22.2587 H   0  0  0  0  0  0
  -24.6686  -15.8440   20.5103 H   0  0  0  0  0  0
  -26.2875  -15.6234   20.0829 H   0  0  0  0  0  0
  -26.7088  -32.5569   23.1192 H   0  0  0  0  0  0
  -25.0052  -33.9814   25.0508 H   0  0  0  0  0  0
  -22.6848  -31.3114   21.4205 H   0  0  0  0  0  0
  -23.3750  -35.9660   23.3320 H   0  0  0  0  0  0
  -24.3587  -36.8920   22.2052 H   0  0  0  0  0  0
  -23.7229  -37.6541   23.6631 H   0  0  0  0  0  0
  -26.0237  -31.6153   20.5894 H   0  0  0  0  0  0
  -26.8126  -30.9057   21.9706 H   0  0  0  0  0  0
  -28.0925  -29.1487   21.1474 H   0  0  0  0  0  0
  -26.0563  -25.9984   18.9970 H   0  0  0  0  0  0
  -23.9842  -27.2992   19.0272 H   0  0  0  0  0  0
  -23.7039  -30.6070   19.4090 H   0  0  0  0  0  0
  -22.7251  -29.2478   19.8744 H   0  0  0  0  0  0
  -25.1275  -36.2026   25.0844 H   0  0  0  0  0  0
  -20.9952  -28.3219   24.1457 H   0  0  0  0  0  0
  -20.5695  -26.2260   23.3606 H   0  0  0  0  0  0
  -21.6635  -26.7462   22.1196 H   0  0  0  0  0  0
  -19.6905  -25.6308   21.1233 H   0  0  0  0  0  0
  -19.6681  -27.3217   20.6768 H   0  0  0  0  0  0
  -17.4195  -26.6686   21.4024 H   0  0  0  0  0  0
  -18.0307  -26.0058   22.9018 H   0  0  0  0  0  0
  -19.7916  -30.7247   24.2317 H   0  0  0  0  0  0
  -17.4995  -31.6264   24.5160 H   0  0  0  0  0  0
  -15.5338  -30.2994   23.7619 H   0  0  0  0  0  0
  -15.8664  -28.0832   22.7031 H   0  0  0  0  0  0
  -24.5911  -30.7026   25.7810 H   0  0  0  0  0  0
  -24.8907  -32.2814   26.4975 H   0  0  0  0  0  0
  -25.8099  -30.8818   27.0217 H   0  0  0  0  0  0
  -26.2775  -29.6857   24.1119 H   0  0  0  0  0  0
  -27.4091  -29.7283   25.4457 H   0  0  0  0  0  0
  -27.8586  -30.4427   23.9133 H   0  0  0  0  0  0
  -27.2704  -33.3608   26.2084 H   0  0  0  0  0  0
  -28.3823  -32.6882   25.0255 H   0  0  0  0  0  0
  -28.0760  -31.8409   26.5337 H   0  0  0  0  0  0
  -28.2615  -38.0107   24.7518 H   0  0  0  0  0  0
  -28.1073  -36.2641   24.6289 H   0  0  0  0  0  0
  -27.2307  -37.1469   25.8872 H   0  0  0  0  0  0
  -20.9293  -29.8753   21.6970 H   0  0  0  0  0  0
  -26.0207  -38.2900   24.1397 H   0  0  0  0  0  0
  -28.5155  -20.3918   21.8457 H   0  0  0  0  0  0
  -30.1751  -20.8020   17.8970 H   0  0  0  0  0  0
  -28.2345  -22.2085   23.2622 H   0  0  0  0  0  0
  -27.9460  -23.7663   22.5044 H   0  0  0  0  0  0
  -29.5449  -23.3759   23.1562 H   0  0  0  0  0  0
  -30.8131  -22.8453   17.0104 H   0  0  0  0  0  0
  -31.5854  -23.8933   18.1912 H   0  0  0  0  0  0
  -29.9607  -24.2637   17.5995 H   0  0  0  0  0  0
  -29.6643  -18.7220   18.6533 H   0  0  0  0  0  0
  -28.0381  -18.8400   19.2325 H   0  0  0  0  0  0
  -30.5428  -25.1545   19.8867 H   0  0  0  0  0  0
  -29.8649  -25.0022   21.4634 H   0  0  0  0  0  0
  -28.4678  -17.6522   21.1551 H   0  0  0  0  0  0
  -30.0092  -18.4196   21.4445 H   0  0  0  0  0  0
  -31.2254  -17.0025   20.0578 H   0  0  0  0  0  0
  -29.8514  -16.5601   19.0743 H   0  0  0  0  0  0
  -27.5495  -24.9544   20.4748 H   0  0  0  0  0  0
  -28.2333  -25.1635   18.8663 H   0  0  0  0  0  0
  -29.0209  -15.3030   21.1641 H   0  0  0  0  0  0
  1 25  1  0  0  0
  1 30  2  0  0  0
  1 84  1  0  0  0
  2  3  1  0  0  0
  2 25  1  0  0  0
  2 85  1  0  0  0
  2 86  1  0  0  0
  3  4  1  0  0  0
  3 87  1  0  0  0
  3 88  1  0  0  0
  4  5  1  0  0  0
  4 89  1  0  0  0
  4 90  1  0  0  0
  5  6  1  0  0  0
  5 26  1  0  0  0
  5 91  1  0  0  0
  6 25  1  0  0  0
  6 92  1  0  0  0
  6 93  1  0  0  0
  7  8  2  0  0  0
  7 26  1  0  0  0
  7 29  1  0  0  0
  8  9  1  0  0  0
  8 22  1  0  0  0
  9 10  1  0  0  0
  9 27  2  0  0  0
 10 11  2  0  0  0
 10 15  1  0  0  0
 11 12  1  0  0  0
 11 94  1  0  0  0
 12 13  2  0  0  0
 12 95  1  0  0  0
 13 14  1  0  0  0
 13 31  1  0  0  0
 14 15  2  0  0  0
 14 96  1  0  0  0
 15 97  1  0  0  0
 16 17  2  0  0  0
 16 21  1  0  0  0
 16 31  1  0  0  0
 17 18  1  0  0  0
 17 98  1  0  0  0
 18 19  2  0  0  0
 18 99  1  0  0  0
 19 20  1  0  0  0
 19 24  1  0  0  0
 20 21  2  0  0  0
 20100  1  0  0  0
 21 23  1  0  0  0
 22 28  1  0  0  0
 22 32  2  0  0  0
 26 27  1  0  0  0
 28101  1  0  0  0
 28102  1  0  0  0
 29103  1  0  0  0
 29104  1  0  0  0
 33 34  1  0  0  0
 33 66  1  0  0  0
 33 70  2  0  0  0
 34 36  1  0  0  0
 34 59  1  0  0  0
 34105  1  0  0  0
 35 44  2  0  0  0
 35 45  1  0  0  0
 35 68  1  0  0  0
 36 56  1  0  0  0
 36106  1  0  0  0
 37 39  1  0  0  0
 37 47  1  0  0  0
 37 66  1  0  0  0
 37107  1  0  0  0
 38 43  2  0  0  0
 38 46  1  0  0  0
 38 47  1  0  0  0
 39 64  1  0  0  0
 39 67  2  0  0  0
 40 52  1  0  0  0
 40 53  2  0  0  0
 40 58  1  0  0  0
 41108  1  0  0  0
 41109  1  0  0  0
 41110  1  0  0  0
 41 48  1  0  0  0
 42 43  1  0  0  0
 42 66  1  0  0  0
 42111  1  0  0  0
 42112  1  0  0  0
 43 44  1  0  0  0
 44113  1  0  0  0
 45 46  2  0  0  0
 45114  1  0  0  0
 46115  1  0  0  0
 47116  1  0  0  0
 47117  1  0  0  0
 48 56  1  0  0  0
 48 65  1  0  0  0
 48118  1  0  0  0
 49 50  1  0  0  0
 49 53  1  0  0  0
 49 64  1  0  0  0
 49119  1  0  0  0
 50 51  1  0  0  0
 50120  1  0  0  0
 50121  1  0  0  0
 51 52  1  0  0  0
 51122  1  0  0  0
 51123  1  0  0  0
 52124  1  0  0  0
 52125  1  0  0  0
 53 54  1  0  0  0
 54 55  2  0  0  0
 54126  1  0  0  0
 55 57  1  0  0  0
 55127  1  0  0  0
 56 69  2  0  0  0
 57 58  2  0  0  0
 57128  1  0  0  0
 58129  1  0  0  0
 59 60  1  0  0  0
 59 61  1  0  0  0
 59 62  1  0  0  0
 60130  1  0  0  0
 60131  1  0  0  0
 60132  1  0  0  0
 61133  1  0  0  0
 61134  1  0  0  0
 61135  1  0  0  0
 62136  1  0  0  0
 62137  1  0  0  0
 62138  1  0  0  0
 63 65  1  0  0  0
 63139  1  0  0  0
 63140  1  0  0  0
 63141  1  0  0  0
 64142  1  0  0  0
 65143  1  0  0  0
 68 83  1  0  0  0
 71 73  2  0  0  0
 71 74  1  0  0  0
 71144  1  0  0  0
 72 73  1  0  0  0
 72 75  2  0  0  0
 72145  1  0  0  0
 73 79  1  0  0  0
 74 76  2  0  0  0
 74 77  1  0  0  0
 75 76  1  0  0  0
 75 78  1  0  0  0
 76 80  1  0  0  0
 77146  1  0  0  0
 77147  1  0  0  0
 77148  1  0  0  0
 78149  1  0  0  0
 78150  1  0  0  0
 78151  1  0  0  0
 79 81  1  0  0  0
 79152  1  0  0  0
 79153  1  0  0  0
 80 83  1  0  0  0
 80154  1  0  0  0
 80155  1  0  0  0
 81 82  1  0  0  0
 81156  1  0  0  0
 81157  1  0  0  0
 82 84  1  0  0  0
 82158  1  0  0  0
 82159  1  0  0  0
 83160  1  0  0  0
 83161  1  0  0  0
 84162  1  0  0  0
M  ISO  4   1 100  68 101  83 101  84 100
M  END
> <chiral flag>
0

> <version>
0

> <s_m_source_file>
/data/baiqing/PycharmProjects/Reinvent-master-3.2/result/LINK_invent/BTK/process_docking_weight1_custom_sum_contain_oxygen_bond_distance_aromatic_linkinvent_7_9_3/rearranged_h_0042.sdf

> <i_m_source_file_index>
44

> <r_mmod_Potential_Energy-OPLS-2005>
-56.833122253418

> <r_mmod_Stretch_Energy-OPLS-2005>
32.2016754150391

> <r_mmod_Bend_Energy-OPLS-2005>
92.4500961303711

> <r_mmod_Torsional_Energy-OPLS-2005>
225.564331054688

> <r_mmod_Improper_Torsional_Energy-OPLS-2005>
9.72853374481201

> <r_mmod_Van_der_Waal_Energy-OPLS-2005>
165.934539794922

> <r_mmod_Electrostatic_Energy-OPLS-2005>
-388.747253417969

> <r_mmod_Solvation_Energy-OPLS-2005>
-206.087783813477

> <b_mmod_Minimization_Converged-OPLS-2005>
0

> <r_mmod_RMS_Derivative-OPLS-2005>
1.52088272571564

$$$$
45
                    3D
 Structure written by MMmdl.
154162  0  0  1  0            999 V2000
  -30.6542  -14.6339   20.5068 C   0  0  0  0  0  0
  -30.4243  -12.3922   19.4566 C   0  0  0  0  0  0
  -29.4989  -12.4942   18.2256 C   0  0  0  0  0  0
  -28.0245  -12.3327   18.6425 C   0  0  0  0  0  0
  -27.6456  -13.2211   19.8570 C   0  0  2  0  0  0
  -28.6893  -13.1094   20.9904 C   0  0  0  0  0  0
  -25.2523  -13.8183   20.5693 C   0  0  0  0  0  0
  -24.1798  -13.0432   20.9189 C   0  0  0  0  0  0
  -24.6374  -11.6905   20.8738 C   0  0  0  0  0  0
  -23.9047  -10.4286   21.0404 C   0  0  0  0  0  0
  -24.3602   -9.4203   21.9182 C   0  0  0  0  0  0
  -23.6281   -8.2235   22.0756 C   0  0  0  0  0  0
  -22.4270   -8.0271   21.3543 C   0  0  0  0  0  0
  -21.9898   -9.0239   20.4643 C   0  0  0  0  0  0
  -22.7219  -10.2121   20.3049 C   0  0  0  0  0  0
  -21.6858   -6.0722   22.5271 C   0  0  0  0  0  0
  -21.4013   -6.5630   23.8201 C   0  0  0  0  0  0
  -21.3659   -5.6789   24.9168 C   0  0  0  0  0  0
  -21.6051   -4.3053   24.7227 C   0  0  0  0  0  0
  -21.8813   -3.8136   23.4349 C   0  0  0  0  0  0
  -21.9191   -4.6949   22.3401 C   0  0  0  0  0  0
  -22.7822  -13.5213   21.1864 C   0  0  0  0  0  0
  -22.1659   -4.2127   21.0982 F   0  0  0  0  0  0
  -21.5633   -3.4541   25.7746 F   0  0  0  0  0  0
  -30.0003  -13.4344   20.4150 N   0  0  0  0  0  0
  -26.2947  -12.9367   20.3304 N   0  0  0  0  0  0
  -25.9303  -11.6519   20.5762 N   0  0  0  0  0  0
  -22.0488  -12.8192   22.0431 N   0  0  0  0  0  0
  -25.4227  -15.1910   20.4130 N   0  0  0  0  0  0
  -31.8293  -14.7431   20.1492 O   0  0  0  0  0  0
  -21.6638   -6.8865   21.4235 O   0  0  0  0  0  0
  -22.3496  -14.5529   20.6737 O   0  0  0  0  0  0
  -24.6256  -31.8602   23.2017 C   0  0  0  0  0  0
  -25.9111  -32.4785   23.8335 C   0  0  1  0  0  0
  -27.2276  -27.3206   20.1109 C   0  0  0  0  0  0
  -25.5938  -33.8585   24.2264 N   0  0  0  0  0  0
  -23.4186  -30.4815   21.5459 C   0  0  2  0  0  0
  -24.8639  -28.9382   20.1082 C   0  0  0  0  0  0
  -22.7485  -29.4613   22.4961 C   0  0  0  0  0  0
  -18.0284  -28.1393   22.8498 C   0  0  0  0  0  0
  -24.1486  -36.7273   23.2642 C   0  0  0  0  0  0
  -25.9582  -30.7903   21.3719 C   0  0  0  0  0  0
  -26.0305  -29.4167   20.7158 C   0  0  0  0  0  0
  -27.2097  -28.6171   20.7127 C   0  0  0  0  0  0
  -26.0278  -26.8823   19.5038 C   0  0  0  0  0  0
  -24.8653  -27.6759   19.4952 C   0  0  0  0  0  0
  -23.6297  -29.8148   20.1602 C   0  0  0  0  0  0
  -25.4111  -36.3079   24.0327 C   0  0  1  0  0  0
  -20.5885  -28.3681   23.1308 C   0  0  2  0  0  0
  -20.6780  -26.9408   22.5418 C   0  0  0  0  0  0
  -19.5744  -26.6381   21.5237 C   0  0  0  0  0  0
  -18.1921  -26.7940   22.1634 C   0  0  0  0  0  0
  -19.1538  -28.8858   23.2897 C   0  0  0  0  0  0
  -18.9465  -30.1472   23.8895 C   0  0  0  0  0  0
  -17.6466  -30.6602   24.0566 C   0  0  0  0  0  0
  -25.9057  -34.9460   23.5093 C   0  0  0  0  0  0
  -16.5352  -29.9094   23.6348 C   0  0  0  0  0  0
  -16.7268  -28.6515   23.0363 C   0  0  0  0  0  0
  -26.4492  -31.6611   25.0712 C   0  0  0  0  0  0
  -25.3719  -31.3750   26.1439 C   0  0  0  0  0  0
  -27.0360  -30.3057   24.6146 C   0  0  0  0  0  0
  -27.6043  -32.4364   25.7482 C   0  0  0  0  0  0
  -27.5572  -37.1789   24.8469 C   0  0  0  0  0  0
  -21.4206  -29.3040   22.3726 N   0  0  0  0  0  0
  -26.4287  -37.3776   23.9417 N   0  0  0  0  0  0
  -24.6863  -31.0609   22.0967 N   0  0  0  0  0  0
  -23.4227  -28.8156   23.3027 O   0  0  0  0  0  0
  -28.3648  -26.5024   20.1838 O   0  0  0  0  0  0
  -26.5618  -34.8933   22.4655 O   0  0  0  0  0  0
  -23.5424  -32.1401   23.7348 O   0  0  0  0  0  0
  -29.8937  -22.3571   21.2351 C   0  0  0  0  0  0
  -29.4967  -21.2273   20.4733 C   0  0  0  0  0  0
  -28.6044  -21.5616   19.4298 C   0  0  0  0  0  0
  -28.7129  -23.8568   19.9161 C   0  0  0  0  0  0
  -28.0609  -20.5217   18.4729 C   0  0  0  0  0  0
  -30.1971  -19.8248   20.6911 C   0  0  0  0  0  0
  -28.5332  -25.3121   19.3255 C   0  0  0  0  0  0
  -29.4628  -18.4073   20.6970 C   0  0  0  0  0  0
  -30.4481  -17.1643   20.8962 C   0  0  0  0  0  0
  -29.5224  -23.6393   20.9558 N   0  0  0  0  0  0
  -28.2296  -22.8462   19.1786 N   0  0  0  0  0  0
  -29.9227  -15.7519   20.8228 N   0  0  0  0  0  0
  -31.4667  -12.5026   19.1528 H   0  0  0  0  0  0
  -30.3496  -11.4046   19.9150 H   0  0  0  0  0  0
  -29.7632  -11.7342   17.4897 H   0  0  0  0  0  0
  -29.6388  -13.4586   17.7349 H   0  0  0  0  0  0
  -27.8708  -11.2823   18.8951 H   0  0  0  0  0  0
  -27.3648  -12.5409   17.7999 H   0  0  0  0  0  0
  -27.6558  -14.2497   19.4961 H   0  0  0  0  0  0
  -28.7009  -12.1017   21.4074 H   0  0  0  0  0  0
  -28.4387  -13.7768   21.8170 H   0  0  0  0  0  0
  -25.2748   -9.5682   22.4754 H   0  0  0  0  0  0
  -23.9988   -7.4635   22.7482 H   0  0  0  0  0  0
  -21.0823   -8.8745   19.8956 H   0  0  0  0  0  0
  -22.3669  -10.9652   19.6151 H   0  0  0  0  0  0
  -21.2002   -7.6138   23.9693 H   0  0  0  0  0  0
  -21.1493   -6.0530   25.9071 H   0  0  0  0  0  0
  -22.0594   -2.7596   23.2861 H   0  0  0  0  0  0
  -22.4120  -11.9830   22.4759 H   0  0  0  0  0  0
  -21.1117  -13.1206   22.2694 H   0  0  0  0  0  0
  -24.6570  -15.8463   20.5307 H   0  0  0  0  0  0
  -26.2719  -15.6322   20.0828 H   0  0  0  0  0  0
  -26.7164  -32.5444   23.1074 H   0  0  0  0  0  0
  -25.0162  -33.9730   25.0466 H   0  0  0  0  0  0
  -22.7120  -31.3019   21.4041 H   0  0  0  0  0  0
  -23.3771  -35.9588   23.3306 H   0  0  0  0  0  0
  -24.3580  -36.8895   22.2062 H   0  0  0  0  0  0
  -23.7217  -37.6466   23.6663 H   0  0  0  0  0  0
  -26.0874  -31.5518   20.6017 H   0  0  0  0  0  0
  -26.8404  -30.8384   21.9984 H   0  0  0  0  0  0
  -28.1038  -28.9831   21.1980 H   0  0  0  0  0  0
  -25.9365  -25.9019   19.0622 H   0  0  0  0  0  0
  -23.9661  -27.2966   19.0302 H   0  0  0  0  0  0
  -23.7388  -30.5905   19.4016 H   0  0  0  0  0  0
  -22.7510  -29.2398   19.8634 H   0  0  0  0  0  0
  -25.1290  -36.1927   25.0821 H   0  0  0  0  0  0
  -20.9964  -28.3228   24.1435 H   0  0  0  0  0  0
  -20.5737  -26.2273   23.3608 H   0  0  0  0  0  0
  -21.6637  -26.7466   22.1175 H   0  0  0  0  0  0
  -19.6912  -25.6294   21.1266 H   0  0  0  0  0  0
  -19.6693  -27.3203   20.6779 H   0  0  0  0  0  0
  -17.4205  -26.6733   21.4018 H   0  0  0  0  0  0
  -18.0276  -26.0070   22.9007 H   0  0  0  0  0  0
  -19.7946  -30.7303   24.2250 H   0  0  0  0  0  0
  -17.5017  -31.6286   24.5159 H   0  0  0  0  0  0
  -15.5360  -30.2993   23.7685 H   0  0  0  0  0  0
  -15.8664  -28.0839   22.7072 H   0  0  0  0  0  0
  -24.5896  -30.7093   25.7761 H   0  0  0  0  0  0
  -24.8907  -32.2922   26.4839 H   0  0  0  0  0  0
  -25.8035  -30.8943   27.0226 H   0  0  0  0  0  0
  -26.2936  -29.6802   24.1177 H   0  0  0  0  0  0
  -27.4120  -29.7301   25.4612 H   0  0  0  0  0  0
  -27.8756  -30.4392   23.9323 H   0  0  0  0  0  0
  -27.2649  -33.3685   26.2007 H   0  0  0  0  0  0
  -28.3871  -32.6904   25.0324 H   0  0  0  0  0  0
  -28.0685  -31.8535   26.5448 H   0  0  0  0  0  0
  -28.2582  -38.0100   24.7544 H   0  0  0  0  0  0
  -28.1085  -36.2632   24.6259 H   0  0  0  0  0  0
  -27.2298  -37.1383   25.8878 H   0  0  0  0  0  0
  -20.9396  -29.8758   21.6925 H   0  0  0  0  0  0
  -26.0169  -38.2850   24.1445 H   0  0  0  0  0  0
  -30.6002  -22.2440   22.0447 H   0  0  0  0  0  0
  -27.3087  -19.9143   18.9743 H   0  0  0  0  0  0
  -28.8573  -19.8702   18.1155 H   0  0  0  0  0  0
  -27.5997  -20.9813   17.5991 H   0  0  0  0  0  0
  -30.7393  -19.8962   21.6350 H   0  0  0  0  0  0
  -30.9790  -19.7747   19.9316 H   0  0  0  0  0  0
  -27.8138  -25.2750   18.5112 H   0  0  0  0  0  0
  -29.4682  -25.5012   18.7982 H   0  0  0  0  0  0
  -28.9219  -18.2598   19.7637 H   0  0  0  0  0  0
  -28.7125  -18.3993   21.4885 H   0  0  0  0  0  0
  -30.9314  -17.2664   21.8699 H   0  0  0  0  0  0
  -31.2529  -17.2626   20.1663 H   0  0  0  0  0  0
  -28.9478  -15.6054   21.0397 H   0  0  0  0  0  0
  1 25  1  0  0  0
  1 30  2  0  0  0
  1 82  1  0  0  0
  2  3  1  0  0  0
  2 25  1  0  0  0
  2 83  1  0  0  0
  2 84  1  0  0  0
  3  4  1  0  0  0
  3 85  1  0  0  0
  3 86  1  0  0  0
  4  5  1  0  0  0
  4 87  1  0  0  0
  4 88  1  0  0  0
  5  6  1  0  0  0
  5 26  1  0  0  0
  5 89  1  0  0  0
  6 25  1  0  0  0
  6 90  1  0  0  0
  6 91  1  0  0  0
  7  8  2  0  0  0
  7 26  1  0  0  0
  7 29  1  0  0  0
  8  9  1  0  0  0
  8 22  1  0  0  0
  9 10  1  0  0  0
  9 27  2  0  0  0
 10 11  2  0  0  0
 10 15  1  0  0  0
 11 12  1  0  0  0
 11 92  1  0  0  0
 12 13  2  0  0  0
 12 93  1  0  0  0
 13 14  1  0  0  0
 13 31  1  0  0  0
 14 15  2  0  0  0
 14 94  1  0  0  0
 15 95  1  0  0  0
 16 17  2  0  0  0
 16 21  1  0  0  0
 16 31  1  0  0  0
 17 18  1  0  0  0
 17 96  1  0  0  0
 18 19  2  0  0  0
 18 97  1  0  0  0
 19 20  1  0  0  0
 19 24  1  0  0  0
 20 21  2  0  0  0
 20 98  1  0  0  0
 21 23  1  0  0  0
 22 28  1  0  0  0
 22 32  2  0  0  0
 26 27  1  0  0  0
 28 99  1  0  0  0
 28100  1  0  0  0
 29101  1  0  0  0
 29102  1  0  0  0
 33 34  1  0  0  0
 33 66  1  0  0  0
 33 70  2  0  0  0
 34 36  1  0  0  0
 34 59  1  0  0  0
 34103  1  0  0  0
 35 44  2  0  0  0
 35 45  1  0  0  0
 35 68  1  0  0  0
 36 56  1  0  0  0
 36104  1  0  0  0
 37 39  1  0  0  0
 37 47  1  0  0  0
 37 66  1  0  0  0
 37105  1  0  0  0
 38 43  2  0  0  0
 38 46  1  0  0  0
 38 47  1  0  0  0
 39 64  1  0  0  0
 39 67  2  0  0  0
 40 52  1  0  0  0
 40 53  2  0  0  0
 40 58  1  0  0  0
 41106  1  0  0  0
 41107  1  0  0  0
 41108  1  0  0  0
 41 48  1  0  0  0
 42 43  1  0  0  0
 42 66  1  0  0  0
 42109  1  0  0  0
 42110  1  0  0  0
 43 44  1  0  0  0
 44111  1  0  0  0
 45 46  2  0  0  0
 45112  1  0  0  0
 46113  1  0  0  0
 47114  1  0  0  0
 47115  1  0  0  0
 48 56  1  0  0  0
 48 65  1  0  0  0
 48116  1  0  0  0
 49 50  1  0  0  0
 49 53  1  0  0  0
 49 64  1  0  0  0
 49117  1  0  0  0
 50 51  1  0  0  0
 50118  1  0  0  0
 50119  1  0  0  0
 51 52  1  0  0  0
 51120  1  0  0  0
 51121  1  0  0  0
 52122  1  0  0  0
 52123  1  0  0  0
 53 54  1  0  0  0
 54 55  2  0  0  0
 54124  1  0  0  0
 55 57  1  0  0  0
 55125  1  0  0  0
 56 69  2  0  0  0
 57 58  2  0  0  0
 57126  1  0  0  0
 58127  1  0  0  0
 59 60  1  0  0  0
 59 61  1  0  0  0
 59 62  1  0  0  0
 60128  1  0  0  0
 60129  1  0  0  0
 60130  1  0  0  0
 61131  1  0  0  0
 61132  1  0  0  0
 61133  1  0  0  0
 62134  1  0  0  0
 62135  1  0  0  0
 62136  1  0  0  0
 63 65  1  0  0  0
 63137  1  0  0  0
 63138  1  0  0  0
 63139  1  0  0  0
 64140  1  0  0  0
 65141  1  0  0  0
 68 77  1  0  0  0
 71 72  2  0  0  0
 71 80  1  0  0  0
 71142  1  0  0  0
 72 73  1  0  0  0
 72 76  1  0  0  0
 73 75  1  0  0  0
 73 81  2  0  0  0
 74 77  1  0  0  0
 74 80  2  0  0  0
 74 81  1  0  0  0
 75143  1  0  0  0
 75144  1  0  0  0
 75145  1  0  0  0
 76 78  1  0  0  0
 76146  1  0  0  0
 76147  1  0  0  0
 77148  1  0  0  0
 77149  1  0  0  0
 78 79  1  0  0  0
 78150  1  0  0  0
 78151  1  0  0  0
 79 82  1  0  0  0
 79152  1  0  0  0
 79153  1  0  0  0
 82154  1  0  0  0
M  ISO  4   1 100  68 101  77 101  82 100
M  END
> <chiral flag>
0

> <version>
0

> <s_m_source_file>
/data/baiqing/PycharmProjects/Reinvent-master-3.2/result/LINK_invent/BTK/process_docking_weight1_custom_sum_contain_oxygen_bond_distance_aromatic_linkinvent_7_9_3/rearranged_h_0042.sdf

> <i_m_source_file_index>
45

> <r_mmod_Potential_Energy-OPLS-2005>
-286.044464111328

> <r_mmod_Stretch_Energy-OPLS-2005>
78.9375991821289

> <r_mmod_Bend_Energy-OPLS-2005>
161.008926391602

> <r_mmod_Torsional_Energy-OPLS-2005>
205.703338623047

> <r_mmod_Improper_Torsional_Energy-OPLS-2005>
6.7417140007019

> <r_mmod_Van_der_Waal_Energy-OPLS-2005>
151.665405273438

> <r_mmod_Electrostatic_Energy-OPLS-2005>
-700.481689453125

> <r_mmod_Solvation_Energy-OPLS-2005>
-237.714019775391

> <b_mmod_Minimization_Converged-OPLS-2005>
0

> <r_mmod_RMS_Derivative-OPLS-2005>
1.9105007648468

$$$$
46
                    3D
 Structure written by MMmdl.
166174  0  0  1  0            999 V2000
  -30.7439  -14.4445   20.6927 C   0  0  0  0  0  0
  -30.4199  -12.3287   19.4364 C   0  0  0  0  0  0
  -29.4982  -12.5175   18.2144 C   0  0  0  0  0  0
  -28.0200  -12.3707   18.6215 C   0  0  0  0  0  0
  -27.6575  -13.2066   19.8771 C   0  0  2  0  0  0
  -28.6928  -12.9904   21.0052 C   0  0  0  0  0  0
  -25.2584  -13.8193   20.5680 C   0  0  0  0  0  0
  -24.1815  -13.0475   20.9169 C   0  0  0  0  0  0
  -24.6373  -11.6939   20.8708 C   0  0  0  0  0  0
  -23.9042  -10.4312   21.0387 C   0  0  0  0  0  0
  -24.3603   -9.4238   21.9156 C   0  0  0  0  0  0
  -23.6290   -8.2261   22.0731 C   0  0  0  0  0  0
  -22.4293   -8.0282   21.3521 C   0  0  0  0  0  0
  -21.9906   -9.0245   20.4632 C   0  0  0  0  0  0
  -22.7214  -10.2133   20.3028 C   0  0  0  0  0  0
  -21.6849   -6.0750   22.5280 C   0  0  0  0  0  0
  -21.4047   -6.5657   23.8213 C   0  0  0  0  0  0
  -21.3643   -5.6792   24.9157 C   0  0  0  0  0  0
  -21.6046   -4.3061   24.7210 C   0  0  0  0  0  0
  -21.8819   -3.8158   23.4332 C   0  0  0  0  0  0
  -21.9199   -4.6979   22.3399 C   0  0  0  0  0  0
  -22.7841  -13.5269   21.1870 C   0  0  0  0  0  0
  -22.1669   -4.2178   21.0966 F   0  0  0  0  0  0
  -21.5600   -3.4536   25.7708 F   0  0  0  0  0  0
  -30.0296  -13.3015   20.4720 N   0  0  0  0  0  0
  -26.2980  -12.9324   20.3329 N   0  0  0  0  0  0
  -25.9296  -11.6492   20.5740 N   0  0  0  0  0  0
  -22.0499  -12.8228   22.0429 N   0  0  0  0  0  0
  -25.4324  -15.1908   20.4115 N   0  0  0  0  0  0
  -31.8158  -14.6667   20.1185 O   0  0  0  0  0  0
  -21.6676   -6.8884   21.4231 O   0  0  0  0  0  0
  -22.3523  -14.5577   20.6729 O   0  0  0  0  0  0
  -24.6109  -31.8705   23.2088 C   0  0  0  0  0  0
  -25.9014  -32.4847   23.8363 C   0  0  1  0  0  0
  -27.2315  -27.4518   20.1191 C   0  0  0  0  0  0
  -25.5864  -33.8643   24.2309 N   0  0  0  0  0  0
  -23.3981  -30.4938   21.5481 C   0  0  2  0  0  0
  -24.8467  -28.9599   20.1122 C   0  0  0  0  0  0
  -22.7392  -29.4687   22.4994 C   0  0  0  0  0  0
  -18.0268  -28.1406   22.8514 C   0  0  0  0  0  0
  -24.1464  -36.7328   23.2633 C   0  0  0  0  0  0
  -25.9192  -30.8510   21.3451 C   0  0  0  0  0  0
  -26.0026  -29.4805   20.7070 C   0  0  0  0  0  0
  -27.2014  -28.7325   20.7093 C   0  0  0  0  0  0
  -26.0708  -26.9489   19.4974 C   0  0  0  0  0  0
  -24.8723  -27.6935   19.5008 C   0  0  0  0  0  0
  -23.6048  -29.8249   20.1621 C   0  0  0  0  0  0
  -25.4088  -36.3145   24.0344 C   0  0  1  0  0  0
  -20.5868  -28.3683   23.1334 C   0  0  2  0  0  0
  -20.6772  -26.9430   22.5427 C   0  0  0  0  0  0
  -19.5755  -26.6409   21.5234 C   0  0  0  0  0  0
  -18.1929  -26.7958   22.1641 C   0  0  0  0  0  0
  -19.1521  -28.8859   23.2920 C   0  0  0  0  0  0
  -18.9452  -30.1472   23.8942 C   0  0  0  0  0  0
  -17.6466  -30.6612   24.0584 C   0  0  0  0  0  0
  -25.9028  -34.9507   23.5127 C   0  0  0  0  0  0
  -16.5354  -29.9148   23.6320 C   0  0  0  0  0  0
  -16.7261  -28.6552   23.0345 C   0  0  0  0  0  0
  -26.4473  -31.6575   25.0639 C   0  0  0  0  0  0
  -25.3778  -31.3669   26.1403 C   0  0  0  0  0  0
  -27.0229  -30.3007   24.5923 C   0  0  0  0  0  0
  -27.6038  -32.4256   25.7452 C   0  0  0  0  0  0
  -27.5575  -37.1824   24.8490 C   0  0  0  0  0  0
  -21.4111  -29.3052   22.3719 N   0  0  0  0  0  0
  -26.4267  -37.3815   23.9446 N   0  0  0  0  0  0
  -24.6627  -31.0856   22.0938 N   0  0  0  0  0  0
  -23.4176  -28.8245   23.3052 O   0  0  0  0  0  0
  -28.3603  -26.6672   20.1851 O   0  0  0  0  0  0
  -26.5601  -34.8944   22.4697 O   0  0  0  0  0  0
  -23.5312  -32.1422   23.7493 O   0  0  0  0  0  0
  -29.4690  -22.0937   21.9492 C   0  0  0  0  0  0
  -28.3732  -23.6240   23.4419 C   0  0  0  0  0  0
  -28.9657  -23.3927   22.1794 C   0  0  0  0  0  0
  -29.3378  -21.1306   22.9735 C   0  0  0  0  0  0
  -32.7909  -17.0983   23.9126 C   0  0  0  0  0  0
  -29.0940  -24.4644   21.0864 C   0  0  0  0  0  0
  -29.9617  -19.7468   22.8217 C   0  0  0  0  0  0
  -32.3651  -16.2054   22.7335 C   0  0  0  0  0  0
  -29.0050  -18.6291   22.3373 C   0  0  0  0  0  0
  -29.6085  -17.7512   21.2122 C   0  0  0  0  0  0
  -30.9405  -15.6114   22.8876 C   0  0  0  0  0  0
  -29.1697  -16.2616   21.2538 C   0  0  0  0  0  0
  -28.3432  -25.7986   21.3332 C   0  0  0  0  0  0
  -28.2610  -22.6515   24.3836 N   0  0  0  0  0  0
  -28.7190  -21.4160   24.1485 N   0  0  0  0  0  0
  -30.2483  -15.3123   21.6164 N   0  0  0  0  0  0
  -31.4646  -12.4301   19.1379 H   0  0  0  0  0  0
  -30.3295  -11.3175   19.8370 H   0  0  0  0  0  0
  -29.7435  -11.7856   17.4427 H   0  0  0  0  0  0
  -29.6654  -13.4971   17.7664 H   0  0  0  0  0  0
  -27.8223  -11.3167   18.8168 H   0  0  0  0  0  0
  -27.3772  -12.6487   17.7855 H   0  0  0  0  0  0
  -27.6931  -14.2494   19.5763 H   0  0  0  0  0  0
  -28.6751  -11.9546   21.3450 H   0  0  0  0  0  0
  -28.4266  -13.5851   21.8797 H   0  0  0  0  0  0
  -25.2743   -9.5771   22.4724 H   0  0  0  0  0  0
  -24.0021   -7.4692   22.7463 H   0  0  0  0  0  0
  -21.0830   -8.8789   19.8929 H   0  0  0  0  0  0
  -22.3683  -10.9687   19.6140 H   0  0  0  0  0  0
  -21.2094   -7.6177   23.9746 H   0  0  0  0  0  0
  -21.1433   -6.0504   25.9065 H   0  0  0  0  0  0
  -22.0624   -2.7642   23.2810 H   0  0  0  0  0  0
  -22.4057  -11.9854   22.4769 H   0  0  0  0  0  0
  -21.1086  -13.1211   22.2629 H   0  0  0  0  0  0
  -24.6700  -15.8451   20.5456 H   0  0  0  0  0  0
  -26.2959  -15.6393   20.1277 H   0  0  0  0  0  0
  -26.7103  -32.5615   23.1152 H   0  0  0  0  0  0
  -25.0040  -33.9801   25.0472 H   0  0  0  0  0  0
  -22.6859  -31.3073   21.4116 H   0  0  0  0  0  0
  -23.3721  -35.9674   23.3339 H   0  0  0  0  0  0
  -24.3544  -36.8897   22.2038 H   0  0  0  0  0  0
  -23.7236  -37.6548   23.6622 H   0  0  0  0  0  0
  -25.9956  -31.6042   20.5590 H   0  0  0  0  0  0
  -26.8205  -30.9319   21.9421 H   0  0  0  0  0  0
  -28.0955  -29.1271   21.1719 H   0  0  0  0  0  0
  -26.0862  -25.9732   19.0340 H   0  0  0  0  0  0
  -23.9848  -27.2875   19.0372 H   0  0  0  0  0  0
  -23.7112  -30.5999   19.4019 H   0  0  0  0  0  0
  -22.7289  -29.2470   19.8687 H   0  0  0  0  0  0
  -25.1273  -36.1991   25.0838 H   0  0  0  0  0  0
  -20.9955  -28.3268   24.1458 H   0  0  0  0  0  0
  -20.5673  -26.2326   23.3622 H   0  0  0  0  0  0
  -21.6637  -26.7494   22.1236 H   0  0  0  0  0  0
  -19.6903  -25.6324   21.1255 H   0  0  0  0  0  0
  -19.6672  -27.3235   20.6791 H   0  0  0  0  0  0
  -17.4193  -26.6708   21.4032 H   0  0  0  0  0  0
  -18.0298  -26.0088   22.9024 H   0  0  0  0  0  0
  -19.7917  -30.7263   24.2303 H   0  0  0  0  0  0
  -17.5028  -31.6271   24.5195 H   0  0  0  0  0  0
  -15.5358  -30.3073   23.7602 H   0  0  0  0  0  0
  -15.8661  -28.0885   22.7047 H   0  0  0  0  0  0
  -24.6017  -30.6915   25.7817 H   0  0  0  0  0  0
  -24.8870  -32.2785   26.4777 H   0  0  0  0  0  0
  -25.8148  -30.8952   27.0204 H   0  0  0  0  0  0
  -26.2703  -29.6862   24.0953 H   0  0  0  0  0  0
  -27.4000  -29.7143   25.4318 H   0  0  0  0  0  0
  -27.8554  -30.4340   23.9024 H   0  0  0  0  0  0
  -27.2665  -33.3566   26.2018 H   0  0  0  0  0  0
  -28.3889  -32.6766   25.0321 H   0  0  0  0  0  0
  -28.0653  -31.8357   26.5383 H   0  0  0  0  0  0
  -28.2640  -38.0078   24.7488 H   0  0  0  0  0  0
  -28.1002  -36.2598   24.6358 H   0  0  0  0  0  0
  -27.2281  -37.1564   25.8888 H   0  0  0  0  0  0
  -20.9242  -29.8768   21.6947 H   0  0  0  0  0  0
  -26.0160  -38.2892   24.1421 H   0  0  0  0  0  0
  -29.9636  -21.8386   21.0203 H   0  0  0  0  0  0
  -27.9856  -24.5915   23.7263 H   0  0  0  0  0  0
  -33.8393  -17.3916   23.8158 H   0  0  0  0  0  0
  -32.6705  -16.5924   24.8711 H   0  0  0  0  0  0
  -32.2119  -18.0220   23.9458 H   0  0  0  0  0  0
  -28.7243  -24.0230   20.1608 H   0  0  0  0  0  0
  -30.1546  -24.6636   20.9399 H   0  0  0  0  0  0
  -30.3860  -19.4447   23.7805 H   0  0  0  0  0  0
  -30.8240  -19.8504   22.1608 H   0  0  0  0  0  0
  -33.0821  -15.3913   22.6261 H   0  0  0  0  0  0
  -32.4610  -16.7943   21.8222 H   0  0  0  0  0  0
  -28.0634  -19.0507   21.9801 H   0  0  0  0  0  0
  -28.7445  -18.0176   23.2011 H   0  0  0  0  0  0
  -30.6920  -17.8281   21.2019 H   0  0  0  0  0  0
  -29.3082  -18.1828   20.2568 H   0  0  0  0  0  0
  -30.3226  -16.2909   23.4794 H   0  0  0  0  0  0
  -30.9834  -14.6920   23.4724 H   0  0  0  0  0  0
  -28.7929  -16.0132   20.2624 H   0  0  0  0  0  0
  -28.3179  -16.1165   21.9197 H   0  0  0  0  0  0
  -28.7823  -26.3265   22.1809 H   0  0  0  0  0  0
  -27.3169  -25.5612   21.6194 H   0  0  0  0  0  0
  1 25  1  0  0  0
  1 30  2  0  0  0
  1 86  1  0  0  0
  2  3  1  0  0  0
  2 25  1  0  0  0
  2 87  1  0  0  0
  2 88  1  0  0  0
  3  4  1  0  0  0
  3 89  1  0  0  0
  3 90  1  0  0  0
  4  5  1  0  0  0
  4 91  1  0  0  0
  4 92  1  0  0  0
  5  6  1  0  0  0
  5 26  1  0  0  0
  5 93  1  0  0  0
  6 25  1  0  0  0
  6 94  1  0  0  0
  6 95  1  0  0  0
  7  8  2  0  0  0
  7 26  1  0  0  0
  7 29  1  0  0  0
  8  9  1  0  0  0
  8 22  1  0  0  0
  9 10  1  0  0  0
  9 27  2  0  0  0
 10 11  2  0  0  0
 10 15  1  0  0  0
 11 12  1  0  0  0
 11 96  1  0  0  0
 12 13  2  0  0  0
 12 97  1  0  0  0
 13 14  1  0  0  0
 13 31  1  0  0  0
 14 15  2  0  0  0
 14 98  1  0  0  0
 15 99  1  0  0  0
 16 17  2  0  0  0
 16 21  1  0  0  0
 16 31  1  0  0  0
 17 18  1  0  0  0
 17100  1  0  0  0
 18 19  2  0  0  0
 18101  1  0  0  0
 19 20  1  0  0  0
 19 24  1  0  0  0
 20 21  2  0  0  0
 20102  1  0  0  0
 21 23  1  0  0  0
 22 28  1  0  0  0
 22 32  2  0  0  0
 26 27  1  0  0  0
 28103  1  0  0  0
 28104  1  0  0  0
 29105  1  0  0  0
 29106  1  0  0  0
 33 34  1  0  0  0
 33 66  1  0  0  0
 33 70  2  0  0  0
 34 36  1  0  0  0
 34 59  1  0  0  0
 34107  1  0  0  0
 35 44  2  0  0  0
 35 45  1  0  0  0
 35 68  1  0  0  0
 36 56  1  0  0  0
 36108  1  0  0  0
 37 39  1  0  0  0
 37 47  1  0  0  0
 37 66  1  0  0  0
 37109  1  0  0  0
 38 43  2  0  0  0
 38 46  1  0  0  0
 38 47  1  0  0  0
 39 64  1  0  0  0
 39 67  2  0  0  0
 40 52  1  0  0  0
 40 53  2  0  0  0
 40 58  1  0  0  0
 41110  1  0  0  0
 41111  1  0  0  0
 41112  1  0  0  0
 41 48  1  0  0  0
 42 43  1  0  0  0
 42 66  1  0  0  0
 42113  1  0  0  0
 42114  1  0  0  0
 43 44  1  0  0  0
 44115  1  0  0  0
 45 46  2  0  0  0
 45116  1  0  0  0
 46117  1  0  0  0
 47118  1  0  0  0
 47119  1  0  0  0
 48 56  1  0  0  0
 48 65  1  0  0  0
 48120  1  0  0  0
 49 50  1  0  0  0
 49 53  1  0  0  0
 49 64  1  0  0  0
 49121  1  0  0  0
 50 51  1  0  0  0
 50122  1  0  0  0
 50123  1  0  0  0
 51 52  1  0  0  0
 51124  1  0  0  0
 51125  1  0  0  0
 52126  1  0  0  0
 52127  1  0  0  0
 53 54  1  0  0  0
 54 55  2  0  0  0
 54128  1  0  0  0
 55 57  1  0  0  0
 55129  1  0  0  0
 56 69  2  0  0  0
 57 58  2  0  0  0
 57130  1  0  0  0
 58131  1  0  0  0
 59 60  1  0  0  0
 59 61  1  0  0  0
 59 62  1  0  0  0
 60132  1  0  0  0
 60133  1  0  0  0
 60134  1  0  0  0
 61135  1  0  0  0
 61136  1  0  0  0
 61137  1  0  0  0
 62138  1  0  0  0
 62139  1  0  0  0
 62140  1  0  0  0
 63 65  1  0  0  0
 63141  1  0  0  0
 63142  1  0  0  0
 63143  1  0  0  0
 64144  1  0  0  0
 65145  1  0  0  0
 68 83  1  0  0  0
 71 73  2  0  0  0
 71 74  1  0  0  0
 71146  1  0  0  0
 72 73  1  0  0  0
 72 84  2  0  0  0
 72147  1  0  0  0
 73 76  1  0  0  0
 74 77  1  0  0  0
 74 85  2  0  0  0
 75 78  1  0  0  0
 75148  1  0  0  0
 75149  1  0  0  0
 75150  1  0  0  0
 76 83  1  0  0  0
 76151  1  0  0  0
 76152  1  0  0  0
 77 79  1  0  0  0
 77153  1  0  0  0
 77154  1  0  0  0
 78 81  1  0  0  0
 78155  1  0  0  0
 78156  1  0  0  0
 79 80  1  0  0  0
 79157  1  0  0  0
 79158  1  0  0  0
 80 82  1  0  0  0
 80159  1  0  0  0
 80160  1  0  0  0
 81 86  1  0  0  0
 81161  1  0  0  0
 81162  1  0  0  0
 82 86  1  0  0  0
 82163  1  0  0  0
 82164  1  0  0  0
 83165  1  0  0  0
 83166  1  0  0  0
 84 85  1  0  0  0
M  ISO  4   1 100  68 101  83 101  86 100
M  END
> <chiral flag>
0

> <version>
0

> <s_m_source_file>
/data/baiqing/PycharmProjects/Reinvent-master-3.2/result/LINK_invent/BTK/process_docking_weight1_custom_sum_contain_oxygen_bond_distance_aromatic_linkinvent_7_9_3/rearranged_h_0042.sdf

> <i_m_source_file_index>
46

> <r_mmod_Potential_Energy-OPLS-2005>
217.275848388672

> <r_mmod_Stretch_Energy-OPLS-2005>
42.1692810058594

> <r_mmod_Bend_Energy-OPLS-2005>
98.9379730224609

> <r_mmod_Torsional_Energy-OPLS-2005>
354.835327148438

> <r_mmod_Improper_Torsional_Energy-OPLS-2005>
2.35252404212952

> <r_mmod_Van_der_Waal_Energy-OPLS-2005>
150.264633178711

> <r_mmod_Electrostatic_Energy-OPLS-2005>
-232.454238891602

> <r_mmod_Solvation_Energy-OPLS-2005>
-211.950607299805

> <b_mmod_Minimization_Converged-OPLS-2005>
0

> <r_mmod_RMS_Derivative-OPLS-2005>
5.75740385055542

$$$$
47
                    3D
 Structure written by MMmdl.
164172  0  0  1  0            999 V2000
  -30.8115  -14.2856   20.7525 C   0  0  0  0  0  0
  -30.4150  -12.2829   19.3711 C   0  0  0  0  0  0
  -29.4756  -12.5403   18.1808 C   0  0  0  0  0  0
  -28.0029  -12.3926   18.6018 C   0  0  0  0  0  0
  -27.6694  -13.2008   19.8817 C   0  0  2  0  0  0
  -28.7058  -12.9215   20.9913 C   0  0  0  0  0  0
  -25.2620  -13.8156   20.5675 C   0  0  0  0  0  0
  -24.1855  -13.0437   20.9153 C   0  0  0  0  0  0
  -24.6396  -11.6905   20.8721 C   0  0  0  0  0  0
  -23.9062  -10.4293   21.0393 C   0  0  0  0  0  0
  -24.3612   -9.4216   21.9180 C   0  0  0  0  0  0
  -23.6287   -8.2252   22.0762 C   0  0  0  0  0  0
  -22.4274   -8.0281   21.3540 C   0  0  0  0  0  0
  -21.9916   -9.0249   20.4636 C   0  0  0  0  0  0
  -22.7238  -10.2130   20.3036 C   0  0  0  0  0  0
  -21.6846   -6.0732   22.5278 C   0  0  0  0  0  0
  -21.4007   -6.5639   23.8211 C   0  0  0  0  0  0
  -21.3656   -5.6797   24.9180 C   0  0  0  0  0  0
  -21.6048   -4.3061   24.7232 C   0  0  0  0  0  0
  -21.8821   -3.8147   23.4352 C   0  0  0  0  0  0
  -21.9190   -4.6961   22.3403 C   0  0  0  0  0  0
  -22.7881  -13.5243   21.1816 C   0  0  0  0  0  0
  -22.1664   -4.2147   21.0978 F   0  0  0  0  0  0
  -21.5630   -3.4543   25.7744 F   0  0  0  0  0  0
  -30.0560  -13.1983   20.4617 N   0  0  0  0  0  0
  -26.3059  -12.9318   20.3379 N   0  0  0  0  0  0
  -25.9319  -11.6478   20.5743 N   0  0  0  0  0  0
  -22.0511  -12.8220   22.0355 N   0  0  0  0  0  0
  -25.4377  -15.1872   20.4113 N   0  0  0  0  0  0
  -31.7764  -14.6480   20.0730 O   0  0  0  0  0  0
  -21.6636   -6.8876   21.4241 O   0  0  0  0  0  0
  -22.3577  -14.5557   20.6680 O   0  0  0  0  0  0
  -24.6107  -31.8700   23.2141 C   0  0  0  0  0  0
  -25.9020  -32.4831   23.8425 C   0  0  1  0  0  0
  -27.2387  -27.4731   20.0619 C   0  0  0  0  0  0
  -25.5908  -33.8635   24.2346 N   0  0  0  0  0  0
  -23.3949  -30.4930   21.5569 C   0  0  2  0  0  0
  -24.8365  -28.9589   20.1192 C   0  0  0  0  0  0
  -22.7359  -29.4675   22.5058 C   0  0  0  0  0  0
  -18.0249  -28.1361   22.8518 C   0  0  0  0  0  0
  -24.1488  -36.7297   23.2635 C   0  0  0  0  0  0
  -25.9193  -30.8404   21.3639 C   0  0  0  0  0  0
  -25.9933  -29.4754   20.7146 C   0  0  0  0  0  0
  -27.1907  -28.7320   20.6957 C   0  0  0  0  0  0
  -26.0593  -26.9594   19.4717 C   0  0  0  0  0  0
  -24.8615  -27.6960   19.5036 C   0  0  0  0  0  0
  -23.5951  -29.8191   20.1727 C   0  0  0  0  0  0
  -25.4118  -36.3119   24.0327 C   0  0  1  0  0  0
  -20.5828  -28.3659   23.1351 C   0  0  2  0  0  0
  -20.6739  -26.9404   22.5427 C   0  0  0  0  0  0
  -19.5710  -26.6387   21.5222 C   0  0  0  0  0  0
  -18.1884  -26.7921   22.1623 C   0  0  0  0  0  0
  -19.1496  -28.8829   23.2919 C   0  0  0  0  0  0
  -18.9425  -30.1442   23.8916 C   0  0  0  0  0  0
  -17.6428  -30.6580   24.0569 C   0  0  0  0  0  0
  -25.9051  -34.9478   23.5137 C   0  0  0  0  0  0
  -16.5321  -29.9077   23.6336 C   0  0  0  0  0  0
  -16.7242  -28.6485   23.0379 C   0  0  0  0  0  0
  -26.4461  -31.6605   25.0744 C   0  0  0  0  0  0
  -25.3733  -31.3672   26.1488 C   0  0  0  0  0  0
  -27.0305  -30.3064   24.6106 C   0  0  0  0  0  0
  -27.6054  -32.4304   25.7508 C   0  0  0  0  0  0
  -27.5587  -37.1806   24.8453 C   0  0  0  0  0  0
  -21.4095  -29.3034   22.3771 N   0  0  0  0  0  0
  -26.4293  -37.3814   23.9417 N   0  0  0  0  0  0
  -24.6597  -31.0809   22.1042 N   0  0  0  0  0  0
  -23.4143  -28.8214   23.3091 O   0  0  0  0  0  0
  -28.4500  -26.8198   20.0444 O   0  0  0  0  0  0
  -26.5596  -34.8920   22.4689 O   0  0  0  0  0  0
  -23.5310  -32.1459   23.7554 O   0  0  0  0  0  0
  -29.5963  -20.9004   17.6933 C   0  0  0  0  0  0
  -28.5820  -21.8963   19.6466 C   0  0  0  0  0  0
  -29.0108  -20.7471   18.9620 C   0  0  0  0  0  0
  -29.7019  -22.1925   17.1495 C   0  0  0  0  0  0
  -28.7307  -23.1518   19.0339 C   0  0  0  0  0  0
  -30.3315  -22.4157   15.7903 C   0  0  0  0  0  0
  -28.8765  -19.3823   19.6016 C   0  0  0  0  0  0
  -28.2596  -24.3945   19.7783 C   0  0  0  0  0  0
  -30.1708  -18.9741   20.3123 C   0  0  0  0  0  0
  -30.0085  -17.6843   21.1212 C   0  0  0  0  0  0
  -31.3278  -17.2390   21.7720 C   0  0  0  0  0  0
  -31.2117  -15.9446   22.5995 C   0  0  0  0  0  0
  -28.6584  -25.7374   19.1393 C   0  0  0  0  0  0
  -29.2641  -23.2950   17.7972 N   0  0  0  0  0  0
  -30.5004  -14.8652   21.9186 N   0  0  0  0  0  0
  -31.4547  -12.3969   19.0578 H   0  0  0  0  0  0
  -30.3230  -11.2514   19.7148 H   0  0  0  0  0  0
  -29.7011  -11.8521   17.3652 H   0  0  0  0  0  0
  -29.6468  -13.5447   17.7902 H   0  0  0  0  0  0
  -27.8048  -11.3334   18.7687 H   0  0  0  0  0  0
  -27.3478  -12.7012   17.7864 H   0  0  0  0  0  0
  -27.7363  -14.2580   19.6242 H   0  0  0  0  0  0
  -28.6556  -11.8758   21.2995 H   0  0  0  0  0  0
  -28.4492  -13.4977   21.8799 H   0  0  0  0  0  0
  -25.2756   -9.5696   22.4758 H   0  0  0  0  0  0
  -23.9991   -7.4656   22.7496 H   0  0  0  0  0  0
  -21.0855   -8.8762   19.8934 H   0  0  0  0  0  0
  -22.3704  -10.9663   19.6138 H   0  0  0  0  0  0
  -21.1997   -7.6149   23.9714 H   0  0  0  0  0  0
  -21.1475   -6.0527   25.9081 H   0  0  0  0  0  0
  -22.0599   -2.7608   23.2857 H   0  0  0  0  0  0
  -22.4119  -11.9855   22.4702 H   0  0  0  0  0  0
  -21.1123  -13.1238   22.2545 H   0  0  0  0  0  0
  -24.6803  -15.8504   20.5336 H   0  0  0  0  0  0
  -26.3024  -15.6232   20.1156 H   0  0  0  0  0  0
  -26.7096  -32.5557   23.1201 H   0  0  0  0  0  0
  -25.0105  -33.9833   25.0520 H   0  0  0  0  0  0
  -22.6828  -31.3085   21.4193 H   0  0  0  0  0  0
  -23.3796  -35.9577   23.3233 H   0  0  0  0  0  0
  -24.3582  -36.9006   22.2064 H   0  0  0  0  0  0
  -23.7179  -37.6445   23.6712 H   0  0  0  0  0  0
  -26.0233  -31.6060   20.5938 H   0  0  0  0  0  0
  -26.8106  -30.8975   21.9769 H   0  0  0  0  0  0
  -28.0884  -29.1328   21.1452 H   0  0  0  0  0  0
  -26.0431  -26.0017   18.9733 H   0  0  0  0  0  0
  -23.9700  -27.2917   19.0431 H   0  0  0  0  0  0
  -23.6871  -30.5880   19.4046 H   0  0  0  0  0  0
  -22.7213  -29.2279   19.8934 H   0  0  0  0  0  0
  -25.1291  -36.1989   25.0818 H   0  0  0  0  0  0
  -20.9899  -28.3216   24.1484 H   0  0  0  0  0  0
  -20.5674  -26.2254   23.3597 H   0  0  0  0  0  0
  -21.6609  -26.7465   22.1215 H   0  0  0  0  0  0
  -19.6873  -25.6307   21.1236 H   0  0  0  0  0  0
  -19.6644  -27.3205   20.6754 H   0  0  0  0  0  0
  -17.4169  -26.6719   21.4003 H   0  0  0  0  0  0
  -18.0244  -26.0037   22.8979 H   0  0  0  0  0  0
  -19.7899  -30.7259   24.2276 H   0  0  0  0  0  0
  -17.4985  -31.6263   24.5164 H   0  0  0  0  0  0
  -15.5323  -30.2986   23.7649 H   0  0  0  0  0  0
  -15.8638  -28.0800   22.7113 H   0  0  0  0  0  0
  -24.5846  -30.7124   25.7772 H   0  0  0  0  0  0
  -24.8998  -32.2818   26.5056 H   0  0  0  0  0  0
  -25.8069  -30.8699   27.0171 H   0  0  0  0  0  0
  -26.2852  -29.6808   24.1182 H   0  0  0  0  0  0
  -27.4125  -29.7320   25.4557 H   0  0  0  0  0  0
  -27.8659  -30.4412   23.9227 H   0  0  0  0  0  0
  -27.2735  -33.3669   26.2004 H   0  0  0  0  0  0
  -28.3910  -32.6740   25.0337 H   0  0  0  0  0  0
  -28.0643  -31.8440   26.5488 H   0  0  0  0  0  0
  -28.2549  -38.0154   24.7602 H   0  0  0  0  0  0
  -28.1147  -36.2695   24.6187 H   0  0  0  0  0  0
  -27.2297  -37.1338   25.8845 H   0  0  0  0  0  0
  -20.9238  -29.8773   21.7013 H   0  0  0  0  0  0
  -26.0175  -38.2879   24.1470 H   0  0  0  0  0  0
  -29.9615  -20.0380   17.1503 H   0  0  0  0  0  0
  -28.1468  -21.8207   20.6353 H   0  0  0  0  0  0
  -30.7212  -21.4856   15.3769 H   0  0  0  0  0  0
  -31.1589  -23.1218   15.8622 H   0  0  0  0  0  0
  -29.5972  -22.8149   15.0912 H   0  0  0  0  0  0
  -28.6123  -18.6477   18.8395 H   0  0  0  0  0  0
  -28.0475  -19.4014   20.3108 H   0  0  0  0  0  0
  -28.6887  -24.3497   20.7794 H   0  0  0  0  0  0
  -27.1802  -24.3289   19.9104 H   0  0  0  0  0  0
  -30.4888  -19.7777   20.9780 H   0  0  0  0  0  0
  -30.9608  -18.8532   19.5697 H   0  0  0  0  0  0
  -29.6378  -16.9069   20.4537 H   0  0  0  0  0  0
  -29.2472  -17.8223   21.8896 H   0  0  0  0  0  0
  -31.7042  -18.0342   22.4176 H   0  0  0  0  0  0
  -32.0870  -17.1078   20.9994 H   0  0  0  0  0  0
  -30.6721  -16.1568   23.5232 H   0  0  0  0  0  0
  -32.2014  -15.5971   22.8993 H   0  0  0  0  0  0
  -28.1653  -25.8951   18.1785 H   0  0  0  0  0  0
  -29.7268  -25.7281   18.9241 H   0  0  0  0  0  0
  -29.7253  -14.4521   22.4164 H   0  0  0  0  0  0
  1 25  1  0  0  0
  1 30  2  0  0  0
  1 85  1  0  0  0
  2  3  1  0  0  0
  2 25  1  0  0  0
  2 86  1  0  0  0
  2 87  1  0  0  0
  3  4  1  0  0  0
  3 88  1  0  0  0
  3 89  1  0  0  0
  4  5  1  0  0  0
  4 90  1  0  0  0
  4 91  1  0  0  0
  5  6  1  0  0  0
  5 26  1  0  0  0
  5 92  1  0  0  0
  6 25  1  0  0  0
  6 93  1  0  0  0
  6 94  1  0  0  0
  7  8  2  0  0  0
  7 26  1  0  0  0
  7 29  1  0  0  0
  8  9  1  0  0  0
  8 22  1  0  0  0
  9 10  1  0  0  0
  9 27  2  0  0  0
 10 11  2  0  0  0
 10 15  1  0  0  0
 11 12  1  0  0  0
 11 95  1  0  0  0
 12 13  2  0  0  0
 12 96  1  0  0  0
 13 14  1  0  0  0
 13 31  1  0  0  0
 14 15  2  0  0  0
 14 97  1  0  0  0
 15 98  1  0  0  0
 16 17  2  0  0  0
 16 21  1  0  0  0
 16 31  1  0  0  0
 17 18  1  0  0  0
 17 99  1  0  0  0
 18 19  2  0  0  0
 18100  1  0  0  0
 19 20  1  0  0  0
 19 24  1  0  0  0
 20 21  2  0  0  0
 20101  1  0  0  0
 21 23  1  0  0  0
 22 28  1  0  0  0
 22 32  2  0  0  0
 26 27  1  0  0  0
 28102  1  0  0  0
 28103  1  0  0  0
 29104  1  0  0  0
 29105  1  0  0  0
 33 34  1  0  0  0
 33 66  1  0  0  0
 33 70  2  0  0  0
 34 36  1  0  0  0
 34 59  1  0  0  0
 34106  1  0  0  0
 35 44  2  0  0  0
 35 45  1  0  0  0
 35 68  1  0  0  0
 36 56  1  0  0  0
 36107  1  0  0  0
 37 39  1  0  0  0
 37 47  1  0  0  0
 37 66  1  0  0  0
 37108  1  0  0  0
 38 43  2  0  0  0
 38 46  1  0  0  0
 38 47  1  0  0  0
 39 64  1  0  0  0
 39 67  2  0  0  0
 40 52  1  0  0  0
 40 53  2  0  0  0
 40 58  1  0  0  0
 41109  1  0  0  0
 41110  1  0  0  0
 41111  1  0  0  0
 41 48  1  0  0  0
 42 43  1  0  0  0
 42 66  1  0  0  0
 42112  1  0  0  0
 42113  1  0  0  0
 43 44  1  0  0  0
 44114  1  0  0  0
 45 46  2  0  0  0
 45115  1  0  0  0
 46116  1  0  0  0
 47117  1  0  0  0
 47118  1  0  0  0
 48 56  1  0  0  0
 48 65  1  0  0  0
 48119  1  0  0  0
 49 50  1  0  0  0
 49 53  1  0  0  0
 49 64  1  0  0  0
 49120  1  0  0  0
 50 51  1  0  0  0
 50121  1  0  0  0
 50122  1  0  0  0
 51 52  1  0  0  0
 51123  1  0  0  0
 51124  1  0  0  0
 52125  1  0  0  0
 52126  1  0  0  0
 53 54  1  0  0  0
 54 55  2  0  0  0
 54127  1  0  0  0
 55 57  1  0  0  0
 55128  1  0  0  0
 56 69  2  0  0  0
 57 58  2  0  0  0
 57129  1  0  0  0
 58130  1  0  0  0
 59 60  1  0  0  0
 59 61  1  0  0  0
 59 62  1  0  0  0
 60131  1  0  0  0
 60132  1  0  0  0
 60133  1  0  0  0
 61134  1  0  0  0
 61135  1  0  0  0
 61136  1  0  0  0
 62137  1  0  0  0
 62138  1  0  0  0
 62139  1  0  0  0
 63 65  1  0  0  0
 63140  1  0  0  0
 63141  1  0  0  0
 63142  1  0  0  0
 64143  1  0  0  0
 65144  1  0  0  0
 68 83  1  0  0  0
 71 73  2  0  0  0
 71 74  1  0  0  0
 71145  1  0  0  0
 72 73  1  0  0  0
 72 75  2  0  0  0
 72146  1  0  0  0
 73 77  1  0  0  0
 74 76  1  0  0  0
 74 84  2  0  0  0
 75 78  1  0  0  0
 75 84  1  0  0  0
 76147  1  0  0  0
 76148  1  0  0  0
 76149  1  0  0  0
 77 79  1  0  0  0
 77150  1  0  0  0
 77151  1  0  0  0
 78 83  1  0  0  0
 78152  1  0  0  0
 78153  1  0  0  0
 79 80  1  0  0  0
 79154  1  0  0  0
 79155  1  0  0  0
 80 81  1  0  0  0
 80156  1  0  0  0
 80157  1  0  0  0
 81 82  1  0  0  0
 81158  1  0  0  0
 81159  1  0  0  0
 82 85  1  0  0  0
 82160  1  0  0  0
 82161  1  0  0  0
 83162  1  0  0  0
 83163  1  0  0  0
 85164  1  0  0  0
M  ISO  4   1 100  68 101  83 101  85 100
M  END
> <chiral flag>
0

> <version>
0

> <s_m_source_file>
/data/baiqing/PycharmProjects/Reinvent-master-3.2/result/LINK_invent/BTK/process_docking_weight1_custom_sum_contain_oxygen_bond_distance_aromatic_linkinvent_7_9_3/rearranged_h_0042.sdf

> <i_m_source_file_index>
47

> <r_mmod_Potential_Energy-OPLS-2005>
-234.926620483398

> <r_mmod_Stretch_Energy-OPLS-2005>
30.2603950500488

> <r_mmod_Bend_Energy-OPLS-2005>
95.5914840698242

> <r_mmod_Torsional_Energy-OPLS-2005>
195.869018554688

> <r_mmod_Improper_Torsional_Energy-OPLS-2005>
2.51897859573364

> <r_mmod_Van_der_Waal_Energy-OPLS-2005>
159.861679077148

> <r_mmod_Electrostatic_Energy-OPLS-2005>
-513.934448242188

> <r_mmod_Solvation_Energy-OPLS-2005>
-214.375213623047

> <b_mmod_Minimization_Converged-OPLS-2005>
0

> <r_mmod_RMS_Derivative-OPLS-2005>
1.68064570426941

$$$$
48
                    3D
 Structure written by MMmdl.
160168  0  0  1  0            999 V2000
  -30.7509  -14.4256   20.6278 C   0  0  0  0  0  0
  -30.4172  -12.3074   19.4033 C   0  0  0  0  0  0
  -29.4809  -12.5105   18.1977 C   0  0  0  0  0  0
  -28.0088  -12.3604   18.6195 C   0  0  0  0  0  0
  -27.6614  -13.2038   19.8747 C   0  0  2  0  0  0
  -28.7058  -12.9845   20.9919 C   0  0  0  0  0  0
  -25.2586  -13.8162   20.5690 C   0  0  0  0  0  0
  -24.1832  -13.0433   20.9192 C   0  0  0  0  0  0
  -24.6383  -11.6906   20.8749 C   0  0  0  0  0  0
  -23.9046  -10.4285   21.0410 C   0  0  0  0  0  0
  -24.3599   -9.4200   21.9185 C   0  0  0  0  0  0
  -23.6294   -8.2227   22.0753 C   0  0  0  0  0  0
  -22.4275   -8.0271   21.3551 C   0  0  0  0  0  0
  -21.9905   -9.0230   20.4646 C   0  0  0  0  0  0
  -22.7222  -10.2119   20.3056 C   0  0  0  0  0  0
  -21.6844   -6.0733   22.5279 C   0  0  0  0  0  0
  -21.4010   -6.5631   23.8213 C   0  0  0  0  0  0
  -21.3663   -5.6792   24.9179 C   0  0  0  0  0  0
  -21.6047   -4.3057   24.7231 C   0  0  0  0  0  0
  -21.8819   -3.8149   23.4350 C   0  0  0  0  0  0
  -21.9196   -4.6963   22.3410 C   0  0  0  0  0  0
  -22.7863  -13.5245   21.1850 C   0  0  0  0  0  0
  -22.1664   -4.2143   21.0989 F   0  0  0  0  0  0
  -21.5628   -3.4544   25.7743 F   0  0  0  0  0  0
  -30.0374  -13.2841   20.4358 N   0  0  0  0  0  0
  -26.3018  -12.9324   20.3383 N   0  0  0  0  0  0
  -25.9309  -11.6492   20.5787 N   0  0  0  0  0  0
  -22.0517  -12.8211   22.0399 N   0  0  0  0  0  0
  -25.4345  -15.1869   20.4068 N   0  0  0  0  0  0
  -31.8472  -14.6288   20.1021 O   0  0  0  0  0  0
  -21.6647   -6.8865   21.4239 O   0  0  0  0  0  0
  -22.3549  -14.5557   20.6716 O   0  0  0  0  0  0
  -24.6131  -31.8673   23.2117 C   0  0  0  0  0  0
  -25.9026  -32.4820   23.8390 C   0  0  1  0  0  0
  -27.2378  -27.4413   20.0957 C   0  0  0  0  0  0
  -25.5884  -33.8616   24.2322 N   0  0  0  0  0  0
  -23.4003  -30.4907   21.5524 C   0  0  2  0  0  0
  -24.8472  -28.9578   20.1173 C   0  0  0  0  0  0
  -22.7402  -29.4639   22.5011 C   0  0  0  0  0  0
  -18.0268  -28.1349   22.8468 C   0  0  0  0  0  0
  -24.1501  -36.7324   23.2633 C   0  0  0  0  0  0
  -25.9290  -30.8339   21.3670 C   0  0  0  0  0  0
  -26.0079  -29.4723   20.7081 C   0  0  0  0  0  0
  -27.2059  -28.7222   20.6919 C   0  0  0  0  0  0
  -26.0560  -26.9379   19.5036 C   0  0  0  0  0  0
  -24.8652  -27.6894   19.5132 C   0  0  0  0  0  0
  -23.6097  -29.8254   20.1667 C   0  0  0  0  0  0
  -25.4115  -36.3105   24.0328 C   0  0  1  0  0  0
  -20.5852  -28.3623   23.1330 C   0  0  2  0  0  0
  -20.6769  -26.9359   22.5423 C   0  0  0  0  0  0
  -19.5764  -26.6362   21.5202 C   0  0  0  0  0  0
  -18.1929  -26.7895   22.1601 C   0  0  0  0  0  0
  -19.1509  -28.8805   23.2892 C   0  0  0  0  0  0
  -18.9451  -30.1417   23.8883 C   0  0  0  0  0  0
  -17.6461  -30.6561   24.0553 C   0  0  0  0  0  0
  -25.9032  -34.9461   23.5123 C   0  0  0  0  0  0
  -16.5344  -29.9059   23.6333 C   0  0  0  0  0  0
  -16.7260  -28.6485   23.0325 C   0  0  0  0  0  0
  -26.4461  -31.6601   25.0718 C   0  0  0  0  0  0
  -25.3743  -31.3690   26.1492 C   0  0  0  0  0  0
  -27.0289  -30.3044   24.6070 C   0  0  0  0  0  0
  -27.6051  -32.4311   25.7477 C   0  0  0  0  0  0
  -27.5594  -37.1801   24.8451 C   0  0  0  0  0  0
  -21.4127  -29.3005   22.3752 N   0  0  0  0  0  0
  -26.4300  -37.3792   23.9392 N   0  0  0  0  0  0
  -24.6650  -31.0771   22.1026 N   0  0  0  0  0  0
  -23.4182  -28.8166   23.3036 O   0  0  0  0  0  0
  -28.4186  -26.7261   20.0983 O   0  0  0  0  0  0
  -26.5615  -34.8924   22.4701 O   0  0  0  0  0  0
  -23.5330  -32.1418   23.7532 O   0  0  0  0  0  0
  -28.9573  -18.6813   20.7802 C   0  0  0  0  0  0
  -30.3307  -18.7070   20.8065 C   0  0  0  0  0  0
  -29.5793  -20.7452   20.2197 C   0  0  0  0  0  0
  -32.0525  -20.5248   20.3150 C   0  0  0  0  0  0
  -31.3478  -17.6352   21.1150 C   0  0  0  0  0  0
  -29.4820  -22.1969   19.8060 C   0  0  0  0  0  0
  -29.6833  -23.2052   20.9624 C   0  0  0  0  0  0
  -29.6926  -24.7003   20.5512 C   0  0  0  0  0  0
  -30.8751  -16.4858   22.0486 C   0  0  0  0  0  0
  -28.3199  -25.2982   20.1799 C   0  0  0  0  0  0
  -30.6815  -19.9995   20.4453 N   0  0  0  0  0  0
  -28.5365  -19.9342   20.4224 N   0  3  0  0  0  0
  -30.1810  -15.3515   21.4171 N   0  0  0  0  0  0
  -31.4590  -12.4060   19.0911 H   0  0  0  0  0  0
  -30.3233  -11.2944   19.7966 H   0  0  0  0  0  0
  -29.7148  -11.7931   17.4103 H   0  0  0  0  0  0
  -29.6363  -13.5023   17.7708 H   0  0  0  0  0  0
  -27.8254  -11.3040   18.8212 H   0  0  0  0  0  0
  -27.3492  -12.6258   17.7921 H   0  0  0  0  0  0
  -27.7078  -14.2522   19.5788 H   0  0  0  0  0  0
  -28.6799  -11.9488   21.3348 H   0  0  0  0  0  0
  -28.4612  -13.5839   21.8695 H   0  0  0  0  0  0
  -25.2738   -9.5683   22.4756 H   0  0  0  0  0  0
  -24.0015   -7.4614   22.7457 H   0  0  0  0  0  0
  -21.0845   -8.8732   19.8943 H   0  0  0  0  0  0
  -22.3675  -10.9647   19.6160 H   0  0  0  0  0  0
  -21.1995   -7.6134   23.9709 H   0  0  0  0  0  0
  -21.1490   -6.0529   25.9080 H   0  0  0  0  0  0
  -22.0601   -2.7609   23.2858 H   0  0  0  0  0  0
  -22.4158  -11.9861   22.4737 H   0  0  0  0  0  0
  -21.1130  -13.1202   22.2621 H   0  0  0  0  0  0
  -24.6715  -15.8484   20.5024 H   0  0  0  0  0  0
  -26.2885  -15.6117   20.0662 H   0  0  0  0  0  0
  -26.7088  -32.5536   23.1144 H   0  0  0  0  0  0
  -24.9992  -33.9780   25.0433 H   0  0  0  0  0  0
  -22.6871  -31.3058   21.4157 H   0  0  0  0  0  0
  -23.3757  -35.9671   23.3306 H   0  0  0  0  0  0
  -24.3577  -36.8950   22.2046 H   0  0  0  0  0  0
  -23.7278  -37.6525   23.6671 H   0  0  0  0  0  0
  -26.0456  -31.6053   20.6051 H   0  0  0  0  0  0
  -26.8145  -30.8798   21.9895 H   0  0  0  0  0  0
  -28.1026  -29.1138   21.1549 H   0  0  0  0  0  0
  -26.0413  -25.9716   19.0219 H   0  0  0  0  0  0
  -23.9706  -27.2866   19.0560 H   0  0  0  0  0  0
  -23.7215  -30.6036   19.4100 H   0  0  0  0  0  0
  -22.7336  -29.2464   19.8661 H   0  0  0  0  0  0
  -25.1293  -36.1972   25.0822 H   0  0  0  0  0  0
  -20.9920  -28.3190   24.1458 H   0  0  0  0  0  0
  -20.5664  -26.2211   23.3592 H   0  0  0  0  0  0
  -21.6647  -26.7405   22.1214 H   0  0  0  0  0  0
  -19.6936  -25.6278   21.1220 H   0  0  0  0  0  0
  -19.6746  -27.3193   20.6748 H   0  0  0  0  0  0
  -17.4205  -26.6633   21.3991 H   0  0  0  0  0  0
  -18.0319  -26.0018   22.8976 H   0  0  0  0  0  0
  -19.7936  -30.7206   24.2260 H   0  0  0  0  0  0
  -17.5033  -31.6251   24.5134 H   0  0  0  0  0  0
  -15.5348  -30.2961   23.7681 H   0  0  0  0  0  0
  -15.8654  -28.0834   22.7014 H   0  0  0  0  0  0
  -24.5933  -30.7006   25.7848 H   0  0  0  0  0  0
  -24.8908  -32.2832   26.4940 H   0  0  0  0  0  0
  -25.8119  -30.8872   27.0249 H   0  0  0  0  0  0
  -26.2806  -29.6790   24.1182 H   0  0  0  0  0  0
  -27.4128  -29.7289   25.4499 H   0  0  0  0  0  0
  -27.8622  -30.4365   23.9169 H   0  0  0  0  0  0
  -27.2693  -33.3629   26.2045 H   0  0  0  0  0  0
  -28.3872  -32.6832   25.0303 H   0  0  0  0  0  0
  -28.0701  -31.8419   26.5395 H   0  0  0  0  0  0
  -28.2589  -38.0120   24.7498 H   0  0  0  0  0  0
  -28.1107  -36.2632   24.6280 H   0  0  0  0  0  0
  -27.2289  -37.1457   25.8850 H   0  0  0  0  0  0
  -20.9284  -29.8753   21.7005 H   0  0  0  0  0  0
  -26.0193  -38.2872   24.1402 H   0  0  0  0  0  0
  -28.2633  -17.8789   20.9837 H   0  0  0  0  0  0
  -32.5749  -19.9760   19.5313 H   0  0  0  0  0  0
  -32.5792  -20.3963   21.2609 H   0  0  0  0  0  0
  -32.0556  -21.5844   20.0660 H   0  0  0  0  0  0
  -32.1899  -18.1165   21.6119 H   0  0  0  0  0  0
  -31.7469  -17.2471   20.1789 H   0  0  0  0  0  0
  -28.5003  -22.3278   19.3522 H   0  0  0  0  0  0
  -30.2118  -22.3527   19.0124 H   0  0  0  0  0  0
  -30.6399  -22.9913   21.4405 H   0  0  0  0  0  0
  -28.9289  -23.0407   21.7325 H   0  0  0  0  0  0
  -30.4003  -24.8609   19.7376 H   0  0  0  0  0  0
  -30.0810  -25.2743   21.3930 H   0  0  0  0  0  0
  -30.2713  -16.8796   22.8675 H   0  0  0  0  0  0
  -31.7614  -16.0661   22.5300 H   0  0  0  0  0  0
  -27.5867  -25.0267   20.9418 H   0  0  0  0  0  0
  -27.9870  -24.8829   19.2284 H   0  0  0  0  0  0
  -27.5663  -20.2035   20.3117 H   0  0  0  0  0  0
  -29.2669  -15.1157   21.7746 H   0  0  0  0  0  0
  1 25  1  0  0  0
  1 30  2  0  0  0
  1 83  1  0  0  0
  2  3  1  0  0  0
  2 25  1  0  0  0
  2 84  1  0  0  0
  2 85  1  0  0  0
  3  4  1  0  0  0
  3 86  1  0  0  0
  3 87  1  0  0  0
  4  5  1  0  0  0
  4 88  1  0  0  0
  4 89  1  0  0  0
  5  6  1  0  0  0
  5 26  1  0  0  0
  5 90  1  0  0  0
  6 25  1  0  0  0
  6 91  1  0  0  0
  6 92  1  0  0  0
  7  8  2  0  0  0
  7 26  1  0  0  0
  7 29  1  0  0  0
  8  9  1  0  0  0
  8 22  1  0  0  0
  9 10  1  0  0  0
  9 27  2  0  0  0
 10 11  2  0  0  0
 10 15  1  0  0  0
 11 12  1  0  0  0
 11 93  1  0  0  0
 12 13  2  0  0  0
 12 94  1  0  0  0
 13 14  1  0  0  0
 13 31  1  0  0  0
 14 15  2  0  0  0
 14 95  1  0  0  0
 15 96  1  0  0  0
 16 17  2  0  0  0
 16 21  1  0  0  0
 16 31  1  0  0  0
 17 18  1  0  0  0
 17 97  1  0  0  0
 18 19  2  0  0  0
 18 98  1  0  0  0
 19 20  1  0  0  0
 19 24  1  0  0  0
 20 21  2  0  0  0
 20 99  1  0  0  0
 21 23  1  0  0  0
 22 28  1  0  0  0
 22 32  2  0  0  0
 26 27  1  0  0  0
 28100  1  0  0  0
 28101  1  0  0  0
 29102  1  0  0  0
 29103  1  0  0  0
 33 34  1  0  0  0
 33 66  1  0  0  0
 33 70  2  0  0  0
 34 36  1  0  0  0
 34 59  1  0  0  0
 34104  1  0  0  0
 35 44  2  0  0  0
 35 45  1  0  0  0
 35 68  1  0  0  0
 36 56  1  0  0  0
 36105  1  0  0  0
 37 39  1  0  0  0
 37 47  1  0  0  0
 37 66  1  0  0  0
 37106  1  0  0  0
 38 43  2  0  0  0
 38 46  1  0  0  0
 38 47  1  0  0  0
 39 64  1  0  0  0
 39 67  2  0  0  0
 40 52  1  0  0  0
 40 53  2  0  0  0
 40 58  1  0  0  0
 41107  1  0  0  0
 41108  1  0  0  0
 41109  1  0  0  0
 41 48  1  0  0  0
 42 43  1  0  0  0
 42 66  1  0  0  0
 42110  1  0  0  0
 42111  1  0  0  0
 43 44  1  0  0  0
 44112  1  0  0  0
 45 46  2  0  0  0
 45113  1  0  0  0
 46114  1  0  0  0
 47115  1  0  0  0
 47116  1  0  0  0
 48 56  1  0  0  0
 48 65  1  0  0  0
 48117  1  0  0  0
 49 50  1  0  0  0
 49 53  1  0  0  0
 49 64  1  0  0  0
 49118  1  0  0  0
 50 51  1  0  0  0
 50119  1  0  0  0
 50120  1  0  0  0
 51 52  1  0  0  0
 51121  1  0  0  0
 51122  1  0  0  0
 52123  1  0  0  0
 52124  1  0  0  0
 53 54  1  0  0  0
 54 55  2  0  0  0
 54125  1  0  0  0
 55 57  1  0  0  0
 55126  1  0  0  0
 56 69  2  0  0  0
 57 58  2  0  0  0
 57127  1  0  0  0
 58128  1  0  0  0
 59 60  1  0  0  0
 59 61  1  0  0  0
 59 62  1  0  0  0
 60129  1  0  0  0
 60130  1  0  0  0
 60131  1  0  0  0
 61132  1  0  0  0
 61133  1  0  0  0
 61134  1  0  0  0
 62135  1  0  0  0
 62136  1  0  0  0
 62137  1  0  0  0
 63 65  1  0  0  0
 63138  1  0  0  0
 63139  1  0  0  0
 63140  1  0  0  0
 64141  1  0  0  0
 65142  1  0  0  0
 68 80  1  0  0  0
 71 72  2  0  0  0
 71 82  1  0  0  0
 71143  1  0  0  0
 72 75  1  0  0  0
 72 81  1  0  0  0
 73 76  1  0  0  0
 73 81  1  0  0  0
 73 82  2  0  0  0
 74 81  1  0  0  0
 74144  1  0  0  0
 74145  1  0  0  0
 74146  1  0  0  0
 75 79  1  0  0  0
 75147  1  0  0  0
 75148  1  0  0  0
 76 77  1  0  0  0
 76149  1  0  0  0
 76150  1  0  0  0
 77 78  1  0  0  0
 77151  1  0  0  0
 77152  1  0  0  0
 78 80  1  0  0  0
 78153  1  0  0  0
 78154  1  0  0  0
 79 83  1  0  0  0
 79155  1  0  0  0
 79156  1  0  0  0
 80157  1  0  0  0
 80158  1  0  0  0
 82159  1  0  0  0
 83160  1  0  0  0
M  CHG  1  82   1
M  ISO  4   1 100  68 101  80 101  83 100
M  END
> <chiral flag>
0

> <version>
0

> <s_m_source_file>
/data/baiqing/PycharmProjects/Reinvent-master-3.2/result/LINK_invent/BTK/process_docking_weight1_custom_sum_contain_oxygen_bond_distance_aromatic_linkinvent_7_9_3/rearranged_h_0042.sdf

> <i_m_source_file_index>
48

> <r_mmod_Potential_Energy-OPLS-2005>
-166.368438720703

> <r_mmod_Stretch_Energy-OPLS-2005>
35.4036026000977

> <r_mmod_Bend_Energy-OPLS-2005>
98.8232803344727

> <r_mmod_Torsional_Energy-OPLS-2005>
217.880767822266

> <r_mmod_Improper_Torsional_Energy-OPLS-2005>
2.33907794952393

> <r_mmod_Van_der_Waal_Energy-OPLS-2005>
128.991119384766

> <r_mmod_Electrostatic_Energy-OPLS-2005>
-229.893920898438

> <r_mmod_Solvation_Energy-OPLS-2005>
-430.101959228516

> <b_mmod_Minimization_Converged-OPLS-2005>
0

> <r_mmod_RMS_Derivative-OPLS-2005>
2.68921446800232

$$$$
49
                    3D
 Structure written by MMmdl.
155163  0  0  1  0            999 V2000
  -30.5762  -14.7672   20.4479 C   0  0  0  0  0  0
  -30.4381  -12.4642   19.4823 C   0  0  0  0  0  0
  -29.5164  -12.5151   18.2421 C   0  0  0  0  0  0
  -28.0420  -12.3323   18.6518 C   0  0  0  0  0  0
  -27.6446  -13.2275   19.8558 C   0  0  2  0  0  0
  -28.6866  -13.1530   20.9946 C   0  0  0  0  0  0
  -25.2516  -13.8179   20.5682 C   0  0  0  0  0  0
  -24.1800  -13.0431   20.9191 C   0  0  0  0  0  0
  -24.6385  -11.6910   20.8735 C   0  0  0  0  0  0
  -23.9055  -10.4291   21.0396 C   0  0  0  0  0  0
  -24.3608   -9.4213   21.9178 C   0  0  0  0  0  0
  -23.6289   -8.2248   22.0752 C   0  0  0  0  0  0
  -22.4273   -8.0277   21.3542 C   0  0  0  0  0  0
  -21.9900   -9.0246   20.4643 C   0  0  0  0  0  0
  -22.7222  -10.2131   20.3052 C   0  0  0  0  0  0
  -21.6854   -6.0729   22.5276 C   0  0  0  0  0  0
  -21.4015   -6.5634   23.8210 C   0  0  0  0  0  0
  -21.3662   -5.6789   24.9173 C   0  0  0  0  0  0
  -21.6047   -4.3051   24.7225 C   0  0  0  0  0  0
  -21.8818   -3.8140   23.4349 C   0  0  0  0  0  0
  -21.9195   -4.6958   22.3403 C   0  0  0  0  0  0
  -22.7826  -13.5224   21.1854 C   0  0  0  0  0  0
  -22.1660   -4.2140   21.0982 F   0  0  0  0  0  0
  -21.5634   -3.4537   25.7741 F   0  0  0  0  0  0
  -29.9889  -13.5191   20.4230 N   0  0  0  0  0  0
  -26.2941  -12.9380   20.3281 N   0  0  0  0  0  0
  -25.9315  -11.6526   20.5738 N   0  0  0  0  0  0
  -22.0468  -12.8225   22.0412 N   0  0  0  0  0  0
  -25.4202  -15.1906   20.4107 N   0  0  0  0  0  0
  -31.7461  -14.8992   20.0758 O   0  0  0  0  0  0
  -21.6642   -6.8871   21.4239 O   0  0  0  0  0  0
  -22.3518  -14.5531   20.6696 O   0  0  0  0  0  0
  -24.6316  -31.8523   23.1946 C   0  0  0  0  0  0
  -25.9135  -32.4737   23.8299 C   0  0  1  0  0  0
  -27.2269  -27.2478   20.1267 C   0  0  0  0  0  0
  -25.5926  -33.8543   24.2229 N   0  0  0  0  0  0
  -23.4301  -30.4725   21.5364 C   0  0  2  0  0  0
  -24.8788  -28.9121   20.1051 C   0  0  0  0  0  0
  -22.7508  -29.4577   22.4882 C   0  0  0  0  0  0
  -18.0295  -28.1391   22.8478 C   0  0  0  0  0  0
  -24.1488  -36.7274   23.2642 C   0  0  0  0  0  0
  -25.9751  -30.7597   21.3761 C   0  0  0  0  0  0
  -26.0470  -29.3800   20.7183 C   0  0  0  0  0  0
  -27.2177  -28.5571   20.7211 C   0  0  0  0  0  0
  -26.0344  -26.8423   19.4897 C   0  0  0  0  0  0
  -24.8781  -27.6524   19.4817 C   0  0  0  0  0  0
  -23.6504  -29.8021   20.1527 C   0  0  0  0  0  0
  -25.4119  -36.3062   24.0325 C   0  0  1  0  0  0
  -20.5900  -28.3697   23.1265 C   0  0  2  0  0  0
  -20.6780  -26.9412   22.5411 C   0  0  0  0  0  0
  -19.5757  -26.6382   21.5214 C   0  0  0  0  0  0
  -18.1935  -26.7930   22.1621 C   0  0  0  0  0  0
  -19.1548  -28.8859   23.2869 C   0  0  0  0  0  0
  -18.9471  -30.1458   23.8890 C   0  0  0  0  0  0
  -17.6473  -30.6589   24.0560 C   0  0  0  0  0  0
  -25.9061  -34.9434   23.5082 C   0  0  0  0  0  0
  -16.5363  -29.9088   23.6330 C   0  0  0  0  0  0
  -16.7284  -28.6506   23.0351 C   0  0  0  0  0  0
  -26.4503  -31.6579   25.0702 C   0  0  0  0  0  0
  -25.3718  -31.3741   26.1418 C   0  0  0  0  0  0
  -27.0360  -30.2994   24.6209 C   0  0  0  0  0  0
  -27.6051  -32.4329   25.7477 C   0  0  0  0  0  0
  -27.5576  -37.1793   24.8471 C   0  0  0  0  0  0
  -21.4211  -29.3039   22.3639 N   0  0  0  0  0  0
  -26.4289  -37.3764   23.9410 N   0  0  0  0  0  0
  -24.6978  -31.0471   22.0925 N   0  0  0  0  0  0
  -23.4202  -28.8126   23.2991 O   0  0  0  0  0  0
  -28.3368  -26.3760   20.2371 O   0  0  0  0  0  0
  -26.5640  -34.8916   22.4657 O   0  0  0  0  0  0
  -23.5465  -32.1351   23.7237 O   0  0  0  0  0  0
  -29.2846  -23.8455   22.2010 C   0  0  0  0  0  0
  -29.9548  -22.3477   23.7676 C   0  0  0  0  0  0
  -28.9957  -22.8558   21.2361 C   0  0  0  0  0  0
  -29.2971  -21.4288   21.5634 C   0  0  0  0  0  0
  -29.7175  -21.2460   22.9303 C   0  0  0  0  0  0
  -28.2562  -23.5160   20.0054 C   0  0  0  0  0  0
  -29.2197  -20.1381   20.5840 C   0  0  0  0  0  0
  -29.5898  -18.5998   21.0691 C   0  0  0  0  0  0
  -29.8161  -17.3093   20.1082 C   0  0  0  0  0  0
  -28.5066  -25.0674   19.5119 C   0  0  0  0  0  0
  -29.7771  -23.6249   23.4210 N   0  0  0  0  0  0
  -29.7598  -15.8731   20.6681 N   0  0  0  0  0  0
  -29.9221  -19.7418   23.7606 Cl  0  0  0  0  0  0
  -31.4788  -12.5965   19.1831 H   0  0  0  0  0  0
  -30.3887  -11.4844   19.9592 H   0  0  0  0  0  0
  -29.8040  -11.7453   17.5248 H   0  0  0  0  0  0
  -29.6383  -13.4711   17.7304 H   0  0  0  0  0  0
  -27.9018  -11.2823   18.9104 H   0  0  0  0  0  0
  -27.3857  -12.5251   17.8023 H   0  0  0  0  0  0
  -27.6412  -14.2506   19.4794 H   0  0  0  0  0  0
  -28.7253  -12.1490   21.4203 H   0  0  0  0  0  0
  -28.4156  -13.8202   21.8141 H   0  0  0  0  0  0
  -25.2753   -9.5702   22.4747 H   0  0  0  0  0  0
  -24.0002   -7.4646   22.7476 H   0  0  0  0  0  0
  -21.0829   -8.8756   19.8951 H   0  0  0  0  0  0
  -22.3667  -10.9667   19.6161 H   0  0  0  0  0  0
  -21.2003   -7.6141   23.9708 H   0  0  0  0  0  0
  -21.1485   -6.0521   25.9075 H   0  0  0  0  0  0
  -22.0596   -2.7601   23.2851 H   0  0  0  0  0  0
  -22.4089  -11.9903   22.4824 H   0  0  0  0  0  0
  -21.1078  -13.1246   22.2594 H   0  0  0  0  0  0
  -24.6488  -15.8400   20.5190 H   0  0  0  0  0  0
  -26.2638  -15.6326   20.0685 H   0  0  0  0  0  0
  -26.7195  -32.5379   23.1033 H   0  0  0  0  0  0
  -25.0067  -33.9676   25.0371 H   0  0  0  0  0  0
  -22.7271  -31.2945   21.3869 H   0  0  0  0  0  0
  -23.3754  -35.9600   23.3304 H   0  0  0  0  0  0
  -24.3574  -36.8902   22.2056 H   0  0  0  0  0  0
  -23.7238  -37.6471   23.6672 H   0  0  0  0  0  0
  -26.1162  -31.5191   20.6061 H   0  0  0  0  0  0
  -26.8512  -30.8092   22.0112 H   0  0  0  0  0  0
  -28.1107  -28.9074   21.2195 H   0  0  0  0  0  0
  -25.9620  -25.8679   19.0305 H   0  0  0  0  0  0
  -23.9794  -27.2865   19.0036 H   0  0  0  0  0  0
  -23.7780  -30.5773   19.3962 H   0  0  0  0  0  0
  -22.7684  -29.2378   19.8459 H   0  0  0  0  0  0
  -25.1300  -36.1897   25.0817 H   0  0  0  0  0  0
  -20.9996  -28.3282   24.1384 H   0  0  0  0  0  0
  -20.5674  -26.2309   23.3621 H   0  0  0  0  0  0
  -21.6648  -26.7430   22.1206 H   0  0  0  0  0  0
  -19.6917  -25.6293   21.1249 H   0  0  0  0  0  0
  -19.6695  -27.3183   20.6739 H   0  0  0  0  0  0
  -17.4206  -26.6681   21.4023 H   0  0  0  0  0  0
  -18.0330  -26.0076   22.9020 H   0  0  0  0  0  0
  -19.7950  -30.7271   24.2260 H   0  0  0  0  0  0
  -17.5032  -31.6269   24.5159 H   0  0  0  0  0  0
  -15.5363  -30.2992   23.7657 H   0  0  0  0  0  0
  -15.8685  -28.0828   22.7069 H   0  0  0  0  0  0
  -24.5908  -30.7072   25.7749 H   0  0  0  0  0  0
  -24.8891  -32.2911   26.4803 H   0  0  0  0  0  0
  -25.8029  -30.8954   27.0220 H   0  0  0  0  0  0
  -26.2963  -29.6742   24.1199 H   0  0  0  0  0  0
  -27.4002  -29.7259   25.4745 H   0  0  0  0  0  0
  -27.8850  -30.4271   23.9490 H   0  0  0  0  0  0
  -27.2661  -33.3645   26.2019 H   0  0  0  0  0  0
  -28.3877  -32.6861   25.0309 H   0  0  0  0  0  0
  -28.0703  -31.8476   26.5419 H   0  0  0  0  0  0
  -28.2593  -38.0090   24.7505 H   0  0  0  0  0  0
  -28.1068  -36.2616   24.6307 H   0  0  0  0  0  0
  -27.2291  -37.1458   25.8874 H   0  0  0  0  0  0
  -20.9399  -29.8770   21.6847 H   0  0  0  0  0  0
  -26.0163  -38.2833   24.1412 H   0  0  0  0  0  0
  -29.0749  -24.8862   22.0184 H   0  0  0  0  0  0
  -30.2848  -22.1915   24.7843 H   0  0  0  0  0  0
  -27.1881  -23.4069   20.1961 H   0  0  0  0  0  0
  -28.4555  -22.8697   19.1509 H   0  0  0  0  0  0
  -29.8716  -20.3744   19.7425 H   0  0  0  0  0  0
  -28.2129  -20.1226   20.1667 H   0  0  0  0  0  0
  -28.8418  -18.3085   21.8063 H   0  0  0  0  0  0
  -30.5487  -18.6587   21.5797 H   0  0  0  0  0  0
  -30.7577  -17.4360   19.5723 H   0  0  0  0  0  0
  -29.0471  -17.3458   19.3363 H   0  0  0  0  0  0
  -29.5571  -25.0918   19.2217 H   0  0  0  0  0  0
  -27.9925  -25.1718   18.5570 H   0  0  0  0  0  0
  -28.8549  -15.6158   21.0335 H   0  0  0  0  0  0
  1 25  1  0  0  0
  1 30  2  0  0  0
  1 82  1  0  0  0
  2  3  1  0  0  0
  2 25  1  0  0  0
  2 84  1  0  0  0
  2 85  1  0  0  0
  3  4  1  0  0  0
  3 86  1  0  0  0
  3 87  1  0  0  0
  4  5  1  0  0  0
  4 88  1  0  0  0
  4 89  1  0  0  0
  5  6  1  0  0  0
  5 26  1  0  0  0
  5 90  1  0  0  0
  6 25  1  0  0  0
  6 91  1  0  0  0
  6 92  1  0  0  0
  7  8  2  0  0  0
  7 26  1  0  0  0
  7 29  1  0  0  0
  8  9  1  0  0  0
  8 22  1  0  0  0
  9 10  1  0  0  0
  9 27  2  0  0  0
 10 11  2  0  0  0
 10 15  1  0  0  0
 11 12  1  0  0  0
 11 93  1  0  0  0
 12 13  2  0  0  0
 12 94  1  0  0  0
 13 14  1  0  0  0
 13 31  1  0  0  0
 14 15  2  0  0  0
 14 95  1  0  0  0
 15 96  1  0  0  0
 16 17  2  0  0  0
 16 21  1  0  0  0
 16 31  1  0  0  0
 17 18  1  0  0  0
 17 97  1  0  0  0
 18 19  2  0  0  0
 18 98  1  0  0  0
 19 20  1  0  0  0
 19 24  1  0  0  0
 20 21  2  0  0  0
 20 99  1  0  0  0
 21 23  1  0  0  0
 22 28  1  0  0  0
 22 32  2  0  0  0
 26 27  1  0  0  0
 28100  1  0  0  0
 28101  1  0  0  0
 29102  1  0  0  0
 29103  1  0  0  0
 33 34  1  0  0  0
 33 66  1  0  0  0
 33 70  2  0  0  0
 34 36  1  0  0  0
 34 59  1  0  0  0
 34104  1  0  0  0
 35 44  2  0  0  0
 35 45  1  0  0  0
 35 68  1  0  0  0
 36 56  1  0  0  0
 36105  1  0  0  0
 37 39  1  0  0  0
 37 47  1  0  0  0
 37 66  1  0  0  0
 37106  1  0  0  0
 38 43  2  0  0  0
 38 46  1  0  0  0
 38 47  1  0  0  0
 39 64  1  0  0  0
 39 67  2  0  0  0
 40 52  1  0  0  0
 40 53  2  0  0  0
 40 58  1  0  0  0
 41107  1  0  0  0
 41108  1  0  0  0
 41109  1  0  0  0
 41 48  1  0  0  0
 42 43  1  0  0  0
 42 66  1  0  0  0
 42110  1  0  0  0
 42111  1  0  0  0
 43 44  1  0  0  0
 44112  1  0  0  0
 45 46  2  0  0  0
 45113  1  0  0  0
 46114  1  0  0  0
 47115  1  0  0  0
 47116  1  0  0  0
 48 56  1  0  0  0
 48 65  1  0  0  0
 48117  1  0  0  0
 49 50  1  0  0  0
 49 53  1  0  0  0
 49 64  1  0  0  0
 49118  1  0  0  0
 50 51  1  0  0  0
 50119  1  0  0  0
 50120  1  0  0  0
 51 52  1  0  0  0
 51121  1  0  0  0
 51122  1  0  0  0
 52123  1  0  0  0
 52124  1  0  0  0
 53 54  1  0  0  0
 54 55  2  0  0  0
 54125  1  0  0  0
 55 57  1  0  0  0
 55126  1  0  0  0
 56 69  2  0  0  0
 57 58  2  0  0  0
 57127  1  0  0  0
 58128  1  0  0  0
 59 60  1  0  0  0
 59 61  1  0  0  0
 59 62  1  0  0  0
 60129  1  0  0  0
 60130  1  0  0  0
 60131  1  0  0  0
 61132  1  0  0  0
 61133  1  0  0  0
 61134  1  0  0  0
 62135  1  0  0  0
 62136  1  0  0  0
 62137  1  0  0  0
 63 65  1  0  0  0
 63138  1  0  0  0
 63139  1  0  0  0
 63140  1  0  0  0
 64141  1  0  0  0
 65142  1  0  0  0
 68 80  1  0  0  0
 71 73  2  0  0  0
 71 81  1  0  0  0
 71143  1  0  0  0
 72 75  1  0  0  0
 72 81  2  0  0  0
 72144  1  0  0  0
 73 74  1  0  0  0
 73 76  1  0  0  0
 74 75  2  0  0  0
 74 77  1  0  0  0
 75 83  1  0  0  0
 76 80  1  0  0  0
 76145  1  0  0  0
 76146  1  0  0  0
 77 78  1  0  0  0
 77147  1  0  0  0
 77148  1  0  0  0
 78 79  1  0  0  0
 78149  1  0  0  0
 78150  1  0  0  0
 79 82  1  0  0  0
 79151  1  0  0  0
 79152  1  0  0  0
 80153  1  0  0  0
 80154  1  0  0  0
 82155  1  0  0  0
M  ISO  4   1 100  68 101  80 101  82 100
M  END
> <chiral flag>
0

> <version>
0

> <s_m_source_file>
/data/baiqing/PycharmProjects/Reinvent-master-3.2/result/LINK_invent/BTK/process_docking_weight1_custom_sum_contain_oxygen_bond_distance_aromatic_linkinvent_7_9_3/rearranged_h_0042.sdf

> <i_m_source_file_index>
49

> <r_mmod_Potential_Energy-OPLS-2005>
195.104263305664

> <r_mmod_Stretch_Energy-OPLS-2005>
163.852569580078

> <r_mmod_Bend_Energy-OPLS-2005>
256.434783935547

> <r_mmod_Torsional_Energy-OPLS-2005>
208.910537719727

> <r_mmod_Improper_Torsional_Energy-OPLS-2005>
7.01814126968384

> <r_mmod_Van_der_Waal_Energy-OPLS-2005>
152.714294433594

> <r_mmod_Electrostatic_Energy-OPLS-2005>
-457.766265869141

> <r_mmod_Solvation_Energy-OPLS-2005>
-230.298675537109

> <b_mmod_Minimization_Converged-OPLS-2005>
0

> <r_mmod_RMS_Derivative-OPLS-2005>
0.856894671916962

$$$$
50
                    3D
 Structure written by MMmdl.
149157  0  0  1  0            999 V2000
  -30.2813  -15.6556   20.3233 C   0  0  0  0  0  0
  -30.4235  -13.0778   19.5880 C   0  0  0  0  0  0
  -29.5631  -12.6834   18.3501 C   0  0  0  0  0  0
  -28.1345  -12.3154   18.7757 C   0  0  0  0  0  0
  -27.6003  -13.3143   19.8274 C   0  0  2  0  0  0
  -28.6050  -13.6438   20.9626 C   0  0  0  0  0  0
  -25.2292  -13.8294   20.5754 C   0  0  0  0  0  0
  -24.1690  -13.0433   20.9238 C   0  0  0  0  0  0
  -24.6402  -11.6949   20.8726 C   0  0  0  0  0  0
  -23.9115  -10.4286   21.0377 C   0  0  0  0  0  0
  -24.3651   -9.4195   21.9166 C   0  0  0  0  0  0
  -23.6300   -8.2239   22.0758 C   0  0  0  0  0  0
  -22.4287   -8.0269   21.3537 C   0  0  0  0  0  0
  -21.9926   -9.0251   20.4652 C   0  0  0  0  0  0
  -22.7272  -10.2120   20.3038 C   0  0  0  0  0  0
  -21.6856   -6.0713   22.5265 C   0  0  0  0  0  0
  -21.4028   -6.5621   23.8195 C   0  0  0  0  0  0
  -21.3666   -5.6779   24.9165 C   0  0  0  0  0  0
  -21.6051   -4.3039   24.7220 C   0  0  0  0  0  0
  -21.8809   -3.8124   23.4343 C   0  0  0  0  0  0
  -21.9191   -4.6937   22.3397 C   0  0  0  0  0  0
  -22.7702  -13.5164   21.1877 C   0  0  0  0  0  0
  -22.1651   -4.2113   21.0968 F   0  0  0  0  0  0
  -21.5635   -3.4532   25.7734 F   0  0  0  0  0  0
  -29.7988  -14.2659   20.3406 N   0  0  0  0  0  0
  -26.2769  -12.9641   20.3248 N   0  0  0  0  0  0
  -25.9361  -11.6709   20.5696 N   0  0  0  0  0  0
  -22.0382  -12.8158   22.0449 N   0  0  0  0  0  0
  -25.3851  -15.2048   20.4189 N   0  0  0  0  0  0
  -31.4854  -15.6220   19.9976 O   0  0  0  0  0  0
  -21.6651   -6.8867   21.4231 O   0  0  0  0  0  0
  -22.3372  -14.5452   20.6706 O   0  0  0  0  0  0
  -24.6858  -31.7920   23.1454 C   0  0  0  0  0  0
  -25.9425  -32.4422   23.8024 C   0  0  1  0  0  0
  -27.2451  -26.6718   20.2117 C   0  0  0  0  0  0
  -25.5983  -33.8251   24.1900 N   0  0  0  0  0  0
  -23.5154  -30.3901   21.4966 C   0  0  2  0  0  0
  -24.9776  -28.7213   20.1046 C   0  0  0  0  0  0
  -22.7774  -29.4265   22.4664 C   0  0  0  0  0  0
  -18.0335  -28.1397   22.8437 C   0  0  0  0  0  0
  -24.1504  -36.7150   23.2657 C   0  0  0  0  0  0
  -26.0944  -30.5133   21.4169 C   0  0  0  0  0  0
  -26.1583  -29.0754   20.7648 C   0  0  0  0  0  0
  -27.2628  -28.0737   20.7968 C   0  0  0  0  0  0
  -26.0441  -26.5395   19.4655 C   0  0  0  0  0  0
  -24.9619  -27.4811   19.4335 C   0  0  0  0  0  0
  -23.7707  -29.6776   20.1331 C   0  0  0  0  0  0
  -25.4149  -36.2872   24.0278 C   0  0  1  0  0  0
  -20.5971  -28.3768   23.1123 C   0  0  2  0  0  0
  -20.6786  -26.9419   22.5399 C   0  0  0  0  0  0
  -19.5767  -26.6348   21.5199 C   0  0  0  0  0  0
  -18.1954  -26.7923   22.1607 C   0  0  0  0  0  0
  -19.1603  -28.8907   23.2757 C   0  0  0  0  0  0
  -18.9505  -30.1482   23.8815 C   0  0  0  0  0  0
  -17.6498  -30.6583   24.0534 C   0  0  0  0  0  0
  -25.9116  -34.9259   23.4937 C   0  0  0  0  0  0
  -16.5385  -29.9062   23.6338 C   0  0  0  0  0  0
  -16.7320  -28.6479   23.0365 C   0  0  0  0  0  0
  -26.4581  -31.6495   25.0675 C   0  0  0  0  0  0
  -25.3654  -31.3814   26.1299 C   0  0  0  0  0  0
  -27.0516  -30.2824   24.6630 C   0  0  0  0  0  0
  -27.6020  -32.4370   25.7494 C   0  0  0  0  0  0
  -27.5561  -37.1732   24.8462 C   0  0  0  0  0  0
  -21.4411  -29.3011   22.3441 N   0  0  0  0  0  0
  -26.4273  -37.3638   23.9391 N   0  0  0  0  0  0
  -24.7888  -30.9329   22.0719 N   0  0  0  0  0  0
  -23.4194  -28.7867   23.3034 O   0  0  0  0  0  0
  -28.2043  -25.4658   20.4584 O   0  0  0  0  0  0
  -26.5779  -34.8855   22.4558 O   0  0  0  0  0  0
  -23.5876  -32.1017   23.6396 O   0  0  0  0  0  0
  -27.9804  -21.8072   18.7247 C   0  0  0  0  0  0
  -30.4462  -20.7253   19.4247 C   0  0  0  0  0  0
  -28.4562  -21.9553   20.0380 C   0  0  0  0  0  0
  -29.3066  -20.5402   20.2191 C   0  0  0  0  0  0
  -29.0228  -21.5887   17.7884 C   0  0  0  0  0  0
  -28.8571  -21.9471   16.3270 C   0  0  0  0  0  0
  -29.0092  -18.6853   20.1271 C   0  0  0  0  0  0
  -28.7556  -23.8177   20.0382 C   0  0  0  0  0  0
  -30.2657  -21.1809   18.1606 N   0  0  0  0  0  0
  -29.4982  -16.9930   20.5457 N   0  0  0  0  0  0
  -31.4337  -13.3119   19.2509 H   0  0  0  0  0  0
  -30.5473  -12.2231   20.2556 H   0  0  0  0  0  0
  -30.0290  -11.8582   17.8094 H   0  0  0  0  0  0
  -29.5290  -13.5257   17.6570 H   0  0  0  0  0  0
  -28.1608  -11.3120   19.2011 H   0  0  0  0  0  0
  -27.4733  -12.2681   17.9097 H   0  0  0  0  0  0
  -27.4722  -14.2411   19.2655 H   0  0  0  0  0  0
  -28.8471  -12.7620   21.5563 H   0  0  0  0  0  0
  -28.1666  -14.3592   21.6587 H   0  0  0  0  0  0
  -25.2794   -9.5657   22.4748 H   0  0  0  0  0  0
  -23.9994   -7.4635   22.7501 H   0  0  0  0  0  0
  -21.0836   -8.8774   19.8983 H   0  0  0  0  0  0
  -22.3721  -10.9652   19.6143 H   0  0  0  0  0  0
  -21.2042   -7.6133   23.9686 H   0  0  0  0  0  0
  -21.1504   -6.0521   25.9062 H   0  0  0  0  0  0
  -22.0595   -2.7586   23.2845 H   0  0  0  0  0  0
  -22.4053  -11.9866   22.4870 H   0  0  0  0  0  0
  -21.0990  -13.1167   22.2656 H   0  0  0  0  0  0
  -24.6039  -15.8468   20.4996 H   0  0  0  0  0  0
  -26.2233  -15.6436   20.0603 H   0  0  0  0  0  0
  -26.7507  -32.4867   23.0735 H   0  0  0  0  0  0
  -25.0024  -33.9267   24.9988 H   0  0  0  0  0  0
  -22.8439  -31.2283   21.3002 H   0  0  0  0  0  0
  -23.3771  -35.9477   23.3281 H   0  0  0  0  0  0
  -24.3584  -36.8851   22.2080 H   0  0  0  0  0  0
  -23.7270  -37.6319   23.6762 H   0  0  0  0  0  0
  -26.3048  -31.2377   20.6297 H   0  0  0  0  0  0
  -26.9430  -30.5776   22.0861 H   0  0  0  0  0  0
  -28.1352  -28.3428   21.3746 H   0  0  0  0  0  0
  -25.8878  -25.5975   18.9588 H   0  0  0  0  0  0
  -24.0727  -27.2025   18.8863 H   0  0  0  0  0  0
  -23.9454  -30.4344   19.3672 H   0  0  0  0  0  0
  -22.8772  -29.1407   19.8094 H   0  0  0  0  0  0
  -25.1369  -36.1630   25.0773 H   0  0  0  0  0  0
  -21.0054  -28.3399   24.1246 H   0  0  0  0  0  0
  -20.5600  -26.2395   23.3667 H   0  0  0  0  0  0
  -21.6651  -26.7309   22.1247 H   0  0  0  0  0  0
  -19.6913  -25.6233   21.1283 H   0  0  0  0  0  0
  -19.6714  -27.3110   20.6691 H   0  0  0  0  0  0
  -17.4212  -26.6655   21.4019 H   0  0  0  0  0  0
  -18.0355  -26.0078   22.9021 H   0  0  0  0  0  0
  -19.7985  -30.7307   24.2165 H   0  0  0  0  0  0
  -17.5048  -31.6260   24.5141 H   0  0  0  0  0  0
  -15.5379  -30.2936   23.7701 H   0  0  0  0  0  0
  -15.8720  -28.0762   22.7140 H   0  0  0  0  0  0
  -24.5845  -30.7155   25.7595 H   0  0  0  0  0  0
  -24.8838  -32.3037   26.4561 H   0  0  0  0  0  0
  -25.7849  -30.9068   27.0187 H   0  0  0  0  0  0
  -26.3230  -29.6417   24.1651 H   0  0  0  0  0  0
  -27.3928  -29.7303   25.5400 H   0  0  0  0  0  0
  -27.9226  -30.3913   24.0170 H   0  0  0  0  0  0
  -27.2538  -33.3730   26.1889 H   0  0  0  0  0  0
  -28.3933  -32.6855   25.0401 H   0  0  0  0  0  0
  -28.0598  -31.8633   26.5568 H   0  0  0  0  0  0
  -28.2547  -38.0053   24.7495 H   0  0  0  0  0  0
  -28.1088  -36.2574   24.6309 H   0  0  0  0  0  0
  -27.2277  -37.1397   25.8865 H   0  0  0  0  0  0
  -20.9726  -29.8690   21.6524 H   0  0  0  0  0  0
  -26.0098  -38.2688   24.1385 H   0  0  0  0  0  0
  -27.1572  -22.4099   18.3636 H   0  0  0  0  0  0
  -31.2609  -20.0177   19.4710 H   0  0  0  0  0  0
  -27.8137  -21.8888   16.0197 H   0  0  0  0  0  0
  -29.4331  -21.2757   15.6898 H   0  0  0  0  0  0
  -29.2094  -22.9648   16.1537 H   0  0  0  0  0  0
  -28.8711  -18.5678   19.0517 H   0  0  0  0  0  0
  -27.9881  -18.6613   20.5108 H   0  0  0  0  0  0
  -29.0876  -24.0077   19.0176 H   0  0  0  0  0  0
  -29.6958  -23.8194   20.5897 H   0  0  0  0  0  0
  -28.6959  -16.6503   21.0554 H   0  0  0  0  0  0
  1 25  1  0  0  0
  1 30  2  0  0  0
  1 80  1  0  0  0
  2  3  1  0  0  0
  2 25  1  0  0  0
  2 81  1  0  0  0
  2 82  1  0  0  0
  3  4  1  0  0  0
  3 83  1  0  0  0
  3 84  1  0  0  0
  4  5  1  0  0  0
  4 85  1  0  0  0
  4 86  1  0  0  0
  5  6  1  0  0  0
  5 26  1  0  0  0
  5 87  1  0  0  0
  6 25  1  0  0  0
  6 88  1  0  0  0
  6 89  1  0  0  0
  7  8  2  0  0  0
  7 26  1  0  0  0
  7 29  1  0  0  0
  8  9  1  0  0  0
  8 22  1  0  0  0
  9 10  1  0  0  0
  9 27  2  0  0  0
 10 11  2  0  0  0
 10 15  1  0  0  0
 11 12  1  0  0  0
 11 90  1  0  0  0
 12 13  2  0  0  0
 12 91  1  0  0  0
 13 14  1  0  0  0
 13 31  1  0  0  0
 14 15  2  0  0  0
 14 92  1  0  0  0
 15 93  1  0  0  0
 16 17  2  0  0  0
 16 21  1  0  0  0
 16 31  1  0  0  0
 17 18  1  0  0  0
 17 94  1  0  0  0
 18 19  2  0  0  0
 18 95  1  0  0  0
 19 20  1  0  0  0
 19 24  1  0  0  0
 20 21  2  0  0  0
 20 96  1  0  0  0
 21 23  1  0  0  0
 22 28  1  0  0  0
 22 32  2  0  0  0
 26 27  1  0  0  0
 28 97  1  0  0  0
 28 98  1  0  0  0
 29 99  1  0  0  0
 29100  1  0  0  0
 33 34  1  0  0  0
 33 66  1  0  0  0
 33 70  2  0  0  0
 34 36  1  0  0  0
 34 59  1  0  0  0
 34101  1  0  0  0
 35 44  2  0  0  0
 35 45  1  0  0  0
 35 68  1  0  0  0
 36 56  1  0  0  0
 36102  1  0  0  0
 37 39  1  0  0  0
 37 47  1  0  0  0
 37 66  1  0  0  0
 37103  1  0  0  0
 38 43  2  0  0  0
 38 46  1  0  0  0
 38 47  1  0  0  0
 39 64  1  0  0  0
 39 67  2  0  0  0
 40 52  1  0  0  0
 40 53  2  0  0  0
 40 58  1  0  0  0
 41104  1  0  0  0
 41105  1  0  0  0
 41106  1  0  0  0
 41 48  1  0  0  0
 42 43  1  0  0  0
 42 66  1  0  0  0
 42107  1  0  0  0
 42108  1  0  0  0
 43 44  1  0  0  0
 44109  1  0  0  0
 45 46  2  0  0  0
 45110  1  0  0  0
 46111  1  0  0  0
 47112  1  0  0  0
 47113  1  0  0  0
 48 56  1  0  0  0
 48 65  1  0  0  0
 48114  1  0  0  0
 49 50  1  0  0  0
 49 53  1  0  0  0
 49 64  1  0  0  0
 49115  1  0  0  0
 50 51  1  0  0  0
 50116  1  0  0  0
 50117  1  0  0  0
 51 52  1  0  0  0
 51118  1  0  0  0
 51119  1  0  0  0
 52120  1  0  0  0
 52121  1  0  0  0
 53 54  1  0  0  0
 54 55  2  0  0  0
 54122  1  0  0  0
 55 57  1  0  0  0
 55123  1  0  0  0
 56 69  2  0  0  0
 57 58  2  0  0  0
 57124  1  0  0  0
 58125  1  0  0  0
 59 60  1  0  0  0
 59 61  1  0  0  0
 59 62  1  0  0  0
 60126  1  0  0  0
 60127  1  0  0  0
 60128  1  0  0  0
 61129  1  0  0  0
 61130  1  0  0  0
 61131  1  0  0  0
 62132  1  0  0  0
 62133  1  0  0  0
 62134  1  0  0  0
 63 65  1  0  0  0
 63135  1  0  0  0
 63136  1  0  0  0
 63137  1  0  0  0
 64138  1  0  0  0
 65139  1  0  0  0
 68 78  1  0  0  0
 71 73  2  0  0  0
 71 75  1  0  0  0
 71140  1  0  0  0
 72 74  2  0  0  0
 72 79  1  0  0  0
 72141  1  0  0  0
 73 74  1  0  0  0
 73 78  1  0  0  0
 74 77  1  0  0  0
 75 76  1  0  0  0
 75 79  2  0  0  0
 76142  1  0  0  0
 76143  1  0  0  0
 76144  1  0  0  0
 77 80  1  0  0  0
 77145  1  0  0  0
 77146  1  0  0  0
 78147  1  0  0  0
 78148  1  0  0  0
 80149  1  0  0  0
M  ISO  4   1 100  68 101  78 101  80 100
M  END
> <chiral flag>
0

> <version>
0

> <s_m_source_file>
/data/baiqing/PycharmProjects/Reinvent-master-3.2/result/LINK_invent/BTK/process_docking_weight1_custom_sum_contain_oxygen_bond_distance_aromatic_linkinvent_7_9_3/rearranged_h_0042.sdf

> <i_m_source_file_index>
50

> <r_mmod_Potential_Energy-OPLS-2005>
3043.21166992188

> <r_mmod_Stretch_Energy-OPLS-2005>
1206.984375

> <r_mmod_Bend_Energy-OPLS-2005>
971.010009765625

> <r_mmod_Torsional_Energy-OPLS-2005>
444.838256835938

> <r_mmod_Improper_Torsional_Energy-OPLS-2005>
57.394962310791

> <r_mmod_Van_der_Waal_Energy-OPLS-2005>
140.752639770508

> <r_mmod_Electrostatic_Energy-OPLS-2005>
-493.810028076172

> <r_mmod_Solvation_Energy-OPLS-2005>
-239.963455200195

> <b_mmod_Minimization_Converged-OPLS-2005>
0

> <r_mmod_RMS_Derivative-OPLS-2005>
2.46363854408264

$$$$
51
                    3D
 Structure written by MMmdl.
169177  0  0  1  0            999 V2000
  -30.6756  -14.6797   20.5015 C   0  0  0  0  0  0
  -30.4522  -12.4275   19.4377 C   0  0  0  0  0  0
  -29.5039  -12.4064   18.2185 C   0  0  0  0  0  0
  -28.0396  -12.1797   18.6527 C   0  0  0  0  0  0
  -27.6339  -13.0999   19.8181 C   0  0  2  0  0  0
  -28.7032  -13.0758   20.9540 C   0  0  0  0  0  0
  -25.2587  -13.7842   20.5652 C   0  0  0  0  0  0
  -24.1786  -13.0272   20.9226 C   0  0  0  0  0  0
  -24.6240  -11.6719   20.8793 C   0  0  0  0  0  0
  -23.8903  -10.4191   21.0463 C   0  0  0  0  0  0
  -24.3517   -9.4130   21.9219 C   0  0  0  0  0  0
  -23.6224   -8.2164   22.0756 C   0  0  0  0  0  0
  -22.4213   -8.0218   21.3537 C   0  0  0  0  0  0
  -21.9817   -9.0176   20.4640 C   0  0  0  0  0  0
  -22.7109  -10.2065   20.3069 C   0  0  0  0  0  0
  -21.6824   -6.0705   22.5285 C   0  0  0  0  0  0
  -21.3987   -6.5617   23.8214 C   0  0  0  0  0  0
  -21.3643   -5.6776   24.9181 C   0  0  0  0  0  0
  -21.6039   -4.3040   24.7238 C   0  0  0  0  0  0
  -21.8822   -3.8129   23.4361 C   0  0  0  0  0  0
  -21.9191   -4.6938   22.3412 C   0  0  0  0  0  0
  -22.7851  -13.5199   21.1884 C   0  0  0  0  0  0
  -22.1668   -4.2126   21.0991 F   0  0  0  0  0  0
  -21.5628   -3.4530   25.7757 F   0  0  0  0  0  0
  -29.9923  -13.4835   20.3679 N   0  0  0  0  0  0
  -26.2864  -12.8780   20.3155 N   0  0  0  0  0  0
  -25.9104  -11.6090   20.5771 N   0  0  0  0  0  0
  -22.0451  -12.8251   22.0452 N   0  0  0  0  0  0
  -25.4244  -15.1556   20.4083 N   0  0  0  0  0  0
  -31.8833  -14.7150   20.2481 O   0  0  0  0  0  0
  -21.6579   -6.8826   21.4241 O   0  0  0  0  0  0
  -22.3590  -14.5516   20.6697 O   0  0  0  0  0  0
  -24.6147  -31.8678   23.2109 C   0  0  0  0  0  0
  -25.9032  -32.4825   23.8420 C   0  0  1  0  0  0
  -27.2675  -27.4379   20.1209 C   0  0  0  0  0  0
  -25.5894  -33.8626   24.2353 N   0  0  0  0  0  0
  -23.4077  -30.4869   21.5475 C   0  0  2  0  0  0
  -24.8674  -28.9481   20.1235 C   0  0  0  0  0  0
  -22.7429  -29.4652   22.4986 C   0  0  0  0  0  0
  -18.0278  -28.1384   22.8494 C   0  0  0  0  0  0
  -24.1488  -36.7318   23.2637 C   0  0  0  0  0  0
  -25.9358  -30.8322   21.3706 C   0  0  0  0  0  0
  -26.0212  -29.4619   20.7298 C   0  0  0  0  0  0
  -27.2218  -28.7129   20.7357 C   0  0  0  0  0  0
  -26.1011  -26.9456   19.4988 C   0  0  0  0  0  0
  -24.9008  -27.6848   19.5068 C   0  0  0  0  0  0
  -23.6251  -29.8118   20.1655 C   0  0  0  0  0  0
  -25.4106  -36.3117   24.0344 C   0  0  1  0  0  0
  -20.5869  -28.3678   23.1309 C   0  0  2  0  0  0
  -20.6771  -26.9413   22.5416 C   0  0  0  0  0  0
  -19.5747  -26.6385   21.5221 C   0  0  0  0  0  0
  -18.1925  -26.7932   22.1628 C   0  0  0  0  0  0
  -19.1528  -28.8850   23.2900 C   0  0  0  0  0  0
  -18.9451  -30.1453   23.8915 C   0  0  0  0  0  0
  -17.6452  -30.6588   24.0570 C   0  0  0  0  0  0
  -25.9031  -34.9477   23.5146 C   0  0  0  0  0  0
  -16.5346  -29.9092   23.6320 C   0  0  0  0  0  0
  -16.7268  -28.6507   23.0351 C   0  0  0  0  0  0
  -26.4465  -31.6592   25.0739 C   0  0  0  0  0  0
  -25.3735  -31.3683   26.1484 C   0  0  0  0  0  0
  -27.0297  -30.3036   24.6107 C   0  0  0  0  0  0
  -27.6041  -32.4308   25.7509 C   0  0  0  0  0  0
  -27.5584  -37.1818   24.8462 C   0  0  0  0  0  0
  -21.4154  -29.3042   22.3719 N   0  0  0  0  0  0
  -26.4295  -37.3797   23.9408 N   0  0  0  0  0  0
  -24.6693  -31.0772   22.1019 N   0  0  0  0  0  0
  -23.4182  -28.8200   23.3046 O   0  0  0  0  0  0
  -28.4043  -26.6516   20.0523 O   0  0  0  0  0  0
  -26.5589  -34.8918   22.4706 O   0  0  0  0  0  0
  -23.5330  -32.1438   23.7483 O   0  0  0  0  0  0
  -31.2712  -20.6192   21.4062 C   0  0  0  0  0  0
  -30.0709  -19.9692   21.0564 C   0  0  0  0  0  0
  -29.0165  -20.8332   20.6646 C   0  0  0  0  0  0
  -30.3398  -22.6795   20.9100 C   0  0  0  0  0  0
  -27.4430  -20.2393   18.7637 C   0  0  0  0  0  0
  -27.2620  -16.5598   18.0612 C   0  0  0  0  0  0
  -29.7738  -18.4578   21.1014 C   0  0  0  0  0  0
  -27.6139  -20.3664   20.2833 C   0  0  0  0  0  0
  -30.4302  -24.2018   20.7272 C   0  0  0  0  0  0
  -28.6298  -16.2664   18.6871 C   0  0  0  0  0  0
  -29.4186  -25.0046   21.5953 C   0  0  0  0  0  0
  -30.7326  -17.1994   20.9976 C   0  0  0  0  0  0
  -28.6290  -16.0982   20.2331 C   0  0  0  0  0  0
  -29.2179  -26.5009   21.2264 C   0  0  0  0  0  0
  -31.3919  -21.9745   21.3406 N   0  0  0  0  0  0
  -29.1782  -22.1577   20.5666 N   0  0  0  0  0  0
  -30.0057  -15.8815   20.7354 N   0  0  0  0  0  0
  -31.4755  -12.5886   19.0954 H   0  0  0  0  0  0
  -30.4616  -11.4571   19.9381 H   0  0  0  0  0  0
  -29.8051  -11.6099   17.5373 H   0  0  0  0  0  0
  -29.5964  -13.3301   17.6496 H   0  0  0  0  0  0
  -27.9368  -11.1373   18.9587 H   0  0  0  0  0  0
  -27.3674  -12.3141   17.8045 H   0  0  0  0  0  0
  -27.5733  -14.0275   19.2812 H   0  0  0  0  0  0
  -28.7815  -12.0670   21.3614 H   0  0  0  0  0  0
  -28.4325  -13.6972   21.8084 H   0  0  0  0  0  0
  -25.2667   -9.5624   22.4783 H   0  0  0  0  0  0
  -23.9943   -7.4545   22.7453 H   0  0  0  0  0  0
  -21.0755   -8.8671   19.8937 H   0  0  0  0  0  0
  -22.3571  -10.9613   19.6179 H   0  0  0  0  0  0
  -21.1954   -7.6119   23.9710 H   0  0  0  0  0  0
  -21.1466   -6.0506   25.9079 H   0  0  0  0  0  0
  -22.0618   -2.7594   23.2867 H   0  0  0  0  0  0
  -22.4049  -11.9925   22.4874 H   0  0  0  0  0  0
  -21.1071  -13.1309   22.2616 H   0  0  0  0  0  0
  -24.6490  -15.8015   20.5083 H   0  0  0  0  0  0
  -26.2541  -15.5888   20.0250 H   0  0  0  0  0  0
  -26.7119  -32.5551   23.1204 H   0  0  0  0  0  0
  -25.0067  -33.9798   25.0511 H   0  0  0  0  0  0
  -22.6965  -31.3021   21.4012 H   0  0  0  0  0  0
  -23.3745  -35.9656   23.3304 H   0  0  0  0  0  0
  -24.3588  -36.8926   22.2049 H   0  0  0  0  0  0
  -23.7246  -37.6529   23.6643 H   0  0  0  0  0  0
  -26.0495  -31.5927   20.5967 H   0  0  0  0  0  0
  -26.8217  -30.8928   21.9900 H   0  0  0  0  0  0
  -28.1095  -29.1206   21.1994 H   0  0  0  0  0  0
  -26.1237  -25.9787   19.0159 H   0  0  0  0  0  0
  -24.0173  -27.2806   19.0323 H   0  0  0  0  0  0
  -23.7366  -30.5835   19.4032 H   0  0  0  0  0  0
  -22.7525  -29.2277   19.8668 H   0  0  0  0  0  0
  -25.1284  -36.1993   25.0838 H   0  0  0  0  0  0
  -20.9962  -28.3247   24.1430 H   0  0  0  0  0  0
  -20.5690  -26.2291   23.3613 H   0  0  0  0  0  0
  -21.6638  -26.7465   22.1199 H   0  0  0  0  0  0
  -19.6907  -25.6295   21.1258 H   0  0  0  0  0  0
  -19.6681  -27.3192   20.6749 H   0  0  0  0  0  0
  -17.4200  -26.6694   21.4021 H   0  0  0  0  0  0
  -18.0309  -26.0071   22.9016 H   0  0  0  0  0  0
  -19.7926  -30.7270   24.2290 H   0  0  0  0  0  0
  -17.5004  -31.6268   24.5171 H   0  0  0  0  0  0
  -15.5349  -30.3005   23.7625 H   0  0  0  0  0  0
  -15.8667  -28.0830   22.7060 H   0  0  0  0  0  0
  -24.5899  -30.7047   25.7806 H   0  0  0  0  0  0
  -24.8932  -32.2830   26.4969 H   0  0  0  0  0  0
  -25.8083  -30.8815   27.0221 H   0  0  0  0  0  0
  -26.2844  -29.6812   24.1135 H   0  0  0  0  0  0
  -27.4042  -29.7252   25.4563 H   0  0  0  0  0  0
  -27.8694  -30.4357   23.9280 H   0  0  0  0  0  0
  -27.2658  -33.3591   26.2128 H   0  0  0  0  0  0
  -28.3836  -32.6895   25.0331 H   0  0  0  0  0  0
  -28.0727  -31.8406   26.5397 H   0  0  0  0  0  0
  -28.2598  -38.0119   24.7514 H   0  0  0  0  0  0
  -28.1089  -36.2651   24.6283 H   0  0  0  0  0  0
  -27.2305  -37.1464   25.8866 H   0  0  0  0  0  0
  -20.9332  -29.8752   21.6920 H   0  0  0  0  0  0
  -26.0188  -38.2881   24.1395 H   0  0  0  0  0  0
  -32.1329  -20.0623   21.7445 H   0  0  0  0  0  0
  -26.4371  -19.9042   18.5112 H   0  0  0  0  0  0
  -28.1526  -19.5273   18.3430 H   0  0  0  0  0  0
  -27.6068  -21.1984   18.2729 H   0  0  0  0  0  0
  -27.3793  -16.8523   17.0171 H   0  0  0  0  0  0
  -26.7506  -17.3732   18.5751 H   0  0  0  0  0  0
  -26.6106  -15.6874   18.0663 H   0  0  0  0  0  0
  -29.2460  -18.4395   20.1568 H   0  0  0  0  0  0
  -29.0771  -18.3119   21.9293 H   0  0  0  0  0  0
  -26.8908  -21.0896   20.6629 H   0  0  0  0  0  0
  -27.3516  -19.4328   20.7787 H   0  0  0  0  0  0
  -30.2497  -24.4173   19.6734 H   0  0  0  0  0  0
  -31.4464  -24.5405   20.9318 H   0  0  0  0  0  0
  -29.3036  -17.0792   18.4143 H   0  0  0  0  0  0
  -29.0540  -15.3905   18.2012 H   0  0  0  0  0  0
  -29.7379  -24.9263   22.6352 H   0  0  0  0  0  0
  -28.4405  -24.5254   21.5547 H   0  0  0  0  0  0
  -31.3275  -17.1012   21.9072 H   0  0  0  0  0  0
  -31.4382  -17.3595   20.1809 H   0  0  0  0  0  0
  -27.9706  -15.3737   20.6506 H   0  0  0  0  0  0
  -28.0614  -16.9013   20.6857 H   0  0  0  0  0  0
  -30.1817  -26.9859   21.0675 H   0  0  0  0  0  0
  -28.7615  -26.9987   22.0839 H   0  0  0  0  0  0
  1 25  1  0  0  0
  1 30  2  0  0  0
  1 87  1  0  0  0
  2  3  1  0  0  0
  2 25  1  0  0  0
  2 88  1  0  0  0
  2 89  1  0  0  0
  3  4  1  0  0  0
  3 90  1  0  0  0
  3 91  1  0  0  0
  4  5  1  0  0  0
  4 92  1  0  0  0
  4 93  1  0  0  0
  5  6  1  0  0  0
  5 26  1  0  0  0
  5 94  1  0  0  0
  6 25  1  0  0  0
  6 95  1  0  0  0
  6 96  1  0  0  0
  7  8  2  0  0  0
  7 26  1  0  0  0
  7 29  1  0  0  0
  8  9  1  0  0  0
  8 22  1  0  0  0
  9 10  1  0  0  0
  9 27  2  0  0  0
 10 11  2  0  0  0
 10 15  1  0  0  0
 11 12  1  0  0  0
 11 97  1  0  0  0
 12 13  2  0  0  0
 12 98  1  0  0  0
 13 14  1  0  0  0
 13 31  1  0  0  0
 14 15  2  0  0  0
 14 99  1  0  0  0
 15100  1  0  0  0
 16 17  2  0  0  0
 16 21  1  0  0  0
 16 31  1  0  0  0
 17 18  1  0  0  0
 17101  1  0  0  0
 18 19  2  0  0  0
 18102  1  0  0  0
 19 20  1  0  0  0
 19 24  1  0  0  0
 20 21  2  0  0  0
 20103  1  0  0  0
 21 23  1  0  0  0
 22 28  1  0  0  0
 22 32  2  0  0  0
 26 27  1  0  0  0
 28104  1  0  0  0
 28105  1  0  0  0
 29106  1  0  0  0
 29107  1  0  0  0
 33 34  1  0  0  0
 33 66  1  0  0  0
 33 70  2  0  0  0
 34 36  1  0  0  0
 34 59  1  0  0  0
 34108  1  0  0  0
 35 44  2  0  0  0
 35 45  1  0  0  0
 35 68  1  0  0  0
 36 56  1  0  0  0
 36109  1  0  0  0
 37 39  1  0  0  0
 37 47  1  0  0  0
 37 66  1  0  0  0
 37110  1  0  0  0
 38 43  2  0  0  0
 38 46  1  0  0  0
 38 47  1  0  0  0
 39 64  1  0  0  0
 39 67  2  0  0  0
 40 52  1  0  0  0
 40 53  2  0  0  0
 40 58  1  0  0  0
 41111  1  0  0  0
 41112  1  0  0  0
 41113  1  0  0  0
 41 48  1  0  0  0
 42 43  1  0  0  0
 42 66  1  0  0  0
 42114  1  0  0  0
 42115  1  0  0  0
 43 44  1  0  0  0
 44116  1  0  0  0
 45 46  2  0  0  0
 45117  1  0  0  0
 46118  1  0  0  0
 47119  1  0  0  0
 47120  1  0  0  0
 48 56  1  0  0  0
 48 65  1  0  0  0
 48121  1  0  0  0
 49 50  1  0  0  0
 49 53  1  0  0  0
 49 64  1  0  0  0
 49122  1  0  0  0
 50 51  1  0  0  0
 50123  1  0  0  0
 50124  1  0  0  0
 51 52  1  0  0  0
 51125  1  0  0  0
 51126  1  0  0  0
 52127  1  0  0  0
 52128  1  0  0  0
 53 54  1  0  0  0
 54 55  2  0  0  0
 54129  1  0  0  0
 55 57  1  0  0  0
 55130  1  0  0  0
 56 69  2  0  0  0
 57 58  2  0  0  0
 57131  1  0  0  0
 58132  1  0  0  0
 59 60  1  0  0  0
 59 61  1  0  0  0
 59 62  1  0  0  0
 60133  1  0  0  0
 60134  1  0  0  0
 60135  1  0  0  0
 61136  1  0  0  0
 61137  1  0  0  0
 61138  1  0  0  0
 62139  1  0  0  0
 62140  1  0  0  0
 62141  1  0  0  0
 63 65  1  0  0  0
 63142  1  0  0  0
 63143  1  0  0  0
 63144  1  0  0  0
 64145  1  0  0  0
 65146  1  0  0  0
 68 84  1  0  0  0
 71 72  2  0  0  0
 71 85  1  0  0  0
 71147  1  0  0  0
 72 73  1  0  0  0
 72 77  1  0  0  0
 73 78  1  0  0  0
 73 86  2  0  0  0
 74 79  1  0  0  0
 74 85  2  0  0  0
 74 86  1  0  0  0
 75 78  1  0  0  0
 75148  1  0  0  0
 75149  1  0  0  0
 75150  1  0  0  0
 76 80  1  0  0  0
 76151  1  0  0  0
 76152  1  0  0  0
 76153  1  0  0  0
 77 82  1  0  0  0
 77154  1  0  0  0
 77155  1  0  0  0
 78156  1  0  0  0
 78157  1  0  0  0
 79 81  1  0  0  0
 79158  1  0  0  0
 79159  1  0  0  0
 80 83  1  0  0  0
 80160  1  0  0  0
 80161  1  0  0  0
 81 84  1  0  0  0
 81162  1  0  0  0
 81163  1  0  0  0
 82 87  1  0  0  0
 82164  1  0  0  0
 82165  1  0  0  0
 83 87  1  0  0  0
 83166  1  0  0  0
 83167  1  0  0  0
 84168  1  0  0  0
 84169  1  0  0  0
M  ISO  4   1 100  68 101  84 101  87 100
M  END
> <chiral flag>
0

> <version>
0

> <s_m_source_file>
/data/baiqing/PycharmProjects/Reinvent-master-3.2/result/LINK_invent/BTK/process_docking_weight1_custom_sum_contain_oxygen_bond_distance_aromatic_linkinvent_7_9_3/rearranged_h_0042.sdf

> <i_m_source_file_index>
51

> <r_mmod_Potential_Energy-OPLS-2005>
-159.643905639648

> <r_mmod_Stretch_Energy-OPLS-2005>
65.1450500488281

> <r_mmod_Bend_Energy-OPLS-2005>
199.078765869141

> <r_mmod_Torsional_Energy-OPLS-2005>
275.908416748047

> <r_mmod_Improper_Torsional_Energy-OPLS-2005>
5.31571340560913

> <r_mmod_Van_der_Waal_Energy-OPLS-2005>
201.97297668457

> <r_mmod_Electrostatic_Energy-OPLS-2005>
-739.761413574219

> <r_mmod_Solvation_Energy-OPLS-2005>
-217.412094116211

> <b_mmod_Minimization_Converged-OPLS-2005>
0

> <r_mmod_RMS_Derivative-OPLS-2005>
1.41333103179932

$$$$
52
                    3D
 Structure written by MMmdl.
155163  0  0  1  0            999 V2000
  -30.7410  -14.3797   20.6359 C   0  0  0  0  0  0
  -30.4308  -12.2747   19.3874 C   0  0  0  0  0  0
  -29.4817  -12.4960   18.1918 C   0  0  0  0  0  0
  -28.0079  -12.3537   18.6175 C   0  0  0  0  0  0
  -27.6737  -13.1858   19.8836 C   0  0  2  0  0  0
  -28.7190  -12.9150   20.9919 C   0  0  0  0  0  0
  -25.2666  -13.8135   20.5704 C   0  0  0  0  0  0
  -24.1887  -13.0434   20.9171 C   0  0  0  0  0  0
  -24.6404  -11.6892   20.8739 C   0  0  0  0  0  0
  -23.9077  -10.4288   21.0419 C   0  0  0  0  0  0
  -24.3637   -9.4196   21.9180 C   0  0  0  0  0  0
  -23.6310   -8.2236   22.0743 C   0  0  0  0  0  0
  -22.4279   -8.0294   21.3554 C   0  0  0  0  0  0
  -21.9937   -9.0260   20.4636 C   0  0  0  0  0  0
  -22.7266  -10.2137   20.3047 C   0  0  0  0  0  0
  -21.6868   -6.0754   22.5282 C   0  0  0  0  0  0
  -21.4005   -6.5653   23.8216 C   0  0  0  0  0  0
  -21.3646   -5.6798   24.9175 C   0  0  0  0  0  0
  -21.6060   -4.3066   24.7222 C   0  0  0  0  0  0
  -21.8825   -3.8164   23.4339 C   0  0  0  0  0  0
  -21.9196   -4.6983   22.3401 C   0  0  0  0  0  0
  -22.7915  -13.5234   21.1864 C   0  0  0  0  0  0
  -22.1673   -4.2183   21.0975 F   0  0  0  0  0  0
  -21.5633   -3.4536   25.7726 F   0  0  0  0  0  0
  -30.0579  -13.2222   20.4486 N   0  0  0  0  0  0
  -26.3094  -12.9260   20.3426 N   0  0  0  0  0  0
  -25.9322  -11.6436   20.5788 N   0  0  0  0  0  0
  -22.0584  -12.8163   22.0401 N   0  0  0  0  0  0
  -25.4440  -15.1837   20.4148 N   0  0  0  0  0  0
  -31.7942  -14.6576   20.0526 O   0  0  0  0  0  0
  -21.6646   -6.8888   21.4245 O   0  0  0  0  0  0
  -22.3591  -14.5559   20.6754 O   0  0  0  0  0  0
  -24.6113  -31.8678   23.2141 C   0  0  0  0  0  0
  -25.9018  -32.4790   23.8433 C   0  0  1  0  0  0
  -27.2419  -27.4414   20.0914 C   0  0  0  0  0  0
  -25.5877  -33.8599   24.2357 N   0  0  0  0  0  0
  -23.3984  -30.4900   21.5578 C   0  0  2  0  0  0
  -24.8480  -28.9605   20.1166 C   0  0  0  0  0  0
  -22.7376  -29.4642   22.5051 C   0  0  0  0  0  0
  -18.0262  -28.1333   22.8492 C   0  0  0  0  0  0
  -24.1488  -36.7309   23.2635 C   0  0  0  0  0  0
  -25.9294  -30.8336   21.3705 C   0  0  0  0  0  0
  -26.0066  -29.4731   20.7084 C   0  0  0  0  0  0
  -27.2038  -28.7234   20.6890 C   0  0  0  0  0  0
  -26.0549  -26.9329   19.5092 C   0  0  0  0  0  0
  -24.8679  -27.6901   19.5181 C   0  0  0  0  0  0
  -23.6040  -29.8206   20.1734 C   0  0  0  0  0  0
  -25.4101  -36.3091   24.0328 C   0  0  1  0  0  0
  -20.5838  -28.3608   23.1346 C   0  0  2  0  0  0
  -20.6771  -26.9342   22.5445 C   0  0  0  0  0  0
  -19.5802  -26.6354   21.5201 C   0  0  0  0  0  0
  -18.1944  -26.7898   22.1568 C   0  0  0  0  0  0
  -19.1501  -28.8789   23.2929 C   0  0  0  0  0  0
  -18.9443  -30.1396   23.8942 C   0  0  0  0  0  0
  -17.6461  -30.6578   24.0521 C   0  0  0  0  0  0
  -25.9022  -34.9438   23.5142 C   0  0  0  0  0  0
  -16.5351  -29.9060   23.6341 C   0  0  0  0  0  0
  -16.7257  -28.6448   23.0419 C   0  0  0  0  0  0
  -26.4485  -31.6540   25.0728 C   0  0  0  0  0  0
  -25.3777  -31.3632   26.1499 C   0  0  0  0  0  0
  -27.0320  -30.2970   24.6130 C   0  0  0  0  0  0
  -27.6074  -32.4262   25.7471 C   0  0  0  0  0  0
  -27.5574  -37.1812   24.8460 C   0  0  0  0  0  0
  -21.4094  -29.2992   22.3745 N   0  0  0  0  0  0
  -26.4288  -37.3771   23.9391 N   0  0  0  0  0  0
  -24.6634  -31.0803   22.1028 N   0  0  0  0  0  0
  -23.4164  -28.8177   23.3079 O   0  0  0  0  0  0
  -28.4479  -26.7706   20.0679 O   0  0  0  0  0  0
  -26.5583  -34.8875   22.4703 O   0  0  0  0  0  0
  -23.5312  -32.1430   23.7541 O   0  0  0  0  0  0
  -29.2698  -22.3847   20.5397 C   0  0  0  0  0  0
  -29.8092  -21.3639   21.2805 C   0  0  0  0  0  0
  -29.5588  -17.4871   20.5949 C   0  0  0  0  0  0
  -29.2294  -18.9387   21.0117 C   0  0  0  0  0  0
  -28.3261  -24.6726   21.3429 C   0  0  0  0  0  0
  -30.4211  -16.6771   21.5905 C   0  0  0  0  0  0
  -28.5051  -25.3390   19.9634 C   0  0  0  0  0  0
  -30.3274  -20.0075   20.8451 C   0  0  0  0  0  0
  -29.7454  -21.7291   22.6270 N   0  0  0  0  0  0
  -29.2281  -22.9127   22.7325 N   0  0  0  0  0  0
  -28.9450  -23.3524   21.4815 N   0  0  0  0  0  0
  -30.1387  -15.2480   21.4529 N   0  0  0  0  0  0
  -30.7035  -20.0291   19.5661 F   0  0  0  0  0  0
  -31.3891  -19.6384   21.5640 F   0  0  0  0  0  0
  -31.4711  -12.3828   19.0712 H   0  0  0  0  0  0
  -30.3437  -11.2527   19.7587 H   0  0  0  0  0  0
  -29.7046  -11.7807   17.3976 H   0  0  0  0  0  0
  -29.6449  -13.4893   17.7733 H   0  0  0  0  0  0
  -27.8077  -11.2952   18.8007 H   0  0  0  0  0  0
  -27.3511  -12.6464   17.7988 H   0  0  0  0  0  0
  -27.7362  -14.2383   19.6047 H   0  0  0  0  0  0
  -28.6919  -11.8636   21.2823 H   0  0  0  0  0  0
  -28.4777  -13.4628   21.9023 H   0  0  0  0  0  0
  -25.2785   -9.5685   22.4739 H   0  0  0  0  0  0
  -24.0052   -7.4630   22.7434 H   0  0  0  0  0  0
  -21.0887   -8.8772   19.8919 H   0  0  0  0  0  0
  -22.3737  -10.9682   19.6151 H   0  0  0  0  0  0
  -21.1979   -7.6158   23.9734 H   0  0  0  0  0  0
  -21.1467   -6.0518   25.9083 H   0  0  0  0  0  0
  -22.0617   -2.7632   23.2822 H   0  0  0  0  0  0
  -22.4229  -11.9777   22.4668 H   0  0  0  0  0  0
  -21.1212  -13.1141   22.2693 H   0  0  0  0  0  0
  -24.6885  -15.8467   20.5427 H   0  0  0  0  0  0
  -26.3040  -15.6220   20.1096 H   0  0  0  0  0  0
  -26.7083  -32.5494   23.1205 H   0  0  0  0  0  0
  -25.0000  -33.9772   25.0489 H   0  0  0  0  0  0
  -22.6806  -31.3024   21.4221 H   0  0  0  0  0  0
  -23.3724  -35.9671   23.3308 H   0  0  0  0  0  0
  -24.3598  -36.8901   22.2054 H   0  0  0  0  0  0
  -23.7251  -37.6527   23.6644 H   0  0  0  0  0  0
  -26.0537  -31.6073   20.6115 H   0  0  0  0  0  0
  -26.8077  -30.8699   22.0030 H   0  0  0  0  0  0
  -28.1012  -29.1229   21.1420 H   0  0  0  0  0  0
  -26.0227  -25.9652   19.0345 H   0  0  0  0  0  0
  -23.9707  -27.2918   19.0645 H   0  0  0  0  0  0
  -23.6813  -30.5888   19.4041 H   0  0  0  0  0  0
  -22.7332  -29.2238   19.9019 H   0  0  0  0  0  0
  -25.1270  -36.1972   25.0812 H   0  0  0  0  0  0
  -20.9920  -28.3156   24.1467 H   0  0  0  0  0  0
  -20.5601  -26.2195   23.3602 H   0  0  0  0  0  0
  -21.6671  -26.7361   22.1311 H   0  0  0  0  0  0
  -19.6982  -25.6255   21.1255 H   0  0  0  0  0  0
  -19.6845  -27.3143   20.6717 H   0  0  0  0  0  0
  -17.4253  -26.6645   21.3940 H   0  0  0  0  0  0
  -18.0361  -25.9999   22.8905 H   0  0  0  0  0  0
  -19.7920  -30.7157   24.2406 H   0  0  0  0  0  0
  -17.5015  -31.6294   24.5031 H   0  0  0  0  0  0
  -15.5347  -30.2965   23.7676 H   0  0  0  0  0  0
  -15.8632  -28.0724   22.7257 H   0  0  0  0  0  0
  -24.5909  -30.7024   25.7831 H   0  0  0  0  0  0
  -24.9019  -32.2778   26.5022 H   0  0  0  0  0  0
  -25.8126  -30.8726   27.0199 H   0  0  0  0  0  0
  -26.2865  -29.6704   24.1225 H   0  0  0  0  0  0
  -27.4087  -29.7227   25.4599 H   0  0  0  0  0  0
  -27.8726  -30.4244   23.9287 H   0  0  0  0  0  0
  -27.2719  -33.3566   26.2054 H   0  0  0  0  0  0
  -28.3887  -32.6786   25.0295 H   0  0  0  0  0  0
  -28.0749  -31.8369   26.5376 H   0  0  0  0  0  0
  -28.2617  -38.0090   24.7471 H   0  0  0  0  0  0
  -28.1041  -36.2616   24.6332 H   0  0  0  0  0  0
  -27.2277  -37.1502   25.8858 H   0  0  0  0  0  0
  -20.9228  -29.8645   21.6917 H   0  0  0  0  0  0
  -26.0174  -38.2849   24.1350 H   0  0  0  0  0  0
  -29.0987  -22.4866   19.4748 H   0  0  0  0  0  0
  -30.0073  -17.4608   19.6001 H   0  0  0  0  0  0
  -28.5984  -16.9792   20.4934 H   0  0  0  0  0  0
  -28.8836  -18.9318   22.0445 H   0  0  0  0  0  0
  -28.3798  -19.2687   20.4132 H   0  0  0  0  0  0
  -27.2707  -24.6016   21.6010 H   0  0  0  0  0  0
  -28.7852  -25.3190   22.0925 H   0  0  0  0  0  0
  -30.1886  -16.9611   22.6166 H   0  0  0  0  0  0
  -31.4831  -16.8825   21.4494 H   0  0  0  0  0  0
  -27.8295  -24.9148   19.2232 H   0  0  0  0  0  0
  -29.5064  -25.1119   19.5975 H   0  0  0  0  0  0
  -29.3102  -14.9002   21.9149 H   0  0  0  0  0  0
  1 25  1  0  0  0
  1 30  2  0  0  0
  1 82  1  0  0  0
  2  3  1  0  0  0
  2 25  1  0  0  0
  2 85  1  0  0  0
  2 86  1  0  0  0
  3  4  1  0  0  0
  3 87  1  0  0  0
  3 88  1  0  0  0
  4  5  1  0  0  0
  4 89  1  0  0  0
  4 90  1  0  0  0
  5  6  1  0  0  0
  5 26  1  0  0  0
  5 91  1  0  0  0
  6 25  1  0  0  0
  6 92  1  0  0  0
  6 93  1  0  0  0
  7  8  2  0  0  0
  7 26  1  0  0  0
  7 29  1  0  0  0
  8  9  1  0  0  0
  8 22  1  0  0  0
  9 10  1  0  0  0
  9 27  2  0  0  0
 10 11  2  0  0  0
 10 15  1  0  0  0
 11 12  1  0  0  0
 11 94  1  0  0  0
 12 13  2  0  0  0
 12 95  1  0  0  0
 13 14  1  0  0  0
 13 31  1  0  0  0
 14 15  2  0  0  0
 14 96  1  0  0  0
 15 97  1  0  0  0
 16 17  2  0  0  0
 16 21  1  0  0  0
 16 31  1  0  0  0
 17 18  1  0  0  0
 17 98  1  0  0  0
 18 19  2  0  0  0
 18 99  1  0  0  0
 19 20  1  0  0  0
 19 24  1  0  0  0
 20 21  2  0  0  0
 20100  1  0  0  0
 21 23  1  0  0  0
 22 28  1  0  0  0
 22 32  2  0  0  0
 26 27  1  0  0  0
 28101  1  0  0  0
 28102  1  0  0  0
 29103  1  0  0  0
 29104  1  0  0  0
 33 34  1  0  0  0
 33 66  1  0  0  0
 33 70  2  0  0  0
 34 36  1  0  0  0
 34 59  1  0  0  0
 34105  1  0  0  0
 35 44  2  0  0  0
 35 45  1  0  0  0
 35 68  1  0  0  0
 36 56  1  0  0  0
 36106  1  0  0  0
 37 39  1  0  0  0
 37 47  1  0  0  0
 37 66  1  0  0  0
 37107  1  0  0  0
 38 43  2  0  0  0
 38 46  1  0  0  0
 38 47  1  0  0  0
 39 64  1  0  0  0
 39 67  2  0  0  0
 40 52  1  0  0  0
 40 53  2  0  0  0
 40 58  1  0  0  0
 41108  1  0  0  0
 41109  1  0  0  0
 41110  1  0  0  0
 41 48  1  0  0  0
 42 43  1  0  0  0
 42 66  1  0  0  0
 42111  1  0  0  0
 42112  1  0  0  0
 43 44  1  0  0  0
 44113  1  0  0  0
 45 46  2  0  0  0
 45114  1  0  0  0
 46115  1  0  0  0
 47116  1  0  0  0
 47117  1  0  0  0
 48 56  1  0  0  0
 48 65  1  0  0  0
 48118  1  0  0  0
 49 50  1  0  0  0
 49 53  1  0  0  0
 49 64  1  0  0  0
 49119  1  0  0  0
 50 51  1  0  0  0
 50120  1  0  0  0
 50121  1  0  0  0
 51 52  1  0  0  0
 51122  1  0  0  0
 51123  1  0  0  0
 52124  1  0  0  0
 52125  1  0  0  0
 53 54  1  0  0  0
 54 55  2  0  0  0
 54126  1  0  0  0
 55 57  1  0  0  0
 55127  1  0  0  0
 56 69  2  0  0  0
 57 58  2  0  0  0
 57128  1  0  0  0
 58129  1  0  0  0
 59 60  1  0  0  0
 59 61  1  0  0  0
 59 62  1  0  0  0
 60130  1  0  0  0
 60131  1  0  0  0
 60132  1  0  0  0
 61133  1  0  0  0
 61134  1  0  0  0
 61135  1  0  0  0
 62136  1  0  0  0
 62137  1  0  0  0
 62138  1  0  0  0
 63 65  1  0  0  0
 63139  1  0  0  0
 63140  1  0  0  0
 63141  1  0  0  0
 64142  1  0  0  0
 65143  1  0  0  0
 68 77  1  0  0  0
 71 72  2  0  0  0
 71 81  1  0  0  0
 71144  1  0  0  0
 72 78  1  0  0  0
 72 79  1  0  0  0
 73 74  1  0  0  0
 73 76  1  0  0  0
 73145  1  0  0  0
 73146  1  0  0  0
 74 78  1  0  0  0
 74147  1  0  0  0
 74148  1  0  0  0
 75 77  1  0  0  0
 75 81  1  0  0  0
 75149  1  0  0  0
 75150  1  0  0  0
 76 82  1  0  0  0
 76151  1  0  0  0
 76152  1  0  0  0
 77153  1  0  0  0
 77154  1  0  0  0
 78 83  1  0  0  0
 78 84  1  0  0  0
 79 80  2  0  0  0
 80 81  1  0  0  0
 82155  1  0  0  0
M  ISO  4   1 100  68 101  77 101  82 100
M  END
> <chiral flag>
0

> <version>
0

> <s_m_source_file>
/data/baiqing/PycharmProjects/Reinvent-master-3.2/result/LINK_invent/BTK/process_docking_weight1_custom_sum_contain_oxygen_bond_distance_aromatic_linkinvent_7_9_3/rearranged_h_0042.sdf

> <i_m_source_file_index>
52

> <r_mmod_Potential_Energy-OPLS-2005>
-107.205909729004

> <r_mmod_Stretch_Energy-OPLS-2005>
33.5005035400391

> <r_mmod_Bend_Energy-OPLS-2005>
106.835258483887

> <r_mmod_Torsional_Energy-OPLS-2005>
205.888137817383

> <r_mmod_Improper_Torsional_Energy-OPLS-2005>
2.65798354148865

> <r_mmod_Van_der_Waal_Energy-OPLS-2005>
128.852142333984

> <r_mmod_Electrostatic_Energy-OPLS-2005>
-366.110870361328

> <r_mmod_Solvation_Energy-OPLS-2005>
-227.130035400391

> <b_mmod_Minimization_Converged-OPLS-2005>
0

> <r_mmod_RMS_Derivative-OPLS-2005>
4.11842775344849

$$$$
53
                    3D
 Structure written by MMmdl.
163171  0  0  1  0            999 V2000
  -30.7041  -14.4651   20.5970 C   0  0  0  0  0  0
  -30.4312  -12.3145   19.4146 C   0  0  0  0  0  0
  -29.5000  -12.5243   18.2033 C   0  0  0  0  0  0
  -28.0226  -12.3690   18.6168 C   0  0  0  0  0  0
  -27.6661  -13.2055   19.8744 C   0  0  2  0  0  0
  -28.7061  -12.9736   20.9933 C   0  0  0  0  0  0
  -25.2609  -13.8159   20.5672 C   0  0  0  0  0  0
  -24.1853  -13.0426   20.9160 C   0  0  0  0  0  0
  -24.6412  -11.6896   20.8712 C   0  0  0  0  0  0
  -23.9075  -10.4281   21.0390 C   0  0  0  0  0  0
  -24.3620   -9.4195   21.9177 C   0  0  0  0  0  0
  -23.6293   -8.2230   22.0750 C   0  0  0  0  0  0
  -22.4273   -8.0283   21.3537 C   0  0  0  0  0  0
  -21.9906   -9.0259   20.4636 C   0  0  0  0  0  0
  -22.7242  -10.2133   20.3042 C   0  0  0  0  0  0
  -21.6859   -6.0740   22.5281 C   0  0  0  0  0  0
  -21.4013   -6.5634   23.8216 C   0  0  0  0  0  0
  -21.3656   -5.6779   24.9177 C   0  0  0  0  0  0
  -21.6043   -4.3043   24.7220 C   0  0  0  0  0  0
  -21.8820   -3.8142   23.4340 C   0  0  0  0  0  0
  -21.9190   -4.6967   22.3400 C   0  0  0  0  0  0
  -22.7873  -13.5234   21.1837 C   0  0  0  0  0  0
  -22.1661   -4.2150   21.0980 F   0  0  0  0  0  0
  -21.5632   -3.4526   25.7735 F   0  0  0  0  0  0
  -30.0416  -13.2859   20.4484 N   0  0  0  0  0  0
  -26.3047  -12.9320   20.3339 N   0  0  0  0  0  0
  -25.9333  -11.6472   20.5708 N   0  0  0  0  0  0
  -22.0518  -12.8223   22.0396 N   0  0  0  0  0  0
  -25.4307  -15.1884   20.4125 N   0  0  0  0  0  0
  -31.8114  -14.6871   20.0990 O   0  0  0  0  0  0
  -21.6629   -6.8888   21.4243 O   0  0  0  0  0  0
  -22.3543  -14.5540   20.6703 O   0  0  0  0  0  0
  -24.6219  -31.8656   23.2110 C   0  0  0  0  0  0
  -25.9099  -32.4809   23.8410 C   0  0  1  0  0  0
  -27.2229  -27.3990   20.0827 C   0  0  0  0  0  0
  -25.5942  -33.8607   24.2340 N   0  0  0  0  0  0
  -23.4090  -30.4946   21.5535 C   0  0  2  0  0  0
  -24.8511  -28.9688   20.1103 C   0  0  0  0  0  0
  -22.7447  -29.4651   22.4973 C   0  0  0  0  0  0
  -18.0279  -28.1392   22.8516 C   0  0  0  0  0  0
  -24.1465  -36.7287   23.2634 C   0  0  0  0  0  0
  -25.9433  -30.8244   21.3642 C   0  0  0  0  0  0
  -26.0192  -29.4589   20.7063 C   0  0  0  0  0  0
  -27.2094  -28.6854   20.6846 C   0  0  0  0  0  0
  -26.0211  -26.9434   19.4793 C   0  0  0  0  0  0
  -24.8489  -27.7128   19.4939 C   0  0  0  0  0  0
  -23.6170  -29.8389   20.1646 C   0  0  0  0  0  0
  -25.4086  -36.3091   24.0350 C   0  0  1  0  0  0
  -20.5876  -28.3655   23.1305 C   0  0  2  0  0  0
  -20.6751  -26.9382   22.5410 C   0  0  0  0  0  0
  -19.5723  -26.6397   21.5206 C   0  0  0  0  0  0
  -18.1915  -26.7949   22.1643 C   0  0  0  0  0  0
  -19.1535  -28.8843   23.2917 C   0  0  0  0  0  0
  -18.9464  -30.1449   23.8923 C   0  0  0  0  0  0
  -17.6461  -30.6598   24.0561 C   0  0  0  0  0  0
  -25.9036  -34.9462   23.5136 C   0  0  0  0  0  0
  -16.5349  -29.9098   23.6328 C   0  0  0  0  0  0
  -16.7267  -28.6515   23.0362 C   0  0  0  0  0  0
  -26.4510  -31.6589   25.0739 C   0  0  0  0  0  0
  -25.3775  -31.3713   26.1484 C   0  0  0  0  0  0
  -27.0316  -30.3028   24.6111 C   0  0  0  0  0  0
  -27.6105  -32.4269   25.7508 C   0  0  0  0  0  0
  -27.5558  -37.1790   24.8478 C   0  0  0  0  0  0
  -21.4159  -29.3047   22.3738 N   0  0  0  0  0  0
  -26.4258  -37.3789   23.9434 N   0  0  0  0  0  0
  -24.6776  -31.0743   22.1017 N   0  0  0  0  0  0
  -23.4214  -28.8148   23.2984 O   0  0  0  0  0  0
  -28.3673  -26.6029   20.1010 O   0  0  0  0  0  0
  -26.5575  -34.8916   22.4678 O   0  0  0  0  0  0
  -23.5402  -32.1408   23.7484 O   0  0  0  0  0  0
  -31.0067  -19.9220   20.9865 C   0  0  0  0  0  0
  -29.9594  -19.2417   20.4306 C   0  0  0  0  0  0
  -28.9681  -20.2339   20.1249 C   0  0  0  0  0  0
  -29.4185  -21.4648   20.5563 C   0  0  0  0  0  0
  -27.6286  -19.9723   19.4715 C   0  0  0  0  0  0
  -32.5218  -22.8619   20.6623 C   0  0  0  0  0  0
  -29.8733  -17.7317   20.1934 C   0  0  0  0  0  0
  -28.6384  -22.7754   20.6021 C   0  0  0  0  0  0
  -29.2616  -24.1576   20.2274 C   0  0  0  0  0  0
  -31.5648  -22.2537   21.6957 C   0  0  0  0  0  0
  -30.3711  -16.8524   21.3716 C   0  0  0  0  0  0
  -28.1227  -25.1801   19.9590 C   0  0  0  0  0  0
  -30.6871  -21.2655   21.0912 N   0  0  0  0  0  0
  -30.0118  -15.4309   21.2239 N   0  0  0  0  0  0
  -31.4733  -12.4242   19.1113 H   0  0  0  0  0  0
  -30.3427  -11.2981   19.8012 H   0  0  0  0  0  0
  -29.7464  -11.8141   17.4132 H   0  0  0  0  0  0
  -29.6636  -13.5183   17.7819 H   0  0  0  0  0  0
  -27.8419  -11.3122   18.8112 H   0  0  0  0  0  0
  -27.3699  -12.6377   17.7867 H   0  0  0  0  0  0
  -27.7133  -14.2546   19.5824 H   0  0  0  0  0  0
  -28.6796  -11.9321   21.3164 H   0  0  0  0  0  0
  -28.4571  -13.5567   21.8806 H   0  0  0  0  0  0
  -25.2779   -9.5654   22.4738 H   0  0  0  0  0  0
  -24.0000   -7.4606   22.7463 H   0  0  0  0  0  0
  -21.0839   -8.8782   19.8942 H   0  0  0  0  0  0
  -22.3721  -10.9669   19.6132 H   0  0  0  0  0  0
  -21.2000   -7.6137   23.9723 H   0  0  0  0  0  0
  -21.1486   -6.0506   25.9081 H   0  0  0  0  0  0
  -22.0606   -2.7604   23.2840 H   0  0  0  0  0  0
  -22.4126  -11.9878   22.4773 H   0  0  0  0  0  0
  -21.1136  -13.1246   22.2606 H   0  0  0  0  0  0
  -24.6643  -15.8431   20.5318 H   0  0  0  0  0  0
  -26.2883  -15.6343   20.1107 H   0  0  0  0  0  0
  -26.7162  -32.5509   23.1172 H   0  0  0  0  0  0
  -25.0135  -33.9758   25.0517 H   0  0  0  0  0  0
  -22.7013  -31.3161   21.4202 H   0  0  0  0  0  0
  -23.3733  -35.9608   23.3309 H   0  0  0  0  0  0
  -24.3565  -36.8878   22.2038 H   0  0  0  0  0  0
  -23.7200  -37.6499   23.6629 H   0  0  0  0  0  0
  -26.0534  -31.5874   20.5928 H   0  0  0  0  0  0
  -26.8342  -30.8813   21.9785 H   0  0  0  0  0  0
  -28.1082  -29.0633   21.1519 H   0  0  0  0  0  0
  -25.9402  -25.9860   18.9891 H   0  0  0  0  0  0
  -23.9505  -27.3318   19.0278 H   0  0  0  0  0  0
  -23.7284  -30.6198   19.4120 H   0  0  0  0  0  0
  -22.7401  -29.2652   19.8609 H   0  0  0  0  0  0
  -25.1247  -36.1951   25.0844 H   0  0  0  0  0  0
  -20.9989  -28.3196   24.1409 H   0  0  0  0  0  0
  -20.5620  -26.2250   23.3593 H   0  0  0  0  0  0
  -21.6613  -26.7393   22.1199 H   0  0  0  0  0  0
  -19.6843  -25.6316   21.1207 H   0  0  0  0  0  0
  -19.6647  -27.3233   20.6752 H   0  0  0  0  0  0
  -17.4161  -26.6701   21.4065 H   0  0  0  0  0  0
  -18.0312  -26.0097   22.9045 H   0  0  0  0  0  0
  -19.7932  -30.7265   24.2309 H   0  0  0  0  0  0
  -17.5013  -31.6283   24.5155 H   0  0  0  0  0  0
  -15.5356  -30.2998   23.7646 H   0  0  0  0  0  0
  -15.8673  -28.0831   22.7061 H   0  0  0  0  0  0
  -24.5982  -30.7010   25.7844 H   0  0  0  0  0  0
  -24.8924  -32.2859   26.4905 H   0  0  0  0  0  0
  -25.8136  -30.8941   27.0265 H   0  0  0  0  0  0
  -26.2853  -29.6816   24.1146 H   0  0  0  0  0  0
  -27.4065  -29.7248   25.4567 H   0  0  0  0  0  0
  -27.8704  -30.4357   23.9273 H   0  0  0  0  0  0
  -27.2791  -33.3581   26.2116 H   0  0  0  0  0  0
  -28.3932  -32.6789   25.0341 H   0  0  0  0  0  0
  -28.0748  -31.8352   26.5409 H   0  0  0  0  0  0
  -28.2598  -38.0062   24.7512 H   0  0  0  0  0  0
  -28.1033  -36.2607   24.6321 H   0  0  0  0  0  0
  -27.2293  -37.1444   25.8884 H   0  0  0  0  0  0
  -20.9315  -29.8829   21.7013 H   0  0  0  0  0  0
  -26.0152  -38.2860   24.1483 H   0  0  0  0  0  0
  -31.9600  -19.5621   21.3504 H   0  0  0  0  0  0
  -27.6957  -20.1437   18.3965 H   0  0  0  0  0  0
  -26.8509  -20.6201   19.8729 H   0  0  0  0  0  0
  -27.2909  -18.9498   19.6286 H   0  0  0  0  0  0
  -33.1605  -22.0891   20.2339 H   0  0  0  0  0  0
  -33.1635  -23.6156   21.1187 H   0  0  0  0  0  0
  -31.9888  -23.3395   19.8408 H   0  0  0  0  0  0
  -30.4265  -17.4922   19.2843 H   0  0  0  0  0  0
  -28.8360  -17.4667   19.9960 H   0  0  0  0  0  0
  -28.1997  -22.8656   21.5966 H   0  0  0  0  0  0
  -27.7808  -22.6496   19.9410 H   0  0  0  0  0  0
  -29.8677  -24.0684   19.3259 H   0  0  0  0  0  0
  -29.9109  -24.5267   21.0193 H   0  0  0  0  0  0
  -30.9666  -23.0163   22.1920 H   0  0  0  0  0  0
  -32.1394  -21.7679   22.4861 H   0  0  0  0  0  0
  -29.9048  -17.2043   22.2925 H   0  0  0  0  0  0
  -31.4462  -16.9677   21.5157 H   0  0  0  0  0  0
  -27.7731  -24.9735   18.9469 H   0  0  0  0  0  0
  -27.3042  -24.9293   20.6377 H   0  0  0  0  0  0
  -29.1186  -15.1501   21.6010 H   0  0  0  0  0  0
  1 25  1  0  0  0
  1 30  2  0  0  0
  1 84  1  0  0  0
  2  3  1  0  0  0
  2 25  1  0  0  0
  2 85  1  0  0  0
  2 86  1  0  0  0
  3  4  1  0  0  0
  3 87  1  0  0  0
  3 88  1  0  0  0
  4  5  1  0  0  0
  4 89  1  0  0  0
  4 90  1  0  0  0
  5  6  1  0  0  0
  5 26  1  0  0  0
  5 91  1  0  0  0
  6 25  1  0  0  0
  6 92  1  0  0  0
  6 93  1  0  0  0
  7  8  2  0  0  0
  7 26  1  0  0  0
  7 29  1  0  0  0
  8  9  1  0  0  0
  8 22  1  0  0  0
  9 10  1  0  0  0
  9 27  2  0  0  0
 10 11  2  0  0  0
 10 15  1  0  0  0
 11 12  1  0  0  0
 11 94  1  0  0  0
 12 13  2  0  0  0
 12 95  1  0  0  0
 13 14  1  0  0  0
 13 31  1  0  0  0
 14 15  2  0  0  0
 14 96  1  0  0  0
 15 97  1  0  0  0
 16 17  2  0  0  0
 16 21  1  0  0  0
 16 31  1  0  0  0
 17 18  1  0  0  0
 17 98  1  0  0  0
 18 19  2  0  0  0
 18 99  1  0  0  0
 19 20  1  0  0  0
 19 24  1  0  0  0
 20 21  2  0  0  0
 20100  1  0  0  0
 21 23  1  0  0  0
 22 28  1  0  0  0
 22 32  2  0  0  0
 26 27  1  0  0  0
 28101  1  0  0  0
 28102  1  0  0  0
 29103  1  0  0  0
 29104  1  0  0  0
 33 34  1  0  0  0
 33 66  1  0  0  0
 33 70  2  0  0  0
 34 36  1  0  0  0
 34 59  1  0  0  0
 34105  1  0  0  0
 35 44  2  0  0  0
 35 45  1  0  0  0
 35 68  1  0  0  0
 36 56  1  0  0  0
 36106  1  0  0  0
 37 39  1  0  0  0
 37 47  1  0  0  0
 37 66  1  0  0  0
 37107  1  0  0  0
 38 43  2  0  0  0
 38 46  1  0  0  0
 38 47  1  0  0  0
 39 64  1  0  0  0
 39 67  2  0  0  0
 40 52  1  0  0  0
 40 53  2  0  0  0
 40 58  1  0  0  0
 41108  1  0  0  0
 41109  1  0  0  0
 41110  1  0  0  0
 41 48  1  0  0  0
 42 43  1  0  0  0
 42 66  1  0  0  0
 42111  1  0  0  0
 42112  1  0  0  0
 43 44  1  0  0  0
 44113  1  0  0  0
 45 46  2  0  0  0
 45114  1  0  0  0
 46115  1  0  0  0
 47116  1  0  0  0
 47117  1  0  0  0
 48 56  1  0  0  0
 48 65  1  0  0  0
 48118  1  0  0  0
 49 50  1  0  0  0
 49 53  1  0  0  0
 49 64  1  0  0  0
 49119  1  0  0  0
 50 51  1  0  0  0
 50120  1  0  0  0
 50121  1  0  0  0
 51 52  1  0  0  0
 51122  1  0  0  0
 51123  1  0  0  0
 52124  1  0  0  0
 52125  1  0  0  0
 53 54  1  0  0  0
 54 55  2  0  0  0
 54126  1  0  0  0
 55 57  1  0  0  0
 55127  1  0  0  0
 56 69  2  0  0  0
 57 58  2  0  0  0
 57128  1  0  0  0
 58129  1  0  0  0
 59 60  1  0  0  0
 59 61  1  0  0  0
 59 62  1  0  0  0
 60130  1  0  0  0
 60131  1  0  0  0
 60132  1  0  0  0
 61133  1  0  0  0
 61134  1  0  0  0
 61135  1  0  0  0
 62136  1  0  0  0
 62137  1  0  0  0
 62138  1  0  0  0
 63 65  1  0  0  0
 63139  1  0  0  0
 63140  1  0  0  0
 63141  1  0  0  0
 64142  1  0  0  0
 65143  1  0  0  0
 68 82  1  0  0  0
 71 72  2  0  0  0
 71 83  1  0  0  0
 71144  1  0  0  0
 72 73  1  0  0  0
 72 77  1  0  0  0
 73 74  2  0  0  0
 73 75  1  0  0  0
 74 78  1  0  0  0
 74 83  1  0  0  0
 75145  1  0  0  0
 75146  1  0  0  0
 75147  1  0  0  0
 76 80  1  0  0  0
 76148  1  0  0  0
 76149  1  0  0  0
 76150  1  0  0  0
 77 81  1  0  0  0
 77151  1  0  0  0
 77152  1  0  0  0
 78 79  1  0  0  0
 78153  1  0  0  0
 78154  1  0  0  0
 79 82  1  0  0  0
 79155  1  0  0  0
 79156  1  0  0  0
 80 83  1  0  0  0
 80157  1  0  0  0
 80158  1  0  0  0
 81 84  1  0  0  0
 81159  1  0  0  0
 81160  1  0  0  0
 82161  1  0  0  0
 82162  1  0  0  0
 84163  1  0  0  0
M  ISO  4   1 100  68 101  82 101  84 100
M  END
> <chiral flag>
0

> <version>
0

> <s_m_source_file>
/data/baiqing/PycharmProjects/Reinvent-master-3.2/result/LINK_invent/BTK/process_docking_weight1_custom_sum_contain_oxygen_bond_distance_aromatic_linkinvent_7_9_3/rearranged_h_0042.sdf

> <i_m_source_file_index>
53

> <r_mmod_Potential_Energy-OPLS-2005>
-106.358413696289

> <r_mmod_Stretch_Energy-OPLS-2005>
42.2257537841797

> <r_mmod_Bend_Energy-OPLS-2005>
119.063980102539

> <r_mmod_Torsional_Energy-OPLS-2005>
212.732833862305

> <r_mmod_Improper_Torsional_Energy-OPLS-2005>
3.28998255729675

> <r_mmod_Van_der_Waal_Energy-OPLS-2005>
136.81120300293

> <r_mmod_Electrostatic_Energy-OPLS-2005>
-423.097320556641

> <r_mmod_Solvation_Energy-OPLS-2005>
-213.209716796875

> <b_mmod_Minimization_Converged-OPLS-2005>
0

> <r_mmod_RMS_Derivative-OPLS-2005>
3.16167283058167

$$$$
54
                    3D
 Structure written by MMmdl.
166174  0  0  1  0            999 V2000
  -30.7519  -14.4359   20.6343 C   0  0  0  0  0  0
  -30.4099  -12.3026   19.4309 C   0  0  0  0  0  0
  -29.5035  -12.5435   18.2044 C   0  0  0  0  0  0
  -28.0117  -12.4351   18.5876 C   0  0  0  0  0  0
  -27.6659  -13.2174   19.8848 C   0  0  2  0  0  0
  -28.6998  -12.9241   20.9897 C   0  0  0  0  0  0
  -25.2591  -13.8159   20.5669 C   0  0  0  0  0  0
  -24.1840  -13.0432   20.9115 C   0  0  0  0  0  0
  -24.6399  -11.6899   20.8682 C   0  0  0  0  0  0
  -23.9056  -10.4280   21.0366 C   0  0  0  0  0  0
  -24.3606   -9.4197   21.9157 C   0  0  0  0  0  0
  -23.6273   -8.2240   22.0760 C   0  0  0  0  0  0
  -22.4251   -8.0267   21.3548 C   0  0  0  0  0  0
  -21.9866   -9.0249   20.4656 C   0  0  0  0  0  0
  -22.7214  -10.2112   20.3053 C   0  0  0  0  0  0
  -21.6859   -6.0703   22.5257 C   0  0  0  0  0  0
  -21.4037   -6.5619   23.8192 C   0  0  0  0  0  0
  -21.3665   -5.6774   24.9154 C   0  0  0  0  0  0
  -21.6050   -4.3032   24.7210 C   0  0  0  0  0  0
  -21.8822   -3.8115   23.4329 C   0  0  0  0  0  0
  -21.9195   -4.6928   22.3387 C   0  0  0  0  0  0
  -22.7867  -13.5257   21.1761 C   0  0  0  0  0  0
  -22.1668   -4.2118   21.0967 F   0  0  0  0  0  0
  -21.5627   -3.4522   25.7720 F   0  0  0  0  0  0
  -30.0298  -13.2817   20.4694 N   0  0  0  0  0  0
  -26.3042  -12.9361   20.3367 N   0  0  0  0  0  0
  -25.9332  -11.6503   20.5666 N   0  0  0  0  0  0
  -22.0497  -12.8304   22.0346 N   0  0  0  0  0  0
  -25.4292  -15.1876   20.4149 N   0  0  0  0  0  0
  -31.8525  -14.5608   20.0899 O   0  0  0  0  0  0
  -21.6646   -6.8840   21.4213 O   0  0  0  0  0  0
  -22.3546  -14.5553   20.6590 O   0  0  0  0  0  0
  -24.6138  -31.8669   23.2092 C   0  0  0  0  0  0
  -25.9032  -32.4822   23.8383 C   0  0  1  0  0  0
  -27.2465  -27.4632   20.0863 C   0  0  0  0  0  0
  -25.5874  -33.8616   24.2319 N   0  0  0  0  0  0
  -23.4040  -30.4886   21.5474 C   0  0  2  0  0  0
  -24.8580  -28.9627   20.1051 C   0  0  0  0  0  0
  -22.7421  -29.4640   22.4974 C   0  0  0  0  0  0
  -18.0269  -28.1374   22.8495 C   0  0  0  0  0  0
  -24.1484  -36.7329   23.2637 C   0  0  0  0  0  0
  -25.9287  -30.8445   21.3558 C   0  0  0  0  0  0
  -26.0155  -29.4814   20.7011 C   0  0  0  0  0  0
  -27.2161  -28.7362   20.6954 C   0  0  0  0  0  0
  -26.0785  -26.9500   19.4903 C   0  0  0  0  0  0
  -24.8829  -27.6946   19.4955 C   0  0  0  0  0  0
  -23.6146  -29.8207   20.1610 C   0  0  0  0  0  0
  -25.4095  -36.3108   24.0337 C   0  0  1  0  0  0
  -20.5859  -28.3659   23.1318 C   0  0  2  0  0  0
  -20.6757  -26.9393   22.5427 C   0  0  0  0  0  0
  -19.5739  -26.6386   21.5218 C   0  0  0  0  0  0
  -18.1914  -26.7924   22.1627 C   0  0  0  0  0  0
  -19.1522  -28.8838   23.2908 C   0  0  0  0  0  0
  -18.9451  -30.1431   23.8913 C   0  0  0  0  0  0
  -17.6458  -30.6585   24.0568 C   0  0  0  0  0  0
  -25.9021  -34.9477   23.5128 C   0  0  0  0  0  0
  -16.5349  -29.9091   23.6316 C   0  0  0  0  0  0
  -16.7256  -28.6512   23.0342 C   0  0  0  0  0  0
  -26.4465  -31.6589   25.0703 C   0  0  0  0  0  0
  -25.3741  -31.3715   26.1472 C   0  0  0  0  0  0
  -27.0256  -30.3027   24.6031 C   0  0  0  0  0  0
  -27.6061  -32.4298   25.7445 C   0  0  0  0  0  0
  -27.5577  -37.1807   24.8460 C   0  0  0  0  0  0
  -21.4149  -29.3036   22.3740 N   0  0  0  0  0  0
  -26.4283  -37.3797   23.9415 N   0  0  0  0  0  0
  -24.6669  -31.0787   22.0977 N   0  0  0  0  0  0
  -23.4194  -28.8188   23.3026 O   0  0  0  0  0  0
  -28.3351  -26.6385   20.1948 O   0  0  0  0  0  0
  -26.5596  -34.8934   22.4701 O   0  0  0  0  0  0
  -23.5334  -32.1416   23.7490 O   0  0  0  0  0  0
  -29.4256  -23.8879   20.8885 C   0  0  0  0  0  0
  -30.2201  -24.4430   19.8581 C   0  0  0  0  0  0
  -29.5251  -21.8096   19.8758 C   0  0  0  0  0  0
  -30.3491  -22.3604   18.8482 C   0  0  0  0  0  0
  -30.5541  -21.9659   16.3229 C   0  0  0  0  0  0
  -29.4958  -15.5197   22.5072 C   0  0  0  0  0  0
  -30.5793  -25.9269   19.8473 C   0  0  0  0  0  0
  -29.0575  -20.3542   19.9038 C   0  0  0  0  0  0
  -30.9664  -21.5277   17.7315 C   0  0  0  0  0  0
  -30.1259  -19.3336   20.3462 C   0  0  0  0  0  0
  -29.5794  -17.8900   20.4457 C   0  0  0  0  0  0
  -30.6718  -16.8929   20.8823 C   0  0  0  0  0  0
  -29.4457  -26.8500   19.3435 C   0  0  0  0  0  0
  -29.0814  -22.5782   20.9023 N   0  0  0  0  0  0
  -30.6941  -23.6751   18.8453 N   0  0  0  0  0  0
  -30.1569  -15.5361   21.1941 N   0  0  0  0  0  0
  -31.4622  -12.3652   19.1474 H   0  0  0  0  0  0
  -30.2785  -11.2860   19.8031 H   0  0  0  0  0  0
  -29.7434  -11.8318   17.4114 H   0  0  0  0  0  0
  -29.7009  -13.5336   17.7928 H   0  0  0  0  0  0
  -27.7798  -11.3786   18.7179 H   0  0  0  0  0  0
  -27.3873  -12.7839   17.7634 H   0  0  0  0  0  0
  -27.7271  -14.2796   19.6461 H   0  0  0  0  0  0
  -28.6862  -11.8608   21.2376 H   0  0  0  0  0  0
  -28.4181  -13.3880   21.9267 H   0  0  0  0  0  0
  -25.2765   -9.5682   22.4710 H   0  0  0  0  0  0
  -23.9979   -7.4644   22.7516 H   0  0  0  0  0  0
  -21.0772   -8.8801   19.8982 H   0  0  0  0  0  0
  -22.3688  -10.9660   19.6161 H   0  0  0  0  0  0
  -21.2071   -7.6134   23.9686 H   0  0  0  0  0  0
  -21.1488   -6.0503   25.9054 H   0  0  0  0  0  0
  -22.0595   -2.7571   23.2841 H   0  0  0  0  0  0
  -22.4143  -12.0029   22.4820 H   0  0  0  0  0  0
  -21.1134  -13.1379   22.2534 H   0  0  0  0  0  0
  -24.6573  -15.8359   20.5229 H   0  0  0  0  0  0
  -26.2931  -15.6349   20.1370 H   0  0  0  0  0  0
  -26.7116  -32.5563   23.1166 H   0  0  0  0  0  0
  -24.9997  -33.9774   25.0446 H   0  0  0  0  0  0
  -22.6918  -31.3035   21.4068 H   0  0  0  0  0  0
  -23.3717  -35.9697   23.3334 H   0  0  0  0  0  0
  -24.3586  -36.8909   22.2047 H   0  0  0  0  0  0
  -23.7275  -37.6563   23.6630 H   0  0  0  0  0  0
  -26.0257  -31.6105   20.5845 H   0  0  0  0  0  0
  -26.8225  -30.9091   21.9643 H   0  0  0  0  0  0
  -28.1028  -29.1156   21.1841 H   0  0  0  0  0  0
  -26.0923  -25.9630   19.0479 H   0  0  0  0  0  0
  -23.9926  -27.2818   19.0425 H   0  0  0  0  0  0
  -23.7186  -30.5970   19.4017 H   0  0  0  0  0  0
  -22.7404  -29.2361   19.8652 H   0  0  0  0  0  0
  -25.1263  -36.1976   25.0827 H   0  0  0  0  0  0
  -20.9932  -28.3234   24.1443 H   0  0  0  0  0  0
  -20.5631  -26.2270   23.3618 H   0  0  0  0  0  0
  -21.6635  -26.7427   22.1239 H   0  0  0  0  0  0
  -19.6903  -25.6302   21.1233 H   0  0  0  0  0  0
  -19.6674  -27.3208   20.6757 H   0  0  0  0  0  0
  -17.4176  -26.6653   21.4039 H   0  0  0  0  0  0
  -18.0322  -26.0069   22.9023 H   0  0  0  0  0  0
  -19.7924  -30.7246   24.2308 H   0  0  0  0  0  0
  -17.5010  -31.6261   24.5163 H   0  0  0  0  0  0
  -15.5347  -30.3005   23.7632 H   0  0  0  0  0  0
  -15.8650  -28.0837   22.7047 H   0  0  0  0  0  0
  -24.5905  -30.7049   25.7846 H   0  0  0  0  0  0
  -24.8933  -32.2878   26.4910 H   0  0  0  0  0  0
  -25.8111  -30.8913   27.0235 H   0  0  0  0  0  0
  -26.2759  -29.6821   24.1101 H   0  0  0  0  0  0
  -27.4054  -29.7231   25.4451 H   0  0  0  0  0  0
  -27.8591  -30.4346   23.9129 H   0  0  0  0  0  0
  -27.2695  -33.3606   26.2030 H   0  0  0  0  0  0
  -28.3857  -32.6843   25.0248 H   0  0  0  0  0  0
  -28.0734  -31.8402   26.5348 H   0  0  0  0  0  0
  -28.2601  -38.0095   24.7494 H   0  0  0  0  0  0
  -28.1061  -36.2630   24.6282 H   0  0  0  0  0  0
  -27.2309  -37.1465   25.8867 H   0  0  0  0  0  0
  -20.9298  -29.8787   21.6988 H   0  0  0  0  0  0
  -26.0171  -38.2872   24.1435 H   0  0  0  0  0  0
  -29.0516  -24.5001   21.6964 H   0  0  0  0  0  0
  -31.0142  -21.3124   15.5784 H   0  0  0  0  0  0
  -30.8766  -22.9852   16.1098 H   0  0  0  0  0  0
  -29.4746  -21.9135   16.1874 H   0  0  0  0  0  0
  -29.7022  -16.4169   23.0956 H   0  0  0  0  0  0
  -29.8194  -14.6753   23.1180 H   0  0  0  0  0  0
  -28.4133  -15.4869   22.3833 H   0  0  0  0  0  0
  -31.4724  -26.0741   19.2379 H   0  0  0  0  0  0
  -30.8565  -26.2182   20.8620 H   0  0  0  0  0  0
  -28.6619  -20.0879   18.9242 H   0  0  0  0  0  0
  -28.2139  -20.2776   20.5929 H   0  0  0  0  0  0
  -30.7056  -20.4773   17.8344 H   0  0  0  0  0  0
  -32.0516  -21.5800   17.8306 H   0  0  0  0  0  0
  -30.5398  -19.6403   21.3083 H   0  0  0  0  0  0
  -30.9669  -19.3471   19.6566 H   0  0  0  0  0  0
  -29.1672  -17.5799   19.4831 H   0  0  0  0  0  0
  -28.7492  -17.8676   21.1520 H   0  0  0  0  0  0
  -31.2063  -17.2854   21.7486 H   0  0  0  0  0  0
  -31.4197  -16.8878   20.0871 H   0  0  0  0  0  0
  -29.1798  -26.6088   18.3132 H   0  0  0  0  0  0
  -29.7650  -27.8922   19.3739 H   0  0  0  0  0  0
  1 25  1  0  0  0
  1 30  2  0  0  0
  1 86  1  0  0  0
  2  3  1  0  0  0
  2 25  1  0  0  0
  2 87  1  0  0  0
  2 88  1  0  0  0
  3  4  1  0  0  0
  3 89  1  0  0  0
  3 90  1  0  0  0
  4  5  1  0  0  0
  4 91  1  0  0  0
  4 92  1  0  0  0
  5  6  1  0  0  0
  5 26  1  0  0  0
  5 93  1  0  0  0
  6 25  1  0  0  0
  6 94  1  0  0  0
  6 95  1  0  0  0
  7  8  2  0  0  0
  7 26  1  0  0  0
  7 29  1  0  0  0
  8  9  1  0  0  0
  8 22  1  0  0  0
  9 10  1  0  0  0
  9 27  2  0  0  0
 10 11  2  0  0  0
 10 15  1  0  0  0
 11 12  1  0  0  0
 11 96  1  0  0  0
 12 13  2  0  0  0
 12 97  1  0  0  0
 13 14  1  0  0  0
 13 31  1  0  0  0
 14 15  2  0  0  0
 14 98  1  0  0  0
 15 99  1  0  0  0
 16 17  2  0  0  0
 16 21  1  0  0  0
 16 31  1  0  0  0
 17 18  1  0  0  0
 17100  1  0  0  0
 18 19  2  0  0  0
 18101  1  0  0  0
 19 20  1  0  0  0
 19 24  1  0  0  0
 20 21  2  0  0  0
 20102  1  0  0  0
 21 23  1  0  0  0
 22 28  1  0  0  0
 22 32  2  0  0  0
 26 27  1  0  0  0
 28103  1  0  0  0
 28104  1  0  0  0
 29105  1  0  0  0
 29106  1  0  0  0
 33 34  1  0  0  0
 33 66  1  0  0  0
 33 70  2  0  0  0
 34 36  1  0  0  0
 34 59  1  0  0  0
 34107  1  0  0  0
 35 44  2  0  0  0
 35 45  1  0  0  0
 35 68  1  0  0  0
 36 56  1  0  0  0
 36108  1  0  0  0
 37 39  1  0  0  0
 37 47  1  0  0  0
 37 66  1  0  0  0
 37109  1  0  0  0
 38 43  2  0  0  0
 38 46  1  0  0  0
 38 47  1  0  0  0
 39 64  1  0  0  0
 39 67  2  0  0  0
 40 52  1  0  0  0
 40 53  2  0  0  0
 40 58  1  0  0  0
 41110  1  0  0  0
 41111  1  0  0  0
 41112  1  0  0  0
 41 48  1  0  0  0
 42 43  1  0  0  0
 42 66  1  0  0  0
 42113  1  0  0  0
 42114  1  0  0  0
 43 44  1  0  0  0
 44115  1  0  0  0
 45 46  2  0  0  0
 45116  1  0  0  0
 46117  1  0  0  0
 47118  1  0  0  0
 47119  1  0  0  0
 48 56  1  0  0  0
 48 65  1  0  0  0
 48120  1  0  0  0
 49 50  1  0  0  0
 49 53  1  0  0  0
 49 64  1  0  0  0
 49121  1  0  0  0
 50 51  1  0  0  0
 50122  1  0  0  0
 50123  1  0  0  0
 51 52  1  0  0  0
 51124  1  0  0  0
 51125  1  0  0  0
 52126  1  0  0  0
 52127  1  0  0  0
 53 54  1  0  0  0
 54 55  2  0  0  0
 54128  1  0  0  0
 55 57  1  0  0  0
 55129  1  0  0  0
 56 69  2  0  0  0
 57 58  2  0  0  0
 57130  1  0  0  0
 58131  1  0  0  0
 59 60  1  0  0  0
 59 61  1  0  0  0
 59 62  1  0  0  0
 60132  1  0  0  0
 60133  1  0  0  0
 60134  1  0  0  0
 61135  1  0  0  0
 61136  1  0  0  0
 61137  1  0  0  0
 62138  1  0  0  0
 62139  1  0  0  0
 62140  1  0  0  0
 63 65  1  0  0  0
 63141  1  0  0  0
 63142  1  0  0  0
 63143  1  0  0  0
 64144  1  0  0  0
 65145  1  0  0  0
 68 83  1  0  0  0
 71 72  2  0  0  0
 71 84  1  0  0  0
 71146  1  0  0  0
 72 77  1  0  0  0
 72 85  1  0  0  0
 73 74  1  0  0  0
 73 78  1  0  0  0
 73 84  2  0  0  0
 74 79  1  0  0  0
 74 85  2  0  0  0
 75 79  1  0  0  0
 75147  1  0  0  0
 75148  1  0  0  0
 75149  1  0  0  0
 76 86  1  0  0  0
 76150  1  0  0  0
 76151  1  0  0  0
 76152  1  0  0  0
 77 83  1  0  0  0
 77153  1  0  0  0
 77154  1  0  0  0
 78 80  1  0  0  0
 78155  1  0  0  0
 78156  1  0  0  0
 79157  1  0  0  0
 79158  1  0  0  0
 80 81  1  0  0  0
 80159  1  0  0  0
 80160  1  0  0  0
 81 82  1  0  0  0
 81161  1  0  0  0
 81162  1  0  0  0
 82 86  1  0  0  0
 82163  1  0  0  0
 82164  1  0  0  0
 83165  1  0  0  0
 83166  1  0  0  0
M  ISO  4   1 100  68 101  83 101  86 100
M  END
> <chiral flag>
0

> <version>
0

> <s_m_source_file>
/data/baiqing/PycharmProjects/Reinvent-master-3.2/result/LINK_invent/BTK/process_docking_weight1_custom_sum_contain_oxygen_bond_distance_aromatic_linkinvent_7_9_3/rearranged_h_0042.sdf

> <i_m_source_file_index>
54

> <r_mmod_Potential_Energy-OPLS-2005>
153.444885253906

> <r_mmod_Stretch_Energy-OPLS-2005>
42.8316650390625

> <r_mmod_Bend_Energy-OPLS-2005>
116.670829772949

> <r_mmod_Torsional_Energy-OPLS-2005>
258.283020019531

> <r_mmod_Improper_Torsional_Energy-OPLS-2005>
8.10144138336182

> <r_mmod_Van_der_Waal_Energy-OPLS-2005>
164.398254394531

> <r_mmod_Electrostatic_Energy-OPLS-2005>
-246.453857421875

> <r_mmod_Solvation_Energy-OPLS-2005>
-205.422592163086

> <b_mmod_Minimization_Converged-OPLS-2005>
0

> <r_mmod_RMS_Derivative-OPLS-2005>
4.340491771698

$$$$
55
                    3D
 Structure written by MMmdl.
169178  0  0  1  0            999 V2000
  -30.5864  -14.8832   20.4528 C   0  0  0  0  0  0
  -30.4427  -12.5534   19.4912 C   0  0  0  0  0  0
  -29.5240  -12.5384   18.2469 C   0  0  0  0  0  0
  -28.0510  -12.3393   18.6561 C   0  0  0  0  0  0
  -27.6400  -13.2446   19.8479 C   0  0  2  0  0  0
  -28.6852  -13.2090   20.9799 C   0  0  0  0  0  0
  -25.2528  -13.8204   20.5708 C   0  0  0  0  0  0
  -24.1821  -13.0429   20.9180 C   0  0  0  0  0  0
  -24.6427  -11.6915   20.8710 C   0  0  0  0  0  0
  -23.9087  -10.4295   21.0385 C   0  0  0  0  0  0
  -24.3633   -9.4208   21.9177 C   0  0  0  0  0  0
  -23.6299   -8.2256   22.0749 C   0  0  0  0  0  0
  -22.4270   -8.0295   21.3553 C   0  0  0  0  0  0
  -21.9920   -9.0259   20.4643 C   0  0  0  0  0  0
  -22.7255  -10.2128   20.3046 C   0  0  0  0  0  0
  -21.6851   -6.0741   22.5274 C   0  0  0  0  0  0
  -21.4018   -6.5646   23.8210 C   0  0  0  0  0  0
  -21.3651   -5.6795   24.9174 C   0  0  0  0  0  0
  -21.6038   -4.3060   24.7213 C   0  0  0  0  0  0
  -21.8821   -3.8157   23.4334 C   0  0  0  0  0  0
  -21.9194   -4.6971   22.3399 C   0  0  0  0  0  0
  -22.7843  -13.5215   21.1841 C   0  0  0  0  0  0
  -22.1664   -4.2162   21.0972 F   0  0  0  0  0  0
  -21.5619   -3.4546   25.7728 F   0  0  0  0  0  0
  -29.9652  -13.6374   20.3967 N   0  0  0  0  0  0
  -26.2962  -12.9435   20.3284 N   0  0  0  0  0  0
  -25.9364  -11.6549   20.5723 N   0  0  0  0  0  0
  -22.0498  -12.8190   22.0382 N   0  0  0  0  0  0
  -25.4255  -15.1931   20.4188 N   0  0  0  0  0  0
  -31.7636  -14.9337   20.0741 O   0  0  0  0  0  0
  -21.6640   -6.8881   21.4238 O   0  0  0  0  0  0
  -22.3525  -14.5523   20.6693 O   0  0  0  0  0  0
  -24.6381  -31.8466   23.1881 C   0  0  0  0  0  0
  -25.9191  -32.4693   23.8243 C   0  0  1  0  0  0
  -27.2139  -27.1819   20.1372 C   0  0  0  0  0  0
  -25.5968  -33.8506   24.2139 N   0  0  0  0  0  0
  -23.4386  -30.4671   21.5338 C   0  0  2  0  0  0
  -24.8866  -28.9030   20.1018 C   0  0  0  0  0  0
  -22.7536  -29.4553   22.4855 C   0  0  0  0  0  0
  -18.0313  -28.1386   22.8465 C   0  0  0  0  0  0
  -24.1506  -36.7267   23.2649 C   0  0  0  0  0  0
  -25.9926  -30.7326   21.3835 C   0  0  0  0  0  0
  -26.0616  -29.3517   20.7195 C   0  0  0  0  0  0
  -27.2285  -28.5073   20.7181 C   0  0  0  0  0  0
  -26.0164  -26.8245   19.4810 C   0  0  0  0  0  0
  -24.8766  -27.6535   19.4646 C   0  0  0  0  0  0
  -23.6606  -29.7989   20.1509 C   0  0  0  0  0  0
  -25.4137  -36.3018   24.0303 C   0  0  1  0  0  0
  -20.5918  -28.3720   23.1239 C   0  0  2  0  0  0
  -20.6801  -26.9430   22.5398 C   0  0  0  0  0  0
  -19.5783  -26.6378   21.5208 C   0  0  0  0  0  0
  -18.1955  -26.7929   22.1597 C   0  0  0  0  0  0
  -19.1563  -28.8876   23.2854 C   0  0  0  0  0  0
  -18.9485  -30.1471   23.8888 C   0  0  0  0  0  0
  -17.6479  -30.6597   24.0561 C   0  0  0  0  0  0
  -25.9090  -34.9406   23.5017 C   0  0  0  0  0  0
  -16.5383  -29.9064   23.6352 C   0  0  0  0  0  0
  -16.7295  -28.6500   23.0344 C   0  0  0  0  0  0
  -26.4524  -31.6566   25.0697 C   0  0  0  0  0  0
  -25.3682  -31.3718   26.1366 C   0  0  0  0  0  0
  -27.0410  -30.2967   24.6276 C   0  0  0  0  0  0
  -27.6043  -32.4354   25.7470 C   0  0  0  0  0  0
  -27.5567  -37.1801   24.8470 C   0  0  0  0  0  0
  -21.4226  -29.3051   22.3628 N   0  0  0  0  0  0
  -26.4281  -37.3742   23.9398 N   0  0  0  0  0  0
  -24.7082  -31.0350   22.0905 N   0  0  0  0  0  0
  -23.4199  -28.8091   23.3004 O   0  0  0  0  0  0
  -28.2810  -26.2342   20.2182 O   0  0  0  0  0  0
  -26.5676  -34.8923   22.4593 O   0  0  0  0  0  0
  -23.5515  -32.1339   23.7121 O   0  0  0  0  0  0
  -29.7161  -19.9075   18.9471 C   0  0  0  0  0  0
  -29.1934  -19.7045   21.2208 C   0  0  0  0  0  0
  -29.4837  -21.3347   19.0320 C   0  0  0  0  0  0
  -29.6180  -18.9952   20.0508 C   0  0  0  0  0  0
  -29.0805  -21.9465   20.2594 C   0  0  0  0  0  0
  -28.7657  -22.0411   16.6560 C   0  0  0  0  0  0
  -31.2048  -22.1070   17.2929 C   0  0  0  0  0  0
  -28.9945  -23.1332   15.5928 C   0  0  0  0  0  0
  -31.4770  -23.1867   16.2296 C   0  0  0  0  0  0
  -29.7622  -22.2231   17.8145 C   0  0  2  0  0  0
  -30.4498  -23.1341   15.0795 C   0  0  2  0  0  0
  -29.2412  -16.3485   21.9370 C   0  0  0  0  0  0
  -30.1149  -17.4299   19.8462 C   0  0  0  0  0  0
  -29.0868  -23.5595   20.5555 C   0  0  0  0  0  0
  -28.0555  -24.7262   19.9958 C   0  0  0  0  0  0
  -28.9401  -21.0707   21.3114 N   0  0  0  0  0  0
  -29.8583  -16.0979   20.6358 N   0  0  0  0  0  0
  -30.6540  -24.2508   14.2344 O   0  0  0  0  0  0
  -31.4812  -12.6907   19.1847 H   0  0  0  0  0  0
  -30.4189  -11.5889   20.0015 H   0  0  0  0  0  0
  -29.8331  -11.7518   17.5579 H   0  0  0  0  0  0
  -29.6296  -13.4786   17.7028 H   0  0  0  0  0  0
  -27.9254  -11.2913   18.9330 H   0  0  0  0  0  0
  -27.3929  -12.5108   17.8035 H   0  0  0  0  0  0
  -27.6203  -14.2634   19.4596 H   0  0  0  0  0  0
  -28.7699  -12.2059   21.3976 H   0  0  0  0  0  0
  -28.3698  -13.8392   21.8069 H   0  0  0  0  0  0
  -25.2781   -9.5671   22.4745 H   0  0  0  0  0  0
  -23.9995   -7.4656   22.7491 H   0  0  0  0  0  0
  -21.0839   -8.8777   19.8966 H   0  0  0  0  0  0
  -22.3722  -10.9661   19.6142 H   0  0  0  0  0  0
  -21.2020   -7.6159   23.9715 H   0  0  0  0  0  0
  -21.1465   -6.0533   25.9071 H   0  0  0  0  0  0
  -22.0607   -2.7621   23.2845 H   0  0  0  0  0  0
  -22.4124  -11.9832   22.4742 H   0  0  0  0  0  0
  -21.1128  -13.1222   22.2620 H   0  0  0  0  0  0
  -24.6641  -15.8520   20.5442 H   0  0  0  0  0  0
  -26.2861  -15.6329   20.1181 H   0  0  0  0  0  0
  -26.7247  -32.5315   23.0960 H   0  0  0  0  0  0
  -25.0128  -33.9643   25.0285 H   0  0  0  0  0  0
  -22.7414  -31.2935   21.3812 H   0  0  0  0  0  0
  -23.3766  -35.9605   23.3285 H   0  0  0  0  0  0
  -24.3579  -36.8913   22.2070 H   0  0  0  0  0  0
  -23.7279  -37.6456   23.6717 H   0  0  0  0  0  0
  -26.1439  -31.4933   20.6173 H   0  0  0  0  0  0
  -26.8655  -30.7762   22.0229 H   0  0  0  0  0  0
  -28.1270  -28.8455   21.2163 H   0  0  0  0  0  0
  -25.9295  -25.8688   18.9896 H   0  0  0  0  0  0
  -23.9844  -27.3067   18.9607 H   0  0  0  0  0  0
  -23.7855  -30.5774   19.3982 H   0  0  0  0  0  0
  -22.7790  -29.2370   19.8375 H   0  0  0  0  0  0
  -25.1311  -36.1821   25.0788 H   0  0  0  0  0  0
  -21.0022  -28.3313   24.1344 H   0  0  0  0  0  0
  -20.5725  -26.2325   23.3597 H   0  0  0  0  0  0
  -21.6668  -26.7451   22.1180 H   0  0  0  0  0  0
  -19.6961  -25.6270   21.1267 H   0  0  0  0  0  0
  -19.6728  -27.3179   20.6721 H   0  0  0  0  0  0
  -17.4218  -26.6715   21.3985 H   0  0  0  0  0  0
  -18.0342  -26.0042   22.8955 H   0  0  0  0  0  0
  -19.7972  -30.7307   24.2239 H   0  0  0  0  0  0
  -17.5035  -31.6287   24.5142 H   0  0  0  0  0  0
  -15.5390  -30.2960   23.7707 H   0  0  0  0  0  0
  -15.8681  -28.0843   22.7027 H   0  0  0  0  0  0
  -24.5937  -30.6986   25.7657 H   0  0  0  0  0  0
  -24.8813  -32.2894   26.4701 H   0  0  0  0  0  0
  -25.7966  -30.8952   27.0193 H   0  0  0  0  0  0
  -26.3029  -29.6673   24.1309 H   0  0  0  0  0  0
  -27.4044  -29.7285   25.4847 H   0  0  0  0  0  0
  -27.8893  -30.4203   23.9539 H   0  0  0  0  0  0
  -27.2642  -33.3706   26.1934 H   0  0  0  0  0  0
  -28.3904  -32.6838   25.0320 H   0  0  0  0  0  0
  -28.0654  -31.8561   26.5485 H   0  0  0  0  0  0
  -28.2560  -38.0118   24.7490 H   0  0  0  0  0  0
  -28.1070  -36.2640   24.6291 H   0  0  0  0  0  0
  -27.2295  -37.1423   25.8876 H   0  0  0  0  0  0
  -20.9437  -29.8743   21.6778 H   0  0  0  0  0  0
  -26.0132  -38.2790   24.1399 H   0  0  0  0  0  0
  -30.0437  -19.5041   17.9996 H   0  0  0  0  0  0
  -29.0873  -19.1913   22.1621 H   0  0  0  0  0  0
  -28.8753  -21.0530   16.2076 H   0  0  0  0  0  0
  -27.7414  -22.1090   17.0247 H   0  0  0  0  0  0
  -31.9085  -22.2341   18.1174 H   0  0  0  0  0  0
  -31.3866  -21.1166   16.8739 H   0  0  0  0  0  0
  -28.7451  -24.1028   16.0278 H   0  0  0  0  0  0
  -28.3063  -22.9879   14.7587 H   0  0  0  0  0  0
  -32.4850  -23.0599   15.8311 H   0  0  0  0  0  0
  -31.4556  -24.1660   16.7126 H   0  0  0  0  0  0
  -29.6553  -23.2567   18.1316 H   0  0  0  0  0  0
  -30.6166  -22.2287   14.4926 H   0  0  0  0  0  0
  -28.1785  -16.5653   21.8295 H   0  0  0  0  0  0
  -29.7272  -17.1927   22.4198 H   0  0  0  0  0  0
  -29.3606  -15.5236   22.6400 H   0  0  0  0  0  0
  -31.2014  -17.5114   19.7817 H   0  0  0  0  0  0
  -29.8120  -17.1787   18.8274 H   0  0  0  0  0  0
  -30.0904  -23.8845   20.2869 H   0  0  0  0  0  0
  -29.0673  -23.6555   21.6394 H   0  0  0  0  0  0
  -27.0734  -24.4714   20.3977 H   0  0  0  0  0  0
  -27.9697  -24.5944   18.9169 H   0  0  0  0  0  0
  -30.6054  -25.0404   14.7669 H   0  0  0  0  0  0
  1 25  1  0  0  0
  1 30  2  0  0  0
  1 87  1  0  0  0
  2  3  1  0  0  0
  2 25  1  0  0  0
  2 89  1  0  0  0
  2 90  1  0  0  0
  3  4  1  0  0  0
  3 91  1  0  0  0
  3 92  1  0  0  0
  4  5  1  0  0  0
  4 93  1  0  0  0
  4 94  1  0  0  0
  5  6  1  0  0  0
  5 26  1  0  0  0
  5 95  1  0  0  0
  6 25  1  0  0  0
  6 96  1  0  0  0
  6 97  1  0  0  0
  7  8  2  0  0  0
  7 26  1  0  0  0
  7 29  1  0  0  0
  8  9  1  0  0  0
  8 22  1  0  0  0
  9 10  1  0  0  0
  9 27  2  0  0  0
 10 11  2  0  0  0
 10 15  1  0  0  0
 11 12  1  0  0  0
 11 98  1  0  0  0
 12 13  2  0  0  0
 12 99  1  0  0  0
 13 14  1  0  0  0
 13 31  1  0  0  0
 14 15  2  0  0  0
 14100  1  0  0  0
 15101  1  0  0  0
 16 17  2  0  0  0
 16 21  1  0  0  0
 16 31  1  0  0  0
 17 18  1  0  0  0
 17102  1  0  0  0
 18 19  2  0  0  0
 18103  1  0  0  0
 19 20  1  0  0  0
 19 24  1  0  0  0
 20 21  2  0  0  0
 20104  1  0  0  0
 21 23  1  0  0  0
 22 28  1  0  0  0
 22 32  2  0  0  0
 26 27  1  0  0  0
 28105  1  0  0  0
 28106  1  0  0  0
 29107  1  0  0  0
 29108  1  0  0  0
 33 34  1  0  0  0
 33 66  1  0  0  0
 33 70  2  0  0  0
 34 36  1  0  0  0
 34 59  1  0  0  0
 34109  1  0  0  0
 35 44  2  0  0  0
 35 45  1  0  0  0
 35 68  1  0  0  0
 36 56  1  0  0  0
 36110  1  0  0  0
 37 39  1  0  0  0
 37 47  1  0  0  0
 37 66  1  0  0  0
 37111  1  0  0  0
 38 43  2  0  0  0
 38 46  1  0  0  0
 38 47  1  0  0  0
 39 64  1  0  0  0
 39 67  2  0  0  0
 40 52  1  0  0  0
 40 53  2  0  0  0
 40 58  1  0  0  0
 41112  1  0  0  0
 41113  1  0  0  0
 41114  1  0  0  0
 41 48  1  0  0  0
 42 43  1  0  0  0
 42 66  1  0  0  0
 42115  1  0  0  0
 42116  1  0  0  0
 43 44  1  0  0  0
 44117  1  0  0  0
 45 46  2  0  0  0
 45118  1  0  0  0
 46119  1  0  0  0
 47120  1  0  0  0
 47121  1  0  0  0
 48 56  1  0  0  0
 48 65  1  0  0  0
 48122  1  0  0  0
 49 50  1  0  0  0
 49 53  1  0  0  0
 49 64  1  0  0  0
 49123  1  0  0  0
 50 51  1  0  0  0
 50124  1  0  0  0
 50125  1  0  0  0
 51 52  1  0  0  0
 51126  1  0  0  0
 51127  1  0  0  0
 52128  1  0  0  0
 52129  1  0  0  0
 53 54  1  0  0  0
 54 55  2  0  0  0
 54130  1  0  0  0
 55 57  1  0  0  0
 55131  1  0  0  0
 56 69  2  0  0  0
 57 58  2  0  0  0
 57132  1  0  0  0
 58133  1  0  0  0
 59 60  1  0  0  0
 59 61  1  0  0  0
 59 62  1  0  0  0
 60134  1  0  0  0
 60135  1  0  0  0
 60136  1  0  0  0
 61137  1  0  0  0
 61138  1  0  0  0
 61139  1  0  0  0
 62140  1  0  0  0
 62141  1  0  0  0
 62142  1  0  0  0
 63 65  1  0  0  0
 63143  1  0  0  0
 63144  1  0  0  0
 63145  1  0  0  0
 64146  1  0  0  0
 65147  1  0  0  0
 68 85  1  0  0  0
 71 73  2  0  0  0
 71 74  1  0  0  0
 71148  1  0  0  0
 72 74  2  0  0  0
 72 86  1  0  0  0
 72149  1  0  0  0
 73 75  1  0  0  0
 73 80  1  0  0  0
 74 83  1  0  0  0
 75 84  1  0  0  0
 75 86  2  0  0  0
 76 78  1  0  0  0
 76 80  1  0  0  0
 76150  1  0  0  0
 76151  1  0  0  0
 77 79  1  0  0  0
 77 80  1  0  0  0
 77152  1  0  0  0
 77153  1  0  0  0
 78 81  1  0  0  0
 78154  1  0  0  0
 78155  1  0  0  0
 79 81  1  0  0  0
 79156  1  0  0  0
 79157  1  0  0  0
 80158  1  0  0  0
 81 88  1  0  0  0
 81159  1  0  0  0
 82 87  1  0  0  0
 82160  1  0  0  0
 82161  1  0  0  0
 82162  1  0  0  0
 83 87  1  0  0  0
 83163  1  0  0  0
 83164  1  0  0  0
 84 85  1  0  0  0
 84165  1  0  0  0
 84166  1  0  0  0
 85167  1  0  0  0
 85168  1  0  0  0
 88169  1  0  0  0
M  ISO  4   1 100  68 101  85 101  87 100
M  END
> <chiral flag>
0

> <version>
0

> <s_m_source_file>
/data/baiqing/PycharmProjects/Reinvent-master-3.2/result/LINK_invent/BTK/process_docking_weight1_custom_sum_contain_oxygen_bond_distance_aromatic_linkinvent_7_9_3/rearranged_h_0042.sdf

> <i_m_source_file_index>
55

> <r_mmod_Potential_Energy-OPLS-2005>
379.054626464844

> <r_mmod_Stretch_Energy-OPLS-2005>
205.630920410156

> <r_mmod_Bend_Energy-OPLS-2005>
266.093109130859

> <r_mmod_Torsional_Energy-OPLS-2005>
277.527221679688

> <r_mmod_Improper_Torsional_Energy-OPLS-2005>
10.7740058898926

> <r_mmod_Van_der_Waal_Energy-OPLS-2005>
144.798522949219

> <r_mmod_Electrostatic_Energy-OPLS-2005>
-436.009124755859

> <r_mmod_Solvation_Energy-OPLS-2005>
-235.690139770508

> <b_mmod_Minimization_Converged-OPLS-2005>
0

> <r_mmod_RMS_Derivative-OPLS-2005>
3.52294874191284

$$$$
56
                    3D
 Structure written by MMmdl.
159167  0  0  1  0            999 V2000
  -30.5318  -14.9006   20.4366 C   0  0  0  0  0  0
  -30.4493  -12.5477   19.4989 C   0  0  0  0  0  0
  -29.5287  -12.5276   18.2551 C   0  0  0  0  0  0
  -28.0568  -12.3202   18.6638 C   0  0  0  0  0  0
  -27.6372  -13.2397   19.8397 C   0  0  2  0  0  0
  -28.6781  -13.2337   20.9792 C   0  0  0  0  0  0
  -25.2502  -13.8203   20.5689 C   0  0  0  0  0  0
  -24.1804  -13.0440   20.9206 C   0  0  0  0  0  0
  -24.6409  -11.6923   20.8734 C   0  0  0  0  0  0
  -23.9086  -10.4297   21.0401 C   0  0  0  0  0  0
  -24.3633   -9.4213   21.9177 C   0  0  0  0  0  0
  -23.6303   -8.2251   22.0752 C   0  0  0  0  0  0
  -22.4281   -8.0290   21.3549 C   0  0  0  0  0  0
  -21.9920   -9.0264   20.4648 C   0  0  0  0  0  0
  -22.7255  -10.2138   20.3053 C   0  0  0  0  0  0
  -21.6856   -6.0740   22.5282 C   0  0  0  0  0  0
  -21.4018   -6.5641   23.8216 C   0  0  0  0  0  0
  -21.3658   -5.6791   24.9175 C   0  0  0  0  0  0
  -21.6044   -4.3056   24.7222 C   0  0  0  0  0  0
  -21.8820   -3.8150   23.4342 C   0  0  0  0  0  0
  -21.9197   -4.6968   22.3401 C   0  0  0  0  0  0
  -22.7825  -13.5216   21.1871 C   0  0  0  0  0  0
  -22.1663   -4.2156   21.0976 F   0  0  0  0  0  0
  -21.5630   -3.4536   25.7731 F   0  0  0  0  0  0
  -29.9708  -13.6276   20.4048 N   0  0  0  0  0  0
  -26.2924  -12.9419   20.3221 N   0  0  0  0  0  0
  -25.9340  -11.6558   20.5714 N   0  0  0  0  0  0
  -22.0474  -12.8205   22.0426 N   0  0  0  0  0  0
  -25.4188  -15.1933   20.4134 N   0  0  0  0  0  0
  -31.7195  -14.9891   20.1063 O   0  0  0  0  0  0
  -21.6648   -6.8884   21.4244 O   0  0  0  0  0  0
  -22.3502  -14.5521   20.6719 O   0  0  0  0  0  0
  -24.6419  -31.8465   23.1906 C   0  0  0  0  0  0
  -25.9200  -32.4706   23.8285 C   0  0  1  0  0  0
  -27.2150  -27.1567   20.1456 C   0  0  0  0  0  0
  -25.5954  -33.8513   24.2201 N   0  0  0  0  0  0
  -23.4435  -30.4676   21.5367 C   0  0  2  0  0  0
  -24.8909  -28.8984   20.1117 C   0  0  0  0  0  0
  -22.7555  -29.4565   22.4875 C   0  0  0  0  0  0
  -18.0302  -28.1392   22.8479 C   0  0  0  0  0  0
  -24.1492  -36.7261   23.2642 C   0  0  0  0  0  0
  -25.9988  -30.7264   21.3863 C   0  0  0  0  0  0
  -26.0694  -29.3403   20.7265 C   0  0  0  0  0  0
  -27.2335  -28.4864   20.7250 C   0  0  0  0  0  0
  -26.0076  -26.8113   19.4973 C   0  0  0  0  0  0
  -24.8718  -27.6460   19.4827 C   0  0  0  0  0  0
  -23.6680  -29.7993   20.1553 C   0  0  0  0  0  0
  -25.4124  -36.3042   24.0317 C   0  0  1  0  0  0
  -20.5914  -28.3719   23.1239 C   0  0  2  0  0  0
  -20.6787  -26.9426   22.5402 C   0  0  0  0  0  0
  -19.5761  -26.6380   21.5211 C   0  0  0  0  0  0
  -18.1943  -26.7929   22.1624 C   0  0  0  0  0  0
  -19.1559  -28.8875   23.2849 C   0  0  0  0  0  0
  -18.9475  -30.1471   23.8875 C   0  0  0  0  0  0
  -17.6472  -30.6589   24.0561 C   0  0  0  0  0  0
  -25.9073  -34.9413   23.5068 C   0  0  0  0  0  0
  -16.5363  -29.9084   23.6336 C   0  0  0  0  0  0
  -16.7287  -28.6502   23.0356 C   0  0  0  0  0  0
  -26.4524  -31.6567   25.0721 C   0  0  0  0  0  0
  -25.3709  -31.3751   26.1417 C   0  0  0  0  0  0
  -27.0389  -30.2967   24.6288 C   0  0  0  0  0  0
  -27.6052  -32.4333   25.7505 C   0  0  0  0  0  0
  -27.5577  -37.1789   24.8466 C   0  0  0  0  0  0
  -21.4252  -29.3048   22.3619 N   0  0  0  0  0  0
  -26.4288  -37.3753   23.9406 N   0  0  0  0  0  0
  -24.7146  -31.0337   22.0934 N   0  0  0  0  0  0
  -23.4208  -28.8112   23.3018 O   0  0  0  0  0  0
  -28.2771  -26.1871   20.2025 O   0  0  0  0  0  0
  -26.5660  -34.8911   22.4647 O   0  0  0  0  0  0
  -23.5542  -32.1336   23.7136 O   0  0  0  0  0  0
  -29.2219  -19.0374   20.5185 C   0  0  0  0  0  0
  -31.3365  -18.1225   19.8663 C   0  0  0  0  0  0
  -30.0629  -17.8301   20.3734 C   0  0  0  0  0  0
  -29.6304  -20.4170   20.1654 C   0  0  0  0  0  0
  -30.9544  -20.4594   19.6496 C   0  0  0  0  0  0
  -33.5394  -22.9989   18.0554 C   0  0  0  0  0  0
  -29.6678  -16.2794   20.7571 C   0  0  0  0  0  0
  -28.6584  -21.7591   20.2405 C   0  0  0  0  0  0
  -31.5842  -21.7560   19.1457 C   0  0  0  0  0  0
  -33.0115  -21.6509   18.5664 C   0  0  0  0  0  0
  -29.0721  -23.3978   20.2601 C   0  0  0  0  0  0
  -27.9821  -24.6647   20.1582 C   0  0  0  0  0  0
  -31.7478  -19.3634   19.5289 N   0  0  0  0  0  0
  -31.4860  -12.6991   19.1938 H   0  0  0  0  0  0
  -30.4277  -11.5838   20.0098 H   0  0  0  0  0  0
  -29.8413  -11.7414   17.5665 H   0  0  0  0  0  0
  -29.6287  -13.4685   17.7120 H   0  0  0  0  0  0
  -27.9403  -11.2753   18.9539 H   0  0  0  0  0  0
  -27.3993  -12.4745   17.8073 H   0  0  0  0  0  0
  -27.6103  -14.2470   19.4255 H   0  0  0  0  0  0
  -28.7440  -12.2485   21.4426 H   0  0  0  0  0  0
  -28.3830  -13.9252   21.7699 H   0  0  0  0  0  0
  -25.2782   -9.5693   22.4746 H   0  0  0  0  0  0
  -24.0022   -7.4642   22.7468 H   0  0  0  0  0  0
  -21.0856   -8.8785   19.8948 H   0  0  0  0  0  0
  -22.3721  -10.9677   19.6161 H   0  0  0  0  0  0
  -21.2011   -7.6149   23.9722 H   0  0  0  0  0  0
  -21.1477   -6.0517   25.9078 H   0  0  0  0  0  0
  -22.0600   -2.7612   23.2840 H   0  0  0  0  0  0
  -22.4097  -11.9875   22.4827 H   0  0  0  0  0  0
  -21.1090  -13.1225   22.2622 H   0  0  0  0  0  0
  -24.6516  -15.8460   20.5313 H   0  0  0  0  0  0
  -26.2680  -15.6369   20.0880 H   0  0  0  0  0  0
  -26.7266  -32.5319   23.1014 H   0  0  0  0  0  0
  -25.0077  -33.9630   25.0333 H   0  0  0  0  0  0
  -22.7447  -31.2931   21.3846 H   0  0  0  0  0  0
  -23.3760  -35.9587   23.3294 H   0  0  0  0  0  0
  -24.3578  -36.8904   22.2058 H   0  0  0  0  0  0
  -23.7240  -37.6453   23.6684 H   0  0  0  0  0  0
  -26.1521  -31.4819   20.6146 H   0  0  0  0  0  0
  -26.8702  -30.7746   22.0277 H   0  0  0  0  0  0
  -28.1323  -28.8211   21.2233 H   0  0  0  0  0  0
  -25.9002  -25.8588   19.0036 H   0  0  0  0  0  0
  -23.9719  -27.3017   18.9915 H   0  0  0  0  0  0
  -23.8052  -30.5747   19.4009 H   0  0  0  0  0  0
  -22.7824  -29.2422   19.8443 H   0  0  0  0  0  0
  -25.1312  -36.1872   25.0809 H   0  0  0  0  0  0
  -21.0000  -28.3304   24.1362 H   0  0  0  0  0  0
  -20.5678  -26.2336   23.3620 H   0  0  0  0  0  0
  -21.6655  -26.7432   22.1203 H   0  0  0  0  0  0
  -19.6923  -25.6284   21.1257 H   0  0  0  0  0  0
  -19.6693  -27.3177   20.6729 H   0  0  0  0  0  0
  -17.4210  -26.6673   21.4027 H   0  0  0  0  0  0
  -18.0344  -26.0072   22.9023 H   0  0  0  0  0  0
  -19.7952  -30.7294   24.2228 H   0  0  0  0  0  0
  -17.5027  -31.6266   24.5169 H   0  0  0  0  0  0
  -15.5364  -30.2980   23.7668 H   0  0  0  0  0  0
  -15.8687  -28.0813   22.7082 H   0  0  0  0  0  0
  -24.5887  -30.7104   25.7733 H   0  0  0  0  0  0
  -24.8902  -32.2932   26.4800 H   0  0  0  0  0  0
  -25.7992  -30.8946   27.0222 H   0  0  0  0  0  0
  -26.3007  -29.6689   24.1287 H   0  0  0  0  0  0
  -27.4003  -29.7264   25.4855 H   0  0  0  0  0  0
  -27.8913  -30.4211   23.9607 H   0  0  0  0  0  0
  -27.2641  -33.3645   26.2041 H   0  0  0  0  0  0
  -28.3885  -32.6877   25.0353 H   0  0  0  0  0  0
  -28.0698  -31.8490   26.5458 H   0  0  0  0  0  0
  -28.2590  -38.0090   24.7515 H   0  0  0  0  0  0
  -28.1079  -36.2621   24.6291 H   0  0  0  0  0  0
  -27.2296  -37.1436   25.8869 H   0  0  0  0  0  0
  -20.9461  -29.8767   21.6806 H   0  0  0  0  0  0
  -26.0158  -38.2823   24.1408 H   0  0  0  0  0  0
  -28.2210  -18.8997   20.9015 H   0  0  0  0  0  0
  -32.0760  -17.3545   19.7129 H   0  0  0  0  0  0
  -34.5498  -22.8967   17.6592 H   0  0  0  0  0  0
  -33.5709  -23.7401   18.8550 H   0  0  0  0  0  0
  -32.9101  -23.3946   17.2570 H   0  0  0  0  0  0
  -28.6815  -16.1211   20.3248 H   0  0  0  0  0  0
  -29.5031  -16.2721   21.8341 H   0  0  0  0  0  0
  -28.0247  -21.5997   21.1135 H   0  0  0  0  0  0
  -27.9792  -21.6405   19.3954 H   0  0  0  0  0  0
  -31.6040  -22.4646   19.9726 H   0  0  0  0  0  0
  -30.9342  -22.1529   18.3661 H   0  0  0  0  0  0
  -33.6902  -21.2654   19.3286 H   0  0  0  0  0  0
  -33.0233  -20.9331   17.7452 H   0  0  0  0  0  0
  -29.7335  -23.5912   19.4221 H   0  0  0  0  0  0
  -29.6759  -23.5653   21.1520 H   0  0  0  0  0  0
  -27.2353  -24.4910   20.9339 H   0  0  0  0  0  0
  -27.4658  -24.4803   19.2177 H   0  0  0  0  0  0
  1 25  1  0  0  0
  1 30  2  0  0  0
  1 77  1  0  0  0
  2  3  1  0  0  0
  2 25  1  0  0  0
  2 84  1  0  0  0
  2 85  1  0  0  0
  3  4  1  0  0  0
  3 86  1  0  0  0
  3 87  1  0  0  0
  4  5  1  0  0  0
  4 88  1  0  0  0
  4 89  1  0  0  0
  5  6  1  0  0  0
  5 26  1  0  0  0
  5 90  1  0  0  0
  6 25  1  0  0  0
  6 91  1  0  0  0
  6 92  1  0  0  0
  7  8  2  0  0  0
  7 26  1  0  0  0
  7 29  1  0  0  0
  8  9  1  0  0  0
  8 22  1  0  0  0
  9 10  1  0  0  0
  9 27  2  0  0  0
 10 11  2  0  0  0
 10 15  1  0  0  0
 11 12  1  0  0  0
 11 93  1  0  0  0
 12 13  2  0  0  0
 12 94  1  0  0  0
 13 14  1  0  0  0
 13 31  1  0  0  0
 14 15  2  0  0  0
 14 95  1  0  0  0
 15 96  1  0  0  0
 16 17  2  0  0  0
 16 21  1  0  0  0
 16 31  1  0  0  0
 17 18  1  0  0  0
 17 97  1  0  0  0
 18 19  2  0  0  0
 18 98  1  0  0  0
 19 20  1  0  0  0
 19 24  1  0  0  0
 20 21  2  0  0  0
 20 99  1  0  0  0
 21 23  1  0  0  0
 22 28  1  0  0  0
 22 32  2  0  0  0
 26 27  1  0  0  0
 28100  1  0  0  0
 28101  1  0  0  0
 29102  1  0  0  0
 29103  1  0  0  0
 33 34  1  0  0  0
 33 66  1  0  0  0
 33 70  2  0  0  0
 34 36  1  0  0  0
 34 59  1  0  0  0
 34104  1  0  0  0
 35 44  2  0  0  0
 35 45  1  0  0  0
 35 68  1  0  0  0
 36 56  1  0  0  0
 36105  1  0  0  0
 37 39  1  0  0  0
 37 47  1  0  0  0
 37 66  1  0  0  0
 37106  1  0  0  0
 38 43  2  0  0  0
 38 46  1  0  0  0
 38 47  1  0  0  0
 39 64  1  0  0  0
 39 67  2  0  0  0
 40 52  1  0  0  0
 40 53  2  0  0  0
 40 58  1  0  0  0
 41107  1  0  0  0
 41108  1  0  0  0
 41109  1  0  0  0
 41 48  1  0  0  0
 42 43  1  0  0  0
 42 66  1  0  0  0
 42110  1  0  0  0
 42111  1  0  0  0
 43 44  1  0  0  0
 44112  1  0  0  0
 45 46  2  0  0  0
 45113  1  0  0  0
 46114  1  0  0  0
 47115  1  0  0  0
 47116  1  0  0  0
 48 56  1  0  0  0
 48 65  1  0  0  0
 48117  1  0  0  0
 49 50  1  0  0  0
 49 53  1  0  0  0
 49 64  1  0  0  0
 49118  1  0  0  0
 50 51  1  0  0  0
 50119  1  0  0  0
 50120  1  0  0  0
 51 52  1  0  0  0
 51121  1  0  0  0
 51122  1  0  0  0
 52123  1  0  0  0
 52124  1  0  0  0
 53 54  1  0  0  0
 54 55  2  0  0  0
 54125  1  0  0  0
 55 57  1  0  0  0
 55126  1  0  0  0
 56 69  2  0  0  0
 57 58  2  0  0  0
 57127  1  0  0  0
 58128  1  0  0  0
 59 60  1  0  0  0
 59 61  1  0  0  0
 59 62  1  0  0  0
 60129  1  0  0  0
 60130  1  0  0  0
 60131  1  0  0  0
 61132  1  0  0  0
 61133  1  0  0  0
 61134  1  0  0  0
 62135  1  0  0  0
 62136  1  0  0  0
 62137  1  0  0  0
 63 65  1  0  0  0
 63138  1  0  0  0
 63139  1  0  0  0
 63140  1  0  0  0
 64141  1  0  0  0
 65142  1  0  0  0
 68 82  1  0  0  0
 71 73  2  0  0  0
 71 74  1  0  0  0
 71143  1  0  0  0
 72 73  1  0  0  0
 72 83  2  0  0  0
 72144  1  0  0  0
 73 77  1  0  0  0
 74 75  2  0  0  0
 74 78  1  0  0  0
 75 79  1  0  0  0
 75 83  1  0  0  0
 76 80  1  0  0  0
 76145  1  0  0  0
 76146  1  0  0  0
 76147  1  0  0  0
 77148  1  0  0  0
 77149  1  0  0  0
 78 81  1  0  0  0
 78150  1  0  0  0
 78151  1  0  0  0
 79 80  1  0  0  0
 79152  1  0  0  0
 79153  1  0  0  0
 80154  1  0  0  0
 80155  1  0  0  0
 81 82  1  0  0  0
 81156  1  0  0  0
 81157  1  0  0  0
 82158  1  0  0  0
 82159  1  0  0  0
M  ISO  4   1 100  68 101  77 100  82 101
M  END
> <chiral flag>
0

> <version>
0

> <s_m_source_file>
/data/baiqing/PycharmProjects/Reinvent-master-3.2/result/LINK_invent/BTK/process_docking_weight1_custom_sum_contain_oxygen_bond_distance_aromatic_linkinvent_7_9_3/rearranged_h_0042.sdf

> <i_m_source_file_index>
56

> <r_mmod_Potential_Energy-OPLS-2005>
301.070068359375

> <r_mmod_Stretch_Energy-OPLS-2005>
243.915252685547

> <r_mmod_Bend_Energy-OPLS-2005>
243.67546081543

> <r_mmod_Torsional_Energy-OPLS-2005>
183.779159545898

> <r_mmod_Improper_Torsional_Energy-OPLS-2005>
2.96987795829773

> <r_mmod_Van_der_Waal_Energy-OPLS-2005>
142.581726074219

> <r_mmod_Electrostatic_Energy-OPLS-2005>
-467.116149902344

> <r_mmod_Solvation_Energy-OPLS-2005>
-212.795944213867

> <b_mmod_Minimization_Converged-OPLS-2005>
0

> <r_mmod_RMS_Derivative-OPLS-2005>
0.609533667564392

$$$$
57
                    3D
 Structure written by MMmdl.
171179  0  0  1  0            999 V2000
  -30.7404  -14.3752   20.6278 C   0  0  0  0  0  0
  -30.4167  -12.2685   19.4019 C   0  0  0  0  0  0
  -29.4878  -12.5179   18.1978 C   0  0  0  0  0  0
  -28.0082  -12.3909   18.6092 C   0  0  0  0  0  0
  -27.6691  -13.2049   19.8848 C   0  0  2  0  0  0
  -28.7072  -12.9379   20.9974 C   0  0  0  0  0  0
  -25.2611  -13.8167   20.5698 C   0  0  0  0  0  0
  -24.1852  -13.0447   20.9190 C   0  0  0  0  0  0
  -24.6398  -11.6914   20.8740 C   0  0  0  0  0  0
  -23.9061  -10.4298   21.0422 C   0  0  0  0  0  0
  -24.3616   -9.4212   21.9193 C   0  0  0  0  0  0
  -23.6305   -8.2236   22.0737 C   0  0  0  0  0  0
  -22.4283   -8.0284   21.3532 C   0  0  0  0  0  0
  -21.9922   -9.0254   20.4629 C   0  0  0  0  0  0
  -22.7238  -10.2145   20.3060 C   0  0  0  0  0  0
  -21.6843   -6.0749   22.5281 C   0  0  0  0  0  0
  -21.4001   -6.5647   23.8218 C   0  0  0  0  0  0
  -21.3658   -5.6799   24.9178 C   0  0  0  0  0  0
  -21.6052   -4.3059   24.7223 C   0  0  0  0  0  0
  -21.8824   -3.8159   23.4336 C   0  0  0  0  0  0
  -21.9184   -4.6973   22.3398 C   0  0  0  0  0  0
  -22.7877  -13.5242   21.1870 C   0  0  0  0  0  0
  -22.1674   -4.2173   21.0974 F   0  0  0  0  0  0
  -21.5632   -3.4541   25.7728 F   0  0  0  0  0  0
  -30.0475  -13.2227   20.4568 N   0  0  0  0  0  0
  -26.3062  -12.9337   20.3422 N   0  0  0  0  0  0
  -25.9326  -11.6495   20.5772 N   0  0  0  0  0  0
  -22.0519  -12.8221   22.0421 N   0  0  0  0  0  0
  -25.4353  -15.1874   20.4096 N   0  0  0  0  0  0
  -31.8368  -14.5921   20.1054 O   0  0  0  0  0  0
  -21.6637   -6.8886   21.4242 O   0  0  0  0  0  0
  -22.3560  -14.5552   20.6727 O   0  0  0  0  0  0
  -24.6063  -31.8718   23.2127 C   0  0  0  0  0  0
  -25.8979  -32.4847   23.8417 C   0  0  1  0  0  0
  -27.2621  -27.4895   20.1104 C   0  0  0  0  0  0
  -25.5858  -33.8643   24.2361 N   0  0  0  0  0  0
  -23.3922  -30.4919   21.5501 C   0  0  2  0  0  0
  -24.8438  -28.9581   20.1178 C   0  0  0  0  0  0
  -22.7369  -29.4666   22.5014 C   0  0  0  0  0  0
  -18.0262  -28.1369   22.8500 C   0  0  0  0  0  0
  -24.1480  -36.7330   23.2643 C   0  0  0  0  0  0
  -25.9088  -30.8581   21.3530 C   0  0  0  0  0  0
  -25.9910  -29.4904   20.7146 C   0  0  0  0  0  0
  -27.1951  -28.7668   20.7144 C   0  0  0  0  0  0
  -26.1007  -26.9670   19.5015 C   0  0  0  0  0  0
  -24.8902  -27.6907   19.5088 C   0  0  0  0  0  0
  -23.5988  -29.8144   20.1665 C   0  0  0  0  0  0
  -25.4096  -36.3135   24.0354 C   0  0  1  0  0  0
  -20.5850  -28.3643   23.1340 C   0  0  2  0  0  0
  -20.6751  -26.9386   22.5426 C   0  0  0  0  0  0
  -19.5735  -26.6383   21.5215 C   0  0  0  0  0  0
  -18.1910  -26.7919   22.1624 C   0  0  0  0  0  0
  -19.1512  -28.8824   23.2920 C   0  0  0  0  0  0
  -18.9443  -30.1434   23.8926 C   0  0  0  0  0  0
  -17.6447  -30.6581   24.0568 C   0  0  0  0  0  0
  -25.9016  -34.9493   23.5158 C   0  0  0  0  0  0
  -16.5338  -29.9085   23.6321 C   0  0  0  0  0  0
  -16.7253  -28.6499   23.0346 C   0  0  0  0  0  0
  -26.4444  -31.6598   25.0708 C   0  0  0  0  0  0
  -25.3736  -31.3673   26.1477 C   0  0  0  0  0  0
  -27.0274  -30.3061   24.6015 C   0  0  0  0  0  0
  -27.6038  -32.4304   25.7460 C   0  0  0  0  0  0
  -27.5581  -37.1816   24.8467 C   0  0  0  0  0  0
  -21.4107  -29.3017   22.3751 N   0  0  0  0  0  0
  -26.4294  -37.3806   23.9412 N   0  0  0  0  0  0
  -24.6534  -31.0879   22.0988 N   0  0  0  0  0  0
  -23.4168  -28.8221   23.3048 O   0  0  0  0  0  0
  -28.4185  -26.7432   20.0492 O   0  0  0  0  0  0
  -26.5581  -34.8933   22.4724 O   0  0  0  0  0  0
  -23.5276  -32.1436   23.7568 O   0  0  0  0  0  0
  -30.9017  -25.0206   20.0803 C   0  0  0  0  0  0
  -30.6401  -26.1747   20.8675 C   0  0  0  0  0  0
  -32.2613  -24.8648   20.1282 C   0  0  0  0  0  0
  -30.1711  -18.8776   17.4173 C   0  0  0  0  0  0
  -34.1212  -26.1918   21.2575 C   0  0  0  0  0  0
  -29.3193  -26.8369   21.1590 C   0  0  0  0  0  0
  -33.1772  -23.8609   19.4957 C   0  0  0  0  0  0
  -32.4761  -22.8145   18.6182 C   0  0  0  0  0  0
  -30.4716  -17.3822   19.9650 C   0  0  0  0  0  0
  -30.5772  -18.9137   19.9625 C   0  0  0  0  0  0
  -30.4762  -16.7417   21.3675 C   0  0  0  0  0  0
  -31.6935  -21.7582   19.4201 C   0  0  0  0  0  0
  -30.9706  -19.4972   18.5791 C   0  0  2  0  0  0
  -31.7563  -26.6869   21.3702 N   0  0  0  0  0  0
  -32.7454  -25.8916   20.9132 N   0  0  0  0  0  0
  -30.0941  -15.3302   21.3074 N   0  0  0  0  0  0
  -30.8160  -20.9674   18.5335 N   0  3  0  0  0  0
  -31.4589  -12.3663   19.0945 H   0  0  0  0  0  0
  -30.3101  -11.2457   19.7682 H   0  0  0  0  0  0
  -29.7156  -11.8214   17.3899 H   0  0  0  0  0  0
  -29.6717  -13.5147   17.7939 H   0  0  0  0  0  0
  -27.7976  -11.3347   18.7781 H   0  0  0  0  0  0
  -27.3627  -12.7031   17.7872 H   0  0  0  0  0  0
  -27.7298  -14.2606   19.6161 H   0  0  0  0  0  0
  -28.6635  -11.8949   21.3139 H   0  0  0  0  0  0
  -28.4751  -13.5129   21.8939 H   0  0  0  0  0  0
  -25.2766   -9.5684   22.4756 H   0  0  0  0  0  0
  -24.0022   -7.4620   22.7437 H   0  0  0  0  0  0
  -21.0859   -8.8768   19.8926 H   0  0  0  0  0  0
  -22.3701  -10.9682   19.6166 H   0  0  0  0  0  0
  -21.1984   -7.6156   23.9731 H   0  0  0  0  0  0
  -21.1489   -6.0527   25.9091 H   0  0  0  0  0  0
  -22.0597   -2.7618   23.2821 H   0  0  0  0  0  0
  -22.4134  -11.9867   22.4772 H   0  0  0  0  0  0
  -21.1124  -13.1216   22.2617 H   0  0  0  0  0  0
  -24.6711  -15.8477   20.5091 H   0  0  0  0  0  0
  -26.2981  -15.6201   20.1032 H   0  0  0  0  0  0
  -26.7060  -32.5605   23.1210 H   0  0  0  0  0  0
  -25.0004  -33.9814   25.0501 H   0  0  0  0  0  0
  -22.6784  -31.3056   21.4095 H   0  0  0  0  0  0
  -23.3735  -35.9670   23.3323 H   0  0  0  0  0  0
  -24.3577  -36.8917   22.2053 H   0  0  0  0  0  0
  -23.7234  -37.6546   23.6632 H   0  0  0  0  0  0
  -26.0024  -31.6188   20.5767 H   0  0  0  0  0  0
  -26.8031  -30.9283   21.9599 H   0  0  0  0  0  0
  -28.0568  -29.2364   21.1603 H   0  0  0  0  0  0
  -26.1355  -25.9977   19.0246 H   0  0  0  0  0  0
  -24.0097  -27.2735   19.0404 H   0  0  0  0  0  0
  -23.6962  -30.5833   19.3998 H   0  0  0  0  0  0
  -22.7280  -29.2218   19.8795 H   0  0  0  0  0  0
  -25.1268  -36.2019   25.0848 H   0  0  0  0  0  0
  -20.9944  -28.3202   24.1461 H   0  0  0  0  0  0
  -20.5644  -26.2250   23.3606 H   0  0  0  0  0  0
  -21.6622  -26.7428   22.1226 H   0  0  0  0  0  0
  -19.6891  -25.6301   21.1222 H   0  0  0  0  0  0
  -19.6675  -27.3214   20.6762 H   0  0  0  0  0  0
  -17.4181  -26.6680   21.4019 H   0  0  0  0  0  0
  -18.0302  -26.0050   22.9010 H   0  0  0  0  0  0
  -19.7920  -30.7241   24.2306 H   0  0  0  0  0  0
  -17.5003  -31.6263   24.5163 H   0  0  0  0  0  0
  -15.5339  -30.2998   23.7627 H   0  0  0  0  0  0
  -15.8652  -28.0829   22.7043 H   0  0  0  0  0  0
  -24.5909  -30.7020   25.7815 H   0  0  0  0  0  0
  -24.8927  -32.2818   26.4960 H   0  0  0  0  0  0
  -25.8117  -30.8822   27.0211 H   0  0  0  0  0  0
  -26.2796  -29.6828   24.1102 H   0  0  0  0  0  0
  -27.4119  -29.7283   25.4428 H   0  0  0  0  0  0
  -27.8587  -30.4421   23.9096 H   0  0  0  0  0  0
  -27.2669  -33.3588   26.2090 H   0  0  0  0  0  0
  -28.3814  -32.6891   25.0259 H   0  0  0  0  0  0
  -28.0741  -31.8393   26.5331 H   0  0  0  0  0  0
  -28.2614  -38.0099   24.7510 H   0  0  0  0  0  0
  -28.1062  -36.2635   24.6297 H   0  0  0  0  0  0
  -27.2303  -37.1475   25.8872 H   0  0  0  0  0  0
  -20.9256  -29.8738   21.6982 H   0  0  0  0  0  0
  -26.0197  -38.2893   24.1400 H   0  0  0  0  0  0
  -30.1795  -24.4182   19.5491 H   0  0  0  0  0  0
  -30.3938  -17.8183   17.2941 H   0  0  0  0  0  0
  -30.4183  -19.3502   16.4664 H   0  0  0  0  0  0
  -29.0967  -18.9774   17.5788 H   0  0  0  0  0  0
  -34.6819  -26.4163   20.3496 H   0  0  0  0  0  0
  -34.5751  -25.3314   21.7502 H   0  0  0  0  0  0
  -34.1765  -27.0507   21.9267 H   0  0  0  0  0  0
  -29.5285  -27.8660   21.4411 H   0  0  0  0  0  0
  -28.8529  -26.3659   22.0253 H   0  0  0  0  0  0
  -33.7605  -23.3596   20.2692 H   0  0  0  0  0  0
  -33.8998  -24.3972   18.8788 H   0  0  0  0  0  0
  -33.2325  -22.2986   18.0260 H   0  0  0  0  0  0
  -31.8356  -23.3283   17.9012 H   0  0  0  0  0  0
  -31.3081  -16.9840   19.3893 H   0  0  0  0  0  0
  -29.5651  -17.0847   19.4326 H   0  0  0  0  0  0
  -31.3226  -19.2082   20.7023 H   0  0  0  0  0  0
  -29.6285  -19.3313   20.3039 H   0  0  0  0  0  0
  -31.4603  -16.8413   21.8303 H   0  0  0  0  0  0
  -29.7725  -17.2563   22.0226 H   0  0  0  0  0  0
  -31.0609  -22.2276   20.1734 H   0  0  0  0  0  0
  -32.3949  -21.1245   19.9635 H   0  0  0  0  0  0
  -32.0241  -19.2737   18.3972 H   0  0  0  0  0  0
  -29.2096  -15.0718   21.7203 H   0  0  0  0  0  0
  -31.0026  -21.2574   17.5883 H   0  0  0  0  0  0
  -29.8584  -21.2122   18.7277 H   0  0  0  0  0  0
  1 25  1  0  0  0
  1 30  2  0  0  0
  1 86  1  0  0  0
  2  3  1  0  0  0
  2 25  1  0  0  0
  2 88  1  0  0  0
  2 89  1  0  0  0
  3  4  1  0  0  0
  3 90  1  0  0  0
  3 91  1  0  0  0
  4  5  1  0  0  0
  4 92  1  0  0  0
  4 93  1  0  0  0
  5  6  1  0  0  0
  5 26  1  0  0  0
  5 94  1  0  0  0
  6 25  1  0  0  0
  6 95  1  0  0  0
  6 96  1  0  0  0
  7  8  2  0  0  0
  7 26  1  0  0  0
  7 29  1  0  0  0
  8  9  1  0  0  0
  8 22  1  0  0  0
  9 10  1  0  0  0
  9 27  2  0  0  0
 10 11  2  0  0  0
 10 15  1  0  0  0
 11 12  1  0  0  0
 11 97  1  0  0  0
 12 13  2  0  0  0
 12 98  1  0  0  0
 13 14  1  0  0  0
 13 31  1  0  0  0
 14 15  2  0  0  0
 14 99  1  0  0  0
 15100  1  0  0  0
 16 17  2  0  0  0
 16 21  1  0  0  0
 16 31  1  0  0  0
 17 18  1  0  0  0
 17101  1  0  0  0
 18 19  2  0  0  0
 18102  1  0  0  0
 19 20  1  0  0  0
 19 24  1  0  0  0
 20 21  2  0  0  0
 20103  1  0  0  0
 21 23  1  0  0  0
 22 28  1  0  0  0
 22 32  2  0  0  0
 26 27  1  0  0  0
 28104  1  0  0  0
 28105  1  0  0  0
 29106  1  0  0  0
 29107  1  0  0  0
 33 34  1  0  0  0
 33 66  1  0  0  0
 33 70  2  0  0  0
 34 36  1  0  0  0
 34 59  1  0  0  0
 34108  1  0  0  0
 35 44  2  0  0  0
 35 45  1  0  0  0
 35 68  1  0  0  0
 36 56  1  0  0  0
 36109  1  0  0  0
 37 39  1  0  0  0
 37 47  1  0  0  0
 37 66  1  0  0  0
 37110  1  0  0  0
 38 43  2  0  0  0
 38 46  1  0  0  0
 38 47  1  0  0  0
 39 64  1  0  0  0
 39 67  2  0  0  0
 40 52  1  0  0  0
 40 53  2  0  0  0
 40 58  1  0  0  0
 41111  1  0  0  0
 41112  1  0  0  0
 41113  1  0  0  0
 41 48  1  0  0  0
 42 43  1  0  0  0
 42 66  1  0  0  0
 42114  1  0  0  0
 42115  1  0  0  0
 43 44  1  0  0  0
 44116  1  0  0  0
 45 46  2  0  0  0
 45117  1  0  0  0
 46118  1  0  0  0
 47119  1  0  0  0
 47120  1  0  0  0
 48 56  1  0  0  0
 48 65  1  0  0  0
 48121  1  0  0  0
 49 50  1  0  0  0
 49 53  1  0  0  0
 49 64  1  0  0  0
 49122  1  0  0  0
 50 51  1  0  0  0
 50123  1  0  0  0
 50124  1  0  0  0
 51 52  1  0  0  0
 51125  1  0  0  0
 51126  1  0  0  0
 52127  1  0  0  0
 52128  1  0  0  0
 53 54  1  0  0  0
 54 55  2  0  0  0
 54129  1  0  0  0
 55 57  1  0  0  0
 55130  1  0  0  0
 56 69  2  0  0  0
 57 58  2  0  0  0
 57131  1  0  0  0
 58132  1  0  0  0
 59 60  1  0  0  0
 59 61  1  0  0  0
 59 62  1  0  0  0
 60133  1  0  0  0
 60134  1  0  0  0
 60135  1  0  0  0
 61136  1  0  0  0
 61137  1  0  0  0
 61138  1  0  0  0
 62139  1  0  0  0
 62140  1  0  0  0
 62141  1  0  0  0
 63 65  1  0  0  0
 63142  1  0  0  0
 63143  1  0  0  0
 63144  1  0  0  0
 64145  1  0  0  0
 65146  1  0  0  0
 68 76  1  0  0  0
 71 72  1  0  0  0
 71 73  2  0  0  0
 71147  1  0  0  0
 72 76  1  0  0  0
 72 84  2  0  0  0
 73 77  1  0  0  0
 73 85  1  0  0  0
 74148  1  0  0  0
 74149  1  0  0  0
 74150  1  0  0  0
 74 83  1  0  0  0
 75 85  1  0  0  0
 75151  1  0  0  0
 75152  1  0  0  0
 75153  1  0  0  0
 76154  1  0  0  0
 76155  1  0  0  0
 77 78  1  0  0  0
 77156  1  0  0  0
 77157  1  0  0  0
 78 82  1  0  0  0
 78158  1  0  0  0
 78159  1  0  0  0
 79 80  1  0  0  0
 79 81  1  0  0  0
 79160  1  0  0  0
 79161  1  0  0  0
 80 83  1  0  0  0
 80162  1  0  0  0
 80163  1  0  0  0
 81 86  1  0  0  0
 81164  1  0  0  0
 81165  1  0  0  0
 82 87  1  0  0  0
 82166  1  0  0  0
 82167  1  0  0  0
 83 87  1  0  0  0
 83168  1  0  0  0
 84 85  1  0  0  0
 86169  1  0  0  0
 87170  1  0  0  0
 87171  1  0  0  0
M  CHG  1  87   1
M  ISO  4   1 100  68 101  76 101  86 100
M  END
> <chiral flag>
0

> <version>
0

> <s_m_source_file>
/data/baiqing/PycharmProjects/Reinvent-master-3.2/result/LINK_invent/BTK/process_docking_weight1_custom_sum_contain_oxygen_bond_distance_aromatic_linkinvent_7_9_3/rearranged_h_0042.sdf

> <i_m_source_file_index>
57

> <r_mmod_Potential_Energy-OPLS-2005>
-256.634429931641

> <r_mmod_Stretch_Energy-OPLS-2005>
30.9772567749023

> <r_mmod_Bend_Energy-OPLS-2005>
94.5675888061523

> <r_mmod_Torsional_Energy-OPLS-2005>
225.082778930664

> <r_mmod_Improper_Torsional_Energy-OPLS-2005>
3.05549573898315

> <r_mmod_Van_der_Waal_Energy-OPLS-2005>
140.0009765625

> <r_mmod_Electrostatic_Energy-OPLS-2005>
-278.237030029297

> <r_mmod_Solvation_Energy-OPLS-2005>
-478.626617431641

> <b_mmod_Minimization_Converged-OPLS-2005>
0

> <r_mmod_RMS_Derivative-OPLS-2005>
2.20761322975159

$$$$
58
                    3D
 Structure written by MMmdl.
161169  0  0  1  0            999 V2000
  -30.5705  -14.7056   20.5085 C   0  0  0  0  0  0
  -30.4237  -12.4404   19.4553 C   0  0  0  0  0  0
  -29.5076  -12.5679   18.2212 C   0  0  0  0  0  0
  -28.0364  -12.3495   18.6221 C   0  0  0  0  0  0
  -27.6409  -13.2254   19.8449 C   0  0  2  0  0  0
  -28.6754  -13.1076   20.9865 C   0  0  0  0  0  0
  -25.2498  -13.8181   20.5660 C   0  0  0  0  0  0
  -24.1784  -13.0473   20.9133 C   0  0  0  0  0  0
  -24.6372  -11.6958   20.8702 C   0  0  0  0  0  0
  -23.9099  -10.4324   21.0384 C   0  0  0  0  0  0
  -24.3641   -9.4188   21.9113 C   0  0  0  0  0  0
  -23.6271   -8.2228   22.0697 C   0  0  0  0  0  0
  -22.4260   -8.0290   21.3494 C   0  0  0  0  0  0
  -21.9927   -9.0343   20.4642 C   0  0  0  0  0  0
  -22.7280  -10.2205   20.3044 C   0  0  0  0  0  0
  -21.6876   -6.0716   22.5263 C   0  0  0  0  0  0
  -21.4057   -6.5602   23.8225 C   0  0  0  0  0  0
  -21.3765   -5.6728   24.9180 C   0  0  0  0  0  0
  -21.6140   -4.2998   24.7174 C   0  0  0  0  0  0
  -21.8845   -3.8114   23.4280 C   0  0  0  0  0  0
  -21.9138   -4.6935   22.3332 C   0  0  0  0  0  0
  -22.7832  -13.5296   21.1877 C   0  0  0  0  0  0
  -22.1583   -4.2094   21.0909 F   0  0  0  0  0  0
  -21.5771   -3.4491   25.7690 F   0  0  0  0  0  0
  -29.9826  -13.4654   20.4225 N   0  0  0  0  0  0
  -26.2891  -12.9419   20.3172 N   0  0  0  0  0  0
  -25.9261  -11.6564   20.5546 N   0  0  0  0  0  0
  -22.0562  -12.8212   22.0373 N   0  0  0  0  0  0
  -25.4131  -15.1905   20.4060 N   0  0  0  0  0  0
  -31.7543  -14.8639   20.1992 O   0  0  0  0  0  0
  -21.6627   -6.8875   21.4238 O   0  0  0  0  0  0
  -22.3579  -14.5731   20.6865 O   0  0  0  0  0  0
  -24.6292  -31.8588   23.2023 C   0  0  0  0  0  0
  -25.9151  -32.4759   23.8346 C   0  0  1  0  0  0
  -27.2312  -27.2809   20.1721 C   0  0  0  0  0  0
  -25.5959  -33.8551   24.2269 N   0  0  0  0  0  0
  -23.4277  -30.4825   21.5401 C   0  0  2  0  0  0
  -24.8795  -28.9201   20.1307 C   0  0  0  0  0  0
  -22.7486  -29.4677   22.4916 C   0  0  0  0  0  0
  -18.0300  -28.1403   22.8476 C   0  0  0  0  0  0
  -24.1503  -36.7311   23.2627 C   0  0  0  0  0  0
  -25.9721  -30.7675   21.3949 C   0  0  0  0  0  0
  -26.0458  -29.3864   20.7569 C   0  0  0  0  0  0
  -27.2199  -28.5740   20.7832 C   0  0  0  0  0  0
  -26.0710  -26.9022   19.4664 C   0  0  0  0  0  0
  -24.8953  -27.6779   19.4784 C   0  0  0  0  0  0
  -23.6520  -29.8124   20.1599 C   0  0  0  0  0  0
  -25.4132  -36.3086   24.0319 C   0  0  1  0  0  0
  -20.5890  -28.3754   23.1221 C   0  0  2  0  0  0
  -20.6782  -26.9471   22.5373 C   0  0  0  0  0  0
  -19.5771  -26.6408   21.5186 C   0  0  0  0  0  0
  -18.1956  -26.7945   22.1603 C   0  0  0  0  0  0
  -19.1542  -28.8888   23.2849 C   0  0  0  0  0  0
  -18.9478  -30.1467   23.8908 C   0  0  0  0  0  0
  -17.6475  -30.6590   24.0569 C   0  0  0  0  0  0
  -25.9069  -34.9445   23.5110 C   0  0  0  0  0  0
  -16.5369  -29.9098   23.6307 C   0  0  0  0  0  0
  -16.7287  -28.6505   23.0351 C   0  0  0  0  0  0
  -26.4508  -31.6542   25.0717 C   0  0  0  0  0  0
  -25.3673  -31.3704   26.1388 C   0  0  0  0  0  0
  -27.0327  -30.2913   24.6248 C   0  0  0  0  0  0
  -27.6060  -32.4288   25.7477 C   0  0  0  0  0  0
  -27.5591  -37.1817   24.8462 C   0  0  0  0  0  0
  -21.4186  -29.3102   22.3613 N   0  0  0  0  0  0
  -26.4304  -37.3794   23.9394 N   0  0  0  0  0  0
  -24.6941  -31.0546   22.1011 N   0  0  0  0  0  0
  -23.4151  -28.8218   23.3047 O   0  0  0  0  0  0
  -28.3353  -26.4087   20.1541 O   0  0  0  0  0  0
  -26.5648  -34.8917   22.4673 O   0  0  0  0  0  0
  -23.5440  -32.1440   23.7330 O   0  0  0  0  0  0
  -28.9234  -22.5660   20.9840 C   0  0  0  0  0  0
  -26.9996  -23.4574   19.9030 C   0  0  0  0  0  0
  -28.1646  -23.7465   20.6255 C   0  0  0  0  0  0
  -28.5381  -21.2276   20.5684 C   0  0  0  0  0  0
  -26.6758  -22.1516   19.4898 C   0  0  0  0  0  0
  -25.8138  -22.3370   17.1239 C   0  0  0  0  0  0
  -24.7497  -20.6207   18.6732 C   0  0  0  0  0  0
  -28.4325  -25.2466   21.0998 C   0  0  0  0  0  0
  -29.2351  -19.8966   21.1046 C   0  0  0  0  0  0
  -29.0647  -18.4274   20.4354 C   0  0  0  0  0  0
  -30.0048  -17.2474   21.0331 C   0  0  0  0  0  0
  -25.4520  -21.9824   18.5725 C   0  0  0  0  0  0
  -27.4380  -21.0634   19.7953 N   0  0  0  0  0  0
  -29.7231  -15.7728   20.7675 N   0  0  0  0  0  0
  -24.5230  -22.8689   18.9533 F   0  0  0  0  0  0
  -31.4684  -12.5741   19.1780 H   0  0  0  0  0  0
  -30.3341  -11.4440   19.8850 H   0  0  0  0  0  0
  -29.8070  -11.8749   17.4319 H   0  0  0  0  0  0
  -29.6157  -13.5740   17.8126 H   0  0  0  0  0  0
  -27.8974  -11.2910   18.8571 H   0  0  0  0  0  0
  -27.3792  -12.5662   17.7807 H   0  0  0  0  0  0
  -27.6500  -14.2521   19.4814 H   0  0  0  0  0  0
  -28.7029  -12.0964   21.3897 H   0  0  0  0  0  0
  -28.3935  -13.7532   21.8158 H   0  0  0  0  0  0
  -25.2817   -9.5622   22.4645 H   0  0  0  0  0  0
  -23.9876   -7.4646   22.7532 H   0  0  0  0  0  0
  -21.0871   -8.8927   19.8893 H   0  0  0  0  0  0
  -22.3812  -10.9848   19.6256 H   0  0  0  0  0  0
  -21.2067   -7.6111   23.9732 H   0  0  0  0  0  0
  -21.1716   -6.0436   25.9094 H   0  0  0  0  0  0
  -22.0568   -2.7588   23.2760 H   0  0  0  0  0  0
  -22.4453  -11.9923   22.4632 H   0  0  0  0  0  0
  -21.1213  -13.1198   22.2807 H   0  0  0  0  0  0
  -24.6588  -15.8477   20.5531 H   0  0  0  0  0  0
  -26.2524  -15.6206   20.0451 H   0  0  0  0  0  0
  -26.7218  -32.5389   23.1077 H   0  0  0  0  0  0
  -25.0070  -33.9668   25.0394 H   0  0  0  0  0  0
  -22.7267  -31.3036   21.3911 H   0  0  0  0  0  0
  -23.3748  -35.9662   23.3298 H   0  0  0  0  0  0
  -24.3612  -36.8911   22.2038 H   0  0  0  0  0  0
  -23.7259  -37.6515   23.6644 H   0  0  0  0  0  0
  -26.1272  -31.5167   20.6178 H   0  0  0  0  0  0
  -26.8410  -30.8068   22.0377 H   0  0  0  0  0  0
  -28.1074  -28.9252   21.2898 H   0  0  0  0  0  0
  -26.0764  -26.0137   18.8581 H   0  0  0  0  0  0
  -24.0231  -27.3277   18.9456 H   0  0  0  0  0  0
  -23.7971  -30.5858   19.4053 H   0  0  0  0  0  0
  -22.7684  -29.2547   19.8445 H   0  0  0  0  0  0
  -25.1312  -36.1960   25.0813 H   0  0  0  0  0  0
  -21.0000  -28.3367   24.1340 H   0  0  0  0  0  0
  -20.5687  -26.2397   23.3613 H   0  0  0  0  0  0
  -21.6652  -26.7500   22.1186 H   0  0  0  0  0  0
  -19.6931  -25.6326   21.1230 H   0  0  0  0  0  0
  -19.6655  -27.3184   20.6708 H   0  0  0  0  0  0
  -17.4209  -26.6683   21.4013 H   0  0  0  0  0  0
  -18.0367  -26.0088   22.9015 H   0  0  0  0  0  0
  -19.7959  -30.7258   24.2291 H   0  0  0  0  0  0
  -17.5047  -31.6265   24.5190 H   0  0  0  0  0  0
  -15.5376  -30.3006   23.7636 H   0  0  0  0  0  0
  -15.8699  -28.0818   22.7085 H   0  0  0  0  0  0
  -24.5924  -30.6992   25.7681 H   0  0  0  0  0  0
  -24.8766  -32.2855   26.4689 H   0  0  0  0  0  0
  -25.7919  -30.8949   27.0233 H   0  0  0  0  0  0
  -26.2915  -29.6685   24.1216 H   0  0  0  0  0  0
  -27.3873  -29.7158   25.4813 H   0  0  0  0  0  0
  -27.8885  -30.4100   23.9600 H   0  0  0  0  0  0
  -27.2687  -33.3642   26.1958 H   0  0  0  0  0  0
  -28.3894  -32.6743   25.0293 H   0  0  0  0  0  0
  -28.0700  -31.8458   26.5435 H   0  0  0  0  0  0
  -28.2626  -38.0104   24.7528 H   0  0  0  0  0  0
  -28.1069  -36.2630   24.6290 H   0  0  0  0  0  0
  -27.2304  -37.1481   25.8863 H   0  0  0  0  0  0
  -20.9434  -29.8787   21.6750 H   0  0  0  0  0  0
  -26.0190  -38.2883   24.1332 H   0  0  0  0  0  0
  -29.7814  -22.6710   21.6377 H   0  0  0  0  0  0
  -26.3239  -24.2525   19.6604 H   0  0  0  0  0  0
  -26.5336  -21.6375   16.6927 H   0  0  0  0  0  0
  -26.2439  -23.3405   17.0740 H   0  0  0  0  0  0
  -24.9282  -22.3468   16.4868 H   0  0  0  0  0  0
  -25.4081  -19.8055   18.3801 H   0  0  0  0  0  0
  -23.8742  -20.5832   18.0223 H   0  0  0  0  0  0
  -24.3939  -20.4330   19.6855 H   0  0  0  0  0  0
  -27.8032  -25.4524   21.9699 H   0  0  0  0  0  0
  -29.4469  -25.2683   21.5034 H   0  0  0  0  0  0
  -28.8871  -19.7922   22.1333 H   0  0  0  0  0  0
  -30.3044  -20.0968   21.1816 H   0  0  0  0  0  0
  -29.2368  -18.4819   19.3572 H   0  0  0  0  0  0
  -28.0194  -18.1353   20.5489 H   0  0  0  0  0  0
  -29.9491  -17.3400   22.1158 H   0  0  0  0  0  0
  -31.0428  -17.4548   20.7805 H   0  0  0  0  0  0
  -28.7751  -15.4875   20.9492 H   0  0  0  0  0  0
  1 25  1  0  0  0
  1 30  2  0  0  0
  1 84  1  0  0  0
  2  3  1  0  0  0
  2 25  1  0  0  0
  2 86  1  0  0  0
  2 87  1  0  0  0
  3  4  1  0  0  0
  3 88  1  0  0  0
  3 89  1  0  0  0
  4  5  1  0  0  0
  4 90  1  0  0  0
  4 91  1  0  0  0
  5  6  1  0  0  0
  5 26  1  0  0  0
  5 92  1  0  0  0
  6 25  1  0  0  0
  6 93  1  0  0  0
  6 94  1  0  0  0
  7  8  2  0  0  0
  7 26  1  0  0  0
  7 29  1  0  0  0
  8  9  1  0  0  0
  8 22  1  0  0  0
  9 10  1  0  0  0
  9 27  2  0  0  0
 10 11  2  0  0  0
 10 15  1  0  0  0
 11 12  1  0  0  0
 11 95  1  0  0  0
 12 13  2  0  0  0
 12 96  1  0  0  0
 13 14  1  0  0  0
 13 31  1  0  0  0
 14 15  2  0  0  0
 14 97  1  0  0  0
 15 98  1  0  0  0
 16 17  2  0  0  0
 16 21  1  0  0  0
 16 31  1  0  0  0
 17 18  1  0  0  0
 17 99  1  0  0  0
 18 19  2  0  0  0
 18100  1  0  0  0
 19 20  1  0  0  0
 19 24  1  0  0  0
 20 21  2  0  0  0
 20101  1  0  0  0
 21 23  1  0  0  0
 22 28  1  0  0  0
 22 32  2  0  0  0
 26 27  1  0  0  0
 28102  1  0  0  0
 28103  1  0  0  0
 29104  1  0  0  0
 29105  1  0  0  0
 33 34  1  0  0  0
 33 66  1  0  0  0
 33 70  2  0  0  0
 34 36  1  0  0  0
 34 59  1  0  0  0
 34106  1  0  0  0
 35 44  2  0  0  0
 35 45  1  0  0  0
 35 68  1  0  0  0
 36 56  1  0  0  0
 36107  1  0  0  0
 37 39  1  0  0  0
 37 47  1  0  0  0
 37 66  1  0  0  0
 37108  1  0  0  0
 38 43  2  0  0  0
 38 46  1  0  0  0
 38 47  1  0  0  0
 39 64  1  0  0  0
 39 67  2  0  0  0
 40 52  1  0  0  0
 40 53  2  0  0  0
 40 58  1  0  0  0
 41109  1  0  0  0
 41110  1  0  0  0
 41111  1  0  0  0
 41 48  1  0  0  0
 42 43  1  0  0  0
 42 66  1  0  0  0
 42112  1  0  0  0
 42113  1  0  0  0
 43 44  1  0  0  0
 44114  1  0  0  0
 45 46  2  0  0  0
 45115  1  0  0  0
 46116  1  0  0  0
 47117  1  0  0  0
 47118  1  0  0  0
 48 56  1  0  0  0
 48 65  1  0  0  0
 48119  1  0  0  0
 49 50  1  0  0  0
 49 53  1  0  0  0
 49 64  1  0  0  0
 49120  1  0  0  0
 50 51  1  0  0  0
 50121  1  0  0  0
 50122  1  0  0  0
 51 52  1  0  0  0
 51123  1  0  0  0
 51124  1  0  0  0
 52125  1  0  0  0
 52126  1  0  0  0
 53 54  1  0  0  0
 54 55  2  0  0  0
 54127  1  0  0  0
 55 57  1  0  0  0
 55128  1  0  0  0
 56 69  2  0  0  0
 57 58  2  0  0  0
 57129  1  0  0  0
 58130  1  0  0  0
 59 60  1  0  0  0
 59 61  1  0  0  0
 59 62  1  0  0  0
 60131  1  0  0  0
 60132  1  0  0  0
 60133  1  0  0  0
 61134  1  0  0  0
 61135  1  0  0  0
 61136  1  0  0  0
 62137  1  0  0  0
 62138  1  0  0  0
 62139  1  0  0  0
 63 65  1  0  0  0
 63140  1  0  0  0
 63141  1  0  0  0
 63142  1  0  0  0
 64143  1  0  0  0
 65144  1  0  0  0
 68 78  1  0  0  0
 71 73  2  0  0  0
 71 74  1  0  0  0
 71145  1  0  0  0
 72 73  1  0  0  0
 72 75  2  0  0  0
 72146  1  0  0  0
 73 78  1  0  0  0
 74 79  1  0  0  0
 74 83  2  0  0  0
 75 82  1  0  0  0
 75 83  1  0  0  0
 76147  1  0  0  0
 76148  1  0  0  0
 76149  1  0  0  0
 76 82  1  0  0  0
 77 82  1  0  0  0
 77150  1  0  0  0
 77151  1  0  0  0
 77152  1  0  0  0
 78153  1  0  0  0
 78154  1  0  0  0
 79 80  1  0  0  0
 79155  1  0  0  0
 79156  1  0  0  0
 80 81  1  0  0  0
 80157  1  0  0  0
 80158  1  0  0  0
 81 84  1  0  0  0
 81159  1  0  0  0
 81160  1  0  0  0
 82 85  1  0  0  0
 84161  1  0  0  0
M  ISO  4   1 100  68 101  78 101  84 100
M  END
> <chiral flag>
0

> <version>
0

> <s_m_source_file>
/data/baiqing/PycharmProjects/Reinvent-master-3.2/result/LINK_invent/BTK/process_docking_weight1_custom_sum_contain_oxygen_bond_distance_aromatic_linkinvent_7_9_3/rearranged_h_0042.sdf

> <i_m_source_file_index>
58

> <r_mmod_Potential_Energy-OPLS-2005>
-7.51846599578857

> <r_mmod_Stretch_Energy-OPLS-2005>
116.544662475586

> <r_mmod_Bend_Energy-OPLS-2005>
167.109100341797

> <r_mmod_Torsional_Energy-OPLS-2005>
245.921310424805

> <r_mmod_Improper_Torsional_Energy-OPLS-2005>
6.04439496994019

> <r_mmod_Van_der_Waal_Energy-OPLS-2005>
139.638931274414

> <r_mmod_Electrostatic_Energy-OPLS-2005>
-543.778991699219

> <r_mmod_Solvation_Energy-OPLS-2005>
-211.623992919922

> <b_mmod_Minimization_Converged-OPLS-2005>
0

> <r_mmod_RMS_Derivative-OPLS-2005>
9.23068332672119

$$$$
59
                    3D
 Structure written by MMmdl.
151159  0  0  1  0            999 V2000
  -30.4024  -15.3457   20.3504 C   0  0  0  0  0  0
  -30.4347  -12.8502   19.5588 C   0  0  0  0  0  0
  -29.5480  -12.6007   18.3098 C   0  0  0  0  0  0
  -28.0963  -12.3088   18.7241 C   0  0  0  0  0  0
  -27.6086  -13.2882   19.8203 C   0  0  2  0  0  0
  -28.6298  -13.4957   20.9600 C   0  0  0  0  0  0
  -25.2371  -13.8274   20.5749 C   0  0  0  0  0  0
  -24.1734  -13.0446   20.9245 C   0  0  0  0  0  0
  -24.6405  -11.6948   20.8739 C   0  0  0  0  0  0
  -23.9101  -10.4300   21.0389 C   0  0  0  0  0  0
  -24.3640   -9.4217   21.9173 C   0  0  0  0  0  0
  -23.6308   -8.2253   22.0752 C   0  0  0  0  0  0
  -22.4288   -8.0287   21.3547 C   0  0  0  0  0  0
  -21.9929   -9.0261   20.4647 C   0  0  0  0  0  0
  -22.7266  -10.2135   20.3049 C   0  0  0  0  0  0
  -21.6855   -6.0742   22.5284 C   0  0  0  0  0  0
  -21.4017   -6.5642   23.8218 C   0  0  0  0  0  0
  -21.3663   -5.6790   24.9178 C   0  0  0  0  0  0
  -21.6042   -4.3054   24.7223 C   0  0  0  0  0  0
  -21.8817   -3.8150   23.4344 C   0  0  0  0  0  0
  -21.9192   -4.6967   22.3402 C   0  0  0  0  0  0
  -22.7753  -13.5190   21.1907 C   0  0  0  0  0  0
  -22.1659   -4.2155   21.0979 F   0  0  0  0  0  0
  -21.5628   -3.4537   25.7737 F   0  0  0  0  0  0
  -29.8694  -14.0120   20.3554 N   0  0  0  0  0  0
  -26.2801  -12.9569   20.3186 N   0  0  0  0  0  0
  -25.9341  -11.6659   20.5677 N   0  0  0  0  0  0
  -22.0408  -12.8179   22.0467 N   0  0  0  0  0  0
  -25.4007  -15.2015   20.4252 N   0  0  0  0  0  0
  -31.6111  -15.3065   20.0677 O   0  0  0  0  0  0
  -21.6641   -6.8891   21.4252 O   0  0  0  0  0  0
  -22.3428  -14.5489   20.6747 O   0  0  0  0  0  0
  -24.6668  -31.8183   23.1653 C   0  0  0  0  0  0
  -25.9331  -32.4561   23.8137 C   0  0  1  0  0  0
  -27.2206  -26.8765   20.1939 C   0  0  0  0  0  0
  -25.5983  -33.8378   24.2044 N   0  0  0  0  0  0
  -23.4843  -30.4261   21.5150 C   0  0  2  0  0  0
  -24.9398  -28.8027   20.1091 C   0  0  0  0  0  0
  -22.7688  -29.4405   22.4762 C   0  0  0  0  0  0
  -18.0328  -28.1405   22.8462 C   0  0  0  0  0  0
  -24.1495  -36.7193   23.2647 C   0  0  0  0  0  0
  -26.0547  -30.6071   21.4042 C   0  0  0  0  0  0
  -26.1217  -29.1911   20.7505 C   0  0  0  0  0  0
  -27.2516  -28.2490   20.7692 C   0  0  0  0  0  0
  -26.0136  -26.6558   19.4910 C   0  0  0  0  0  0
  -24.9144  -27.5578   19.4577 C   0  0  0  0  0  0
  -23.7274  -29.7365   20.1427 C   0  0  0  0  0  0
  -25.4139  -36.2951   24.0294 C   0  0  1  0  0  0
  -20.5954  -28.3754   23.1179 C   0  0  2  0  0  0
  -20.6806  -26.9431   22.5407 C   0  0  0  0  0  0
  -19.5782  -26.6369   21.5216 C   0  0  0  0  0  0
  -18.1962  -26.7937   22.1619 C   0  0  0  0  0  0
  -19.1590  -28.8902   23.2806 C   0  0  0  0  0  0
  -18.9497  -30.1489   23.8845 C   0  0  0  0  0  0
  -17.6491  -30.6597   24.0550 C   0  0  0  0  0  0
  -25.9109  -34.9337   23.4993 C   0  0  0  0  0  0
  -16.5381  -29.9082   23.6340 C   0  0  0  0  0  0
  -16.7309  -28.6500   23.0362 C   0  0  0  0  0  0
  -26.4568  -31.6523   25.0684 C   0  0  0  0  0  0
  -25.3681  -31.3794   26.1330 C   0  0  0  0  0  0
  -27.0474  -30.2883   24.6455 C   0  0  0  0  0  0
  -27.6056  -32.4339   25.7491 C   0  0  0  0  0  0
  -27.5569  -37.1758   24.8468 C   0  0  0  0  0  0
  -21.4353  -29.3036   22.3521 N   0  0  0  0  0  0
  -26.4281  -37.3693   23.9404 N   0  0  0  0  0  0
  -24.7570  -30.9795   22.0815 N   0  0  0  0  0  0
  -23.4216  -28.7988   23.3029 O   0  0  0  0  0  0
  -28.2138  -25.7511   20.3196 O   0  0  0  0  0  0
  -26.5723  -34.8882   22.4593 O   0  0  0  0  0  0
  -23.5729  -32.1179   23.6715 O   0  0  0  0  0  0
  -30.6453  -18.2918   20.9061 C   0  0  0  0  0  0
  -28.7791  -17.8959   19.6122 C   0  0  0  0  0  0
  -30.1032  -19.8653   21.2058 C   0  0  0  0  0  0
  -28.2197  -19.4786   19.9347 C   0  0  0  0  0  0
  -29.6970  -16.9741   20.6360 C   0  0  1  0  0  0
  -29.1779  -20.7979   20.2081 C   0  0  1  0  0  0
  -28.7407  -22.5375   20.6728 C   0  0  0  0  0  0
  -28.1249  -24.1139   19.9547 C   0  0  0  0  0  0
  -31.4595  -13.0385   19.2367 H   0  0  0  0  0  0
  -30.4921  -11.9502   20.1740 H   0  0  0  0  0  0
  -29.9441  -11.7747   17.7181 H   0  0  0  0  0  0
  -29.5759  -13.4818   17.6672 H   0  0  0  0  0  0
  -28.0607  -11.2869   19.1034 H   0  0  0  0  0  0
  -27.4347  -12.3367   17.8571 H   0  0  0  0  0  0
  -27.5162  -14.2486   19.3119 H   0  0  0  0  0  0
  -28.7999  -12.5734   21.5175 H   0  0  0  0  0  0
  -28.2487  -14.2252   21.6762 H   0  0  0  0  0  0
  -25.2775   -9.5692   22.4758 H   0  0  0  0  0  0
  -24.0013   -7.4647   22.7478 H   0  0  0  0  0  0
  -21.0853   -8.8779   19.8959 H   0  0  0  0  0  0
  -22.3713  -10.9672   19.6160 H   0  0  0  0  0  0
  -21.2013   -7.6150   23.9725 H   0  0  0  0  0  0
  -21.1487   -6.0520   25.9082 H   0  0  0  0  0  0
  -22.0594   -2.7612   23.2840 H   0  0  0  0  0  0
  -22.4025  -11.9842   22.4853 H   0  0  0  0  0  0
  -21.1024  -13.1203   22.2665 H   0  0  0  0  0  0
  -24.6344  -15.8537   20.5537 H   0  0  0  0  0  0
  -26.2570  -15.6509   20.1282 H   0  0  0  0  0  0
  -26.7401  -32.5083   23.0849 H   0  0  0  0  0  0
  -25.0072  -33.9448   25.0154 H   0  0  0  0  0  0
  -22.7999  -31.2589   21.3399 H   0  0  0  0  0  0
  -23.3771  -35.9511   23.3283 H   0  0  0  0  0  0
  -24.3570  -36.8868   22.2068 H   0  0  0  0  0  0
  -23.7243  -37.6368   23.6724 H   0  0  0  0  0  0
  -26.2403  -31.3443   20.6218 H   0  0  0  0  0  0
  -26.9132  -30.6670   22.0614 H   0  0  0  0  0  0
  -28.1407  -28.5423   21.3089 H   0  0  0  0  0  0
  -25.8797  -25.7067   18.9932 H   0  0  0  0  0  0
  -24.0185  -27.2554   18.9330 H   0  0  0  0  0  0
  -23.8864  -30.5032   19.3836 H   0  0  0  0  0  0
  -22.8365  -29.1929   19.8236 H   0  0  0  0  0  0
  -25.1344  -36.1741   25.0786 H   0  0  0  0  0  0
  -21.0038  -28.3365   24.1304 H   0  0  0  0  0  0
  -20.5679  -26.2374   23.3651 H   0  0  0  0  0  0
  -21.6668  -26.7400   22.1218 H   0  0  0  0  0  0
  -19.6941  -25.6265   21.1281 H   0  0  0  0  0  0
  -19.6723  -27.3149   20.6721 H   0  0  0  0  0  0
  -17.4234  -26.6678   21.4020 H   0  0  0  0  0  0
  -18.0352  -26.0093   22.9026 H   0  0  0  0  0  0
  -19.7975  -30.7315   24.2195 H   0  0  0  0  0  0
  -17.5044  -31.6271   24.5158 H   0  0  0  0  0  0
  -15.5379  -30.2966   23.7694 H   0  0  0  0  0  0
  -15.8709  -28.0799   22.7111 H   0  0  0  0  0  0
  -24.5879  -30.7128   25.7635 H   0  0  0  0  0  0
  -24.8851  -32.3002   26.4610 H   0  0  0  0  0  0
  -25.7895  -30.9052   27.0203 H   0  0  0  0  0  0
  -26.3153  -29.6543   24.1442 H   0  0  0  0  0  0
  -27.3969  -29.7267   25.5130 H   0  0  0  0  0  0
  -27.9109  -30.4053   23.9904 H   0  0  0  0  0  0
  -27.2625  -33.3689   26.1931 H   0  0  0  0  0  0
  -28.3940  -32.6818   25.0371 H   0  0  0  0  0  0
  -28.0644  -31.8552   26.5518 H   0  0  0  0  0  0
  -28.2575  -38.0065   24.7506 H   0  0  0  0  0  0
  -28.1076  -36.2588   24.6311 H   0  0  0  0  0  0
  -27.2281  -37.1418   25.8871 H   0  0  0  0  0  0
  -20.9617  -29.8713   21.6632 H   0  0  0  0  0  0
  -26.0123  -38.2752   24.1403 H   0  0  0  0  0  0
  -31.2989  -18.0256   21.7376 H   0  0  0  0  0  0
  -31.3279  -18.3607   20.0575 H   0  0  0  0  0  0
  -29.3123  -17.9390   18.6612 H   0  0  0  0  0  0
  -27.8953  -17.2989   19.3854 H   0  0  0  0  0  0
  -30.9956  -20.4538   21.4222 H   0  0  0  0  0  0
  -29.5828  -19.8258   22.1644 H   0  0  0  0  0  0
  -27.5449  -19.3966   20.7883 H   0  0  0  0  0  0
  -27.5623  -19.7482   19.1077 H   0  0  0  0  0  0
  -29.0966  -16.8249   21.5338 H   0  0  0  0  0  0
  -29.7639  -20.9216   19.2968 H   0  0  0  0  0  0
  -29.6970  -22.8738   21.0747 H   0  0  0  0  0  0
  -28.1297  -22.4165   21.5673 H   0  0  0  0  0  0
  -27.0593  -23.9353   19.8137 H   0  0  0  0  0  0
  -28.5209  -24.0985   18.9393 H   0  0  0  0  0  0
  1 25  1  0  0  0
  1 30  2  0  0  0
  1 75  1  0  0  0
  2  3  1  0  0  0
  2 25  1  0  0  0
  2 79  1  0  0  0
  2 80  1  0  0  0
  3  4  1  0  0  0
  3 81  1  0  0  0
  3 82  1  0  0  0
  4  5  1  0  0  0
  4 83  1  0  0  0
  4 84  1  0  0  0
  5  6  1  0  0  0
  5 26  1  0  0  0
  5 85  1  0  0  0
  6 25  1  0  0  0
  6 86  1  0  0  0
  6 87  1  0  0  0
  7  8  2  0  0  0
  7 26  1  0  0  0
  7 29  1  0  0  0
  8  9  1  0  0  0
  8 22  1  0  0  0
  9 10  1  0  0  0
  9 27  2  0  0  0
 10 11  2  0  0  0
 10 15  1  0  0  0
 11 12  1  0  0  0
 11 88  1  0  0  0
 12 13  2  0  0  0
 12 89  1  0  0  0
 13 14  1  0  0  0
 13 31  1  0  0  0
 14 15  2  0  0  0
 14 90  1  0  0  0
 15 91  1  0  0  0
 16 17  2  0  0  0
 16 21  1  0  0  0
 16 31  1  0  0  0
 17 18  1  0  0  0
 17 92  1  0  0  0
 18 19  2  0  0  0
 18 93  1  0  0  0
 19 20  1  0  0  0
 19 24  1  0  0  0
 20 21  2  0  0  0
 20 94  1  0  0  0
 21 23  1  0  0  0
 22 28  1  0  0  0
 22 32  2  0  0  0
 26 27  1  0  0  0
 28 95  1  0  0  0
 28 96  1  0  0  0
 29 97  1  0  0  0
 29 98  1  0  0  0
 33 34  1  0  0  0
 33 66  1  0  0  0
 33 70  2  0  0  0
 34 36  1  0  0  0
 34 59  1  0  0  0
 34 99  1  0  0  0
 35 44  2  0  0  0
 35 45  1  0  0  0
 35 68  1  0  0  0
 36 56  1  0  0  0
 36100  1  0  0  0
 37 39  1  0  0  0
 37 47  1  0  0  0
 37 66  1  0  0  0
 37101  1  0  0  0
 38 43  2  0  0  0
 38 46  1  0  0  0
 38 47  1  0  0  0
 39 64  1  0  0  0
 39 67  2  0  0  0
 40 52  1  0  0  0
 40 53  2  0  0  0
 40 58  1  0  0  0
 41102  1  0  0  0
 41103  1  0  0  0
 41104  1  0  0  0
 41 48  1  0  0  0
 42 43  1  0  0  0
 42 66  1  0  0  0
 42105  1  0  0  0
 42106  1  0  0  0
 43 44  1  0  0  0
 44107  1  0  0  0
 45 46  2  0  0  0
 45108  1  0  0  0
 46109  1  0  0  0
 47110  1  0  0  0
 47111  1  0  0  0
 48 56  1  0  0  0
 48 65  1  0  0  0
 48112  1  0  0  0
 49 50  1  0  0  0
 49 53  1  0  0  0
 49 64  1  0  0  0
 49113  1  0  0  0
 50 51  1  0  0  0
 50114  1  0  0  0
 50115  1  0  0  0
 51 52  1  0  0  0
 51116  1  0  0  0
 51117  1  0  0  0
 52118  1  0  0  0
 52119  1  0  0  0
 53 54  1  0  0  0
 54 55  2  0  0  0
 54120  1  0  0  0
 55 57  1  0  0  0
 55121  1  0  0  0
 56 69  2  0  0  0
 57 58  2  0  0  0
 57122  1  0  0  0
 58123  1  0  0  0
 59 60  1  0  0  0
 59 61  1  0  0  0
 59 62  1  0  0  0
 60124  1  0  0  0
 60125  1  0  0  0
 60126  1  0  0  0
 61127  1  0  0  0
 61128  1  0  0  0
 61129  1  0  0  0
 62130  1  0  0  0
 62131  1  0  0  0
 62132  1  0  0  0
 63 65  1  0  0  0
 63133  1  0  0  0
 63134  1  0  0  0
 63135  1  0  0  0
 64136  1  0  0  0
 65137  1  0  0  0
 68 78  1  0  0  0
 71 73  1  0  0  0
 71 75  1  0  0  0
 71138  1  0  0  0
 71139  1  0  0  0
 72 74  1  0  0  0
 72 75  1  0  0  0
 72140  1  0  0  0
 72141  1  0  0  0
 73 76  1  0  0  0
 73142  1  0  0  0
 73143  1  0  0  0
 74 76  1  0  0  0
 74144  1  0  0  0
 74145  1  0  0  0
 75146  1  0  0  0
 76 77  1  0  0  0
 76147  1  0  0  0
 77 78  1  0  0  0
 77148  1  0  0  0
 77149  1  0  0  0
 78150  1  0  0  0
 78151  1  0  0  0
M  ISO  4   1 100  68 101  75 100  78 101
M  END
> <chiral flag>
0

> <version>
0

> <s_m_source_file>
/data/baiqing/PycharmProjects/Reinvent-master-3.2/result/LINK_invent/BTK/process_docking_weight1_custom_sum_contain_oxygen_bond_distance_aromatic_linkinvent_7_9_3/rearranged_h_0042.sdf

> <i_m_source_file_index>
59

> <r_mmod_Potential_Energy-OPLS-2005>
1655.79968261719

> <r_mmod_Stretch_Energy-OPLS-2005>
685.425109863281

> <r_mmod_Bend_Energy-OPLS-2005>
575.054809570312

> <r_mmod_Torsional_Energy-OPLS-2005>
214.09765625

> <r_mmod_Improper_Torsional_Energy-OPLS-2005>
1.54801976680756

> <r_mmod_Van_der_Waal_Energy-OPLS-2005>
113.397636413574

> <r_mmod_Electrostatic_Energy-OPLS-2005>
-285.634582519531

> <r_mmod_Solvation_Energy-OPLS-2005>
-186.800857543945

> <b_mmod_Minimization_Converged-OPLS-2005>
0

> <r_mmod_RMS_Derivative-OPLS-2005>
0.912065446376801

$$$$
60
                    3D
 Structure written by MMmdl.
150158  0  0  1  0            999 V2000
  -30.5773  -14.7494   20.4982 C   0  0  0  0  0  0
  -30.4588  -12.4607   19.4655 C   0  0  0  0  0  0
  -29.5200  -12.5040   18.2356 C   0  0  0  0  0  0
  -28.0459  -12.3156   18.6514 C   0  0  0  0  0  0
  -27.6507  -13.2148   19.8517 C   0  0  2  0  0  0
  -28.6977  -13.1225   20.9835 C   0  0  0  0  0  0
  -25.2568  -13.8140   20.5717 C   0  0  0  0  0  0
  -24.1850  -13.0397   20.9180 C   0  0  0  0  0  0
  -24.6413  -11.6866   20.8718 C   0  0  0  0  0  0
  -23.9073  -10.4259   21.0346 C   0  0  0  0  0  0
  -24.3616   -9.4187   21.9150 C   0  0  0  0  0  0
  -23.6283   -8.2234   22.0727 C   0  0  0  0  0  0
  -22.4268   -8.0267   21.3515 C   0  0  0  0  0  0
  -21.9897   -9.0229   20.4625 C   0  0  0  0  0  0
  -22.7226  -10.2109   20.3022 C   0  0  0  0  0  0
  -21.6847   -6.0726   22.5270 C   0  0  0  0  0  0
  -21.3995   -6.5625   23.8204 C   0  0  0  0  0  0
  -21.3670   -5.6763   24.9171 C   0  0  0  0  0  0
  -21.6051   -4.3029   24.7209 C   0  0  0  0  0  0
  -21.8831   -3.8134   23.4320 C   0  0  0  0  0  0
  -21.9189   -4.6954   22.3381 C   0  0  0  0  0  0
  -22.7866  -13.5185   21.1840 C   0  0  0  0  0  0
  -22.1670   -4.2144   21.0951 F   0  0  0  0  0  0
  -21.5631   -3.4511   25.7723 F   0  0  0  0  0  0
  -30.0053  -13.4960   20.4239 N   0  0  0  0  0  0
  -26.2993  -12.9328   20.3289 N   0  0  0  0  0  0
  -25.9340  -11.6486   20.5726 N   0  0  0  0  0  0
  -22.0535  -12.8208   22.0414 N   0  0  0  0  0  0
  -25.4263  -15.1885   20.4197 N   0  0  0  0  0  0
  -31.7491  -14.9010   20.1359 O   0  0  0  0  0  0
  -21.6618   -6.8877   21.4231 O   0  0  0  0  0  0
  -22.3565  -14.5503   20.6679 O   0  0  0  0  0  0
  -24.6271  -31.8542   23.1997 C   0  0  0  0  0  0
  -25.9095  -32.4754   23.8337 C   0  0  1  0  0  0
  -27.2444  -27.2809   20.1722 C   0  0  0  0  0  0
  -25.5898  -33.8549   24.2260 N   0  0  0  0  0  0
  -23.4290  -30.4743   21.5383 C   0  0  2  0  0  0
  -24.8870  -28.9167   20.1180 C   0  0  0  0  0  0
  -22.7474  -29.4599   22.4872 C   0  0  0  0  0  0
  -18.0286  -28.1388   22.8463 C   0  0  0  0  0  0
  -24.1485  -36.7298   23.2644 C   0  0  0  0  0  0
  -25.9664  -30.7767   21.3773 C   0  0  0  0  0  0
  -26.0512  -29.3965   20.7315 C   0  0  0  0  0  0
  -27.2340  -28.5940   20.7433 C   0  0  0  0  0  0
  -26.0615  -26.8598   19.5245 C   0  0  0  0  0  0
  -24.8971  -27.6566   19.4982 C   0  0  0  0  0  0
  -23.6528  -29.7982   20.1581 C   0  0  0  0  0  0
  -25.4109  -36.3073   24.0336 C   0  0  1  0  0  0
  -20.5880  -28.3706   23.1232 C   0  0  2  0  0  0
  -20.6770  -26.9411   22.5401 C   0  0  0  0  0  0
  -19.5753  -26.6372   21.5200 C   0  0  0  0  0  0
  -18.1924  -26.7923   22.1606 C   0  0  0  0  0  0
  -19.1541  -28.8860   23.2839 C   0  0  0  0  0  0
  -18.9474  -30.1443   23.8873 C   0  0  0  0  0  0
  -17.6478  -30.6593   24.0548 C   0  0  0  0  0  0
  -25.9042  -34.9434   23.5101 C   0  0  0  0  0  0
  -16.5367  -29.9088   23.6318 C   0  0  0  0  0  0
  -16.7272  -28.6515   23.0334 C   0  0  0  0  0  0
  -26.4491  -31.6593   25.0717 C   0  0  0  0  0  0
  -25.3705  -31.3720   26.1427 C   0  0  0  0  0  0
  -27.0360  -30.3010   24.6216 C   0  0  0  0  0  0
  -27.6053  -32.4343   25.7470 C   0  0  0  0  0  0
  -27.5575  -37.1787   24.8459 C   0  0  0  0  0  0
  -21.4190  -29.3044   22.3606 N   0  0  0  0  0  0
  -26.4292  -37.3774   23.9415 N   0  0  0  0  0  0
  -24.6925  -31.0527   22.0963 N   0  0  0  0  0  0
  -23.4160  -28.8123   23.2958 O   0  0  0  0  0  0
  -28.3575  -26.4159   20.2103 O   0  0  0  0  0  0
  -26.5636  -34.8926   22.4685 O   0  0  0  0  0  0
  -23.5430  -32.1329   23.7321 O   0  0  0  0  0  0
  -31.2440  -18.0701   21.3473 C   0  0  0  0  0  0
  -30.0971  -19.6869   20.6032 C   0  0  0  0  0  0
  -29.8085  -21.1307   20.0323 C   0  0  0  0  0  0
  -29.6863  -16.0371   20.8821 C   0  0  0  0  0  0
  -28.9959  -22.3061   20.7859 C   0  0  0  0  0  0
  -29.1325  -23.8211   20.2051 C   0  0  0  0  0  0
  -28.1809  -25.0185   20.7252 C   0  0  0  0  0  0
  -31.2635  -19.4132   21.2743 N   0  0  0  0  0  0
  -29.3865  -18.5545   20.3389 N   0  0  0  0  0  0
  -30.1703  -17.4865   20.8051 N   0  0  0  0  0  0
  -31.4919  -12.6192   19.1520 H   0  0  0  0  0  0
  -30.4360  -11.4776   19.9352 H   0  0  0  0  0  0
  -29.8042  -11.7285   17.5240 H   0  0  0  0  0  0
  -29.6395  -13.4554   17.7160 H   0  0  0  0  0  0
  -27.9175  -11.2674   18.9256 H   0  0  0  0  0  0
  -27.3852  -12.4967   17.8027 H   0  0  0  0  0  0
  -27.6485  -14.2349   19.4727 H   0  0  0  0  0  0
  -28.7357  -12.1099   21.3891 H   0  0  0  0  0  0
  -28.4287  -13.7691   21.8210 H   0  0  0  0  0  0
  -25.2764   -9.5654   22.4717 H   0  0  0  0  0  0
  -23.9981   -7.4614   22.7443 H   0  0  0  0  0  0
  -21.0829   -8.8743   19.8931 H   0  0  0  0  0  0
  -22.3675  -10.9637   19.6136 H   0  0  0  0  0  0
  -21.1984   -7.6125   23.9716 H   0  0  0  0  0  0
  -21.1490   -6.0484   25.9075 H   0  0  0  0  0  0
  -22.0610   -2.7591   23.2810 H   0  0  0  0  0  0
  -22.4155  -11.9894   22.4862 H   0  0  0  0  0  0
  -21.1139  -13.1217   22.2593 H   0  0  0  0  0  0
  -24.6538  -15.8352   20.5333 H   0  0  0  0  0  0
  -26.2785  -15.6414   20.1131 H   0  0  0  0  0  0
  -26.7138  -32.5452   23.1072 H   0  0  0  0  0  0
  -24.9959  -33.9662   25.0343 H   0  0  0  0  0  0
  -22.7271  -31.2951   21.3833 H   0  0  0  0  0  0
  -23.3757  -35.9615   23.3307 H   0  0  0  0  0  0
  -24.3564  -36.8940   22.2055 H   0  0  0  0  0  0
  -23.7229  -37.6495   23.6680 H   0  0  0  0  0  0
  -26.0878  -31.5309   20.6003 H   0  0  0  0  0  0
  -26.8484  -30.8403   22.0018 H   0  0  0  0  0  0
  -28.1232  -28.9599   21.2399 H   0  0  0  0  0  0
  -26.0292  -25.8906   19.0473 H   0  0  0  0  0  0
  -24.0094  -27.2866   19.0056 H   0  0  0  0  0  0
  -23.7739  -30.5673   19.3938 H   0  0  0  0  0  0
  -22.7776  -29.2196   19.8560 H   0  0  0  0  0  0
  -25.1277  -36.1934   25.0828 H   0  0  0  0  0  0
  -20.9963  -28.3341   24.1362 H   0  0  0  0  0  0
  -20.5658  -26.2327   23.3627 H   0  0  0  0  0  0
  -21.6644  -26.7422   22.1200 H   0  0  0  0  0  0
  -19.6937  -25.6279   21.1240 H   0  0  0  0  0  0
  -19.6724  -27.3178   20.6721 H   0  0  0  0  0  0
  -17.4185  -26.6648   21.4012 H   0  0  0  0  0  0
  -18.0342  -26.0065   22.9007 H   0  0  0  0  0  0
  -19.7967  -30.7218   24.2278 H   0  0  0  0  0  0
  -17.5065  -31.6286   24.5142 H   0  0  0  0  0  0
  -15.5375  -30.2987   23.7700 H   0  0  0  0  0  0
  -15.8659  -28.0852   22.7044 H   0  0  0  0  0  0
  -24.5897  -30.7073   25.7727 H   0  0  0  0  0  0
  -24.8870  -32.2868   26.4844 H   0  0  0  0  0  0
  -25.7981  -30.8879   27.0213 H   0  0  0  0  0  0
  -26.2947  -29.6718   24.1271 H   0  0  0  0  0  0
  -27.4065  -29.7310   25.4754 H   0  0  0  0  0  0
  -27.8812  -30.4286   23.9449 H   0  0  0  0  0  0
  -27.2680  -33.3669   26.2004 H   0  0  0  0  0  0
  -28.3858  -32.6865   25.0281 H   0  0  0  0  0  0
  -28.0718  -31.8492   26.5408 H   0  0  0  0  0  0
  -28.2568  -38.0101   24.7509 H   0  0  0  0  0  0
  -28.1089  -36.2624   24.6277 H   0  0  0  0  0  0
  -27.2276  -37.1419   25.8855 H   0  0  0  0  0  0
  -20.9397  -29.8766   21.6802 H   0  0  0  0  0  0
  -26.0185  -38.2847   24.1459 H   0  0  0  0  0  0
  -32.0197  -17.5036   21.8455 H   0  0  0  0  0  0
  -29.3674  -21.0045   19.0434 H   0  0  0  0  0  0
  -30.7910  -21.5568   19.8269 H   0  0  0  0  0  0
  -28.7797  -15.9877   20.2834 H   0  0  0  0  0  0
  -29.3588  -15.8899   21.9112 H   0  0  0  0  0  0
  -29.2948  -22.3152   21.8351 H   0  0  0  0  0  0
  -27.9414  -22.0246   20.7912 H   0  0  0  0  0  0
  -29.0109  -23.7718   19.1216 H   0  0  0  0  0  0
  -30.1690  -24.1351   20.3590 H   0  0  0  0  0  0
  -28.3073  -25.0830   21.8093 H   0  0  0  0  0  0
  -27.1491  -24.6968   20.5955 H   0  0  0  0  0  0
  1 25  1  0  0  0
  1 30  2  0  0  0
  1 74  1  0  0  0
  2  3  1  0  0  0
  2 25  1  0  0  0
  2 81  1  0  0  0
  2 82  1  0  0  0
  3  4  1  0  0  0
  3 83  1  0  0  0
  3 84  1  0  0  0
  4  5  1  0  0  0
  4 85  1  0  0  0
  4 86  1  0  0  0
  5  6  1  0  0  0
  5 26  1  0  0  0
  5 87  1  0  0  0
  6 25  1  0  0  0
  6 88  1  0  0  0
  6 89  1  0  0  0
  7  8  2  0  0  0
  7 26  1  0  0  0
  7 29  1  0  0  0
  8  9  1  0  0  0
  8 22  1  0  0  0
  9 10  1  0  0  0
  9 27  2  0  0  0
 10 11  2  0  0  0
 10 15  1  0  0  0
 11 12  1  0  0  0
 11 90  1  0  0  0
 12 13  2  0  0  0
 12 91  1  0  0  0
 13 14  1  0  0  0
 13 31  1  0  0  0
 14 15  2  0  0  0
 14 92  1  0  0  0
 15 93  1  0  0  0
 16 17  2  0  0  0
 16 21  1  0  0  0
 16 31  1  0  0  0
 17 18  1  0  0  0
 17 94  1  0  0  0
 18 19  2  0  0  0
 18 95  1  0  0  0
 19 20  1  0  0  0
 19 24  1  0  0  0
 20 21  2  0  0  0
 20 96  1  0  0  0
 21 23  1  0  0  0
 22 28  1  0  0  0
 22 32  2  0  0  0
 26 27  1  0  0  0
 28 97  1  0  0  0
 28 98  1  0  0  0
 29 99  1  0  0  0
 29100  1  0  0  0
 33 34  1  0  0  0
 33 66  1  0  0  0
 33 70  2  0  0  0
 34 36  1  0  0  0
 34 59  1  0  0  0
 34101  1  0  0  0
 35 44  2  0  0  0
 35 45  1  0  0  0
 35 68  1  0  0  0
 36 56  1  0  0  0
 36102  1  0  0  0
 37 39  1  0  0  0
 37 47  1  0  0  0
 37 66  1  0  0  0
 37103  1  0  0  0
 38 43  2  0  0  0
 38 46  1  0  0  0
 38 47  1  0  0  0
 39 64  1  0  0  0
 39 67  2  0  0  0
 40 52  1  0  0  0
 40 53  2  0  0  0
 40 58  1  0  0  0
 41104  1  0  0  0
 41105  1  0  0  0
 41106  1  0  0  0
 41 48  1  0  0  0
 42 43  1  0  0  0
 42 66  1  0  0  0
 42107  1  0  0  0
 42108  1  0  0  0
 43 44  1  0  0  0
 44109  1  0  0  0
 45 46  2  0  0  0
 45110  1  0  0  0
 46111  1  0  0  0
 47112  1  0  0  0
 47113  1  0  0  0
 48 56  1  0  0  0
 48 65  1  0  0  0
 48114  1  0  0  0
 49 50  1  0  0  0
 49 53  1  0  0  0
 49 64  1  0  0  0
 49115  1  0  0  0
 50 51  1  0  0  0
 50116  1  0  0  0
 50117  1  0  0  0
 51 52  1  0  0  0
 51118  1  0  0  0
 51119  1  0  0  0
 52120  1  0  0  0
 52121  1  0  0  0
 53 54  1  0  0  0
 54 55  2  0  0  0
 54122  1  0  0  0
 55 57  1  0  0  0
 55123  1  0  0  0
 56 69  2  0  0  0
 57 58  2  0  0  0
 57124  1  0  0  0
 58125  1  0  0  0
 59 60  1  0  0  0
 59 61  1  0  0  0
 59 62  1  0  0  0
 60126  1  0  0  0
 60127  1  0  0  0
 60128  1  0  0  0
 61129  1  0  0  0
 61130  1  0  0  0
 61131  1  0  0  0
 62132  1  0  0  0
 62133  1  0  0  0
 62134  1  0  0  0
 63 65  1  0  0  0
 63135  1  0  0  0
 63136  1  0  0  0
 63137  1  0  0  0
 64138  1  0  0  0
 65139  1  0  0  0
 68 77  1  0  0  0
 71 78  2  0  0  0
 71 80  1  0  0  0
 71140  1  0  0  0
 72 73  1  0  0  0
 72 78  1  0  0  0
 72 79  2  0  0  0
 73 75  1  0  0  0
 73141  1  0  0  0
 73142  1  0  0  0
 74 80  1  0  0  0
 74143  1  0  0  0
 74144  1  0  0  0
 75 76  1  0  0  0
 75145  1  0  0  0
 75146  1  0  0  0
 76 77  1  0  0  0
 76147  1  0  0  0
 76148  1  0  0  0
 77149  1  0  0  0
 77150  1  0  0  0
 79 80  1  0  0  0
M  ISO  4   1 100  68 101  74 100  77 101
M  END
> <chiral flag>
0

> <version>
0

> <s_m_source_file>
/data/baiqing/PycharmProjects/Reinvent-master-3.2/result/LINK_invent/BTK/process_docking_weight1_custom_sum_contain_oxygen_bond_distance_aromatic_linkinvent_7_9_3/rearranged_h_0042.sdf

> <i_m_source_file_index>
60

> <r_mmod_Potential_Energy-OPLS-2005>
142.661819458008

> <r_mmod_Stretch_Energy-OPLS-2005>
120.796585083008

> <r_mmod_Bend_Energy-OPLS-2005>
170.889495849609

> <r_mmod_Torsional_Energy-OPLS-2005>
192.693206787109

> <r_mmod_Improper_Torsional_Energy-OPLS-2005>
5.57995700836182

> <r_mmod_Van_der_Waal_Energy-OPLS-2005>
111.604545593262

> <r_mmod_Electrostatic_Energy-OPLS-2005>
-319.043701171875

> <r_mmod_Solvation_Energy-OPLS-2005>
-219.812789916992

> <b_mmod_Minimization_Converged-OPLS-2005>
0

> <r_mmod_RMS_Derivative-OPLS-2005>
3.86326098442078

$$$$
61
                    3D
 Structure written by MMmdl.
154162  0  0  1  0            999 V2000
  -30.5738  -14.8071   20.4723 C   0  0  0  0  0  0
  -30.4445  -12.5056   19.4603 C   0  0  0  0  0  0
  -29.5124  -12.5126   18.2284 C   0  0  0  0  0  0
  -28.0412  -12.3203   18.6493 C   0  0  0  0  0  0
  -27.6368  -13.2293   19.8398 C   0  0  2  0  0  0
  -28.6838  -13.1822   20.9704 C   0  0  0  0  0  0
  -25.2504  -13.8181   20.5683 C   0  0  0  0  0  0
  -24.1798  -13.0433   20.9220 C   0  0  0  0  0  0
  -24.6391  -11.6909   20.8747 C   0  0  0  0  0  0
  -23.9066  -10.4291   21.0411 C   0  0  0  0  0  0
  -24.3621   -9.4206   21.9186 C   0  0  0  0  0  0
  -23.6297   -8.2238   22.0752 C   0  0  0  0  0  0
  -22.4278   -8.0280   21.3545 C   0  0  0  0  0  0
  -21.9914   -9.0250   20.4643 C   0  0  0  0  0  0
  -22.7243  -10.2131   20.3056 C   0  0  0  0  0  0
  -21.6852   -6.0735   22.5284 C   0  0  0  0  0  0
  -21.4010   -6.5642   23.8217 C   0  0  0  0  0  0
  -21.3658   -5.6795   24.9181 C   0  0  0  0  0  0
  -21.6044   -4.3055   24.7231 C   0  0  0  0  0  0
  -21.8818   -3.8150   23.4350 C   0  0  0  0  0  0
  -21.9193   -4.6964   22.3409 C   0  0  0  0  0  0
  -22.7825  -13.5214   21.1880 C   0  0  0  0  0  0
  -22.1663   -4.2153   21.0982 F   0  0  0  0  0  0
  -21.5629   -3.4538   25.7738 F   0  0  0  0  0  0
  -29.9703  -13.5683   20.3770 N   0  0  0  0  0  0
  -26.2915  -12.9378   20.3231 N   0  0  0  0  0  0
  -25.9316  -11.6527   20.5728 N   0  0  0  0  0  0
  -22.0463  -12.8201   22.0426 N   0  0  0  0  0  0
  -25.4174  -15.1907   20.4081 N   0  0  0  0  0  0
  -31.7830  -14.9121   20.2478 O   0  0  0  0  0  0
  -21.6639   -6.8880   21.4245 O   0  0  0  0  0  0
  -22.3512  -14.5527   20.6732 O   0  0  0  0  0  0
  -24.6350  -31.8525   23.1935 C   0  0  0  0  0  0
  -25.9157  -32.4739   23.8302 C   0  0  1  0  0  0
  -27.2204  -27.2183   20.1582 C   0  0  0  0  0  0
  -25.5948  -33.8542   24.2233 N   0  0  0  0  0  0
  -23.4338  -30.4724   21.5374 C   0  0  2  0  0  0
  -24.8820  -28.8985   20.1264 C   0  0  0  0  0  0
  -22.7516  -29.4597   22.4902 C   0  0  0  0  0  0
  -18.0295  -28.1396   22.8490 C   0  0  0  0  0  0
  -24.1488  -36.7263   23.2637 C   0  0  0  0  0  0
  -25.9818  -30.7515   21.3779 C   0  0  0  0  0  0
  -26.0552  -29.3621   20.7381 C   0  0  0  0  0  0
  -27.2306  -28.5362   20.7410 C   0  0  0  0  0  0
  -26.0256  -26.8247   19.5260 C   0  0  0  0  0  0
  -24.8725  -27.6368   19.5106 C   0  0  0  0  0  0
  -23.6571  -29.7954   20.1590 C   0  0  0  0  0  0
  -25.4112  -36.3051   24.0328 C   0  0  1  0  0  0
  -20.5904  -28.3698   23.1266 C   0  0  2  0  0  0
  -20.6791  -26.9416   22.5403 C   0  0  0  0  0  0
  -19.5757  -26.6393   21.5213 C   0  0  0  0  0  0
  -18.1936  -26.7946   22.1625 C   0  0  0  0  0  0
  -19.1552  -28.8865   23.2877 C   0  0  0  0  0  0
  -18.9473  -30.1473   23.8883 C   0  0  0  0  0  0
  -17.6470  -30.6595   24.0561 C   0  0  0  0  0  0
  -25.9066  -34.9430   23.5081 C   0  0  0  0  0  0
  -16.5362  -29.9088   23.6339 C   0  0  0  0  0  0
  -16.7282  -28.6511   23.0354 C   0  0  0  0  0  0
  -26.4516  -31.6567   25.0693 C   0  0  0  0  0  0
  -25.3733  -31.3736   26.1408 C   0  0  0  0  0  0
  -27.0364  -30.2985   24.6185 C   0  0  0  0  0  0
  -27.6072  -32.4304   25.7471 C   0  0  0  0  0  0
  -27.5577  -37.1781   24.8464 C   0  0  0  0  0  0
  -21.4219  -29.3048   22.3652 N   0  0  0  0  0  0
  -26.4275  -37.3760   23.9423 N   0  0  0  0  0  0
  -24.7029  -31.0463   22.0918 N   0  0  0  0  0  0
  -23.4199  -28.8147   23.3021 O   0  0  0  0  0  0
  -28.3175  -26.3298   20.0373 O   0  0  0  0  0  0
  -26.5623  -34.8915   22.4640 O   0  0  0  0  0  0
  -23.5495  -32.1356   23.7216 O   0  0  0  0  0  0
  -27.5907  -21.6158   21.5390 C   0  0  0  0  0  0
  -28.5637  -21.2834   20.6252 C   0  0  0  0  0  0
  -28.3621  -23.6259   20.8346 C   0  0  0  0  0  0
  -30.1005  -22.8327   19.2526 C   0  0  0  0  0  0
  -28.8403  -19.7975   20.0813 C   0  0  0  0  0  0
  -28.6051  -25.2102   21.0036 C   0  0  0  0  0  0
  -30.0749  -18.7969   20.4585 C   0  0  0  0  0  0
  -29.9938  -17.3385   21.2233 C   0  0  0  0  0  0
  -29.0308  -22.5747   20.2174 N   0  0  0  0  0  0
  -27.4883  -22.9873   21.6247 N   0  3  0  0  0  0
  -29.7588  -15.9334   20.6248 N   0  0  0  0  0  0
  -31.4775  -12.6686   19.1486 H   0  0  0  0  0  0
  -30.4275  -11.5343   19.9573 H   0  0  0  0  0  0
  -29.8070  -11.7304   17.5276 H   0  0  0  0  0  0
  -29.6194  -13.4579   17.6940 H   0  0  0  0  0  0
  -27.9147  -11.2736   18.9278 H   0  0  0  0  0  0
  -27.3785  -12.4903   17.7999 H   0  0  0  0  0  0
  -27.6223  -14.2458   19.4464 H   0  0  0  0  0  0
  -28.7430  -12.1841   21.4070 H   0  0  0  0  0  0
  -28.4076  -13.8559   21.7833 H   0  0  0  0  0  0
  -25.2768   -9.5679   22.4758 H   0  0  0  0  0  0
  -24.0010   -7.4624   22.7469 H   0  0  0  0  0  0
  -21.0850   -8.8771   19.8943 H   0  0  0  0  0  0
  -22.3711  -10.9667   19.6162 H   0  0  0  0  0  0
  -21.1999   -7.6149   23.9724 H   0  0  0  0  0  0
  -21.1478   -6.0521   25.9082 H   0  0  0  0  0  0
  -22.0597   -2.7612   23.2850 H   0  0  0  0  0  0
  -22.4082  -11.9865   22.4814 H   0  0  0  0  0  0
  -21.1074  -13.1210   22.2613 H   0  0  0  0  0  0
  -24.6434  -15.8381   20.5128 H   0  0  0  0  0  0
  -26.2525  -15.6318   20.0449 H   0  0  0  0  0  0
  -26.7217  -32.5384   23.1041 H   0  0  0  0  0  0
  -25.0142  -33.9670   25.0415 H   0  0  0  0  0  0
  -22.7321  -31.2951   21.3849 H   0  0  0  0  0  0
  -23.3760  -35.9583   23.3281 H   0  0  0  0  0  0
  -24.3593  -36.8890   22.2055 H   0  0  0  0  0  0
  -23.7230  -37.6455   23.6668 H   0  0  0  0  0  0
  -26.1188  -31.5001   20.5962 H   0  0  0  0  0  0
  -26.8612  -30.8137   22.0073 H   0  0  0  0  0  0
  -28.1389  -28.9012   21.1999 H   0  0  0  0  0  0
  -25.9837  -25.8607   19.0389 H   0  0  0  0  0  0
  -23.9763  -27.2754   19.0249 H   0  0  0  0  0  0
  -23.7889  -30.5657   19.3985 H   0  0  0  0  0  0
  -22.7736  -29.2325   19.8521 H   0  0  0  0  0  0
  -25.1300  -36.1874   25.0821 H   0  0  0  0  0  0
  -21.0008  -28.3273   24.1380 H   0  0  0  0  0  0
  -20.5696  -26.2308   23.3608 H   0  0  0  0  0  0
  -21.6658  -26.7450   22.1189 H   0  0  0  0  0  0
  -19.6909  -25.6303   21.1233 H   0  0  0  0  0  0
  -19.6685  -27.3213   20.6745 H   0  0  0  0  0  0
  -17.4213  -26.6694   21.4021 H   0  0  0  0  0  0
  -18.0330  -26.0090   22.9023 H   0  0  0  0  0  0
  -19.7945  -30.7307   24.2228 H   0  0  0  0  0  0
  -17.5017  -31.6265   24.5175 H   0  0  0  0  0  0
  -15.5359  -30.2981   23.7675 H   0  0  0  0  0  0
  -15.8686  -28.0827   22.7061 H   0  0  0  0  0  0
  -24.5912  -30.7077   25.7746 H   0  0  0  0  0  0
  -24.8927  -32.2921   26.4793 H   0  0  0  0  0  0
  -25.8055  -30.8945   27.0205 H   0  0  0  0  0  0
  -26.2954  -29.6724   24.1210 H   0  0  0  0  0  0
  -27.4050  -29.7247   25.4697 H   0  0  0  0  0  0
  -27.8826  -30.4258   23.9432 H   0  0  0  0  0  0
  -27.2691  -33.3632   26.1995 H   0  0  0  0  0  0
  -28.3922  -32.6804   25.0320 H   0  0  0  0  0  0
  -28.0690  -31.8443   26.5426 H   0  0  0  0  0  0
  -28.2574  -38.0101   24.7561 H   0  0  0  0  0  0
  -28.1095  -36.2640   24.6232 H   0  0  0  0  0  0
  -27.2311  -37.1355   25.8868 H   0  0  0  0  0  0
  -20.9403  -29.8757   21.6845 H   0  0  0  0  0  0
  -26.0142  -38.2819   24.1457 H   0  0  0  0  0  0
  -26.9365  -20.9709   22.1102 H   0  0  0  0  0  0
  -30.4966  -21.8892   18.8776 H   0  0  0  0  0  0
  -30.9002  -23.3905   19.7400 H   0  0  0  0  0  0
  -29.7028  -23.4130   18.4193 H   0  0  0  0  0  0
  -28.8413  -19.8829   18.9942 H   0  0  0  0  0  0
  -27.9317  -19.2304   20.2855 H   0  0  0  0  0  0
  -29.6708  -25.2804   21.2168 H   0  0  0  0  0  0
  -28.1199  -25.4708   21.9449 H   0  0  0  0  0  0
  -30.7416  -19.4082   21.0686 H   0  0  0  0  0  0
  -30.6528  -18.6387   19.5468 H   0  0  0  0  0  0
  -29.2585  -17.4459   22.0219 H   0  0  0  0  0  0
  -30.9403  -17.2403   21.7581 H   0  0  0  0  0  0
  -26.8526  -23.4611   22.2546 H   0  0  0  0  0  0
  -28.7821  -15.6833   20.5979 H   0  0  0  0  0  0
  1 25  1  0  0  0
  1 30  2  0  0  0
  1 81  1  0  0  0
  2  3  1  0  0  0
  2 25  1  0  0  0
  2 82  1  0  0  0
  2 83  1  0  0  0
  3  4  1  0  0  0
  3 84  1  0  0  0
  3 85  1  0  0  0
  4  5  1  0  0  0
  4 86  1  0  0  0
  4 87  1  0  0  0
  5  6  1  0  0  0
  5 26  1  0  0  0
  5 88  1  0  0  0
  6 25  1  0  0  0
  6 89  1  0  0  0
  6 90  1  0  0  0
  7  8  2  0  0  0
  7 26  1  0  0  0
  7 29  1  0  0  0
  8  9  1  0  0  0
  8 22  1  0  0  0
  9 10  1  0  0  0
  9 27  2  0  0  0
 10 11  2  0  0  0
 10 15  1  0  0  0
 11 12  1  0  0  0
 11 91  1  0  0  0
 12 13  2  0  0  0
 12 92  1  0  0  0
 13 14  1  0  0  0
 13 31  1  0  0  0
 14 15  2  0  0  0
 14 93  1  0  0  0
 15 94  1  0  0  0
 16 17  2  0  0  0
 16 21  1  0  0  0
 16 31  1  0  0  0
 17 18  1  0  0  0
 17 95  1  0  0  0
 18 19  2  0  0  0
 18 96  1  0  0  0
 19 20  1  0  0  0
 19 24  1  0  0  0
 20 21  2  0  0  0
 20 97  1  0  0  0
 21 23  1  0  0  0
 22 28  1  0  0  0
 22 32  2  0  0  0
 26 27  1  0  0  0
 28 98  1  0  0  0
 28 99  1  0  0  0
 29100  1  0  0  0
 29101  1  0  0  0
 33 34  1  0  0  0
 33 66  1  0  0  0
 33 70  2  0  0  0
 34 36  1  0  0  0
 34 59  1  0  0  0
 34102  1  0  0  0
 35 44  2  0  0  0
 35 45  1  0  0  0
 35 68  1  0  0  0
 36 56  1  0  0  0
 36103  1  0  0  0
 37 39  1  0  0  0
 37 47  1  0  0  0
 37 66  1  0  0  0
 37104  1  0  0  0
 38 43  2  0  0  0
 38 46  1  0  0  0
 38 47  1  0  0  0
 39 64  1  0  0  0
 39 67  2  0  0  0
 40 52  1  0  0  0
 40 53  2  0  0  0
 40 58  1  0  0  0
 41105  1  0  0  0
 41106  1  0  0  0
 41107  1  0  0  0
 41 48  1  0  0  0
 42 43  1  0  0  0
 42 66  1  0  0  0
 42108  1  0  0  0
 42109  1  0  0  0
 43 44  1  0  0  0
 44110  1  0  0  0
 45 46  2  0  0  0
 45111  1  0  0  0
 46112  1  0  0  0
 47113  1  0  0  0
 47114  1  0  0  0
 48 56  1  0  0  0
 48 65  1  0  0  0
 48115  1  0  0  0
 49 50  1  0  0  0
 49 53  1  0  0  0
 49 64  1  0  0  0
 49116  1  0  0  0
 50 51  1  0  0  0
 50117  1  0  0  0
 50118  1  0  0  0
 51 52  1  0  0  0
 51119  1  0  0  0
 51120  1  0  0  0
 52121  1  0  0  0
 52122  1  0  0  0
 53 54  1  0  0  0
 54 55  2  0  0  0
 54123  1  0  0  0
 55 57  1  0  0  0
 55124  1  0  0  0
 56 69  2  0  0  0
 57 58  2  0  0  0
 57125  1  0  0  0
 58126  1  0  0  0
 59 60  1  0  0  0
 59 61  1  0  0  0
 59 62  1  0  0  0
 60127  1  0  0  0
 60128  1  0  0  0
 60129  1  0  0  0
 61130  1  0  0  0
 61131  1  0  0  0
 61132  1  0  0  0
 62133  1  0  0  0
 62134  1  0  0  0
 62135  1  0  0  0
 63 65  1  0  0  0
 63136  1  0  0  0
 63137  1  0  0  0
 63138  1  0  0  0
 64139  1  0  0  0
 65140  1  0  0  0
 68 76  1  0  0  0
 71 72  2  0  0  0
 71 80  1  0  0  0
 71141  1  0  0  0
 72 75  1  0  0  0
 72 79  1  0  0  0
 73 76  1  0  0  0
 73 79  1  0  0  0
 73 80  2  0  0  0
 74 79  1  0  0  0
 74142  1  0  0  0
 74143  1  0  0  0
 74144  1  0  0  0
 75 77  1  0  0  0
 75145  1  0  0  0
 75146  1  0  0  0
 76147  1  0  0  0
 76148  1  0  0  0
 77 78  1  0  0  0
 77149  1  0  0  0
 77150  1  0  0  0
 78 81  1  0  0  0
 78151  1  0  0  0
 78152  1  0  0  0
 80153  1  0  0  0
 81154  1  0  0  0
M  CHG  1  80   1
M  ISO  4   1 100  68 101  76 101  81 100
M  END
> <chiral flag>
0

> <version>
0

> <s_m_source_file>
/data/baiqing/PycharmProjects/Reinvent-master-3.2/result/LINK_invent/BTK/process_docking_weight1_custom_sum_contain_oxygen_bond_distance_aromatic_linkinvent_7_9_3/rearranged_h_0042.sdf

> <i_m_source_file_index>
61

> <r_mmod_Potential_Energy-OPLS-2005>
264.552673339844

> <r_mmod_Stretch_Energy-OPLS-2005>
157.549728393555

> <r_mmod_Bend_Energy-OPLS-2005>
275.251312255859

> <r_mmod_Torsional_Energy-OPLS-2005>
273.840881347656

> <r_mmod_Improper_Torsional_Energy-OPLS-2005>
7.86288166046143

> <r_mmod_Van_der_Waal_Energy-OPLS-2005>
105.090240478516

> <r_mmod_Electrostatic_Energy-OPLS-2005>
-234.631805419922

> <r_mmod_Solvation_Energy-OPLS-2005>
-431.847229003906

> <b_mmod_Minimization_Converged-OPLS-2005>
0

> <r_mmod_RMS_Derivative-OPLS-2005>
1.29043292999268

$$$$
62
                    3D
 Structure written by MMmdl.
153161  0  0  1  0            999 V2000
  -30.6210  -14.7368   20.4681 C   0  0  0  0  0  0
  -30.4310  -12.4523   19.4745 C   0  0  0  0  0  0
  -29.5111  -12.5073   18.2363 C   0  0  0  0  0  0
  -28.0368  -12.3332   18.6502 C   0  0  0  0  0  0
  -27.6410  -13.2342   19.8502 C   0  0  2  0  0  0
  -28.6850  -13.1690   20.9858 C   0  0  0  0  0  0
  -25.2513  -13.8208   20.5709 C   0  0  0  0  0  0
  -24.1803  -13.0448   20.9213 C   0  0  0  0  0  0
  -24.6402  -11.6928   20.8756 C   0  0  0  0  0  0
  -23.9069  -10.4304   21.0411 C   0  0  0  0  0  0
  -24.3614   -9.4219   21.9186 C   0  0  0  0  0  0
  -23.6295   -8.2250   22.0751 C   0  0  0  0  0  0
  -22.4283   -8.0282   21.3538 C   0  0  0  0  0  0
  -21.9909   -9.0258   20.4646 C   0  0  0  0  0  0
  -22.7236  -10.2141   20.3064 C   0  0  0  0  0  0
  -21.6858   -6.0739   22.5278 C   0  0  0  0  0  0
  -21.4016   -6.5639   23.8212 C   0  0  0  0  0  0
  -21.3665   -5.6789   24.9173 C   0  0  0  0  0  0
  -21.6047   -4.3053   24.7218 C   0  0  0  0  0  0
  -21.8815   -3.8145   23.4339 C   0  0  0  0  0  0
  -21.9196   -4.6965   22.3400 C   0  0  0  0  0  0
  -22.7822  -13.5224   21.1865 C   0  0  0  0  0  0
  -22.1661   -4.2153   21.0976 F   0  0  0  0  0  0
  -21.5629   -3.4536   25.7727 F   0  0  0  0  0  0
  -29.9852  -13.5175   20.4012 N   0  0  0  0  0  0
  -26.2939  -12.9419   20.3290 N   0  0  0  0  0  0
  -25.9336  -11.6560   20.5757 N   0  0  0  0  0  0
  -22.0464  -12.8230   22.0429 N   0  0  0  0  0  0
  -25.4197  -15.1936   20.4142 N   0  0  0  0  0  0
  -31.8112  -14.8249   20.1578 O   0  0  0  0  0  0
  -21.6649   -6.8881   21.4241 O   0  0  0  0  0  0
  -22.3503  -14.5526   20.6699 O   0  0  0  0  0  0
  -24.6292  -31.8549   23.1986 C   0  0  0  0  0  0
  -25.9122  -32.4757   23.8328 C   0  0  1  0  0  0
  -27.2193  -27.2681   20.1381 C   0  0  0  0  0  0
  -25.5905  -33.8565   24.2245 N   0  0  0  0  0  0
  -23.4278  -30.4742   21.5418 C   0  0  2  0  0  0
  -24.8769  -28.9200   20.1136 C   0  0  0  0  0  0
  -22.7500  -29.4581   22.4928 C   0  0  0  0  0  0
  -18.0287  -28.1386   22.8488 C   0  0  0  0  0  0
  -24.1477  -36.7298   23.2643 C   0  0  0  0  0  0
  -25.9719  -30.7697   21.3788 C   0  0  0  0  0  0
  -26.0473  -29.3908   20.7256 C   0  0  0  0  0  0
  -27.2244  -28.5765   20.7277 C   0  0  0  0  0  0
  -26.0360  -26.8665   19.4884 C   0  0  0  0  0  0
  -24.8748  -27.6653   19.4842 C   0  0  0  0  0  0
  -23.6466  -29.8044   20.1594 C   0  0  0  0  0  0
  -25.4107  -36.3078   24.0320 C   0  0  1  0  0  0
  -20.5891  -28.3688   23.1276 C   0  0  2  0  0  0
  -20.6774  -26.9408   22.5410 C   0  0  0  0  0  0
  -19.5750  -26.6376   21.5210 C   0  0  0  0  0  0
  -18.1931  -26.7929   22.1622 C   0  0  0  0  0  0
  -19.1541  -28.8854   23.2872 C   0  0  0  0  0  0
  -18.9466  -30.1461   23.8886 C   0  0  0  0  0  0
  -17.6464  -30.6588   24.0563 C   0  0  0  0  0  0
  -25.9046  -34.9449   23.5089 C   0  0  0  0  0  0
  -16.5355  -29.9089   23.6330 C   0  0  0  0  0  0
  -16.7270  -28.6503   23.0354 C   0  0  0  0  0  0
  -26.4504  -31.6592   25.0716 C   0  0  0  0  0  0
  -25.3720  -31.3706   26.1420 C   0  0  0  0  0  0
  -27.0406  -30.3030   24.6205 C   0  0  0  0  0  0
  -27.6008  -32.4390   25.7508 C   0  0  0  0  0  0
  -27.5580  -37.1791   24.8455 C   0  0  0  0  0  0
  -21.4208  -29.3028   22.3668 N   0  0  0  0  0  0
  -26.4288  -37.3770   23.9405 N   0  0  0  0  0  0
  -24.6952  -31.0518   22.0961 N   0  0  0  0  0  0
  -23.4200  -28.8116   23.3025 O   0  0  0  0  0  0
  -28.2960  -26.3547   20.1495 O   0  0  0  0  0  0
  -26.5642  -34.8919   22.4673 O   0  0  0  0  0  0
  -23.5440  -32.1374   23.7283 O   0  0  0  0  0  0
  -28.2790  -22.9680   19.3024 C   0  0  0  0  0  0
  -29.2207  -22.6177   21.2059 C   0  0  0  0  0  0
  -28.6039  -23.6626   20.5123 C   0  0  0  0  0  0
  -26.9915  -25.0473   21.9092 C   0  0  0  0  0  0
  -29.3571  -18.6077   20.4971 C   0  0  0  0  0  0
  -29.9646  -20.0871   20.7744 C   0  0  0  0  0  0
  -30.3518  -17.3374   20.7180 C   0  0  0  0  0  0
  -28.2608  -25.1345   21.0355 C   0  0  2  0  0  0
  -28.6632  -21.6716   19.2765 N   0  0  0  0  0  0
  -29.2389  -21.4046   20.4768 N   0  0  0  0  0  0
  -29.8682  -15.8833   20.6830 N   0  0  0  0  0  0
  -31.4726  -12.5755   19.1738 H   0  0  0  0  0  0
  -30.3733  -11.4762   19.9596 H   0  0  0  0  0  0
  -29.7948  -11.7333   17.5223 H   0  0  0  0  0  0
  -29.6418  -13.4610   17.7216 H   0  0  0  0  0  0
  -27.8976  -11.2848   18.9169 H   0  0  0  0  0  0
  -27.3786  -12.5225   17.8010 H   0  0  0  0  0  0
  -27.6351  -14.2558   19.4682 H   0  0  0  0  0  0
  -28.7193  -12.1731   21.4296 H   0  0  0  0  0  0
  -28.4203  -13.8548   21.7920 H   0  0  0  0  0  0
  -25.2761   -9.5701   22.4753 H   0  0  0  0  0  0
  -24.0014   -7.4643   22.7467 H   0  0  0  0  0  0
  -21.0834   -8.8770   19.8956 H   0  0  0  0  0  0
  -22.3688  -10.9672   19.6165 H   0  0  0  0  0  0
  -21.2008   -7.6146   23.9717 H   0  0  0  0  0  0
  -21.1491   -6.0520   25.9079 H   0  0  0  0  0  0
  -22.0591   -2.7606   23.2835 H   0  0  0  0  0  0
  -22.4071  -11.9902   22.4846 H   0  0  0  0  0  0
  -21.1073  -13.1258   22.2600 H   0  0  0  0  0  0
  -24.6493  -15.8435   20.5273 H   0  0  0  0  0  0
  -26.2641  -15.6367   20.0759 H   0  0  0  0  0  0
  -26.7180  -32.5419   23.1067 H   0  0  0  0  0  0
  -25.0004  -33.9696   25.0357 H   0  0  0  0  0  0
  -22.7226  -31.2949   21.3944 H   0  0  0  0  0  0
  -23.3735  -35.9632   23.3299 H   0  0  0  0  0  0
  -24.3560  -36.8939   22.2058 H   0  0  0  0  0  0
  -23.7228  -37.6491   23.6680 H   0  0  0  0  0  0
  -26.1107  -31.5283   20.6071 H   0  0  0  0  0  0
  -26.8497  -30.8216   22.0121 H   0  0  0  0  0  0
  -28.1222  -28.9295   21.2160 H   0  0  0  0  0  0
  -25.9999  -25.8991   19.0084 H   0  0  0  0  0  0
  -23.9805  -27.3003   18.9981 H   0  0  0  0  0  0
  -23.7690  -30.5771   19.3995 H   0  0  0  0  0  0
  -22.7662  -29.2337   19.8559 H   0  0  0  0  0  0
  -25.1293  -36.1932   25.0814 H   0  0  0  0  0  0
  -20.9982  -28.3268   24.1395 H   0  0  0  0  0  0
  -20.5664  -26.2298   23.3617 H   0  0  0  0  0  0
  -21.6647  -26.7430   22.1210 H   0  0  0  0  0  0
  -19.6908  -25.6280   21.1250 H   0  0  0  0  0  0
  -19.6687  -27.3185   20.6741 H   0  0  0  0  0  0
  -17.4201  -26.6672   21.4026 H   0  0  0  0  0  0
  -18.0332  -26.0077   22.9022 H   0  0  0  0  0  0
  -19.7946  -30.7279   24.2244 H   0  0  0  0  0  0
  -17.5020  -31.6264   24.5179 H   0  0  0  0  0  0
  -15.5356  -30.2987   23.7656 H   0  0  0  0  0  0
  -15.8674  -28.0816   22.7075 H   0  0  0  0  0  0
  -24.6002  -30.6928   25.7762 H   0  0  0  0  0  0
  -24.8765  -32.2843   26.4713 H   0  0  0  0  0  0
  -25.8049  -30.9049   27.0276 H   0  0  0  0  0  0
  -27.8878  -30.4351   23.9465 H   0  0  0  0  0  0
  -27.4105  -29.7313   25.4725 H   0  0  0  0  0  0
  -26.3035  -29.6734   24.1207 H   0  0  0  0  0  0
  -27.2515  -33.3578   26.2231 H   0  0  0  0  0  0
  -28.3735  -32.7169   25.0328 H   0  0  0  0  0  0
  -28.0806  -31.8486   26.5318 H   0  0  0  0  0  0
  -28.2581  -38.0106   24.7533 H   0  0  0  0  0  0
  -28.1095  -36.2638   24.6246 H   0  0  0  0  0  0
  -27.2303  -37.1401   25.8859 H   0  0  0  0  0  0
  -20.9394  -29.8743   21.6870 H   0  0  0  0  0  0
  -26.0164  -38.2838   24.1434 H   0  0  0  0  0  0
  -27.7571  -23.3621   18.4410 H   0  0  0  0  0  0
  -29.6592  -22.6413   22.1938 H   0  0  0  0  0  0
  -26.7937  -25.9807   22.4380 H   0  0  0  0  0  0
  -27.0945  -24.2704   22.6670 H   0  0  0  0  0  0
  -26.1135  -24.7958   21.3154 H   0  0  0  0  0  0
  -28.9824  -18.5762   19.4736 H   0  0  0  0  0  0
  -28.4795  -18.4824   21.1325 H   0  0  0  0  0  0
  -30.9130  -20.1488   20.2416 H   0  0  0  0  0  0
  -30.2449  -20.1221   21.8287 H   0  0  0  0  0  0
  -31.1597  -17.4289   19.9898 H   0  0  0  0  0  0
  -30.8393  -17.4660   21.6851 H   0  0  0  0  0  0
  -29.0502  -25.3830   21.7462 H   0  0  0  0  0  0
  -28.8884  -15.7317   20.8701 H   0  0  0  0  0  0
  1 25  1  0  0  0
  1 30  2  0  0  0
  1 81  1  0  0  0
  2  3  1  0  0  0
  2 25  1  0  0  0
  2 82  1  0  0  0
  2 83  1  0  0  0
  3  4  1  0  0  0
  3 84  1  0  0  0
  3 85  1  0  0  0
  4  5  1  0  0  0
  4 86  1  0  0  0
  4 87  1  0  0  0
  5  6  1  0  0  0
  5 26  1  0  0  0
  5 88  1  0  0  0
  6 25  1  0  0  0
  6 89  1  0  0  0
  6 90  1  0  0  0
  7  8  2  0  0  0
  7 26  1  0  0  0
  7 29  1  0  0  0
  8  9  1  0  0  0
  8 22  1  0  0  0
  9 10  1  0  0  0
  9 27  2  0  0  0
 10 11  2  0  0  0
 10 15  1  0  0  0
 11 12  1  0  0  0
 11 91  1  0  0  0
 12 13  2  0  0  0
 12 92  1  0  0  0
 13 14  1  0  0  0
 13 31  1  0  0  0
 14 15  2  0  0  0
 14 93  1  0  0  0
 15 94  1  0  0  0
 16 17  2  0  0  0
 16 21  1  0  0  0
 16 31  1  0  0  0
 17 18  1  0  0  0
 17 95  1  0  0  0
 18 19  2  0  0  0
 18 96  1  0  0  0
 19 20  1  0  0  0
 19 24  1  0  0  0
 20 21  2  0  0  0
 20 97  1  0  0  0
 21 23  1  0  0  0
 22 28  1  0  0  0
 22 32  2  0  0  0
 26 27  1  0  0  0
 28 98  1  0  0  0
 28 99  1  0  0  0
 29100  1  0  0  0
 29101  1  0  0  0
 33 34  1  0  0  0
 33 66  1  0  0  0
 33 70  2  0  0  0
 34 36  1  0  0  0
 34 59  1  0  0  0
 34102  1  0  0  0
 35 44  2  0  0  0
 35 45  1  0  0  0
 35 68  1  0  0  0
 36 56  1  0  0  0
 36103  1  0  0  0
 37 39  1  0  0  0
 37 47  1  0  0  0
 37 66  1  0  0  0
 37104  1  0  0  0
 38 43  2  0  0  0
 38 46  1  0  0  0
 38 47  1  0  0  0
 39 64  1  0  0  0
 39 67  2  0  0  0
 40 52  1  0  0  0
 40 53  2  0  0  0
 40 58  1  0  0  0
 41105  1  0  0  0
 41106  1  0  0  0
 41107  1  0  0  0
 41 48  1  0  0  0
 42 43  1  0  0  0
 42 66  1  0  0  0
 42108  1  0  0  0
 42109  1  0  0  0
 43 44  1  0  0  0
 44110  1  0  0  0
 45 46  2  0  0  0
 45111  1  0  0  0
 46112  1  0  0  0
 47113  1  0  0  0
 47114  1  0  0  0
 48 56  1  0  0  0
 48 65  1  0  0  0
 48115  1  0  0  0
 49 50  1  0  0  0
 49 53  1  0  0  0
 49 64  1  0  0  0
 49116  1  0  0  0
 50 51  1  0  0  0
 50117  1  0  0  0
 50118  1  0  0  0
 51 52  1  0  0  0
 51119  1  0  0  0
 51120  1  0  0  0
 52121  1  0  0  0
 52122  1  0  0  0
 53 54  1  0  0  0
 54 55  2  0  0  0
 54123  1  0  0  0
 55 57  1  0  0  0
 55124  1  0  0  0
 56 69  2  0  0  0
 57 58  2  0  0  0
 57125  1  0  0  0
 58126  1  0  0  0
 59 60  1  0  0  0
 59 61  1  0  0  0
 59 62  1  0  0  0
 60127  1  0  0  0
 60128  1  0  0  0
 60129  1  0  0  0
 61130  1  0  0  0
 61131  1  0  0  0
 61132  1  0  0  0
 62133  1  0  0  0
 62134  1  0  0  0
 62135  1  0  0  0
 63 65  1  0  0  0
 63136  1  0  0  0
 63137  1  0  0  0
 63138  1  0  0  0
 64139  1  0  0  0
 65140  1  0  0  0
 68 78  1  0  0  0
 71 73  1  0  0  0
 71 79  2  0  0  0
 71141  1  0  0  0
 72 73  2  0  0  0
 72 80  1  0  0  0
 72142  1  0  0  0
 73 78  1  0  0  0
 74143  1  0  0  0
 74144  1  0  0  0
 74145  1  0  0  0
 74 78  1  0  0  0
 75 76  1  0  0  0
 75 77  1  0  0  0
 75146  1  0  0  0
 75147  1  0  0  0
 76 80  1  0  0  0
 76148  1  0  0  0
 76149  1  0  0  0
 77 81  1  0  0  0
 77150  1  0  0  0
 77151  1  0  0  0
 78152  1  0  0  0
 79 80  1  0  0  0
 81153  1  0  0  0
M  ISO  4   1 100  68 101  78 101  81 100
M  END
> <chiral flag>
0

> <version>
0

> <s_m_source_file>
/data/baiqing/PycharmProjects/Reinvent-master-3.2/result/LINK_invent/BTK/process_docking_weight1_custom_sum_contain_oxygen_bond_distance_aromatic_linkinvent_7_9_3/rearranged_h_0042.sdf

> <i_m_source_file_index>
62

> <r_mmod_Potential_Energy-OPLS-2005>
142.165832519531

> <r_mmod_Stretch_Energy-OPLS-2005>
120.517646789551

> <r_mmod_Bend_Energy-OPLS-2005>
178.215133666992

> <r_mmod_Torsional_Energy-OPLS-2005>
248.007415771484

> <r_mmod_Improper_Torsional_Energy-OPLS-2005>
5.85230731964111

> <r_mmod_Van_der_Waal_Energy-OPLS-2005>
113.634834289551

> <r_mmod_Electrostatic_Energy-OPLS-2005>
-381.437896728516

> <r_mmod_Solvation_Energy-OPLS-2005>
-226.013900756836

> <b_mmod_Minimization_Converged-OPLS-2005>
0

> <r_mmod_RMS_Derivative-OPLS-2005>
1.74112737178802

$$$$
63
                    3D
 Structure written by MMmdl.
159167  0  0  1  0            999 V2000
  -30.7203  -14.4956   20.5712 C   0  0  0  0  0  0
  -30.4154  -12.3242   19.4308 C   0  0  0  0  0  0
  -29.4925  -12.5061   18.2096 C   0  0  0  0  0  0
  -28.0143  -12.3690   18.6205 C   0  0  0  0  0  0
  -27.6576  -13.2180   19.8709 C   0  0  2  0  0  0
  -28.7011  -13.0317   20.9957 C   0  0  0  0  0  0
  -25.2571  -13.8184   20.5697 C   0  0  0  0  0  0
  -24.1825  -13.0452   20.9180 C   0  0  0  0  0  0
  -24.6393  -11.6923   20.8738 C   0  0  0  0  0  0
  -23.9054  -10.4300   21.0406 C   0  0  0  0  0  0
  -24.3605   -9.4215   21.9184 C   0  0  0  0  0  0
  -23.6286   -8.2243   22.0749 C   0  0  0  0  0  0
  -22.4272   -8.0267   21.3534 C   0  0  0  0  0  0
  -21.9897   -9.0242   20.4641 C   0  0  0  0  0  0
  -22.7225  -10.2128   20.3055 C   0  0  0  0  0  0
  -21.6851   -6.0722   22.5272 C   0  0  0  0  0  0
  -21.4025   -6.5632   23.8204 C   0  0  0  0  0  0
  -21.3661   -5.6788   24.9167 C   0  0  0  0  0  0
  -21.6039   -4.3050   24.7224 C   0  0  0  0  0  0
  -21.8824   -3.8137   23.4349 C   0  0  0  0  0  0
  -21.9201   -4.6950   22.3402 C   0  0  0  0  0  0
  -22.7844  -13.5239   21.1840 C   0  0  0  0  0  0
  -22.1661   -4.2133   21.0980 F   0  0  0  0  0  0
  -21.5624   -3.4538   25.7741 F   0  0  0  0  0  0
  -30.0275  -13.3297   20.4347 N   0  0  0  0  0  0
  -26.3013  -12.9377   20.3365 N   0  0  0  0  0  0
  -25.9328  -11.6527   20.5765 N   0  0  0  0  0  0
  -22.0476  -12.8239   22.0401 N   0  0  0  0  0  0
  -25.4307  -15.1895   20.4101 N   0  0  0  0  0  0
  -31.8508  -14.6463   20.1014 O   0  0  0  0  0  0
  -21.6634   -6.8865   21.4234 O   0  0  0  0  0  0
  -22.3532  -14.5533   20.6665 O   0  0  0  0  0  0
  -24.6177  -31.8662   23.2074 C   0  0  0  0  0  0
  -25.9056  -32.4809   23.8380 C   0  0  1  0  0  0
  -27.2262  -27.4006   20.1047 C   0  0  0  0  0  0
  -25.5907  -33.8609   24.2314 N   0  0  0  0  0  0
  -23.4067  -30.4926   21.5477 C   0  0  2  0  0  0
  -24.8525  -28.9602   20.1114 C   0  0  0  0  0  0
  -22.7427  -29.4663   22.4946 C   0  0  0  0  0  0
  -18.0277  -28.1376   22.8489 C   0  0  0  0  0  0
  -24.1493  -36.7311   23.2640 C   0  0  0  0  0  0
  -25.9403  -30.8250   21.3644 C   0  0  0  0  0  0
  -26.0167  -29.4588   20.7080 C   0  0  0  0  0  0
  -27.2092  -28.6909   20.6946 C   0  0  0  0  0  0
  -26.0410  -26.9318   19.4925 C   0  0  0  0  0  0
  -24.8624  -27.6990   19.4954 C   0  0  0  0  0  0
  -23.6173  -29.8309   20.1606 C   0  0  0  0  0  0
  -25.4116  -36.3099   24.0332 C   0  0  1  0  0  0
  -20.5872  -28.3674   23.1294 C   0  0  2  0  0  0
  -20.6767  -26.9404   22.5403 C   0  0  0  0  0  0
  -19.5743  -26.6383   21.5201 C   0  0  0  0  0  0
  -18.1928  -26.7919   22.1619 C   0  0  0  0  0  0
  -19.1528  -28.8835   23.2894 C   0  0  0  0  0  0
  -18.9455  -30.1436   23.8913 C   0  0  0  0  0  0
  -17.6458  -30.6579   24.0564 C   0  0  0  0  0  0
  -25.9040  -34.9466   23.5117 C   0  0  0  0  0  0
  -16.5351  -29.9083   23.6316 C   0  0  0  0  0  0
  -16.7266  -28.6497   23.0344 C   0  0  0  0  0  0
  -26.4480  -31.6586   25.0707 C   0  0  0  0  0  0
  -25.3755  -31.3690   26.1460 C   0  0  0  0  0  0
  -27.0294  -30.3020   24.6075 C   0  0  0  0  0  0
  -27.6053  -32.4308   25.7480 C   0  0  0  0  0  0
  -27.5586  -37.1809   24.8463 C   0  0  0  0  0  0
  -21.4150  -29.3046   22.3693 N   0  0  0  0  0  0
  -26.4297  -37.3787   23.9404 N   0  0  0  0  0  0
  -24.6729  -31.0760   22.0975 N   0  0  0  0  0  0
  -23.4191  -28.8196   23.2984 O   0  0  0  0  0  0
  -28.3737  -26.6205   20.1424 O   0  0  0  0  0  0
  -26.5600  -34.8918   22.4681 O   0  0  0  0  0  0
  -23.5357  -32.1421   23.7450 O   0  0  0  0  0  0
  -30.1942  -21.9119   20.6611 C   0  0  0  0  0  0
  -29.7194  -20.7639   21.2522 C   0  0  0  0  0  0
  -28.4440  -21.1782   21.7470 C   0  0  0  0  0  0
  -26.2027  -20.0288   21.6908 C   0  0  0  0  0  0
  -30.4696  -19.4403   21.4585 C   0  0  0  0  0  0
  -27.4347  -20.3834   22.5329 C   0  0  0  0  0  0
  -29.7845  -18.1014   21.0364 C   0  0  0  0  0  0
  -29.4537  -24.3852   20.5897 C   0  0  0  0  0  0
  -30.6552  -16.8643   21.4320 C   0  0  0  0  0  0
  -28.1778  -25.1814   20.1906 C   0  0  0  0  0  0
  -28.1982  -22.4663   21.5100 N   0  0  0  0  0  0
  -29.2797  -22.9390   20.8489 N   0  0  0  0  0  0
  -30.0702  -15.5310   21.1477 N   0  0  0  0  0  0
  -31.4609  -12.4108   19.1305 H   0  0  0  0  0  0
  -30.3066  -11.3209   19.8440 H   0  0  0  0  0  0
  -29.7354  -11.7705   17.4418 H   0  0  0  0  0  0
  -29.6616  -13.4858   17.7604 H   0  0  0  0  0  0
  -27.8255  -11.3142   18.8213 H   0  0  0  0  0  0
  -27.3656  -12.6394   17.7855 H   0  0  0  0  0  0
  -27.6925  -14.2629   19.5615 H   0  0  0  0  0  0
  -28.6840  -12.0068   21.3670 H   0  0  0  0  0  0
  -28.4617  -13.6597   21.8554 H   0  0  0  0  0  0
  -25.2751   -9.5694   22.4759 H   0  0  0  0  0  0
  -23.9996   -7.4637   22.7471 H   0  0  0  0  0  0
  -21.0819   -8.8758   19.8947 H   0  0  0  0  0  0
  -22.3676  -10.9658   19.6157 H   0  0  0  0  0  0
  -21.2022   -7.6143   23.9707 H   0  0  0  0  0  0
  -21.1475   -6.0517   25.9069 H   0  0  0  0  0  0
  -22.0606   -2.7598   23.2853 H   0  0  0  0  0  0
  -22.4073  -11.9907   22.4817 H   0  0  0  0  0  0
  -21.1079  -13.1248   22.2562 H   0  0  0  0  0  0
  -24.6711  -15.8516   20.5236 H   0  0  0  0  0  0
  -26.2886  -15.6233   20.0938 H   0  0  0  0  0  0
  -26.7133  -32.5504   23.1146 H   0  0  0  0  0  0
  -25.0064  -33.9773   25.0460 H   0  0  0  0  0  0
  -22.6962  -31.3099   21.4093 H   0  0  0  0  0  0
  -23.3744  -35.9655   23.3298 H   0  0  0  0  0  0
  -24.3592  -36.8916   22.2055 H   0  0  0  0  0  0
  -23.7249  -37.6518   23.6653 H   0  0  0  0  0  0
  -26.0607  -31.5928   20.5982 H   0  0  0  0  0  0
  -26.8268  -30.8731   21.9853 H   0  0  0  0  0  0
  -28.1073  -29.0753   21.1584 H   0  0  0  0  0  0
  -26.0028  -25.9699   19.0043 H   0  0  0  0  0  0
  -23.9702  -27.3109   19.0223 H   0  0  0  0  0  0
  -23.7309  -30.6088   19.4042 H   0  0  0  0  0  0
  -22.7395  -29.2556   19.8601 H   0  0  0  0  0  0
  -25.1292  -36.1971   25.0824 H   0  0  0  0  0  0
  -20.9980  -28.3242   24.1406 H   0  0  0  0  0  0
  -20.5644  -26.2293   23.3592 H   0  0  0  0  0  0
  -21.6643  -26.7421   22.1212 H   0  0  0  0  0  0
  -19.6896  -25.6292   21.1223 H   0  0  0  0  0  0
  -19.6678  -27.3204   20.6735 H   0  0  0  0  0  0
  -17.4192  -26.6661   21.4027 H   0  0  0  0  0  0
  -18.0335  -26.0061   22.9013 H   0  0  0  0  0  0
  -19.7931  -30.7241   24.2305 H   0  0  0  0  0  0
  -17.5013  -31.6261   24.5163 H   0  0  0  0  0  0
  -15.5349  -30.2995   23.7622 H   0  0  0  0  0  0
  -15.8668  -28.0817   22.7058 H   0  0  0  0  0  0
  -24.5941  -30.7018   25.7807 H   0  0  0  0  0  0
  -24.8951  -32.2844   26.4921 H   0  0  0  0  0  0
  -25.8136  -30.8861   27.0205 H   0  0  0  0  0  0
  -26.2817  -29.6792   24.1148 H   0  0  0  0  0  0
  -27.4076  -29.7240   25.4518 H   0  0  0  0  0  0
  -27.8655  -30.4319   23.9201 H   0  0  0  0  0  0
  -27.2666  -33.3604   26.2071 H   0  0  0  0  0  0
  -28.3871  -32.6872   25.0317 H   0  0  0  0  0  0
  -28.0710  -31.8420   26.5390 H   0  0  0  0  0  0
  -28.2603  -38.0107   24.7513 H   0  0  0  0  0  0
  -28.1078  -36.2635   24.6289 H   0  0  0  0  0  0
  -27.2296  -37.1461   25.8863 H   0  0  0  0  0  0
  -20.9291  -29.8818   21.6970 H   0  0  0  0  0  0
  -26.0174  -38.2855   24.1411 H   0  0  0  0  0  0
  -31.1473  -22.1027   20.1859 H   0  0  0  0  0  0
  -26.4792  -19.4422   20.8146 H   0  0  0  0  0  0
  -25.6971  -20.9314   21.3455 H   0  0  0  0  0  0
  -25.4875  -19.4461   22.2712 H   0  0  0  0  0  0
  -30.7302  -19.3548   22.5148 H   0  0  0  0  0  0
  -31.4341  -19.4908   20.9513 H   0  0  0  0  0  0
  -27.1185  -20.9489   23.4090 H   0  0  0  0  0  0
  -27.8860  -19.4739   22.9288 H   0  0  0  0  0  0
  -29.6113  -18.1054   19.9593 H   0  0  0  0  0  0
  -28.8068  -18.0141   21.5070 H   0  0  0  0  0  0
  -29.8763  -24.8216   21.4947 H   0  0  0  0  0  0
  -30.2111  -24.5034   19.8130 H   0  0  0  0  0  0
  -30.8555  -16.8948   22.5042 H   0  0  0  0  0  0
  -31.6327  -16.9667   20.9574 H   0  0  0  0  0  0
  -27.3846  -24.9621   20.9081 H   0  0  0  0  0  0
  -27.8429  -24.8163   19.2191 H   0  0  0  0  0  0
  -29.1371  -15.3479   21.4859 H   0  0  0  0  0  0
  1 25  1  0  0  0
  1 30  2  0  0  0
  1 83  1  0  0  0
  2  3  1  0  0  0
  2 25  1  0  0  0
  2 84  1  0  0  0
  2 85  1  0  0  0
  3  4  1  0  0  0
  3 86  1  0  0  0
  3 87  1  0  0  0
  4  5  1  0  0  0
  4 88  1  0  0  0
  4 89  1  0  0  0
  5  6  1  0  0  0
  5 26  1  0  0  0
  5 90  1  0  0  0
  6 25  1  0  0  0
  6 91  1  0  0  0
  6 92  1  0  0  0
  7  8  2  0  0  0
  7 26  1  0  0  0
  7 29  1  0  0  0
  8  9  1  0  0  0
  8 22  1  0  0  0
  9 10  1  0  0  0
  9 27  2  0  0  0
 10 11  2  0  0  0
 10 15  1  0  0  0
 11 12  1  0  0  0
 11 93  1  0  0  0
 12 13  2  0  0  0
 12 94  1  0  0  0
 13 14  1  0  0  0
 13 31  1  0  0  0
 14 15  2  0  0  0
 14 95  1  0  0  0
 15 96  1  0  0  0
 16 17  2  0  0  0
 16 21  1  0  0  0
 16 31  1  0  0  0
 17 18  1  0  0  0
 17 97  1  0  0  0
 18 19  2  0  0  0
 18 98  1  0  0  0
 19 20  1  0  0  0
 19 24  1  0  0  0
 20 21  2  0  0  0
 20 99  1  0  0  0
 21 23  1  0  0  0
 22 28  1  0  0  0
 22 32  2  0  0  0
 26 27  1  0  0  0
 28100  1  0  0  0
 28101  1  0  0  0
 29102  1  0  0  0
 29103  1  0  0  0
 33 34  1  0  0  0
 33 66  1  0  0  0
 33 70  2  0  0  0
 34 36  1  0  0  0
 34 59  1  0  0  0
 34104  1  0  0  0
 35 44  2  0  0  0
 35 45  1  0  0  0
 35 68  1  0  0  0
 36 56  1  0  0  0
 36105  1  0  0  0
 37 39  1  0  0  0
 37 47  1  0  0  0
 37 66  1  0  0  0
 37106  1  0  0  0
 38 43  2  0  0  0
 38 46  1  0  0  0
 38 47  1  0  0  0
 39 64  1  0  0  0
 39 67  2  0  0  0
 40 52  1  0  0  0
 40 53  2  0  0  0
 40 58  1  0  0  0
 41107  1  0  0  0
 41108  1  0  0  0
 41109  1  0  0  0
 41 48  1  0  0  0
 42 43  1  0  0  0
 42 66  1  0  0  0
 42110  1  0  0  0
 42111  1  0  0  0
 43 44  1  0  0  0
 44112  1  0  0  0
 45 46  2  0  0  0
 45113  1  0  0  0
 46114  1  0  0  0
 47115  1  0  0  0
 47116  1  0  0  0
 48 56  1  0  0  0
 48 65  1  0  0  0
 48117  1  0  0  0
 49 50  1  0  0  0
 49 53  1  0  0  0
 49 64  1  0  0  0
 49118  1  0  0  0
 50 51  1  0  0  0
 50119  1  0  0  0
 50120  1  0  0  0
 51 52  1  0  0  0
 51121  1  0  0  0
 51122  1  0  0  0
 52123  1  0  0  0
 52124  1  0  0  0
 53 54  1  0  0  0
 54 55  2  0  0  0
 54125  1  0  0  0
 55 57  1  0  0  0
 55126  1  0  0  0
 56 69  2  0  0  0
 57 58  2  0  0  0
 57127  1  0  0  0
 58128  1  0  0  0
 59 60  1  0  0  0
 59 61  1  0  0  0
 59 62  1  0  0  0
 60129  1  0  0  0
 60130  1  0  0  0
 60131  1  0  0  0
 61132  1  0  0  0
 61133  1  0  0  0
 61134  1  0  0  0
 62135  1  0  0  0
 62136  1  0  0  0
 62137  1  0  0  0
 63 65  1  0  0  0
 63138  1  0  0  0
 63139  1  0  0  0
 63140  1  0  0  0
 64141  1  0  0  0
 65142  1  0  0  0
 68 80  1  0  0  0
 71 72  2  0  0  0
 71 82  1  0  0  0
 71143  1  0  0  0
 72 73  1  0  0  0
 72 75  1  0  0  0
 73 76  1  0  0  0
 73 81  2  0  0  0
 74 76  1  0  0  0
 74144  1  0  0  0
 74145  1  0  0  0
 74146  1  0  0  0
 75 77  1  0  0  0
 75147  1  0  0  0
 75148  1  0  0  0
 76149  1  0  0  0
 76150  1  0  0  0
 77 79  1  0  0  0
 77151  1  0  0  0
 77152  1  0  0  0
 78 80  1  0  0  0
 78 82  1  0  0  0
 78153  1  0  0  0
 78154  1  0  0  0
 79 83  1  0  0  0
 79155  1  0  0  0
 79156  1  0  0  0
 80157  1  0  0  0
 80158  1  0  0  0
 81 82  1  0  0  0
 83159  1  0  0  0
M  ISO  4   1 100  68 101  80 101  83 100
M  END
> <chiral flag>
0

> <version>
0

> <s_m_source_file>
/data/baiqing/PycharmProjects/Reinvent-master-3.2/result/LINK_invent/BTK/process_docking_weight1_custom_sum_contain_oxygen_bond_distance_aromatic_linkinvent_7_9_3/rearranged_h_0042.sdf

> <i_m_source_file_index>
63

> <r_mmod_Potential_Energy-OPLS-2005>
-111.479598999023

> <r_mmod_Stretch_Energy-OPLS-2005>
43.5784645080566

> <r_mmod_Bend_Energy-OPLS-2005>
103.297554016113

> <r_mmod_Torsional_Energy-OPLS-2005>
199.919998168945

> <r_mmod_Improper_Torsional_Energy-OPLS-2005>
4.10083532333374

> <r_mmod_Van_der_Waal_Energy-OPLS-2005>
126.434173583984

> <r_mmod_Electrostatic_Energy-OPLS-2005>
-385.929840087891

> <r_mmod_Solvation_Energy-OPLS-2005>
-221.428207397461

> <b_mmod_Minimization_Converged-OPLS-2005>
0

> <r_mmod_RMS_Derivative-OPLS-2005>
1.8986394405365

$$$$
64
                    3D
 Structure written by MMmdl.
161169  0  0  1  0            999 V2000
  -30.7435  -14.3792   20.6446 C   0  0  0  0  0  0
  -30.4173  -12.2864   19.3858 C   0  0  0  0  0  0
  -29.4813  -12.5228   18.1850 C   0  0  0  0  0  0
  -28.0029  -12.3909   18.6026 C   0  0  0  0  0  0
  -27.6661  -13.2025   19.8815 C   0  0  2  0  0  0
  -28.7074  -12.9295   20.9881 C   0  0  0  0  0  0
  -25.2607  -13.8151   20.5689 C   0  0  0  0  0  0
  -24.1853  -13.0436   20.9175 C   0  0  0  0  0  0
  -24.6390  -11.6896   20.8712 C   0  0  0  0  0  0
  -23.9052  -10.4292   21.0393 C   0  0  0  0  0  0
  -24.3607   -9.4211   21.9173 C   0  0  0  0  0  0
  -23.6287   -8.2245   22.0753 C   0  0  0  0  0  0
  -22.4279   -8.0273   21.3533 C   0  0  0  0  0  0
  -21.9900   -9.0245   20.4639 C   0  0  0  0  0  0
  -22.7222  -10.2129   20.3046 C   0  0  0  0  0  0
  -21.6844   -6.0733   22.5281 C   0  0  0  0  0  0
  -21.4015   -6.5643   23.8213 C   0  0  0  0  0  0
  -21.3656   -5.6792   24.9174 C   0  0  0  0  0  0
  -21.6047   -4.3052   24.7225 C   0  0  0  0  0  0
  -21.8822   -3.8149   23.4342 C   0  0  0  0  0  0
  -21.9201   -4.6966   22.3402 C   0  0  0  0  0  0
  -22.7872  -13.5227   21.1823 C   0  0  0  0  0  0
  -22.1668   -4.2151   21.0971 F   0  0  0  0  0  0
  -21.5624   -3.4535   25.7735 F   0  0  0  0  0  0
  -30.0424  -13.2351   20.4435 N   0  0  0  0  0  0
  -26.3052  -12.9313   20.3404 N   0  0  0  0  0  0
  -25.9321  -11.6477   20.5768 N   0  0  0  0  0  0
  -22.0515  -12.8223   22.0379 N   0  0  0  0  0  0
  -25.4337  -15.1868   20.4115 N   0  0  0  0  0  0
  -31.8189  -14.6204   20.0912 O   0  0  0  0  0  0
  -21.6640   -6.8874   21.4240 O   0  0  0  0  0  0
  -22.3565  -14.5542   20.6676 O   0  0  0  0  0  0
  -24.6115  -31.8703   23.2124 C   0  0  0  0  0  0
  -25.9009  -32.4830   23.8401 C   0  0  1  0  0  0
  -27.2276  -27.4459   20.0859 C   0  0  0  0  0  0
  -25.5858  -33.8623   24.2306 N   0  0  0  0  0  0
  -23.4002  -30.4935   21.5519 C   0  0  2  0  0  0
  -24.8441  -28.9647   20.1125 C   0  0  0  0  0  0
  -22.7403  -29.4667   22.5006 C   0  0  0  0  0  0
  -18.0264  -28.1405   22.8500 C   0  0  0  0  0  0
  -24.1480  -36.7342   23.2633 C   0  0  0  0  0  0
  -25.9288  -30.8365   21.3674 C   0  0  0  0  0  0
  -26.0054  -29.4732   20.7113 C   0  0  0  0  0  0
  -27.2001  -28.7189   20.6969 C   0  0  0  0  0  0
  -26.0546  -26.9627   19.4609 C   0  0  0  0  0  0
  -24.8636  -27.7083   19.4866 C   0  0  0  0  0  0
  -23.6055  -29.8285   20.1667 C   0  0  0  0  0  0
  -25.4096  -36.3114   24.0328 C   0  0  1  0  0  0
  -20.5847  -28.3673   23.1343 C   0  0  2  0  0  0
  -20.6752  -26.9415   22.5437 C   0  0  0  0  0  0
  -19.5725  -26.6423   21.5237 C   0  0  0  0  0  0
  -18.1899  -26.7954   22.1641 C   0  0  0  0  0  0
  -19.1512  -28.8859   23.2909 C   0  0  0  0  0  0
  -18.9453  -30.1475   23.8912 C   0  0  0  0  0  0
  -17.6450  -30.6597   24.0597 C   0  0  0  0  0  0
  -25.9036  -34.9480   23.5129 C   0  0  0  0  0  0
  -16.5340  -29.9110   23.6350 C   0  0  0  0  0  0
  -16.7255  -28.6541   23.0343 C   0  0  0  0  0  0
  -26.4437  -31.6616   25.0740 C   0  0  0  0  0  0
  -25.3692  -31.3759   26.1485 C   0  0  0  0  0  0
  -27.0272  -30.3041   24.6159 C   0  0  0  0  0  0
  -27.6008  -32.4354   25.7492 C   0  0  0  0  0  0
  -27.5569  -37.1804   24.8457 C   0  0  0  0  0  0
  -21.4129  -29.3033   22.3744 N   0  0  0  0  0  0
  -26.4284  -37.3793   23.9409 N   0  0  0  0  0  0
  -24.6649  -31.0803   22.1027 N   0  0  0  0  0  0
  -23.4169  -28.8194   23.3038 O   0  0  0  0  0  0
  -28.3949  -26.7122   20.1044 O   0  0  0  0  0  0
  -26.5625  -34.8931   22.4712 O   0  0  0  0  0  0
  -23.5308  -32.1458   23.7515 O   0  0  0  0  0  0
  -29.3801  -21.9563   20.1920 C   0  0  0  0  0  0
  -28.6079  -21.0335   22.2838 C   0  0  0  0  0  0
  -28.8923  -22.1640   21.4962 C   0  0  0  0  0  0
  -29.5854  -20.6367   19.7441 C   0  0  0  0  0  0
  -29.2665  -19.5677   20.6134 C   0  0  0  0  0  0
  -30.1631  -20.4040   18.3572 C   0  0  0  0  0  0
  -28.6805  -23.5448   22.1081 C   0  0  0  0  0  0
  -29.4941  -18.1075   20.2458 C   0  0  0  0  0  0
  -29.2090  -24.7715   21.3254 C   0  0  0  0  0  0
  -30.8461  -17.5909   20.7774 C   0  0  0  0  0  0
  -30.7408  -16.5378   21.9018 C   0  0  0  0  0  0
  -28.2538  -25.2905   20.2357 C   0  0  0  0  0  0
  -28.7898  -19.7689   21.8579 N   0  0  0  0  0  0
  -30.1661  -15.2640   21.4693 N   0  0  0  0  0  0
  -31.4598  -12.3903   19.0767 H   0  0  0  0  0  0
  -30.3207  -11.2624   19.7502 H   0  0  0  0  0  0
  -29.7053  -11.8166   17.3843 H   0  0  0  0  0  0
  -29.6585  -13.5181   17.7737 H   0  0  0  0  0  0
  -27.7931  -11.3332   18.7652 H   0  0  0  0  0  0
  -27.3546  -12.7052   17.7827 H   0  0  0  0  0  0
  -27.7261  -14.2597   19.6198 H   0  0  0  0  0  0
  -28.6765  -11.8785   21.2795 H   0  0  0  0  0  0
  -28.4684  -13.4824   21.8969 H   0  0  0  0  0  0
  -25.2750   -9.5696   22.4742 H   0  0  0  0  0  0
  -23.9999   -7.4645   22.7473 H   0  0  0  0  0  0
  -21.0831   -8.8756   19.8938 H   0  0  0  0  0  0
  -22.3672  -10.9665   19.6159 H   0  0  0  0  0  0
  -21.2002   -7.6152   23.9712 H   0  0  0  0  0  0
  -21.1472   -6.0523   25.9072 H   0  0  0  0  0  0
  -22.0605   -2.7611   23.2844 H   0  0  0  0  0  0
  -22.4123  -11.9879   22.4766 H   0  0  0  0  0  0
  -21.1130  -13.1241   22.2572 H   0  0  0  0  0  0
  -24.6680  -15.8435   20.5211 H   0  0  0  0  0  0
  -26.2928  -15.6264   20.1054 H   0  0  0  0  0  0
  -26.7073  -32.5533   23.1149 H   0  0  0  0  0  0
  -24.9910  -33.9786   25.0376 H   0  0  0  0  0  0
  -22.6894  -31.3103   21.4116 H   0  0  0  0  0  0
  -23.3731  -35.9684   23.3309 H   0  0  0  0  0  0
  -24.3571  -36.8974   22.2048 H   0  0  0  0  0  0
  -23.7245  -37.6553   23.6662 H   0  0  0  0  0  0
  -26.0398  -31.6028   20.5989 H   0  0  0  0  0  0
  -26.8168  -30.8884   21.9863 H   0  0  0  0  0  0
  -28.0963  -29.0989   21.1683 H   0  0  0  0  0  0
  -26.0466  -26.0138   18.9442 H   0  0  0  0  0  0
  -23.9748  -27.3184   19.0091 H   0  0  0  0  0  0
  -23.7062  -30.6029   19.4056 H   0  0  0  0  0  0
  -22.7300  -29.2462   19.8764 H   0  0  0  0  0  0
  -25.1253  -36.1989   25.0815 H   0  0  0  0  0  0
  -20.9937  -28.3249   24.1465 H   0  0  0  0  0  0
  -20.5735  -26.2266   23.3612 H   0  0  0  0  0  0
  -21.6602  -26.7509   22.1167 H   0  0  0  0  0  0
  -19.6909  -25.6365   21.1208 H   0  0  0  0  0  0
  -19.6664  -27.3281   20.6806 H   0  0  0  0  0  0
  -17.4174  -26.6749   21.4031 H   0  0  0  0  0  0
  -18.0273  -26.0101   22.9038 H   0  0  0  0  0  0
  -19.7933  -30.7300   24.2267 H   0  0  0  0  0  0
  -17.5005  -31.6263   24.5220 H   0  0  0  0  0  0
  -15.5340  -30.3003   23.7691 H   0  0  0  0  0  0
  -15.8660  -28.0882   22.7016 H   0  0  0  0  0  0
  -24.5826  -30.7143   25.7836 H   0  0  0  0  0  0
  -24.8902  -32.2935   26.4924 H   0  0  0  0  0  0
  -25.8002  -30.8927   27.0260 H   0  0  0  0  0  0
  -26.2850  -29.6814   24.1140 H   0  0  0  0  0  0
  -27.3951  -29.7260   25.4651 H   0  0  0  0  0  0
  -27.8719  -30.4350   23.9381 H   0  0  0  0  0  0
  -27.2603  -33.3629   26.2104 H   0  0  0  0  0  0
  -28.3764  -32.6976   25.0284 H   0  0  0  0  0  0
  -28.0730  -31.8476   26.5371 H   0  0  0  0  0  0
  -28.2573  -38.0108   24.7482 H   0  0  0  0  0  0
  -28.1067  -36.2635   24.6283 H   0  0  0  0  0  0
  -27.2290  -37.1453   25.8861 H   0  0  0  0  0  0
  -20.9322  -29.8742   21.6936 H   0  0  0  0  0  0
  -26.0192  -38.2879   24.1409 H   0  0  0  0  0  0
  -29.6146  -22.7884   19.5451 H   0  0  0  0  0  0
  -28.2363  -21.1433   23.2915 H   0  0  0  0  0  0
  -30.5883  -21.3228   17.9509 H   0  0  0  0  0  0
  -29.3879  -20.0583   17.6717 H   0  0  0  0  0  0
  -30.9633  -19.6631   18.3809 H   0  0  0  0  0  0
  -29.1759  -23.5223   23.0791 H   0  0  0  0  0  0
  -27.6183  -23.6656   22.3317 H   0  0  0  0  0  0
  -29.4437  -17.9770   19.1656 H   0  0  0  0  0  0
  -28.6706  -17.5089   20.6373 H   0  0  0  0  0  0
  -30.2143  -24.6059   20.9387 H   0  0  0  0  0  0
  -29.3176  -25.5737   22.0574 H   0  0  0  0  0  0
  -31.4373  -18.4315   21.1436 H   0  0  0  0  0  0
  -31.4243  -17.1943   19.9439 H   0  0  0  0  0  0
  -30.1346  -16.9344   22.7173 H   0  0  0  0  0  0
  -31.7281  -16.3488   22.3268 H   0  0  0  0  0  0
  -27.2420  -25.0002   20.5215 H   0  0  0  0  0  0
  -28.4615  -24.8186   19.2750 H   0  0  0  0  0  0
  -29.2853  -14.9887   21.8793 H   0  0  0  0  0  0
  1 25  1  0  0  0
  1 30  2  0  0  0
  1 84  1  0  0  0
  2  3  1  0  0  0
  2 25  1  0  0  0
  2 85  1  0  0  0
  2 86  1  0  0  0
  3  4  1  0  0  0
  3 87  1  0  0  0
  3 88  1  0  0  0
  4  5  1  0  0  0
  4 89  1  0  0  0
  4 90  1  0  0  0
  5  6  1  0  0  0
  5 26  1  0  0  0
  5 91  1  0  0  0
  6 25  1  0  0  0
  6 92  1  0  0  0
  6 93  1  0  0  0
  7  8  2  0  0  0
  7 26  1  0  0  0
  7 29  1  0  0  0
  8  9  1  0  0  0
  8 22  1  0  0  0
  9 10  1  0  0  0
  9 27  2  0  0  0
 10 11  2  0  0  0
 10 15  1  0  0  0
 11 12  1  0  0  0
 11 94  1  0  0  0
 12 13  2  0  0  0
 12 95  1  0  0  0
 13 14  1  0  0  0
 13 31  1  0  0  0
 14 15  2  0  0  0
 14 96  1  0  0  0
 15 97  1  0  0  0
 16 17  2  0  0  0
 16 21  1  0  0  0
 16 31  1  0  0  0
 17 18  1  0  0  0
 17 98  1  0  0  0
 18 19  2  0  0  0
 18 99  1  0  0  0
 19 20  1  0  0  0
 19 24  1  0  0  0
 20 21  2  0  0  0
 20100  1  0  0  0
 21 23  1  0  0  0
 22 28  1  0  0  0
 22 32  2  0  0  0
 26 27  1  0  0  0
 28101  1  0  0  0
 28102  1  0  0  0
 29103  1  0  0  0
 29104  1  0  0  0
 33 34  1  0  0  0
 33 66  1  0  0  0
 33 70  2  0  0  0
 34 36  1  0  0  0
 34 59  1  0  0  0
 34105  1  0  0  0
 35 44  2  0  0  0
 35 45  1  0  0  0
 35 68  1  0  0  0
 36 56  1  0  0  0
 36106  1  0  0  0
 37 39  1  0  0  0
 37 47  1  0  0  0
 37 66  1  0  0  0
 37107  1  0  0  0
 38 43  2  0  0  0
 38 46  1  0  0  0
 38 47  1  0  0  0
 39 64  1  0  0  0
 39 67  2  0  0  0
 40 52  1  0  0  0
 40 53  2  0  0  0
 40 58  1  0  0  0
 41108  1  0  0  0
 41109  1  0  0  0
 41110  1  0  0  0
 41 48  1  0  0  0
 42 43  1  0  0  0
 42 66  1  0  0  0
 42111  1  0  0  0
 42112  1  0  0  0
 43 44  1  0  0  0
 44113  1  0  0  0
 45 46  2  0  0  0
 45114  1  0  0  0
 46115  1  0  0  0
 47116  1  0  0  0
 47117  1  0  0  0
 48 56  1  0  0  0
 48 65  1  0  0  0
 48118  1  0  0  0
 49 50  1  0  0  0
 49 53  1  0  0  0
 49 64  1  0  0  0
 49119  1  0  0  0
 50 51  1  0  0  0
 50120  1  0  0  0
 50121  1  0  0  0
 51 52  1  0  0  0
 51122  1  0  0  0
 51123  1  0  0  0
 52124  1  0  0  0
 52125  1  0  0  0
 53 54  1  0  0  0
 54 55  2  0  0  0
 54126  1  0  0  0
 55 57  1  0  0  0
 55127  1  0  0  0
 56 69  2  0  0  0
 57 58  2  0  0  0
 57128  1  0  0  0
 58129  1  0  0  0
 59 60  1  0  0  0
 59 61  1  0  0  0
 59 62  1  0  0  0
 60130  1  0  0  0
 60131  1  0  0  0
 60132  1  0  0  0
 61133  1  0  0  0
 61134  1  0  0  0
 61135  1  0  0  0
 62136  1  0  0  0
 62137  1  0  0  0
 62138  1  0  0  0
 63 65  1  0  0  0
 63139  1  0  0  0
 63140  1  0  0  0
 63141  1  0  0  0
 64142  1  0  0  0
 65143  1  0  0  0
 68 82  1  0  0  0
 71 73  2  0  0  0
 71 74  1  0  0  0
 71144  1  0  0  0
 72 73  1  0  0  0
 72 83  2  0  0  0
 72145  1  0  0  0
 73 77  1  0  0  0
 74 75  2  0  0  0
 74 76  1  0  0  0
 75 78  1  0  0  0
 75 83  1  0  0  0
 76146  1  0  0  0
 76147  1  0  0  0
 76148  1  0  0  0
 77 79  1  0  0  0
 77149  1  0  0  0
 77150  1  0  0  0
 78 80  1  0  0  0
 78151  1  0  0  0
 78152  1  0  0  0
 79 82  1  0  0  0
 79153  1  0  0  0
 79154  1  0  0  0
 80 81  1  0  0  0
 80155  1  0  0  0
 80156  1  0  0  0
 81 84  1  0  0  0
 81157  1  0  0  0
 81158  1  0  0  0
 82159  1  0  0  0
 82160  1  0  0  0
 84161  1  0  0  0
M  ISO  4   1 100  68 101  82 101  84 100
M  END
> <chiral flag>
0

> <version>
0

> <s_m_source_file>
/data/baiqing/PycharmProjects/Reinvent-master-3.2/result/LINK_invent/BTK/process_docking_weight1_custom_sum_contain_oxygen_bond_distance_aromatic_linkinvent_7_9_3/rearranged_h_0042.sdf

> <i_m_source_file_index>
64

> <r_mmod_Potential_Energy-OPLS-2005>
-228.244216918945

> <r_mmod_Stretch_Energy-OPLS-2005>
32.2723770141602

> <r_mmod_Bend_Energy-OPLS-2005>
94.9672393798828

> <r_mmod_Torsional_Energy-OPLS-2005>
215.859939575195

> <r_mmod_Improper_Torsional_Energy-OPLS-2005>
1.97423434257507

> <r_mmod_Van_der_Waal_Energy-OPLS-2005>
163.21044921875

> <r_mmod_Electrostatic_Energy-OPLS-2005>
-528.591247558594

> <r_mmod_Solvation_Energy-OPLS-2005>
-216.98876953125

> <b_mmod_Minimization_Converged-OPLS-2005>
0

> <r_mmod_RMS_Derivative-OPLS-2005>
2.41639304161072

$$$$
65
                    3D
 Structure written by MMmdl.
160168  0  0  1  0            999 V2000
  -30.6080  -14.9360   20.3854 C   0  0  0  0  0  0
  -30.4184  -12.5738   19.5077 C   0  0  0  0  0  0
  -29.5311  -12.4823   18.2392 C   0  0  0  0  0  0
  -28.0338  -12.7658   18.5157 C   0  0  0  0  0  0
  -27.7154  -12.7792   20.0156 C   0  0  2  0  0  0
  -28.6763  -13.4443   21.0008 C   0  0  0  0  0  0
  -25.3063  -13.7541   20.5547 C   0  0  0  0  0  0
  -24.1859  -13.0370   20.9082 C   0  0  0  0  0  0
  -24.5772  -11.6674   20.8832 C   0  0  0  0  0  0
  -23.8456  -10.4214   21.0548 C   0  0  0  0  0  0
  -24.3216   -9.4166   21.9251 C   0  0  0  0  0  0
  -23.6069   -8.2124   22.0742 C   0  0  0  0  0  0
  -22.4075   -8.0127   21.3516 C   0  0  0  0  0  0
  -21.9598   -9.0059   20.4632 C   0  0  0  0  0  0
  -22.6745  -10.2022   20.3098 C   0  0  0  0  0  0
  -21.6779   -6.0634   22.5281 C   0  0  0  0  0  0
  -21.3960   -6.5582   23.8203 C   0  0  0  0  0  0
  -21.3651   -5.6765   24.9188 C   0  0  0  0  0  0
  -21.6042   -4.3028   24.7259 C   0  0  0  0  0  0
  -21.8819   -3.8087   23.4393 C   0  0  0  0  0  0
  -21.9166   -4.6875   22.3430 C   0  0  0  0  0  0
  -22.8000  -13.5498   21.1763 C   0  0  0  0  0  0
  -22.1645   -4.2062   21.1010 F   0  0  0  0  0  0
  -21.5648   -3.4529   25.7787 F   0  0  0  0  0  0
  -29.9548  -13.7201   20.3376 N   0  0  0  0  0  0
  -26.3070  -12.7928   20.3795 N   0  0  0  0  0  0
  -25.8430  -11.5546   20.5947 N   0  0  0  0  0  0
  -22.0522  -12.8574   22.0312 N   0  0  0  0  0  0
  -25.5439  -15.1136   20.3720 N   0  0  0  0  0  0
  -31.8195  -14.9652   20.1593 O   0  0  0  0  0  0
  -21.6523   -6.8698   21.4205 O   0  0  0  0  0  0
  -22.3836  -14.5848   20.6594 O   0  0  0  0  0  0
  -24.6419  -31.8494   23.1948 C   0  0  0  0  0  0
  -25.9219  -32.4717   23.8315 C   0  0  1  0  0  0
  -27.2112  -27.1724   20.1243 C   0  0  0  0  0  0
  -25.5994  -33.8522   24.2237 N   0  0  0  0  0  0
  -23.4423  -30.4745   21.5387 C   0  0  2  0  0  0
  -24.8906  -28.9186   20.1048 C   0  0  0  0  0  0
  -22.7570  -29.4574   22.4858 C   0  0  0  0  0  0
  -18.0306  -28.1397   22.8493 C   0  0  0  0  0  0
  -24.1490  -36.7251   23.2638 C   0  0  0  0  0  0
  -25.9988  -30.7319   21.3932 C   0  0  0  0  0  0
  -26.0681  -29.3491   20.7289 C   0  0  0  0  0  0
  -27.2287  -28.4893   20.7319 C   0  0  0  0  0  0
  -26.0114  -26.8578   19.4412 C   0  0  0  0  0  0
  -24.8730  -27.6844   19.4466 C   0  0  0  0  0  0
  -23.6688  -29.8186   20.1525 C   0  0  0  0  0  0
  -25.4120  -36.3037   24.0319 C   0  0  1  0  0  0
  -20.5927  -28.3721   23.1244 C   0  0  2  0  0  0
  -20.6789  -26.9429   22.5404 C   0  0  0  0  0  0
  -19.5757  -26.6396   21.5215 C   0  0  0  0  0  0
  -18.1941  -26.7937   22.1635 C   0  0  0  0  0  0
  -19.1566  -28.8876   23.2864 C   0  0  0  0  0  0
  -18.9479  -30.1469   23.8897 C   0  0  0  0  0  0
  -17.6478  -30.6592   24.0565 C   0  0  0  0  0  0
  -25.9071  -34.9411   23.5065 C   0  0  0  0  0  0
  -16.5369  -29.9091   23.6332 C   0  0  0  0  0  0
  -16.7291  -28.6504   23.0363 C   0  0  0  0  0  0
  -26.4552  -31.6556   25.0731 C   0  0  0  0  0  0
  -25.3756  -31.3738   26.1440 C   0  0  0  0  0  0
  -27.0403  -30.2955   24.6272 C   0  0  0  0  0  0
  -27.6083  -32.4311   25.7523 C   0  0  0  0  0  0
  -27.5571  -37.1793   24.8472 C   0  0  0  0  0  0
  -21.4263  -29.3053   22.3621 N   0  0  0  0  0  0
  -26.4282  -37.3753   23.9412 N   0  0  0  0  0  0
  -24.7137  -31.0377   22.0978 N   0  0  0  0  0  0
  -23.4225  -28.8109   23.2986 O   0  0  0  0  0  0
  -28.2430  -26.1704   20.2091 O   0  0  0  0  0  0
  -26.5634  -34.8893   22.4629 O   0  0  0  0  0  0
  -23.5545  -32.1363   23.7184 O   0  0  0  0  0  0
  -29.8374  -21.3939   19.4251 C   0  0  0  0  0  0
  -29.1600  -20.4125   20.2132 C   0  0  0  0  0  0
  -28.2060  -21.0724   21.0501 C   0  0  0  0  0  0
  -28.6146  -23.2883   20.2142 C   0  0  0  0  0  0
  -25.8742  -20.4569   25.5774 C   0  0  0  0  0  0
  -29.2145  -18.7933   19.9353 C   0  0  0  0  0  0
  -27.2261  -20.2755   21.9025 C   0  0  0  0  0  0
  -27.8726  -24.7111   19.8622 C   0  0  0  0  0  0
  -26.1212  -19.9125   24.1672 C   0  0  0  0  0  0
  -27.0683  -20.7968   23.3401 C   0  0  0  0  0  0
  -30.1943  -17.6389   20.6031 C   0  0  0  0  0  0
  -29.5617  -22.7545   19.4131 N   0  0  0  0  0  0
  -27.9629  -22.4322   21.0290 N   0  0  0  0  0  0
  -29.8500  -16.1200   20.4829 N   0  0  0  0  0  0
  -31.4687  -12.6629   19.2259 H   0  0  0  0  0  0
  -30.3509  -11.6535   20.0910 H   0  0  0  0  0  0
  -29.6434  -11.4902   17.8013 H   0  0  0  0  0  0
  -29.8952  -13.1803   17.4835 H   0  0  0  0  0  0
  -27.4086  -12.0412   17.9918 H   0  0  0  0  0  0
  -27.7760  -13.7407   18.1021 H   0  0  0  0  0  0
  -28.0228  -11.7480   20.2156 H   0  0  0  0  0  0
  -28.8417  -12.8157   21.8775 H   0  0  0  0  0  0
  -28.2229  -14.3595   21.3826 H   0  0  0  0  0  0
  -25.2359   -9.5719   22.4808 H   0  0  0  0  0  0
  -23.9848   -7.4520   22.7426 H   0  0  0  0  0  0
  -21.0546   -8.8473   19.8941 H   0  0  0  0  0  0
  -22.3156  -10.9547   19.6213 H   0  0  0  0  0  0
  -21.1924   -7.6088   23.9677 H   0  0  0  0  0  0
  -21.1492   -6.0513   25.9091 H   0  0  0  0  0  0
  -22.0613   -2.7546   23.2928 H   0  0  0  0  0  0
  -22.4000  -12.0171   22.4692 H   0  0  0  0  0  0
  -21.1189  -13.1743   22.2531 H   0  0  0  0  0  0
  -24.8067  -15.8086   20.4227 H   0  0  0  0  0  0
  -26.4152  -15.4828   20.0148 H   0  0  0  0  0  0
  -26.7285  -32.5343   23.1040 H   0  0  0  0  0  0
  -25.0180  -33.9647   25.0411 H   0  0  0  0  0  0
  -22.7422  -31.2998   21.3924 H   0  0  0  0  0  0
  -23.3751  -35.9584   23.3294 H   0  0  0  0  0  0
  -24.3578  -36.8883   22.2054 H   0  0  0  0  0  0
  -23.7236  -37.6447   23.6665 H   0  0  0  0  0  0
  -26.1563  -31.4919   20.6267 H   0  0  0  0  0  0
  -26.8687  -30.7782   22.0368 H   0  0  0  0  0  0
  -28.1195  -28.8094   21.2534 H   0  0  0  0  0  0
  -25.8954  -25.9327   18.8990 H   0  0  0  0  0  0
  -23.9801  -27.3568   18.9312 H   0  0  0  0  0  0
  -23.8120  -30.6018   19.4075 H   0  0  0  0  0  0
  -22.7833  -29.2685   19.8311 H   0  0  0  0  0  0
  -25.1297  -36.1872   25.0812 H   0  0  0  0  0  0
  -21.0022  -28.3304   24.1365 H   0  0  0  0  0  0
  -20.5690  -26.2335   23.3623 H   0  0  0  0  0  0
  -21.6652  -26.7439   22.1201 H   0  0  0  0  0  0
  -19.6910  -25.6304   21.1253 H   0  0  0  0  0  0
  -19.6678  -27.3199   20.6736 H   0  0  0  0  0  0
  -17.4212  -26.6701   21.4034 H   0  0  0  0  0  0
  -18.0323  -26.0071   22.9021 H   0  0  0  0  0  0
  -19.7951  -30.7282   24.2274 H   0  0  0  0  0  0
  -17.5026  -31.6270   24.5169 H   0  0  0  0  0  0
  -15.5367  -30.2992   23.7639 H   0  0  0  0  0  0
  -15.8696  -28.0810   22.7091 H   0  0  0  0  0  0
  -24.5963  -30.7034   25.7797 H   0  0  0  0  0  0
  -24.8915  -32.2912   26.4797 H   0  0  0  0  0  0
  -25.8089  -30.8999   27.0255 H   0  0  0  0  0  0
  -26.3001  -29.6695   24.1282 H   0  0  0  0  0  0
  -27.4033  -29.7236   25.4819 H   0  0  0  0  0  0
  -27.8901  -30.4192   23.9558 H   0  0  0  0  0  0
  -27.2682  -33.3637   26.2029 H   0  0  0  0  0  0
  -28.3951  -32.6825   25.0399 H   0  0  0  0  0  0
  -28.0675  -31.8473   26.5511 H   0  0  0  0  0  0
  -28.2593  -38.0087   24.7508 H   0  0  0  0  0  0
  -28.1064  -36.2616   24.6308 H   0  0  0  0  0  0
  -27.2290  -37.1449   25.8877 H   0  0  0  0  0  0
  -20.9459  -29.8811   21.6857 H   0  0  0  0  0  0
  -26.0146  -38.2818   24.1430 H   0  0  0  0  0  0
  -30.5557  -21.0703   18.6865 H   0  0  0  0  0  0
  -25.1978  -19.8026   26.1302 H   0  0  0  0  0  0
  -25.4212  -21.4486   25.5444 H   0  0  0  0  0  0
  -26.8016  -20.5307   26.1457 H   0  0  0  0  0  0
  -28.1926  -18.4334   20.0507 H   0  0  0  0  0  0
  -29.3742  -18.7122   18.8594 H   0  0  0  0  0  0
  -27.5498  -19.2387   21.9666 H   0  0  0  0  0  0
  -26.2613  -20.2660   21.3939 H   0  0  0  0  0  0
  -26.8804  -24.5582   20.2869 H   0  0  0  0  0  0
  -27.7332  -24.6863   18.7812 H   0  0  0  0  0  0
  -25.1641  -19.8233   23.6509 H   0  0  0  0  0  0
  -26.5295  -18.9022   24.2319 H   0  0  0  0  0  0
  -26.6818  -21.8164   23.3156 H   0  0  0  0  0  0
  -28.0469  -20.8458   23.8192 H   0  0  0  0  0  0
  -31.2134  -17.7855   20.2399 H   0  0  0  0  0  0
  -30.2435  -17.8379   21.6740 H   0  0  0  0  0  0
  -28.8618  -15.9269   20.5515 H   0  0  0  0  0  0
  1 25  1  0  0  0
  1 30  2  0  0  0
  1 84  1  0  0  0
  2  3  1  0  0  0
  2 25  1  0  0  0
  2 85  1  0  0  0
  2 86  1  0  0  0
  3  4  1  0  0  0
  3 87  1  0  0  0
  3 88  1  0  0  0
  4  5  1  0  0  0
  4 89  1  0  0  0
  4 90  1  0  0  0
  5  6  1  0  0  0
  5 26  1  0  0  0
  5 91  1  0  0  0
  6 25  1  0  0  0
  6 92  1  0  0  0
  6 93  1  0  0  0
  7  8  2  0  0  0
  7 26  1  0  0  0
  7 29  1  0  0  0
  8  9  1  0  0  0
  8 22  1  0  0  0
  9 10  1  0  0  0
  9 27  2  0  0  0
 10 11  2  0  0  0
 10 15  1  0  0  0
 11 12  1  0  0  0
 11 94  1  0  0  0
 12 13  2  0  0  0
 12 95  1  0  0  0
 13 14  1  0  0  0
 13 31  1  0  0  0
 14 15  2  0  0  0
 14 96  1  0  0  0
 15 97  1  0  0  0
 16 17  2  0  0  0
 16 21  1  0  0  0
 16 31  1  0  0  0
 17 18  1  0  0  0
 17 98  1  0  0  0
 18 19  2  0  0  0
 18 99  1  0  0  0
 19 20  1  0  0  0
 19 24  1  0  0  0
 20 21  2  0  0  0
 20100  1  0  0  0
 21 23  1  0  0  0
 22 28  1  0  0  0
 22 32  2  0  0  0
 26 27  1  0  0  0
 28101  1  0  0  0
 28102  1  0  0  0
 29103  1  0  0  0
 29104  1  0  0  0
 33 34  1  0  0  0
 33 66  1  0  0  0
 33 70  2  0  0  0
 34 36  1  0  0  0
 34 59  1  0  0  0
 34105  1  0  0  0
 35 44  2  0  0  0
 35 45  1  0  0  0
 35 68  1  0  0  0
 36 56  1  0  0  0
 36106  1  0  0  0
 37 39  1  0  0  0
 37 47  1  0  0  0
 37 66  1  0  0  0
 37107  1  0  0  0
 38 43  2  0  0  0
 38 46  1  0  0  0
 38 47  1  0  0  0
 39 64  1  0  0  0
 39 67  2  0  0  0
 40 52  1  0  0  0
 40 53  2  0  0  0
 40 58  1  0  0  0
 41108  1  0  0  0
 41109  1  0  0  0
 41110  1  0  0  0
 41 48  1  0  0  0
 42 43  1  0  0  0
 42 66  1  0  0  0
 42111  1  0  0  0
 42112  1  0  0  0
 43 44  1  0  0  0
 44113  1  0  0  0
 45 46  2  0  0  0
 45114  1  0  0  0
 46115  1  0  0  0
 47116  1  0  0  0
 47117  1  0  0  0
 48 56  1  0  0  0
 48 65  1  0  0  0
 48118  1  0  0  0
 49 50  1  0  0  0
 49 53  1  0  0  0
 49 64  1  0  0  0
 49119  1  0  0  0
 50 51  1  0  0  0
 50120  1  0  0  0
 50121  1  0  0  0
 51 52  1  0  0  0
 51122  1  0  0  0
 51123  1  0  0  0
 52124  1  0  0  0
 52125  1  0  0  0
 53 54  1  0  0  0
 54 55  2  0  0  0
 54126  1  0  0  0
 55 57  1  0  0  0
 55127  1  0  0  0
 56 69  2  0  0  0
 57 58  2  0  0  0
 57128  1  0  0  0
 58129  1  0  0  0
 59 60  1  0  0  0
 59 61  1  0  0  0
 59 62  1  0  0  0
 60130  1  0  0  0
 60131  1  0  0  0
 60132  1  0  0  0
 61133  1  0  0  0
 61134  1  0  0  0
 61135  1  0  0  0
 62136  1  0  0  0
 62137  1  0  0  0
 62138  1  0  0  0
 63 65  1  0  0  0
 63139  1  0  0  0
 63140  1  0  0  0
 63141  1  0  0  0
 64142  1  0  0  0
 65143  1  0  0  0
 68 78  1  0  0  0
 71 72  2  0  0  0
 71 82  1  0  0  0
 71144  1  0  0  0
 72 73  1  0  0  0
 72 76  1  0  0  0
 73 77  1  0  0  0
 73 83  2  0  0  0
 74 78  1  0  0  0
 74 82  2  0  0  0
 74 83  1  0  0  0
 75 79  1  0  0  0
 75145  1  0  0  0
 75146  1  0  0  0
 75147  1  0  0  0
 76 81  1  0  0  0
 76148  1  0  0  0
 76149  1  0  0  0
 77 80  1  0  0  0
 77150  1  0  0  0
 77151  1  0  0  0
 78152  1  0  0  0
 78153  1  0  0  0
 79 80  1  0  0  0
 79154  1  0  0  0
 79155  1  0  0  0
 80156  1  0  0  0
 80157  1  0  0  0
 81 84  1  0  0  0
 81158  1  0  0  0
 81159  1  0  0  0
 84160  1  0  0  0
M  ISO  4   1 100  68 101  78 101  84 100
M  END
> <chiral flag>
0

> <version>
0

> <s_m_source_file>
/data/baiqing/PycharmProjects/Reinvent-master-3.2/result/LINK_invent/BTK/process_docking_weight1_custom_sum_contain_oxygen_bond_distance_aromatic_linkinvent_7_9_3/rearranged_h_0042.sdf

> <i_m_source_file_index>
65

> <r_mmod_Potential_Energy-OPLS-2005>
156.727020263672

> <r_mmod_Stretch_Energy-OPLS-2005>
189.779510498047

> <r_mmod_Bend_Energy-OPLS-2005>
283.31787109375

> <r_mmod_Torsional_Energy-OPLS-2005>
240.754608154297

> <r_mmod_Improper_Torsional_Energy-OPLS-2005>
12.0854530334473

> <r_mmod_Van_der_Waal_Energy-OPLS-2005>
158.100387573242

> <r_mmod_Electrostatic_Energy-OPLS-2005>
-730.502136230469

> <r_mmod_Solvation_Energy-OPLS-2005>
-235.13703918457

> <b_mmod_Minimization_Converged-OPLS-2005>
0

> <r_mmod_RMS_Derivative-OPLS-2005>
1.57512867450714

$$$$
66
                    3D
 Structure written by MMmdl.
169177  0  0  1  0            999 V2000
  -30.7116  -14.4004   20.6285 C   0  0  0  0  0  0
  -30.4161  -12.2791   19.4195 C   0  0  0  0  0  0
  -29.5047  -12.5301   18.2019 C   0  0  0  0  0  0
  -28.0204  -12.4037   18.5981 C   0  0  0  0  0  0
  -27.6707  -13.2116   19.8786 C   0  0  2  0  0  0
  -28.6942  -12.9399   21.0025 C   0  0  0  0  0  0
  -25.2583  -13.8178   20.5593 C   0  0  0  0  0  0
  -24.1838  -13.0441   20.9072 C   0  0  0  0  0  0
  -24.6431  -11.6927   20.8624 C   0  0  0  0  0  0
  -23.9126  -10.4335   21.0333 C   0  0  0  0  0  0
  -24.3702   -9.4246   21.9128 C   0  0  0  0  0  0
  -23.6371   -8.2272   22.0730 C   0  0  0  0  0  0
  -22.4366   -8.0331   21.3516 C   0  0  0  0  0  0
  -21.9996   -9.0298   20.4637 C   0  0  0  0  0  0
  -22.7317  -10.2162   20.2985 C   0  0  0  0  0  0
  -21.6888   -6.0768   22.5276 C   0  0  0  0  0  0
  -21.4032   -6.5656   23.8210 C   0  0  0  0  0  0
  -21.3611   -5.6818   24.9145 C   0  0  0  0  0  0
  -21.6012   -4.3080   24.7208 C   0  0  0  0  0  0
  -21.8823   -3.8158   23.4331 C   0  0  0  0  0  0
  -21.9216   -4.6985   22.3409 C   0  0  0  0  0  0
  -22.7877  -13.5205   21.1745 C   0  0  0  0  0  0
  -22.1664   -4.2175   21.0978 F   0  0  0  0  0  0
  -21.5617   -3.4564   25.7693 F   0  0  0  0  0  0
  -30.0420  -13.2274   20.4817 N   0  0  0  0  0  0
  -26.3040  -12.9396   20.3276 N   0  0  0  0  0  0
  -25.9336  -11.6555   20.5613 N   0  0  0  0  0  0
  -22.0581  -12.8206   22.0375 N   0  0  0  0  0  0
  -25.4325  -15.1894   20.4018 N   0  0  0  0  0  0
  -31.7966  -14.6234   20.0775 O   0  0  0  0  0  0
  -21.6691   -6.8932   21.4260 O   0  0  0  0  0  0
  -22.3501  -14.5497   20.6601 O   0  0  0  0  0  0
  -24.6088  -31.8699   23.2094 C   0  0  0  0  0  0
  -25.9004  -32.4827   23.8389 C   0  0  1  0  0  0
  -27.2507  -27.4573   20.1169 C   0  0  0  0  0  0
  -25.5887  -33.8632   24.2341 N   0  0  0  0  0  0
  -23.3991  -30.4906   21.5476 C   0  0  2  0  0  0
  -24.8537  -28.9481   20.1231 C   0  0  0  0  0  0
  -22.7386  -29.4687   22.4991 C   0  0  0  0  0  0
  -18.0265  -28.1392   22.8485 C   0  0  0  0  0  0
  -24.1493  -36.7302   23.2637 C   0  0  0  0  0  0
  -25.9192  -30.8430   21.3562 C   0  0  0  0  0  0
  -26.0043  -29.4709   20.7249 C   0  0  0  0  0  0
  -27.2048  -28.7270   20.7322 C   0  0  0  0  0  0
  -26.0907  -26.9423   19.5028 C   0  0  0  0  0  0
  -24.8852  -27.6765   19.5177 C   0  0  0  0  0  0
  -23.6097  -29.8098   20.1658 C   0  0  0  0  0  0
  -25.4112  -36.3115   24.0341 C   0  0  1  0  0  0
  -20.5862  -28.3664   23.1327 C   0  0  2  0  0  0
  -20.6772  -26.9404   22.5427 C   0  0  0  0  0  0
  -19.5765  -26.6399   21.5206 C   0  0  0  0  0  0
  -18.1930  -26.7942   22.1605 C   0  0  0  0  0  0
  -19.1522  -28.8834   23.2907 C   0  0  0  0  0  0
  -18.9450  -30.1447   23.8912 C   0  0  0  0  0  0
  -17.6466  -30.6601   24.0558 C   0  0  0  0  0  0
  -25.9040  -34.9474   23.5140 C   0  0  0  0  0  0
  -16.5347  -29.9118   23.6328 C   0  0  0  0  0  0
  -16.7260  -28.6531   23.0336 C   0  0  0  0  0  0
  -26.4453  -31.6598   25.0687 C   0  0  0  0  0  0
  -25.3749  -31.3705   26.1457 C   0  0  0  0  0  0
  -27.0260  -30.3056   24.5990 C   0  0  0  0  0  0
  -27.6047  -32.4297   25.7436 C   0  0  0  0  0  0
  -27.5601  -37.1780   24.8450 C   0  0  0  0  0  0
  -21.4114  -29.3038   22.3716 N   0  0  0  0  0  0
  -26.4278  -37.3819   23.9448 N   0  0  0  0  0  0
  -24.6617  -31.0824   22.0967 N   0  0  0  0  0  0
  -23.4154  -28.8246   23.3045 O   0  0  0  0  0  0
  -28.4149  -26.7287   20.0787 O   0  0  0  0  0  0
  -26.5582  -34.8931   22.4689 O   0  0  0  0  0  0
  -23.5292  -32.1393   23.7503 O   0  0  0  0  0  0
  -30.4644  -22.7061   21.2692 C   0  0  0  0  0  0
  -30.3957  -23.7035   20.3281 C   0  0  0  0  0  0
  -29.1272  -22.0065   19.6440 C   0  0  0  0  0  0
  -26.0986  -22.0353   20.2470 C   0  0  0  0  0  0
  -30.9250  -25.1012   20.2890 C   0  0  0  0  0  0
  -28.0844  -21.3092   18.8340 C   0  0  0  0  0  0
  -26.7707  -22.1073   18.8703 C   0  0  0  0  0  0
  -30.3232  -25.9524   21.4242 C   0  0  0  0  0  0
  -30.1668  -19.2481   21.0879 C   0  0  0  0  0  0
  -29.8250  -17.8926   21.7579 C   0  0  0  0  0  0
  -29.3389  -20.4482   21.5819 C   0  0  0  0  0  0
  -30.0476  -16.7560   20.7381 C   0  0  0  0  0  0
  -28.7984  -26.1611   21.3325 C   0  0  0  0  0  0
  -29.6537  -21.6833   20.8399 N   0  0  0  0  0  0
  -29.6036  -23.2156   19.3293 N   0  3  0  0  0  0
  -30.0343  -15.3805   21.2532 N   0  0  0  0  0  0
  -31.4645  -12.3693   19.1321 H   0  0  0  0  0  0
  -30.3004  -11.2490   19.7635 H   0  0  0  0  0  0
  -29.7514  -11.8395   17.3917 H   0  0  0  0  0  0
  -29.6868  -13.5270   17.8027 H   0  0  0  0  0  0
  -27.8120  -11.3477   18.7580 H   0  0  0  0  0  0
  -27.3857  -12.7125   17.7666 H   0  0  0  0  0  0
  -27.7401  -14.2701   19.6232 H   0  0  0  0  0  0
  -28.6391  -11.8944   21.3106 H   0  0  0  0  0  0
  -28.4503  -13.5180   21.8945 H   0  0  0  0  0  0
  -25.2885   -9.5697   22.4607 H   0  0  0  0  0  0
  -24.0079   -7.4695   22.7468 H   0  0  0  0  0  0
  -21.0920   -8.8813   19.8995 H   0  0  0  0  0  0
  -22.3796  -10.9665   19.6050 H   0  0  0  0  0  0
  -21.2084   -7.6172   23.9715 H   0  0  0  0  0  0
  -21.1376   -6.0532   25.9050 H   0  0  0  0  0  0
  -22.0664   -2.7637   23.2816 H   0  0  0  0  0  0
  -22.4316  -11.9914   22.4759 H   0  0  0  0  0  0
  -21.1146  -13.1043   22.2511 H   0  0  0  0  0  0
  -24.6791  -15.8568   20.5228 H   0  0  0  0  0  0
  -26.2974  -15.6228   20.1105 H   0  0  0  0  0  0
  -26.7067  -32.5598   23.1166 H   0  0  0  0  0  0
  -25.0057  -33.9832   25.0486 H   0  0  0  0  0  0
  -22.6863  -31.3046   21.4046 H   0  0  0  0  0  0
  -23.3781  -35.9610   23.3247 H   0  0  0  0  0  0
  -24.3588  -36.8948   22.2060 H   0  0  0  0  0  0
  -23.7191  -37.6474   23.6657 H   0  0  0  0  0  0
  -26.0134  -31.5973   20.5739 H   0  0  0  0  0  0
  -26.8146  -30.9186   21.9577 H   0  0  0  0  0  0
  -28.0918  -29.1277   21.2022 H   0  0  0  0  0  0
  -26.1153  -25.9690   19.0310 H   0  0  0  0  0  0
  -23.9977  -27.2650   19.0564 H   0  0  0  0  0  0
  -23.7099  -30.5746   19.3940 H   0  0  0  0  0  0
  -22.7363  -29.2202   19.8784 H   0  0  0  0  0  0
  -25.1273  -36.1974   25.0826 H   0  0  0  0  0  0
  -20.9967  -28.3247   24.1440 H   0  0  0  0  0  0
  -20.5695  -26.2261   23.3609 H   0  0  0  0  0  0
  -21.6653  -26.7493   22.1215 H   0  0  0  0  0  0
  -19.6946  -25.6314   21.1225 H   0  0  0  0  0  0
  -19.6736  -27.3208   20.6736 H   0  0  0  0  0  0
  -17.4219  -26.6661   21.3989 H   0  0  0  0  0  0
  -18.0349  -26.0099   22.9018 H   0  0  0  0  0  0
  -19.7933  -30.7240   24.2316 H   0  0  0  0  0  0
  -17.5032  -31.6286   24.5159 H   0  0  0  0  0  0
  -15.5355  -30.3030   23.7676 H   0  0  0  0  0  0
  -15.8643  -28.0886   22.7034 H   0  0  0  0  0  0
  -24.5904  -30.7065   25.7804 H   0  0  0  0  0  0
  -24.8958  -32.2870   26.4923 H   0  0  0  0  0  0
  -25.8130  -30.8860   27.0194 H   0  0  0  0  0  0
  -26.2755  -29.6828   24.1096 H   0  0  0  0  0  0
  -27.4128  -29.7283   25.4398 H   0  0  0  0  0  0
  -27.8560  -30.4414   23.9046 H   0  0  0  0  0  0
  -27.2689  -33.3596   26.2056 H   0  0  0  0  0  0
  -28.3839  -32.6860   25.0235 H   0  0  0  0  0  0
  -28.0732  -31.8376   26.5311 H   0  0  0  0  0  0
  -28.2563  -38.0137   24.7613 H   0  0  0  0  0  0
  -28.1151  -36.2676   24.6126 H   0  0  0  0  0  0
  -27.2329  -37.1243   25.8847 H   0  0  0  0  0  0
  -20.9258  -29.8707   21.6905 H   0  0  0  0  0  0
  -26.0163  -38.2875   24.1535 H   0  0  0  0  0  0
  -30.9780  -22.6771   22.2227 H   0  0  0  0  0  0
  -25.1187  -22.5117   20.2172 H   0  0  0  0  0  0
  -26.6937  -22.5420   21.0110 H   0  0  0  0  0  0
  -25.9628  -20.9991   20.5620 H   0  0  0  0  0  0
  -30.6922  -25.5548   19.3240 H   0  0  0  0  0  0
  -32.0117  -25.0713   20.3566 H   0  0  0  0  0  0
  -27.9411  -20.3012   19.2254 H   0  0  0  0  0  0
  -28.4686  -21.2168   17.8179 H   0  0  0  0  0  0
  -26.9592  -23.1550   18.6204 H   0  0  0  0  0  0
  -26.0921  -21.7299   18.1036 H   0  0  0  0  0  0
  -30.8147  -26.9245   21.4604 H   0  0  0  0  0  0
  -30.5529  -25.4684   22.3758 H   0  0  0  0  0  0
  -30.0309  -19.1598   20.0074 H   0  0  0  0  0  0
  -31.2295  -19.4612   21.2333 H   0  0  0  0  0  0
  -28.7807  -17.8819   22.0856 H   0  0  0  0  0  0
  -30.4360  -17.7702   22.6540 H   0  0  0  0  0  0
  -29.5222  -20.6359   22.6413 H   0  0  0  0  0  0
  -28.2707  -20.2536   21.4886 H   0  0  0  0  0  0
  -30.9567  -16.9505   20.1663 H   0  0  0  0  0  0
  -29.2287  -16.8157   20.0197 H   0  0  0  0  0  0
  -28.4948  -26.7966   22.1669 H   0  0  0  0  0  0
  -28.2758  -25.2130   21.4660 H   0  0  0  0  0  0
  -29.3488  -23.7290   18.4931 H   0  0  0  0  0  0
  -29.2247  -15.0964   21.7850 H   0  0  0  0  0  0
  1 25  1  0  0  0
  1 30  2  0  0  0
  1 86  1  0  0  0
  2  3  1  0  0  0
  2 25  1  0  0  0
  2 87  1  0  0  0
  2 88  1  0  0  0
  3  4  1  0  0  0
  3 89  1  0  0  0
  3 90  1  0  0  0
  4  5  1  0  0  0
  4 91  1  0  0  0
  4 92  1  0  0  0
  5  6  1  0  0  0
  5 26  1  0  0  0
  5 93  1  0  0  0
  6 25  1  0  0  0
  6 94  1  0  0  0
  6 95  1  0  0  0
  7  8  2  0  0  0
  7 26  1  0  0  0
  7 29  1  0  0  0
  8  9  1  0  0  0
  8 22  1  0  0  0
  9 10  1  0  0  0
  9 27  2  0  0  0
 10 11  2  0  0  0
 10 15  1  0  0  0
 11 12  1  0  0  0
 11 96  1  0  0  0
 12 13  2  0  0  0
 12 97  1  0  0  0
 13 14  1  0  0  0
 13 31  1  0  0  0
 14 15  2  0  0  0
 14 98  1  0  0  0
 15 99  1  0  0  0
 16 17  2  0  0  0
 16 21  1  0  0  0
 16 31  1  0  0  0
 17 18  1  0  0  0
 17100  1  0  0  0
 18 19  2  0  0  0
 18101  1  0  0  0
 19 20  1  0  0  0
 19 24  1  0  0  0
 20 21  2  0  0  0
 20102  1  0  0  0
 21 23  1  0  0  0
 22 28  1  0  0  0
 22 32  2  0  0  0
 26 27  1  0  0  0
 28103  1  0  0  0
 28104  1  0  0  0
 29105  1  0  0  0
 29106  1  0  0  0
 33 34  1  0  0  0
 33 66  1  0  0  0
 33 70  2  0  0  0
 34 36  1  0  0  0
 34 59  1  0  0  0
 34107  1  0  0  0
 35 44  2  0  0  0
 35 45  1  0  0  0
 35 68  1  0  0  0
 36 56  1  0  0  0
 36108  1  0  0  0
 37 39  1  0  0  0
 37 47  1  0  0  0
 37 66  1  0  0  0
 37109  1  0  0  0
 38 43  2  0  0  0
 38 46  1  0  0  0
 38 47  1  0  0  0
 39 64  1  0  0  0
 39 67  2  0  0  0
 40 52  1  0  0  0
 40 53  2  0  0  0
 40 58  1  0  0  0
 41110  1  0  0  0
 41111  1  0  0  0
 41112  1  0  0  0
 41 48  1  0  0  0
 42 43  1  0  0  0
 42 66  1  0  0  0
 42113  1  0  0  0
 42114  1  0  0  0
 43 44  1  0  0  0
 44115  1  0  0  0
 45 46  2  0  0  0
 45116  1  0  0  0
 46117  1  0  0  0
 47118  1  0  0  0
 47119  1  0  0  0
 48 56  1  0  0  0
 48 65  1  0  0  0
 48120  1  0  0  0
 49 50  1  0  0  0
 49 53  1  0  0  0
 49 64  1  0  0  0
 49121  1  0  0  0
 50 51  1  0  0  0
 50122  1  0  0  0
 50123  1  0  0  0
 51 52  1  0  0  0
 51124  1  0  0  0
 51125  1  0  0  0
 52126  1  0  0  0
 52127  1  0  0  0
 53 54  1  0  0  0
 54 55  2  0  0  0
 54128  1  0  0  0
 55 57  1  0  0  0
 55129  1  0  0  0
 56 69  2  0  0  0
 57 58  2  0  0  0
 57130  1  0  0  0
 58131  1  0  0  0
 59 60  1  0  0  0
 59 61  1  0  0  0
 59 62  1  0  0  0
 60132  1  0  0  0
 60133  1  0  0  0
 60134  1  0  0  0
 61135  1  0  0  0
 61136  1  0  0  0
 61137  1  0  0  0
 62138  1  0  0  0
 62139  1  0  0  0
 62140  1  0  0  0
 63 65  1  0  0  0
 63141  1  0  0  0
 63142  1  0  0  0
 63143  1  0  0  0
 64144  1  0  0  0
 65145  1  0  0  0
 68 83  1  0  0  0
 71 72  2  0  0  0
 71 84  1  0  0  0
 71146  1  0  0  0
 72 75  1  0  0  0
 72 85  1  0  0  0
 73 76  1  0  0  0
 73 84  1  0  0  0
 73 85  2  0  0  0
 74 77  1  0  0  0
 74147  1  0  0  0
 74148  1  0  0  0
 74149  1  0  0  0
 75 78  1  0  0  0
 75150  1  0  0  0
 75151  1  0  0  0
 76 77  1  0  0  0
 76152  1  0  0  0
 76153  1  0  0  0
 77154  1  0  0  0
 77155  1  0  0  0
 78 83  1  0  0  0
 78156  1  0  0  0
 78157  1  0  0  0
 79 80  1  0  0  0
 79 81  1  0  0  0
 79158  1  0  0  0
 79159  1  0  0  0
 80 82  1  0  0  0
 80160  1  0  0  0
 80161  1  0  0  0
 81 84  1  0  0  0
 81162  1  0  0  0
 81163  1  0  0  0
 82 86  1  0  0  0
 82164  1  0  0  0
 82165  1  0  0  0
 83166  1  0  0  0
 83167  1  0  0  0
 85168  1  0  0  0
 86169  1  0  0  0
M  CHG  1  85   1
M  ISO  4   1 100  68 101  83 101  86 100
M  END
> <chiral flag>
0

> <version>
0

> <s_m_source_file>
/data/baiqing/PycharmProjects/Reinvent-master-3.2/result/LINK_invent/BTK/process_docking_weight1_custom_sum_contain_oxygen_bond_distance_aromatic_linkinvent_7_9_3/rearranged_h_0042.sdf

> <i_m_source_file_index>
66

> <r_mmod_Potential_Energy-OPLS-2005>
-83.0725021362305

> <r_mmod_Stretch_Energy-OPLS-2005>
32.3149261474609

> <r_mmod_Bend_Energy-OPLS-2005>
93.7272415161133

> <r_mmod_Torsional_Energy-OPLS-2005>
276.020050048828

> <r_mmod_Improper_Torsional_Energy-OPLS-2005>
6.86239910125732

> <r_mmod_Van_der_Waal_Energy-OPLS-2005>
120.000816345215

> <r_mmod_Electrostatic_Energy-OPLS-2005>
-215.997528076172

> <r_mmod_Solvation_Energy-OPLS-2005>
-403.632263183594

> <b_mmod_Minimization_Converged-OPLS-2005>
0

> <r_mmod_RMS_Derivative-OPLS-2005>
7.33014535903931

$$$$
67
                    3D
 Structure written by MMmdl.
156164  0  0  1  0            999 V2000
  -30.7149  -14.5159   20.5371 C   0  0  0  0  0  0
  -30.4112  -12.3283   19.4364 C   0  0  0  0  0  0
  -29.4906  -12.4964   18.2114 C   0  0  0  0  0  0
  -28.0129  -12.3578   18.6232 C   0  0  0  0  0  0
  -27.6521  -13.2183   19.8644 C   0  0  2  0  0  0
  -28.6967  -13.0580   20.9921 C   0  0  0  0  0  0
  -25.2544  -13.8183   20.5690 C   0  0  0  0  0  0
  -24.1812  -13.0443   20.9184 C   0  0  0  0  0  0
  -24.6388  -11.6915   20.8736 C   0  0  0  0  0  0
  -23.9061  -10.4294   21.0407 C   0  0  0  0  0  0
  -24.3614   -9.4208   21.9177 C   0  0  0  0  0  0
  -23.6287   -8.2245   22.0753 C   0  0  0  0  0  0
  -22.4270   -8.0282   21.3547 C   0  0  0  0  0  0
  -21.9902   -9.0255   20.4647 C   0  0  0  0  0  0
  -22.7233  -10.2132   20.3049 C   0  0  0  0  0  0
  -21.6857   -6.0738   22.5280 C   0  0  0  0  0  0
  -21.4023   -6.5641   23.8213 C   0  0  0  0  0  0
  -21.3662   -5.6796   24.9174 C   0  0  0  0  0  0
  -21.6045   -4.3060   24.7227 C   0  0  0  0  0  0
  -21.8819   -3.8148   23.4350 C   0  0  0  0  0  0
  -21.9196   -4.6963   22.3405 C   0  0  0  0  0  0
  -22.7842  -13.5233   21.1849 C   0  0  0  0  0  0
  -22.1652   -4.2150   21.0983 F   0  0  0  0  0  0
  -21.5625   -3.4541   25.7737 F   0  0  0  0  0  0
  -30.0206  -13.3488   20.4241 N   0  0  0  0  0  0
  -26.2983  -12.9379   20.3343 N   0  0  0  0  0  0
  -25.9315  -11.6523   20.5762 N   0  0  0  0  0  0
  -22.0485  -12.8219   22.0398 N   0  0  0  0  0  0
  -25.4234  -15.1907   20.4112 N   0  0  0  0  0  0
  -31.8692  -14.6299   20.1196 O   0  0  0  0  0  0
  -21.6637   -6.8876   21.4239 O   0  0  0  0  0  0
  -22.3518  -14.5535   20.6691 O   0  0  0  0  0  0
  -24.6175  -31.8655   23.2069 C   0  0  0  0  0  0
  -25.9057  -32.4809   23.8378 C   0  0  1  0  0  0
  -27.2346  -27.4043   20.1148 C   0  0  0  0  0  0
  -25.5895  -33.8604   24.2309 N   0  0  0  0  0  0
  -23.4078  -30.4879   21.5472 C   0  0  2  0  0  0
  -24.8570  -28.9474   20.1155 C   0  0  0  0  0  0
  -22.7429  -29.4648   22.4966 C   0  0  0  0  0  0
  -18.0276  -28.1383   22.8488 C   0  0  0  0  0  0
  -24.1489  -36.7307   23.2638 C   0  0  0  0  0  0
  -25.9392  -30.8250   21.3622 C   0  0  0  0  0  0
  -26.0190  -29.4562   20.7103 C   0  0  0  0  0  0
  -27.2143  -28.6951   20.6994 C   0  0  0  0  0  0
  -26.0577  -26.9170   19.5088 C   0  0  0  0  0  0
  -24.8728  -27.6790   19.5082 C   0  0  0  0  0  0
  -23.6192  -29.8171   20.1632 C   0  0  0  0  0  0
  -25.4109  -36.3100   24.0333 C   0  0  1  0  0  0
  -20.5869  -28.3674   23.1305 C   0  0  2  0  0  0
  -20.6763  -26.9403   22.5415 C   0  0  0  0  0  0
  -19.5745  -26.6387   21.5211 C   0  0  0  0  0  0
  -18.1924  -26.7927   22.1624 C   0  0  0  0  0  0
  -19.1525  -28.8844   23.2898 C   0  0  0  0  0  0
  -18.9453  -30.1448   23.8913 C   0  0  0  0  0  0
  -17.6455  -30.6588   24.0563 C   0  0  0  0  0  0
  -25.9040  -34.9466   23.5121 C   0  0  0  0  0  0
  -16.5346  -29.9092   23.6323 C   0  0  0  0  0  0
  -16.7264  -28.6507   23.0343 C   0  0  0  0  0  0
  -26.4479  -31.6599   25.0716 C   0  0  0  0  0  0
  -25.3741  -31.3713   26.1463 C   0  0  0  0  0  0
  -27.0315  -30.3037   24.6107 C   0  0  0  0  0  0
  -27.6054  -32.4323   25.7477 C   0  0  0  0  0  0
  -27.5579  -37.1809   24.8464 C   0  0  0  0  0  0
  -21.4152  -29.3039   22.3710 N   0  0  0  0  0  0
  -26.4296  -37.3784   23.9403 N   0  0  0  0  0  0
  -24.6737  -31.0735   22.0979 N   0  0  0  0  0  0
  -23.4185  -28.8197   23.3028 O   0  0  0  0  0  0
  -28.3786  -26.6267   20.1191 O   0  0  0  0  0  0
  -26.5610  -34.8923   22.4689 O   0  0  0  0  0  0
  -23.5360  -32.1408   23.7453 O   0  0  0  0  0  0
  -28.3154  -18.2321   21.3801 C   0  0  0  0  0  0
  -29.6623  -18.1424   20.9364 C   0  0  0  0  0  0
  -27.9219  -19.5126   21.0819 C   0  0  0  0  0  0
  -26.5879  -20.1534   21.2880 C   0  0  0  0  0  0
  -30.6301  -16.9640   21.0126 C   0  0  0  0  0  0
  -28.7398  -22.7492   20.7404 C   0  0  0  0  0  0
  -28.7507  -24.1169   19.9722 C   0  0  0  0  0  0
  -29.0860  -21.5027   19.8609 C   0  0  0  0  0  0
  -28.2756  -25.3497   20.8005 C   0  0  0  0  0  0
  -30.0569  -19.3066   20.4119 N   0  0  0  0  0  0
  -29.0009  -20.1652   20.4988 N   0  0  0  0  0  0
  -30.0421  -15.6048   20.9694 N   0  0  0  0  0  0
  -31.4575  -12.4087   19.1374 H   0  0  0  0  0  0
  -30.3022  -11.3311   19.8659 H   0  0  0  0  0  0
  -29.7369  -11.7551   17.4502 H   0  0  0  0  0  0
  -29.6571  -13.4722   17.7526 H   0  0  0  0  0  0
  -27.8268  -11.3041   18.8350 H   0  0  0  0  0  0
  -27.3639  -12.6171   17.7857 H   0  0  0  0  0  0
  -27.6772  -14.2582   19.5375 H   0  0  0  0  0  0
  -28.6807  -12.0423   21.3891 H   0  0  0  0  0  0
  -28.4607  -13.7103   21.8339 H   0  0  0  0  0  0
  -25.2759   -9.5684   22.4752 H   0  0  0  0  0  0
  -24.0003   -7.4635   22.7470 H   0  0  0  0  0  0
  -21.0833   -8.8773   19.8949 H   0  0  0  0  0  0
  -22.3682  -10.9666   19.6159 H   0  0  0  0  0  0
  -21.2013   -7.6152   23.9713 H   0  0  0  0  0  0
  -21.1483   -6.0527   25.9078 H   0  0  0  0  0  0
  -22.0595   -2.7611   23.2846 H   0  0  0  0  0  0
  -22.4102  -11.9885   22.4800 H   0  0  0  0  0  0
  -21.1105  -13.1235   22.2603 H   0  0  0  0  0  0
  -24.6503  -15.8404   20.5046 H   0  0  0  0  0  0
  -26.2728  -15.6343   20.0858 H   0  0  0  0  0  0
  -26.7131  -32.5516   23.1146 H   0  0  0  0  0  0
  -25.0031  -33.9763   25.0441 H   0  0  0  0  0  0
  -22.6976  -31.3051   21.4047 H   0  0  0  0  0  0
  -23.3745  -35.9651   23.3319 H   0  0  0  0  0  0
  -24.3579  -36.8905   22.2050 H   0  0  0  0  0  0
  -23.7258  -37.6519   23.6649 H   0  0  0  0  0  0
  -26.0513  -31.5904   20.5930 H   0  0  0  0  0  0
  -26.8270  -30.8817   21.9805 H   0  0  0  0  0  0
  -28.1129  -29.0838   21.1586 H   0  0  0  0  0  0
  -26.0574  -25.9424   19.0409 H   0  0  0  0  0  0
  -23.9795  -27.2816   19.0462 H   0  0  0  0  0  0
  -23.7300  -30.5914   19.4030 H   0  0  0  0  0  0
  -22.7431  -29.2379   19.8663 H   0  0  0  0  0  0
  -25.1291  -36.1963   25.0828 H   0  0  0  0  0  0
  -20.9959  -28.3249   24.1427 H   0  0  0  0  0  0
  -20.5660  -26.2284   23.3608 H   0  0  0  0  0  0
  -21.6637  -26.7444   22.1213 H   0  0  0  0  0  0
  -19.6910  -25.6302   21.1239 H   0  0  0  0  0  0
  -19.6688  -27.3204   20.6748 H   0  0  0  0  0  0
  -17.4191  -26.6667   21.4031 H   0  0  0  0  0  0
  -18.0331  -26.0072   22.9025 H   0  0  0  0  0  0
  -19.7928  -30.7253   24.2295 H   0  0  0  0  0  0
  -17.5013  -31.6268   24.5163 H   0  0  0  0  0  0
  -15.5347  -30.3000   23.7636 H   0  0  0  0  0  0
  -15.8662  -28.0833   22.7048 H   0  0  0  0  0  0
  -24.5897  -30.7082   25.7795 H   0  0  0  0  0  0
  -24.8953  -32.2876   26.4929 H   0  0  0  0  0  0
  -25.8084  -30.8857   27.0211 H   0  0  0  0  0  0
  -26.2874  -29.6796   24.1142 H   0  0  0  0  0  0
  -27.4063  -29.7274   25.4577 H   0  0  0  0  0  0
  -27.8717  -30.4349   23.9279 H   0  0  0  0  0  0
  -27.2671  -33.3603   26.2104 H   0  0  0  0  0  0
  -28.3840  -32.6925   25.0291 H   0  0  0  0  0  0
  -28.0760  -31.8421   26.5352 H   0  0  0  0  0  0
  -28.2610  -38.0094   24.7490 H   0  0  0  0  0  0
  -28.1066  -36.2623   24.6319 H   0  0  0  0  0  0
  -27.2293  -37.1490   25.8867 H   0  0  0  0  0  0
  -20.9317  -29.8750   21.6917 H   0  0  0  0  0  0
  -26.0183  -38.2864   24.1394 H   0  0  0  0  0  0
  -27.7174  -17.4612   21.8467 H   0  0  0  0  0  0
  -25.8205  -19.4027   21.4792 H   0  0  0  0  0  0
  -26.2836  -20.7228   20.4097 H   0  0  0  0  0  0
  -26.6078  -20.8255   22.1459 H   0  0  0  0  0  0
  -31.2126  -17.0385   21.9324 H   0  0  0  0  0  0
  -31.3559  -17.0676   20.2044 H   0  0  0  0  0  0
  -27.7559  -22.6205   21.1864 H   0  0  0  0  0  0
  -29.4411  -22.8004   21.5744 H   0  0  0  0  0  0
  -28.1180  -24.0333   19.0881 H   0  0  0  0  0  0
  -29.7594  -24.3055   19.6029 H   0  0  0  0  0  0
  -30.0925  -21.6275   19.4576 H   0  0  0  0  0  0
  -28.4229  -21.4835   18.9959 H   0  0  0  0  0  0
  -28.8885  -25.4231   21.6994 H   0  0  0  0  0  0
  -27.2612  -25.1669   21.1596 H   0  0  0  0  0  0
  -29.0799  -15.4993   21.2495 H   0  0  0  0  0  0
  1 25  1  0  0  0
  1 30  2  0  0  0
  1 82  1  0  0  0
  2  3  1  0  0  0
  2 25  1  0  0  0
  2 83  1  0  0  0
  2 84  1  0  0  0
  3  4  1  0  0  0
  3 85  1  0  0  0
  3 86  1  0  0  0
  4  5  1  0  0  0
  4 87  1  0  0  0
  4 88  1  0  0  0
  5  6  1  0  0  0
  5 26  1  0  0  0
  5 89  1  0  0  0
  6 25  1  0  0  0
  6 90  1  0  0  0
  6 91  1  0  0  0
  7  8  2  0  0  0
  7 26  1  0  0  0
  7 29  1  0  0  0
  8  9  1  0  0  0
  8 22  1  0  0  0
  9 10  1  0  0  0
  9 27  2  0  0  0
 10 11  2  0  0  0
 10 15  1  0  0  0
 11 12  1  0  0  0
 11 92  1  0  0  0
 12 13  2  0  0  0
 12 93  1  0  0  0
 13 14  1  0  0  0
 13 31  1  0  0  0
 14 15  2  0  0  0
 14 94  1  0  0  0
 15 95  1  0  0  0
 16 17  2  0  0  0
 16 21  1  0  0  0
 16 31  1  0  0  0
 17 18  1  0  0  0
 17 96  1  0  0  0
 18 19  2  0  0  0
 18 97  1  0  0  0
 19 20  1  0  0  0
 19 24  1  0  0  0
 20 21  2  0  0  0
 20 98  1  0  0  0
 21 23  1  0  0  0
 22 28  1  0  0  0
 22 32  2  0  0  0
 26 27  1  0  0  0
 28 99  1  0  0  0
 28100  1  0  0  0
 29101  1  0  0  0
 29102  1  0  0  0
 33 34  1  0  0  0
 33 66  1  0  0  0
 33 70  2  0  0  0
 34 36  1  0  0  0
 34 59  1  0  0  0
 34103  1  0  0  0
 35 44  2  0  0  0
 35 45  1  0  0  0
 35 68  1  0  0  0
 36 56  1  0  0  0
 36104  1  0  0  0
 37 39  1  0  0  0
 37 47  1  0  0  0
 37 66  1  0  0  0
 37105  1  0  0  0
 38 43  2  0  0  0
 38 46  1  0  0  0
 38 47  1  0  0  0
 39 64  1  0  0  0
 39 67  2  0  0  0
 40 52  1  0  0  0
 40 53  2  0  0  0
 40 58  1  0  0  0
 41106  1  0  0  0
 41107  1  0  0  0
 41108  1  0  0  0
 41 48  1  0  0  0
 42 43  1  0  0  0
 42 66  1  0  0  0
 42109  1  0  0  0
 42110  1  0  0  0
 43 44  1  0  0  0
 44111  1  0  0  0
 45 46  2  0  0  0
 45112  1  0  0  0
 46113  1  0  0  0
 47114  1  0  0  0
 47115  1  0  0  0
 48 56  1  0  0  0
 48 65  1  0  0  0
 48116  1  0  0  0
 49 50  1  0  0  0
 49 53  1  0  0  0
 49 64  1  0  0  0
 49117  1  0  0  0
 50 51  1  0  0  0
 50118  1  0  0  0
 50119  1  0  0  0
 51 52  1  0  0  0
 51120  1  0  0  0
 51121  1  0  0  0
 52122  1  0  0  0
 52123  1  0  0  0
 53 54  1  0  0  0
 54 55  2  0  0  0
 54124  1  0  0  0
 55 57  1  0  0  0
 55125  1  0  0  0
 56 69  2  0  0  0
 57 58  2  0  0  0
 57126  1  0  0  0
 58127  1  0  0  0
 59 60  1  0  0  0
 59 61  1  0  0  0
 59 62  1  0  0  0
 60128  1  0  0  0
 60129  1  0  0  0
 60130  1  0  0  0
 61131  1  0  0  0
 61132  1  0  0  0
 61133  1  0  0  0
 62134  1  0  0  0
 62135  1  0  0  0
 62136  1  0  0  0
 63 65  1  0  0  0
 63137  1  0  0  0
 63138  1  0  0  0
 63139  1  0  0  0
 64140  1  0  0  0
 65141  1  0  0  0
 68 79  1  0  0  0
 71 72  1  0  0  0
 71 73  2  0  0  0
 71142  1  0  0  0
 72 75  1  0  0  0
 72 80  2  0  0  0
 73 74  1  0  0  0
 73 81  1  0  0  0
 74143  1  0  0  0
 74144  1  0  0  0
 74145  1  0  0  0
 75 82  1  0  0  0
 75146  1  0  0  0
 75147  1  0  0  0
 76 77  1  0  0  0
 76 78  1  0  0  0
 76148  1  0  0  0
 76149  1  0  0  0
 77 79  1  0  0  0
 77150  1  0  0  0
 77151  1  0  0  0
 78 81  1  0  0  0
 78152  1  0  0  0
 78153  1  0  0  0
 79154  1  0  0  0
 79155  1  0  0  0
 80 81  1  0  0  0
 82156  1  0  0  0
M  ISO  4   1 100  68 101  79 101  82 100
M  END
> <chiral flag>
0

> <version>
0

> <s_m_source_file>
/data/baiqing/PycharmProjects/Reinvent-master-3.2/result/LINK_invent/BTK/process_docking_weight1_custom_sum_contain_oxygen_bond_distance_aromatic_linkinvent_7_9_3/rearranged_h_0042.sdf

> <i_m_source_file_index>
67

> <r_mmod_Potential_Energy-OPLS-2005>
-184.662689208984

> <r_mmod_Stretch_Energy-OPLS-2005>
43.5628547668457

> <r_mmod_Bend_Energy-OPLS-2005>
99.8345108032227

> <r_mmod_Torsional_Energy-OPLS-2005>
225.078628540039

> <r_mmod_Improper_Torsional_Energy-OPLS-2005>
4.03572940826416

> <r_mmod_Van_der_Waal_Energy-OPLS-2005>
121.376220703125

> <r_mmod_Electrostatic_Energy-OPLS-2005>
-480.307464599609

> <r_mmod_Solvation_Energy-OPLS-2005>
-219.002777099609

> <b_mmod_Minimization_Converged-OPLS-2005>
0

> <r_mmod_RMS_Derivative-OPLS-2005>
1.39187479019165

$$$$
68
                    3D
 Structure written by MMmdl.
161169  0  0  1  0            999 V2000
  -30.7477  -14.4281   20.5481 C   0  0  0  0  0  0
  -30.4042  -12.2670   19.4185 C   0  0  0  0  0  0
  -29.4888  -12.5044   18.2032 C   0  0  0  0  0  0
  -28.0032  -12.4027   18.6061 C   0  0  0  0  0  0
  -27.6654  -13.2151   19.8879 C   0  0  2  0  0  0
  -28.7158  -12.9925   21.0020 C   0  0  0  0  0  0
  -25.2615  -13.8190   20.5723 C   0  0  0  0  0  0
  -24.1871  -13.0437   20.9209 C   0  0  0  0  0  0
  -24.6429  -11.6922   20.8759 C   0  0  0  0  0  0
  -23.9083  -10.4305   21.0406 C   0  0  0  0  0  0
  -24.3638   -9.4229   21.9175 C   0  0  0  0  0  0
  -23.6314   -8.2263   22.0737 C   0  0  0  0  0  0
  -22.4272   -8.0312   21.3544 C   0  0  0  0  0  0
  -21.9927   -9.0269   20.4626 C   0  0  0  0  0  0
  -22.7264  -10.2150   20.3046 C   0  0  0  0  0  0
  -21.6848   -6.0770   22.5268 C   0  0  0  0  0  0
  -21.4005   -6.5656   23.8217 C   0  0  0  0  0  0
  -21.3685   -5.6795   24.9171 C   0  0  0  0  0  0
  -21.6048   -4.3051   24.7230 C   0  0  0  0  0  0
  -21.8820   -3.8178   23.4338 C   0  0  0  0  0  0
  -21.9206   -4.6999   22.3405 C   0  0  0  0  0  0
  -22.7923  -13.5234   21.1895 C   0  0  0  0  0  0
  -22.1666   -4.2201   21.0983 F   0  0  0  0  0  0
  -21.5656   -3.4529   25.7746 F   0  0  0  0  0  0
  -30.0437  -13.2703   20.4287 N   0  0  0  0  0  0
  -26.3062  -12.9369   20.3488 N   0  0  0  0  0  0
  -25.9347  -11.6513   20.5832 N   0  0  0  0  0  0
  -22.0557  -12.8148   22.0421 N   0  0  0  0  0  0
  -25.4333  -15.1892   20.4109 N   0  0  0  0  0  0
  -31.8714  -14.5860   20.0696 O   0  0  0  0  0  0
  -21.6634   -6.8891   21.4228 O   0  0  0  0  0  0
  -22.3611  -14.5577   20.6830 O   0  0  0  0  0  0
  -24.6108  -31.8695   23.2148 C   0  0  0  0  0  0
  -25.8995  -32.4838   23.8439 C   0  0  1  0  0  0
  -27.2404  -27.4576   20.0645 C   0  0  0  0  0  0
  -25.5861  -33.8649   24.2363 N   0  0  0  0  0  0
  -23.3977  -30.4938   21.5567 C   0  0  2  0  0  0
  -24.8381  -28.9518   20.1254 C   0  0  0  0  0  0
  -22.7344  -29.4683   22.5041 C   0  0  0  0  0  0
  -18.0268  -28.1407   22.8501 C   0  0  0  0  0  0
  -24.1466  -36.7308   23.2630 C   0  0  0  0  0  0
  -25.9202  -30.8359   21.3597 C   0  0  0  0  0  0
  -25.9972  -29.4681   20.7165 C   0  0  0  0  0  0
  -27.1981  -28.7279   20.6842 C   0  0  0  0  0  0
  -26.0578  -26.9476   19.4858 C   0  0  0  0  0  0
  -24.8585  -27.6847   19.5183 C   0  0  0  0  0  0
  -23.5976  -29.8131   20.1773 C   0  0  0  0  0  0
  -25.4097  -36.3117   24.0331 C   0  0  1  0  0  0
  -20.5830  -28.3663   23.1389 C   0  0  2  0  0  0
  -20.6770  -26.9423   22.5446 C   0  0  0  0  0  0
  -19.5763  -26.6425   21.5224 C   0  0  0  0  0  0
  -18.1924  -26.7986   22.1622 C   0  0  0  0  0  0
  -19.1492  -28.8857   23.2965 C   0  0  0  0  0  0
  -18.9438  -30.1477   23.8967 C   0  0  0  0  0  0
  -17.6438  -30.6611   24.0574 C   0  0  0  0  0  0
  -25.9019  -34.9470   23.5139 C   0  0  0  0  0  0
  -16.5336  -29.9086   23.6359 C   0  0  0  0  0  0
  -16.7255  -28.6502   23.0376 C   0  0  0  0  0  0
  -26.4437  -31.6605   25.0735 C   0  0  0  0  0  0
  -25.3716  -31.3596   26.1444 C   0  0  0  0  0  0
  -27.0297  -30.3073   24.6088 C   0  0  0  0  0  0
  -27.6093  -32.4234   25.7456 C   0  0  0  0  0  0
  -27.5570  -37.1777   24.8474 C   0  0  0  0  0  0
  -21.4067  -29.3027   22.3769 N   0  0  0  0  0  0
  -26.4291  -37.3800   23.9426 N   0  0  0  0  0  0
  -24.6636  -31.0786   22.1050 N   0  0  0  0  0  0
  -23.4119  -28.8222   23.3104 O   0  0  0  0  0  0
  -28.4595  -26.8342   19.9176 O   0  0  0  0  0  0
  -26.5552  -34.8903   22.4685 O   0  0  0  0  0  0
  -23.5339  -32.1429   23.7576 O   0  0  0  0  0  0
  -29.0806  -20.5807   19.2348 C   0  0  0  0  0  0
  -30.1840  -21.6824   21.0670 C   0  0  0  0  0  0
  -29.9793  -20.5110   20.3162 C   0  0  0  0  0  0
  -28.4451  -21.8104   18.9373 C   0  0  0  0  0  0
  -28.7642  -22.9528   19.7198 C   0  0  0  0  0  0
  -26.1249  -21.1463   18.1249 C   0  0  0  0  0  0
  -30.7587  -19.2414   20.6698 C   0  0  0  0  0  0
  -27.4438  -21.8536   17.7855 C   0  0  0  0  0  0
  -28.1996  -24.3514   19.4070 C   0  0  0  0  0  0
  -30.0129  -17.8978   20.4908 C   0  0  0  0  0  0
  -30.6524  -16.7864   21.3619 C   0  0  0  0  0  0
  -28.6660  -25.4876   20.3552 C   0  0  0  0  0  0
  -29.6069  -22.8638   20.7739 N   0  0  0  0  0  0
  -30.0900  -15.4520   21.1155 N   0  0  0  0  0  0
  -31.4547  -12.3125   19.1245 H   0  0  0  0  0  0
  -30.2452  -11.2625   19.8130 H   0  0  0  0  0  0
  -29.7093  -11.7794   17.4177 H   0  0  0  0  0  0
  -29.6999  -13.4879   17.7784 H   0  0  0  0  0  0
  -27.7588  -11.3487   18.7514 H   0  0  0  0  0  0
  -27.3749  -12.7382   17.7797 H   0  0  0  0  0  0
  -27.7025  -14.2713   19.6213 H   0  0  0  0  0  0
  -28.6761  -11.9642   21.3592 H   0  0  0  0  0  0
  -28.4987  -13.6043   21.8779 H   0  0  0  0  0  0
  -25.2785   -9.5727   22.4739 H   0  0  0  0  0  0
  -24.0078   -7.4644   22.7410 H   0  0  0  0  0  0
  -21.0891   -8.8739   19.8894 H   0  0  0  0  0  0
  -22.3703  -10.9677   19.6160 H   0  0  0  0  0  0
  -21.1928   -7.6150   23.9724 H   0  0  0  0  0  0
  -21.1518   -6.0525   25.9074 H   0  0  0  0  0  0
  -22.0573   -2.7647   23.2811 H   0  0  0  0  0  0
  -22.4171  -11.9776   22.4738 H   0  0  0  0  0  0
  -21.1170  -13.1142   22.2617 H   0  0  0  0  0  0
  -24.6703  -15.8477   20.5254 H   0  0  0  0  0  0
  -26.2944  -15.6246   20.1050 H   0  0  0  0  0  0
  -26.7047  -32.5496   23.1208 H   0  0  0  0  0  0
  -25.0068  -33.9896   25.0529 H   0  0  0  0  0  0
  -22.6887  -31.3101   21.4158 H   0  0  0  0  0  0
  -23.3761  -35.9611   23.3305 H   0  0  0  0  0  0
  -24.3581  -36.8941   22.2054 H   0  0  0  0  0  0
  -23.7192  -37.6497   23.6655 H   0  0  0  0  0  0
  -26.0108  -31.5931   20.5808 H   0  0  0  0  0  0
  -26.8192  -30.9080   21.9619 H   0  0  0  0  0  0
  -28.1017  -29.1401   21.1109 H   0  0  0  0  0  0
  -26.0530  -26.0088   18.9625 H   0  0  0  0  0  0
  -23.9659  -27.2840   19.0594 H   0  0  0  0  0  0
  -23.6908  -30.5787   19.4069 H   0  0  0  0  0  0
  -22.7187  -29.2254   19.8997 H   0  0  0  0  0  0
  -25.1279  -36.2007   25.0835 H   0  0  0  0  0  0
  -20.9929  -28.3200   24.1512 H   0  0  0  0  0  0
  -20.5736  -26.2228   23.3590 H   0  0  0  0  0  0
  -21.6631  -26.7533   22.1200 H   0  0  0  0  0  0
  -19.6908  -25.6330   21.1235 H   0  0  0  0  0  0
  -19.6739  -27.3256   20.6771 H   0  0  0  0  0  0
  -17.4223  -26.6787   21.3978 H   0  0  0  0  0  0
  -18.0288  -26.0127   22.9015 H   0  0  0  0  0  0
  -19.7907  -30.7306   24.2321 H   0  0  0  0  0  0
  -17.4986  -31.6304   24.5149 H   0  0  0  0  0  0
  -15.5327  -30.3001   23.7692 H   0  0  0  0  0  0
  -15.8664  -28.0844   22.7083 H   0  0  0  0  0  0
  -24.6033  -30.6779   25.7742 H   0  0  0  0  0  0
  -24.8702  -32.2687   26.4788 H   0  0  0  0  0  0
  -25.8087  -30.8860   27.0259 H   0  0  0  0  0  0
  -26.2865  -29.6797   24.1166 H   0  0  0  0  0  0
  -27.4134  -29.7295   25.4520 H   0  0  0  0  0  0
  -27.8644  -30.4446   23.9216 H   0  0  0  0  0  0
  -27.2878  -33.3628   26.1964 H   0  0  0  0  0  0
  -28.3955  -32.6606   25.0261 H   0  0  0  0  0  0
  -28.0692  -31.8337   26.5410 H   0  0  0  0  0  0
  -28.2554  -38.0089   24.7587 H   0  0  0  0  0  0
  -28.1080  -36.2634   24.6248 H   0  0  0  0  0  0
  -27.2292  -37.1400   25.8866 H   0  0  0  0  0  0
  -20.9175  -29.8565   21.6873 H   0  0  0  0  0  0
  -26.0167  -38.2866   24.1476 H   0  0  0  0  0  0
  -28.8751  -19.7040   18.6365 H   0  0  0  0  0  0
  -30.8501  -21.6880   21.9158 H   0  0  0  0  0  0
  -25.4512  -21.1511   17.2675 H   0  0  0  0  0  0
  -25.5966  -21.6351   18.9435 H   0  0  0  0  0  0
  -26.2900  -20.1096   18.4163 H   0  0  0  0  0  0
  -31.0969  -19.3283   21.7081 H   0  0  0  0  0  0
  -31.6758  -19.2334   20.0737 H   0  0  0  0  0  0
  -27.8955  -21.3746   16.9144 H   0  0  0  0  0  0
  -27.2256  -22.8772   17.4834 H   0  0  0  0  0  0
  -27.1148  -24.2803   19.4249 H   0  0  0  0  0  0
  -28.4818  -24.6088   18.3854 H   0  0  0  0  0  0
  -30.0197  -17.6170   19.4329 H   0  0  0  0  0  0
  -28.9645  -18.0066   20.7793 H   0  0  0  0  0  0
  -30.4845  -17.0106   22.4168 H   0  0  0  0  0  0
  -31.7383  -16.7891   21.2347 H   0  0  0  0  0  0
  -29.7522  -25.4351   20.4313 H   0  0  0  0  0  0
  -28.2784  -25.3450   21.3633 H   0  0  0  0  0  0
  -29.1365  -15.2834   21.3995 H   0  0  0  0  0  0
  1 25  1  0  0  0
  1 30  2  0  0  0
  1 84  1  0  0  0
  2  3  1  0  0  0
  2 25  1  0  0  0
  2 85  1  0  0  0
  2 86  1  0  0  0
  3  4  1  0  0  0
  3 87  1  0  0  0
  3 88  1  0  0  0
  4  5  1  0  0  0
  4 89  1  0  0  0
  4 90  1  0  0  0
  5  6  1  0  0  0
  5 26  1  0  0  0
  5 91  1  0  0  0
  6 25  1  0  0  0
  6 92  1  0  0  0
  6 93  1  0  0  0
  7  8  2  0  0  0
  7 26  1  0  0  0
  7 29  1  0  0  0
  8  9  1  0  0  0
  8 22  1  0  0  0
  9 10  1  0  0  0
  9 27  2  0  0  0
 10 11  2  0  0  0
 10 15  1  0  0  0
 11 12  1  0  0  0
 11 94  1  0  0  0
 12 13  2  0  0  0
 12 95  1  0  0  0
 13 14  1  0  0  0
 13 31  1  0  0  0
 14 15  2  0  0  0
 14 96  1  0  0  0
 15 97  1  0  0  0
 16 17  2  0  0  0
 16 21  1  0  0  0
 16 31  1  0  0  0
 17 18  1  0  0  0
 17 98  1  0  0  0
 18 19  2  0  0  0
 18 99  1  0  0  0
 19 20  1  0  0  0
 19 24  1  0  0  0
 20 21  2  0  0  0
 20100  1  0  0  0
 21 23  1  0  0  0
 22 28  1  0  0  0
 22 32  2  0  0  0
 26 27  1  0  0  0
 28101  1  0  0  0
 28102  1  0  0  0
 29103  1  0  0  0
 29104  1  0  0  0
 33 34  1  0  0  0
 33 66  1  0  0  0
 33 70  2  0  0  0
 34 36  1  0  0  0
 34 59  1  0  0  0
 34105  1  0  0  0
 35 44  2  0  0  0
 35 45  1  0  0  0
 35 68  1  0  0  0
 36 56  1  0  0  0
 36106  1  0  0  0
 37 39  1  0  0  0
 37 47  1  0  0  0
 37 66  1  0  0  0
 37107  1  0  0  0
 38 43  2  0  0  0
 38 46  1  0  0  0
 38 47  1  0  0  0
 39 64  1  0  0  0
 39 67  2  0  0  0
 40 52  1  0  0  0
 40 53  2  0  0  0
 40 58  1  0  0  0
 41108  1  0  0  0
 41109  1  0  0  0
 41110  1  0  0  0
 41 48  1  0  0  0
 42 43  1  0  0  0
 42 66  1  0  0  0
 42111  1  0  0  0
 42112  1  0  0  0
 43 44  1  0  0  0
 44113  1  0  0  0
 45 46  2  0  0  0
 45114  1  0  0  0
 46115  1  0  0  0
 47116  1  0  0  0
 47117  1  0  0  0
 48 56  1  0  0  0
 48 65  1  0  0  0
 48118  1  0  0  0
 49 50  1  0  0  0
 49 53  1  0  0  0
 49 64  1  0  0  0
 49119  1  0  0  0
 50 51  1  0  0  0
 50120  1  0  0  0
 50121  1  0  0  0
 51 52  1  0  0  0
 51122  1  0  0  0
 51123  1  0  0  0
 52124  1  0  0  0
 52125  1  0  0  0
 53 54  1  0  0  0
 54 55  2  0  0  0
 54126  1  0  0  0
 55 57  1  0  0  0
 55127  1  0  0  0
 56 69  2  0  0  0
 57 58  2  0  0  0
 57128  1  0  0  0
 58129  1  0  0  0
 59 60  1  0  0  0
 59 61  1  0  0  0
 59 62  1  0  0  0
 60130  1  0  0  0
 60131  1  0  0  0
 60132  1  0  0  0
 61133  1  0  0  0
 61134  1  0  0  0
 61135  1  0  0  0
 62136  1  0  0  0
 62137  1  0  0  0
 62138  1  0  0  0
 63 65  1  0  0  0
 63139  1  0  0  0
 63140  1  0  0  0
 63141  1  0  0  0
 64142  1  0  0  0
 65143  1  0  0  0
 68 82  1  0  0  0
 71 73  2  0  0  0
 71 74  1  0  0  0
 71144  1  0  0  0
 72 73  1  0  0  0
 72 83  2  0  0  0
 72145  1  0  0  0
 73 77  1  0  0  0
 74 75  2  0  0  0
 74 78  1  0  0  0
 75 79  1  0  0  0
 75 83  1  0  0  0
 76 78  1  0  0  0
 76146  1  0  0  0
 76147  1  0  0  0
 76148  1  0  0  0
 77 80  1  0  0  0
 77149  1  0  0  0
 77150  1  0  0  0
 78151  1  0  0  0
 78152  1  0  0  0
 79 82  1  0  0  0
 79153  1  0  0  0
 79154  1  0  0  0
 80 81  1  0  0  0
 80155  1  0  0  0
 80156  1  0  0  0
 81 84  1  0  0  0
 81157  1  0  0  0
 81158  1  0  0  0
 82159  1  0  0  0
 82160  1  0  0  0
 84161  1  0  0  0
M  ISO  4   1 100  68 101  82 101  84 100
M  END
> <chiral flag>
0

> <version>
0

> <s_m_source_file>
/data/baiqing/PycharmProjects/Reinvent-master-3.2/result/LINK_invent/BTK/process_docking_weight1_custom_sum_contain_oxygen_bond_distance_aromatic_linkinvent_7_9_3/rearranged_h_0042.sdf

> <i_m_source_file_index>
68

> <r_mmod_Potential_Energy-OPLS-2005>
-168.00700378418

> <r_mmod_Stretch_Energy-OPLS-2005>
35.62109375

> <r_mmod_Bend_Energy-OPLS-2005>
108.163566589355

> <r_mmod_Torsional_Energy-OPLS-2005>
219.164596557617

> <r_mmod_Improper_Torsional_Energy-OPLS-2005>
3.36258411407471

> <r_mmod_Van_der_Waal_Energy-OPLS-2005>
157.458862304688

> <r_mmod_Electrostatic_Energy-OPLS-2005>
-484.608764648438

> <r_mmod_Solvation_Energy-OPLS-2005>
-220.302871704102

> <b_mmod_Minimization_Converged-OPLS-2005>
0

> <r_mmod_RMS_Derivative-OPLS-2005>
7.12017250061035

$$$$
69
                    3D
 Structure written by MMmdl.
172180  0  0  1  0            999 V2000
  -30.7699  -14.3817   20.6589 C   0  0  0  0  0  0
  -30.4108  -12.2890   19.4065 C   0  0  0  0  0  0
  -29.4868  -12.5208   18.1979 C   0  0  0  0  0  0
  -28.0099  -12.3820   18.6114 C   0  0  0  0  0  0
  -27.6639  -13.2085   19.8788 C   0  0  2  0  0  0
  -28.7019  -12.9671   20.9969 C   0  0  0  0  0  0
  -25.2586  -13.8167   20.5678 C   0  0  0  0  0  0
  -24.1838  -13.0443   20.9168 C   0  0  0  0  0  0
  -24.6390  -11.6909   20.8726 C   0  0  0  0  0  0
  -23.9060  -10.4294   21.0399 C   0  0  0  0  0  0
  -24.3609   -9.4213   21.9182 C   0  0  0  0  0  0
  -23.6285   -8.2251   22.0758 C   0  0  0  0  0  0
  -22.4273   -8.0282   21.3545 C   0  0  0  0  0  0
  -21.9907   -9.0251   20.4645 C   0  0  0  0  0  0
  -22.7234  -10.2130   20.3046 C   0  0  0  0  0  0
  -21.6856   -6.0736   22.5281 C   0  0  0  0  0  0
  -21.4017   -6.5639   23.8214 C   0  0  0  0  0  0
  -21.3654   -5.6794   24.9177 C   0  0  0  0  0  0
  -21.6047   -4.3057   24.7233 C   0  0  0  0  0  0
  -21.8816   -3.8145   23.4353 C   0  0  0  0  0  0
  -21.9193   -4.6963   22.3408 C   0  0  0  0  0  0
  -22.7858  -13.5238   21.1831 C   0  0  0  0  0  0
  -22.1659   -4.2147   21.0986 F   0  0  0  0  0  0
  -21.5625   -3.4541   25.7745 F   0  0  0  0  0  0
  -30.0418  -13.2527   20.4537 N   0  0  0  0  0  0
  -26.3030  -12.9343   20.3373 N   0  0  0  0  0  0
  -25.9318  -11.6499   20.5755 N   0  0  0  0  0  0
  -22.0490  -12.8230   22.0381 N   0  0  0  0  0  0
  -25.4314  -15.1889   20.4116 N   0  0  0  0  0  0
  -31.8215  -14.6203   20.0598 O   0  0  0  0  0  0
  -21.6642   -6.8876   21.4240 O   0  0  0  0  0  0
  -22.3550  -14.5557   20.6699 O   0  0  0  0  0  0
  -24.6131  -31.8673   23.2136 C   0  0  0  0  0  0
  -25.9024  -32.4830   23.8427 C   0  0  1  0  0  0
  -27.2403  -27.4574   20.0815 C   0  0  0  0  0  0
  -25.5902  -33.8631   24.2334 N   0  0  0  0  0  0
  -23.4023  -30.4912   21.5519 C   0  0  2  0  0  0
  -24.8465  -28.9571   20.1185 C   0  0  0  0  0  0
  -22.7407  -29.4642   22.4996 C   0  0  0  0  0  0
  -18.0266  -28.1373   22.8470 C   0  0  0  0  0  0
  -24.1488  -36.7315   23.2632 C   0  0  0  0  0  0
  -25.9302  -30.8344   21.3700 C   0  0  0  0  0  0
  -26.0042  -29.4728   20.7128 C   0  0  0  0  0  0
  -27.2019  -28.7287   20.6895 C   0  0  0  0  0  0
  -26.0632  -26.9489   19.4861 C   0  0  0  0  0  0
  -24.8686  -27.6926   19.5061 C   0  0  0  0  0  0
  -23.6097  -29.8237   20.1660 C   0  0  0  0  0  0
  -25.4110  -36.3117   24.0333 C   0  0  1  0  0  0
  -20.5856  -28.3644   23.1309 C   0  0  2  0  0  0
  -20.6760  -26.9384   22.5395 C   0  0  0  0  0  0
  -19.5739  -26.6383   21.5191 C   0  0  0  0  0  0
  -18.1914  -26.7925   22.1604 C   0  0  0  0  0  0
  -19.1519  -28.8828   23.2885 C   0  0  0  0  0  0
  -18.9451  -30.1438   23.8893 C   0  0  0  0  0  0
  -17.6453  -30.6570   24.0564 C   0  0  0  0  0  0
  -25.9038  -34.9478   23.5127 C   0  0  0  0  0  0
  -16.5339  -29.9067   23.6341 C   0  0  0  0  0  0
  -16.7258  -28.6497   23.0333 C   0  0  0  0  0  0
  -26.4468  -31.6637   25.0768 C   0  0  0  0  0  0
  -25.3749  -31.3744   26.1532 C   0  0  0  0  0  0
  -27.0317  -30.3089   24.6163 C   0  0  0  0  0  0
  -27.6021  -32.4389   25.7539 C   0  0  0  0  0  0
  -27.5577  -37.1817   24.8459 C   0  0  0  0  0  0
  -21.4133  -29.3021   22.3730 N   0  0  0  0  0  0
  -26.4302  -37.3797   23.9396 N   0  0  0  0  0  0
  -24.6657  -31.0788   22.1039 N   0  0  0  0  0  0
  -23.4179  -28.8164   23.3016 O   0  0  0  0  0  0
  -28.4460  -26.7943   20.0508 O   0  0  0  0  0  0
  -26.5584  -34.8922   22.4678 O   0  0  0  0  0  0
  -23.5324  -32.1418   23.7546 O   0  0  0  0  0  0
  -30.3032  -21.9496   22.1322 C   0  0  0  0  0  0
  -29.3983  -20.8639   22.1961 C   0  0  0  0  0  0
  -28.5351  -23.4039   21.7464 C   0  0  0  0  0  0
  -27.6071  -22.3115   21.7911 C   0  0  0  0  0  0
  -31.8017  -21.7899   22.3192 C   0  0  0  0  0  0
  -25.6185  -23.2387   20.4335 C   0  0  0  0  0  0
  -25.4703  -23.0239   22.9642 C   0  0  0  0  0  0
  -25.3972  -21.0382   21.4791 C   0  0  0  0  0  0
  -29.8511  -19.4285   22.4392 C   0  0  0  0  0  0
  -28.1862  -24.8764   21.5499 C   0  0  0  0  0  0
  -29.8533  -18.5708   21.1544 C   0  0  0  0  0  0
  -31.0396  -17.5915   21.0672 C   0  0  0  0  0  0
  -31.0020  -16.4165   22.0718 C   0  0  0  0  0  0
  -28.4642  -25.3678   20.1148 C   0  0  0  0  0  0
  -26.0614  -22.4275   21.6708 C   0  0  0  0  0  0
  -29.8683  -23.2078   21.9120 N   0  0  0  0  0  0
  -28.0687  -21.0551   22.0383 N   0  0  0  0  0  0
  -30.2885  -15.2361   21.5746 N   0  0  0  0  0  0
  -31.4564  -12.3734   19.1068 H   0  0  0  0  0  0
  -30.2969  -11.2726   19.7859 H   0  0  0  0  0  0
  -29.7221  -11.8112   17.4038 H   0  0  0  0  0  0
  -29.6626  -13.5150   17.7840 H   0  0  0  0  0  0
  -27.8147  -11.3245   18.7928 H   0  0  0  0  0  0
  -27.3603  -12.6724   17.7853 H   0  0  0  0  0  0
  -27.7175  -14.2615   19.5997 H   0  0  0  0  0  0
  -28.6625  -11.9286   21.3300 H   0  0  0  0  0  0
  -28.4564  -13.5606   21.8775 H   0  0  0  0  0  0
  -25.2750   -9.5704   22.4762 H   0  0  0  0  0  0
  -23.9998   -7.4652   22.7482 H   0  0  0  0  0  0
  -21.0842   -8.8765   19.8949 H   0  0  0  0  0  0
  -22.3690  -10.9666   19.6153 H   0  0  0  0  0  0
  -21.2009   -7.6147   23.9720 H   0  0  0  0  0  0
  -21.1477   -6.0523   25.9081 H   0  0  0  0  0  0
  -22.0599   -2.7608   23.2859 H   0  0  0  0  0  0
  -22.4085  -11.9877   22.4760 H   0  0  0  0  0  0
  -21.1102  -13.1252   22.2566 H   0  0  0  0  0  0
  -24.6691  -15.8482   20.5279 H   0  0  0  0  0  0
  -26.2935  -15.6289   20.1136 H   0  0  0  0  0  0
  -26.7076  -32.5554   23.1174 H   0  0  0  0  0  0
  -25.0136  -33.9813   25.0535 H   0  0  0  0  0  0
  -22.6936  -31.3092   21.4111 H   0  0  0  0  0  0
  -23.3759  -35.9644   23.3324 H   0  0  0  0  0  0
  -24.3576  -36.8919   22.2043 H   0  0  0  0  0  0
  -23.7238  -37.6522   23.6641 H   0  0  0  0  0  0
  -26.0520  -31.6068   20.6101 H   0  0  0  0  0  0
  -26.8144  -30.8767   21.9954 H   0  0  0  0  0  0
  -28.1034  -29.1249   21.1343 H   0  0  0  0  0  0
  -26.0544  -26.0001   18.9732 H   0  0  0  0  0  0
  -23.9779  -27.2962   19.0371 H   0  0  0  0  0  0
  -23.7259  -30.5997   19.4086 H   0  0  0  0  0  0
  -22.7344  -29.2439   19.8662 H   0  0  0  0  0  0
  -25.1287  -36.1995   25.0833 H   0  0  0  0  0  0
  -20.9944  -28.3191   24.1432 H   0  0  0  0  0  0
  -20.5666  -26.2235   23.3565 H   0  0  0  0  0  0
  -21.6627  -26.7429   22.1186 H   0  0  0  0  0  0
  -19.6905  -25.6304   21.1198 H   0  0  0  0  0  0
  -19.6695  -27.3209   20.6735 H   0  0  0  0  0  0
  -17.4186  -26.6669   21.3992 H   0  0  0  0  0  0
  -18.0307  -26.0068   22.9004 H   0  0  0  0  0  0
  -19.7940  -30.7239   24.2260 H   0  0  0  0  0  0
  -17.5021  -31.6251   24.5157 H   0  0  0  0  0  0
  -15.5340  -30.2952   23.7700 H   0  0  0  0  0  0
  -15.8667  -28.0832   22.7013 H   0  0  0  0  0  0
  -24.5886  -30.7126   25.7879 H   0  0  0  0  0  0
  -24.8979  -32.2902   26.5035 H   0  0  0  0  0  0
  -25.8119  -30.8871   27.0260 H   0  0  0  0  0  0
  -26.2869  -29.6855   24.1195 H   0  0  0  0  0  0
  -27.4056  -29.7334   25.4643 H   0  0  0  0  0  0
  -27.8725  -30.4426   23.9351 H   0  0  0  0  0  0
  -27.2601  -33.3665   26.2154 H   0  0  0  0  0  0
  -28.3816  -32.7015   25.0372 H   0  0  0  0  0  0
  -28.0720  -31.8520   26.5446 H   0  0  0  0  0  0
  -28.2593  -38.0112   24.7514 H   0  0  0  0  0  0
  -28.1079  -36.2647   24.6292 H   0  0  0  0  0  0
  -27.2295  -37.1481   25.8861 H   0  0  0  0  0  0
  -20.9291  -29.8799   21.7011 H   0  0  0  0  0  0
  -26.0200  -38.2879   24.1414 H   0  0  0  0  0  0
  -32.1990  -21.0393   21.6352 H   0  0  0  0  0  0
  -32.0229  -21.4813   23.3407 H   0  0  0  0  0  0
  -32.3330  -22.7245   22.1360 H   0  0  0  0  0  0
  -25.8333  -24.2966   20.5048 H   0  0  0  0  0  0
  -24.5391  -23.1847   20.2912 H   0  0  0  0  0  0
  -26.0883  -22.8635   19.5235 H   0  0  0  0  0  0
  -25.8534  -24.0175   23.1869 H   0  0  0  0  0  0
  -25.6980  -22.3930   23.8243 H   0  0  0  0  0  0
  -24.3855  -23.1090   22.9004 H   0  0  0  0  0  0
  -25.7771  -20.5311   20.5913 H   0  0  0  0  0  0
  -24.3161  -21.1238   21.3663 H   0  0  0  0  0  0
  -25.5660  -20.3832   22.3356 H   0  0  0  0  0  0
  -29.1990  -18.9771   23.1875 H   0  0  0  0  0  0
  -30.8402  -19.4321   22.8955 H   0  0  0  0  0  0
  -28.8144  -25.4481   22.2340 H   0  0  0  0  0  0
  -27.1782  -25.1138   21.8708 H   0  0  0  0  0  0
  -29.9280  -19.2362   20.2924 H   0  0  0  0  0  0
  -28.8989  -18.0555   21.0410 H   0  0  0  0  0  0
  -31.9584  -18.1596   21.2280 H   0  0  0  0  0  0
  -31.1233  -17.2168   20.0456 H   0  0  0  0  0  0
  -30.5644  -16.7318   23.0194 H   0  0  0  0  0  0
  -32.0257  -16.1197   22.3083 H   0  0  0  0  0  0
  -27.8194  -24.8890   19.3796 H   0  0  0  0  0  0
  -29.4755  -25.0722   19.8346 H   0  0  0  0  0  0
  -29.4234  -14.9826   22.0291 H   0  0  0  0  0  0
  1 25  1  0  0  0
  1 30  2  0  0  0
  1 88  1  0  0  0
  2  3  1  0  0  0
  2 25  1  0  0  0
  2 89  1  0  0  0
  2 90  1  0  0  0
  3  4  1  0  0  0
  3 91  1  0  0  0
  3 92  1  0  0  0
  4  5  1  0  0  0
  4 93  1  0  0  0
  4 94  1  0  0  0
  5  6  1  0  0  0
  5 26  1  0  0  0
  5 95  1  0  0  0
  6 25  1  0  0  0
  6 96  1  0  0  0
  6 97  1  0  0  0
  7  8  2  0  0  0
  7 26  1  0  0  0
  7 29  1  0  0  0
  8  9  1  0  0  0
  8 22  1  0  0  0
  9 10  1  0  0  0
  9 27  2  0  0  0
 10 11  2  0  0  0
 10 15  1  0  0  0
 11 12  1  0  0  0
 11 98  1  0  0  0
 12 13  2  0  0  0
 12 99  1  0  0  0
 13 14  1  0  0  0
 13 31  1  0  0  0
 14 15  2  0  0  0
 14100  1  0  0  0
 15101  1  0  0  0
 16 17  2  0  0  0
 16 21  1  0  0  0
 16 31  1  0  0  0
 17 18  1  0  0  0
 17102  1  0  0  0
 18 19  2  0  0  0
 18103  1  0  0  0
 19 20  1  0  0  0
 19 24  1  0  0  0
 20 21  2  0  0  0
 20104  1  0  0  0
 21 23  1  0  0  0
 22 28  1  0  0  0
 22 32  2  0  0  0
 26 27  1  0  0  0
 28105  1  0  0  0
 28106  1  0  0  0
 29107  1  0  0  0
 29108  1  0  0  0
 33 34  1  0  0  0
 33 66  1  0  0  0
 33 70  2  0  0  0
 34 36  1  0  0  0
 34 59  1  0  0  0
 34109  1  0  0  0
 35 44  2  0  0  0
 35 45  1  0  0  0
 35 68  1  0  0  0
 36 56  1  0  0  0
 36110  1  0  0  0
 37 39  1  0  0  0
 37 47  1  0  0  0
 37 66  1  0  0  0
 37111  1  0  0  0
 38 43  2  0  0  0
 38 46  1  0  0  0
 38 47  1  0  0  0
 39 64  1  0  0  0
 39 67  2  0  0  0
 40 52  1  0  0  0
 40 53  2  0  0  0
 40 58  1  0  0  0
 41112  1  0  0  0
 41113  1  0  0  0
 41114  1  0  0  0
 41 48  1  0  0  0
 42 43  1  0  0  0
 42 66  1  0  0  0
 42115  1  0  0  0
 42116  1  0  0  0
 43 44  1  0  0  0
 44117  1  0  0  0
 45 46  2  0  0  0
 45118  1  0  0  0
 46119  1  0  0  0
 47120  1  0  0  0
 47121  1  0  0  0
 48 56  1  0  0  0
 48 65  1  0  0  0
 48122  1  0  0  0
 49 50  1  0  0  0
 49 53  1  0  0  0
 49 64  1  0  0  0
 49123  1  0  0  0
 50 51  1  0  0  0
 50124  1  0  0  0
 50125  1  0  0  0
 51 52  1  0  0  0
 51126  1  0  0  0
 51127  1  0  0  0
 52128  1  0  0  0
 52129  1  0  0  0
 53 54  1  0  0  0
 54 55  2  0  0  0
 54130  1  0  0  0
 55 57  1  0  0  0
 55131  1  0  0  0
 56 69  2  0  0  0
 57 58  2  0  0  0
 57132  1  0  0  0
 58133  1  0  0  0
 59 60  1  0  0  0
 59 61  1  0  0  0
 59 62  1  0  0  0
 60134  1  0  0  0
 60135  1  0  0  0
 60136  1  0  0  0
 61137  1  0  0  0
 61138  1  0  0  0
 61139  1  0  0  0
 62140  1  0  0  0
 62141  1  0  0  0
 62142  1  0  0  0
 63 65  1  0  0  0
 63143  1  0  0  0
 63144  1  0  0  0
 63145  1  0  0  0
 64146  1  0  0  0
 65147  1  0  0  0
 68 84  1  0  0  0
 71 72  2  0  0  0
 71 75  1  0  0  0
 71 86  1  0  0  0
 72 79  1  0  0  0
 72 87  1  0  0  0
 73 74  1  0  0  0
 73 80  1  0  0  0
 73 86  2  0  0  0
 74 85  1  0  0  0
 74 87  2  0  0  0
 75148  1  0  0  0
 75149  1  0  0  0
 75150  1  0  0  0
 76151  1  0  0  0
 76152  1  0  0  0
 76153  1  0  0  0
 76 85  1  0  0  0
 77 85  1  0  0  0
 77154  1  0  0  0
 77155  1  0  0  0
 77156  1  0  0  0
 78 85  1  0  0  0
 78157  1  0  0  0
 78158  1  0  0  0
 78159  1  0  0  0
 79 81  1  0  0  0
 79160  1  0  0  0
 79161  1  0  0  0
 80 84  1  0  0  0
 80162  1  0  0  0
 80163  1  0  0  0
 81 82  1  0  0  0
 81164  1  0  0  0
 81165  1  0  0  0
 82 83  1  0  0  0
 82166  1  0  0  0
 82167  1  0  0  0
 83 88  1  0  0  0
 83168  1  0  0  0
 83169  1  0  0  0
 84170  1  0  0  0
 84171  1  0  0  0
 88172  1  0  0  0
M  ISO  4   1 100  68 101  84 101  88 100
M  END
> <chiral flag>
0

> <version>
0

> <s_m_source_file>
/data/baiqing/PycharmProjects/Reinvent-master-3.2/result/LINK_invent/BTK/process_docking_weight1_custom_sum_contain_oxygen_bond_distance_aromatic_linkinvent_7_9_3/rearranged_h_0042.sdf

> <i_m_source_file_index>
69

> <r_mmod_Potential_Energy-OPLS-2005>
-42.1753692626953

> <r_mmod_Stretch_Energy-OPLS-2005>
40.0281105041504

> <r_mmod_Bend_Energy-OPLS-2005>
118.630790710449

> <r_mmod_Torsional_Energy-OPLS-2005>
197.428619384766

> <r_mmod_Improper_Torsional_Energy-OPLS-2005>
1.98867332935333

> <r_mmod_Van_der_Waal_Energy-OPLS-2005>
166.50048828125

> <r_mmod_Electrostatic_Energy-OPLS-2005>
-365.879455566406

> <r_mmod_Solvation_Energy-OPLS-2005>
-209.076370239258

> <b_mmod_Minimization_Converged-OPLS-2005>
0

> <r_mmod_RMS_Derivative-OPLS-2005>
2.06737017631531

$$$$
70
                    3D
 Structure written by MMmdl.
162170  0  0  1  0            999 V2000
  -30.7666  -14.3578   20.6184 C   0  0  0  0  0  0
  -30.3995  -12.2471   19.4148 C   0  0  0  0  0  0
  -29.4785  -12.5088   18.2083 C   0  0  0  0  0  0
  -28.0040  -12.3686   18.6215 C   0  0  0  0  0  0
  -27.6660  -13.1982   19.8881 C   0  0  2  0  0  0
  -28.7031  -12.9598   21.0106 C   0  0  0  0  0  0
  -25.2603  -13.8136   20.5725 C   0  0  0  0  0  0
  -24.1820  -13.0417   20.9175 C   0  0  0  0  0  0
  -24.6353  -11.6889   20.8724 C   0  0  0  0  0  0
  -23.9018  -10.4268   21.0397 C   0  0  0  0  0  0
  -24.3576   -9.4191   21.9183 C   0  0  0  0  0  0
  -23.6281   -8.2211   22.0739 C   0  0  0  0  0  0
  -22.4260   -8.0252   21.3548 C   0  0  0  0  0  0
  -21.9893   -9.0204   20.4633 C   0  0  0  0  0  0
  -22.7195  -10.2098   20.3057 C   0  0  0  0  0  0
  -21.6831   -6.0737   22.5310 C   0  0  0  0  0  0
  -21.3999   -6.5656   23.8241 C   0  0  0  0  0  0
  -21.3643   -5.6809   24.9203 C   0  0  0  0  0  0
  -21.6026   -4.3066   24.7248 C   0  0  0  0  0  0
  -21.8806   -3.8153   23.4366 C   0  0  0  0  0  0
  -21.9185   -4.6968   22.3426 C   0  0  0  0  0  0
  -22.7846  -13.5225   21.1874 C   0  0  0  0  0  0
  -22.1681   -4.2132   21.1019 F   0  0  0  0  0  0
  -21.5611   -3.4571   25.7762 F   0  0  0  0  0  0
  -30.0509  -13.2165   20.4672 N   0  0  0  0  0  0
  -26.3038  -12.9287   20.3484 N   0  0  0  0  0  0
  -25.9278  -11.6445   20.5796 N   0  0  0  0  0  0
  -22.0498  -12.8174   22.0417 N   0  0  0  0  0  0
  -25.4348  -15.1832   20.4156 N   0  0  0  0  0  0
  -31.8076  -14.5870   19.9967 O   0  0  0  0  0  0
  -21.6628   -6.8856   21.4253 O   0  0  0  0  0  0
  -22.3523  -14.5553   20.6784 O   0  0  0  0  0  0
  -24.6086  -31.8732   23.2126 C   0  0  0  0  0  0
  -25.8997  -32.4852   23.8424 C   0  0  1  0  0  0
  -27.2368  -27.4797   20.0831 C   0  0  0  0  0  0
  -25.5882  -33.8645   24.2366 N   0  0  0  0  0  0
  -23.3946  -30.4968   21.5513 C   0  0  2  0  0  0
  -24.8412  -28.9702   20.1174 C   0  0  0  0  0  0
  -22.7387  -29.4681   22.4996 C   0  0  0  0  0  0
  -18.0267  -28.1364   22.8482 C   0  0  0  0  0  0
  -24.1491  -36.7318   23.2632 C   0  0  0  0  0  0
  -25.9198  -30.8532   21.3585 C   0  0  0  0  0  0
  -25.9996  -29.4910   20.7060 C   0  0  0  0  0  0
  -27.2009  -28.7534   20.6849 C   0  0  0  0  0  0
  -26.0562  -26.9605   19.4994 C   0  0  0  0  0  0
  -24.8628  -27.7032   19.5123 C   0  0  0  0  0  0
  -23.6001  -29.8276   20.1672 C   0  0  0  0  0  0
  -25.4107  -36.3124   24.0345 C   0  0  1  0  0  0
  -20.5853  -28.3644   23.1322 C   0  0  2  0  0  0
  -20.6755  -26.9383   22.5412 C   0  0  0  0  0  0
  -19.5736  -26.6376   21.5202 C   0  0  0  0  0  0
  -18.1912  -26.7917   22.1614 C   0  0  0  0  0  0
  -19.1511  -28.8821   23.2903 C   0  0  0  0  0  0
  -18.9443  -30.1428   23.8914 C   0  0  0  0  0  0
  -17.6442  -30.6571   24.0560 C   0  0  0  0  0  0
  -25.9034  -34.9486   23.5155 C   0  0  0  0  0  0
  -16.5334  -29.9073   23.6312 C   0  0  0  0  0  0
  -16.7256  -28.6487   23.0344 C   0  0  0  0  0  0
  -26.4455  -31.6601   25.0716 C   0  0  0  0  0  0
  -25.3737  -31.3666   26.1463 C   0  0  0  0  0  0
  -27.0290  -30.3053   24.6052 C   0  0  0  0  0  0
  -27.6055  -32.4291   25.7479 C   0  0  0  0  0  0
  -27.5594  -37.1802   24.8454 C   0  0  0  0  0  0
  -21.4120  -29.3025   22.3742 N   0  0  0  0  0  0
  -26.4295  -37.3804   23.9421 N   0  0  0  0  0  0
  -24.6591  -31.0879   22.0996 N   0  0  0  0  0  0
  -23.4181  -28.8209   23.3015 O   0  0  0  0  0  0
  -28.4279  -26.7936   20.0756 O   0  0  0  0  0  0
  -26.5577  -34.8925   22.4709 O   0  0  0  0  0  0
  -23.5289  -32.1453   23.7538 O   0  0  0  0  0  0
  -29.5420  -21.3911   21.5202 C   0  0  0  0  0  0
  -29.5639  -21.1414   20.1651 C   0  0  0  0  0  0
  -29.6679  -23.2987   20.5231 C   0  0  0  0  0  0
  -29.4602  -20.4461   22.6792 C   0  0  0  0  0  0
  -29.5045  -22.6181   18.0970 C   0  0  0  0  0  0
  -29.5312  -19.8316   19.4304 C   0  0  0  0  0  0
  -29.7275  -24.7771   20.3087 C   0  0  0  0  0  0
  -30.5068  -18.7846   20.0012 C   0  0  0  0  0  0
  -29.8163  -17.4890   20.4498 C   0  0  0  0  0  0
  -30.6702  -16.6742   21.4393 C   0  0  0  0  0  0
  -28.3405  -25.3745   20.0750 C   0  0  0  0  0  0
  -29.6230  -22.7561   21.7357 N   0  0  0  0  0  0
  -29.5783  -22.3867   19.5337 N   0  0  0  0  0  0
  -30.2448  -15.2761   21.4372 N   0  0  0  0  0  0
  -31.4460  -12.3088   19.1136 H   0  0  0  0  0  0
  -30.2624  -11.2297   19.7848 H   0  0  0  0  0  0
  -29.7074  -11.8172   17.3970 H   0  0  0  0  0  0
  -29.6573  -13.5127   17.8211 H   0  0  0  0  0  0
  -27.8147  -11.3128   18.8153 H   0  0  0  0  0  0
  -27.3466  -12.6494   17.7977 H   0  0  0  0  0  0
  -27.7236  -14.2478   19.6020 H   0  0  0  0  0  0
  -28.6473  -11.9329   21.3689 H   0  0  0  0  0  0
  -28.4673  -13.5755   21.8791 H   0  0  0  0  0  0
  -25.2709   -9.5691   22.4768 H   0  0  0  0  0  0
  -23.9995   -7.4591   22.7463 H   0  0  0  0  0  0
  -21.0836   -8.8672   19.8933 H   0  0  0  0  0  0
  -22.3618  -10.9623   19.6168 H   0  0  0  0  0  0
  -21.2002   -7.6159   23.9737 H   0  0  0  0  0  0
  -21.1493   -6.0565   25.9109 H   0  0  0  0  0  0
  -22.0594   -2.7610   23.2888 H   0  0  0  0  0  0
  -22.4159  -11.9827   22.4744 H   0  0  0  0  0  0
  -21.1113  -13.1139   22.2700 H   0  0  0  0  0  0
  -24.6667  -15.8392   20.5081 H   0  0  0  0  0  0
  -26.2990  -15.6185   20.1150 H   0  0  0  0  0  0
  -26.7076  -32.5598   23.1212 H   0  0  0  0  0  0
  -25.0064  -33.9831   25.0525 H   0  0  0  0  0  0
  -22.6792  -31.3093   21.4133 H   0  0  0  0  0  0
  -23.3770  -35.9632   23.3269 H   0  0  0  0  0  0
  -24.3602  -36.8954   22.2054 H   0  0  0  0  0  0
  -23.7212  -37.6502   23.6661 H   0  0  0  0  0  0
  -26.0277  -31.6207   20.5906 H   0  0  0  0  0  0
  -26.8094  -30.9081   21.9747 H   0  0  0  0  0  0
  -28.0993  -29.1566   21.1319 H   0  0  0  0  0  0
  -26.0365  -25.9963   19.0130 H   0  0  0  0  0  0
  -23.9723  -27.2972   19.0526 H   0  0  0  0  0  0
  -23.6975  -30.5972   19.4018 H   0  0  0  0  0  0
  -22.7291  -29.2365   19.8793 H   0  0  0  0  0  0
  -25.1277  -36.2014   25.0836 H   0  0  0  0  0  0
  -20.9957  -28.3217   24.1439 H   0  0  0  0  0  0
  -20.5657  -26.2256   23.3595 H   0  0  0  0  0  0
  -21.6632  -26.7427   22.1205 H   0  0  0  0  0  0
  -19.6901  -25.6299   21.1208 H   0  0  0  0  0  0
  -19.6683  -27.3208   20.6753 H   0  0  0  0  0  0
  -17.4189  -26.6655   21.4013 H   0  0  0  0  0  0
  -18.0316  -26.0057   22.9010 H   0  0  0  0  0  0
  -19.7921  -30.7227   24.2305 H   0  0  0  0  0  0
  -17.5001  -31.6255   24.5160 H   0  0  0  0  0  0
  -15.5337  -30.2982   23.7624 H   0  0  0  0  0  0
  -15.8655  -28.0809   22.7056 H   0  0  0  0  0  0
  -24.5923  -30.7014   25.7777 H   0  0  0  0  0  0
  -24.8912  -32.2805   26.4938 H   0  0  0  0  0  0
  -25.8089  -30.8805   27.0205 H   0  0  0  0  0  0
  -26.2827  -29.6807   24.1126 H   0  0  0  0  0  0
  -27.4112  -29.7282   25.4488 H   0  0  0  0  0  0
  -27.8641  -30.4386   23.9166 H   0  0  0  0  0  0
  -27.2704  -33.3583   26.2100 H   0  0  0  0  0  0
  -28.3847  -32.6852   25.0287 H   0  0  0  0  0  0
  -28.0747  -31.8378   26.5355 H   0  0  0  0  0  0
  -28.2570  -38.0138   24.7568 H   0  0  0  0  0  0
  -28.1133  -36.2678   24.6208 H   0  0  0  0  0  0
  -27.2319  -37.1354   25.8850 H   0  0  0  0  0  0
  -20.9266  -29.8781   21.6995 H   0  0  0  0  0  0
  -26.0196  -38.2884   24.1443 H   0  0  0  0  0  0
  -30.4476  -20.0836   22.9586 H   0  0  0  0  0  0
  -28.8406  -19.5820   22.4490 H   0  0  0  0  0  0
  -29.0289  -20.9293   23.5553 H   0  0  0  0  0  0
  -28.5780  -22.1912   17.7127 H   0  0  0  0  0  0
  -30.3458  -22.1442   17.5962 H   0  0  0  0  0  0
  -29.5135  -23.6797   17.8562 H   0  0  0  0  0  0
  -29.7596  -19.9744   18.3746 H   0  0  0  0  0  0
  -28.5092  -19.4539   19.4399 H   0  0  0  0  0  0
  -30.3969  -25.0083   19.4819 H   0  0  0  0  0  0
  -30.1743  -25.2342   21.1919 H   0  0  0  0  0  0
  -31.0781  -19.2030   20.8281 H   0  0  0  0  0  0
  -31.2573  -18.5385   19.2499 H   0  0  0  0  0  0
  -29.5849  -16.8986   19.5612 H   0  0  0  0  0  0
  -28.8580  -17.7135   20.9165 H   0  0  0  0  0  0
  -30.5765  -17.0743   22.4502 H   0  0  0  0  0  0
  -31.7272  -16.7572   21.1755 H   0  0  0  0  0  0
  -27.6641  -25.0542   20.8694 H   0  0  0  0  0  0
  -27.9494  -25.0030   19.1283 H   0  0  0  0  0  0
  -29.4334  -15.0240   21.9824 H   0  0  0  0  0  0
  1 25  1  0  0  0
  1 30  2  0  0  0
  1 84  1  0  0  0
  2  3  1  0  0  0
  2 25  1  0  0  0
  2 85  1  0  0  0
  2 86  1  0  0  0
  3  4  1  0  0  0
  3 87  1  0  0  0
  3 88  1  0  0  0
  4  5  1  0  0  0
  4 89  1  0  0  0
  4 90  1  0  0  0
  5  6  1  0  0  0
  5 26  1  0  0  0
  5 91  1  0  0  0
  6 25  1  0  0  0
  6 92  1  0  0  0
  6 93  1  0  0  0
  7  8  2  0  0  0
  7 26  1  0  0  0
  7 29  1  0  0  0
  8  9  1  0  0  0
  8 22  1  0  0  0
  9 10  1  0  0  0
  9 27  2  0  0  0
 10 11  2  0  0  0
 10 15  1  0  0  0
 11 12  1  0  0  0
 11 94  1  0  0  0
 12 13  2  0  0  0
 12 95  1  0  0  0
 13 14  1  0  0  0
 13 31  1  0  0  0
 14 15  2  0  0  0
 14 96  1  0  0  0
 15 97  1  0  0  0
 16 17  2  0  0  0
 16 21  1  0  0  0
 16 31  1  0  0  0
 17 18  1  0  0  0
 17 98  1  0  0  0
 18 19  2  0  0  0
 18 99  1  0  0  0
 19 20  1  0  0  0
 19 24  1  0  0  0
 20 21  2  0  0  0
 20100  1  0  0  0
 21 23  1  0  0  0
 22 28  1  0  0  0
 22 32  2  0  0  0
 26 27  1  0  0  0
 28101  1  0  0  0
 28102  1  0  0  0
 29103  1  0  0  0
 29104  1  0  0  0
 33 34  1  0  0  0
 33 66  1  0  0  0
 33 70  2  0  0  0
 34 36  1  0  0  0
 34 59  1  0  0  0
 34105  1  0  0  0
 35 44  2  0  0  0
 35 45  1  0  0  0
 35 68  1  0  0  0
 36 56  1  0  0  0
 36106  1  0  0  0
 37 39  1  0  0  0
 37 47  1  0  0  0
 37 66  1  0  0  0
 37107  1  0  0  0
 38 43  2  0  0  0
 38 46  1  0  0  0
 38 47  1  0  0  0
 39 64  1  0  0  0
 39 67  2  0  0  0
 40 52  1  0  0  0
 40 53  2  0  0  0
 40 58  1  0  0  0
 41108  1  0  0  0
 41109  1  0  0  0
 41110  1  0  0  0
 41 48  1  0  0  0
 42 43  1  0  0  0
 42 66  1  0  0  0
 42111  1  0  0  0
 42112  1  0  0  0
 43 44  1  0  0  0
 44113  1  0  0  0
 45 46  2  0  0  0
 45114  1  0  0  0
 46115  1  0  0  0
 47116  1  0  0  0
 47117  1  0  0  0
 48 56  1  0  0  0
 48 65  1  0  0  0
 48118  1  0  0  0
 49 50  1  0  0  0
 49 53  1  0  0  0
 49 64  1  0  0  0
 49119  1  0  0  0
 50 51  1  0  0  0
 50120  1  0  0  0
 50121  1  0  0  0
 51 52  1  0  0  0
 51122  1  0  0  0
 51123  1  0  0  0
 52124  1  0  0  0
 52125  1  0  0  0
 53 54  1  0  0  0
 54 55  2  0  0  0
 54126  1  0  0  0
 55 57  1  0  0  0
 55127  1  0  0  0
 56 69  2  0  0  0
 57 58  2  0  0  0
 57128  1  0  0  0
 58129  1  0  0  0
 59 60  1  0  0  0
 59 61  1  0  0  0
 59 62  1  0  0  0
 60130  1  0  0  0
 60131  1  0  0  0
 60132  1  0  0  0
 61133  1  0  0  0
 61134  1  0  0  0
 61135  1  0  0  0
 62136  1  0  0  0
 62137  1  0  0  0
 62138  1  0  0  0
 63 65  1  0  0  0
 63139  1  0  0  0
 63140  1  0  0  0
 63141  1  0  0  0
 64142  1  0  0  0
 65143  1  0  0  0
 68 81  1  0  0  0
 71 72  2  0  0  0
 71 74  1  0  0  0
 71 82  1  0  0  0
 72 76  1  0  0  0
 72 83  1  0  0  0
 73 77  1  0  0  0
 73 82  2  0  0  0
 73 83  1  0  0  0
 74144  1  0  0  0
 74145  1  0  0  0
 74146  1  0  0  0
 75 83  1  0  0  0
 75147  1  0  0  0
 75148  1  0  0  0
 75149  1  0  0  0
 76 78  1  0  0  0
 76150  1  0  0  0
 76151  1  0  0  0
 77 81  1  0  0  0
 77152  1  0  0  0
 77153  1  0  0  0
 78 79  1  0  0  0
 78154  1  0  0  0
 78155  1  0  0  0
 79 80  1  0  0  0
 79156  1  0  0  0
 79157  1  0  0  0
 80 84  1  0  0  0
 80158  1  0  0  0
 80159  1  0  0  0
 81160  1  0  0  0
 81161  1  0  0  0
 84162  1  0  0  0
M  ISO  4   1 100  68 101  81 101  84 100
M  END
> <chiral flag>
0

> <version>
0

> <s_m_source_file>
/data/baiqing/PycharmProjects/Reinvent-master-3.2/result/LINK_invent/BTK/process_docking_weight1_custom_sum_contain_oxygen_bond_distance_aromatic_linkinvent_7_9_3/rearranged_h_0042.sdf

> <i_m_source_file_index>
70

> <r_mmod_Potential_Energy-OPLS-2005>
-145.650283813477

> <r_mmod_Stretch_Energy-OPLS-2005>
30.5372428894043

> <r_mmod_Bend_Energy-OPLS-2005>
95.3008041381836

> <r_mmod_Torsional_Energy-OPLS-2005>
212.784576416016

> <r_mmod_Improper_Torsional_Energy-OPLS-2005>
2.5853476524353

> <r_mmod_Van_der_Waal_Energy-OPLS-2005>
138.486480712891

> <r_mmod_Electrostatic_Energy-OPLS-2005>
-407.080383300781

> <r_mmod_Solvation_Energy-OPLS-2005>
-226.72721862793

> <b_mmod_Minimization_Converged-OPLS-2005>
0

> <r_mmod_RMS_Derivative-OPLS-2005>
3.40738534927368

$$$$
71
                    3D
 Structure written by MMmdl.
159167  0  0  1  0            999 V2000
  -30.7594  -14.5165   20.6235 C   0  0  0  0  0  0
  -30.4657  -12.3384   19.4904 C   0  0  0  0  0  0
  -29.5218  -12.5061   18.2772 C   0  0  0  0  0  0
  -28.0393  -12.3776   18.6824 C   0  0  0  0  0  0
  -27.6864  -13.2372   19.9261 C   0  0  2  0  0  0
  -28.7402  -12.9970   21.0346 C   0  0  0  0  0  0
  -25.2645  -13.8249   20.5789 C   0  0  0  0  0  0
  -24.1841  -13.0432   20.9194 C   0  0  0  0  0  0
  -24.6439  -11.6939   20.8729 C   0  0  0  0  0  0
  -23.9088  -10.4281   21.0400 C   0  0  0  0  0  0
  -24.3573   -9.4170   21.9193 C   0  0  0  0  0  0
  -23.6215   -8.2228   22.0746 C   0  0  0  0  0  0
  -22.4223   -8.0271   21.3551 C   0  0  0  0  0  0
  -21.9866   -9.0245   20.4670 C   0  0  0  0  0  0
  -22.7238  -10.2098   20.3067 C   0  0  0  0  0  0
  -21.6878   -6.0689   22.5284 C   0  0  0  0  0  0
  -21.4145   -6.5636   23.8202 C   0  0  0  0  0  0
  -21.3652   -5.6788   24.9155 C   0  0  0  0  0  0
  -21.6002   -4.3044   24.7217 C   0  0  0  0  0  0
  -21.8814   -3.8106   23.4368 C   0  0  0  0  0  0
  -21.9185   -4.6910   22.3402 C   0  0  0  0  0  0
  -22.7858  -13.5246   21.1755 C   0  0  0  0  0  0
  -22.1641   -4.2088   21.0976 F   0  0  0  0  0  0
  -21.5500   -3.4522   25.7725 F   0  0  0  0  0  0
  -30.0678  -13.3422   20.4879 N   0  0  0  0  0  0
  -26.3193  -12.9478   20.3696 N   0  0  0  0  0  0
  -25.9412  -11.6598   20.5957 N   0  0  0  0  0  0
  -22.0547  -12.8232   22.0380 N   0  0  0  0  0  0
  -25.4254  -15.1930   20.4163 N   0  0  0  0  0  0
  -31.8466  -14.6733   20.0577 O   0  0  0  0  0  0
  -21.6654   -6.8834   21.4238 O   0  0  0  0  0  0
  -22.3483  -14.5483   20.6567 O   0  0  0  0  0  0
  -24.6125  -31.8751   23.2083 C   0  0  0  0  0  0
  -25.9052  -32.4847   23.8387 C   0  0  1  0  0  0
  -27.2667  -27.4846   20.0470 C   0  0  0  0  0  0
  -25.5919  -33.8639   24.2344 N   0  0  0  0  0  0
  -23.3996  -30.4991   21.5457 C   0  0  2  0  0  0
  -24.8490  -28.9532   20.1260 C   0  0  0  0  0  0
  -22.7409  -29.4782   22.4992 C   0  0  0  0  0  0
  -18.0317  -28.1435   22.8454 C   0  0  0  0  0  0
  -24.1497  -36.7303   23.2626 C   0  0  0  0  0  0
  -25.9173  -30.8554   21.3472 C   0  0  0  0  0  0
  -26.0079  -29.4854   20.7038 C   0  0  0  0  0  0
  -27.2215  -28.7624   20.6572 C   0  0  0  0  0  0
  -26.0868  -26.9459   19.4975 C   0  0  0  0  0  0
  -24.8771  -27.6781   19.5328 C   0  0  0  0  0  0
  -23.6080  -29.8213   20.1654 C   0  0  0  0  0  0
  -25.4102  -36.3101   24.0324 C   0  0  1  0  0  0
  -20.5891  -28.3750   23.1304 C   0  0  2  0  0  0
  -20.6801  -26.9499   22.5403 C   0  0  0  0  0  0
  -19.5783  -26.6456   21.5207 C   0  0  0  0  0  0
  -18.1960  -26.7974   22.1617 C   0  0  0  0  0  0
  -19.1545  -28.8899   23.2892 C   0  0  0  0  0  0
  -18.9468  -30.1471   23.8954 C   0  0  0  0  0  0
  -17.6462  -30.6619   24.0593 C   0  0  0  0  0  0
  -25.9022  -34.9482   23.5117 C   0  0  0  0  0  0
  -16.5356  -29.9116   23.6311 C   0  0  0  0  0  0
  -16.7299  -28.6550   23.0290 C   0  0  0  0  0  0
  -26.4499  -31.6593   25.0684 C   0  0  0  0  0  0
  -25.3777  -31.3657   26.1413 C   0  0  0  0  0  0
  -27.0289  -30.3038   24.5997 C   0  0  0  0  0  0
  -27.6126  -32.4266   25.7434 C   0  0  0  0  0  0
  -27.5576  -37.1808   24.8469 C   0  0  0  0  0  0
  -21.4159  -29.3099   22.3677 N   0  0  0  0  0  0
  -26.4303  -37.3774   23.9403 N   0  0  0  0  0  0
  -24.6616  -31.0881   22.0948 N   0  0  0  0  0  0
  -23.4170  -28.8381   23.3107 O   0  0  0  0  0  0
  -28.4650  -26.8202   19.9057 O   0  0  0  0  0  0
  -26.5559  -34.8915   22.4664 O   0  0  0  0  0  0
  -23.5340  -32.1511   23.7493 O   0  0  0  0  0  0
  -26.9834  -19.4212   20.4917 C   0  0  0  0  0  0
  -29.1194  -20.4943   20.8085 C   0  0  0  0  0  0
  -28.3432  -19.3009   20.8763 C   0  0  0  0  0  0
  -26.4513  -20.6834   20.1179 C   0  0  0  0  0  0
  -28.5089  -21.7305   20.4432 C   0  0  0  0  0  0
  -24.9769  -20.8912   19.7580 C   0  0  0  0  0  0
  -28.8767  -17.9738   21.5013 C   0  0  0  0  0  0
  -29.2004  -23.0864   20.6910 C   0  0  0  0  0  0
  -30.2446  -15.7338   21.4453 C   0  0  0  0  0  0
  -29.6672  -16.9429   20.6076 C   0  0  0  0  0  0
  -28.7708  -24.3315   19.8277 C   0  0  0  0  0  0
  -28.6567  -25.6325   20.6745 C   0  0  0  0  0  0
  -27.1991  -21.8059   20.1221 N   0  0  0  0  0  0
  -31.5147  -12.4412   19.2022 H   0  0  0  0  0  0
  -30.3861  -11.3455   19.9349 H   0  0  0  0  0  0
  -29.7757  -11.7777   17.5062 H   0  0  0  0  0  0
  -29.6845  -13.4984   17.8641 H   0  0  0  0  0  0
  -27.8540  -11.3270   18.9049 H   0  0  0  0  0  0
  -27.3855  -12.6356   17.8471 H   0  0  0  0  0  0
  -27.7378  -14.2879   19.6410 H   0  0  0  0  0  0
  -28.7190  -11.9299   21.2748 H   0  0  0  0  0  0
  -28.5193  -13.4971   21.9777 H   0  0  0  0  0  0
  -25.2673   -9.5555   22.4785 H   0  0  0  0  0  0
  -23.9848   -7.4616   22.7461 H   0  0  0  0  0  0
  -21.0783   -8.8769   19.9005 H   0  0  0  0  0  0
  -22.3708  -10.9570   19.6128 H   0  0  0  0  0  0
  -21.2385   -7.6171   23.9701 H   0  0  0  0  0  0
  -21.1419   -6.0547   25.9049 H   0  0  0  0  0  0
  -22.0619   -2.7567   23.2893 H   0  0  0  0  0  0
  -22.4281  -11.9915   22.4712 H   0  0  0  0  0  0
  -21.1230  -13.1235   22.2797 H   0  0  0  0  0  0
  -24.6584  -15.8449   20.5415 H   0  0  0  0  0  0
  -26.2748  -15.6246   20.0706 H   0  0  0  0  0  0
  -26.7103  -32.5586   23.1157 H   0  0  0  0  0  0
  -25.0097  -33.9799   25.0503 H   0  0  0  0  0  0
  -22.6866  -31.3135   21.4072 H   0  0  0  0  0  0
  -23.3750  -35.9651   23.3306 H   0  0  0  0  0  0
  -24.3619  -36.8889   22.2047 H   0  0  0  0  0  0
  -23.7270  -37.6514   23.6623 H   0  0  0  0  0  0
  -25.9908  -31.6220   20.5750 H   0  0  0  0  0  0
  -26.8137  -30.9304   21.9474 H   0  0  0  0  0  0
  -28.1279  -29.1997   21.0532 H   0  0  0  0  0  0
  -26.1120  -25.9825   19.0020 H   0  0  0  0  0  0
  -23.9807  -27.2561   19.0966 H   0  0  0  0  0  0
  -23.7109  -30.5914   19.3972 H   0  0  0  0  0  0
  -22.7355  -29.2382   19.8735 H   0  0  0  0  0  0
  -25.1305  -36.1937   25.0814 H   0  0  0  0  0  0
  -21.0014  -28.3292   24.1417 H   0  0  0  0  0  0
  -20.5749  -26.2387   23.3594 H   0  0  0  0  0  0
  -21.6670  -26.7558   22.1193 H   0  0  0  0  0  0
  -19.6957  -25.6388   21.1191 H   0  0  0  0  0  0
  -19.6653  -27.3318   20.6766 H   0  0  0  0  0  0
  -17.4237  -26.6729   21.3994 H   0  0  0  0  0  0
  -18.0342  -26.0127   22.9028 H   0  0  0  0  0  0
  -19.7914  -30.7271   24.2377 H   0  0  0  0  0  0
  -17.4995  -31.6300   24.5199 H   0  0  0  0  0  0
  -15.5353  -30.3031   23.7586 H   0  0  0  0  0  0
  -15.8711  -28.0901   22.6926 H   0  0  0  0  0  0
  -24.5999  -30.6961   25.7685 H   0  0  0  0  0  0
  -24.8913  -32.2791   26.4836 H   0  0  0  0  0  0
  -25.8117  -30.8823   27.0162 H   0  0  0  0  0  0
  -26.2768  -29.6829   24.1086 H   0  0  0  0  0  0
  -27.4089  -29.7236   25.4411 H   0  0  0  0  0  0
  -27.8599  -30.4340   23.9062 H   0  0  0  0  0  0
  -27.2809  -33.3547   26.2059 H   0  0  0  0  0  0
  -28.3899  -32.6814   25.0237 H   0  0  0  0  0  0
  -28.0814  -31.8347   26.5293 H   0  0  0  0  0  0
  -28.2617  -38.0085   24.7509 H   0  0  0  0  0  0
  -28.1057  -36.2627   24.6313 H   0  0  0  0  0  0
  -27.2317  -37.1472   25.8881 H   0  0  0  0  0  0
  -20.9352  -29.8726   21.6778 H   0  0  0  0  0  0
  -26.0184  -38.2843   24.1401 H   0  0  0  0  0  0
  -26.3387  -18.5493   20.5141 H   0  0  0  0  0  0
  -30.1568  -20.4886   21.1166 H   0  0  0  0  0  0
  -24.8281  -21.2260   18.7262 H   0  0  0  0  0  0
  -24.5126  -21.6389   20.4034 H   0  0  0  0  0  0
  -24.3998  -19.9760   19.8845 H   0  0  0  0  0  0
  -28.0032  -17.4275   21.8561 H   0  0  0  0  0  0
  -29.4179  -18.2080   22.4264 H   0  0  0  0  0  0
  -30.2826  -22.9611   20.6347 H   0  0  0  0  0  0
  -29.0037  -23.3066   21.7368 H   0  0  0  0  0  0
  -29.5578  -15.4147   22.2261 H   0  0  0  0  0  0
  -31.1077  -16.1076   22.0071 H   0  0  0  0  0  0
  -30.5047  -17.4129   20.0814 H   0  0  0  0  0  0
  -28.9887  -16.5843   19.8269 H   0  0  0  0  0  0
  -27.8054  -24.1781   19.3475 H   0  0  0  0  0  0
  -29.4740  -24.4780   19.0087 H   0  0  0  0  0  0
  -29.5868  -25.7938   21.2191 H   0  0  0  0  0  0
  -27.8774  -25.5428   21.4333 H   0  0  0  0  0  0
  1 25  1  0  0  0
  1 30  2  0  0  0
  1 79  1  0  0  0
  2  3  1  0  0  0
  2 25  1  0  0  0
  2 84  1  0  0  0
  2 85  1  0  0  0
  3  4  1  0  0  0
  3 86  1  0  0  0
  3 87  1  0  0  0
  4  5  1  0  0  0
  4 88  1  0  0  0
  4 89  1  0  0  0
  5  6  1  0  0  0
  5 26  1  0  0  0
  5 90  1  0  0  0
  6 25  1  0  0  0
  6 91  1  0  0  0
  6 92  1  0  0  0
  7  8  2  0  0  0
  7 26  1  0  0  0
  7 29  1  0  0  0
  8  9  1  0  0  0
  8 22  1  0  0  0
  9 10  1  0  0  0
  9 27  2  0  0  0
 10 11  2  0  0  0
 10 15  1  0  0  0
 11 12  1  0  0  0
 11 93  1  0  0  0
 12 13  2  0  0  0
 12 94  1  0  0  0
 13 14  1  0  0  0
 13 31  1  0  0  0
 14 15  2  0  0  0
 14 95  1  0  0  0
 15 96  1  0  0  0
 16 17  2  0  0  0
 16 21  1  0  0  0
 16 31  1  0  0  0
 17 18  1  0  0  0
 17 97  1  0  0  0
 18 19  2  0  0  0
 18 98  1  0  0  0
 19 20  1  0  0  0
 19 24  1  0  0  0
 20 21  2  0  0  0
 20 99  1  0  0  0
 21 23  1  0  0  0
 22 28  1  0  0  0
 22 32  2  0  0  0
 26 27  1  0  0  0
 28100  1  0  0  0
 28101  1  0  0  0
 29102  1  0  0  0
 29103  1  0  0  0
 33 34  1  0  0  0
 33 66  1  0  0  0
 33 70  2  0  0  0
 34 36  1  0  0  0
 34 59  1  0  0  0
 34104  1  0  0  0
 35 44  2  0  0  0
 35 45  1  0  0  0
 35 68  1  0  0  0
 36 56  1  0  0  0
 36105  1  0  0  0
 37 39  1  0  0  0
 37 47  1  0  0  0
 37 66  1  0  0  0
 37106  1  0  0  0
 38 43  2  0  0  0
 38 46  1  0  0  0
 38 47  1  0  0  0
 39 64  1  0  0  0
 39 67  2  0  0  0
 40 52  1  0  0  0
 40 53  2  0  0  0
 40 58  1  0  0  0
 41107  1  0  0  0
 41108  1  0  0  0
 41109  1  0  0  0
 41 48  1  0  0  0
 42 43  1  0  0  0
 42 66  1  0  0  0
 42110  1  0  0  0
 42111  1  0  0  0
 43 44  1  0  0  0
 44112  1  0  0  0
 45 46  2  0  0  0
 45113  1  0  0  0
 46114  1  0  0  0
 47115  1  0  0  0
 47116  1  0  0  0
 48 56  1  0  0  0
 48 65  1  0  0  0
 48117  1  0  0  0
 49 50  1  0  0  0
 49 53  1  0  0  0
 49 64  1  0  0  0
 49118  1  0  0  0
 50 51  1  0  0  0
 50119  1  0  0  0
 50120  1  0  0  0
 51 52  1  0  0  0
 51121  1  0  0  0
 51122  1  0  0  0
 52123  1  0  0  0
 52124  1  0  0  0
 53 54  1  0  0  0
 54 55  2  0  0  0
 54125  1  0  0  0
 55 57  1  0  0  0
 55126  1  0  0  0
 56 69  2  0  0  0
 57 58  2  0  0  0
 57127  1  0  0  0
 58128  1  0  0  0
 59 60  1  0  0  0
 59 61  1  0  0  0
 59 62  1  0  0  0
 60129  1  0  0  0
 60130  1  0  0  0
 60131  1  0  0  0
 61132  1  0  0  0
 61133  1  0  0  0
 61134  1  0  0  0
 62135  1  0  0  0
 62136  1  0  0  0
 62137  1  0  0  0
 63 65  1  0  0  0
 63138  1  0  0  0
 63139  1  0  0  0
 63140  1  0  0  0
 64141  1  0  0  0
 65142  1  0  0  0
 68 82  1  0  0  0
 71 73  2  0  0  0
 71 74  1  0  0  0
 71143  1  0  0  0
 72 73  1  0  0  0
 72 75  2  0  0  0
 72144  1  0  0  0
 73 77  1  0  0  0
 74 76  1  0  0  0
 74 83  2  0  0  0
 75 78  1  0  0  0
 75 83  1  0  0  0
 76145  1  0  0  0
 76146  1  0  0  0
 76147  1  0  0  0
 77 80  1  0  0  0
 77148  1  0  0  0
 77149  1  0  0  0
 78 81  1  0  0  0
 78150  1  0  0  0
 78151  1  0  0  0
 79 80  1  0  0  0
 79152  1  0  0  0
 79153  1  0  0  0
 80154  1  0  0  0
 80155  1  0  0  0
 81 82  1  0  0  0
 81156  1  0  0  0
 81157  1  0  0  0
 82158  1  0  0  0
 82159  1  0  0  0
M  ISO  4   1 100  68 101  79 100  82 101
M  END
> <chiral flag>
0

> <version>
0

> <s_m_source_file>
/data/baiqing/PycharmProjects/Reinvent-master-3.2/result/LINK_invent/BTK/process_docking_weight1_custom_sum_contain_oxygen_bond_distance_aromatic_linkinvent_7_9_3/rearranged_h_0042.sdf

> <i_m_source_file_index>
71

> <r_mmod_Potential_Energy-OPLS-2005>
-164.359313964844

> <r_mmod_Stretch_Energy-OPLS-2005>
52.2538299560547

> <r_mmod_Bend_Energy-OPLS-2005>
120.538467407227

> <r_mmod_Torsional_Energy-OPLS-2005>
211.052947998047

> <r_mmod_Improper_Torsional_Energy-OPLS-2005>
4.56683588027954

> <r_mmod_Van_der_Waal_Energy-OPLS-2005>
140.26530456543

> <r_mmod_Electrostatic_Energy-OPLS-2005>
-509.107849121094

> <r_mmod_Solvation_Energy-OPLS-2005>
-202.796112060547

> <b_mmod_Minimization_Converged-OPLS-2005>
0

> <r_mmod_RMS_Derivative-OPLS-2005>
12.5092544555664

$$$$
72
                    3D
 Structure written by MMmdl.
174182  0  0  1  0            999 V2000
  -30.7457  -14.3768   20.6642 C   0  0  0  0  0  0
  -30.4172  -12.2826   19.3966 C   0  0  0  0  0  0
  -29.4859  -12.5218   18.1935 C   0  0  0  0  0  0
  -28.0090  -12.3809   18.6101 C   0  0  0  0  0  0
  -27.6674  -13.2010   19.8830 C   0  0  2  0  0  0
  -28.7082  -12.9439   20.9968 C   0  0  0  0  0  0
  -25.2613  -13.8149   20.5681 C   0  0  0  0  0  0
  -24.1853  -13.0433   20.9169 C   0  0  0  0  0  0
  -24.6396  -11.6901   20.8735 C   0  0  0  0  0  0
  -23.9058  -10.4289   21.0401 C   0  0  0  0  0  0
  -24.3611   -9.4206   21.9181 C   0  0  0  0  0  0
  -23.6288   -8.2244   22.0754 C   0  0  0  0  0  0
  -22.4272   -8.0281   21.3543 C   0  0  0  0  0  0
  -21.9904   -9.0253   20.4647 C   0  0  0  0  0  0
  -22.7231  -10.2131   20.3052 C   0  0  0  0  0  0
  -21.6855   -6.0735   22.5278 C   0  0  0  0  0  0
  -21.4016   -6.5638   23.8211 C   0  0  0  0  0  0
  -21.3658   -5.6792   24.9173 C   0  0  0  0  0  0
  -21.6044   -4.3055   24.7225 C   0  0  0  0  0  0
  -21.8820   -3.8145   23.4347 C   0  0  0  0  0  0
  -21.9192   -4.6962   22.3402 C   0  0  0  0  0  0
  -22.7877  -13.5240   21.1835 C   0  0  0  0  0  0
  -22.1662   -4.2149   21.0981 F   0  0  0  0  0  0
  -21.5626   -3.4539   25.7736 F   0  0  0  0  0  0
  -30.0439  -13.2345   20.4517 N   0  0  0  0  0  0
  -26.3056  -12.9315   20.3399 N   0  0  0  0  0  0
  -25.9324  -11.6476   20.5773 N   0  0  0  0  0  0
  -22.0511  -12.8235   22.0390 N   0  0  0  0  0  0
  -25.4347  -15.1866   20.4083 N   0  0  0  0  0  0
  -31.8072  -14.6127   20.0774 O   0  0  0  0  0  0
  -21.6638   -6.8878   21.4240 O   0  0  0  0  0  0
  -22.3570  -14.5552   20.6689 O   0  0  0  0  0  0
  -24.6086  -31.8708   23.2124 C   0  0  0  0  0  0
  -25.8991  -32.4840   23.8406 C   0  0  1  0  0  0
  -27.2469  -27.4755   20.1074 C   0  0  0  0  0  0
  -25.5866  -33.8634   24.2341 N   0  0  0  0  0  0
  -23.3943  -30.4946   21.5493 C   0  0  2  0  0  0
  -24.8451  -28.9618   20.1158 C   0  0  0  0  0  0
  -22.7384  -29.4668   22.4986 C   0  0  0  0  0  0
  -18.0274  -28.1367   22.8492 C   0  0  0  0  0  0
  -24.1482  -36.7338   23.2643 C   0  0  0  0  0  0
  -25.9150  -30.8548   21.3530 C   0  0  0  0  0  0
  -25.9975  -29.4873   20.7123 C   0  0  0  0  0  0
  -27.1997  -28.7534   20.7098 C   0  0  0  0  0  0
  -26.0835  -26.9631   19.4967 C   0  0  0  0  0  0
  -24.8802  -27.6954   19.5048 C   0  0  0  0  0  0
  -23.6038  -29.8238   20.1632 C   0  0  0  0  0  0
  -25.4095  -36.3125   24.0347 C   0  0  1  0  0  0
  -20.5866  -28.3648   23.1330 C   0  0  2  0  0  0
  -20.6766  -26.9388   22.5424 C   0  0  0  0  0  0
  -19.5743  -26.6388   21.5216 C   0  0  0  0  0  0
  -18.1920  -26.7919   22.1618 C   0  0  0  0  0  0
  -19.1524  -28.8825   23.2913 C   0  0  0  0  0  0
  -18.9454  -30.1435   23.8916 C   0  0  0  0  0  0
  -17.6458  -30.6581   24.0564 C   0  0  0  0  0  0
  -25.9015  -34.9489   23.5141 C   0  0  0  0  0  0
  -16.5349  -29.9083   23.6326 C   0  0  0  0  0  0
  -16.7262  -28.6499   23.0342 C   0  0  0  0  0  0
  -26.4453  -31.6601   25.0706 C   0  0  0  0  0  0
  -25.3744  -31.3706   26.1482 C   0  0  0  0  0  0
  -27.0287  -30.3065   24.6013 C   0  0  0  0  0  0
  -27.6024  -32.4317   25.7475 C   0  0  0  0  0  0
  -27.5575  -37.1819   24.8465 C   0  0  0  0  0  0
  -21.4115  -29.3021   22.3731 N   0  0  0  0  0  0
  -26.4285  -37.3806   23.9415 N   0  0  0  0  0  0
  -24.6575  -31.0860   22.0988 N   0  0  0  0  0  0
  -23.4188  -28.8205   23.3000 O   0  0  0  0  0  0
  -28.3788  -26.6954   20.0621 O   0  0  0  0  0  0
  -26.5590  -34.8933   22.4707 O   0  0  0  0  0  0
  -23.5284  -32.1430   23.7554 O   0  0  0  0  0  0
  -29.6827  -24.7913   22.7864 C   0  0  0  0  0  0
  -30.0817  -23.4100   22.6916 C   0  0  0  0  0  0
  -29.6343  -25.3794   21.5437 C   0  0  0  0  0  0
  -30.5773  -26.2216   24.6678 C   0  0  0  0  0  0
  -29.2641  -18.4849   21.2755 C   0  0  0  0  0  0
  -29.3577  -25.5130   24.0695 C   0  0  0  0  0  0
  -30.2725  -22.4586   23.8433 C   0  0  0  0  0  0
  -29.2966  -26.7872   21.1517 C   0  0  0  0  0  0
  -30.1862  -15.4377   21.6283 C   0  0  0  0  0  0
  -31.7534  -22.0923   24.0620 C   0  0  0  0  0  0
  -31.9833  -21.0910   25.2121 C   0  0  0  0  0  0
  -32.5612  -19.7234   24.7927 C   0  0  0  0  0  0
  -31.5499  -18.7230   24.1977 C   0  0  0  0  0  0
  -30.9989  -16.7552   21.6139 C   0  0  0  0  0  0
  -31.2031  -18.9549   22.7146 C   0  0  0  0  0  0
  -30.2898  -22.9554   21.4710 N   0  0  0  0  0  0
  -30.2748  -17.9144   22.2006 N   0  3  1  0  0  0
  -30.0681  -24.1920   20.3619 S   0  0  0  0  0  0
  -31.4612  -12.3774   19.0931 H   0  0  0  0  0  0
  -30.3098  -11.2613   19.7649 H   0  0  0  0  0  0
  -29.7174  -11.8192   17.3921 H   0  0  0  0  0  0
  -29.6603  -13.5191   17.7868 H   0  0  0  0  0  0
  -27.8123  -11.3230   18.7869 H   0  0  0  0  0  0
  -27.3569  -12.6770   17.7873 H   0  0  0  0  0  0
  -27.7252  -14.2549   19.6103 H   0  0  0  0  0  0
  -28.6695  -11.9012   21.3165 H   0  0  0  0  0  0
  -28.4693  -13.5234   21.8883 H   0  0  0  0  0  0
  -25.2758   -9.5684   22.4753 H   0  0  0  0  0  0
  -23.9998   -7.4637   22.7473 H   0  0  0  0  0  0
  -21.0836   -8.8772   19.8953 H   0  0  0  0  0  0
  -22.3691  -10.9671   19.6160 H   0  0  0  0  0  0
  -21.2012   -7.6147   23.9715 H   0  0  0  0  0  0
  -21.1479   -6.0522   25.9077 H   0  0  0  0  0  0
  -22.0600   -2.7608   23.2847 H   0  0  0  0  0  0
  -22.4121  -11.9887   22.4768 H   0  0  0  0  0  0
  -21.1131  -13.1270   22.2596 H   0  0  0  0  0  0
  -24.6656  -15.8412   20.5049 H   0  0  0  0  0  0
  -26.2855  -15.6220   20.0748 H   0  0  0  0  0  0
  -26.7066  -32.5593   23.1186 H   0  0  0  0  0  0
  -25.0001  -33.9803   25.0470 H   0  0  0  0  0  0
  -22.6787  -31.3080   21.4088 H   0  0  0  0  0  0
  -23.3727  -35.9687   23.3317 H   0  0  0  0  0  0
  -24.3575  -36.8941   22.2055 H   0  0  0  0  0  0
  -23.7249  -37.6552   23.6644 H   0  0  0  0  0  0
  -26.0073  -31.6140   20.5749 H   0  0  0  0  0  0
  -26.8113  -30.9265   21.9567 H   0  0  0  0  0  0
  -28.0823  -29.1846   21.1600 H   0  0  0  0  0  0
  -26.1111  -25.9917   19.0241 H   0  0  0  0  0  0
  -23.9959  -27.2837   19.0365 H   0  0  0  0  0  0
  -23.7119  -30.5986   19.4033 H   0  0  0  0  0  0
  -22.7298  -29.2420   19.8641 H   0  0  0  0  0  0
  -25.1265  -36.2002   25.0841 H   0  0  0  0  0  0
  -20.9966  -28.3214   24.1445 H   0  0  0  0  0  0
  -20.5675  -26.2242   23.3598 H   0  0  0  0  0  0
  -21.6633  -26.7439   22.1203 H   0  0  0  0  0  0
  -19.6909  -25.6310   21.1216 H   0  0  0  0  0  0
  -19.6694  -27.3212   20.6758 H   0  0  0  0  0  0
  -17.4195  -26.6681   21.4014 H   0  0  0  0  0  0
  -18.0312  -26.0055   22.9008 H   0  0  0  0  0  0
  -19.7940  -30.7249   24.2277 H   0  0  0  0  0  0
  -17.5023  -31.6261   24.5166 H   0  0  0  0  0  0
  -15.5351  -30.2993   23.7642 H   0  0  0  0  0  0
  -15.8661  -28.0834   22.7030 H   0  0  0  0  0  0
  -24.5906  -30.7052   25.7855 H   0  0  0  0  0  0
  -24.8947  -32.2865   26.4941 H   0  0  0  0  0  0
  -25.8130  -30.8888   27.0229 H   0  0  0  0  0  0
  -26.2813  -29.6823   24.1098 H   0  0  0  0  0  0
  -27.4163  -29.7297   25.4421 H   0  0  0  0  0  0
  -27.8591  -30.4432   23.9081 H   0  0  0  0  0  0
  -27.2623  -33.3596   26.2083 H   0  0  0  0  0  0
  -28.3818  -32.6913   25.0302 H   0  0  0  0  0  0
  -28.0695  -31.8422   26.5376 H   0  0  0  0  0  0
  -28.2597  -38.0114   24.7497 H   0  0  0  0  0  0
  -28.1066  -36.2639   24.6289 H   0  0  0  0  0  0
  -27.2296  -37.1477   25.8873 H   0  0  0  0  0  0
  -20.9247  -29.8770   21.6996 H   0  0  0  0  0  0
  -26.0183  -38.2888   24.1421 H   0  0  0  0  0  0
  -31.0016  -26.9445   23.9710 H   0  0  0  0  0  0
  -31.3595  -25.5084   24.9286 H   0  0  0  0  0  0
  -30.3035  -26.7597   25.5750 H   0  0  0  0  0  0
  -28.5506  -17.7348   20.9384 H   0  0  0  0  0  0
  -29.7377  -18.9193   20.3940 H   0  0  0  0  0  0
  -28.6873  -19.2680   21.7688 H   0  0  0  0  0  0
  -28.5627  -26.2412   23.9124 H   0  0  0  0  0  0
  -28.9388  -24.8300   24.8070 H   0  0  0  0  0  0
  -29.6772  -21.5609   23.6817 H   0  0  0  0  0  0
  -29.8829  -22.8803   24.7673 H   0  0  0  0  0  0
  -28.8977  -27.3222   22.0117 H   0  0  0  0  0  0
  -30.1924  -27.3168   20.8285 H   0  0  0  0  0  0
  -29.1552  -15.6308   21.3381 H   0  0  0  0  0  0
  -30.1628  -15.0267   22.6381 H   0  0  0  0  0  0
  -32.2978  -23.0113   24.2816 H   0  0  0  0  0  0
  -32.1925  -21.7169   23.1378 H   0  0  0  0  0  0
  -31.0756  -20.9522   25.8008 H   0  0  0  0  0  0
  -32.6953  -21.5457   25.9031 H   0  0  0  0  0  0
  -32.9708  -19.2634   25.6939 H   0  0  0  0  0  0
  -33.4153  -19.8503   24.1264 H   0  0  0  0  0  0
  -30.6413  -18.7236   24.8022 H   0  0  0  0  0  0
  -31.9755  -17.7237   24.3009 H   0  0  0  0  0  0
  -31.3017  -17.0254   20.6003 H   0  0  0  0  0  0
  -31.9249  -16.5794   22.1633 H   0  0  0  0  0  0
  -32.1062  -18.9908   22.1026 H   0  0  0  0  0  0
  -30.7447  -19.9340   22.6065 H   0  0  0  0  0  0
  -29.7647  -17.5804   23.0045 H   0  0  0  0  0  0
  1 25  1  0  0  0
  1 30  2  0  0  0
  1 79  1  0  0  0
  2  3  1  0  0  0
  2 25  1  0  0  0
  2 89  1  0  0  0
  2 90  1  0  0  0
  3  4  1  0  0  0
  3 91  1  0  0  0
  3 92  1  0  0  0
  4  5  1  0  0  0
  4 93  1  0  0  0
  4 94  1  0  0  0
  5  6  1  0  0  0
  5 26  1  0  0  0
  5 95  1  0  0  0
  6 25  1  0  0  0
  6 96  1  0  0  0
  6 97  1  0  0  0
  7  8  2  0  0  0
  7 26  1  0  0  0
  7 29  1  0  0  0
  8  9  1  0  0  0
  8 22  1  0  0  0
  9 10  1  0  0  0
  9 27  2  0  0  0
 10 11  2  0  0  0
 10 15  1  0  0  0
 11 12  1  0  0  0
 11 98  1  0  0  0
 12 13  2  0  0  0
 12 99  1  0  0  0
 13 14  1  0  0  0
 13 31  1  0  0  0
 14 15  2  0  0  0
 14100  1  0  0  0
 15101  1  0  0  0
 16 17  2  0  0  0
 16 21  1  0  0  0
 16 31  1  0  0  0
 17 18  1  0  0  0
 17102  1  0  0  0
 18 19  2  0  0  0
 18103  1  0  0  0
 19 20  1  0  0  0
 19 24  1  0  0  0
 20 21  2  0  0  0
 20104  1  0  0  0
 21 23  1  0  0  0
 22 28  1  0  0  0
 22 32  2  0  0  0
 26 27  1  0  0  0
 28105  1  0  0  0
 28106  1  0  0  0
 29107  1  0  0  0
 29108  1  0  0  0
 33 34  1  0  0  0
 33 66  1  0  0  0
 33 70  2  0  0  0
 34 36  1  0  0  0
 34 59  1  0  0  0
 34109  1  0  0  0
 35 44  2  0  0  0
 35 45  1  0  0  0
 35 68  1  0  0  0
 36 56  1  0  0  0
 36110  1  0  0  0
 37 39  1  0  0  0
 37 47  1  0  0  0
 37 66  1  0  0  0
 37111  1  0  0  0
 38 43  2  0  0  0
 38 46  1  0  0  0
 38 47  1  0  0  0
 39 64  1  0  0  0
 39 67  2  0  0  0
 40 52  1  0  0  0
 40 53  2  0  0  0
 40 58  1  0  0  0
 41112  1  0  0  0
 41113  1  0  0  0
 41114  1  0  0  0
 41 48  1  0  0  0
 42 43  1  0  0  0
 42 66  1  0  0  0
 42115  1  0  0  0
 42116  1  0  0  0
 43 44  1  0  0  0
 44117  1  0  0  0
 45 46  2  0  0  0
 45118  1  0  0  0
 46119  1  0  0  0
 47120  1  0  0  0
 47121  1  0  0  0
 48 56  1  0  0  0
 48 65  1  0  0  0
 48122  1  0  0  0
 49 50  1  0  0  0
 49 53  1  0  0  0
 49 64  1  0  0  0
 49123  1  0  0  0
 50 51  1  0  0  0
 50124  1  0  0  0
 50125  1  0  0  0
 51 52  1  0  0  0
 51126  1  0  0  0
 51127  1  0  0  0
 52128  1  0  0  0
 52129  1  0  0  0
 53 54  1  0  0  0
 54 55  2  0  0  0
 54130  1  0  0  0
 55 57  1  0  0  0
 55131  1  0  0  0
 56 69  2  0  0  0
 57 58  2  0  0  0
 57132  1  0  0  0
 58133  1  0  0  0
 59 60  1  0  0  0
 59 61  1  0  0  0
 59 62  1  0  0  0
 60134  1  0  0  0
 60135  1  0  0  0
 60136  1  0  0  0
 61137  1  0  0  0
 61138  1  0  0  0
 61139  1  0  0  0
 62140  1  0  0  0
 62141  1  0  0  0
 62142  1  0  0  0
 63 65  1  0  0  0
 63143  1  0  0  0
 63144  1  0  0  0
 63145  1  0  0  0
 64146  1  0  0  0
 65147  1  0  0  0
 68 78  1  0  0  0
 71 72  1  0  0  0
 71 73  2  0  0  0
 71 76  1  0  0  0
 72 77  1  0  0  0
 72 86  2  0  0  0
 73 78  1  0  0  0
 73 88  1  0  0  0
 74 76  1  0  0  0
 74148  1  0  0  0
 74149  1  0  0  0
 74150  1  0  0  0
 75151  1  0  0  0
 75152  1  0  0  0
 75153  1  0  0  0
 75 87  1  0  0  0
 76154  1  0  0  0
 76155  1  0  0  0
 77 80  1  0  0  0
 77156  1  0  0  0
 77157  1  0  0  0
 78158  1  0  0  0
 78159  1  0  0  0
 79 84  1  0  0  0
 79160  1  0  0  0
 79161  1  0  0  0
 80 81  1  0  0  0
 80162  1  0  0  0
 80163  1  0  0  0
 81 82  1  0  0  0
 81164  1  0  0  0
 81165  1  0  0  0
 82 83  1  0  0  0
 82166  1  0  0  0
 82167  1  0  0  0
 83 85  1  0  0  0
 83168  1  0  0  0
 83169  1  0  0  0
 84 87  1  0  0  0
 84170  1  0  0  0
 84171  1  0  0  0
 85 87  1  0  0  0
 85172  1  0  0  0
 85173  1  0  0  0
 86 88  1  0  0  0
 87174  1  0  0  0
M  CHG  1  87   1
M  ISO  4   1 100  68 101  78 101  79 100
M  END
> <chiral flag>
0

> <version>
0

> <s_m_source_file>
/data/baiqing/PycharmProjects/Reinvent-master-3.2/result/LINK_invent/BTK/process_docking_weight1_custom_sum_contain_oxygen_bond_distance_aromatic_linkinvent_7_9_3/rearranged_h_0042.sdf

> <i_m_source_file_index>
72

> <r_mmod_Potential_Energy-OPLS-2005>
-167.622253417969

> <r_mmod_Stretch_Energy-OPLS-2005>
32.9561996459961

> <r_mmod_Bend_Energy-OPLS-2005>
101.528045654297

> <r_mmod_Torsional_Energy-OPLS-2005>
200.496826171875

> <r_mmod_Improper_Torsional_Energy-OPLS-2005>
1.8977028131485

> <r_mmod_Van_der_Waal_Energy-OPLS-2005>
128.553131103516

> <r_mmod_Electrostatic_Energy-OPLS-2005>
-223.737930297852

> <r_mmod_Solvation_Energy-OPLS-2005>
-415.722686767578

> <b_mmod_Minimization_Converged-OPLS-2005>
0

> <r_mmod_RMS_Derivative-OPLS-2005>
1.40452253818512

$$$$
73
                    3D
 Structure written by MMmdl.
170178  0  0  1  0            999 V2000
  -30.6993  -14.4222   20.5859 C   0  0  0  0  0  0
  -30.4255  -12.2761   19.4182 C   0  0  0  0  0  0
  -29.4954  -12.5045   18.2064 C   0  0  0  0  0  0
  -28.0166  -12.3710   18.6177 C   0  0  0  0  0  0
  -27.6679  -13.1971   19.8847 C   0  0  2  0  0  0
  -28.7063  -12.9420   21.0047 C   0  0  0  0  0  0
  -25.2597  -13.8136   20.5656 C   0  0  0  0  0  0
  -24.1845  -13.0430   20.9178 C   0  0  0  0  0  0
  -24.6405  -11.6901   20.8728 C   0  0  0  0  0  0
  -23.9070  -10.4302   21.0404 C   0  0  0  0  0  0
  -24.3606   -9.4204   21.9175 C   0  0  0  0  0  0
  -23.6274   -8.2247   22.0746 C   0  0  0  0  0  0
  -22.4257   -8.0307   21.3541 C   0  0  0  0  0  0
  -21.9905   -9.0271   20.4627 C   0  0  0  0  0  0
  -22.7248  -10.2144   20.3046 C   0  0  0  0  0  0
  -21.6861   -6.0745   22.5283 C   0  0  0  0  0  0
  -21.4042   -6.5645   23.8221 C   0  0  0  0  0  0
  -21.3650   -5.6778   24.9169 C   0  0  0  0  0  0
  -21.6038   -4.3046   24.7218 C   0  0  0  0  0  0
  -21.8821   -3.8148   23.4338 C   0  0  0  0  0  0
  -21.9188   -4.6972   22.3394 C   0  0  0  0  0  0
  -22.7878  -13.5246   21.1831 C   0  0  0  0  0  0
  -22.1663   -4.2162   21.0975 F   0  0  0  0  0  0
  -21.5586   -3.4517   25.7728 F   0  0  0  0  0  0
  -30.0480  -13.2369   20.4647 N   0  0  0  0  0  0
  -26.3043  -12.9294   20.3380 N   0  0  0  0  0  0
  -25.9321  -11.6463   20.5755 N   0  0  0  0  0  0
  -22.0527  -12.8224   22.0399 N   0  0  0  0  0  0
  -25.4273  -15.1842   20.4003 N   0  0  0  0  0  0
  -31.7992  -14.6585   20.0762 O   0  0  0  0  0  0
  -21.6626   -6.8897   21.4256 O   0  0  0  0  0  0
  -22.3548  -14.5540   20.6670 O   0  0  0  0  0  0
  -24.6090  -31.8692   23.2117 C   0  0  0  0  0  0
  -25.8996  -32.4831   23.8402 C   0  0  1  0  0  0
  -27.2532  -27.4772   20.1048 C   0  0  0  0  0  0
  -25.5872  -33.8625   24.2341 N   0  0  0  0  0  0
  -23.3968  -30.4895   21.5488 C   0  0  2  0  0  0
  -24.8499  -28.9594   20.1123 C   0  0  0  0  0  0
  -22.7378  -29.4654   22.5001 C   0  0  0  0  0  0
  -18.0261  -28.1372   22.8500 C   0  0  0  0  0  0
  -24.1485  -36.7321   23.2643 C   0  0  0  0  0  0
  -25.9172  -30.8524   21.3545 C   0  0  0  0  0  0
  -26.0010  -29.4880   20.7083 C   0  0  0  0  0  0
  -27.2038  -28.7565   20.7019 C   0  0  0  0  0  0
  -26.0953  -26.9582   19.4922 C   0  0  0  0  0  0
  -24.8900  -27.6917   19.5000 C   0  0  0  0  0  0
  -23.6042  -29.8156   20.1639 C   0  0  0  0  0  0
  -25.4105  -36.3113   24.0347 C   0  0  1  0  0  0
  -20.5841  -28.3648   23.1338 C   0  0  2  0  0  0
  -20.6754  -26.9391   22.5432 C   0  0  0  0  0  0
  -19.5733  -26.6385   21.5216 C   0  0  0  0  0  0
  -18.1906  -26.7926   22.1622 C   0  0  0  0  0  0
  -19.1510  -28.8831   23.2912 C   0  0  0  0  0  0
  -18.9444  -30.1436   23.8921 C   0  0  0  0  0  0
  -17.6452  -30.6581   24.0571 C   0  0  0  0  0  0
  -25.9027  -34.9475   23.5147 C   0  0  0  0  0  0
  -16.5340  -29.9088   23.6329 C   0  0  0  0  0  0
  -16.7254  -28.6503   23.0350 C   0  0  0  0  0  0
  -26.4452  -31.6594   25.0701 C   0  0  0  0  0  0
  -25.3748  -31.3688   26.1470 C   0  0  0  0  0  0
  -27.0281  -30.3053   24.6025 C   0  0  0  0  0  0
  -27.6038  -32.4298   25.7455 C   0  0  0  0  0  0
  -27.5581  -37.1803   24.8461 C   0  0  0  0  0  0
  -21.4110  -29.3015   22.3745 N   0  0  0  0  0  0
  -26.4293  -37.3795   23.9415 N   0  0  0  0  0  0
  -24.6593  -31.0836   22.0986 N   0  0  0  0  0  0
  -23.4169  -28.8212   23.3048 O   0  0  0  0  0  0
  -28.4071  -26.7299   20.1075 O   0  0  0  0  0  0
  -26.5585  -34.8933   22.4702 O   0  0  0  0  0  0
  -23.5287  -32.1424   23.7536 O   0  0  0  0  0  0
  -31.4130  -21.1944   19.5637 C   0  0  0  0  0  0
  -30.4469  -20.2054   19.3123 C   0  0  0  0  0  0
  -29.5865  -19.8130   20.3696 C   0  0  0  0  0  0
  -31.5139  -21.7514   20.8477 C   0  0  0  0  0  0
  -29.7747  -20.4239   21.6356 C   0  0  0  0  0  0
  -30.3537  -19.6157   17.9149 C   0  0  0  0  0  0
  -28.8997  -20.1056   22.8344 C   0  0  0  0  0  0
  -28.4555  -18.8060   20.1303 C   0  0  0  0  0  0
  -32.5526  -22.8234   21.1495 C   0  0  0  0  0  0
  -28.6224  -17.4119   20.7718 C   0  0  0  0  0  0
  -31.9857  -24.1511   21.6942 C   0  0  0  0  0  0
  -30.7821  -24.7326   20.9246 C   0  0  0  0  0  0
  -30.3760  -26.1156   21.4677 C   0  0  0  0  0  0
  -30.0440  -16.8164   20.7884 C   0  0  0  0  0  0
  -28.8689  -26.4073   21.4216 C   0  0  0  0  0  0
  -30.7298  -21.3501   21.8697 N   0  0  0  0  0  0
  -29.9598  -15.3951   21.1326 N   0  0  0  0  0  0
  -31.4698  -12.3818   19.1202 H   0  0  0  0  0  0
  -30.3238  -11.2560   19.7938 H   0  0  0  0  0  0
  -29.7213  -11.7878   17.4159 H   0  0  0  0  0  0
  -29.6738  -13.4920   17.7795 H   0  0  0  0  0  0
  -27.8236  -11.3132   18.7993 H   0  0  0  0  0  0
  -27.3655  -12.6575   17.7930 H   0  0  0  0  0  0
  -27.7239  -14.2494   19.6025 H   0  0  0  0  0  0
  -28.6695  -11.9017   21.3342 H   0  0  0  0  0  0
  -28.4709  -13.5223   21.8982 H   0  0  0  0  0  0
  -25.2763   -9.5644   22.4715 H   0  0  0  0  0  0
  -23.9961   -7.4619   22.7443 H   0  0  0  0  0  0
  -21.0840   -8.8802   19.8911 H   0  0  0  0  0  0
  -22.3738  -10.9666   19.6118 H   0  0  0  0  0  0
  -21.2113   -7.6163   23.9739 H   0  0  0  0  0  0
  -21.1433   -6.0508   25.9063 H   0  0  0  0  0  0
  -22.0604   -2.7623   23.2821 H   0  0  0  0  0  0
  -22.4199  -11.9925   22.4816 H   0  0  0  0  0  0
  -21.1116  -13.1185   22.2566 H   0  0  0  0  0  0
  -24.6507  -15.8289   20.5018 H   0  0  0  0  0  0
  -26.2520  -15.6137   20.0031 H   0  0  0  0  0  0
  -26.7079  -32.5577   23.1182 H   0  0  0  0  0  0
  -25.0020  -33.9803   25.0484 H   0  0  0  0  0  0
  -22.6829  -31.3036   21.4079 H   0  0  0  0  0  0
  -23.3734  -35.9661   23.3307 H   0  0  0  0  0  0
  -24.3589  -36.8927   22.2055 H   0  0  0  0  0  0
  -23.7238  -37.6536   23.6650 H   0  0  0  0  0  0
  -26.0166  -31.6169   20.5826 H   0  0  0  0  0  0
  -26.8096  -30.9152   21.9647 H   0  0  0  0  0  0
  -28.0919  -29.1754   21.1536 H   0  0  0  0  0  0
  -26.1255  -25.9835   19.0246 H   0  0  0  0  0  0
  -24.0072  -27.2767   19.0327 H   0  0  0  0  0  0
  -23.7039  -30.5885   19.4009 H   0  0  0  0  0  0
  -22.7324  -29.2253   19.8735 H   0  0  0  0  0  0
  -25.1270  -36.1986   25.0839 H   0  0  0  0  0  0
  -20.9937  -28.3213   24.1451 H   0  0  0  0  0  0
  -20.5658  -26.2254   23.3611 H   0  0  0  0  0  0
  -21.6631  -26.7439   22.1222 H   0  0  0  0  0  0
  -19.6909  -25.6301   21.1224 H   0  0  0  0  0  0
  -19.6688  -27.3217   20.6762 H   0  0  0  0  0  0
  -17.4190  -26.6675   21.4010 H   0  0  0  0  0  0
  -18.0302  -26.0050   22.9003 H   0  0  0  0  0  0
  -19.7929  -30.7234   24.2299 H   0  0  0  0  0  0
  -17.5018  -31.6267   24.5161 H   0  0  0  0  0  0
  -15.5350  -30.3006   23.7643 H   0  0  0  0  0  0
  -15.8644  -28.0837   22.7057 H   0  0  0  0  0  0
  -24.5909  -30.7039   25.7825 H   0  0  0  0  0  0
  -24.8956  -32.2846   26.4946 H   0  0  0  0  0  0
  -25.8128  -30.8849   27.0211 H   0  0  0  0  0  0
  -26.2807  -29.6805   24.1120 H   0  0  0  0  0  0
  -27.4131  -29.7281   25.4445 H   0  0  0  0  0  0
  -27.8600  -30.4401   23.9107 H   0  0  0  0  0  0
  -27.2662  -33.3574   26.2091 H   0  0  0  0  0  0
  -28.3815  -32.6893   25.0259 H   0  0  0  0  0  0
  -28.0742  -31.8386   26.5323 H   0  0  0  0  0  0
  -28.2590  -38.0111   24.7520 H   0  0  0  0  0  0
  -28.1086  -36.2636   24.6258 H   0  0  0  0  0  0
  -27.2313  -37.1429   25.8873 H   0  0  0  0  0  0
  -20.9260  -29.8730   21.6968 H   0  0  0  0  0  0
  -26.0177  -38.2874   24.1424 H   0  0  0  0  0  0
  -32.0771  -21.5237   18.7762 H   0  0  0  0  0  0
  -31.1863  -19.9425   17.2917 H   0  0  0  0  0  0
  -29.4299  -19.9285   17.4269 H   0  0  0  0  0  0
  -30.3831  -18.5265   17.9451 H   0  0  0  0  0  0
  -27.8406  -20.1859   22.5891 H   0  0  0  0  0  0
  -29.0932  -20.7979   23.6545 H   0  0  0  0  0  0
  -29.1012  -19.0986   23.1984 H   0  0  0  0  0  0
  -28.3036  -18.6609   19.0617 H   0  0  0  0  0  0
  -27.5157  -19.2438   20.4661 H   0  0  0  0  0  0
  -33.1094  -23.0365   20.2364 H   0  0  0  0  0  0
  -33.2829  -22.4190   21.8499 H   0  0  0  0  0  0
  -27.9527  -16.7358   20.2404 H   0  0  0  0  0  0
  -28.2466  -17.4361   21.7938 H   0  0  0  0  0  0
  -32.7906  -24.8864   21.7382 H   0  0  0  0  0  0
  -31.6790  -23.9871   22.7285 H   0  0  0  0  0  0
  -29.9442  -24.0411   21.0189 H   0  0  0  0  0  0
  -31.0059  -24.8038   19.8597 H   0  0  0  0  0  0
  -30.9330  -26.9039   20.9597 H   0  0  0  0  0  0
  -30.6746  -26.1799   22.5155 H   0  0  0  0  0  0
  -30.6792  -17.3422   21.5033 H   0  0  0  0  0  0
  -30.5019  -16.9347   19.8045 H   0  0  0  0  0  0
  -28.6746  -27.2090   22.1348 H   0  0  0  0  0  0
  -28.3099  -25.5488   21.7926 H   0  0  0  0  0  0
  -29.1086  -15.0825   21.5753 H   0  0  0  0  0  0
  1 25  1  0  0  0
  1 30  2  0  0  0
  1 87  1  0  0  0
  2  3  1  0  0  0
  2 25  1  0  0  0
  2 88  1  0  0  0
  2 89  1  0  0  0
  3  4  1  0  0  0
  3 90  1  0  0  0
  3 91  1  0  0  0
  4  5  1  0  0  0
  4 92  1  0  0  0
  4 93  1  0  0  0
  5  6  1  0  0  0
  5 26  1  0  0  0
  5 94  1  0  0  0
  6 25  1  0  0  0
  6 95  1  0  0  0
  6 96  1  0  0  0
  7  8  2  0  0  0
  7 26  1  0  0  0
  7 29  1  0  0  0
  8  9  1  0  0  0
  8 22  1  0  0  0
  9 10  1  0  0  0
  9 27  2  0  0  0
 10 11  2  0  0  0
 10 15  1  0  0  0
 11 12  1  0  0  0
 11 97  1  0  0  0
 12 13  2  0  0  0
 12 98  1  0  0  0
 13 14  1  0  0  0
 13 31  1  0  0  0
 14 15  2  0  0  0
 14 99  1  0  0  0
 15100  1  0  0  0
 16 17  2  0  0  0
 16 21  1  0  0  0
 16 31  1  0  0  0
 17 18  1  0  0  0
 17101  1  0  0  0
 18 19  2  0  0  0
 18102  1  0  0  0
 19 20  1  0  0  0
 19 24  1  0  0  0
 20 21  2  0  0  0
 20103  1  0  0  0
 21 23  1  0  0  0
 22 28  1  0  0  0
 22 32  2  0  0  0
 26 27  1  0  0  0
 28104  1  0  0  0
 28105  1  0  0  0
 29106  1  0  0  0
 29107  1  0  0  0
 33 34  1  0  0  0
 33 66  1  0  0  0
 33 70  2  0  0  0
 34 36  1  0  0  0
 34 59  1  0  0  0
 34108  1  0  0  0
 35 44  2  0  0  0
 35 45  1  0  0  0
 35 68  1  0  0  0
 36 56  1  0  0  0
 36109  1  0  0  0
 37 39  1  0  0  0
 37 47  1  0  0  0
 37 66  1  0  0  0
 37110  1  0  0  0
 38 43  2  0  0  0
 38 46  1  0  0  0
 38 47  1  0  0  0
 39 64  1  0  0  0
 39 67  2  0  0  0
 40 52  1  0  0  0
 40 53  2  0  0  0
 40 58  1  0  0  0
 41111  1  0  0  0
 41112  1  0  0  0
 41113  1  0  0  0
 41 48  1  0  0  0
 42 43  1  0  0  0
 42 66  1  0  0  0
 42114  1  0  0  0
 42115  1  0  0  0
 43 44  1  0  0  0
 44116  1  0  0  0
 45 46  2  0  0  0
 45117  1  0  0  0
 46118  1  0  0  0
 47119  1  0  0  0
 47120  1  0  0  0
 48 56  1  0  0  0
 48 65  1  0  0  0
 48121  1  0  0  0
 49 50  1  0  0  0
 49 53  1  0  0  0
 49 64  1  0  0  0
 49122  1  0  0  0
 50 51  1  0  0  0
 50123  1  0  0  0
 50124  1  0  0  0
 51 52  1  0  0  0
 51125  1  0  0  0
 51126  1  0  0  0
 52127  1  0  0  0
 52128  1  0  0  0
 53 54  1  0  0  0
 54 55  2  0  0  0
 54129  1  0  0  0
 55 57  1  0  0  0
 55130  1  0  0  0
 56 69  2  0  0  0
 57 58  2  0  0  0
 57131  1  0  0  0
 58132  1  0  0  0
 59 60  1  0  0  0
 59 61  1  0  0  0
 59 62  1  0  0  0
 60133  1  0  0  0
 60134  1  0  0  0
 60135  1  0  0  0
 61136  1  0  0  0
 61137  1  0  0  0
 61138  1  0  0  0
 62139  1  0  0  0
 62140  1  0  0  0
 62141  1  0  0  0
 63 65  1  0  0  0
 63142  1  0  0  0
 63143  1  0  0  0
 63144  1  0  0  0
 64145  1  0  0  0
 65146  1  0  0  0
 68 85  1  0  0  0
 71 72  2  0  0  0
 71 74  1  0  0  0
 71147  1  0  0  0
 72 73  1  0  0  0
 72 76  1  0  0  0
 73 75  2  0  0  0
 73 78  1  0  0  0
 74 79  1  0  0  0
 74 86  2  0  0  0
 75 77  1  0  0  0
 75 86  1  0  0  0
 76148  1  0  0  0
 76149  1  0  0  0
 76150  1  0  0  0
 77151  1  0  0  0
 77152  1  0  0  0
 77153  1  0  0  0
 78 80  1  0  0  0
 78154  1  0  0  0
 78155  1  0  0  0
 79 81  1  0  0  0
 79156  1  0  0  0
 79157  1  0  0  0
 80 84  1  0  0  0
 80158  1  0  0  0
 80159  1  0  0  0
 81 82  1  0  0  0
 81160  1  0  0  0
 81161  1  0  0  0
 82 83  1  0  0  0
 82162  1  0  0  0
 82163  1  0  0  0
 83 85  1  0  0  0
 83164  1  0  0  0
 83165  1  0  0  0
 84 87  1  0  0  0
 84166  1  0  0  0
 84167  1  0  0  0
 85168  1  0  0  0
 85169  1  0  0  0
 87170  1  0  0  0
M  ISO  4   1 100  68 101  85 101  87 100
M  END
> <chiral flag>
0

> <version>
0

> <s_m_source_file>
/data/baiqing/PycharmProjects/Reinvent-master-3.2/result/LINK_invent/BTK/process_docking_weight1_custom_sum_contain_oxygen_bond_distance_aromatic_linkinvent_7_9_3/rearranged_h_0042.sdf

> <i_m_source_file_index>
73

> <r_mmod_Potential_Energy-OPLS-2005>
-209.364807128906

> <r_mmod_Stretch_Energy-OPLS-2005>
33.6470794677734

> <r_mmod_Bend_Energy-OPLS-2005>
94.4137725830078

> <r_mmod_Torsional_Energy-OPLS-2005>
234.145233154297

> <r_mmod_Improper_Torsional_Energy-OPLS-2005>
6.05676651000977

> <r_mmod_Van_der_Waal_Energy-OPLS-2005>
153.674407958984

> <r_mmod_Electrostatic_Energy-OPLS-2005>
-516.666809082031

> <r_mmod_Solvation_Energy-OPLS-2005>
-222.829071044922

> <b_mmod_Minimization_Converged-OPLS-2005>
0

> <r_mmod_RMS_Derivative-OPLS-2005>
2.79319548606873

$$$$
74
                    3D
 Structure written by MMmdl.
172180  0  0  1  0            999 V2000
  -30.6969  -14.4279   20.5062 C   0  0  0  0  0  0
  -30.4265  -12.2540   19.4200 C   0  0  0  0  0  0
  -29.5000  -12.4490   18.2015 C   0  0  0  0  0  0
  -28.0141  -12.3485   18.6108 C   0  0  0  0  0  0
  -27.6605  -13.1885   19.8675 C   0  0  2  0  0  0
  -28.7074  -12.9583   20.9845 C   0  0  0  0  0  0
  -25.2626  -13.8070   20.5694 C   0  0  0  0  0  0
  -24.1866  -13.0389   20.9239 C   0  0  0  0  0  0
  -24.6376  -11.6855   20.8776 C   0  0  0  0  0  0
  -23.9031  -10.4254   21.0435 C   0  0  0  0  0  0
  -24.3573   -9.4184   21.9215 C   0  0  0  0  0  0
  -23.6248   -8.2213   22.0757 C   0  0  0  0  0  0
  -22.4234   -8.0246   21.3547 C   0  0  0  0  0  0
  -21.9863   -9.0224   20.4659 C   0  0  0  0  0  0
  -22.7194  -10.2108   20.3073 C   0  0  0  0  0  0
  -21.6837   -6.0713   22.5296 C   0  0  0  0  0  0
  -21.4005   -6.5619   23.8224 C   0  0  0  0  0  0
  -21.3680   -5.6785   24.9191 C   0  0  0  0  0  0
  -21.6040   -4.3048   24.7259 C   0  0  0  0  0  0
  -21.8813   -3.8128   23.4377 C   0  0  0  0  0  0
  -21.9188   -4.6937   22.3436 C   0  0  0  0  0  0
  -22.7902  -13.5238   21.1889 C   0  0  0  0  0  0
  -22.1632   -4.2116   21.1016 F   0  0  0  0  0  0
  -21.5646   -3.4539   25.7773 F   0  0  0  0  0  0
  -30.0349  -13.2468   20.4251 N   0  0  0  0  0  0
  -26.3018  -12.9213   20.3351 N   0  0  0  0  0  0
  -25.9286  -11.6388   20.5759 N   0  0  0  0  0  0
  -22.0490  -12.8272   22.0427 N   0  0  0  0  0  0
  -25.4363  -15.1755   20.4050 N   0  0  0  0  0  0
  -31.8915  -14.5488   20.2121 O   0  0  0  0  0  0
  -21.6599   -6.8833   21.4242 O   0  0  0  0  0  0
  -22.3634  -14.5560   20.6765 O   0  0  0  0  0  0
  -24.6148  -31.8682   23.2129 C   0  0  0  0  0  0
  -25.9034  -32.4834   23.8434 C   0  0  1  0  0  0
  -27.2290  -27.4538   20.0675 C   0  0  0  0  0  0
  -25.5896  -33.8644   24.2367 N   0  0  0  0  0  0
  -23.4013  -30.4938   21.5519 C   0  0  2  0  0  0
  -24.8408  -28.9614   20.1233 C   0  0  0  0  0  0
  -22.7410  -29.4658   22.5001 C   0  0  0  0  0  0
  -18.0286  -28.1356   22.8504 C   0  0  0  0  0  0
  -24.1480  -36.7330   23.2640 C   0  0  0  0  0  0
  -25.9322  -30.8363   21.3659 C   0  0  0  0  0  0
  -26.0028  -29.4742   20.7117 C   0  0  0  0  0  0
  -27.1993  -28.7255   20.6799 C   0  0  0  0  0  0
  -26.0337  -26.9398   19.5065 C   0  0  0  0  0  0
  -24.8482  -27.6929   19.5265 C   0  0  0  0  0  0
  -23.6067  -29.8310   20.1659 C   0  0  0  0  0  0
  -25.4099  -36.3144   24.0343 C   0  0  1  0  0  0
  -20.5858  -28.3683   23.1317 C   0  0  2  0  0  0
  -20.6799  -26.9424   22.5416 C   0  0  0  0  0  0
  -19.5777  -26.6353   21.5222 C   0  0  0  0  0  0
  -18.1949  -26.7897   22.1616 C   0  0  0  0  0  0
  -19.1524  -28.8829   23.2916 C   0  0  0  0  0  0
  -18.9451  -30.1420   23.8956 C   0  0  0  0  0  0
  -17.6451  -30.6583   24.0567 C   0  0  0  0  0  0
  -25.9020  -34.9489   23.5152 C   0  0  0  0  0  0
  -16.5344  -29.9099   23.6302 C   0  0  0  0  0  0
  -16.7273  -28.6489   23.0360 C   0  0  0  0  0  0
  -26.4470  -31.6607   25.0753 C   0  0  0  0  0  0
  -25.3744  -31.3730   26.1504 C   0  0  0  0  0  0
  -27.0280  -30.3039   24.6134 C   0  0  0  0  0  0
  -27.6041  -32.4350   25.7502 C   0  0  0  0  0  0
  -27.5592  -37.1817   24.8465 C   0  0  0  0  0  0
  -21.4136  -29.3070   22.3739 N   0  0  0  0  0  0
  -26.4300  -37.3822   23.9400 N   0  0  0  0  0  0
  -24.6674  -31.0798   22.1015 N   0  0  0  0  0  0
  -23.4200  -28.8190   23.3012 O   0  0  0  0  0  0
  -28.4342  -26.7863   20.0320 O   0  0  0  0  0  0
  -26.5593  -34.8915   22.4730 O   0  0  0  0  0  0
  -23.5322  -32.1413   23.7520 O   0  0  0  0  0  0
  -29.0866  -22.0017   22.1036 C   0  0  0  0  0  0
  -28.2159  -21.9619   21.0411 C   0  0  0  0  0  0
  -28.3090  -19.9295   21.9806 C   0  0  0  0  0  0
  -24.2654  -19.5535   19.6321 C   0  0  0  0  0  0
  -24.7898  -21.2904   21.4001 C   0  0  0  0  0  0
  -30.0445  -16.1812   18.9877 C   0  0  0  0  0  0
  -27.8920  -23.0206   20.0193 C   0  0  0  0  0  0
  -28.2430  -18.4469   22.2216 C   0  0  0  0  0  0
  -28.0087  -24.4604   20.5565 C   0  0  0  0  0  0
  -29.0399  -17.6919   21.1481 C   0  0  0  0  0  0
  -26.6897  -20.1385   20.0865 C   0  0  0  0  0  0
  -29.1629  -16.1711   21.3627 C   0  0  0  0  0  0
  -28.4845  -25.4657   19.4977 C   0  0  0  0  0  0
  -25.2735  -20.0106   20.6980 C   0  0  0  0  0  0
  -27.7093  -20.6717   21.0219 N   0  0  0  0  0  0
  -29.1109  -20.7556   22.6553 N   0  3  0  0  0  0
  -29.8877  -15.4847   20.2757 N   0  0  0  0  0  0
  -31.4684  -12.3559   19.1135 H   0  0  0  0  0  0
  -30.3220  -11.2445   19.8219 H   0  0  0  0  0  0
  -29.7259  -11.6911   17.4496 H   0  0  0  0  0  0
  -29.6971  -13.4072   17.7234 H   0  0  0  0  0  0
  -27.8125  -11.2963   18.8176 H   0  0  0  0  0  0
  -27.3723  -12.6197   17.7698 H   0  0  0  0  0  0
  -27.6966  -14.2343   19.5629 H   0  0  0  0  0  0
  -28.6695  -11.9216   21.3228 H   0  0  0  0  0  0
  -28.4967  -13.5617   21.8678 H   0  0  0  0  0  0
  -25.2717   -9.5701   22.4818 H   0  0  0  0  0  0
  -23.9983   -7.4601   22.7460 H   0  0  0  0  0  0
  -21.0780   -8.8731   19.8965 H   0  0  0  0  0  0
  -22.3627  -10.9652   19.6196 H   0  0  0  0  0  0
  -21.1961   -7.6135   23.9731 H   0  0  0  0  0  0
  -21.1528   -6.0522   25.9109 H   0  0  0  0  0  0
  -22.0581   -2.7584   23.2911 H   0  0  0  0  0  0
  -22.3997  -11.9951   22.4927 H   0  0  0  0  0  0
  -21.1105  -13.1397   22.2498 H   0  0  0  0  0  0
  -24.6568  -15.8212   20.4752 H   0  0  0  0  0  0
  -26.2820  -15.6043   20.0554 H   0  0  0  0  0  0
  -26.7105  -32.5549   23.1197 H   0  0  0  0  0  0
  -25.0027  -33.9809   25.0495 H   0  0  0  0  0  0
  -22.6885  -31.3099   21.4173 H   0  0  0  0  0  0
  -23.3739  -35.9678   23.3325 H   0  0  0  0  0  0
  -24.3580  -36.8919   22.2057 H   0  0  0  0  0  0
  -23.7209  -37.6536   23.6623 H   0  0  0  0  0  0
  -26.0460  -31.6033   20.5984 H   0  0  0  0  0  0
  -26.8189  -30.8835   21.9865 H   0  0  0  0  0  0
  -28.1036  -29.1251   21.1185 H   0  0  0  0  0  0
  -25.9791  -25.9637   19.0475 H   0  0  0  0  0  0
  -23.9461  -27.2859   19.0896 H   0  0  0  0  0  0
  -23.7249  -30.6069   19.4070 H   0  0  0  0  0  0
  -22.7293  -29.2510   19.8713 H   0  0  0  0  0  0
  -25.1266  -36.2046   25.0840 H   0  0  0  0  0  0
  -20.9945  -28.3265   24.1433 H   0  0  0  0  0  0
  -20.5710  -26.2277   23.3579 H   0  0  0  0  0  0
  -21.6647  -26.7456   22.1176 H   0  0  0  0  0  0
  -19.6919  -25.6247   21.1297 H   0  0  0  0  0  0
  -19.6705  -27.3091   20.6715 H   0  0  0  0  0  0
  -17.4223  -26.6650   21.4003 H   0  0  0  0  0  0
  -18.0352  -26.0036   22.9013 H   0  0  0  0  0  0
  -19.7912  -30.7225   24.2386 H   0  0  0  0  0  0
  -17.4999  -31.6256   24.5153 H   0  0  0  0  0  0
  -15.5342  -30.3031   23.7564 H   0  0  0  0  0  0
  -15.8659  -28.0798   22.7108 H   0  0  0  0  0  0
  -24.5879  -30.7115   25.7845 H   0  0  0  0  0  0
  -24.8979  -32.2903   26.4983 H   0  0  0  0  0  0
  -25.8098  -30.8867   27.0243 H   0  0  0  0  0  0
  -26.2821  -29.6820   24.1158 H   0  0  0  0  0  0
  -27.3993  -29.7260   25.4607 H   0  0  0  0  0  0
  -27.8696  -30.4337   23.9322 H   0  0  0  0  0  0
  -27.2632  -33.3625   26.2136 H   0  0  0  0  0  0
  -28.3818  -32.6970   25.0309 H   0  0  0  0  0  0
  -28.0748  -31.8445   26.5375 H   0  0  0  0  0  0
  -28.2614  -38.0108   24.7522 H   0  0  0  0  0  0
  -28.1085  -36.2639   24.6294 H   0  0  0  0  0  0
  -27.2315  -37.1489   25.8872 H   0  0  0  0  0  0
  -20.9289  -29.8855   21.7020 H   0  0  0  0  0  0
  -26.0198  -38.2911   24.1415 H   0  0  0  0  0  0
  -29.7070  -22.8042   22.4820 H   0  0  0  0  0  0
  -23.2636  -19.4436   20.0509 H   0  0  0  0  0  0
  -24.5512  -18.5899   19.2092 H   0  0  0  0  0  0
  -24.2020  -20.2711   18.8121 H   0  0  0  0  0  0
  -23.7868  -21.1561   21.8067 H   0  0  0  0  0  0
  -24.7513  -22.1356   20.7132 H   0  0  0  0  0  0
  -25.4327  -21.5672   22.2351 H   0  0  0  0  0  0
  -30.6711  -17.0679   19.0830 H   0  0  0  0  0  0
  -29.0733  -16.4637   18.5824 H   0  0  0  0  0  0
  -30.5191  -15.5499   18.2347 H   0  0  0  0  0  0
  -26.8827  -22.8886   19.6329 H   0  0  0  0  0  0
  -28.5622  -22.8747   19.1689 H   0  0  0  0  0  0
  -27.1970  -18.1442   22.2515 H   0  0  0  0  0  0
  -28.6644  -18.2576   23.2102 H   0  0  0  0  0  0
  -28.7200  -24.5268   21.3773 H   0  0  0  0  0  0
  -27.0454  -24.7524   20.9785 H   0  0  0  0  0  0
  -30.0393  -18.1263   21.0764 H   0  0  0  0  0  0
  -28.5605  -17.8723   20.1924 H   0  0  0  0  0  0
  -26.6639  -20.7820   19.2094 H   0  0  0  0  0  0
  -27.0164  -19.1790   19.7008 H   0  0  0  0  0  0
  -28.1608  -15.7470   21.4476 H   0  0  0  0  0  0
  -29.6624  -15.9773   22.3143 H   0  0  0  0  0  0
  -27.9475  -25.3682   18.5539 H   0  0  0  0  0  0
  -29.5227  -25.2489   19.2453 H   0  0  0  0  0  0
  -25.3051  -19.2291   21.4589 H   0  0  0  0  0  0
  -29.6858  -20.4877   23.4469 H   0  0  0  0  0  0
  1 25  1  0  0  0
  1 30  2  0  0  0
  1 87  1  0  0  0
  2  3  1  0  0  0
  2 25  1  0  0  0
  2 88  1  0  0  0
  2 89  1  0  0  0
  3  4  1  0  0  0
  3 90  1  0  0  0
  3 91  1  0  0  0
  4  5  1  0  0  0
  4 92  1  0  0  0
  4 93  1  0  0  0
  5  6  1  0  0  0
  5 26  1  0  0  0
  5 94  1  0  0  0
  6 25  1  0  0  0
  6 95  1  0  0  0
  6 96  1  0  0  0
  7  8  2  0  0  0
  7 26  1  0  0  0
  7 29  1  0  0  0
  8  9  1  0  0  0
  8 22  1  0  0  0
  9 10  1  0  0  0
  9 27  2  0  0  0
 10 11  2  0  0  0
 10 15  1  0  0  0
 11 12  1  0  0  0
 11 97  1  0  0  0
 12 13  2  0  0  0
 12 98  1  0  0  0
 13 14  1  0  0  0
 13 31  1  0  0  0
 14 15  2  0  0  0
 14 99  1  0  0  0
 15100  1  0  0  0
 16 17  2  0  0  0
 16 21  1  0  0  0
 16 31  1  0  0  0
 17 18  1  0  0  0
 17101  1  0  0  0
 18 19  2  0  0  0
 18102  1  0  0  0
 19 20  1  0  0  0
 19 24  1  0  0  0
 20 21  2  0  0  0
 20103  1  0  0  0
 21 23  1  0  0  0
 22 28  1  0  0  0
 22 32  2  0  0  0
 26 27  1  0  0  0
 28104  1  0  0  0
 28105  1  0  0  0
 29106  1  0  0  0
 29107  1  0  0  0
 33 34  1  0  0  0
 33 66  1  0  0  0
 33 70  2  0  0  0
 34 36  1  0  0  0
 34 59  1  0  0  0
 34108  1  0  0  0
 35 44  2  0  0  0
 35 45  1  0  0  0
 35 68  1  0  0  0
 36 56  1  0  0  0
 36109  1  0  0  0
 37 39  1  0  0  0
 37 47  1  0  0  0
 37 66  1  0  0  0
 37110  1  0  0  0
 38 43  2  0  0  0
 38 46  1  0  0  0
 38 47  1  0  0  0
 39 64  1  0  0  0
 39 67  2  0  0  0
 40 52  1  0  0  0
 40 53  2  0  0  0
 40 58  1  0  0  0
 41111  1  0  0  0
 41112  1  0  0  0
 41113  1  0  0  0
 41 48  1  0  0  0
 42 43  1  0  0  0
 42 66  1  0  0  0
 42114  1  0  0  0
 42115  1  0  0  0
 43 44  1  0  0  0
 44116  1  0  0  0
 45 46  2  0  0  0
 45117  1  0  0  0
 46118  1  0  0  0
 47119  1  0  0  0
 47120  1  0  0  0
 48 56  1  0  0  0
 48 65  1  0  0  0
 48121  1  0  0  0
 49 50  1  0  0  0
 49 53  1  0  0  0
 49 64  1  0  0  0
 49122  1  0  0  0
 50 51  1  0  0  0
 50123  1  0  0  0
 50124  1  0  0  0
 51 52  1  0  0  0
 51125  1  0  0  0
 51126  1  0  0  0
 52127  1  0  0  0
 52128  1  0  0  0
 53 54  1  0  0  0
 54 55  2  0  0  0
 54129  1  0  0  0
 55 57  1  0  0  0
 55130  1  0  0  0
 56 69  2  0  0  0
 57 58  2  0  0  0
 57131  1  0  0  0
 58132  1  0  0  0
 59 60  1  0  0  0
 59 61  1  0  0  0
 59 62  1  0  0  0
 60133  1  0  0  0
 60134  1  0  0  0
 60135  1  0  0  0
 61136  1  0  0  0
 61137  1  0  0  0
 61138  1  0  0  0
 62139  1  0  0  0
 62140  1  0  0  0
 62141  1  0  0  0
 63 65  1  0  0  0
 63142  1  0  0  0
 63143  1  0  0  0
 63144  1  0  0  0
 64145  1  0  0  0
 65146  1  0  0  0
 68 83  1  0  0  0
 71 72  2  0  0  0
 71 86  1  0  0  0
 71147  1  0  0  0
 72 77  1  0  0  0
 72 85  1  0  0  0
 73 78  1  0  0  0
 73 85  1  0  0  0
 73 86  2  0  0  0
 74148  1  0  0  0
 74149  1  0  0  0
 74150  1  0  0  0
 74 84  1  0  0  0
 75 84  1  0  0  0
 75151  1  0  0  0
 75152  1  0  0  0
 75153  1  0  0  0
 76 87  1  0  0  0
 76154  1  0  0  0
 76155  1  0  0  0
 76156  1  0  0  0
 77 79  1  0  0  0
 77157  1  0  0  0
 77158  1  0  0  0
 78 80  1  0  0  0
 78159  1  0  0  0
 78160  1  0  0  0
 79 83  1  0  0  0
 79161  1  0  0  0
 79162  1  0  0  0
 80 82  1  0  0  0
 80163  1  0  0  0
 80164  1  0  0  0
 81 84  1  0  0  0
 81 85  1  0  0  0
 81165  1  0  0  0
 81166  1  0  0  0
 82 87  1  0  0  0
 82167  1  0  0  0
 82168  1  0  0  0
 83169  1  0  0  0
 83170  1  0  0  0
 84171  1  0  0  0
 86172  1  0  0  0
M  CHG  1  86   1
M  ISO  4   1 100  68 101  83 101  87 100
M  END
> <chiral flag>
0

> <version>
0

> <s_m_source_file>
/data/baiqing/PycharmProjects/Reinvent-master-3.2/result/LINK_invent/BTK/process_docking_weight1_custom_sum_contain_oxygen_bond_distance_aromatic_linkinvent_7_9_3/rearranged_h_0042.sdf

> <i_m_source_file_index>
74

> <r_mmod_Potential_Energy-OPLS-2005>
97.0304489135742

> <r_mmod_Stretch_Energy-OPLS-2005>
35.4889144897461

> <r_mmod_Bend_Energy-OPLS-2005>
103.379211425781

> <r_mmod_Torsional_Energy-OPLS-2005>
310.718170166016

> <r_mmod_Improper_Torsional_Energy-OPLS-2005>
24.264518737793

> <r_mmod_Van_der_Waal_Energy-OPLS-2005>
138.549362182617

> <r_mmod_Electrostatic_Energy-OPLS-2005>
-126.731704711914

> <r_mmod_Solvation_Energy-OPLS-2005>
-406.493011474609

> <b_mmod_Minimization_Converged-OPLS-2005>
0

> <r_mmod_RMS_Derivative-OPLS-2005>
4.57834053039551

$$$$
75
                    3D
 Structure written by MMmdl.
158166  0  0  1  0            999 V2000
  -30.6716  -14.5646   20.4211 C   0  0  0  0  0  0
  -30.4204  -12.3248   19.4525 C   0  0  0  0  0  0
  -29.4997  -12.4591   18.2207 C   0  0  0  0  0  0
  -28.0228  -12.2942   18.6325 C   0  0  0  0  0  0
  -27.6345  -13.1915   19.8342 C   0  0  2  0  0  0
  -28.6849  -13.1230   20.9673 C   0  0  0  0  0  0
  -25.2533  -13.8094   20.5679 C   0  0  0  0  0  0
  -24.1785  -13.0392   20.9203 C   0  0  0  0  0  0
  -24.6323  -11.6851   20.8750 C   0  0  0  0  0  0
  -23.8997  -10.4252   21.0426 C   0  0  0  0  0  0
  -24.3564   -9.4174   21.9202 C   0  0  0  0  0  0
  -23.6252   -8.2210   22.0759 C   0  0  0  0  0  0
  -22.4245   -8.0238   21.3543 C   0  0  0  0  0  0
  -21.9867   -9.0208   20.4652 C   0  0  0  0  0  0
  -22.7177  -10.2095   20.3069 C   0  0  0  0  0  0
  -21.6841   -6.0702   22.5271 C   0  0  0  0  0  0
  -21.4012   -6.5616   23.8200 C   0  0  0  0  0  0
  -21.3655   -5.6778   24.9168 C   0  0  0  0  0  0
  -21.6047   -4.3040   24.7232 C   0  0  0  0  0  0
  -21.8816   -3.8121   23.4355 C   0  0  0  0  0  0
  -21.9189   -4.6931   22.3405 C   0  0  0  0  0  0
  -22.7818  -13.5213   21.1864 C   0  0  0  0  0  0
  -22.1657   -4.2108   21.0987 F   0  0  0  0  0  0
  -21.5628   -3.4528   25.7752 F   0  0  0  0  0  0
  -30.0205  -13.3686   20.4100 N   0  0  0  0  0  0
  -26.2888  -12.9197   20.3226 N   0  0  0  0  0  0
  -25.9233  -11.6390   20.5742 N   0  0  0  0  0  0
  -22.0456  -12.8230   22.0427 N   0  0  0  0  0  0
  -25.4314  -15.1818   20.4120 N   0  0  0  0  0  0
  -31.8905  -14.6386   20.2583 O   0  0  0  0  0  0
  -21.6616   -6.8835   21.4232 O   0  0  0  0  0  0
  -22.3523  -14.5520   20.6697 O   0  0  0  0  0  0
  -24.6298  -31.8731   23.2148 C   0  0  0  0  0  0
  -25.9122  -32.4871   23.8475 C   0  0  1  0  0  0
  -27.2367  -27.4085   20.1271 C   0  0  0  0  0  0
  -25.5960  -33.8661   24.2395 N   0  0  0  0  0  0
  -23.4379  -30.4963   21.5661 C   0  0  2  0  0  0
  -24.8643  -28.9481   20.1284 C   0  0  0  0  0  0
  -22.7730  -29.4865   22.5237 C   0  0  0  0  0  0
  -17.9929  -28.1194   22.8770 C   0  0  0  0  0  0
  -24.1481  -36.7317   23.2627 C   0  0  0  0  0  0
  -25.9526  -30.8295   21.3682 C   0  0  0  0  0  0
  -26.0253  -29.4572   20.7251 C   0  0  0  0  0  0
  -27.2167  -28.6934   20.7240 C   0  0  0  0  0  0
  -26.0644  -26.9192   19.5187 C   0  0  0  0  0  0
  -24.8780  -27.6800   19.5208 C   0  0  0  0  0  0
  -23.6317  -29.8209   20.1811 C   0  0  0  0  0  0
  -25.4115  -36.3144   24.0336 C   0  0  1  0  0  0
  -20.4740  -28.4628   22.7784 C   0  0  2  0  0  0
  -20.6933  -26.9666   22.5323 C   0  0  0  0  0  0
  -19.5551  -26.4619   21.6172 C   0  0  0  0  0  0
  -18.1559  -26.7526   22.2050 C   0  0  0  0  0  0
  -19.1126  -28.8983   23.2562 C   0  0  0  0  0  0
  -18.9326  -30.1495   23.8821 C   0  0  0  0  0  0
  -17.6346  -30.6506   24.0848 C   0  0  0  0  0  0
  -25.9056  -34.9500   23.5158 C   0  0  0  0  0  0
  -16.5193  -29.8954   23.6822 C   0  0  0  0  0  0
  -16.6964  -28.6265   23.0962 C   0  0  0  0  0  0
  -26.4492  -31.6622   25.0792 C   0  0  0  0  0  0
  -25.3760  -31.3700   26.1539 C   0  0  0  0  0  0
  -27.0350  -30.3086   24.6151 C   0  0  0  0  0  0
  -27.6042  -32.4351   25.7554 C   0  0  0  0  0  0
  -27.5587  -37.1837   24.8465 C   0  0  0  0  0  0
  -21.4516  -29.4497   22.3992 N   0  0  0  0  0  0
  -26.4296  -37.3834   23.9409 N   0  0  0  0  0  0
  -24.6947  -31.0808   22.1089 N   0  0  0  0  0  0
  -23.4210  -28.7652   23.2845 O   0  0  0  0  0  0
  -28.3837  -26.6431   20.0939 O   0  0  0  0  0  0
  -26.5573  -34.8905   22.4695 O   0  0  0  0  0  0
  -23.5450  -32.1469   23.7490 O   0  0  0  0  0  0
  -27.3904  -19.1391   21.7208 C   0  0  0  0  0  0
  -28.6521  -19.4667   21.1755 C   0  0  0  0  0  0
  -27.0272  -21.3510   22.2785 C   0  0  0  0  0  0
  -28.2838  -21.7135   21.7194 C   0  0  0  0  0  0
  -26.1073  -22.3582   22.9449 C   0  0  0  0  0  0
  -29.4756  -18.3963   20.4377 C   0  0  0  0  0  0
  -28.8022  -23.1643   21.8042 C   0  0  0  0  0  0
  -29.8852  -15.8754   20.1069 C   0  0  0  0  0  0
  -29.7487  -17.0233   21.1508 C   0  0  0  0  0  0
  -28.3006  -24.1802   20.7273 C   0  0  0  0  0  0
  -28.5285  -25.6651   21.1454 C   0  0  0  0  0  0
  -26.5822  -20.0720   22.2754 N   0  0  0  0  0  0
  -29.0970  -20.7620   21.1662 N   0  0  0  0  0  0
  -31.4660  -12.4139   19.1533 H   0  0  0  0  0  0
  -30.3223  -11.3368   19.9048 H   0  0  0  0  0  0
  -29.7605  -11.7103   17.4714 H   0  0  0  0  0  0
  -29.6498  -13.4301   17.7470 H   0  0  0  0  0  0
  -27.8692  -11.2463   18.8920 H   0  0  0  0  0  0
  -27.3671  -12.4959   17.7845 H   0  0  0  0  0  0
  -27.5951  -14.1919   19.4244 H   0  0  0  0  0  0
  -28.6647  -12.1456   21.4514 H   0  0  0  0  0  0
  -28.4546  -13.8558   21.7420 H   0  0  0  0  0  0
  -25.2710   -9.5642   22.4770 H   0  0  0  0  0  0
  -23.9950   -7.4597   22.7475 H   0  0  0  0  0  0
  -21.0796   -8.8715   19.8961 H   0  0  0  0  0  0
  -22.3636  -10.9627   19.6168 H   0  0  0  0  0  0
  -21.2013   -7.6124   23.9688 H   0  0  0  0  0  0
  -21.1489   -6.0520   25.9069 H   0  0  0  0  0  0
  -22.0612   -2.7580   23.2873 H   0  0  0  0  0  0
  -22.4062  -11.9889   22.4812 H   0  0  0  0  0  0
  -21.1076  -13.1260   22.2630 H   0  0  0  0  0  0
  -24.6693  -15.8418   20.5224 H   0  0  0  0  0  0
  -26.2885  -15.6149   20.0940 H   0  0  0  0  0  0
  -26.7205  -32.5548   23.1255 H   0  0  0  0  0  0
  -25.0109  -33.9851   25.0539 H   0  0  0  0  0  0
  -22.7408  -31.3228   21.4142 H   0  0  0  0  0  0
  -23.3748  -35.9645   23.3314 H   0  0  0  0  0  0
  -24.3578  -36.8912   22.2038 H   0  0  0  0  0  0
  -23.7207  -37.6518   23.6626 H   0  0  0  0  0  0
  -26.0581  -31.5876   20.5913 H   0  0  0  0  0  0
  -26.8455  -30.8977   21.9798 H   0  0  0  0  0  0
  -28.1174  -29.0772   21.1835 H   0  0  0  0  0  0
  -26.0715  -25.9463   19.0472 H   0  0  0  0  0  0
  -23.9842  -27.2847   19.0582 H   0  0  0  0  0  0
  -23.7422  -30.5905   19.4166 H   0  0  0  0  0  0
  -22.7511  -29.2441   19.8931 H   0  0  0  0  0  0
  -25.1293  -36.2020   25.0830 H   0  0  0  0  0  0
  -20.1496  -28.6851   21.7596 H   0  0  0  0  0  0
  -20.6883  -26.4335   23.4833 H   0  0  0  0  0  0
  -21.6633  -26.7788   22.0705 H   0  0  0  0  0  0
  -19.6590  -25.3917   21.4404 H   0  0  0  0  0  0
  -19.6398  -26.9253   20.6312 H   0  0  0  0  0  0
  -17.4007  -26.6350   21.4252 H   0  0  0  0  0  0
  -17.9311  -25.9957   22.9576 H   0  0  0  0  0  0
  -19.7861  -30.7547   24.1522 H   0  0  0  0  0  0
  -17.4926  -31.6192   24.5443 H   0  0  0  0  0  0
  -15.5206  -30.2820   23.8385 H   0  0  0  0  0  0
  -15.8299  -28.0444   22.8147 H   0  0  0  0  0  0
  -24.5918  -30.7080   25.7858 H   0  0  0  0  0  0
  -24.8939  -32.2839   26.5025 H   0  0  0  0  0  0
  -25.8091  -30.8841   27.0298 H   0  0  0  0  0  0
  -26.2887  -29.6793   24.1257 H   0  0  0  0  0  0
  -27.4225  -29.7368   25.4597 H   0  0  0  0  0  0
  -27.8694  -30.4450   23.9265 H   0  0  0  0  0  0
  -27.2650  -33.3669   26.2117 H   0  0  0  0  0  0
  -28.3840  -32.6922   25.0369 H   0  0  0  0  0  0
  -28.0724  -31.8489   26.5474 H   0  0  0  0  0  0
  -28.2637  -38.0112   24.7537 H   0  0  0  0  0  0
  -28.1060  -36.2656   24.6283 H   0  0  0  0  0  0
  -27.2307  -37.1491   25.8867 H   0  0  0  0  0  0
  -21.0756  -30.1627   21.7890 H   0  0  0  0  0  0
  -26.0187  -38.2910   24.1419 H   0  0  0  0  0  0
  -27.0085  -18.1291   21.6856 H   0  0  0  0  0  0
  -25.8907  -23.1886   22.2752 H   0  0  0  0  0  0
  -26.5645  -22.7584   23.8509 H   0  0  0  0  0  0
  -25.1582  -21.9042   23.2299 H   0  0  0  0  0  0
  -30.4246  -18.8224   20.1115 H   0  0  0  0  0  0
  -28.9182  -18.2044   19.5193 H   0  0  0  0  0  0
  -29.8931  -23.1408   21.7881 H   0  0  0  0  0  0
  -28.5529  -23.5423   22.7961 H   0  0  0  0  0  0
  -30.4313  -16.2974   19.2617 H   0  0  0  0  0  0
  -28.9120  -15.6801   19.6831 H   0  0  0  0  0  0
  -28.9158  -16.7678   21.8065 H   0  0  0  0  0  0
  -30.6297  -17.0946   21.7872 H   0  0  0  0  0  0
  -27.2359  -24.0381   20.5413 H   0  0  0  0  0  0
  -28.8057  -23.9802   19.7830 H   0  0  0  0  0  0
  -29.5476  -25.7634   21.5210 H   0  0  0  0  0  0
  -27.8826  -25.9075   21.9921 H   0  0  0  0  0  0
  1 25  1  0  0  0
  1 30  2  0  0  0
  1 78  1  0  0  0
  2  3  1  0  0  0
  2 25  1  0  0  0
  2 84  1  0  0  0
  2 85  1  0  0  0
  3  4  1  0  0  0
  3 86  1  0  0  0
  3 87  1  0  0  0
  4  5  1  0  0  0
  4 88  1  0  0  0
  4 89  1  0  0  0
  5  6  1  0  0  0
  5 26  1  0  0  0
  5 90  1  0  0  0
  6 25  1  0  0  0
  6 91  1  0  0  0
  6 92  1  0  0  0
  7  8  2  0  0  0
  7 26  1  0  0  0
  7 29  1  0  0  0
  8  9  1  0  0  0
  8 22  1  0  0  0
  9 10  1  0  0  0
  9 27  2  0  0  0
 10 11  2  0  0  0
 10 15  1  0  0  0
 11 12  1  0  0  0
 11 93  1  0  0  0
 12 13  2  0  0  0
 12 94  1  0  0  0
 13 14  1  0  0  0
 13 31  1  0  0  0
 14 15  2  0  0  0
 14 95  1  0  0  0
 15 96  1  0  0  0
 16 17  2  0  0  0
 16 21  1  0  0  0
 16 31  1  0  0  0
 17 18  1  0  0  0
 17 97  1  0  0  0
 18 19  2  0  0  0
 18 98  1  0  0  0
 19 20  1  0  0  0
 19 24  1  0  0  0
 20 21  2  0  0  0
 20 99  1  0  0  0
 21 23  1  0  0  0
 22 28  1  0  0  0
 22 32  2  0  0  0
 26 27  1  0  0  0
 28100  1  0  0  0
 28101  1  0  0  0
 29102  1  0  0  0
 29103  1  0  0  0
 33 34  1  0  0  0
 33 66  1  0  0  0
 33 70  2  0  0  0
 34 36  1  0  0  0
 34 59  1  0  0  0
 34104  1  0  0  0
 35 44  2  0  0  0
 35 45  1  0  0  0
 35 68  1  0  0  0
 36 56  1  0  0  0
 36105  1  0  0  0
 37 39  1  0  0  0
 37 47  1  0  0  0
 37 66  1  0  0  0
 37106  1  0  0  0
 38 43  2  0  0  0
 38 46  1  0  0  0
 38 47  1  0  0  0
 39 64  1  0  0  0
 39 67  2  0  0  0
 40 52  1  0  0  0
 40 53  2  0  0  0
 40 58  1  0  0  0
 41107  1  0  0  0
 41108  1  0  0  0
 41109  1  0  0  0
 41 48  1  0  0  0
 42 43  1  0  0  0
 42 66  1  0  0  0
 42110  1  0  0  0
 42111  1  0  0  0
 43 44  1  0  0  0
 44112  1  0  0  0
 45 46  2  0  0  0
 45113  1  0  0  0
 46114  1  0  0  0
 47115  1  0  0  0
 47116  1  0  0  0
 48 56  1  0  0  0
 48 65  1  0  0  0
 48117  1  0  0  0
 49 50  1  0  0  0
 49 53  1  0  0  0
 49 64  1  0  0  0
 49118  1  0  0  0
 50 51  1  0  0  0
 50119  1  0  0  0
 50120  1  0  0  0
 51 52  1  0  0  0
 51121  1  0  0  0
 51122  1  0  0  0
 52123  1  0  0  0
 52124  1  0  0  0
 53 54  1  0  0  0
 54 55  2  0  0  0
 54125  1  0  0  0
 55 57  1  0  0  0
 55126  1  0  0  0
 56 69  2  0  0  0
 57 58  2  0  0  0
 57127  1  0  0  0
 58128  1  0  0  0
 59 60  1  0  0  0
 59 61  1  0  0  0
 59 62  1  0  0  0
 60129  1  0  0  0
 60130  1  0  0  0
 60131  1  0  0  0
 61132  1  0  0  0
 61133  1  0  0  0
 61134  1  0  0  0
 62135  1  0  0  0
 62136  1  0  0  0
 62137  1  0  0  0
 63 65  1  0  0  0
 63138  1  0  0  0
 63139  1  0  0  0
 63140  1  0  0  0
 64141  1  0  0  0
 65142  1  0  0  0
 68 81  1  0  0  0
 71 72  2  0  0  0
 71 82  1  0  0  0
 71143  1  0  0  0
 72 76  1  0  0  0
 72 83  1  0  0  0
 73 74  1  0  0  0
 73 75  1  0  0  0
 73 82  2  0  0  0
 74 77  1  0  0  0
 74 83  2  0  0  0
 75144  1  0  0  0
 75145  1  0  0  0
 75146  1  0  0  0
 76 79  1  0  0  0
 76147  1  0  0  0
 76148  1  0  0  0
 77 80  1  0  0  0
 77149  1  0  0  0
 77150  1  0  0  0
 78 79  1  0  0  0
 78151  1  0  0  0
 78152  1  0  0  0
 79153  1  0  0  0
 79154  1  0  0  0
 80 81  1  0  0  0
 80155  1  0  0  0
 80156  1  0  0  0
 81157  1  0  0  0
 81158  1  0  0  0
M  ISO  4   1 100  68 101  78 100  81 101
M  END
> <chiral flag>
0

> <version>
0

> <s_m_source_file>
/data/baiqing/PycharmProjects/Reinvent-master-3.2/result/LINK_invent/BTK/process_docking_weight1_custom_sum_contain_oxygen_bond_distance_aromatic_linkinvent_7_9_3/rearranged_h_0042.sdf

> <i_m_source_file_index>
75

> <r_mmod_Potential_Energy-OPLS-2005>
217.277481079102

> <r_mmod_Stretch_Energy-OPLS-2005>
43.6665153503418

> <r_mmod_Bend_Energy-OPLS-2005>
216.929306030273

> <r_mmod_Torsional_Energy-OPLS-2005>
235.006011962891

> <r_mmod_Improper_Torsional_Energy-OPLS-2005>
16.1450328826904

> <r_mmod_Van_der_Waal_Energy-OPLS-2005>
151.177719116211

> <r_mmod_Electrostatic_Energy-OPLS-2005>
-283.808868408203

> <r_mmod_Solvation_Energy-OPLS-2005>
-217.297302246094

> <b_mmod_Minimization_Converged-OPLS-2005>
0

> <r_mmod_RMS_Derivative-OPLS-2005>
2.84668922424316

$$$$
76
                    3D
 Structure written by MMmdl.
157165  0  0  1  0            999 V2000
  -30.6936  -14.6056   20.4887 C   0  0  0  0  0  0
  -30.4199  -12.3731   19.4562 C   0  0  0  0  0  0
  -29.4950  -12.4768   18.2267 C   0  0  0  0  0  0
  -28.0223  -12.3223   18.6485 C   0  0  0  0  0  0
  -27.6458  -13.2228   19.8552 C   0  0  2  0  0  0
  -28.6927  -13.1297   20.9882 C   0  0  0  0  0  0
  -25.2524  -13.8200   20.5700 C   0  0  0  0  0  0
  -24.1807  -13.0447   20.9198 C   0  0  0  0  0  0
  -24.6384  -11.6917   20.8755 C   0  0  0  0  0  0
  -23.9056  -10.4297   21.0415 C   0  0  0  0  0  0
  -24.3608   -9.4211   21.9193 C   0  0  0  0  0  0
  -23.6293   -8.2244   22.0758 C   0  0  0  0  0  0
  -22.4283   -8.0275   21.3540 C   0  0  0  0  0  0
  -21.9916   -9.0245   20.4637 C   0  0  0  0  0  0
  -22.7236  -10.2129   20.3055 C   0  0  0  0  0  0
  -21.6853   -6.0732   22.5275 C   0  0  0  0  0  0
  -21.4012   -6.5631   23.8204 C   0  0  0  0  0  0
  -21.3657   -5.6792   24.9169 C   0  0  0  0  0  0
  -21.6046   -4.3058   24.7228 C   0  0  0  0  0  0
  -21.8815   -3.8150   23.4345 C   0  0  0  0  0  0
  -21.9190   -4.6961   22.3401 C   0  0  0  0  0  0
  -22.7826  -13.5219   21.1871 C   0  0  0  0  0  0
  -22.1661   -4.2142   21.0983 F   0  0  0  0  0  0
  -21.5630   -3.4548   25.7743 F   0  0  0  0  0  0
  -30.0086  -13.4251   20.4061 N   0  0  0  0  0  0
  -26.2958  -12.9392   20.3326 N   0  0  0  0  0  0
  -25.9314  -11.6536   20.5795 N   0  0  0  0  0  0
  -22.0484  -12.8188   22.0421 N   0  0  0  0  0  0
  -25.4227  -15.1933   20.4127 N   0  0  0  0  0  0
  -31.8742  -14.6838   20.1446 O   0  0  0  0  0  0
  -21.6642   -6.8880   21.4239 O   0  0  0  0  0  0
  -22.3505  -14.5530   20.6729 O   0  0  0  0  0  0
  -24.6295  -31.8621   23.2082 C   0  0  0  0  0  0
  -25.9146  -32.4787   23.8392 C   0  0  1  0  0  0
  -27.2100  -27.3182   20.0990 C   0  0  0  0  0  0
  -25.5973  -33.8588   24.2330 N   0  0  0  0  0  0
  -23.4196  -30.4943   21.5505 C   0  0  2  0  0  0
  -24.8633  -28.9651   20.1076 C   0  0  0  0  0  0
  -22.7491  -29.4639   22.4921 C   0  0  0  0  0  0
  -18.0300  -28.1376   22.8482 C   0  0  0  0  0  0
  -24.1482  -36.7271   23.2635 C   0  0  0  0  0  0
  -25.9664  -30.7904   21.3845 C   0  0  0  0  0  0
  -26.0364  -29.4221   20.7212 C   0  0  0  0  0  0
  -27.2124  -28.6090   20.7159 C   0  0  0  0  0  0
  -26.0103  -26.9409   19.4389 C   0  0  0  0  0  0
  -24.8546  -27.7294   19.4575 C   0  0  0  0  0  0
  -23.6342  -29.8466   20.1616 C   0  0  0  0  0  0
  -25.4105  -36.3089   24.0347 C   0  0  1  0  0  0
  -20.5903  -28.3684   23.1267 C   0  0  2  0  0  0
  -20.6787  -26.9405   22.5375 C   0  0  0  0  0  0
  -19.5738  -26.6375   21.5194 C   0  0  0  0  0  0
  -18.1928  -26.7917   22.1618 C   0  0  0  0  0  0
  -19.1554  -28.8846   23.2865 C   0  0  0  0  0  0
  -18.9481  -30.1451   23.8876 C   0  0  0  0  0  0
  -17.6481  -30.6576   24.0563 C   0  0  0  0  0  0
  -25.9055  -34.9455   23.5130 C   0  0  0  0  0  0
  -16.5367  -29.9078   23.6337 C   0  0  0  0  0  0
  -16.7288  -28.6498   23.0353 C   0  0  0  0  0  0
  -26.4536  -31.6592   25.0751 C   0  0  0  0  0  0
  -25.3786  -31.3675   26.1486 C   0  0  0  0  0  0
  -27.0420  -30.3047   24.6163 C   0  0  0  0  0  0
  -27.6076  -32.4353   25.7522 C   0  0  0  0  0  0
  -27.5573  -37.1790   24.8473 C   0  0  0  0  0  0
  -21.4203  -29.3059   22.3677 N   0  0  0  0  0  0
  -26.4278  -37.3790   23.9436 N   0  0  0  0  0  0
  -24.6899  -31.0641   22.1038 N   0  0  0  0  0  0
  -23.4222  -28.8141   23.2965 O   0  0  0  0  0  0
  -28.2969  -26.4205   20.1633 O   0  0  0  0  0  0
  -26.5578  -34.8918   22.4670 O   0  0  0  0  0  0
  -23.5460  -32.1423   23.7408 O   0  0  0  0  0  0
  -29.7379  -22.1693   21.5195 C   0  0  0  0  0  0
  -29.7666  -21.1641   20.5212 C   0  0  0  0  0  0
  -29.2905  -21.6080   19.2700 C   0  0  0  0  0  0
  -28.8466  -23.7566   20.0864 C   0  0  0  0  0  0
  -27.7559  -20.2055   17.8260 C   0  0  0  0  0  0
  -30.4495  -19.7716   20.7612 C   0  0  0  0  0  0
  -29.1927  -20.6990   18.0551 C   0  0  0  0  0  0
  -27.9410  -25.0143   19.8518 C   0  0  0  0  0  0
  -29.6502  -18.4021   20.7118 C   0  0  0  0  0  0
  -30.5931  -17.1263   20.7075 C   0  0  0  0  0  0
  -29.2715  -23.4338   21.3110 N   0  0  0  0  0  0
  -28.8500  -22.8746   19.0792 N   0  0  0  0  0  0
  -29.9952  -15.7495   20.7549 N   0  0  0  0  0  0
  -31.4620  -12.4681   19.1471 H   0  0  0  0  0  0
  -30.3375  -11.3908   19.9246 H   0  0  0  0  0  0
  -29.7532  -11.7082   17.4970 H   0  0  0  0  0  0
  -29.6380  -13.4371   17.7297 H   0  0  0  0  0  0
  -27.8683  -11.2745   18.9101 H   0  0  0  0  0  0
  -27.3609  -12.5214   17.8049 H   0  0  0  0  0  0
  -27.6531  -14.2467   19.4819 H   0  0  0  0  0  0
  -28.6945  -12.1365   21.4387 H   0  0  0  0  0  0
  -28.4499  -13.8275   21.7919 H   0  0  0  0  0  0
  -25.2747   -9.5694   22.4769 H   0  0  0  0  0  0
  -23.9995   -7.4643   22.7482 H   0  0  0  0  0  0
  -21.0850   -8.8755   19.8943 H   0  0  0  0  0  0
  -22.3691  -10.9666   19.6160 H   0  0  0  0  0  0
  -21.1999   -7.6138   23.9704 H   0  0  0  0  0  0
  -21.1484   -6.0527   25.9069 H   0  0  0  0  0  0
  -22.0597   -2.7610   23.2853 H   0  0  0  0  0  0
  -22.4109  -11.9820   22.4749 H   0  0  0  0  0  0
  -21.1105  -13.1190   22.2669 H   0  0  0  0  0  0
  -24.6554  -15.8470   20.5209 H   0  0  0  0  0  0
  -26.2731  -15.6345   20.0890 H   0  0  0  0  0  0
  -26.7199  -32.5462   23.1126 H   0  0  0  0  0  0
  -25.0260  -33.9736   25.0569 H   0  0  0  0  0  0
  -22.7137  -31.3163   21.4148 H   0  0  0  0  0  0
  -23.3775  -35.9566   23.3279 H   0  0  0  0  0  0
  -24.3578  -36.8900   22.2049 H   0  0  0  0  0  0
  -23.7196  -37.6456   23.6658 H   0  0  0  0  0  0
  -26.1058  -31.5556   20.6193 H   0  0  0  0  0  0
  -26.8441  -30.8323   22.0167 H   0  0  0  0  0  0
  -28.1053  -28.9499   21.2214 H   0  0  0  0  0  0
  -25.8967  -26.0154   18.8969 H   0  0  0  0  0  0
  -23.9629  -27.3799   18.9561 H   0  0  0  0  0  0
  -23.7594  -30.6311   19.4147 H   0  0  0  0  0  0
  -22.7514  -29.2852   19.8502 H   0  0  0  0  0  0
  -25.1267  -36.1936   25.0836 H   0  0  0  0  0  0
  -21.0004  -28.3251   24.1382 H   0  0  0  0  0  0
  -20.5705  -26.2282   23.3570 H   0  0  0  0  0  0
  -21.6647  -26.7426   22.1142 H   0  0  0  0  0  0
  -19.6894  -25.6289   21.1208 H   0  0  0  0  0  0
  -19.6669  -27.3193   20.6730 H   0  0  0  0  0  0
  -17.4185  -26.6694   21.4023 H   0  0  0  0  0  0
  -18.0315  -26.0040   22.8997 H   0  0  0  0  0  0
  -19.7965  -30.7277   24.2212 H   0  0  0  0  0  0
  -17.5042  -31.6254   24.5167 H   0  0  0  0  0  0
  -15.5372  -30.2978   23.7671 H   0  0  0  0  0  0
  -15.8688  -28.0817   22.7071 H   0  0  0  0  0  0
  -24.5988  -30.6988   25.7828 H   0  0  0  0  0  0
  -24.8942  -32.2808   26.4950 H   0  0  0  0  0  0
  -25.8153  -30.8853   27.0243 H   0  0  0  0  0  0
  -26.3005  -29.6762   24.1220 H   0  0  0  0  0  0
  -27.4238  -29.7319   25.4626 H   0  0  0  0  0  0
  -27.8806  -30.4407   23.9329 H   0  0  0  0  0  0
  -27.2683  -33.3688   26.2027 H   0  0  0  0  0  0
  -28.3921  -32.6868   25.0369 H   0  0  0  0  0  0
  -28.0702  -31.8527   26.5499 H   0  0  0  0  0  0
  -28.2565  -38.0114   24.7583 H   0  0  0  0  0  0
  -28.1109  -36.2656   24.6241 H   0  0  0  0  0  0
  -27.2288  -37.1356   25.8872 H   0  0  0  0  0  0
  -20.9372  -29.8861   21.6959 H   0  0  0  0  0  0
  -26.0160  -38.2855   24.1482 H   0  0  0  0  0  0
  -30.1106  -21.9619   22.5111 H   0  0  0  0  0  0
  -27.6978  -19.5700   16.9426 H   0  0  0  0  0  0
  -27.0714  -21.0420   17.6829 H   0  0  0  0  0  0
  -27.3948  -19.6288   18.6776 H   0  0  0  0  0  0
  -30.9533  -19.8210   21.7280 H   0  0  0  0  0  0
  -31.2658  -19.7077   20.0391 H   0  0  0  0  0  0
  -29.8662  -19.8488   18.1520 H   0  0  0  0  0  0
  -29.5386  -21.2454   17.1776 H   0  0  0  0  0  0
  -27.0220  -24.7617   20.3836 H   0  0  0  0  0  0
  -27.7145  -24.9911   18.7855 H   0  0  0  0  0  0
  -29.0281  -18.3682   19.8186 H   0  0  0  0  0  0
  -28.9646  -18.3541   21.5590 H   0  0  0  0  0  0
  -31.2902  -17.2036   21.5435 H   0  0  0  0  0  0
  -31.2130  -17.1867   19.8107 H   0  0  0  0  0  0
  -29.0108  -15.6612   20.9590 H   0  0  0  0  0  0
  1 25  1  0  0  0
  1 30  2  0  0  0
  1 83  1  0  0  0
  2  3  1  0  0  0
  2 25  1  0  0  0
  2 84  1  0  0  0
  2 85  1  0  0  0
  3  4  1  0  0  0
  3 86  1  0  0  0
  3 87  1  0  0  0
  4  5  1  0  0  0
  4 88  1  0  0  0
  4 89  1  0  0  0
  5  6  1  0  0  0
  5 26  1  0  0  0
  5 90  1  0  0  0
  6 25  1  0  0  0
  6 91  1  0  0  0
  6 92  1  0  0  0
  7  8  2  0  0  0
  7 26  1  0  0  0
  7 29  1  0  0  0
  8  9  1  0  0  0
  8 22  1  0  0  0
  9 10  1  0  0  0
  9 27  2  0  0  0
 10 11  2  0  0  0
 10 15  1  0  0  0
 11 12  1  0  0  0
 11 93  1  0  0  0
 12 13  2  0  0  0
 12 94  1  0  0  0
 13 14  1  0  0  0
 13 31  1  0  0  0
 14 15  2  0  0  0
 14 95  1  0  0  0
 15 96  1  0  0  0
 16 17  2  0  0  0
 16 21  1  0  0  0
 16 31  1  0  0  0
 17 18  1  0  0  0
 17 97  1  0  0  0
 18 19  2  0  0  0
 18 98  1  0  0  0
 19 20  1  0  0  0
 19 24  1  0  0  0
 20 21  2  0  0  0
 20 99  1  0  0  0
 21 23  1  0  0  0
 22 28  1  0  0  0
 22 32  2  0  0  0
 26 27  1  0  0  0
 28100  1  0  0  0
 28101  1  0  0  0
 29102  1  0  0  0
 29103  1  0  0  0
 33 34  1  0  0  0
 33 66  1  0  0  0
 33 70  2  0  0  0
 34 36  1  0  0  0
 34 59  1  0  0  0
 34104  1  0  0  0
 35 44  2  0  0  0
 35 45  1  0  0  0
 35 68  1  0  0  0
 36 56  1  0  0  0
 36105  1  0  0  0
 37 39  1  0  0  0
 37 47  1  0  0  0
 37 66  1  0  0  0
 37106  1  0  0  0
 38 43  2  0  0  0
 38 46  1  0  0  0
 38 47  1  0  0  0
 39 64  1  0  0  0
 39 67  2  0  0  0
 40 52  1  0  0  0
 40 53  2  0  0  0
 40 58  1  0  0  0
 41107  1  0  0  0
 41108  1  0  0  0
 41109  1  0  0  0
 41 48  1  0  0  0
 42 43  1  0  0  0
 42 66  1  0  0  0
 42110  1  0  0  0
 42111  1  0  0  0
 43 44  1  0  0  0
 44112  1  0  0  0
 45 46  2  0  0  0
 45113  1  0  0  0
 46114  1  0  0  0
 47115  1  0  0  0
 47116  1  0  0  0
 48 56  1  0  0  0
 48 65  1  0  0  0
 48117  1  0  0  0
 49 50  1  0  0  0
 49 53  1  0  0  0
 49 64  1  0  0  0
 49118  1  0  0  0
 50 51  1  0  0  0
 50119  1  0  0  0
 50120  1  0  0  0
 51 52  1  0  0  0
 51121  1  0  0  0
 51122  1  0  0  0
 52123  1  0  0  0
 52124  1  0  0  0
 53 54  1  0  0  0
 54 55  2  0  0  0
 54125  1  0  0  0
 55 57  1  0  0  0
 55126  1  0  0  0
 56 69  2  0  0  0
 57 58  2  0  0  0
 57127  1  0  0  0
 58128  1  0  0  0
 59 60  1  0  0  0
 59 61  1  0  0  0
 59 62  1  0  0  0
 60129  1  0  0  0
 60130  1  0  0  0
 60131  1  0  0  0
 61132  1  0  0  0
 61133  1  0  0  0
 61134  1  0  0  0
 62135  1  0  0  0
 62136  1  0  0  0
 62137  1  0  0  0
 63 65  1  0  0  0
 63138  1  0  0  0
 63139  1  0  0  0
 63140  1  0  0  0
 64141  1  0  0  0
 65142  1  0  0  0
 68 78  1  0  0  0
 71 72  2  0  0  0
 71 81  1  0  0  0
 71143  1  0  0  0
 72 73  1  0  0  0
 72 76  1  0  0  0
 73 77  1  0  0  0
 73 82  2  0  0  0
 74 78  1  0  0  0
 74 81  2  0  0  0
 74 82  1  0  0  0
 75 77  1  0  0  0
 75144  1  0  0  0
 75145  1  0  0  0
 75146  1  0  0  0
 76 79  1  0  0  0
 76147  1  0  0  0
 76148  1  0  0  0
 77149  1  0  0  0
 77150  1  0  0  0
 78151  1  0  0  0
 78152  1  0  0  0
 79 80  1  0  0  0
 79153  1  0  0  0
 79154  1  0  0  0
 80 83  1  0  0  0
 80155  1  0  0  0
 80156  1  0  0  0
 83157  1  0  0  0
M  ISO  4   1 100  68 101  78 101  83 100
M  END
> <chiral flag>
0

> <version>
0

> <s_m_source_file>
/data/baiqing/PycharmProjects/Reinvent-master-3.2/result/LINK_invent/BTK/process_docking_weight1_custom_sum_contain_oxygen_bond_distance_aromatic_linkinvent_7_9_3/rearranged_h_0042.sdf

> <i_m_source_file_index>
76

> <r_mmod_Potential_Energy-OPLS-2005>
-301.384521484375

> <r_mmod_Stretch_Energy-OPLS-2005>
71.2472076416016

> <r_mmod_Bend_Energy-OPLS-2005>
150.990325927734

> <r_mmod_Torsional_Energy-OPLS-2005>
197.374740600586

> <r_mmod_Improper_Torsional_Energy-OPLS-2005>
8.20289993286133

> <r_mmod_Van_der_Waal_Energy-OPLS-2005>
164.688934326172

> <r_mmod_Electrostatic_Energy-OPLS-2005>
-713.77685546875

> <r_mmod_Solvation_Energy-OPLS-2005>
-232.795883178711

> <b_mmod_Minimization_Converged-OPLS-2005>
0

> <r_mmod_RMS_Derivative-OPLS-2005>
2.02960562705994

$$$$
78
                    3D
 Structure written by MMmdl.
154162  0  0  1  0            999 V2000
  -30.5304  -14.9081   20.4333 C   0  0  0  0  0  0
  -30.4491  -12.5515   19.5007 C   0  0  0  0  0  0
  -29.5285  -12.5297   18.2568 C   0  0  0  0  0  0
  -28.0573  -12.3201   18.6660 C   0  0  0  0  0  0
  -27.6369  -13.2406   19.8406 C   0  0  2  0  0  0
  -28.6780  -13.2388   20.9798 C   0  0  0  0  0  0
  -25.2503  -13.8199   20.5697 C   0  0  0  0  0  0
  -24.1802  -13.0435   20.9204 C   0  0  0  0  0  0
  -24.6406  -11.6917   20.8734 C   0  0  0  0  0  0
  -23.9083  -10.4292   21.0400 C   0  0  0  0  0  0
  -24.3630   -9.4208   21.9180 C   0  0  0  0  0  0
  -23.6302   -8.2244   22.0751 C   0  0  0  0  0  0
  -22.4284   -8.0284   21.3543 C   0  0  0  0  0  0
  -21.9924   -9.0257   20.4644 C   0  0  0  0  0  0
  -22.7252  -10.2135   20.3051 C   0  0  0  0  0  0
  -21.6856   -6.0736   22.5277 C   0  0  0  0  0  0
  -21.4016   -6.5639   23.8209 C   0  0  0  0  0  0
  -21.3661   -5.6790   24.9171 C   0  0  0  0  0  0
  -21.6045   -4.3053   24.7222 C   0  0  0  0  0  0
  -21.8820   -3.8145   23.4344 C   0  0  0  0  0  0
  -21.9194   -4.6963   22.3401 C   0  0  0  0  0  0
  -22.7824  -13.5211   21.1869 C   0  0  0  0  0  0
  -22.1663   -4.2147   21.0979 F   0  0  0  0  0  0
  -21.5631   -3.4538   25.7737 F   0  0  0  0  0  0
  -29.9705  -13.6333   20.4050 N   0  0  0  0  0  0
  -26.2923  -12.9416   20.3231 N   0  0  0  0  0  0
  -25.9339  -11.6552   20.5717 N   0  0  0  0  0  0
  -22.0477  -12.8197   22.0427 N   0  0  0  0  0  0
  -25.4196  -15.1928   20.4152 N   0  0  0  0  0  0
  -31.7212  -14.9900   20.1089 O   0  0  0  0  0  0
  -21.6645   -6.8882   21.4241 O   0  0  0  0  0  0
  -22.3506  -14.5520   20.6722 O   0  0  0  0  0  0
  -24.6417  -31.8463   23.1903 C   0  0  0  0  0  0
  -25.9197  -32.4708   23.8285 C   0  0  1  0  0  0
  -27.2186  -27.1588   20.1452 C   0  0  0  0  0  0
  -25.5951  -33.8514   24.2201 N   0  0  0  0  0  0
  -23.4438  -30.4667   21.5361 C   0  0  2  0  0  0
  -24.8925  -28.8981   20.1119 C   0  0  0  0  0  0
  -22.7558  -29.4559   22.4875 C   0  0  0  0  0  0
  -18.0302  -28.1395   22.8477 C   0  0  0  0  0  0
  -24.1493  -36.7262   23.2641 C   0  0  0  0  0  0
  -25.9988  -30.7277   21.3856 C   0  0  0  0  0  0
  -26.0706  -29.3414   20.7263 C   0  0  0  0  0  0
  -27.2355  -28.4885   20.7245 C   0  0  0  0  0  0
  -26.0114  -26.8119   19.4970 C   0  0  0  0  0  0
  -24.8745  -27.6458   19.4824 C   0  0  0  0  0  0
  -23.6685  -29.7976   20.1552 C   0  0  0  0  0  0
  -25.4124  -36.3040   24.0317 C   0  0  1  0  0  0
  -20.5914  -28.3718   23.1243 C   0  0  2  0  0  0
  -20.6789  -26.9425   22.5404 C   0  0  0  0  0  0
  -19.5762  -26.6382   21.5212 C   0  0  0  0  0  0
  -18.1943  -26.7933   22.1623 C   0  0  0  0  0  0
  -19.1559  -28.8874   23.2852 C   0  0  0  0  0  0
  -18.9474  -30.1472   23.8874 C   0  0  0  0  0  0
  -17.6471  -30.6591   24.0559 C   0  0  0  0  0  0
  -25.9073  -34.9415   23.5069 C   0  0  0  0  0  0
  -16.5363  -29.9084   23.6337 C   0  0  0  0  0  0
  -16.7287  -28.6504   23.0355 C   0  0  0  0  0  0
  -26.4523  -31.6568   25.0719 C   0  0  0  0  0  0
  -25.3710  -31.3750   26.1415 C   0  0  0  0  0  0
  -27.0389  -30.2967   24.6290 C   0  0  0  0  0  0
  -27.6054  -32.4333   25.7507 C   0  0  0  0  0  0
  -27.5578  -37.1789   24.8465 C   0  0  0  0  0  0
  -21.4253  -29.3048   22.3620 N   0  0  0  0  0  0
  -26.4289  -37.3751   23.9406 N   0  0  0  0  0  0
  -24.7145  -31.0341   22.0926 N   0  0  0  0  0  0
  -23.4211  -28.8107   23.3018 O   0  0  0  0  0  0
  -28.2806  -26.1888   20.2055 O   0  0  0  0  0  0
  -26.5658  -34.8906   22.4646 O   0  0  0  0  0  0
  -23.5540  -32.1329   23.7135 O   0  0  0  0  0  0
  -31.3906  -18.1975   20.0922 C   0  0  0  0  0  0
  -30.8997  -20.6295   19.9637 C   0  0  0  0  0  0
  -29.1635  -19.0369   20.5262 C   0  0  0  0  0  0
  -31.7968  -19.5373   19.8636 C   0  0  0  0  0  0
  -30.0625  -17.8601   20.4352 C   0  0  0  0  0  0
  -29.5423  -20.4511   20.2957 C   0  0  0  0  0  0
  -33.2395  -19.8171   19.4899 C   0  0  0  0  0  0
  -29.6564  -16.2891   20.7331 C   0  0  0  0  0  0
  -28.5663  -21.7703   20.3356 C   0  0  0  0  0  0
  -29.0429  -23.3810   20.3031 C   0  0  0  0  0  0
  -27.9833  -24.6685   20.1349 C   0  0  0  0  0  0
  -31.4851  -12.7021   19.1942 H   0  0  0  0  0  0
  -30.4286  -11.5886   20.0139 H   0  0  0  0  0  0
  -29.8420  -11.7443   17.5681 H   0  0  0  0  0  0
  -29.6268  -13.4707   17.7133 H   0  0  0  0  0  0
  -27.9430  -11.2757   18.9583 H   0  0  0  0  0  0
  -27.3989  -12.4705   17.8095 H   0  0  0  0  0  0
  -27.6087  -14.2467   19.4244 H   0  0  0  0  0  0
  -28.7454  -12.2549   21.4466 H   0  0  0  0  0  0
  -28.3821  -13.9328   21.7676 H   0  0  0  0  0  0
  -25.2775   -9.5683   22.4756 H   0  0  0  0  0  0
  -24.0008   -7.4635   22.7475 H   0  0  0  0  0  0
  -21.0853   -8.8779   19.8953 H   0  0  0  0  0  0
  -22.3710  -10.9675   19.6161 H   0  0  0  0  0  0
  -21.2009   -7.6147   23.9712 H   0  0  0  0  0  0
  -21.1484   -6.0522   25.9074 H   0  0  0  0  0  0
  -22.0599   -2.7608   23.2844 H   0  0  0  0  0  0
  -22.4103  -11.9864   22.4815 H   0  0  0  0  0  0
  -21.1092  -13.1215   22.2633 H   0  0  0  0  0  0
  -24.6550  -15.8484   20.5343 H   0  0  0  0  0  0
  -26.2719  -15.6348   20.0963 H   0  0  0  0  0  0
  -26.7263  -32.5322   23.1015 H   0  0  0  0  0  0
  -25.0072  -33.9634   25.0331 H   0  0  0  0  0  0
  -22.7449  -31.2918   21.3838 H   0  0  0  0  0  0
  -23.3761  -35.9589   23.3292 H   0  0  0  0  0  0
  -24.3575  -36.8905   22.2057 H   0  0  0  0  0  0
  -23.7243  -37.6453   23.6685 H   0  0  0  0  0  0
  -26.1522  -31.4844   20.6148 H   0  0  0  0  0  0
  -26.8700  -30.7765   22.0274 H   0  0  0  0  0  0
  -28.1341  -28.8242   21.2228 H   0  0  0  0  0  0
  -25.9064  -25.8577   19.0057 H   0  0  0  0  0  0
  -23.9751  -27.3007   18.9912 H   0  0  0  0  0  0
  -23.8032  -30.5724   19.3996 H   0  0  0  0  0  0
  -22.7836  -29.2384   19.8456 H   0  0  0  0  0  0
  -25.1312  -36.1869   25.0809 H   0  0  0  0  0  0
  -21.0002  -28.3303   24.1366 H   0  0  0  0  0  0
  -20.5687  -26.2330   23.3619 H   0  0  0  0  0  0
  -21.6655  -26.7437   22.1199 H   0  0  0  0  0  0
  -19.6925  -25.6288   21.1256 H   0  0  0  0  0  0
  -19.6699  -27.3181   20.6732 H   0  0  0  0  0  0
  -17.4212  -26.6676   21.4027 H   0  0  0  0  0  0
  -18.0344  -26.0081   22.9026 H   0  0  0  0  0  0
  -19.7950  -30.7296   24.2233 H   0  0  0  0  0  0
  -17.5024  -31.6269   24.5165 H   0  0  0  0  0  0
  -15.5363  -30.2977   23.7676 H   0  0  0  0  0  0
  -15.8687  -28.0816   22.7081 H   0  0  0  0  0  0
  -24.5893  -30.7095   25.7732 H   0  0  0  0  0  0
  -24.8894  -32.2930   26.4793 H   0  0  0  0  0  0
  -25.7993  -30.8950   27.0223 H   0  0  0  0  0  0
  -26.3005  -29.6689   24.1289 H   0  0  0  0  0  0
  -27.3999  -29.7265   25.4860 H   0  0  0  0  0  0
  -27.8912  -30.4208   23.9607 H   0  0  0  0  0  0
  -27.2645  -33.3648   26.2038 H   0  0  0  0  0  0
  -28.3889  -32.6870   25.0355 H   0  0  0  0  0  0
  -28.0694  -31.8488   26.5462 H   0  0  0  0  0  0
  -28.2590  -38.0092   24.7512 H   0  0  0  0  0  0
  -28.1081  -36.2620   24.6294 H   0  0  0  0  0  0
  -27.2294  -37.1437   25.8869 H   0  0  0  0  0  0
  -20.9460  -29.8756   21.6796 H   0  0  0  0  0  0
  -26.0158  -38.2821   24.1404 H   0  0  0  0  0  0
  -32.1323  -17.4174   20.0044 H   0  0  0  0  0  0
  -31.2671  -21.6279   19.7696 H   0  0  0  0  0  0
  -28.1309  -18.8450   20.7851 H   0  0  0  0  0  0
  -33.8914  -18.9852   19.7592 H   0  0  0  0  0  0
  -33.6064  -20.7072   20.0023 H   0  0  0  0  0  0
  -33.3267  -19.9825   18.4156 H   0  0  0  0  0  0
  -28.7035  -16.1467   20.2265 H   0  0  0  0  0  0
  -29.4140  -16.2472   21.7945 H   0  0  0  0  0  0
  -27.9382  -21.6466   21.2181 H   0  0  0  0  0  0
  -27.8845  -21.6368   19.4954 H   0  0  0  0  0  0
  -29.7607  -23.4805   19.4892 H   0  0  0  0  0  0
  -29.6225  -23.5566   21.2094 H   0  0  0  0  0  0
  -27.1881  -24.4984   20.8616 H   0  0  0  0  0  0
  -27.5235  -24.4984   19.1625 H   0  0  0  0  0  0
  1 25  1  0  0  0
  1 30  2  0  0  0
  1 78  1  0  0  0
  2  3  1  0  0  0
  2 25  1  0  0  0
  2 82  1  0  0  0
  2 83  1  0  0  0
  3  4  1  0  0  0
  3 84  1  0  0  0
  3 85  1  0  0  0
  4  5  1  0  0  0
  4 86  1  0  0  0
  4 87  1  0  0  0
  5  6  1  0  0  0
  5 26  1  0  0  0
  5 88  1  0  0  0
  6 25  1  0  0  0
  6 89  1  0  0  0
  6 90  1  0  0  0
  7  8  2  0  0  0
  7 26  1  0  0  0
  7 29  1  0  0  0
  8  9  1  0  0  0
  8 22  1  0  0  0
  9 10  1  0  0  0
  9 27  2  0  0  0
 10 11  2  0  0  0
 10 15  1  0  0  0
 11 12  1  0  0  0
 11 91  1  0  0  0
 12 13  2  0  0  0
 12 92  1  0  0  0
 13 14  1  0  0  0
 13 31  1  0  0  0
 14 15  2  0  0  0
 14 93  1  0  0  0
 15 94  1  0  0  0
 16 17  2  0  0  0
 16 21  1  0  0  0
 16 31  1  0  0  0
 17 18  1  0  0  0
 17 95  1  0  0  0
 18 19  2  0  0  0
 18 96  1  0  0  0
 19 20  1  0  0  0
 19 24  1  0  0  0
 20 21  2  0  0  0
 20 97  1  0  0  0
 21 23  1  0  0  0
 22 28  1  0  0  0
 22 32  2  0  0  0
 26 27  1  0  0  0
 28 98  1  0  0  0
 28 99  1  0  0  0
 29100  1  0  0  0
 29101  1  0  0  0
 33 34  1  0  0  0
 33 66  1  0  0  0
 33 70  2  0  0  0
 34 36  1  0  0  0
 34 59  1  0  0  0
 34102  1  0  0  0
 35 44  2  0  0  0
 35 45  1  0  0  0
 35 68  1  0  0  0
 36 56  1  0  0  0
 36103  1  0  0  0
 37 39  1  0  0  0
 37 47  1  0  0  0
 37 66  1  0  0  0
 37104  1  0  0  0
 38 43  2  0  0  0
 38 46  1  0  0  0
 38 47  1  0  0  0
 39 64  1  0  0  0
 39 67  2  0  0  0
 40 52  1  0  0  0
 40 53  2  0  0  0
 40 58  1  0  0  0
 41105  1  0  0  0
 41106  1  0  0  0
 41107  1  0  0  0
 41 48  1  0  0  0
 42 43  1  0  0  0
 42 66  1  0  0  0
 42108  1  0  0  0
 42109  1  0  0  0
 43 44  1  0  0  0
 44110  1  0  0  0
 45 46  2  0  0  0
 45111  1  0  0  0
 46112  1  0  0  0
 47113  1  0  0  0
 47114  1  0  0  0
 48 56  1  0  0  0
 48 65  1  0  0  0
 48115  1  0  0  0
 49 50  1  0  0  0
 49 53  1  0  0  0
 49 64  1  0  0  0
 49116  1  0  0  0
 50 51  1  0  0  0
 50117  1  0  0  0
 50118  1  0  0  0
 51 52  1  0  0  0
 51119  1  0  0  0
 51120  1  0  0  0
 52121  1  0  0  0
 52122  1  0  0  0
 53 54  1  0  0  0
 54 55  2  0  0  0
 54123  1  0  0  0
 55 57  1  0  0  0
 55124  1  0  0  0
 56 69  2  0  0  0
 57 58  2  0  0  0
 57125  1  0  0  0
 58126  1  0  0  0
 59 60  1  0  0  0
 59 61  1  0  0  0
 59 62  1  0  0  0
 60127  1  0  0  0
 60128  1  0  0  0
 60129  1  0  0  0
 61130  1  0  0  0
 61131  1  0  0  0
 61132  1  0  0  0
 62133  1  0  0  0
 62134  1  0  0  0
 62135  1  0  0  0
 63 65  1  0  0  0
 63136  1  0  0  0
 63137  1  0  0  0
 63138  1  0  0  0
 64139  1  0  0  0
 65140  1  0  0  0
 68 81  1  0  0  0
 71 74  2  0  0  0
 71 75  1  0  0  0
 71141  1  0  0  0
 72 74  1  0  0  0
 72 76  2  0  0  0
 72142  1  0  0  0
 73 75  2  0  0  0
 73 76  1  0  0  0
 73143  1  0  0  0
 74 77  1  0  0  0
 75 78  1  0  0  0
 76 79  1  0  0  0
 77144  1  0  0  0
 77145  1  0  0  0
 77146  1  0  0  0
 78147  1  0  0  0
 78148  1  0  0  0
 79 80  1  0  0  0
 79149  1  0  0  0
 79150  1  0  0  0
 80 81  1  0  0  0
 80151  1  0  0  0
 80152  1  0  0  0
 81153  1  0  0  0
 81154  1  0  0  0
M  ISO  4   1 100  68 101  78 100  81 101
M  END
> <chiral flag>
0

> <version>
0

> <s_m_source_file>
/data/baiqing/PycharmProjects/Reinvent-master-3.2/result/LINK_invent/BTK/process_docking_weight1_custom_sum_contain_oxygen_bond_distance_aromatic_linkinvent_7_9_3/rearranged_h_0042.sdf

> <i_m_source_file_index>
77

> <r_mmod_Potential_Energy-OPLS-2005>
450.284942626953

> <r_mmod_Stretch_Energy-OPLS-2005>
238.391143798828

> <r_mmod_Bend_Energy-OPLS-2005>
230.402359008789

> <r_mmod_Torsional_Energy-OPLS-2005>
176.350311279297

> <r_mmod_Improper_Torsional_Energy-OPLS-2005>
2.92420864105225

> <r_mmod_Van_der_Waal_Energy-OPLS-2005>
130.699447631836

> <r_mmod_Electrostatic_Energy-OPLS-2005>
-297.459228515625

> <r_mmod_Solvation_Energy-OPLS-2005>
-196.729019165039

> <b_mmod_Minimization_Converged-OPLS-2005>
0

> <r_mmod_RMS_Derivative-OPLS-2005>
0.491280764341354

$$$$
79
                    3D
 Structure written by MMmdl.
175183  0  0  1  0            999 V2000
  -30.6909  -14.5187   20.5574 C   0  0  0  0  0  0
  -30.4252  -12.3294   19.4288 C   0  0  0  0  0  0
  -29.4995  -12.5156   18.2086 C   0  0  0  0  0  0
  -28.0177  -12.3822   18.6137 C   0  0  0  0  0  0
  -27.6631  -13.2165   19.8739 C   0  0  2  0  0  0
  -28.7091  -13.0097   20.9938 C   0  0  0  0  0  0
  -25.2588  -13.8166   20.5674 C   0  0  0  0  0  0
  -24.1845  -13.0431   20.9178 C   0  0  0  0  0  0
  -24.6421  -11.6901   20.8747 C   0  0  0  0  0  0
  -23.9082  -10.4273   21.0418 C   0  0  0  0  0  0
  -24.3623   -9.4184   21.9196 C   0  0  0  0  0  0
  -23.6281   -8.2227   22.0776 C   0  0  0  0  0  0
  -22.4264   -8.0276   21.3553 C   0  0  0  0  0  0
  -21.9925   -9.0251   20.4641 C   0  0  0  0  0  0
  -22.7269  -10.2117   20.3048 C   0  0  0  0  0  0
  -21.6853   -6.0734   22.5284 C   0  0  0  0  0  0
  -21.4017   -6.5653   23.8215 C   0  0  0  0  0  0
  -21.3650   -5.6814   24.9191 C   0  0  0  0  0  0
  -21.6036   -4.3071   24.7235 C   0  0  0  0  0  0
  -21.8837   -3.8144   23.4361 C   0  0  0  0  0  0
  -21.9200   -4.6960   22.3409 C   0  0  0  0  0  0
  -22.7872  -13.5216   21.1833 C   0  0  0  0  0  0
  -22.1679   -4.2134   21.0995 F   0  0  0  0  0  0
  -21.5605   -3.4566   25.7737 F   0  0  0  0  0  0
  -30.0326  -13.3265   20.4415 N   0  0  0  0  0  0
  -26.3044  -12.9354   20.3365 N   0  0  0  0  0  0
  -25.9353  -11.6506   20.5762 N   0  0  0  0  0  0
  -22.0526  -12.8156   22.0355 N   0  0  0  0  0  0
  -25.4318  -15.1884   20.4092 N   0  0  0  0  0  0
  -31.8192  -14.6635   20.0791 O   0  0  0  0  0  0
  -21.6630   -6.8872   21.4246 O   0  0  0  0  0  0
  -22.3566  -14.5538   20.6720 O   0  0  0  0  0  0
  -24.6179  -31.8648   23.2048 C   0  0  0  0  0  0
  -25.9058  -32.4806   23.8362 C   0  0  1  0  0  0
  -27.2417  -27.3984   20.1086 C   0  0  0  0  0  0
  -25.5903  -33.8600   24.2296 N   0  0  0  0  0  0
  -23.4083  -30.4837   21.5478 C   0  0  2  0  0  0
  -24.8561  -28.9417   20.1154 C   0  0  0  0  0  0
  -22.7423  -29.4634   22.4991 C   0  0  0  0  0  0
  -18.0277  -28.1376   22.8493 C   0  0  0  0  0  0
  -24.1493  -36.7310   23.2643 C   0  0  0  0  0  0
  -25.9383  -30.8219   21.3591 C   0  0  0  0  0  0
  -26.0167  -29.4509   20.7096 C   0  0  0  0  0  0
  -27.2106  -28.6892   20.6962 C   0  0  0  0  0  0
  -26.0595  -26.9083   19.5084 C   0  0  0  0  0  0
  -24.8749  -27.6724   19.5097 C   0  0  0  0  0  0
  -23.6176  -29.8100   20.1644 C   0  0  0  0  0  0
  -25.4123  -36.3102   24.0335 C   0  0  1  0  0  0
  -20.5866  -28.3668   23.1327 C   0  0  2  0  0  0
  -20.6766  -26.9402   22.5426 C   0  0  0  0  0  0
  -19.5743  -26.6383   21.5219 C   0  0  0  0  0  0
  -18.1919  -26.7930   22.1618 C   0  0  0  0  0  0
  -19.1525  -28.8843   23.2898 C   0  0  0  0  0  0
  -18.9443  -30.1456   23.8900 C   0  0  0  0  0  0
  -17.6441  -30.6593   24.0563 C   0  0  0  0  0  0
  -25.9047  -34.9468   23.5117 C   0  0  0  0  0  0
  -16.5339  -29.9088   23.6324 C   0  0  0  0  0  0
  -16.7266  -28.6504   23.0352 C   0  0  0  0  0  0
  -26.4476  -31.6581   25.0696 C   0  0  0  0  0  0
  -25.3729  -31.3636   26.1417 C   0  0  0  0  0  0
  -27.0334  -30.3047   24.6049 C   0  0  0  0  0  0
  -27.6026  -32.4303   25.7494 C   0  0  0  0  0  0
  -27.5583  -37.1825   24.8468 C   0  0  0  0  0  0
  -21.4147  -29.3030   22.3732 N   0  0  0  0  0  0
  -26.4300  -37.3795   23.9400 N   0  0  0  0  0  0
  -24.6740  -31.0709   22.0966 N   0  0  0  0  0  0
  -23.4175  -28.8180   23.3053 O   0  0  0  0  0  0
  -28.4181  -26.6637   20.1364 O   0  0  0  0  0  0
  -26.5617  -34.8931   22.4684 O   0  0  0  0  0  0
  -23.5363  -32.1397   23.7438 O   0  0  0  0  0  0
  -31.7667  -24.6569   21.2328 C   0  0  0  0  0  0
  -31.5333  -23.4126   20.6954 C   0  0  0  0  0  0
  -29.7157  -24.6526   20.5153 C   0  0  0  0  0  0
  -35.0023  -26.8088   21.4720 C   0  0  0  0  0  0
  -34.0715  -21.0824   18.8546 C   0  0  0  0  0  0
  -33.0206  -25.2310   21.8289 C   0  0  0  0  0  0
  -32.5202  -22.2940   20.4891 C   0  0  0  0  0  0
  -28.3571  -25.2096   20.0995 C   0  0  0  0  0  0
  -30.0260  -15.7872   21.1789 C   0  0  0  0  0  0
  -33.7149  -26.2199   20.8801 C   0  0  0  0  0  0
  -33.0976  -22.2495   19.0654 C   0  0  0  0  0  0
  -29.4384  -20.9349   20.7103 C   0  0  0  0  0  0
  -29.4862  -22.1926   19.7684 C   0  0  0  0  0  0
  -30.1971  -17.0817   20.3026 C   0  0  0  0  0  0
  -29.7932  -19.5671   20.0289 C   0  0  0  0  0  0
  -30.6227  -25.4276   21.1116 N   0  0  0  0  0  0
  -30.1757  -23.3751   20.3278 N   0  0  0  0  0  0
  -29.7603  -18.3722   20.9355 N   0  3  0  0  0  0
  -31.4702  -12.4212   19.1260 H   0  0  0  0  0  0
  -30.3258  -11.3210   19.8338 H   0  0  0  0  0  0
  -29.7418  -11.7851   17.4353 H   0  0  0  0  0  0
  -29.6704  -13.4984   17.7654 H   0  0  0  0  0  0
  -27.8167  -11.3262   18.8003 H   0  0  0  0  0  0
  -27.3750  -12.6736   17.7811 H   0  0  0  0  0  0
  -27.7027  -14.2640   19.5729 H   0  0  0  0  0  0
  -28.6886  -11.9728   21.3337 H   0  0  0  0  0  0
  -28.4744  -13.6024   21.8767 H   0  0  0  0  0  0
  -25.2789   -9.5657   22.4751 H   0  0  0  0  0  0
  -23.9995   -7.4633   22.7517 H   0  0  0  0  0  0
  -21.0863   -8.8776   19.8919 H   0  0  0  0  0  0
  -22.3767  -10.9659   19.6124 H   0  0  0  0  0  0
  -21.2027   -7.6161   23.9714 H   0  0  0  0  0  0
  -21.1453   -6.0544   25.9088 H   0  0  0  0  0  0
  -22.0617   -2.7605   23.2874 H   0  0  0  0  0  0
  -22.4156  -11.9779   22.4650 H   0  0  0  0  0  0
  -21.1137  -13.1124   22.2580 H   0  0  0  0  0  0
  -24.6653  -15.8447   20.5039 H   0  0  0  0  0  0
  -26.2790  -15.6193   20.0623 H   0  0  0  0  0  0
  -26.7129  -32.5510   23.1123 H   0  0  0  0  0  0
  -25.0049  -33.9747   25.0438 H   0  0  0  0  0  0
  -22.6978  -31.3006   21.4058 H   0  0  0  0  0  0
  -23.3757  -35.9634   23.3301 H   0  0  0  0  0  0
  -24.3573  -36.8944   22.2052 H   0  0  0  0  0  0
  -23.7238  -37.6512   23.6669 H   0  0  0  0  0  0
  -26.0436  -31.5827   20.5844 H   0  0  0  0  0  0
  -26.8286  -30.8831   21.9732 H   0  0  0  0  0  0
  -28.1063  -29.0790   21.1594 H   0  0  0  0  0  0
  -26.0392  -25.9368   19.0366 H   0  0  0  0  0  0
  -23.9834  -27.2744   19.0437 H   0  0  0  0  0  0
  -23.7229  -30.5808   19.4004 H   0  0  0  0  0  0
  -22.7418  -29.2265   19.8743 H   0  0  0  0  0  0
  -25.1299  -36.1970   25.0828 H   0  0  0  0  0  0
  -20.9948  -28.3237   24.1454 H   0  0  0  0  0  0
  -20.5679  -26.2264   23.3610 H   0  0  0  0  0  0
  -21.6639  -26.7450   22.1218 H   0  0  0  0  0  0
  -19.6907  -25.6295   21.1242 H   0  0  0  0  0  0
  -19.6695  -27.3196   20.6751 H   0  0  0  0  0  0
  -17.4199  -26.6699   21.4012 H   0  0  0  0  0  0
  -18.0301  -26.0069   22.9001 H   0  0  0  0  0  0
  -19.7917  -30.7280   24.2258 H   0  0  0  0  0  0
  -17.5001  -31.6274   24.5159 H   0  0  0  0  0  0
  -15.5340  -30.2992   23.7654 H   0  0  0  0  0  0
  -15.8663  -28.0834   22.7059 H   0  0  0  0  0  0
  -24.5938  -30.6961   25.7720 H   0  0  0  0  0  0
  -24.8868  -32.2760   26.4875 H   0  0  0  0  0  0
  -25.8083  -30.8787   27.0161 H   0  0  0  0  0  0
  -26.2886  -29.6796   24.1108 H   0  0  0  0  0  0
  -27.4152  -29.7285   25.4484 H   0  0  0  0  0  0
  -27.8683  -30.4407   23.9171 H   0  0  0  0  0  0
  -27.2632  -33.3602   26.2061 H   0  0  0  0  0  0
  -28.3853  -32.6855   25.0342 H   0  0  0  0  0  0
  -28.0658  -31.8418   26.5420 H   0  0  0  0  0  0
  -28.2601  -38.0124   24.7526 H   0  0  0  0  0  0
  -28.1084  -36.2655   24.6301 H   0  0  0  0  0  0
  -27.2286  -37.1479   25.8867 H   0  0  0  0  0  0
  -20.9316  -29.8747   21.6945 H   0  0  0  0  0  0
  -26.0192  -38.2876   24.1388 H   0  0  0  0  0  0
  -35.4468  -27.5338   20.7891 H   0  0  0  0  0  0
  -35.7437  -26.0318   21.6602 H   0  0  0  0  0  0
  -34.8053  -27.3204   22.4148 H   0  0  0  0  0  0
  -34.4633  -21.0787   17.8368 H   0  0  0  0  0  0
  -33.5802  -20.1231   19.0192 H   0  0  0  0  0  0
  -34.9216  -21.1427   19.5354 H   0  0  0  0  0  0
  -33.7195  -24.4369   22.0910 H   0  0  0  0  0  0
  -32.7847  -25.7309   22.7703 H   0  0  0  0  0  0
  -32.0819  -21.3299   20.7284 H   0  0  0  0  0  0
  -33.3428  -22.3980   21.1970 H   0  0  0  0  0  0
  -27.5943  -24.8314   20.7820 H   0  0  0  0  0  0
  -28.1194  -24.8682   19.0912 H   0  0  0  0  0  0
  -28.9642  -15.6365   21.3655 H   0  0  0  0  0  0
  -30.4969  -15.9443   22.1494 H   0  0  0  0  0  0
  -33.9476  -25.7170   19.9408 H   0  0  0  0  0  0
  -33.0280  -27.0307   20.6348 H   0  0  0  0  0  0
  -32.2895  -22.1680   18.3391 H   0  0  0  0  0  0
  -33.6100  -23.1873   18.8477 H   0  0  0  0  0  0
  -28.4371  -20.8702   21.1378 H   0  0  0  0  0  0
  -30.0876  -21.0866   21.5716 H   0  0  0  0  0  0
  -28.4688  -22.4706   19.4934 H   0  0  0  0  0  0
  -29.9834  -21.9401   18.8308 H   0  0  0  0  0  0
  -29.6377  -16.9436   19.3771 H   0  0  0  0  0  0
  -31.2407  -17.1957   20.0064 H   0  0  0  0  0  0
  -30.7886  -19.6338   19.5862 H   0  0  0  0  0  0
  -29.1059  -19.3932   19.1995 H   0  0  0  0  0  0
  -30.3575  -18.5553   21.7276 H   0  0  0  0  0  0
  -28.8204  -18.2652   21.2844 H   0  0  0  0  0  0
  1 25  1  0  0  0
  1 30  2  0  0  0
  1 79  1  0  0  0
  2  3  1  0  0  0
  2 25  1  0  0  0
  2 89  1  0  0  0
  2 90  1  0  0  0
  3  4  1  0  0  0
  3 91  1  0  0  0
  3 92  1  0  0  0
  4  5  1  0  0  0
  4 93  1  0  0  0
  4 94  1  0  0  0
  5  6  1  0  0  0
  5 26  1  0  0  0
  5 95  1  0  0  0
  6 25  1  0  0  0
  6 96  1  0  0  0
  6 97  1  0  0  0
  7  8  2  0  0  0
  7 26  1  0  0  0
  7 29  1  0  0  0
  8  9  1  0  0  0
  8 22  1  0  0  0
  9 10  1  0  0  0
  9 27  2  0  0  0
 10 11  2  0  0  0
 10 15  1  0  0  0
 11 12  1  0  0  0
 11 98  1  0  0  0
 12 13  2  0  0  0
 12 99  1  0  0  0
 13 14  1  0  0  0
 13 31  1  0  0  0
 14 15  2  0  0  0
 14100  1  0  0  0
 15101  1  0  0  0
 16 17  2  0  0  0
 16 21  1  0  0  0
 16 31  1  0  0  0
 17 18  1  0  0  0
 17102  1  0  0  0
 18 19  2  0  0  0
 18103  1  0  0  0
 19 20  1  0  0  0
 19 24  1  0  0  0
 20 21  2  0  0  0
 20104  1  0  0  0
 21 23  1  0  0  0
 22 28  1  0  0  0
 22 32  2  0  0  0
 26 27  1  0  0  0
 28105  1  0  0  0
 28106  1  0  0  0
 29107  1  0  0  0
 29108  1  0  0  0
 33 34  1  0  0  0
 33 66  1  0  0  0
 33 70  2  0  0  0
 34 36  1  0  0  0
 34 59  1  0  0  0
 34109  1  0  0  0
 35 44  2  0  0  0
 35 45  1  0  0  0
 35 68  1  0  0  0
 36 56  1  0  0  0
 36110  1  0  0  0
 37 39  1  0  0  0
 37 47  1  0  0  0
 37 66  1  0  0  0
 37111  1  0  0  0
 38 43  2  0  0  0
 38 46  1  0  0  0
 38 47  1  0  0  0
 39 64  1  0  0  0
 39 67  2  0  0  0
 40 52  1  0  0  0
 40 53  2  0  0  0
 40 58  1  0  0  0
 41112  1  0  0  0
 41113  1  0  0  0
 41114  1  0  0  0
 41 48  1  0  0  0
 42 43  1  0  0  0
 42 66  1  0  0  0
 42115  1  0  0  0
 42116  1  0  0  0
 43 44  1  0  0  0
 44117  1  0  0  0
 45 46  2  0  0  0
 45118  1  0  0  0
 46119  1  0  0  0
 47120  1  0  0  0
 47121  1  0  0  0
 48 56  1  0  0  0
 48 65  1  0  0  0
 48122  1  0  0  0
 49 50  1  0  0  0
 49 53  1  0  0  0
 49 64  1  0  0  0
 49123  1  0  0  0
 50 51  1  0  0  0
 50124  1  0  0  0
 50125  1  0  0  0
 51 52  1  0  0  0
 51126  1  0  0  0
 51127  1  0  0  0
 52128  1  0  0  0
 52129  1  0  0  0
 53 54  1  0  0  0
 54 55  2  0  0  0
 54130  1  0  0  0
 55 57  1  0  0  0
 55131  1  0  0  0
 56 69  2  0  0  0
 57 58  2  0  0  0
 57132  1  0  0  0
 58133  1  0  0  0
 59 60  1  0  0  0
 59 61  1  0  0  0
 59 62  1  0  0  0
 60134  1  0  0  0
 60135  1  0  0  0
 60136  1  0  0  0
 61137  1  0  0  0
 61138  1  0  0  0
 61139  1  0  0  0
 62140  1  0  0  0
 62141  1  0  0  0
 62142  1  0  0  0
 63 65  1  0  0  0
 63143  1  0  0  0
 63144  1  0  0  0
 63145  1  0  0  0
 64146  1  0  0  0
 65147  1  0  0  0
 68 78  1  0  0  0
 71 72  2  0  0  0
 71 76  1  0  0  0
 71 86  1  0  0  0
 72 77  1  0  0  0
 72 87  1  0  0  0
 73 78  1  0  0  0
 73 86  2  0  0  0
 73 87  1  0  0  0
 74 80  1  0  0  0
 74148  1  0  0  0
 74149  1  0  0  0
 74150  1  0  0  0
 75 81  1  0  0  0
 75151  1  0  0  0
 75152  1  0  0  0
 75153  1  0  0  0
 76 80  1  0  0  0
 76154  1  0  0  0
 76155  1  0  0  0
 77 81  1  0  0  0
 77156  1  0  0  0
 77157  1  0  0  0
 78158  1  0  0  0
 78159  1  0  0  0
 79 84  1  0  0  0
 79160  1  0  0  0
 79161  1  0  0  0
 80162  1  0  0  0
 80163  1  0  0  0
 81164  1  0  0  0
 81165  1  0  0  0
 82 83  1  0  0  0
 82 85  1  0  0  0
 82166  1  0  0  0
 82167  1  0  0  0
 83 87  1  0  0  0
 83168  1  0  0  0
 83169  1  0  0  0
 84 88  1  0  0  0
 84170  1  0  0  0
 84171  1  0  0  0
 85 88  1  0  0  0
 85172  1  0  0  0
 85173  1  0  0  0
 88174  1  0  0  0
 88175  1  0  0  0
M  CHG  1  88   1
M  ISO  4   1 100  68 101  78 101  79 100
M  END
> <chiral flag>
0

> <version>
0

> <s_m_source_file>
/data/baiqing/PycharmProjects/Reinvent-master-3.2/result/LINK_invent/BTK/process_docking_weight1_custom_sum_contain_oxygen_bond_distance_aromatic_linkinvent_7_9_3/rearranged_h_0042.sdf

> <i_m_source_file_index>
78

> <r_mmod_Potential_Energy-OPLS-2005>
-188.821899414062

> <r_mmod_Stretch_Energy-OPLS-2005>
53.0496444702148

> <r_mmod_Bend_Energy-OPLS-2005>
117.04997253418

> <r_mmod_Torsional_Energy-OPLS-2005>
192.997085571289

> <r_mmod_Improper_Torsional_Energy-OPLS-2005>
3.07906341552734

> <r_mmod_Van_der_Waal_Energy-OPLS-2005>
114.71102142334

> <r_mmod_Electrostatic_Energy-OPLS-2005>
-190.152633666992

> <r_mmod_Solvation_Energy-OPLS-2005>
-497.268951416016

> <b_mmod_Minimization_Converged-OPLS-2005>
0

> <r_mmod_RMS_Derivative-OPLS-2005>
2.56391310691833

$$$$
80
                    3D
 Structure written by MMmdl.
176184  0  0  1  0            999 V2000
  -30.7295  -14.4656   20.5547 C   0  0  0  0  0  0
  -30.4213  -12.3057   19.4215 C   0  0  0  0  0  0
  -29.4975  -12.5094   18.2070 C   0  0  0  0  0  0
  -28.0188  -12.3757   18.6191 C   0  0  0  0  0  0
  -27.6649  -13.2141   19.8777 C   0  0  2  0  0  0
  -28.7122  -13.0179   20.9978 C   0  0  0  0  0  0
  -25.2616  -13.8178   20.5726 C   0  0  0  0  0  0
  -24.1871  -13.0442   20.9205 C   0  0  0  0  0  0
  -24.6413  -11.6907   20.8763 C   0  0  0  0  0  0
  -23.9034  -10.4307   21.0403 C   0  0  0  0  0  0
  -24.3594   -9.4233   21.9189 C   0  0  0  0  0  0
  -23.6280   -8.2249   22.0753 C   0  0  0  0  0  0
  -22.4273   -8.0280   21.3526 C   0  0  0  0  0  0
  -21.9877   -9.0241   20.4636 C   0  0  0  0  0  0
  -22.7197  -10.2143   20.3047 C   0  0  0  0  0  0
  -21.6852   -6.0744   22.5285 C   0  0  0  0  0  0
  -21.4015   -6.5642   23.8221 C   0  0  0  0  0  0
  -21.3673   -5.6800   24.9185 C   0  0  0  0  0  0
  -21.6049   -4.3056   24.7227 C   0  0  0  0  0  0
  -21.8814   -3.8149   23.4360 C   0  0  0  0  0  0
  -21.9198   -4.6960   22.3417 C   0  0  0  0  0  0
  -22.7880  -13.5254   21.1826 C   0  0  0  0  0  0
  -22.1654   -4.2152   21.0993 F   0  0  0  0  0  0
  -21.5631   -3.4562   25.7746 F   0  0  0  0  0  0
  -30.0387  -13.3014   20.4329 N   0  0  0  0  0  0
  -26.3068  -12.9352   20.3424 N   0  0  0  0  0  0
  -25.9361  -11.6495   20.5811 N   0  0  0  0  0  0
  -22.0428  -12.8314   22.0368 N   0  0  0  0  0  0
  -25.4322  -15.1889   20.4141 N   0  0  0  0  0  0
  -31.8608  -14.6164   20.0900 O   0  0  0  0  0  0
  -21.6622   -6.8874   21.4237 O   0  0  0  0  0  0
  -22.3600  -14.5557   20.6650 O   0  0  0  0  0  0
  -24.6151  -31.8705   23.2155 C   0  0  0  0  0  0
  -25.9046  -32.4847   23.8448 C   0  0  1  0  0  0
  -27.2315  -27.4310   20.0933 C   0  0  0  0  0  0
  -25.5914  -33.8652   24.2375 N   0  0  0  0  0  0
  -23.4041  -30.4986   21.5533 C   0  0  2  0  0  0
  -24.8489  -28.9728   20.1141 C   0  0  0  0  0  0
  -22.7429  -29.4679   22.4983 C   0  0  0  0  0  0
  -18.0282  -28.1399   22.8495 C   0  0  0  0  0  0
  -24.1486  -36.7320   23.2635 C   0  0  0  0  0  0
  -25.9353  -30.8401   21.3667 C   0  0  0  0  0  0
  -26.0132  -29.4767   20.7081 C   0  0  0  0  0  0
  -27.2083  -28.7164   20.6896 C   0  0  0  0  0  0
  -26.0417  -26.9510   19.4927 C   0  0  0  0  0  0
  -24.8598  -27.7104   19.5039 C   0  0  0  0  0  0
  -23.6134  -29.8413   20.1648 C   0  0  0  0  0  0
  -25.4102  -36.3129   24.0346 C   0  0  1  0  0  0
  -20.5871  -28.3679   23.1322 C   0  0  2  0  0  0
  -20.6769  -26.9419   22.5420 C   0  0  0  0  0  0
  -19.5742  -26.6398   21.5224 C   0  0  0  0  0  0
  -18.1921  -26.7947   22.1634 C   0  0  0  0  0  0
  -19.1530  -28.8859   23.2906 C   0  0  0  0  0  0
  -18.9453  -30.1461   23.8918 C   0  0  0  0  0  0
  -17.6454  -30.6596   24.0581 C   0  0  0  0  0  0
  -25.9025  -34.9487   23.5152 C   0  0  0  0  0  0
  -16.5349  -29.9102   23.6327 C   0  0  0  0  0  0
  -16.7270  -28.6529   23.0333 C   0  0  0  0  0  0
  -26.4468  -31.6625   25.0772 C   0  0  0  0  0  0
  -25.3746  -31.3724   26.1531 C   0  0  0  0  0  0
  -27.0289  -30.3071   24.6135 C   0  0  0  0  0  0
  -27.6060  -32.4331   25.7526 C   0  0  0  0  0  0
  -27.5585  -37.1816   24.8456 C   0  0  0  0  0  0
  -21.4150  -29.3061   22.3740 N   0  0  0  0  0  0
  -26.4290  -37.3808   23.9415 N   0  0  0  0  0  0
  -24.6703  -31.0825   22.1039 N   0  0  0  0  0  0
  -23.4211  -28.8199   23.2998 O   0  0  0  0  0  0
  -28.3948  -26.6784   20.1116 O   0  0  0  0  0  0
  -26.5569  -34.8925   22.4692 O   0  0  0  0  0  0
  -23.5348  -32.1448   23.7551 O   0  0  0  0  0  0
  -29.4054  -20.6852   19.4004 C   0  0  0  0  0  0
  -28.9573  -20.1714   20.6339 C   0  0  0  0  0  0
  -29.5882  -22.0761   19.2357 C   0  0  0  0  0  0
  -28.6956  -21.1077   21.6661 C   0  0  0  0  0  0
  -29.3310  -22.9318   20.3364 C   0  0  0  0  0  0
  -29.2179  -20.9191   24.1450 C   0  0  0  0  0  0
  -33.8144  -23.4136   17.1723 C   0  0  0  0  0  0
  -31.5883  -21.6578   16.1026 C   0  0  0  0  0  0
  -28.7347  -18.6554   20.7852 C   0  0  0  0  0  0
  -30.0120  -22.5811   17.8633 C   0  0  0  0  0  0
  -28.1726  -20.7121   23.0410 C   0  0  0  0  0  0
  -29.5340  -24.4575   20.3117 C   0  0  0  0  0  0
  -32.3683  -23.5344   17.6821 C   0  0  0  0  0  0
  -29.7287  -17.9550   21.7488 C   0  0  0  0  0  0
  -30.6416  -16.8743   21.1211 C   0  0  0  0  0  0
  -28.2357  -25.2463   20.0362 C   0  0  0  0  0  0
  -31.4914  -22.2732   17.5124 C   0  0  2  0  0  0
  -28.8824  -22.4395   21.5122 N   0  0  0  0  0  0
  -30.0703  -15.5174   21.0794 N   0  0  0  0  0  0
  -31.4661  -12.3951   19.1195 H   0  0  0  0  0  0
  -30.3184  -11.2975   19.8243 H   0  0  0  0  0  0
  -29.7357  -11.7882   17.4259 H   0  0  0  0  0  0
  -29.6767  -13.4981   17.7797 H   0  0  0  0  0  0
  -27.8230  -11.3216   18.8109 H   0  0  0  0  0  0
  -27.3691  -12.6614   17.7910 H   0  0  0  0  0  0
  -27.7001  -14.2609   19.5718 H   0  0  0  0  0  0
  -28.6909  -11.9957   21.3749 H   0  0  0  0  0  0
  -28.4888  -13.6534   21.8542 H   0  0  0  0  0  0
  -25.2723   -9.5747   22.4778 H   0  0  0  0  0  0
  -23.9987   -7.4662   22.7506 H   0  0  0  0  0  0
  -21.0771   -8.8745   19.8994 H   0  0  0  0  0  0
  -22.3593  -10.9671   19.6179 H   0  0  0  0  0  0
  -21.1975   -7.6142   23.9727 H   0  0  0  0  0  0
  -21.1518   -6.0519   25.9091 H   0  0  0  0  0  0
  -22.0585   -2.7607   23.2840 H   0  0  0  0  0  0
  -22.3890  -11.9980   22.4869 H   0  0  0  0  0  0
  -21.1080  -13.1483   22.2522 H   0  0  0  0  0  0
  -24.6581  -15.8376   20.5010 H   0  0  0  0  0  0
  -26.2848  -15.6340   20.0990 H   0  0  0  0  0  0
  -26.7130  -32.5558   23.1232 H   0  0  0  0  0  0
  -25.0129  -33.9836   25.0567 H   0  0  0  0  0  0
  -22.6928  -31.3159   21.4184 H   0  0  0  0  0  0
  -23.3759  -35.9641   23.3295 H   0  0  0  0  0  0
  -24.3592  -36.8929   22.2048 H   0  0  0  0  0  0
  -23.7226  -37.6524   23.6643 H   0  0  0  0  0  0
  -26.0485  -31.6159   20.6071 H   0  0  0  0  0  0
  -26.8210  -30.8899   21.9878 H   0  0  0  0  0  0
  -28.1067  -29.1069   21.1467 H   0  0  0  0  0  0
  -25.9998  -25.9903   19.0016 H   0  0  0  0  0  0
  -23.9655  -27.3184   19.0379 H   0  0  0  0  0  0
  -23.7305  -30.6213   19.4120 H   0  0  0  0  0  0
  -22.7362  -29.2681   19.8598 H   0  0  0  0  0  0
  -25.1277  -36.1999   25.0843 H   0  0  0  0  0  0
  -20.9971  -28.3238   24.1438 H   0  0  0  0  0  0
  -20.5680  -26.2295   23.3604 H   0  0  0  0  0  0
  -21.6634  -26.7466   22.1201 H   0  0  0  0  0  0
  -19.6890  -25.6305   21.1253 H   0  0  0  0  0  0
  -19.6674  -27.3210   20.6749 H   0  0  0  0  0  0
  -17.4191  -26.6712   21.4029 H   0  0  0  0  0  0
  -18.0305  -26.0090   22.9028 H   0  0  0  0  0  0
  -19.7923  -30.7275   24.2300 H   0  0  0  0  0  0
  -17.5005  -31.6270   24.5185 H   0  0  0  0  0  0
  -15.5347  -30.3009   23.7635 H   0  0  0  0  0  0
  -15.8673  -28.0860   22.7013 H   0  0  0  0  0  0
  -24.5926  -30.7056   25.7885 H   0  0  0  0  0  0
  -24.8927  -32.2872   26.4991 H   0  0  0  0  0  0
  -25.8112  -30.8907   27.0287 H   0  0  0  0  0  0
  -26.2834  -29.6865   24.1154 H   0  0  0  0  0  0
  -27.4025  -29.7277   25.4586 H   0  0  0  0  0  0
  -27.8686  -30.4403   23.9311 H   0  0  0  0  0  0
  -27.2704  -33.3625   26.2135 H   0  0  0  0  0  0
  -28.3852  -32.6898   25.0341 H   0  0  0  0  0  0
  -28.0748  -31.8439   26.5415 H   0  0  0  0  0  0
  -28.2588  -38.0129   24.7537 H   0  0  0  0  0  0
  -28.1102  -36.2669   24.6241 H   0  0  0  0  0  0
  -27.2318  -37.1408   25.8861 H   0  0  0  0  0  0
  -20.9307  -29.8852   21.7019 H   0  0  0  0  0  0
  -26.0185  -38.2884   24.1437 H   0  0  0  0  0  0
  -29.5969  -20.0181   18.5694 H   0  0  0  0  0  0
  -28.8132  -20.6776   25.1278 H   0  0  0  0  0  0
  -29.5502  -21.9570   24.1731 H   0  0  0  0  0  0
  -30.0920  -20.2916   23.9744 H   0  0  0  0  0  0
  -34.3859  -24.3069   17.4280 H   0  0  0  0  0  0
  -33.8478  -23.3236   16.0867 H   0  0  0  0  0  0
  -34.3312  -22.5542   17.6018 H   0  0  0  0  0  0
  -30.9604  -20.7700   16.0232 H   0  0  0  0  0  0
  -32.6031  -21.3321   15.8711 H   0  0  0  0  0  0
  -31.2724  -22.3587   15.3283 H   0  0  0  0  0  0
  -28.7659  -18.1760   19.8037 H   0  0  0  0  0  0
  -27.7115  -18.4940   21.1284 H   0  0  0  0  0  0
  -29.7830  -23.6389   17.7381 H   0  0  0  0  0  0
  -29.3535  -22.0879   17.1466 H   0  0  0  0  0  0
  -27.8371  -19.6767   23.0610 H   0  0  0  0  0  0
  -27.2838  -21.3058   23.2536 H   0  0  0  0  0  0
  -30.2951  -24.7338   19.5853 H   0  0  0  0  0  0
  -29.9441  -24.7668   21.2739 H   0  0  0  0  0  0
  -31.9001  -24.3839   17.1823 H   0  0  0  0  0  0
  -32.3960  -23.7870   18.7434 H   0  0  0  0  0  0
  -29.1957  -17.5308   22.6014 H   0  0  0  0  0  0
  -30.3749  -18.7214   22.1779 H   0  0  0  0  0  0
  -31.5630  -16.8186   21.7047 H   0  0  0  0  0  0
  -30.9494  -17.1844   20.1218 H   0  0  0  0  0  0
  -27.4787  -24.9325   20.7584 H   0  0  0  0  0  0
  -27.8817  -24.9619   19.0460 H   0  0  0  0  0  0
  -31.8678  -21.5065   18.1949 H   0  0  0  0  0  0
  -29.1359  -15.3702   21.4327 H   0  0  0  0  0  0
  1 25  1  0  0  0
  1 30  2  0  0  0
  1 89  1  0  0  0
  2  3  1  0  0  0
  2 25  1  0  0  0
  2 90  1  0  0  0
  2 91  1  0  0  0
  3  4  1  0  0  0
  3 92  1  0  0  0
  3 93  1  0  0  0
  4  5  1  0  0  0
  4 94  1  0  0  0
  4 95  1  0  0  0
  5  6  1  0  0  0
  5 26  1  0  0  0
  5 96  1  0  0  0
  6 25  1  0  0  0
  6 97  1  0  0  0
  6 98  1  0  0  0
  7  8  2  0  0  0
  7 26  1  0  0  0
  7 29  1  0  0  0
  8  9  1  0  0  0
  8 22  1  0  0  0
  9 10  1  0  0  0
  9 27  2  0  0  0
 10 11  2  0  0  0
 10 15  1  0  0  0
 11 12  1  0  0  0
 11 99  1  0  0  0
 12 13  2  0  0  0
 12100  1  0  0  0
 13 14  1  0  0  0
 13 31  1  0  0  0
 14 15  2  0  0  0
 14101  1  0  0  0
 15102  1  0  0  0
 16 17  2  0  0  0
 16 21  1  0  0  0
 16 31  1  0  0  0
 17 18  1  0  0  0
 17103  1  0  0  0
 18 19  2  0  0  0
 18104  1  0  0  0
 19 20  1  0  0  0
 19 24  1  0  0  0
 20 21  2  0  0  0
 20105  1  0  0  0
 21 23  1  0  0  0
 22 28  1  0  0  0
 22 32  2  0  0  0
 26 27  1  0  0  0
 28106  1  0  0  0
 28107  1  0  0  0
 29108  1  0  0  0
 29109  1  0  0  0
 33 34  1  0  0  0
 33 66  1  0  0  0
 33 70  2  0  0  0
 34 36  1  0  0  0
 34 59  1  0  0  0
 34110  1  0  0  0
 35 44  2  0  0  0
 35 45  1  0  0  0
 35 68  1  0  0  0
 36 56  1  0  0  0
 36111  1  0  0  0
 37 39  1  0  0  0
 37 47  1  0  0  0
 37 66  1  0  0  0
 37112  1  0  0  0
 38 43  2  0  0  0
 38 46  1  0  0  0
 38 47  1  0  0  0
 39 64  1  0  0  0
 39 67  2  0  0  0
 40 52  1  0  0  0
 40 53  2  0  0  0
 40 58  1  0  0  0
 41113  1  0  0  0
 41114  1  0  0  0
 41115  1  0  0  0
 41 48  1  0  0  0
 42 43  1  0  0  0
 42 66  1  0  0  0
 42116  1  0  0  0
 42117  1  0  0  0
 43 44  1  0  0  0
 44118  1  0  0  0
 45 46  2  0  0  0
 45119  1  0  0  0
 46120  1  0  0  0
 47121  1  0  0  0
 47122  1  0  0  0
 48 56  1  0  0  0
 48 65  1  0  0  0
 48123  1  0  0  0
 49 50  1  0  0  0
 49 53  1  0  0  0
 49 64  1  0  0  0
 49124  1  0  0  0
 50 51  1  0  0  0
 50125  1  0  0  0
 50126  1  0  0  0
 51 52  1  0  0  0
 51127  1  0  0  0
 51128  1  0  0  0
 52129  1  0  0  0
 52130  1  0  0  0
 53 54  1  0  0  0
 54 55  2  0  0  0
 54131  1  0  0  0
 55 57  1  0  0  0
 55132  1  0  0  0
 56 69  2  0  0  0
 57 58  2  0  0  0
 57133  1  0  0  0
 58134  1  0  0  0
 59 60  1  0  0  0
 59 61  1  0  0  0
 59 62  1  0  0  0
 60135  1  0  0  0
 60136  1  0  0  0
 60137  1  0  0  0
 61138  1  0  0  0
 61139  1  0  0  0
 61140  1  0  0  0
 62141  1  0  0  0
 62142  1  0  0  0
 62143  1  0  0  0
 63 65  1  0  0  0
 63144  1  0  0  0
 63145  1  0  0  0
 63146  1  0  0  0
 64147  1  0  0  0
 65148  1  0  0  0
 68 86  1  0  0  0
 71 72  2  0  0  0
 71 73  1  0  0  0
 71149  1  0  0  0
 72 74  1  0  0  0
 72 79  1  0  0  0
 73 75  2  0  0  0
 73 80  1  0  0  0
 74 81  1  0  0  0
 74 88  2  0  0  0
 75 82  1  0  0  0
 75 88  1  0  0  0
 76 81  1  0  0  0
 76150  1  0  0  0
 76151  1  0  0  0
 76152  1  0  0  0
 77 83  1  0  0  0
 77153  1  0  0  0
 77154  1  0  0  0
 77155  1  0  0  0
 78156  1  0  0  0
 78157  1  0  0  0
 78158  1  0  0  0
 78 87  1  0  0  0
 79 84  1  0  0  0
 79159  1  0  0  0
 79160  1  0  0  0
 80 87  1  0  0  0
 80161  1  0  0  0
 80162  1  0  0  0
 81163  1  0  0  0
 81164  1  0  0  0
 82 86  1  0  0  0
 82165  1  0  0  0
 82166  1  0  0  0
 83 87  1  0  0  0
 83167  1  0  0  0
 83168  1  0  0  0
 84 85  1  0  0  0
 84169  1  0  0  0
 84170  1  0  0  0
 85 89  1  0  0  0
 85171  1  0  0  0
 85172  1  0  0  0
 86173  1  0  0  0
 86174  1  0  0  0
 87175  1  0  0  0
 89176  1  0  0  0
M  ISO  4   1 100  68 101  86 101  89 100
M  END
> <chiral flag>
0

> <version>
0

> <s_m_source_file>
/data/baiqing/PycharmProjects/Reinvent-master-3.2/result/LINK_invent/BTK/process_docking_weight1_custom_sum_contain_oxygen_bond_distance_aromatic_linkinvent_7_9_3/rearranged_h_0042.sdf

> <i_m_source_file_index>
79

> <r_mmod_Potential_Energy-OPLS-2005>
-205.687377929688

> <r_mmod_Stretch_Energy-OPLS-2005>
40.6312713623047

> <r_mmod_Bend_Energy-OPLS-2005>
106.236404418945

> <r_mmod_Torsional_Energy-OPLS-2005>
215.449737548828

> <r_mmod_Improper_Torsional_Energy-OPLS-2005>
3.27788615226746

> <r_mmod_Van_der_Waal_Energy-OPLS-2005>
156.344985961914

> <r_mmod_Electrostatic_Energy-OPLS-2005>
-528.939086914062

> <r_mmod_Solvation_Energy-OPLS-2005>
-212.999435424805

> <b_mmod_Minimization_Converged-OPLS-2005>
0

> <r_mmod_RMS_Derivative-OPLS-2005>
3.54356122016907

$$$$
81
                    3D
 Structure written by MMmdl.
156164  0  0  1  0            999 V2000
  -30.6479  -14.5085   20.5593 C   0  0  0  0  0  0
  -30.4297  -12.3274   19.4247 C   0  0  0  0  0  0
  -29.4959  -12.5241   18.2072 C   0  0  0  0  0  0
  -28.0153  -12.3791   18.6180 C   0  0  0  0  0  0
  -27.6599  -13.2096   19.8767 C   0  0  2  0  0  0
  -28.7010  -12.9653   20.9868 C   0  0  0  0  0  0
  -25.2575  -13.8188   20.5729 C   0  0  0  0  0  0
  -24.1827  -13.0429   20.9193 C   0  0  0  0  0  0
  -24.6407  -11.6917   20.8735 C   0  0  0  0  0  0
  -23.9102  -10.4291   21.0410 C   0  0  0  0  0  0
  -24.3640   -9.4199   21.9195 C   0  0  0  0  0  0
  -23.6279   -8.2253   22.0772 C   0  0  0  0  0  0
  -22.4256   -8.0311   21.3580 C   0  0  0  0  0  0
  -21.9913   -9.0298   20.4677 C   0  0  0  0  0  0
  -22.7280  -10.2154   20.3058 C   0  0  0  0  0  0
  -21.6846   -6.0761   22.5298 C   0  0  0  0  0  0
  -21.4024   -6.5670   23.8231 C   0  0  0  0  0  0
  -21.3645   -5.6817   24.9188 C   0  0  0  0  0  0
  -21.6038   -4.3078   24.7226 C   0  0  0  0  0  0
  -21.8819   -3.8172   23.4349 C   0  0  0  0  0  0
  -21.9198   -4.6993   22.3418 C   0  0  0  0  0  0
  -22.7855  -13.5216   21.1858 C   0  0  0  0  0  0
  -22.1661   -4.2189   21.0983 F   0  0  0  0  0  0
  -21.5605   -3.4553   25.7728 F   0  0  0  0  0  0
  -30.0275  -13.2991   20.4510 N   0  0  0  0  0  0
  -26.3012  -12.9351   20.3396 N   0  0  0  0  0  0
  -25.9326  -11.6518   20.5734 N   0  0  0  0  0  0
  -22.0525  -12.8185   22.0432 N   0  0  0  0  0  0
  -25.4247  -15.1907   20.4157 N   0  0  0  0  0  0
  -31.7999  -14.6811   20.1522 O   0  0  0  0  0  0
  -21.6630   -6.8907   21.4256 O   0  0  0  0  0  0
  -22.3528  -14.5521   20.6708 O   0  0  0  0  0  0
  -24.6176  -31.8661   23.2136 C   0  0  0  0  0  0
  -25.9071  -32.4791   23.8398 C   0  0  1  0  0  0
  -27.2228  -27.4208   20.0710 C   0  0  0  0  0  0
  -25.5923  -33.8587   24.2338 N   0  0  0  0  0  0
  -23.4039  -30.4951   21.5571 C   0  0  2  0  0  0
  -24.8456  -28.9775   20.1049 C   0  0  0  0  0  0
  -22.7447  -29.4657   22.5042 C   0  0  0  0  0  0
  -18.0284  -28.1311   22.8520 C   0  0  0  0  0  0
  -24.1511  -36.7374   23.2649 C   0  0  0  0  0  0
  -25.9389  -30.8284   21.3705 C   0  0  0  0  0  0
  -26.0146  -29.4693   20.7029 C   0  0  0  0  0  0
  -27.2067  -28.7017   20.6836 C   0  0  0  0  0  0
  -26.0311  -26.9772   19.4432 C   0  0  0  0  0  0
  -24.8503  -27.7297   19.4708 C   0  0  0  0  0  0
  -23.6055  -29.8376   20.1701 C   0  0  0  0  0  0
  -25.4110  -36.3120   24.0345 C   0  0  1  0  0  0
  -20.5879  -28.3617   23.1347 C   0  0  2  0  0  0
  -20.6785  -26.9366   22.5425 C   0  0  0  0  0  0
  -19.5735  -26.6354   21.5242 C   0  0  0  0  0  0
  -18.1922  -26.7857   22.1654 C   0  0  0  0  0  0
  -19.1532  -28.8788   23.2910 C   0  0  0  0  0  0
  -18.9431  -30.1415   23.8884 C   0  0  0  0  0  0
  -17.6419  -30.6518   24.0541 C   0  0  0  0  0  0
  -25.9022  -34.9465   23.5137 C   0  0  0  0  0  0
  -16.5320  -29.9002   23.6312 C   0  0  0  0  0  0
  -16.7275  -28.6421   23.0344 C   0  0  0  0  0  0
  -26.4495  -31.6550   25.0717 C   0  0  0  0  0  0
  -25.3796  -31.3609   26.1501 C   0  0  0  0  0  0
  -27.0350  -30.2985   24.6113 C   0  0  0  0  0  0
  -27.6048  -32.4322   25.7457 C   0  0  0  0  0  0
  -27.5590  -37.1857   24.8459 C   0  0  0  0  0  0
  -21.4177  -29.2989   22.3769 N   0  0  0  0  0  0
  -26.4309  -37.3791   23.9384 N   0  0  0  0  0  0
  -24.6733  -31.0755   22.1055 N   0  0  0  0  0  0
  -23.4236  -28.8212   23.3093 O   0  0  0  0  0  0
  -28.3505  -26.6062   20.1217 O   0  0  0  0  0  0
  -26.5583  -34.8923   22.4706 O   0  0  0  0  0  0
  -23.5366  -32.1450   23.7523 O   0  0  0  0  0  0
  -30.2299  -21.1090   20.8495 C   0  0  0  0  0  0
  -30.1161  -19.7739   20.5499 C   0  0  0  0  0  0
  -31.1810  -18.7395   20.2485 C   0  0  0  0  0  0
  -29.8258  -15.7707   20.9622 C   0  0  0  0  0  0
  -31.5658  -17.7564   21.3895 C   0  0  0  0  0  0
  -30.4761  -16.7975   21.9348 C   0  0  0  0  0  0
  -29.0765  -24.1351   20.5523 C   0  0  0  0  0  0
  -28.3582  -22.8891   21.1673 C   0  0  0  0  0  0
  -28.0354  -25.1918   20.0910 C   0  0  0  0  0  0
  -28.7602  -19.4733   20.4325 N   0  0  0  0  0  0
  -28.0590  -20.5426   20.6519 N   0  0  0  0  0  0
  -28.9219  -21.5688   20.8700 N   0  0  0  0  0  0
  -31.4718  -12.4516   19.1272 H   0  0  0  0  0  0
  -30.3509  -11.3130   19.8147 H   0  0  0  0  0  0
  -29.7427  -11.8044   17.4248 H   0  0  0  0  0  0
  -29.6596  -13.5116   17.7699 H   0  0  0  0  0  0
  -27.8283  -11.3219   18.8096 H   0  0  0  0  0  0
  -27.3652  -12.6642   17.7885 H   0  0  0  0  0  0
  -27.7039  -14.2585   19.5822 H   0  0  0  0  0  0
  -28.6811  -11.9138   21.2753 H   0  0  0  0  0  0
  -28.4609  -13.5062   21.9014 H   0  0  0  0  0  0
  -25.2812   -9.5643   22.4749 H   0  0  0  0  0  0
  -24.0019   -7.4621   22.7454 H   0  0  0  0  0  0
  -21.0880   -8.8826   19.8932 H   0  0  0  0  0  0
  -22.3815  -10.9681   19.6128 H   0  0  0  0  0  0
  -21.2029   -7.6169   23.9762 H   0  0  0  0  0  0
  -21.1453   -6.0534   25.9105 H   0  0  0  0  0  0
  -22.0599   -2.7637   23.2835 H   0  0  0  0  0  0
  -22.4162  -11.9834   22.4765 H   0  0  0  0  0  0
  -21.1137  -13.1171   22.2679 H   0  0  0  0  0  0
  -24.6477  -15.8315   20.5271 H   0  0  0  0  0  0
  -26.2839  -15.6480   20.1311 H   0  0  0  0  0  0
  -26.7151  -32.5486   23.1155 H   0  0  0  0  0  0
  -25.0042  -33.9692   25.0466 H   0  0  0  0  0  0
  -22.6912  -31.3116   21.4224 H   0  0  0  0  0  0
  -23.3724  -35.9760   23.3297 H   0  0  0  0  0  0
  -24.3649  -36.9003   22.2078 H   0  0  0  0  0  0
  -23.7309  -37.6601   23.6670 H   0  0  0  0  0  0
  -26.0606  -31.6105   20.6177 H   0  0  0  0  0  0
  -26.8246  -30.8657   21.9953 H   0  0  0  0  0  0
  -28.1024  -29.0729   21.1626 H   0  0  0  0  0  0
  -25.9665  -26.0324   18.9268 H   0  0  0  0  0  0
  -23.9576  -27.3501   18.9927 H   0  0  0  0  0  0
  -23.6992  -30.6129   19.4075 H   0  0  0  0  0  0
  -22.7299  -29.2512   19.8846 H   0  0  0  0  0  0
  -25.1288  -36.2002   25.0837 H   0  0  0  0  0  0
  -20.9925  -28.3153   24.1483 H   0  0  0  0  0  0
  -20.5755  -26.2206   23.3596 H   0  0  0  0  0  0
  -21.6642  -26.7443   22.1156 H   0  0  0  0  0  0
  -19.6888  -25.6300   21.1193 H   0  0  0  0  0  0
  -19.6615  -27.3244   20.6837 H   0  0  0  0  0  0
  -17.4210  -26.6666   21.4036 H   0  0  0  0  0  0
  -18.0265  -25.9973   22.9012 H   0  0  0  0  0  0
  -19.7908  -30.7259   24.2216 H   0  0  0  0  0  0
  -17.4950  -31.6190   24.5152 H   0  0  0  0  0  0
  -15.5311  -30.2843   23.7619 H   0  0  0  0  0  0
  -15.8705  -28.0699   22.7014 H   0  0  0  0  0  0
  -24.5861  -30.7084   25.7853 H   0  0  0  0  0  0
  -24.9111  -32.2743   26.5173 H   0  0  0  0  0  0
  -25.8167  -30.8589   27.0136 H   0  0  0  0  0  0
  -26.2907  -29.6686   24.1217 H   0  0  0  0  0  0
  -27.4179  -29.7252   25.4568 H   0  0  0  0  0  0
  -27.8717  -30.4295   23.9241 H   0  0  0  0  0  0
  -27.2580  -33.3510   26.2196 H   0  0  0  0  0  0
  -28.3718  -32.7092   25.0218 H   0  0  0  0  0  0
  -28.0907  -31.8404   26.5227 H   0  0  0  0  0  0
  -28.2624  -38.0136   24.7450 H   0  0  0  0  0  0
  -28.1059  -36.2661   24.6325 H   0  0  0  0  0  0
  -27.2318  -37.1583   25.8868 H   0  0  0  0  0  0
  -20.9369  -29.8690   21.6950 H   0  0  0  0  0  0
  -26.0206  -38.2895   24.1268 H   0  0  0  0  0  0
  -31.0921  -21.7461   21.0093 H   0  0  0  0  0  0
  -32.0903  -19.2615   19.9416 H   0  0  0  0  0  0
  -30.8920  -18.1719   19.3648 H   0  0  0  0  0  0
  -29.5411  -16.2799   20.0408 H   0  0  0  0  0  0
  -28.8745  -15.4956   21.4081 H   0  0  0  0  0  0
  -31.9431  -18.3364   22.2335 H   0  0  0  0  0  0
  -32.4228  -17.1670   21.0608 H   0  0  0  0  0  0
  -30.8872  -16.2543   22.7879 H   0  0  0  0  0  0
  -29.6812  -17.4172   22.3499 H   0  0  0  0  0  0
  -29.6881  -23.8409   19.6988 H   0  0  0  0  0  0
  -29.7553  -24.5630   21.2917 H   0  0  0  0  0  0
  -27.3198  -22.8653   20.8213 H   0  0  0  0  0  0
  -28.2891  -22.9925   22.2508 H   0  0  0  0  0  0
  -27.7486  -24.9145   19.0774 H   0  0  0  0  0  0
  -27.1590  -25.0610   20.7250 H   0  0  0  0  0  0
  1 25  1  0  0  0
  1 30  2  0  0  0
  1 74  1  0  0  0
  2  3  1  0  0  0
  2 25  1  0  0  0
  2 83  1  0  0  0
  2 84  1  0  0  0
  3  4  1  0  0  0
  3 85  1  0  0  0
  3 86  1  0  0  0
  4  5  1  0  0  0
  4 87  1  0  0  0
  4 88  1  0  0  0
  5  6  1  0  0  0
  5 26  1  0  0  0
  5 89  1  0  0  0
  6 25  1  0  0  0
  6 90  1  0  0  0
  6 91  1  0  0  0
  7  8  2  0  0  0
  7 26  1  0  0  0
  7 29  1  0  0  0
  8  9  1  0  0  0
  8 22  1  0  0  0
  9 10  1  0  0  0
  9 27  2  0  0  0
 10 11  2  0  0  0
 10 15  1  0  0  0
 11 12  1  0  0  0
 11 92  1  0  0  0
 12 13  2  0  0  0
 12 93  1  0  0  0
 13 14  1  0  0  0
 13 31  1  0  0  0
 14 15  2  0  0  0
 14 94  1  0  0  0
 15 95  1  0  0  0
 16 17  2  0  0  0
 16 21  1  0  0  0
 16 31  1  0  0  0
 17 18  1  0  0  0
 17 96  1  0  0  0
 18 19  2  0  0  0
 18 97  1  0  0  0
 19 20  1  0  0  0
 19 24  1  0  0  0
 20 21  2  0  0  0
 20 98  1  0  0  0
 21 23  1  0  0  0
 22 28  1  0  0  0
 22 32  2  0  0  0
 26 27  1  0  0  0
 28 99  1  0  0  0
 28100  1  0  0  0
 29101  1  0  0  0
 29102  1  0  0  0
 33 34  1  0  0  0
 33 66  1  0  0  0
 33 70  2  0  0  0
 34 36  1  0  0  0
 34 59  1  0  0  0
 34103  1  0  0  0
 35 44  2  0  0  0
 35 45  1  0  0  0
 35 68  1  0  0  0
 36 56  1  0  0  0
 36104  1  0  0  0
 37 39  1  0  0  0
 37 47  1  0  0  0
 37 66  1  0  0  0
 37105  1  0  0  0
 38 43  2  0  0  0
 38 46  1  0  0  0
 38 47  1  0  0  0
 39 64  1  0  0  0
 39 67  2  0  0  0
 40 52  1  0  0  0
 40 53  2  0  0  0
 40 58  1  0  0  0
 41106  1  0  0  0
 41107  1  0  0  0
 41108  1  0  0  0
 41 48  1  0  0  0
 42 43  1  0  0  0
 42 66  1  0  0  0
 42109  1  0  0  0
 42110  1  0  0  0
 43 44  1  0  0  0
 44111  1  0  0  0
 45 46  2  0  0  0
 45112  1  0  0  0
 46113  1  0  0  0
 47114  1  0  0  0
 47115  1  0  0  0
 48 56  1  0  0  0
 48 65  1  0  0  0
 48116  1  0  0  0
 49 50  1  0  0  0
 49 53  1  0  0  0
 49 64  1  0  0  0
 49117  1  0  0  0
 50 51  1  0  0  0
 50118  1  0  0  0
 50119  1  0  0  0
 51 52  1  0  0  0
 51120  1  0  0  0
 51121  1  0  0  0
 52122  1  0  0  0
 52123  1  0  0  0
 53 54  1  0  0  0
 54 55  2  0  0  0
 54124  1  0  0  0
 55 57  1  0  0  0
 55125  1  0  0  0
 56 69  2  0  0  0
 57 58  2  0  0  0
 57126  1  0  0  0
 58127  1  0  0  0
 59 60  1  0  0  0
 59 61  1  0  0  0
 59 62  1  0  0  0
 60128  1  0  0  0
 60129  1  0  0  0
 60130  1  0  0  0
 61131  1  0  0  0
 61132  1  0  0  0
 61133  1  0  0  0
 62134  1  0  0  0
 62135  1  0  0  0
 62136  1  0  0  0
 63 65  1  0  0  0
 63137  1  0  0  0
 63138  1  0  0  0
 63139  1  0  0  0
 64140  1  0  0  0
 65141  1  0  0  0
 68 79  1  0  0  0
 71 72  2  0  0  0
 71 82  1  0  0  0
 71142  1  0  0  0
 72 73  1  0  0  0
 72 80  1  0  0  0
 73 75  1  0  0  0
 73143  1  0  0  0
 73144  1  0  0  0
 74 76  1  0  0  0
 74145  1  0  0  0
 74146  1  0  0  0
 75 76  1  0  0  0
 75147  1  0  0  0
 75148  1  0  0  0
 76149  1  0  0  0
 76150  1  0  0  0
 77 78  1  0  0  0
 77 79  1  0  0  0
 77151  1  0  0  0
 77152  1  0  0  0
 78 82  1  0  0  0
 78153  1  0  0  0
 78154  1  0  0  0
 79155  1  0  0  0
 79156  1  0  0  0
 80 81  2  0  0  0
 81 82  1  0  0  0
M  ISO  4   1 100  68 101  74 100  79 101
M  END
> <chiral flag>
0

> <version>
0

> <s_m_source_file>
/data/baiqing/PycharmProjects/Reinvent-master-3.2/result/LINK_invent/BTK/process_docking_weight1_custom_sum_contain_oxygen_bond_distance_aromatic_linkinvent_7_9_3/rearranged_h_0042.sdf

> <i_m_source_file_index>
80

> <r_mmod_Potential_Energy-OPLS-2005>
-31.7158489227295

> <r_mmod_Stretch_Energy-OPLS-2005>
40.9785575866699

> <r_mmod_Bend_Energy-OPLS-2005>
118.26286315918

> <r_mmod_Torsional_Energy-OPLS-2005>
196.643081665039

> <r_mmod_Improper_Torsional_Energy-OPLS-2005>
5.71239280700684

> <r_mmod_Van_der_Waal_Energy-OPLS-2005>
136.764770507812

> <r_mmod_Electrostatic_Energy-OPLS-2005>
-344.081359863281

> <r_mmod_Solvation_Energy-OPLS-2005>
-205.560119628906

> <b_mmod_Minimization_Converged-OPLS-2005>
0

> <r_mmod_RMS_Derivative-OPLS-2005>
4.87120389938354

$$$$
82
                    3D
 Structure written by MMmdl.
159167  0  0  1  0            999 V2000
  -30.6821  -14.4355   20.6151 C   0  0  0  0  0  0
  -30.4282  -12.2969   19.4030 C   0  0  0  0  0  0
  -29.4917  -12.5141   18.1963 C   0  0  0  0  0  0
  -28.0116  -12.3726   18.6097 C   0  0  0  0  0  0
  -27.6661  -13.1930   19.8811 C   0  0  2  0  0  0
  -28.7041  -12.9271   20.9937 C   0  0  0  0  0  0
  -25.2608  -13.8122   20.5626 C   0  0  0  0  0  0
  -24.1849  -13.0415   20.9140 C   0  0  0  0  0  0
  -24.6393  -11.6886   20.8738 C   0  0  0  0  0  0
  -23.9053  -10.4286   21.0428 C   0  0  0  0  0  0
  -24.3623   -9.4212   21.9206 C   0  0  0  0  0  0
  -23.6296   -8.2252   22.0787 C   0  0  0  0  0  0
  -22.4283   -8.0286   21.3565 C   0  0  0  0  0  0
  -21.9904   -9.0270   20.4682 C   0  0  0  0  0  0
  -22.7227  -10.2148   20.3083 C   0  0  0  0  0  0
  -21.6862   -6.0739   22.5292 C   0  0  0  0  0  0
  -21.4011   -6.5648   23.8215 C   0  0  0  0  0  0
  -21.3653   -5.6809   24.9183 C   0  0  0  0  0  0
  -21.6037   -4.3067   24.7241 C   0  0  0  0  0  0
  -21.8810   -3.8155   23.4358 C   0  0  0  0  0  0
  -21.9187   -4.6964   22.3414 C   0  0  0  0  0  0
  -22.7886  -13.5261   21.1823 C   0  0  0  0  0  0
  -22.1653   -4.2133   21.0995 F   0  0  0  0  0  0
  -21.5633   -3.4566   25.7758 F   0  0  0  0  0  0
  -30.0391  -13.2510   20.4520 N   0  0  0  0  0  0
  -26.3047  -12.9277   20.3392 N   0  0  0  0  0  0
  -25.9318  -11.6448   20.5789 N   0  0  0  0  0  0
  -22.0533  -12.8278   22.0391 N   0  0  0  0  0  0
  -25.4310  -15.1840   20.3993 N   0  0  0  0  0  0
  -31.7773  -14.6953   20.1056 O   0  0  0  0  0  0
  -21.6646   -6.8891   21.4257 O   0  0  0  0  0  0
  -22.3589  -14.5576   20.6670 O   0  0  0  0  0  0
  -24.6124  -31.8680   23.2104 C   0  0  0  0  0  0
  -25.9014  -32.4815   23.8401 C   0  0  1  0  0  0
  -27.2435  -27.4731   20.0836 C   0  0  0  0  0  0
  -25.5864  -33.8613   24.2329 N   0  0  0  0  0  0
  -23.3983  -30.4923   21.5490 C   0  0  2  0  0  0
  -24.8474  -28.9588   20.1159 C   0  0  0  0  0  0
  -22.7370  -29.4667   22.4976 C   0  0  0  0  0  0
  -18.0262  -28.1411   22.8489 C   0  0  0  0  0  0
  -24.1483  -36.7344   23.2631 C   0  0  0  0  0  0
  -25.9250  -30.8439   21.3614 C   0  0  0  0  0  0
  -26.0035  -29.4806   20.7107 C   0  0  0  0  0  0
  -27.2067  -28.7445   20.6931 C   0  0  0  0  0  0
  -26.0765  -26.9550   19.4864 C   0  0  0  0  0  0
  -24.8773  -27.6932   19.5017 C   0  0  0  0  0  0
  -23.6070  -29.8210   20.1650 C   0  0  0  0  0  0
  -25.4104  -36.3126   24.0339 C   0  0  1  0  0  0
  -20.5846  -28.3708   23.1369 C   0  0  2  0  0  0
  -20.6740  -26.9420   22.5586 C   0  0  0  0  0  0
  -19.5790  -26.6339   21.5300 C   0  0  0  0  0  0
  -18.1938  -26.7938   22.1662 C   0  0  0  0  0  0
  -19.1499  -28.8896   23.2880 C   0  0  0  0  0  0
  -18.9424  -30.1531   23.8832 C   0  0  0  0  0  0
  -17.6428  -30.6665   24.0486 C   0  0  0  0  0  0
  -25.9037  -34.9477   23.5154 C   0  0  0  0  0  0
  -16.5325  -29.9116   23.6310 C   0  0  0  0  0  0
  -16.7250  -28.6516   23.0364 C   0  0  0  0  0  0
  -26.4454  -31.6572   25.0708 C   0  0  0  0  0  0
  -25.3735  -31.3686   26.1465 C   0  0  0  0  0  0
  -27.0263  -30.3005   24.6058 C   0  0  0  0  0  0
  -27.6044  -32.4265   25.7462 C   0  0  0  0  0  0
  -27.5586  -37.1820   24.8458 C   0  0  0  0  0  0
  -21.4104  -29.3035   22.3718 N   0  0  0  0  0  0
  -26.4297  -37.3805   23.9402 N   0  0  0  0  0  0
  -24.6635  -31.0817   22.0989 N   0  0  0  0  0  0
  -23.4147  -28.8203   23.2997 O   0  0  0  0  0  0
  -28.4061  -26.7465   20.0504 O   0  0  0  0  0  0
  -26.5602  -34.8925   22.4727 O   0  0  0  0  0  0
  -23.5325  -32.1405   23.7514 O   0  0  0  0  0  0
  -26.6636  -20.2570   21.2601 C   0  0  0  0  0  0
  -27.8791  -19.9885   21.9460 C   0  0  0  0  0  0
  -26.6036  -21.6195   21.1725 C   0  0  0  0  0  0
  -25.4963  -22.4778   20.6501 C   0  0  0  0  0  0
  -28.3588  -18.6575   22.4929 C   0  0  0  0  0  0
  -28.9383  -17.6539   21.4365 C   0  0  0  0  0  0
  -28.2051  -24.4273   20.7864 C   0  0  0  0  0  0
  -28.1757  -23.4915   22.0125 C   0  0  0  0  0  0
  -30.2452  -16.7835   21.4845 C   0  0  0  0  0  0
  -28.5771  -25.8721   21.1645 C   0  0  0  0  0  0
  -28.5646  -21.1028   22.1714 N   0  0  0  0  0  0
  -27.7775  -22.1132   21.7258 N   0  0  0  0  0  0
  -29.9683  -15.3507   21.2898 N   0  0  0  0  0  0
  -31.4707  -12.4162   19.1012 H   0  0  0  0  0  0
  -30.3460  -11.2733   19.7772 H   0  0  0  0  0  0
  -29.7284  -11.8069   17.4001 H   0  0  0  0  0  0
  -29.6596  -13.5077   17.7775 H   0  0  0  0  0  0
  -27.8121  -11.3158   18.7900 H   0  0  0  0  0  0
  -27.3620  -12.6652   17.7841 H   0  0  0  0  0  0
  -27.7248  -14.2467   19.6095 H   0  0  0  0  0  0
  -28.6801  -11.8760   21.2855 H   0  0  0  0  0  0
  -28.4577  -13.4724   21.9060 H   0  0  0  0  0  0
  -25.2762   -9.5686   22.4784 H   0  0  0  0  0  0
  -23.9990   -7.4653   22.7517 H   0  0  0  0  0  0
  -21.0821   -8.8802   19.9009 H   0  0  0  0  0  0
  -22.3681  -10.9707   19.6208 H   0  0  0  0  0  0
  -21.2004   -7.6158   23.9704 H   0  0  0  0  0  0
  -21.1483   -6.0558   25.9082 H   0  0  0  0  0  0
  -22.0587   -2.7614   23.2882 H   0  0  0  0  0  0
  -22.4139  -11.9914   22.4740 H   0  0  0  0  0  0
  -21.1191  -13.1380   22.2663 H   0  0  0  0  0  0
  -24.6592  -15.8337   20.5049 H   0  0  0  0  0  0
  -26.2749  -15.6264   20.0587 H   0  0  0  0  0  0
  -26.7092  -32.5532   23.1176 H   0  0  0  0  0  0
  -24.9939  -33.9779   25.0413 H   0  0  0  0  0  0
  -22.6866  -31.3100   21.4095 H   0  0  0  0  0  0
  -23.3730  -35.9694   23.3312 H   0  0  0  0  0  0
  -24.3590  -36.8940   22.2046 H   0  0  0  0  0  0
  -23.7252  -37.6561   23.6636 H   0  0  0  0  0  0
  -26.0310  -31.6117   20.5940 H   0  0  0  0  0  0
  -26.8176  -30.8989   21.9732 H   0  0  0  0  0  0
  -28.1038  -29.1515   21.1383 H   0  0  0  0  0  0
  -26.0991  -25.9889   19.0030 H   0  0  0  0  0  0
  -23.9921  -27.2871   19.0322 H   0  0  0  0  0  0
  -23.7076  -30.5952   19.4034 H   0  0  0  0  0  0
  -22.7338  -29.2362   19.8727 H   0  0  0  0  0  0
  -25.1284  -36.2009   25.0832 H   0  0  0  0  0  0
  -20.9899  -28.3386   24.1503 H   0  0  0  0  0  0
  -20.5494  -26.2408   23.3855 H   0  0  0  0  0  0
  -21.6674  -26.7363   22.1544 H   0  0  0  0  0  0
  -19.6978  -25.6208   21.1437 H   0  0  0  0  0  0
  -19.6773  -27.3073   20.6762 H   0  0  0  0  0  0
  -17.4198  -26.6602   21.4092 H   0  0  0  0  0  0
  -18.0336  -26.0131   22.9125 H   0  0  0  0  0  0
  -19.7882  -30.7385   24.2162 H   0  0  0  0  0  0
  -17.4984  -31.6379   24.5016 H   0  0  0  0  0  0
  -15.5328  -30.3004   23.7674 H   0  0  0  0  0  0
  -15.8632  -28.0796   22.7160 H   0  0  0  0  0  0
  -24.5906  -30.7015   25.7833 H   0  0  0  0  0  0
  -24.8924  -32.2840   26.4908 H   0  0  0  0  0  0
  -25.8113  -30.8866   27.0209 H   0  0  0  0  0  0
  -26.2801  -29.6767   24.1105 H   0  0  0  0  0  0
  -27.4029  -29.7221   25.4505 H   0  0  0  0  0  0
  -27.8636  -30.4327   23.9201 H   0  0  0  0  0  0
  -27.2680  -33.3551   26.2089 H   0  0  0  0  0  0
  -28.3833  -32.6834   25.0269 H   0  0  0  0  0  0
  -28.0707  -31.8323   26.5325 H   0  0  0  0  0  0
  -28.2623  -38.0097   24.7503 H   0  0  0  0  0  0
  -28.1068  -36.2640   24.6302 H   0  0  0  0  0  0
  -27.2302  -37.1488   25.8856 H   0  0  0  0  0  0
  -20.9242  -29.8757   21.6955 H   0  0  0  0  0  0
  -26.0199  -38.2892   24.1379 H   0  0  0  0  0  0
  -25.9050  -19.5525   20.9481 H   0  0  0  0  0  0
  -25.7214  -22.8295   19.6438 H   0  0  0  0  0  0
  -25.3202  -23.3410   21.2924 H   0  0  0  0  0  0
  -24.5622  -21.9191   20.5980 H   0  0  0  0  0  0
  -27.4897  -18.2347   23.0124 H   0  0  0  0  0  0
  -29.0864  -18.8272   23.2915 H   0  0  0  0  0  0
  -28.6807  -16.9736   22.2469 H   0  0  0  0  0  0
  -29.6528  -18.4663   21.2989 H   0  0  0  0  0  0
  -27.2309  -24.4432   20.3073 H   0  0  0  0  0  0
  -28.9084  -24.0501   20.0457 H   0  0  0  0  0  0
  -27.4812  -23.8873   22.7538 H   0  0  0  0  0  0
  -29.1574  -23.4861   22.4888 H   0  0  0  0  0  0
  -30.7702  -16.9090   22.4368 H   0  0  0  0  0  0
  -30.9509  -17.0942   20.7083 H   0  0  0  0  0  0
  -27.9852  -26.2021   22.0219 H   0  0  0  0  0  0
  -29.6204  -25.9161   21.4787 H   0  0  0  0  0  0
  -29.0942  -15.0055   21.6606 H   0  0  0  0  0  0
  1 25  1  0  0  0
  1 30  2  0  0  0
  1 83  1  0  0  0
  2  3  1  0  0  0
  2 25  1  0  0  0
  2 84  1  0  0  0
  2 85  1  0  0  0
  3  4  1  0  0  0
  3 86  1  0  0  0
  3 87  1  0  0  0
  4  5  1  0  0  0
  4 88  1  0  0  0
  4 89  1  0  0  0
  5  6  1  0  0  0
  5 26  1  0  0  0
  5 90  1  0  0  0
  6 25  1  0  0  0
  6 91  1  0  0  0
  6 92  1  0  0  0
  7  8  2  0  0  0
  7 26  1  0  0  0
  7 29  1  0  0  0
  8  9  1  0  0  0
  8 22  1  0  0  0
  9 10  1  0  0  0
  9 27  2  0  0  0
 10 11  2  0  0  0
 10 15  1  0  0  0
 11 12  1  0  0  0
 11 93  1  0  0  0
 12 13  2  0  0  0
 12 94  1  0  0  0
 13 14  1  0  0  0
 13 31  1  0  0  0
 14 15  2  0  0  0
 14 95  1  0  0  0
 15 96  1  0  0  0
 16 17  2  0  0  0
 16 21  1  0  0  0
 16 31  1  0  0  0
 17 18  1  0  0  0
 17 97  1  0  0  0
 18 19  2  0  0  0
 18 98  1  0  0  0
 19 20  1  0  0  0
 19 24  1  0  0  0
 20 21  2  0  0  0
 20 99  1  0  0  0
 21 23  1  0  0  0
 22 28  1  0  0  0
 22 32  2  0  0  0
 26 27  1  0  0  0
 28100  1  0  0  0
 28101  1  0  0  0
 29102  1  0  0  0
 29103  1  0  0  0
 33 34  1  0  0  0
 33 66  1  0  0  0
 33 70  2  0  0  0
 34 36  1  0  0  0
 34 59  1  0  0  0
 34104  1  0  0  0
 35 44  2  0  0  0
 35 45  1  0  0  0
 35 68  1  0  0  0
 36 56  1  0  0  0
 36105  1  0  0  0
 37 39  1  0  0  0
 37 47  1  0  0  0
 37 66  1  0  0  0
 37106  1  0  0  0
 38 43  2  0  0  0
 38 46  1  0  0  0
 38 47  1  0  0  0
 39 64  1  0  0  0
 39 67  2  0  0  0
 40 52  1  0  0  0
 40 53  2  0  0  0
 40 58  1  0  0  0
 41107  1  0  0  0
 41108  1  0  0  0
 41109  1  0  0  0
 41 48  1  0  0  0
 42 43  1  0  0  0
 42 66  1  0  0  0
 42110  1  0  0  0
 42111  1  0  0  0
 43 44  1  0  0  0
 44112  1  0  0  0
 45 46  2  0  0  0
 45113  1  0  0  0
 46114  1  0  0  0
 47115  1  0  0  0
 47116  1  0  0  0
 48 56  1  0  0  0
 48 65  1  0  0  0
 48117  1  0  0  0
 49 50  1  0  0  0
 49 53  1  0  0  0
 49 64  1  0  0  0
 49118  1  0  0  0
 50 51  1  0  0  0
 50119  1  0  0  0
 50120  1  0  0  0
 51 52  1  0  0  0
 51121  1  0  0  0
 51122  1  0  0  0
 52123  1  0  0  0
 52124  1  0  0  0
 53 54  1  0  0  0
 54 55  2  0  0  0
 54125  1  0  0  0
 55 57  1  0  0  0
 55126  1  0  0  0
 56 69  2  0  0  0
 57 58  2  0  0  0
 57127  1  0  0  0
 58128  1  0  0  0
 59 60  1  0  0  0
 59 61  1  0  0  0
 59 62  1  0  0  0
 60129  1  0  0  0
 60130  1  0  0  0
 60131  1  0  0  0
 61132  1  0  0  0
 61133  1  0  0  0
 61134  1  0  0  0
 62135  1  0  0  0
 62136  1  0  0  0
 62137  1  0  0  0
 63 65  1  0  0  0
 63138  1  0  0  0
 63139  1  0  0  0
 63140  1  0  0  0
 64141  1  0  0  0
 65142  1  0  0  0
 68 80  1  0  0  0
 71 72  1  0  0  0
 71 73  2  0  0  0
 71143  1  0  0  0
 72 75  1  0  0  0
 72 81  2  0  0  0
 73 74  1  0  0  0
 73 82  1  0  0  0
 74144  1  0  0  0
 74145  1  0  0  0
 74146  1  0  0  0
 75 76  1  0  0  0
 75147  1  0  0  0
 75148  1  0  0  0
 76 79  1  0  0  0
 76149  1  0  0  0
 76150  1  0  0  0
 77 78  1  0  0  0
 77 80  1  0  0  0
 77151  1  0  0  0
 77152  1  0  0  0
 78 82  1  0  0  0
 78153  1  0  0  0
 78154  1  0  0  0
 79 83  1  0  0  0
 79155  1  0  0  0
 79156  1  0  0  0
 80157  1  0  0  0
 80158  1  0  0  0
 81 82  1  0  0  0
 83159  1  0  0  0
M  ISO  4   1 100  68 101  80 101  83 100
M  END
> <chiral flag>
0

> <version>
0

> <s_m_source_file>
/data/baiqing/PycharmProjects/Reinvent-master-3.2/result/LINK_invent/BTK/process_docking_weight1_custom_sum_contain_oxygen_bond_distance_aromatic_linkinvent_7_9_3/rearranged_h_0042.sdf

> <i_m_source_file_index>
81

> <r_mmod_Potential_Energy-OPLS-2005>
98.7373199462891

> <r_mmod_Stretch_Energy-OPLS-2005>
35.1086082458496

> <r_mmod_Bend_Energy-OPLS-2005>
316.169097900391

> <r_mmod_Torsional_Energy-OPLS-2005>
238.478179931641

> <r_mmod_Improper_Torsional_Energy-OPLS-2005>
3.65088629722595

> <r_mmod_Van_der_Waal_Energy-OPLS-2005>
143.760116577148

> <r_mmod_Electrostatic_Energy-OPLS-2005>
-427.144134521484

> <r_mmod_Solvation_Energy-OPLS-2005>
-219.908187866211

> <b_mmod_Minimization_Converged-OPLS-2005>
0

> <r_mmod_RMS_Derivative-OPLS-2005>
3.01568627357483

$$$$
83
                    3D
 Structure written by MMmdl.
171179  0  0  1  0            999 V2000
  -30.7478  -14.3862   20.6135 C   0  0  0  0  0  0
  -30.4130  -12.2733   19.4027 C   0  0  0  0  0  0
  -29.4859  -12.5191   18.1964 C   0  0  0  0  0  0
  -28.0081  -12.3877   18.6098 C   0  0  0  0  0  0
  -27.6676  -13.2060   19.8844 C   0  0  2  0  0  0
  -28.7087  -12.9505   20.9987 C   0  0  0  0  0  0
  -25.2606  -13.8172   20.5691 C   0  0  0  0  0  0
  -24.1856  -13.0440   20.9169 C   0  0  0  0  0  0
  -24.6409  -11.6908   20.8736 C   0  0  0  0  0  0
  -23.9084  -10.4289   21.0404 C   0  0  0  0  0  0
  -24.3625   -9.4208   21.9189 C   0  0  0  0  0  0
  -23.6289   -8.2252   22.0768 C   0  0  0  0  0  0
  -22.4276   -8.0286   21.3560 C   0  0  0  0  0  0
  -21.9914   -9.0268   20.4665 C   0  0  0  0  0  0
  -22.7248  -10.2138   20.3062 C   0  0  0  0  0  0
  -21.6859   -6.0735   22.5276 C   0  0  0  0  0  0
  -21.4014   -6.5637   23.8209 C   0  0  0  0  0  0
  -21.3659   -5.6790   24.9173 C   0  0  0  0  0  0
  -21.6048   -4.3056   24.7217 C   0  0  0  0  0  0
  -21.8821   -3.8144   23.4341 C   0  0  0  0  0  0
  -21.9198   -4.6964   22.3396 C   0  0  0  0  0  0
  -22.7877  -13.5232   21.1839 C   0  0  0  0  0  0
  -22.1662   -4.2149   21.0978 F   0  0  0  0  0  0
  -21.5633   -3.4542   25.7731 F   0  0  0  0  0  0
  -30.0497  -13.2331   20.4538 N   0  0  0  0  0  0
  -26.3062  -12.9342   20.3426 N   0  0  0  0  0  0
  -25.9338  -11.6500   20.5778 N   0  0  0  0  0  0
  -22.0523  -12.8214   22.0393 N   0  0  0  0  0  0
  -25.4316  -15.1893   20.4105 N   0  0  0  0  0  0
  -31.8238  -14.6111   20.0517 O   0  0  0  0  0  0
  -21.6637   -6.8883   21.4245 O   0  0  0  0  0  0
  -22.3554  -14.5548   20.6707 O   0  0  0  0  0  0
  -24.6095  -31.8712   23.2119 C   0  0  0  0  0  0
  -25.9010  -32.4842   23.8412 C   0  0  1  0  0  0
  -27.2542  -27.4766   20.1052 C   0  0  0  0  0  0
  -25.5899  -33.8636   24.2359 N   0  0  0  0  0  0
  -23.3966  -30.4896   21.5520 C   0  0  2  0  0  0
  -24.8471  -28.9582   20.1182 C   0  0  0  0  0  0
  -22.7394  -29.4665   22.5043 C   0  0  0  0  0  0
  -18.0261  -28.1374   22.8502 C   0  0  0  0  0  0
  -24.1495  -36.7312   23.2639 C   0  0  0  0  0  0
  -25.9176  -30.8507   21.3581 C   0  0  0  0  0  0
  -25.9978  -29.4835   20.7171 C   0  0  0  0  0  0
  -27.1993  -28.7505   20.7165 C   0  0  0  0  0  0
  -26.0917  -26.9619   19.4951 C   0  0  0  0  0  0
  -24.8857  -27.6925   19.5049 C   0  0  0  0  0  0
  -23.6018  -29.8131   20.1683 C   0  0  0  0  0  0
  -25.4123  -36.3126   24.0343 C   0  0  1  0  0  0
  -20.5851  -28.3641   23.1346 C   0  0  2  0  0  0
  -20.6768  -26.9384   22.5436 C   0  0  0  0  0  0
  -19.5747  -26.6384   21.5231 C   0  0  0  0  0  0
  -18.1908  -26.7927   22.1622 C   0  0  0  0  0  0
  -19.1510  -28.8830   23.2915 C   0  0  0  0  0  0
  -18.9442  -30.1442   23.8908 C   0  0  0  0  0  0
  -17.6443  -30.6582   24.0556 C   0  0  0  0  0  0
  -25.9042  -34.9481   23.5152 C   0  0  0  0  0  0
  -16.5329  -29.9084   23.6331 C   0  0  0  0  0  0
  -16.7251  -28.6505   23.0352 C   0  0  0  0  0  0
  -26.4460  -31.6596   25.0714 C   0  0  0  0  0  0
  -25.3729  -31.3664   26.1465 C   0  0  0  0  0  0
  -27.0320  -30.3069   24.6036 C   0  0  0  0  0  0
  -27.6063  -32.4312   25.7449 C   0  0  0  0  0  0
  -27.5590  -37.1810   24.8468 C   0  0  0  0  0  0
  -21.4134  -29.3006   22.3767 N   0  0  0  0  0  0
  -26.4314  -37.3800   23.9401 N   0  0  0  0  0  0
  -24.6584  -31.0854   22.0997 N   0  0  0  0  0  0
  -23.4184  -28.8218   23.3069 O   0  0  0  0  0  0
  -28.3975  -26.7120   20.0341 O   0  0  0  0  0  0
  -26.5591  -34.8918   22.4701 O   0  0  0  0  0  0
  -23.5310  -32.1443   23.7554 O   0  0  0  0  0  0
  -28.6353  -23.7413   20.9153 C   0  0  0  0  0  0
  -28.7170  -24.4708   22.1350 C   0  0  0  0  0  0
  -28.6964  -22.4266   21.2821 C   0  0  0  0  0  0
  -32.3375  -19.9925   20.1684 C   0  0  0  0  0  0
  -28.8776  -21.2718   23.5641 C   0  0  0  0  0  0
  -30.1773  -21.4648   18.4141 C   0  0  0  0  0  0
  -28.7811  -25.9647   22.3565 C   0  0  0  0  0  0
  -28.7411  -21.2030   20.4193 C   0  0  0  0  0  0
  -29.6200  -17.4746   20.2234 C   0  0  0  0  0  0
  -30.3583  -18.5562   19.4147 C   0  0  0  0  0  0
  -30.4808  -16.7519   21.2832 C   0  0  0  0  0  0
  -29.3081  -26.7487   21.1360 C   0  0  0  0  0  0
  -30.8101  -19.8039   20.2223 C   0  0  2  0  0  0
  -28.7818  -23.6557   23.1793 N   0  0  0  0  0  0
  -28.7736  -22.4055   22.6638 N   0  0  0  0  0  0
  -30.1314  -15.3339   21.3313 N   0  0  0  0  0  0
  -30.1006  -21.0642   19.8446 N   0  3  1  0  0  0
  -31.4586  -12.3562   19.1009 H   0  0  0  0  0  0
  -30.2935  -11.2545   19.7747 H   0  0  0  0  0  0
  -29.7127  -11.8152   17.3950 H   0  0  0  0  0  0
  -29.6685  -13.5145   17.7871 H   0  0  0  0  0  0
  -27.8042  -11.3302   18.7823 H   0  0  0  0  0  0
  -27.3602  -12.6914   17.7865 H   0  0  0  0  0  0
  -27.7220  -14.2605   19.6129 H   0  0  0  0  0  0
  -28.6659  -11.9094   21.3226 H   0  0  0  0  0  0
  -28.4732  -13.5357   21.8883 H   0  0  0  0  0  0
  -25.2779   -9.5669   22.4755 H   0  0  0  0  0  0
  -24.0004   -7.4632   22.7479 H   0  0  0  0  0  0
  -21.0856   -8.8786   19.8948 H   0  0  0  0  0  0
  -22.3732  -10.9677   19.6156 H   0  0  0  0  0  0
  -21.2000   -7.6141   23.9708 H   0  0  0  0  0  0
  -21.1485   -6.0524   25.9078 H   0  0  0  0  0  0
  -22.0602   -2.7607   23.2841 H   0  0  0  0  0  0
  -22.4122  -11.9848   22.4736 H   0  0  0  0  0  0
  -21.1157  -13.1255   22.2630 H   0  0  0  0  0  0
  -24.6654  -15.8453   20.5200 H   0  0  0  0  0  0
  -26.2906  -15.6331   20.1099 H   0  0  0  0  0  0
  -26.7089  -32.5587   23.1195 H   0  0  0  0  0  0
  -25.0102  -33.9809   25.0541 H   0  0  0  0  0  0
  -22.6835  -31.3039   21.4124 H   0  0  0  0  0  0
  -23.3759  -35.9641   23.3329 H   0  0  0  0  0  0
  -24.3586  -36.8901   22.2046 H   0  0  0  0  0  0
  -23.7243  -37.6522   23.6636 H   0  0  0  0  0  0
  -26.0209  -31.6121   20.5830 H   0  0  0  0  0  0
  -26.8084  -30.9156   21.9706 H   0  0  0  0  0  0
  -28.0748  -29.1960   21.1645 H   0  0  0  0  0  0
  -26.1197  -25.9922   19.0190 H   0  0  0  0  0  0
  -24.0009  -27.2817   19.0382 H   0  0  0  0  0  0
  -23.6939  -30.5818   19.4004 H   0  0  0  0  0  0
  -22.7311  -29.2178   19.8881 H   0  0  0  0  0  0
  -25.1300  -36.2002   25.0835 H   0  0  0  0  0  0
  -20.9933  -28.3194   24.1472 H   0  0  0  0  0  0
  -20.5727  -26.2223   23.3607 H   0  0  0  0  0  0
  -21.6633  -26.7485   22.1189 H   0  0  0  0  0  0
  -19.6919  -25.6308   21.1238 H   0  0  0  0  0  0
  -19.6698  -27.3213   20.6779 H   0  0  0  0  0  0
  -17.4202  -26.6690   21.3987 H   0  0  0  0  0  0
  -18.0275  -26.0069   22.9013 H   0  0  0  0  0  0
  -19.7912  -30.7260   24.2276 H   0  0  0  0  0  0
  -17.4990  -31.6266   24.5152 H   0  0  0  0  0  0
  -15.5324  -30.2971   23.7679 H   0  0  0  0  0  0
  -15.8651  -28.0825   22.7064 H   0  0  0  0  0  0
  -24.5896  -30.7044   25.7758 H   0  0  0  0  0  0
  -24.8916  -32.2803   26.4955 H   0  0  0  0  0  0
  -25.8064  -30.8772   27.0196 H   0  0  0  0  0  0
  -26.2849  -29.6773   24.1201 H   0  0  0  0  0  0
  -27.4265  -29.7353   25.4442 H   0  0  0  0  0  0
  -27.8586  -30.4441   23.9065 H   0  0  0  0  0  0
  -27.2725  -33.3613   26.2056 H   0  0  0  0  0  0
  -28.3825  -32.6879   25.0227 H   0  0  0  0  0  0
  -28.0786  -31.8421   26.5315 H   0  0  0  0  0  0
  -28.2633  -38.0087   24.7543 H   0  0  0  0  0  0
  -28.1075  -36.2631   24.6292 H   0  0  0  0  0  0
  -27.2308  -37.1460   25.8869 H   0  0  0  0  0  0
  -20.9302  -29.8674   21.6940 H   0  0  0  0  0  0
  -26.0217  -38.2889   24.1374 H   0  0  0  0  0  0
  -28.5777  -24.1307   19.9097 H   0  0  0  0  0  0
  -32.8492  -19.1165   20.5682 H   0  0  0  0  0  0
  -32.6546  -20.8480   20.7668 H   0  0  0  0  0  0
  -32.7016  -20.1398   19.1516 H   0  0  0  0  0  0
  -29.7802  -20.7031   23.3424 H   0  0  0  0  0  0
  -28.0092  -20.6215   23.4519 H   0  0  0  0  0  0
  -28.9291  -21.6061   24.6009 H   0  0  0  0  0  0
  -29.8080  -22.4829   18.2853 H   0  0  0  0  0  0
  -29.5756  -20.8266   17.7676 H   0  0  0  0  0  0
  -31.1998  -21.4528   18.0409 H   0  0  0  0  0  0
  -29.4420  -26.1716   23.1985 H   0  0  0  0  0  0
  -27.8034  -26.3446   22.6536 H   0  0  0  0  0  0
  -27.9934  -21.2826   19.6290 H   0  0  0  0  0  0
  -28.4572  -20.3224   20.9935 H   0  0  0  0  0  0
  -29.2462  -16.7494   19.4988 H   0  0  0  0  0  0
  -28.7290  -17.8903   20.6945 H   0  0  0  0  0  0
  -29.7091  -18.8322   18.5859 H   0  0  0  0  0  0
  -31.2219  -18.0914   18.9344 H   0  0  0  0  0  0
  -30.3144  -17.1912   22.2680 H   0  0  0  0  0  0
  -31.5461  -16.8777   21.0784 H   0  0  0  0  0  0
  -30.2468  -26.3004   20.8089 H   0  0  0  0  0  0
  -29.5717  -27.7664   21.4199 H   0  0  0  0  0  0
  -30.5947  -19.6263   21.2772 H   0  0  0  0  0  0
  -29.2682  -15.0749   21.7846 H   0  0  0  0  0  0
  -30.6096  -21.7877   20.3313 H   0  0  0  0  0  0
  1 25  1  0  0  0
  1 30  2  0  0  0
  1 86  1  0  0  0
  2  3  1  0  0  0
  2 25  1  0  0  0
  2 88  1  0  0  0
  2 89  1  0  0  0
  3  4  1  0  0  0
  3 90  1  0  0  0
  3 91  1  0  0  0
  4  5  1  0  0  0
  4 92  1  0  0  0
  4 93  1  0  0  0
  5  6  1  0  0  0
  5 26  1  0  0  0
  5 94  1  0  0  0
  6 25  1  0  0  0
  6 95  1  0  0  0
  6 96  1  0  0  0
  7  8  2  0  0  0
  7 26  1  0  0  0
  7 29  1  0  0  0
  8  9  1  0  0  0
  8 22  1  0  0  0
  9 10  1  0  0  0
  9 27  2  0  0  0
 10 11  2  0  0  0
 10 15  1  0  0  0
 11 12  1  0  0  0
 11 97  1  0  0  0
 12 13  2  0  0  0
 12 98  1  0  0  0
 13 14  1  0  0  0
 13 31  1  0  0  0
 14 15  2  0  0  0
 14 99  1  0  0  0
 15100  1  0  0  0
 16 17  2  0  0  0
 16 21  1  0  0  0
 16 31  1  0  0  0
 17 18  1  0  0  0
 17101  1  0  0  0
 18 19  2  0  0  0
 18102  1  0  0  0
 19 20  1  0  0  0
 19 24  1  0  0  0
 20 21  2  0  0  0
 20103  1  0  0  0
 21 23  1  0  0  0
 22 28  1  0  0  0
 22 32  2  0  0  0
 26 27  1  0  0  0
 28104  1  0  0  0
 28105  1  0  0  0
 29106  1  0  0  0
 29107  1  0  0  0
 33 34  1  0  0  0
 33 66  1  0  0  0
 33 70  2  0  0  0
 34 36  1  0  0  0
 34 59  1  0  0  0
 34108  1  0  0  0
 35 44  2  0  0  0
 35 45  1  0  0  0
 35 68  1  0  0  0
 36 56  1  0  0  0
 36109  1  0  0  0
 37 39  1  0  0  0
 37 47  1  0  0  0
 37 66  1  0  0  0
 37110  1  0  0  0
 38 43  2  0  0  0
 38 46  1  0  0  0
 38 47  1  0  0  0
 39 64  1  0  0  0
 39 67  2  0  0  0
 40 52  1  0  0  0
 40 53  2  0  0  0
 40 58  1  0  0  0
 41111  1  0  0  0
 41112  1  0  0  0
 41113  1  0  0  0
 41 48  1  0  0  0
 42 43  1  0  0  0
 42 66  1  0  0  0
 42114  1  0  0  0
 42115  1  0  0  0
 43 44  1  0  0  0
 44116  1  0  0  0
 45 46  2  0  0  0
 45117  1  0  0  0
 46118  1  0  0  0
 47119  1  0  0  0
 47120  1  0  0  0
 48 56  1  0  0  0
 48 65  1  0  0  0
 48121  1  0  0  0
 49 50  1  0  0  0
 49 53  1  0  0  0
 49 64  1  0  0  0
 49122  1  0  0  0
 50 51  1  0  0  0
 50123  1  0  0  0
 50124  1  0  0  0
 51 52  1  0  0  0
 51125  1  0  0  0
 51126  1  0  0  0
 52127  1  0  0  0
 52128  1  0  0  0
 53 54  1  0  0  0
 54 55  2  0  0  0
 54129  1  0  0  0
 55 57  1  0  0  0
 55130  1  0  0  0
 56 69  2  0  0  0
 57 58  2  0  0  0
 57131  1  0  0  0
 58132  1  0  0  0
 59 60  1  0  0  0
 59 61  1  0  0  0
 59 62  1  0  0  0
 60133  1  0  0  0
 60134  1  0  0  0
 60135  1  0  0  0
 61136  1  0  0  0
 61137  1  0  0  0
 61138  1  0  0  0
 62139  1  0  0  0
 62140  1  0  0  0
 62141  1  0  0  0
 63 65  1  0  0  0
 63142  1  0  0  0
 63143  1  0  0  0
 63144  1  0  0  0
 64145  1  0  0  0
 65146  1  0  0  0
 68 82  1  0  0  0
 71 72  1  0  0  0
 71 73  2  0  0  0
 71147  1  0  0  0
 72 77  1  0  0  0
 72 84  2  0  0  0
 73 78  1  0  0  0
 73 85  1  0  0  0
 74148  1  0  0  0
 74149  1  0  0  0
 74150  1  0  0  0
 74 83  1  0  0  0
 75 85  1  0  0  0
 75151  1  0  0  0
 75152  1  0  0  0
 75153  1  0  0  0
 76154  1  0  0  0
 76155  1  0  0  0
 76156  1  0  0  0
 76 87  1  0  0  0
 77 82  1  0  0  0
 77157  1  0  0  0
 77158  1  0  0  0
 78 87  1  0  0  0
 78159  1  0  0  0
 78160  1  0  0  0
 79 80  1  0  0  0
 79 81  1  0  0  0
 79161  1  0  0  0
 79162  1  0  0  0
 80 83  1  0  0  0
 80163  1  0  0  0
 80164  1  0  0  0
 81 86  1  0  0  0
 81165  1  0  0  0
 81166  1  0  0  0
 82167  1  0  0  0
 82168  1  0  0  0
 83 87  1  0  0  0
 83169  1  0  0  0
 84 85  1  0  0  0
 86170  1  0  0  0
 87171  1  0  0  0
M  CHG  1  87   1
M  ISO  4   1 100  68 101  82 101  86 100
M  END
> <chiral flag>
0

> <version>
0

> <s_m_source_file>
/data/baiqing/PycharmProjects/Reinvent-master-3.2/result/LINK_invent/BTK/process_docking_weight1_custom_sum_contain_oxygen_bond_distance_aromatic_linkinvent_7_9_3/rearranged_h_0042.sdf

> <i_m_source_file_index>
82

> <r_mmod_Potential_Energy-OPLS-2005>
-258.128570556641

> <r_mmod_Stretch_Energy-OPLS-2005>
32.8210754394531

> <r_mmod_Bend_Energy-OPLS-2005>
105.017868041992

> <r_mmod_Torsional_Energy-OPLS-2005>
234.305938720703

> <r_mmod_Improper_Torsional_Energy-OPLS-2005>
3.38310074806213

> <r_mmod_Van_der_Waal_Energy-OPLS-2005>
129.904907226562

> <r_mmod_Electrostatic_Energy-OPLS-2005>
-306.825500488281

> <r_mmod_Solvation_Energy-OPLS-2005>
-462.951599121094

> <b_mmod_Minimization_Converged-OPLS-2005>
0

> <r_mmod_RMS_Derivative-OPLS-2005>
2.08027315139771

$$$$
84
                    3D
 Structure written by MMmdl.
160168  0  0  1  0            999 V2000
  -30.7205  -14.4153   20.5456 C   0  0  0  0  0  0
  -30.4165  -12.2624   19.4181 C   0  0  0  0  0  0
  -29.4940  -12.5007   18.2042 C   0  0  0  0  0  0
  -28.0124  -12.3763   18.6133 C   0  0  0  0  0  0
  -27.6662  -13.2049   19.8811 C   0  0  2  0  0  0
  -28.7102  -12.9685   20.9988 C   0  0  0  0  0  0
  -25.2606  -13.8157   20.5720 C   0  0  0  0  0  0
  -24.1849  -13.0432   20.9203 C   0  0  0  0  0  0
  -24.6400  -11.6898   20.8746 C   0  0  0  0  0  0
  -23.9049  -10.4286   21.0417 C   0  0  0  0  0  0
  -24.3601   -9.4195   21.9184 C   0  0  0  0  0  0
  -23.6285   -8.2221   22.0729 C   0  0  0  0  0  0
  -22.4262   -8.0270   21.3526 C   0  0  0  0  0  0
  -21.9908   -9.0256   20.4636 C   0  0  0  0  0  0
  -22.7229  -10.2136   20.3059 C   0  0  0  0  0  0
  -21.6842   -6.0735   22.5284 C   0  0  0  0  0  0
  -21.4011   -6.5632   23.8226 C   0  0  0  0  0  0
  -21.3662   -5.6784   24.9185 C   0  0  0  0  0  0
  -21.6053   -4.3048   24.7232 C   0  0  0  0  0  0
  -21.8816   -3.8138   23.4346 C   0  0  0  0  0  0
  -21.9188   -4.6959   22.3408 C   0  0  0  0  0  0
  -22.7876  -13.5245   21.1874 C   0  0  0  0  0  0
  -22.1657   -4.2143   21.0990 F   0  0  0  0  0  0
  -21.5625   -3.4539   25.7748 F   0  0  0  0  0  0
  -30.0464  -13.2435   20.4449 N   0  0  0  0  0  0
  -26.3053  -12.9322   20.3425 N   0  0  0  0  0  0
  -25.9330  -11.6474   20.5795 N   0  0  0  0  0  0
  -22.0512  -12.8239   22.0426 N   0  0  0  0  0  0
  -25.4323  -15.1879   20.4121 N   0  0  0  0  0  0
  -31.8539  -14.5921   20.0925 O   0  0  0  0  0  0
  -21.6607   -6.8873   21.4242 O   0  0  0  0  0  0
  -22.3583  -14.5563   20.6716 O   0  0  0  0  0  0
  -24.6093  -31.8690   23.2110 C   0  0  0  0  0  0
  -25.9020  -32.4825   23.8383 C   0  0  1  0  0  0
  -27.2393  -27.4691   20.0901 C   0  0  0  0  0  0
  -25.5884  -33.8620   24.2318 N   0  0  0  0  0  0
  -23.3977  -30.4901   21.5515 C   0  0  2  0  0  0
  -24.8460  -28.9582   20.1122 C   0  0  0  0  0  0
  -22.7394  -29.4633   22.4982 C   0  0  0  0  0  0
  -18.0287  -28.1350   22.8509 C   0  0  0  0  0  0
  -24.1485  -36.7332   23.2630 C   0  0  0  0  0  0
  -25.9209  -30.8423   21.3595 C   0  0  0  0  0  0
  -26.0005  -29.4767   20.7137 C   0  0  0  0  0  0
  -27.2008  -28.7368   20.7094 C   0  0  0  0  0  0
  -26.0787  -26.9598   19.4762 C   0  0  0  0  0  0
  -24.8784  -27.6963   19.4901 C   0  0  0  0  0  0
  -23.6052  -29.8217   20.1637 C   0  0  0  0  0  0
  -25.4106  -36.3119   24.0344 C   0  0  1  0  0  0
  -20.5875  -28.3639   23.1337 C   0  0  2  0  0  0
  -20.6752  -26.9356   22.5477 C   0  0  0  0  0  0
  -19.5748  -26.6309   21.5257 C   0  0  0  0  0  0
  -18.1937  -26.7892   22.1652 C   0  0  0  0  0  0
  -19.1530  -28.8816   23.2916 C   0  0  0  0  0  0
  -18.9447  -30.1415   23.8928 C   0  0  0  0  0  0
  -17.6449  -30.6560   24.0567 C   0  0  0  0  0  0
  -25.9023  -34.9474   23.5135 C   0  0  0  0  0  0
  -16.5347  -29.9067   23.6307 C   0  0  0  0  0  0
  -16.7273  -28.6473   23.0364 C   0  0  0  0  0  0
  -26.4460  -31.6590   25.0695 C   0  0  0  0  0  0
  -25.3742  -31.3737   26.1460 C   0  0  0  0  0  0
  -27.0250  -30.3019   24.6050 C   0  0  0  0  0  0
  -27.6036  -32.4295   25.7460 C   0  0  0  0  0  0
  -27.5594  -37.1816   24.8463 C   0  0  0  0  0  0
  -21.4133  -29.3017   22.3744 N   0  0  0  0  0  0
  -26.4293  -37.3806   23.9425 N   0  0  0  0  0  0
  -24.6611  -31.0815   22.0999 N   0  0  0  0  0  0
  -23.4192  -28.8159   23.3001 O   0  0  0  0  0  0
  -28.3828  -26.7139   20.0673 O   0  0  0  0  0  0
  -26.5580  -34.8921   22.4692 O   0  0  0  0  0  0
  -23.5295  -32.1400   23.7542 O   0  0  0  0  0  0
  -26.9075  -21.6455   21.5973 C   0  0  0  0  0  0
  -28.8762  -21.6776   20.5645 C   0  0  0  0  0  0
  -27.3227  -20.3479   21.4962 C   0  0  0  0  0  0
  -28.5978  -20.3637   20.8346 C   0  0  0  0  0  0
  -26.5226  -19.1668   21.9884 C   0  0  0  0  0  0
  -29.5253  -19.2293   20.4353 C   0  0  0  0  0  0
  -29.2047  -17.8213   20.9724 C   0  0  0  0  0  0
  -28.9965  -24.6932   21.2709 C   0  0  0  0  0  0
  -27.7230  -23.9172   20.8888 C   0  0  0  0  0  0
  -30.3214  -16.8329   20.6115 C   0  0  0  0  0  0
  -28.7661  -26.2121   21.3466 C   0  0  0  0  0  0
  -27.8497  -22.4732   21.0278 N   0  0  0  0  0  0
  -29.9838  -15.4539   20.9559 N   0  0  0  0  0  0
  -31.4650  -12.3384   19.1216 H   0  0  0  0  0  0
  -30.2896  -11.2493   19.8067 H   0  0  0  0  0  0
  -29.7244  -11.7885   17.4099 H   0  0  0  0  0  0
  -29.6785  -13.4938   17.7898 H   0  0  0  0  0  0
  -27.8096  -11.3205   18.7938 H   0  0  0  0  0  0
  -27.3659  -12.6748   17.7872 H   0  0  0  0  0  0
  -27.7137  -14.2555   19.5927 H   0  0  0  0  0  0
  -28.6717  -11.9366   21.3469 H   0  0  0  0  0  0
  -28.4947  -13.5809   21.8770 H   0  0  0  0  0  0
  -25.2748   -9.5662   22.4753 H   0  0  0  0  0  0
  -23.9992   -7.4606   22.7450 H   0  0  0  0  0  0
  -21.0818   -8.8787   19.8958 H   0  0  0  0  0  0
  -22.3691  -10.9676   19.6160 H   0  0  0  0  0  0
  -21.1993   -7.6140   23.9737 H   0  0  0  0  0  0
  -21.1494   -6.0506   25.9097 H   0  0  0  0  0  0
  -22.0589   -2.7596   23.2850 H   0  0  0  0  0  0
  -22.4081  -11.9880   22.4830 H   0  0  0  0  0  0
  -21.1144  -13.1294   22.2644 H   0  0  0  0  0  0
  -24.6633  -15.8397   20.5147 H   0  0  0  0  0  0
  -26.2851  -15.6254   20.0844 H   0  0  0  0  0  0
  -26.7095  -32.5557   23.1150 H   0  0  0  0  0  0
  -25.0070  -33.9777   25.0482 H   0  0  0  0  0  0
  -22.6848  -31.3055   21.4165 H   0  0  0  0  0  0
  -23.3733  -35.9670   23.3282 H   0  0  0  0  0  0
  -24.3572  -36.8935   22.2036 H   0  0  0  0  0  0
  -23.7232  -37.6551   23.6620 H   0  0  0  0  0  0
  -26.0243  -31.6057   20.5872 H   0  0  0  0  0  0
  -26.8100  -30.8976   21.9740 H   0  0  0  0  0  0
  -28.0944  -29.1371   21.1693 H   0  0  0  0  0  0
  -26.1064  -25.9978   18.9864 H   0  0  0  0  0  0
  -23.9960  -27.2929   19.0102 H   0  0  0  0  0  0
  -23.7102  -30.5959   19.4029 H   0  0  0  0  0  0
  -22.7296  -29.2395   19.8708 H   0  0  0  0  0  0
  -25.1274  -36.1993   25.0837 H   0  0  0  0  0  0
  -20.9975  -28.3212   24.1455 H   0  0  0  0  0  0
  -20.5587  -26.2283   23.3690 H   0  0  0  0  0  0
  -21.6644  -26.7336   22.1348 H   0  0  0  0  0  0
  -19.6893  -25.6202   21.1342 H   0  0  0  0  0  0
  -19.6711  -27.3082   20.6760 H   0  0  0  0  0  0
  -17.4222  -26.6646   21.4038 H   0  0  0  0  0  0
  -18.0307  -26.0023   22.9038 H   0  0  0  0  0  0
  -19.7932  -30.7229   24.2293 H   0  0  0  0  0  0
  -17.5029  -31.6251   24.5166 H   0  0  0  0  0  0
  -15.5358  -30.3006   23.7599 H   0  0  0  0  0  0
  -15.8682  -28.0803   22.7070 H   0  0  0  0  0  0
  -24.5915  -30.7054   25.7856 H   0  0  0  0  0  0
  -24.8921  -32.2902   26.4869 H   0  0  0  0  0  0
  -25.8099  -30.8970   27.0244 H   0  0  0  0  0  0
  -26.2759  -29.6827   24.1084 H   0  0  0  0  0  0
  -27.3993  -29.7227   25.4505 H   0  0  0  0  0  0
  -27.8623  -30.4343   23.9191 H   0  0  0  0  0  0
  -27.2651  -33.3580   26.2085 H   0  0  0  0  0  0
  -28.3823  -32.6875   25.0267 H   0  0  0  0  0  0
  -28.0718  -31.8377   26.5339 H   0  0  0  0  0  0
  -28.2632  -38.0103   24.7515 H   0  0  0  0  0  0
  -28.1074  -36.2635   24.6271 H   0  0  0  0  0  0
  -27.2318  -37.1463   25.8870 H   0  0  0  0  0  0
  -20.9251  -29.8849   21.7071 H   0  0  0  0  0  0
  -26.0189  -38.2894   24.1403 H   0  0  0  0  0  0
  -26.0003  -22.0595   22.0208 H   0  0  0  0  0  0
  -29.7279  -22.1181   20.0631 H   0  0  0  0  0  0
  -25.6149  -19.5008   22.4914 H   0  0  0  0  0  0
  -27.0884  -18.5738   22.7048 H   0  0  0  0  0  0
  -26.2240  -18.5276   21.1575 H   0  0  0  0  0  0
  -30.5341  -19.5066   20.7518 H   0  0  0  0  0  0
  -29.5557  -19.1967   19.3445 H   0  0  0  0  0  0
  -28.2580  -17.4763   20.5524 H   0  0  0  0  0  0
  -29.0993  -17.8459   22.0572 H   0  0  0  0  0  0
  -29.7921  -24.4840   20.5545 H   0  0  0  0  0  0
  -29.3506  -24.3465   22.2424 H   0  0  0  0  0  0
  -27.4458  -24.1342   19.8585 H   0  0  0  0  0  0
  -26.8894  -24.2477   21.5101 H   0  0  0  0  0  0
  -31.2555  -17.1163   21.0982 H   0  0  0  0  0  0
  -30.5018  -16.8862   19.5367 H   0  0  0  0  0  0
  -29.6829  -26.7144   21.6568 H   0  0  0  0  0  0
  -28.0226  -26.4219   22.1197 H   0  0  0  0  0  0
  -29.0573  -15.2551   21.2989 H   0  0  0  0  0  0
  1 25  1  0  0  0
  1 30  2  0  0  0
  1 83  1  0  0  0
  2  3  1  0  0  0
  2 25  1  0  0  0
  2 84  1  0  0  0
  2 85  1  0  0  0
  3  4  1  0  0  0
  3 86  1  0  0  0
  3 87  1  0  0  0
  4  5  1  0  0  0
  4 88  1  0  0  0
  4 89  1  0  0  0
  5  6  1  0  0  0
  5 26  1  0  0  0
  5 90  1  0  0  0
  6 25  1  0  0  0
  6 91  1  0  0  0
  6 92  1  0  0  0
  7  8  2  0  0  0
  7 26  1  0  0  0
  7 29  1  0  0  0
  8  9  1  0  0  0
  8 22  1  0  0  0
  9 10  1  0  0  0
  9 27  2  0  0  0
 10 11  2  0  0  0
 10 15  1  0  0  0
 11 12  1  0  0  0
 11 93  1  0  0  0
 12 13  2  0  0  0
 12 94  1  0  0  0
 13 14  1  0  0  0
 13 31  1  0  0  0
 14 15  2  0  0  0
 14 95  1  0  0  0
 15 96  1  0  0  0
 16 17  2  0  0  0
 16 21  1  0  0  0
 16 31  1  0  0  0
 17 18  1  0  0  0
 17 97  1  0  0  0
 18 19  2  0  0  0
 18 98  1  0  0  0
 19 20  1  0  0  0
 19 24  1  0  0  0
 20 21  2  0  0  0
 20 99  1  0  0  0
 21 23  1  0  0  0
 22 28  1  0  0  0
 22 32  2  0  0  0
 26 27  1  0  0  0
 28100  1  0  0  0
 28101  1  0  0  0
 29102  1  0  0  0
 29103  1  0  0  0
 33 34  1  0  0  0
 33 66  1  0  0  0
 33 70  2  0  0  0
 34 36  1  0  0  0
 34 59  1  0  0  0
 34104  1  0  0  0
 35 44  2  0  0  0
 35 45  1  0  0  0
 35 68  1  0  0  0
 36 56  1  0  0  0
 36105  1  0  0  0
 37 39  1  0  0  0
 37 47  1  0  0  0
 37 66  1  0  0  0
 37106  1  0  0  0
 38 43  2  0  0  0
 38 46  1  0  0  0
 38 47  1  0  0  0
 39 64  1  0  0  0
 39 67  2  0  0  0
 40 52  1  0  0  0
 40 53  2  0  0  0
 40 58  1  0  0  0
 41107  1  0  0  0
 41108  1  0  0  0
 41109  1  0  0  0
 41 48  1  0  0  0
 42 43  1  0  0  0
 42 66  1  0  0  0
 42110  1  0  0  0
 42111  1  0  0  0
 43 44  1  0  0  0
 44112  1  0  0  0
 45 46  2  0  0  0
 45113  1  0  0  0
 46114  1  0  0  0
 47115  1  0  0  0
 47116  1  0  0  0
 48 56  1  0  0  0
 48 65  1  0  0  0
 48117  1  0  0  0
 49 50  1  0  0  0
 49 53  1  0  0  0
 49 64  1  0  0  0
 49118  1  0  0  0
 50 51  1  0  0  0
 50119  1  0  0  0
 50120  1  0  0  0
 51 52  1  0  0  0
 51121  1  0  0  0
 51122  1  0  0  0
 52123  1  0  0  0
 52124  1  0  0  0
 53 54  1  0  0  0
 54 55  2  0  0  0
 54125  1  0  0  0
 55 57  1  0  0  0
 55126  1  0  0  0
 56 69  2  0  0  0
 57 58  2  0  0  0
 57127  1  0  0  0
 58128  1  0  0  0
 59 60  1  0  0  0
 59 61  1  0  0  0
 59 62  1  0  0  0
 60129  1  0  0  0
 60130  1  0  0  0
 60131  1  0  0  0
 61132  1  0  0  0
 61133  1  0  0  0
 61134  1  0  0  0
 62135  1  0  0  0
 62136  1  0  0  0
 62137  1  0  0  0
 63 65  1  0  0  0
 63138  1  0  0  0
 63139  1  0  0  0
 63140  1  0  0  0
 64141  1  0  0  0
 65142  1  0  0  0
 68 81  1  0  0  0
 71 73  2  0  0  0
 71 82  1  0  0  0
 71143  1  0  0  0
 72 74  2  0  0  0
 72 82  1  0  0  0
 72144  1  0  0  0
 73 74  1  0  0  0
 73 75  1  0  0  0
 74 76  1  0  0  0
 75145  1  0  0  0
 75146  1  0  0  0
 75147  1  0  0  0
 76 77  1  0  0  0
 76148  1  0  0  0
 76149  1  0  0  0
 77 80  1  0  0  0
 77150  1  0  0  0
 77151  1  0  0  0
 78 79  1  0  0  0
 78 81  1  0  0  0
 78152  1  0  0  0
 78153  1  0  0  0
 79 82  1  0  0  0
 79154  1  0  0  0
 79155  1  0  0  0
 80 83  1  0  0  0
 80156  1  0  0  0
 80157  1  0  0  0
 81158  1  0  0  0
 81159  1  0  0  0
 83160  1  0  0  0
M  ISO  4   1 100  68 101  81 101  83 100
M  END
> <chiral flag>
0

> <version>
0

> <s_m_source_file>
/data/baiqing/PycharmProjects/Reinvent-master-3.2/result/LINK_invent/BTK/process_docking_weight1_custom_sum_contain_oxygen_bond_distance_aromatic_linkinvent_7_9_3/rearranged_h_0042.sdf

> <i_m_source_file_index>
83

> <r_mmod_Potential_Energy-OPLS-2005>
-109.932693481445

> <r_mmod_Stretch_Energy-OPLS-2005>
30.3443088531494

> <r_mmod_Bend_Energy-OPLS-2005>
93.1721954345703

> <r_mmod_Torsional_Energy-OPLS-2005>
236.792816162109

> <r_mmod_Improper_Torsional_Energy-OPLS-2005>
6.28221225738525

> <r_mmod_Van_der_Waal_Energy-OPLS-2005>
125.542144775391

> <r_mmod_Electrostatic_Energy-OPLS-2005>
-402.567474365234

> <r_mmod_Solvation_Energy-OPLS-2005>
-209.464370727539

> <b_mmod_Minimization_Converged-OPLS-2005>
0

> <r_mmod_RMS_Derivative-OPLS-2005>
3.2649393081665

$$$$
85
                    3D
 Structure written by MMmdl.
179187  0  0  1  0            999 V2000
  -30.7659  -14.3297   20.7125 C   0  0  0  0  0  0
  -30.4211  -12.2850   19.3702 C   0  0  0  0  0  0
  -29.4764  -12.5307   18.1781 C   0  0  0  0  0  0
  -28.0017  -12.3922   18.5994 C   0  0  0  0  0  0
  -27.6706  -13.1958   19.8840 C   0  0  2  0  0  0
  -28.7088  -12.8971   20.9863 C   0  0  0  0  0  0
  -25.2638  -13.8150   20.5674 C   0  0  0  0  0  0
  -24.1875  -13.0433   20.9157 C   0  0  0  0  0  0
  -24.6402  -11.6892   20.8728 C   0  0  0  0  0  0
  -23.9068  -10.4290   21.0406 C   0  0  0  0  0  0
  -24.3609   -9.4214   21.9193 C   0  0  0  0  0  0
  -23.6273   -8.2261   22.0772 C   0  0  0  0  0  0
  -22.4277   -8.0287   21.3543 C   0  0  0  0  0  0
  -21.9923   -9.0261   20.4641 C   0  0  0  0  0  0
  -22.7250  -10.2135   20.3050 C   0  0  0  0  0  0
  -21.6847   -6.0746   22.5270 C   0  0  0  0  0  0
  -21.4011   -6.5648   23.8209 C   0  0  0  0  0  0
  -21.3647   -5.6794   24.9173 C   0  0  0  0  0  0
  -21.6053   -4.3062   24.7228 C   0  0  0  0  0  0
  -21.8818   -3.8156   23.4347 C   0  0  0  0  0  0
  -21.9196   -4.6973   22.3399 C   0  0  0  0  0  0
  -22.7902  -13.5242   21.1810 C   0  0  0  0  0  0
  -22.1667   -4.2169   21.0971 F   0  0  0  0  0  0
  -21.5629   -3.4540   25.7741 F   0  0  0  0  0  0
  -30.0522  -13.2041   20.4544 N   0  0  0  0  0  0
  -26.3075  -12.9294   20.3393 N   0  0  0  0  0  0
  -25.9324  -11.6466   20.5750 N   0  0  0  0  0  0
  -22.0516  -12.8214   22.0328 N   0  0  0  0  0  0
  -25.4408  -15.1860   20.4114 N   0  0  0  0  0  0
  -31.7727  -14.6649   20.0806 O   0  0  0  0  0  0
  -21.6633   -6.8891   21.4238 O   0  0  0  0  0  0
  -22.3608  -14.5568   20.6685 O   0  0  0  0  0  0
  -24.6123  -31.8677   23.2092 C   0  0  0  0  0  0
  -25.9021  -32.4825   23.8367 C   0  0  1  0  0  0
  -27.2416  -27.4764   20.0633 C   0  0  0  0  0  0
  -25.5858  -33.8638   24.2260 N   0  0  0  0  0  0
  -23.3967  -30.4905   21.5475 C   0  0  2  0  0  0
  -24.8418  -28.9522   20.1239 C   0  0  0  0  0  0
  -22.7354  -29.4675   22.4970 C   0  0  0  0  0  0
  -18.0268  -28.1375   22.8502 C   0  0  0  0  0  0
  -24.1465  -36.7320   23.2635 C   0  0  0  0  0  0
  -25.9218  -30.8425   21.3572 C   0  0  0  0  0  0
  -26.0029  -29.4781   20.7076 C   0  0  0  0  0  0
  -27.2069  -28.7464   20.6758 C   0  0  0  0  0  0
  -26.0559  -26.9302   19.5348 C   0  0  0  0  0  0
  -24.8602  -27.6734   19.5382 C   0  0  0  0  0  0
  -23.6060  -29.8194   20.1638 C   0  0  0  0  0  0
  -25.4108  -36.3126   24.0306 C   0  0  1  0  0  0
  -20.5838  -28.3674   23.1330 C   0  0  2  0  0  0
  -20.6750  -26.9407   22.5431 C   0  0  0  0  0  0
  -19.5731  -26.6399   21.5215 C   0  0  0  0  0  0
  -18.1906  -26.7925   22.1614 C   0  0  0  0  0  0
  -19.1510  -28.8833   23.2920 C   0  0  0  0  0  0
  -18.9454  -30.1431   23.8940 C   0  0  0  0  0  0
  -17.6465  -30.6591   24.0582 C   0  0  0  0  0  0
  -25.9061  -34.9497   23.5100 C   0  0  0  0  0  0
  -16.5357  -29.9106   23.6308 C   0  0  0  0  0  0
  -16.7268  -28.6515   23.0352 C   0  0  0  0  0  0
  -26.4418  -31.6633   25.0736 C   0  0  0  0  0  0
  -25.3671  -31.3707   26.1467 C   0  0  0  0  0  0
  -27.0296  -30.3090   24.6137 C   0  0  0  0  0  0
  -27.5905  -32.4397   25.7582 C   0  0  0  0  0  0
  -27.5572  -37.1853   24.8444 C   0  0  0  0  0  0
  -21.4085  -29.3064   22.3728 N   0  0  0  0  0  0
  -26.4274  -37.3846   23.9409 N   0  0  0  0  0  0
  -24.6607  -31.0794   22.0966 N   0  0  0  0  0  0
  -23.4121  -28.8208   23.3009 O   0  0  0  0  0  0
  -28.4251  -26.7936   19.9374 O   0  0  0  0  0  0
  -26.5659  -34.8954   22.4684 O   0  0  0  0  0  0
  -23.5324  -32.1394   23.7506 O   0  0  0  0  0  0
  -29.0700  -24.3089   16.0652 C   0  0  0  0  0  0
  -29.5594  -25.1275   17.0999 C   0  0  0  0  0  0
  -27.7696  -24.5212   15.5692 C   0  0  0  0  0  0
  -28.7614  -26.2115   17.5355 C   0  0  0  0  0  0
  -27.0791  -25.6704   16.0072 C   0  0  0  0  0  0
  -30.8949  -24.7785   17.7342 C   0  0  0  0  0  0
  -25.6972  -26.0252   15.4960 C   0  0  0  0  0  0
  -27.1273  -23.4636   14.6701 C   0  0  0  0  0  0
  -29.1390  -27.1032   18.7292 C   0  0  0  0  0  0
  -26.4387  -22.3222   15.4667 C   0  0  0  0  0  0
  -29.2223  -17.6136   20.7533 C   0  0  0  0  0  0
  -30.6386  -17.4826   21.3486 C   0  0  0  0  0  0
  -27.2920  -21.8275   16.6544 C   0  0  0  0  0  0
  -29.0454  -18.9644   20.0464 C   0  0  0  0  0  0
  -30.8422  -16.2805   22.2875 C   0  0  0  0  0  0
  -26.7830  -20.6168   17.4510 C   0  0  0  0  0  0
  -27.7730  -19.0717   19.1823 C   0  0  0  0  0  0
  -27.5860  -26.5047   16.9338 N   0  0  0  0  0  0
  -30.3072  -15.0357   21.7509 N   0  0  0  0  0  0
  -27.6698  -20.4334   18.6223 N   0  3  0  0  0  0
  -31.4592  -12.4072   19.0576 H   0  0  0  0  0  0
  -30.3382  -11.2538   19.7165 H   0  0  0  0  0  0
  -29.6985  -11.8308   17.3720 H   0  0  0  0  0  0
  -29.6478  -13.5294   17.7747 H   0  0  0  0  0  0
  -27.7974  -11.3326   18.7589 H   0  0  0  0  0  0
  -27.3503  -12.7092   17.7859 H   0  0  0  0  0  0
  -27.7422  -14.2546   19.6367 H   0  0  0  0  0  0
  -28.6698  -11.8405   21.2573 H   0  0  0  0  0  0
  -28.4532  -13.4323   21.9007 H   0  0  0  0  0  0
  -25.2742   -9.5705   22.4785 H   0  0  0  0  0  0
  -23.9980   -7.4672   22.7516 H   0  0  0  0  0  0
  -21.0869   -8.8776   19.8925 H   0  0  0  0  0  0
  -22.3712  -10.9685   19.6170 H   0  0  0  0  0  0
  -21.1994   -7.6152   23.9720 H   0  0  0  0  0  0
  -21.1468   -6.0524   25.9073 H   0  0  0  0  0  0
  -22.0608   -2.7622   23.2843 H   0  0  0  0  0  0
  -22.4099  -11.9832   22.4667 H   0  0  0  0  0  0
  -21.1127  -13.1241   22.2517 H   0  0  0  0  0  0
  -24.6791  -15.8453   20.5274 H   0  0  0  0  0  0
  -26.3055  -15.6208   20.1143 H   0  0  0  0  0  0
  -26.7120  -32.5545   23.1158 H   0  0  0  0  0  0
  -24.9912  -33.9779   25.0331 H   0  0  0  0  0  0
  -22.6873  -31.3075   21.4035 H   0  0  0  0  0  0
  -23.3762  -35.9621   23.3269 H   0  0  0  0  0  0
  -24.3553  -36.9015   22.2056 H   0  0  0  0  0  0
  -23.7169  -37.6486   23.6708 H   0  0  0  0  0  0
  -26.0436  -31.6144   20.5964 H   0  0  0  0  0  0
  -26.8040  -30.8874   21.9870 H   0  0  0  0  0  0
  -28.1123  -29.1673   21.0912 H   0  0  0  0  0  0
  -26.0688  -25.9525   19.0753 H   0  0  0  0  0  0
  -23.9690  -27.2588   19.0888 H   0  0  0  0  0  0
  -23.7251  -30.5926   19.4041 H   0  0  0  0  0  0
  -22.7270  -29.2472   19.8611 H   0  0  0  0  0  0
  -25.1291  -36.1987   25.0797 H   0  0  0  0  0  0
  -20.9944  -28.3263   24.1442 H   0  0  0  0  0  0
  -20.5673  -26.2272   23.3621 H   0  0  0  0  0  0
  -21.6632  -26.7455   22.1239 H   0  0  0  0  0  0
  -19.6892  -25.6320   21.1238 H   0  0  0  0  0  0
  -19.6638  -27.3239   20.6757 H   0  0  0  0  0  0
  -17.4148  -26.6681   21.4030 H   0  0  0  0  0  0
  -18.0299  -26.0077   22.9009 H   0  0  0  0  0  0
  -19.7939  -30.7237   24.2319 H   0  0  0  0  0  0
  -17.5032  -31.6276   24.5187 H   0  0  0  0  0  0
  -15.5368  -30.3042   23.7571 H   0  0  0  0  0  0
  -15.8676  -28.0856   22.7025 H   0  0  0  0  0  0
  -24.5777  -30.7145   25.7774 H   0  0  0  0  0  0
  -24.8946  -32.2864   26.5032 H   0  0  0  0  0  0
  -25.8002  -30.8751   27.0165 H   0  0  0  0  0  0
  -26.2900  -29.6913   24.1029 H   0  0  0  0  0  0
  -27.3887  -29.7262   25.4630 H   0  0  0  0  0  0
  -27.8790  -30.4418   23.9433 H   0  0  0  0  0  0
  -27.2387  -33.3617   26.2232 H   0  0  0  0  0  0
  -28.3730  -32.7122   25.0490 H   0  0  0  0  0  0
  -28.0579  -31.8513   26.5499 H   0  0  0  0  0  0
  -28.2534  -38.0206   24.7619 H   0  0  0  0  0  0
  -28.1127  -36.2752   24.6136 H   0  0  0  0  0  0
  -27.2291  -37.1363   25.8842 H   0  0  0  0  0  0
  -20.9213  -29.8801   21.6991 H   0  0  0  0  0  0
  -26.0125  -38.2889   24.1545 H   0  0  0  0  0  0
  -29.6418  -23.4557   15.7278 H   0  0  0  0  0  0
  -31.1363  -23.7274   17.5666 H   0  0  0  0  0  0
  -30.8822  -24.9263   18.8134 H   0  0  0  0  0  0
  -31.6945  -25.3837   17.3051 H   0  0  0  0  0  0
  -25.7020  -26.1065   14.4076 H   0  0  0  0  0  0
  -25.3542  -26.9809   15.8974 H   0  0  0  0  0  0
  -24.9752  -25.2619   15.7820 H   0  0  0  0  0  0
  -27.9101  -23.0381   14.0414 H   0  0  0  0  0  0
  -26.4167  -23.9124   13.9779 H   0  0  0  0  0  0
  -28.9830  -28.1473   18.4445 H   0  0  0  0  0  0
  -30.2041  -27.0352   18.9443 H   0  0  0  0  0  0
  -26.2034  -21.5017   14.7864 H   0  0  0  0  0  0
  -25.4821  -22.6791   15.8514 H   0  0  0  0  0  0
  -28.4706  -17.5102   21.5375 H   0  0  0  0  0  0
  -29.0490  -16.8017   20.0441 H   0  0  0  0  0  0
  -30.8880  -18.3886   21.9024 H   0  0  0  0  0  0
  -31.3627  -17.4273   20.5343 H   0  0  0  0  0  0
  -27.4062  -22.6479   17.3610 H   0  0  0  0  0  0
  -28.2891  -21.5924   16.2797 H   0  0  0  0  0  0
  -29.9152  -19.1431   19.4116 H   0  0  0  0  0  0
  -29.0563  -19.7549   20.7989 H   0  0  0  0  0  0
  -30.3391  -16.4717   23.2360 H   0  0  0  0  0  0
  -31.8992  -16.1595   22.5268 H   0  0  0  0  0  0
  -26.7876  -19.7328   16.8113 H   0  0  0  0  0  0
  -25.7581  -20.7637   17.7904 H   0  0  0  0  0  0
  -26.8779  -18.8450   19.7648 H   0  0  0  0  0  0
  -27.8274  -18.3389   18.3772 H   0  0  0  0  0  0
  -29.5041  -14.6483   22.2236 H   0  0  0  0  0  0
  -27.3863  -21.0715   19.3487 H   0  0  0  0  0  0
  -28.5967  -20.7042   18.3369 H   0  0  0  0  0  0
  1 25  1  0  0  0
  1 30  2  0  0  0
  1 89  1  0  0  0
  2  3  1  0  0  0
  2 25  1  0  0  0
  2 91  1  0  0  0
  2 92  1  0  0  0
  3  4  1  0  0  0
  3 93  1  0  0  0
  3 94  1  0  0  0
  4  5  1  0  0  0
  4 95  1  0  0  0
  4 96  1  0  0  0
  5  6  1  0  0  0
  5 26  1  0  0  0
  5 97  1  0  0  0
  6 25  1  0  0  0
  6 98  1  0  0  0
  6 99  1  0  0  0
  7  8  2  0  0  0
  7 26  1  0  0  0
  7 29  1  0  0  0
  8  9  1  0  0  0
  8 22  1  0  0  0
  9 10  1  0  0  0
  9 27  2  0  0  0
 10 11  2  0  0  0
 10 15  1  0  0  0
 11 12  1  0  0  0
 11100  1  0  0  0
 12 13  2  0  0  0
 12101  1  0  0  0
 13 14  1  0  0  0
 13 31  1  0  0  0
 14 15  2  0  0  0
 14102  1  0  0  0
 15103  1  0  0  0
 16 17  2  0  0  0
 16 21  1  0  0  0
 16 31  1  0  0  0
 17 18  1  0  0  0
 17104  1  0  0  0
 18 19  2  0  0  0
 18105  1  0  0  0
 19 20  1  0  0  0
 19 24  1  0  0  0
 20 21  2  0  0  0
 20106  1  0  0  0
 21 23  1  0  0  0
 22 28  1  0  0  0
 22 32  2  0  0  0
 26 27  1  0  0  0
 28107  1  0  0  0
 28108  1  0  0  0
 29109  1  0  0  0
 29110  1  0  0  0
 33 34  1  0  0  0
 33 66  1  0  0  0
 33 70  2  0  0  0
 34 36  1  0  0  0
 34 59  1  0  0  0
 34111  1  0  0  0
 35 44  2  0  0  0
 35 45  1  0  0  0
 35 68  1  0  0  0
 36 56  1  0  0  0
 36112  1  0  0  0
 37 39  1  0  0  0
 37 47  1  0  0  0
 37 66  1  0  0  0
 37113  1  0  0  0
 38 43  2  0  0  0
 38 46  1  0  0  0
 38 47  1  0  0  0
 39 64  1  0  0  0
 39 67  2  0  0  0
 40 52  1  0  0  0
 40 53  2  0  0  0
 40 58  1  0  0  0
 41114  1  0  0  0
 41115  1  0  0  0
 41116  1  0  0  0
 41 48  1  0  0  0
 42 43  1  0  0  0
 42 66  1  0  0  0
 42117  1  0  0  0
 42118  1  0  0  0
 43 44  1  0  0  0
 44119  1  0  0  0
 45 46  2  0  0  0
 45120  1  0  0  0
 46121  1  0  0  0
 47122  1  0  0  0
 47123  1  0  0  0
 48 56  1  0  0  0
 48 65  1  0  0  0
 48124  1  0  0  0
 49 50  1  0  0  0
 49 53  1  0  0  0
 49 64  1  0  0  0
 49125  1  0  0  0
 50 51  1  0  0  0
 50126  1  0  0  0
 50127  1  0  0  0
 51 52  1  0  0  0
 51128  1  0  0  0
 51129  1  0  0  0
 52130  1  0  0  0
 52131  1  0  0  0
 53 54  1  0  0  0
 54 55  2  0  0  0
 54132  1  0  0  0
 55 57  1  0  0  0
 55133  1  0  0  0
 56 69  2  0  0  0
 57 58  2  0  0  0
 57134  1  0  0  0
 58135  1  0  0  0
 59 60  1  0  0  0
 59 61  1  0  0  0
 59 62  1  0  0  0
 60136  1  0  0  0
 60137  1  0  0  0
 60138  1  0  0  0
 61139  1  0  0  0
 61140  1  0  0  0
 61141  1  0  0  0
 62142  1  0  0  0
 62143  1  0  0  0
 62144  1  0  0  0
 63 65  1  0  0  0
 63145  1  0  0  0
 63146  1  0  0  0
 63147  1  0  0  0
 64148  1  0  0  0
 65149  1  0  0  0
 68 79  1  0  0  0
 71 72  2  0  0  0
 71 73  1  0  0  0
 71150  1  0  0  0
 72 74  1  0  0  0
 72 76  1  0  0  0
 73 75  2  0  0  0
 73 78  1  0  0  0
 74 79  1  0  0  0
 74 88  2  0  0  0
 75 77  1  0  0  0
 75 88  1  0  0  0
 76151  1  0  0  0
 76152  1  0  0  0
 76153  1  0  0  0
 77154  1  0  0  0
 77155  1  0  0  0
 77156  1  0  0  0
 78 80  1  0  0  0
 78157  1  0  0  0
 78158  1  0  0  0
 79159  1  0  0  0
 79160  1  0  0  0
 80 83  1  0  0  0
 80161  1  0  0  0
 80162  1  0  0  0
 81 82  1  0  0  0
 81 84  1  0  0  0
 81163  1  0  0  0
 81164  1  0  0  0
 82 85  1  0  0  0
 82165  1  0  0  0
 82166  1  0  0  0
 83 86  1  0  0  0
 83167  1  0  0  0
 83168  1  0  0  0
 84 87  1  0  0  0
 84169  1  0  0  0
 84170  1  0  0  0
 85 89  1  0  0  0
 85171  1  0  0  0
 85172  1  0  0  0
 86 90  1  0  0  0
 86173  1  0  0  0
 86174  1  0  0  0
 87 90  1  0  0  0
 87175  1  0  0  0
 87176  1  0  0  0
 89177  1  0  0  0
 90178  1  0  0  0
 90179  1  0  0  0
M  CHG  1  90   1
M  ISO  4   1 100  68 101  79 101  89 100
M  END
> <chiral flag>
0

> <version>
0

> <s_m_source_file>
/data/baiqing/PycharmProjects/Reinvent-master-3.2/result/LINK_invent/BTK/process_docking_weight1_custom_sum_contain_oxygen_bond_distance_aromatic_linkinvent_7_9_3/rearranged_h_0042.sdf

> <i_m_source_file_index>
84

> <r_mmod_Potential_Energy-OPLS-2005>
-336.819885253906

> <r_mmod_Stretch_Energy-OPLS-2005>
33.7373924255371

> <r_mmod_Bend_Energy-OPLS-2005>
98.4811401367188

> <r_mmod_Torsional_Energy-OPLS-2005>
241.053771972656

> <r_mmod_Improper_Torsional_Energy-OPLS-2005>
2.24523615837097

> <r_mmod_Van_der_Waal_Energy-OPLS-2005>
154.664978027344

> <r_mmod_Electrostatic_Energy-OPLS-2005>
-404.132476806641

> <r_mmod_Solvation_Energy-OPLS-2005>
-471.223449707031

> <b_mmod_Minimization_Converged-OPLS-2005>
0

> <r_mmod_RMS_Derivative-OPLS-2005>
3.49835157394409

$$$$
86
                    3D
 Structure written by MMmdl.
170178  0  0  1  0            999 V2000
  -30.6765  -14.4328   20.5849 C   0  0  0  0  0  0
  -30.4318  -12.2709   19.4352 C   0  0  0  0  0  0
  -29.4962  -12.4853   18.2195 C   0  0  0  0  0  0
  -28.0184  -12.3310   18.6342 C   0  0  0  0  0  0
  -27.6701  -13.1682   19.8902 C   0  0  2  0  0  0
  -28.7077  -12.9257   21.0145 C   0  0  0  0  0  0
  -25.2670  -13.8082   20.5656 C   0  0  0  0  0  0
  -24.1874  -13.0445   20.9177 C   0  0  0  0  0  0
  -24.6367  -11.6881   20.8790 C   0  0  0  0  0  0
  -23.9031  -10.4285   21.0448 C   0  0  0  0  0  0
  -24.3582   -9.4195   21.9224 C   0  0  0  0  0  0
  -23.6257   -8.2225   22.0789 C   0  0  0  0  0  0
  -22.4246   -8.0274   21.3556 C   0  0  0  0  0  0
  -21.9872   -9.0271   20.4671 C   0  0  0  0  0  0
  -22.7200  -10.2152   20.3113 C   0  0  0  0  0  0
  -21.6835   -6.0728   22.5286 C   0  0  0  0  0  0
  -21.3995   -6.5647   23.8217 C   0  0  0  0  0  0
  -21.3681   -5.6804   24.9182 C   0  0  0  0  0  0
  -21.6051   -4.3070   24.7239 C   0  0  0  0  0  0
  -21.8820   -3.8159   23.4366 C   0  0  0  0  0  0
  -21.9178   -4.6959   22.3414 C   0  0  0  0  0  0
  -22.7913  -13.5305   21.1854 C   0  0  0  0  0  0
  -22.1649   -4.2144   21.0993 F   0  0  0  0  0  0
  -21.5639   -3.4573   25.7755 F   0  0  0  0  0  0
  -30.0508  -13.2308   20.4811 N   0  0  0  0  0  0
  -26.3064  -12.9168   20.3431 N   0  0  0  0  0  0
  -25.9285  -11.6394   20.5879 N   0  0  0  0  0  0
  -22.0519  -12.8330   22.0375 N   0  0  0  0  0  0
  -25.4581  -15.1769   20.3978 N   0  0  0  0  0  0
  -31.7296  -14.7134   20.0018 O   0  0  0  0  0  0
  -21.6618   -6.8864   21.4240 O   0  0  0  0  0  0
  -22.3655  -14.5643   20.6702 O   0  0  0  0  0  0
  -24.6138  -31.8633   23.2057 C   0  0  0  0  0  0
  -25.8988  -32.4781   23.8357 C   0  0  1  0  0  0
  -27.2713  -27.4476   20.0419 C   0  0  0  0  0  0
  -25.5798  -33.8548   24.2341 N   0  0  0  0  0  0
  -23.4127  -30.4824   21.5475 C   0  0  2  0  0  0
  -24.8589  -28.9381   20.1149 C   0  0  0  0  0  0
  -22.7439  -29.4671   22.5019 C   0  0  0  0  0  0
  -18.0289  -28.1391   22.8440 C   0  0  0  0  0  0
  -24.1467  -36.7388   23.2630 C   0  0  0  0  0  0
  -25.9369  -30.8184   21.3577 C   0  0  0  0  0  0
  -26.0151  -29.4505   20.7106 C   0  0  0  0  0  0
  -27.2150  -28.7099   20.6752 C   0  0  0  0  0  0
  -26.0979  -26.9500   19.4276 C   0  0  0  0  0  0
  -24.8940  -27.6828   19.4790 C   0  0  0  0  0  0
  -23.6187  -29.8000   20.1676 C   0  0  0  0  0  0
  -25.4044  -36.3082   24.0366 C   0  0  1  0  0  0
  -20.5872  -28.3675   23.1316 C   0  0  2  0  0  0
  -20.6775  -26.9406   22.5429 C   0  0  0  0  0  0
  -19.5768  -26.6371   21.5219 C   0  0  0  0  0  0
  -18.1958  -26.7914   22.1627 C   0  0  0  0  0  0
  -19.1534  -28.8861   23.2873 C   0  0  0  0  0  0
  -18.9440  -30.1414   23.8940 C   0  0  0  0  0  0
  -17.6465  -30.6580   24.0574 C   0  0  0  0  0  0
  -25.8977  -34.9424   23.5204 C   0  0  0  0  0  0
  -16.5351  -29.9117   23.6262 C   0  0  0  0  0  0
  -16.7293  -28.6537   23.0286 C   0  0  0  0  0  0
  -26.4383  -31.6552   25.0657 C   0  0  0  0  0  0
  -25.3683  -31.3663   26.1480 C   0  0  0  0  0  0
  -27.0109  -30.2990   24.5884 C   0  0  0  0  0  0
  -27.6011  -32.4242   25.7321 C   0  0  0  0  0  0
  -27.5579  -37.1819   24.8433 C   0  0  0  0  0  0
  -21.4175  -29.3075   22.3751 N   0  0  0  0  0  0
  -26.4251  -37.3753   23.9428 N   0  0  0  0  0  0
  -24.6737  -31.0732   22.0924 N   0  0  0  0  0  0
  -23.4225  -28.8200   23.3053 O   0  0  0  0  0  0
  -28.4917  -26.7948   20.0379 O   0  0  0  0  0  0
  -26.5596  -34.8899   22.4778 O   0  0  0  0  0  0
  -23.5328  -32.1343   23.7454 O   0  0  0  0  0  0
  -30.6850  -20.7197   20.4889 C   0  0  0  0  0  0
  -30.7096  -21.9275   18.0361 C   0  0  0  0  0  0
  -31.3642  -21.9432   20.3649 C   0  0  0  0  0  0
  -31.4235  -22.5556   19.0845 C   0  0  0  0  0  0
  -30.0998  -20.1255   19.3620 C   0  0  0  0  0  0
  -32.0131  -22.5163   21.6155 C   0  0  0  0  0  0
  -32.9437  -23.7977   17.3913 C   0  0  0  0  0  0
  -29.4425  -18.7560   19.4532 C   0  0  0  0  0  0
  -30.2559  -17.6890   20.2382 C   0  0  0  0  0  0
  -29.4095  -25.2841   18.3273 C   0  0  0  0  0  0
  -29.3489  -16.5106   20.6239 C   0  0  0  0  0  0
  -30.8565  -25.8369   18.3695 C   0  0  0  0  0  0
  -28.6290  -25.4204   19.6579 C   0  0  0  0  0  0
  -32.3325  -23.7691   18.8102 C   0  0  1  0  0  0
  -30.0683  -20.7433   18.1639 N   0  0  0  0  0  0
  -29.9836  -15.3532   21.2653 N   0  0  0  0  0  0
  -31.7811  -25.0803   19.2600 N   0  3  0  0  0  0
  -31.4767  -12.3745   19.1362 H   0  0  0  0  0  0
  -30.3300  -11.2543   19.8250 H   0  0  0  0  0  0
  -29.7283  -11.7614   17.4384 H   0  0  0  0  0  0
  -29.6655  -13.4754   17.7909 H   0  0  0  0  0  0
  -27.8441  -11.2732   18.8428 H   0  0  0  0  0  0
  -27.3566  -12.5910   17.8073 H   0  0  0  0  0  0
  -27.7239  -14.2145   19.6006 H   0  0  0  0  0  0
  -28.6737  -11.8841   21.3410 H   0  0  0  0  0  0
  -28.4561  -13.5044   21.9021 H   0  0  0  0  0  0
  -25.2743   -9.5676   22.4805 H   0  0  0  0  0  0
  -23.9988   -7.4602   22.7525 H   0  0  0  0  0  0
  -21.0793   -8.8820   19.8953 H   0  0  0  0  0  0
  -22.3683  -10.9724   19.6254 H   0  0  0  0  0  0
  -21.1972   -7.6160   23.9734 H   0  0  0  0  0  0
  -21.1501   -6.0526   25.9080 H   0  0  0  0  0  0
  -22.0566   -2.7628   23.2878 H   0  0  0  0  0  0
  -22.4083  -11.9946   22.4733 H   0  0  0  0  0  0
  -21.1189  -13.1466   22.2659 H   0  0  0  0  0  0
  -24.7142  -15.8573   20.5062 H   0  0  0  0  0  0
  -26.3193  -15.5829   20.0557 H   0  0  0  0  0  0
  -26.7073  -32.5522   23.1154 H   0  0  0  0  0  0
  -24.9597  -33.9612   25.0251 H   0  0  0  0  0  0
  -22.7058  -31.3019   21.4005 H   0  0  0  0  0  0
  -23.3617  -35.9840   23.3196 H   0  0  0  0  0  0
  -24.3600  -36.9059   22.2071 H   0  0  0  0  0  0
  -23.7339  -37.6642   23.6639 H   0  0  0  0  0  0
  -26.0435  -31.5655   20.5667 H   0  0  0  0  0  0
  -26.8315  -30.8829   21.9683 H   0  0  0  0  0  0
  -28.1134  -29.1129   21.1179 H   0  0  0  0  0  0
  -26.1055  -26.0212   18.8728 H   0  0  0  0  0  0
  -24.0065  -27.2851   19.0100 H   0  0  0  0  0  0
  -23.7248  -30.5649   19.3991 H   0  0  0  0  0  0
  -22.7504  -29.2081   19.8792 H   0  0  0  0  0  0
  -25.1175  -36.1954   25.0858 H   0  0  0  0  0  0
  -20.9856  -28.3197   24.1490 H   0  0  0  0  0  0
  -20.5613  -26.2326   23.3622 H   0  0  0  0  0  0
  -21.6670  -26.7438   22.1295 H   0  0  0  0  0  0
  -19.6934  -25.6268   21.1292 H   0  0  0  0  0  0
  -19.6705  -27.3115   20.6699 H   0  0  0  0  0  0
  -17.4187  -26.6539   21.4060 H   0  0  0  0  0  0
  -18.0462  -26.0068   22.9074 H   0  0  0  0  0  0
  -19.7918  -30.7168   24.2382 H   0  0  0  0  0  0
  -17.5039  -31.6250   24.5169 H   0  0  0  0  0  0
  -15.5351  -30.3083   23.7543 H   0  0  0  0  0  0
  -15.8676  -28.0901   22.6991 H   0  0  0  0  0  0
  -24.5858  -30.6954   25.7910 H   0  0  0  0  0  0
  -24.8830  -32.2788   26.4944 H   0  0  0  0  0  0
  -25.8111  -30.8921   27.0246 H   0  0  0  0  0  0
  -26.2643  -29.7034   24.0584 H   0  0  0  0  0  0
  -27.3510  -29.6918   25.4262 H   0  0  0  0  0  0
  -27.8640  -30.4316   23.9222 H   0  0  0  0  0  0
  -27.2691  -33.3600   26.1815 H   0  0  0  0  0  0
  -28.3790  -32.6705   25.0078 H   0  0  0  0  0  0
  -28.0637  -31.8345   26.5224 H   0  0  0  0  0  0
  -28.2537  -38.0155   24.7392 H   0  0  0  0  0  0
  -28.1126  -36.2671   24.6263 H   0  0  0  0  0  0
  -27.2307  -37.1492   25.8840 H   0  0  0  0  0  0
  -20.9393  -29.8854   21.6955 H   0  0  0  0  0  0
  -26.0129  -38.2833   24.1407 H   0  0  0  0  0  0
  -30.6509  -20.2226   21.4462 H   0  0  0  0  0  0
  -30.6658  -22.3576   17.0471 H   0  0  0  0  0  0
  -31.9592  -21.8031   22.4395 H   0  0  0  0  0  0
  -31.4974  -23.4191   21.9410 H   0  0  0  0  0  0
  -33.0699  -22.7268   21.4673 H   0  0  0  0  0  0
  -33.4373  -22.8506   17.1642 H   0  0  0  0  0  0
  -33.7182  -24.5589   17.3219 H   0  0  0  0  0  0
  -32.2109  -23.9891   16.6054 H   0  0  0  0  0  0
  -29.2550  -18.3841   18.4455 H   0  0  0  0  0  0
  -28.4574  -18.9006   19.8996 H   0  0  0  0  0  0
  -30.6698  -18.1013   21.1584 H   0  0  0  0  0  0
  -31.1058  -17.3683   19.6325 H   0  0  0  0  0  0
  -29.4349  -24.2463   18.0103 H   0  0  0  0  0  0
  -28.8498  -25.8007   17.5468 H   0  0  0  0  0  0
  -28.7992  -16.1736   19.7450 H   0  0  0  0  0  0
  -28.5971  -16.8683   21.3294 H   0  0  0  0  0  0
  -30.8258  -26.8663   18.7318 H   0  0  0  0  0  0
  -31.2665  -25.9166   17.3602 H   0  0  0  0  0  0
  -29.1970  -24.9330   20.4516 H   0  0  0  0  0  0
  -27.6905  -24.8659   19.6259 H   0  0  0  0  0  0
  -33.2007  -23.6097   19.4491 H   0  0  0  0  0  0
  -29.3886  -14.9286   21.9631 H   0  0  0  0  0  0
  -31.3803  -24.9893   20.1764 H   0  0  0  0  0  0
  -32.5837  -25.6771   19.3826 H   0  0  0  0  0  0
  1 25  1  0  0  0
  1 30  2  0  0  0
  1 86  1  0  0  0
  2  3  1  0  0  0
  2 25  1  0  0  0
  2 88  1  0  0  0
  2 89  1  0  0  0
  3  4  1  0  0  0
  3 90  1  0  0  0
  3 91  1  0  0  0
  4  5  1  0  0  0
  4 92  1  0  0  0
  4 93  1  0  0  0
  5  6  1  0  0  0
  5 26  1  0  0  0
  5 94  1  0  0  0
  6 25  1  0  0  0
  6 95  1  0  0  0
  6 96  1  0  0  0
  7  8  2  0  0  0
  7 26  1  0  0  0
  7 29  1  0  0  0
  8  9  1  0  0  0
  8 22  1  0  0  0
  9 10  1  0  0  0
  9 27  2  0  0  0
 10 11  2  0  0  0
 10 15  1  0  0  0
 11 12  1  0  0  0
 11 97  1  0  0  0
 12 13  2  0  0  0
 12 98  1  0  0  0
 13 14  1  0  0  0
 13 31  1  0  0  0
 14 15  2  0  0  0
 14 99  1  0  0  0
 15100  1  0  0  0
 16 17  2  0  0  0
 16 21  1  0  0  0
 16 31  1  0  0  0
 17 18  1  0  0  0
 17101  1  0  0  0
 18 19  2  0  0  0
 18102  1  0  0  0
 19 20  1  0  0  0
 19 24  1  0  0  0
 20 21  2  0  0  0
 20103  1  0  0  0
 21 23  1  0  0  0
 22 28  1  0  0  0
 22 32  2  0  0  0
 26 27  1  0  0  0
 28104  1  0  0  0
 28105  1  0  0  0
 29106  1  0  0  0
 29107  1  0  0  0
 33 34  1  0  0  0
 33 66  1  0  0  0
 33 70  2  0  0  0
 34 36  1  0  0  0
 34 59  1  0  0  0
 34108  1  0  0  0
 35 44  2  0  0  0
 35 45  1  0  0  0
 35 68  1  0  0  0
 36 56  1  0  0  0
 36109  1  0  0  0
 37 39  1  0  0  0
 37 47  1  0  0  0
 37 66  1  0  0  0
 37110  1  0  0  0
 38 43  2  0  0  0
 38 46  1  0  0  0
 38 47  1  0  0  0
 39 64  1  0  0  0
 39 67  2  0  0  0
 40 52  1  0  0  0
 40 53  2  0  0  0
 40 58  1  0  0  0
 41111  1  0  0  0
 41112  1  0  0  0
 41113  1  0  0  0
 41 48  1  0  0  0
 42 43  1  0  0  0
 42 66  1  0  0  0
 42114  1  0  0  0
 42115  1  0  0  0
 43 44  1  0  0  0
 44116  1  0  0  0
 45 46  2  0  0  0
 45117  1  0  0  0
 46118  1  0  0  0
 47119  1  0  0  0
 47120  1  0  0  0
 48 56  1  0  0  0
 48 65  1  0  0  0
 48121  1  0  0  0
 49 50  1  0  0  0
 49 53  1  0  0  0
 49 64  1  0  0  0
 49122  1  0  0  0
 50 51  1  0  0  0
 50123  1  0  0  0
 50124  1  0  0  0
 51 52  1  0  0  0
 51125  1  0  0  0
 51126  1  0  0  0
 52127  1  0  0  0
 52128  1  0  0  0
 53 54  1  0  0  0
 54 55  2  0  0  0
 54129  1  0  0  0
 55 57  1  0  0  0
 55130  1  0  0  0
 56 69  2  0  0  0
 57 58  2  0  0  0
 57131  1  0  0  0
 58132  1  0  0  0
 59 60  1  0  0  0
 59 61  1  0  0  0
 59 62  1  0  0  0
 60133  1  0  0  0
 60134  1  0  0  0
 60135  1  0  0  0
 61136  1  0  0  0
 61137  1  0  0  0
 61138  1  0  0  0
 62139  1  0  0  0
 62140  1  0  0  0
 62141  1  0  0  0
 63 65  1  0  0  0
 63142  1  0  0  0
 63143  1  0  0  0
 63144  1  0  0  0
 64145  1  0  0  0
 65146  1  0  0  0
 68 83  1  0  0  0
 71 73  2  0  0  0
 71 75  1  0  0  0
 71147  1  0  0  0
 72 74  2  0  0  0
 72 85  1  0  0  0
 72148  1  0  0  0
 73 74  1  0  0  0
 73 76  1  0  0  0
 74 84  1  0  0  0
 75 78  1  0  0  0
 75 85  2  0  0  0
 76149  1  0  0  0
 76150  1  0  0  0
 76151  1  0  0  0
 77152  1  0  0  0
 77153  1  0  0  0
 77154  1  0  0  0
 77 84  1  0  0  0
 78 79  1  0  0  0
 78155  1  0  0  0
 78156  1  0  0  0
 79 81  1  0  0  0
 79157  1  0  0  0
 79158  1  0  0  0
 80 82  1  0  0  0
 80 83  1  0  0  0
 80159  1  0  0  0
 80160  1  0  0  0
 81 86  1  0  0  0
 81161  1  0  0  0
 81162  1  0  0  0
 82 87  1  0  0  0
 82163  1  0  0  0
 82164  1  0  0  0
 83165  1  0  0  0
 83166  1  0  0  0
 84 87  1  0  0  0
 84167  1  0  0  0
 86168  1  0  0  0
 87169  1  0  0  0
 87170  1  0  0  0
M  CHG  1  87   1
M  ISO  4   1 100  68 101  83 101  86 100
M  END
> <chiral flag>
0

> <version>
0

> <s_m_source_file>
/data/baiqing/PycharmProjects/Reinvent-master-3.2/result/LINK_invent/BTK/process_docking_weight1_custom_sum_contain_oxygen_bond_distance_aromatic_linkinvent_7_9_3/rearranged_h_0042.sdf

> <i_m_source_file_index>
85

> <r_mmod_Potential_Energy-OPLS-2005>
-282.047180175781

> <r_mmod_Stretch_Energy-OPLS-2005>
37.8596343994141

> <r_mmod_Bend_Energy-OPLS-2005>
129.602798461914

> <r_mmod_Torsional_Energy-OPLS-2005>
246.698532104492

> <r_mmod_Improper_Torsional_Energy-OPLS-2005>
7.91124629974365

> <r_mmod_Van_der_Waal_Energy-OPLS-2005>
156.094711303711

> <r_mmod_Electrostatic_Energy-OPLS-2005>
-401.970428466797

> <r_mmod_Solvation_Energy-OPLS-2005>
-473.00341796875

> <b_mmod_Minimization_Converged-OPLS-2005>
0

> <r_mmod_RMS_Derivative-OPLS-2005>
7.74968433380127

$$$$
87
                    3D
 Structure written by MMmdl.
154162  0  0  1  0            999 V2000
  -30.6550  -14.6356   20.4850 C   0  0  0  0  0  0
  -30.4274  -12.3901   19.4599 C   0  0  0  0  0  0
  -29.5078  -12.5141   18.2284 C   0  0  0  0  0  0
  -28.0279  -12.3677   18.6322 C   0  0  0  0  0  0
  -27.6521  -13.2304   19.8674 C   0  0  2  0  0  0
  -28.6984  -13.1119   20.9995 C   0  0  0  0  0  0
  -25.2564  -13.8187   20.5738 C   0  0  0  0  0  0
  -24.1857  -13.0425   20.9179 C   0  0  0  0  0  0
  -24.6445  -11.6901   20.8734 C   0  0  0  0  0  0
  -23.9088  -10.4301   21.0380 C   0  0  0  0  0  0
  -24.3624   -9.4216   21.9176 C   0  0  0  0  0  0
  -23.6308   -8.2255   22.0751 C   0  0  0  0  0  0
  -22.4289   -8.0297   21.3545 C   0  0  0  0  0  0
  -21.9920   -9.0253   20.4636 C   0  0  0  0  0  0
  -22.7236  -10.2143   20.3047 C   0  0  0  0  0  0
  -21.6885   -6.0742   22.5259 C   0  0  0  0  0  0
  -21.4023   -6.5642   23.8183 C   0  0  0  0  0  0
  -21.3662   -5.6788   24.9150 C   0  0  0  0  0  0
  -21.6048   -4.3051   24.7207 C   0  0  0  0  0  0
  -21.8817   -3.8148   23.4324 C   0  0  0  0  0  0
  -21.9205   -4.6970   22.3387 C   0  0  0  0  0  0
  -22.7869  -13.5208   21.1817 C   0  0  0  0  0  0
  -22.1676   -4.2154   21.0967 F   0  0  0  0  0  0
  -21.5621   -3.4531   25.7722 F   0  0  0  0  0  0
  -30.0121  -13.4281   20.4223 N   0  0  0  0  0  0
  -26.3005  -12.9404   20.3372 N   0  0  0  0  0  0
  -25.9392  -11.6534   20.5777 N   0  0  0  0  0  0
  -22.0537  -12.8216   22.0387 N   0  0  0  0  0  0
  -25.4255  -15.1934   20.4166 N   0  0  0  0  0  0
  -31.8300  -14.7571   20.1327 O   0  0  0  0  0  0
  -21.6659   -6.8894   21.4231 O   0  0  0  0  0  0
  -22.3560  -14.5528   20.6665 O   0  0  0  0  0  0
  -24.6278  -31.8576   23.1991 C   0  0  0  0  0  0
  -25.9118  -32.4754   23.8336 C   0  0  1  0  0  0
  -27.2229  -27.3230   20.1173 C   0  0  0  0  0  0
  -25.5924  -33.8557   24.2263 N   0  0  0  0  0  0
  -23.4196  -30.4825   21.5432 C   0  0  2  0  0  0
  -24.8630  -28.9381   20.1108 C   0  0  0  0  0  0
  -22.7469  -29.4617   22.4931 C   0  0  0  0  0  0
  -18.0264  -28.1371   22.8469 C   0  0  0  0  0  0
  -24.1482  -36.7311   23.2640 C   0  0  0  0  0  0
  -25.9589  -30.7933   21.3642 C   0  0  0  0  0  0
  -26.0333  -29.4213   20.7097 C   0  0  0  0  0  0
  -27.2172  -28.6277   20.6992 C   0  0  0  0  0  0
  -26.0231  -26.8845   19.5097 C   0  0  0  0  0  0
  -24.8601  -27.6751   19.5021 C   0  0  0  0  0  0
  -23.6316  -29.8190   20.1574 C   0  0  0  0  0  0
  -25.4100  -36.3068   24.0322 C   0  0  1  0  0  0
  -20.5867  -28.3682   23.1269 C   0  0  2  0  0  0
  -20.6740  -26.9403   22.5413 C   0  0  0  0  0  0
  -19.5727  -26.6367   21.5196 C   0  0  0  0  0  0
  -18.1908  -26.7905   22.1619 C   0  0  0  0  0  0
  -19.1521  -28.8838   23.2859 C   0  0  0  0  0  0
  -18.9458  -30.1437   23.8885 C   0  0  0  0  0  0
  -17.6463  -30.6577   24.0556 C   0  0  0  0  0  0
  -25.9044  -34.9440   23.5092 C   0  0  0  0  0  0
  -16.5349  -29.9087   23.6319 C   0  0  0  0  0  0
  -16.7256  -28.6503   23.0336 C   0  0  0  0  0  0
  -26.4492  -31.6568   25.0721 C   0  0  0  0  0  0
  -25.3751  -31.3728   26.1477 C   0  0  0  0  0  0
  -27.0324  -30.2980   24.6181 C   0  0  0  0  0  0
  -27.6016  -32.4319   25.7533 C   0  0  0  0  0  0
  -27.5564  -37.1809   24.8459 C   0  0  0  0  0  0
  -21.4179  -29.3044   22.3689 N   0  0  0  0  0  0
  -26.4269  -37.3774   23.9408 N   0  0  0  0  0  0
  -24.6881  -31.0594   22.0926 N   0  0  0  0  0  0
  -23.4183  -28.8134   23.3001 O   0  0  0  0  0  0
  -28.3523  -26.4927   20.1526 O   0  0  0  0  0  0
  -26.5631  -34.8919   22.4670 O   0  0  0  0  0  0
  -23.5443  -32.1371   23.7328 O   0  0  0  0  0  0
  -29.3729  -20.5204   21.4785 C   0  0  0  0  0  0
  -29.2621  -19.7406   20.3072 C   0  0  0  0  0  0
  -29.1733  -20.5209   19.1236 C   0  0  0  0  0  0
  -29.2827  -22.5336   20.3065 C   0  0  0  0  0  0
  -29.0096  -19.8972   17.7510 C   0  0  0  0  0  0
  -29.0545  -18.1800   20.3689 C   0  0  0  0  0  0
  -29.4311  -24.1019   20.2972 C   0  0  0  0  0  0
  -30.2648  -17.1939   20.6524 C   0  0  0  0  0  0
  -28.1525  -25.0223   20.1345 C   0  0  0  0  0  0
  -29.3711  -21.8835   21.4724 N   0  0  0  0  0  0
  -29.1937  -21.8840   19.1409 N   0  0  0  0  0  0
  -29.8888  -15.7375   20.7525 N   0  0  0  0  0  0
  -31.4697  -12.4992   19.1600 H   0  0  0  0  0  0
  -30.3487  -11.3979   19.9067 H   0  0  0  0  0  0
  -29.7673  -11.7591   17.4849 H   0  0  0  0  0  0
  -29.6708  -13.4849   17.7540 H   0  0  0  0  0  0
  -27.8473  -11.3131   18.8421 H   0  0  0  0  0  0
  -27.3830  -12.6282   17.7912 H   0  0  0  0  0  0
  -27.6642  -14.2640   19.5205 H   0  0  0  0  0  0
  -28.7081  -12.1065   21.4251 H   0  0  0  0  0  0
  -28.4574  -13.7858   21.8227 H   0  0  0  0  0  0
  -25.2771   -9.5718   22.4746 H   0  0  0  0  0  0
  -24.0029   -7.4669   22.7477 H   0  0  0  0  0  0
  -21.0832   -8.8749   19.8958 H   0  0  0  0  0  0
  -22.3659  -10.9684   19.6157 H   0  0  0  0  0  0
  -21.2032   -7.6153   23.9687 H   0  0  0  0  0  0
  -21.1478   -6.0529   25.9054 H   0  0  0  0  0  0
  -22.0612   -2.7619   23.2803 H   0  0  0  0  0  0
  -22.4151  -11.9870   22.4774 H   0  0  0  0  0  0
  -21.1164  -13.1252   22.2601 H   0  0  0  0  0  0
  -24.6534  -15.8449   20.5141 H   0  0  0  0  0  0
  -26.2695  -15.6330   20.0729 H   0  0  0  0  0  0
  -26.7211  -32.5426   23.1110 H   0  0  0  0  0  0
  -25.0031  -33.9692   25.0380 H   0  0  0  0  0  0
  -22.7150  -31.3040   21.4013 H   0  0  0  0  0  0
  -23.3707  -35.9682   23.3291 H   0  0  0  0  0  0
  -24.3586  -36.8942   22.2058 H   0  0  0  0  0  0
  -23.7273  -37.6524   23.6681 H   0  0  0  0  0  0
  -26.0826  -31.5518   20.5901 H   0  0  0  0  0  0
  -26.8384  -30.8431   21.9925 H   0  0  0  0  0  0
  -28.1185  -28.9952   21.1694 H   0  0  0  0  0  0
  -25.9491  -25.9177   19.0384 H   0  0  0  0  0  0
  -23.9603  -27.2956   19.0348 H   0  0  0  0  0  0
  -23.7535  -30.5946   19.3999 H   0  0  0  0  0  0
  -22.7474  -29.2549   19.8540 H   0  0  0  0  0  0
  -25.1274  -36.1910   25.0812 H   0  0  0  0  0  0
  -20.9943  -28.3238   24.1388 H   0  0  0  0  0  0
  -20.5571  -26.2306   23.3612 H   0  0  0  0  0  0
  -21.6614  -26.7382   22.1250 H   0  0  0  0  0  0
  -19.6880  -25.6267   21.1232 H   0  0  0  0  0  0
  -19.6649  -27.3160   20.6703 H   0  0  0  0  0  0
  -17.4165  -26.6615   21.4035 H   0  0  0  0  0  0
  -18.0335  -26.0055   22.9030 H   0  0  0  0  0  0
  -19.7949  -30.7240   24.2248 H   0  0  0  0  0  0
  -17.5035  -31.6255   24.5166 H   0  0  0  0  0  0
  -15.5355  -30.3002   23.7636 H   0  0  0  0  0  0
  -15.8651  -28.0833   22.7048 H   0  0  0  0  0  0
  -24.5910  -30.7064   25.7862 H   0  0  0  0  0  0
  -24.8980  -32.2912   26.4912 H   0  0  0  0  0  0
  -25.8116  -30.8940   27.0254 H   0  0  0  0  0  0
  -26.2903  -29.6750   24.1173 H   0  0  0  0  0  0
  -27.3955  -29.7211   25.4696 H   0  0  0  0  0  0
  -27.8801  -30.4215   23.9434 H   0  0  0  0  0  0
  -27.2554  -33.3595   26.2109 H   0  0  0  0  0  0
  -28.3860  -32.6914   25.0410 H   0  0  0  0  0  0
  -28.0657  -31.8467   26.5485 H   0  0  0  0  0  0
  -28.2567  -38.0116   24.7479 H   0  0  0  0  0  0
  -28.1064  -36.2637   24.6290 H   0  0  0  0  0  0
  -27.2299  -37.1469   25.8869 H   0  0  0  0  0  0
  -20.9345  -29.8881   21.7011 H   0  0  0  0  0  0
  -26.0129  -38.2841   24.1409 H   0  0  0  0  0  0
  -29.4302  -20.0402   22.4440 H   0  0  0  0  0  0
  -27.9644  -19.6397   17.5679 H   0  0  0  0  0  0
  -29.6215  -19.0007   17.6518 H   0  0  0  0  0  0
  -29.3180  -20.5980   16.9744 H   0  0  0  0  0  0
  -28.5559  -17.8596   19.4533 H   0  0  0  0  0  0
  -28.3101  -18.0109   21.1484 H   0  0  0  0  0  0
  -30.1282  -24.3513   19.4987 H   0  0  0  0  0  0
  -29.9539  -24.3939   21.2091 H   0  0  0  0  0  0
  -31.0180  -17.3209   19.8727 H   0  0  0  0  0  0
  -30.7483  -17.4755   21.5901 H   0  0  0  0  0  0
  -27.4469  -24.7626   20.9251 H   0  0  0  0  0  0
  -27.6811  -24.7294   19.1961 H   0  0  0  0  0  0
  -28.9326  -15.5442   21.0107 H   0  0  0  0  0  0
  1 25  1  0  0  0
  1 30  2  0  0  0
  1 82  1  0  0  0
  2  3  1  0  0  0
  2 25  1  0  0  0
  2 83  1  0  0  0
  2 84  1  0  0  0
  3  4  1  0  0  0
  3 85  1  0  0  0
  3 86  1  0  0  0
  4  5  1  0  0  0
  4 87  1  0  0  0
  4 88  1  0  0  0
  5  6  1  0  0  0
  5 26  1  0  0  0
  5 89  1  0  0  0
  6 25  1  0  0  0
  6 90  1  0  0  0
  6 91  1  0  0  0
  7  8  2  0  0  0
  7 26  1  0  0  0
  7 29  1  0  0  0
  8  9  1  0  0  0
  8 22  1  0  0  0
  9 10  1  0  0  0
  9 27  2  0  0  0
 10 11  2  0  0  0
 10 15  1  0  0  0
 11 12  1  0  0  0
 11 92  1  0  0  0
 12 13  2  0  0  0
 12 93  1  0  0  0
 13 14  1  0  0  0
 13 31  1  0  0  0
 14 15  2  0  0  0
 14 94  1  0  0  0
 15 95  1  0  0  0
 16 17  2  0  0  0
 16 21  1  0  0  0
 16 31  1  0  0  0
 17 18  1  0  0  0
 17 96  1  0  0  0
 18 19  2  0  0  0
 18 97  1  0  0  0
 19 20  1  0  0  0
 19 24  1  0  0  0
 20 21  2  0  0  0
 20 98  1  0  0  0
 21 23  1  0  0  0
 22 28  1  0  0  0
 22 32  2  0  0  0
 26 27  1  0  0  0
 28 99  1  0  0  0
 28100  1  0  0  0
 29101  1  0  0  0
 29102  1  0  0  0
 33 34  1  0  0  0
 33 66  1  0  0  0
 33 70  2  0  0  0
 34 36  1  0  0  0
 34 59  1  0  0  0
 34103  1  0  0  0
 35 44  2  0  0  0
 35 45  1  0  0  0
 35 68  1  0  0  0
 36 56  1  0  0  0
 36104  1  0  0  0
 37 39  1  0  0  0
 37 47  1  0  0  0
 37 66  1  0  0  0
 37105  1  0  0  0
 38 43  2  0  0  0
 38 46  1  0  0  0
 38 47  1  0  0  0
 39 64  1  0  0  0
 39 67  2  0  0  0
 40 52  1  0  0  0
 40 53  2  0  0  0
 40 58  1  0  0  0
 41106  1  0  0  0
 41107  1  0  0  0
 41108  1  0  0  0
 41 48  1  0  0  0
 42 43  1  0  0  0
 42 66  1  0  0  0
 42109  1  0  0  0
 42110  1  0  0  0
 43 44  1  0  0  0
 44111  1  0  0  0
 45 46  2  0  0  0
 45112  1  0  0  0
 46113  1  0  0  0
 47114  1  0  0  0
 47115  1  0  0  0
 48 56  1  0  0  0
 48 65  1  0  0  0
 48116  1  0  0  0
 49 50  1  0  0  0
 49 53  1  0  0  0
 49 64  1  0  0  0
 49117  1  0  0  0
 50 51  1  0  0  0
 50118  1  0  0  0
 50119  1  0  0  0
 51 52  1  0  0  0
 51120  1  0  0  0
 51121  1  0  0  0
 52122  1  0  0  0
 52123  1  0  0  0
 53 54  1  0  0  0
 54 55  2  0  0  0
 54124  1  0  0  0
 55 57  1  0  0  0
 55125  1  0  0  0
 56 69  2  0  0  0
 57 58  2  0  0  0
 57126  1  0  0  0
 58127  1  0  0  0
 59 60  1  0  0  0
 59 61  1  0  0  0
 59 62  1  0  0  0
 60128  1  0  0  0
 60129  1  0  0  0
 60130  1  0  0  0
 61131  1  0  0  0
 61132  1  0  0  0
 61133  1  0  0  0
 62134  1  0  0  0
 62135  1  0  0  0
 62136  1  0  0  0
 63 65  1  0  0  0
 63137  1  0  0  0
 63138  1  0  0  0
 63139  1  0  0  0
 64140  1  0  0  0
 65141  1  0  0  0
 68 79  1  0  0  0
 71 72  2  0  0  0
 71 80  1  0  0  0
 71142  1  0  0  0
 72 73  1  0  0  0
 72 76  1  0  0  0
 73 75  1  0  0  0
 73 81  2  0  0  0
 74 77  1  0  0  0
 74 80  2  0  0  0
 74 81  1  0  0  0
 75143  1  0  0  0
 75144  1  0  0  0
 75145  1  0  0  0
 76 78  1  0  0  0
 76146  1  0  0  0
 76147  1  0  0  0
 77 79  1  0  0  0
 77148  1  0  0  0
 77149  1  0  0  0
 78 82  1  0  0  0
 78150  1  0  0  0
 78151  1  0  0  0
 79152  1  0  0  0
 79153  1  0  0  0
 82154  1  0  0  0
M  ISO  4   1 100  68 101  79 101  82 100
M  END
> <chiral flag>
0

> <version>
0

> <s_m_source_file>
/data/baiqing/PycharmProjects/Reinvent-master-3.2/result/LINK_invent/BTK/process_docking_weight1_custom_sum_contain_oxygen_bond_distance_aromatic_linkinvent_7_9_3/rearranged_h_0042.sdf

> <i_m_source_file_index>
86

> <r_mmod_Potential_Energy-OPLS-2005>
-426.691162109375

> <r_mmod_Stretch_Energy-OPLS-2005>
73.7007827758789

> <r_mmod_Bend_Energy-OPLS-2005>
129.776016235352

> <r_mmod_Torsional_Energy-OPLS-2005>
190.60498046875

> <r_mmod_Improper_Torsional_Energy-OPLS-2005>
5.88813209533691

> <r_mmod_Van_der_Waal_Energy-OPLS-2005>
148.045318603516

> <r_mmod_Electrostatic_Energy-OPLS-2005>
-782.89892578125

> <r_mmod_Solvation_Energy-OPLS-2005>
-238.909545898438

> <b_mmod_Minimization_Converged-OPLS-2005>
0

> <r_mmod_RMS_Derivative-OPLS-2005>
4.06267404556274

$$$$
88
                    3D
 Structure written by MMmdl.
172180  0  0  1  0            999 V2000
  -30.6478  -14.4846   20.5882 C   0  0  0  0  0  0
  -30.4330  -12.3163   19.4375 C   0  0  0  0  0  0
  -29.5067  -12.5050   18.2186 C   0  0  0  0  0  0
  -28.0231  -12.3525   18.6214 C   0  0  0  0  0  0
  -27.6577  -13.1855   19.8794 C   0  0  2  0  0  0
  -28.6962  -12.9586   21.0020 C   0  0  0  0  0  0
  -25.2572  -13.8088   20.5678 C   0  0  0  0  0  0
  -24.1790  -13.0388   20.9181 C   0  0  0  0  0  0
  -24.6321  -11.6871   20.8759 C   0  0  0  0  0  0
  -23.8984  -10.4278   21.0451 C   0  0  0  0  0  0
  -24.3554   -9.4201   21.9223 C   0  0  0  0  0  0
  -23.6248   -8.2218   22.0768 C   0  0  0  0  0  0
  -22.4225   -8.0254   21.3561 C   0  0  0  0  0  0
  -21.9881   -9.0216   20.4656 C   0  0  0  0  0  0
  -22.7183  -10.2108   20.3072 C   0  0  0  0  0  0
  -21.6827   -6.0742   22.5296 C   0  0  0  0  0  0
  -21.4000   -6.5657   23.8233 C   0  0  0  0  0  0
  -21.3620   -5.6800   24.9202 C   0  0  0  0  0  0
  -21.6012   -4.3056   24.7252 C   0  0  0  0  0  0
  -21.8808   -3.8163   23.4372 C   0  0  0  0  0  0
  -21.9192   -4.6982   22.3434 C   0  0  0  0  0  0
  -22.7840  -13.5230   21.1826 C   0  0  0  0  0  0
  -22.1671   -4.2175   21.1001 F   0  0  0  0  0  0
  -21.5619   -3.4532   25.7770 F   0  0  0  0  0  0
  -30.0193  -13.2878   20.4593 N   0  0  0  0  0  0
  -26.2969  -12.9209   20.3359 N   0  0  0  0  0  0
  -25.9239  -11.6400   20.5786 N   0  0  0  0  0  0
  -22.0441  -12.8229   22.0392 N   0  0  0  0  0  0
  -25.4323  -15.1802   20.4119 N   0  0  0  0  0  0
  -31.7763  -14.6676   20.1209 O   0  0  0  0  0  0
  -21.6585   -6.8856   21.4247 O   0  0  0  0  0  0
  -22.3581  -14.5565   20.6717 O   0  0  0  0  0  0
  -24.6113  -31.8682   23.2092 C   0  0  0  0  0  0
  -25.9006  -32.4821   23.8390 C   0  0  1  0  0  0
  -27.2597  -27.4823   20.0650 C   0  0  0  0  0  0
  -25.5887  -33.8623   24.2310 N   0  0  0  0  0  0
  -23.3995  -30.4873   21.5490 C   0  0  2  0  0  0
  -24.8529  -28.9502   20.1206 C   0  0  0  0  0  0
  -22.7382  -29.4660   22.4993 C   0  0  0  0  0  0
  -18.0272  -28.1379   22.8523 C   0  0  0  0  0  0
  -24.1494  -36.7318   23.2645 C   0  0  0  0  0  0
  -25.9251  -30.8405   21.3637 C   0  0  0  0  0  0
  -26.0078  -29.4774   20.7123 C   0  0  0  0  0  0
  -27.2140  -28.7457   20.6904 C   0  0  0  0  0  0
  -26.0879  -26.9484   19.4929 C   0  0  0  0  0  0
  -24.8847  -27.6802   19.5131 C   0  0  0  0  0  0
  -23.6086  -29.8088   20.1683 C   0  0  0  0  0  0
  -25.4132  -36.3112   24.0322 C   0  0  1  0  0  0
  -20.5850  -28.3684   23.1344 C   0  0  2  0  0  0
  -20.6745  -26.9421   22.5443 C   0  0  0  0  0  0
  -19.5728  -26.6391   21.5226 C   0  0  0  0  0  0
  -18.1899  -26.7945   22.1618 C   0  0  0  0  0  0
  -19.1518  -28.8857   23.2919 C   0  0  0  0  0  0
  -18.9429  -30.1458   23.8904 C   0  0  0  0  0  0
  -17.6448  -30.6587   24.0574 C   0  0  0  0  0  0
  -25.9055  -34.9473   23.5114 C   0  0  0  0  0  0
  -16.5350  -29.9101   23.6331 C   0  0  0  0  0  0
  -16.7253  -28.6509   23.0369 C   0  0  0  0  0  0
  -26.4448  -31.6617   25.0724 C   0  0  0  0  0  0
  -25.3731  -31.3691   26.1471 C   0  0  0  0  0  0
  -27.0315  -30.3081   24.6119 C   0  0  0  0  0  0
  -27.6008  -32.4355   25.7497 C   0  0  0  0  0  0
  -27.5592  -37.1820   24.8452 C   0  0  0  0  0  0
  -21.4111  -29.3050   22.3726 N   0  0  0  0  0  0
  -26.4309  -37.3803   23.9389 N   0  0  0  0  0  0
  -24.6626  -31.0797   22.0988 N   0  0  0  0  0  0
  -23.4139  -28.8230   23.3077 O   0  0  0  0  0  0
  -28.4275  -26.7603   20.0259 O   0  0  0  0  0  0
  -26.5617  -34.8919   22.4673 O   0  0  0  0  0  0
  -23.5311  -32.1407   23.7504 O   0  0  0  0  0  0
  -31.1379  -25.9978   20.4116 C   0  0  0  0  0  0
  -31.2231  -24.5597   19.8633 C   0  0  0  0  0  0
  -29.7360  -24.6712   17.7984 C   0  0  0  0  0  0
  -30.7587  -27.0982   19.4034 C   0  0  0  0  0  0
  -29.0674  -26.0690   17.7515 C   0  0  0  0  0  0
  -29.9445  -24.0105   19.1839 C   0  0  1  0  0  0
  -29.2976  -27.0466   18.9247 C   0  0  1  0  0  0
  -28.4738  -17.2627   18.8855 C   0  0  0  0  0  0
  -29.9126  -15.6954   21.2329 C   0  0  0  0  0  0
  -29.9820  -22.4485   19.0690 C   0  0  0  0  0  0
  -28.6746  -21.7851   19.5726 C   0  0  0  0  0  0
  -28.4490  -20.2695   19.3208 C   0  0  0  0  0  0
  -30.2752  -17.0862   20.6034 C   0  0  0  0  0  0
  -29.5969  -19.3015   19.7166 C   0  0  0  0  0  0
  -29.1499  -17.9076   20.0381 N   0  3  1  0  0  0
  -31.4778  -12.4377   19.1475 H   0  0  0  0  0  0
  -30.3550  -11.3065   19.8420 H   0  0  0  0  0  0
  -29.7673  -11.7939   17.4351 H   0  0  0  0  0  0
  -29.6711  -13.5004   17.8007 H   0  0  0  0  0  0
  -27.8355  -11.2946   18.8153 H   0  0  0  0  0  0
  -27.3824  -12.6265   17.7817 H   0  0  0  0  0  0
  -27.6970  -14.2275   19.5814 H   0  0  0  0  0  0
  -28.6870  -11.9114   21.3185 H   0  0  0  0  0  0
  -28.4549  -13.5251   21.9014 H   0  0  0  0  0  0
  -25.2680   -9.5705   22.4814 H   0  0  0  0  0  0
  -23.9971   -7.4608   22.7482 H   0  0  0  0  0  0
  -21.0827   -8.8730   19.8949 H   0  0  0  0  0  0
  -22.3640  -10.9656   19.6212 H   0  0  0  0  0  0
  -21.1978   -7.6163   23.9764 H   0  0  0  0  0  0
  -21.1442   -6.0528   25.9090 H   0  0  0  0  0  0
  -22.0606   -2.7628   23.2883 H   0  0  0  0  0  0
  -22.3984  -11.9884   22.4821 H   0  0  0  0  0  0
  -21.1116  -13.1358   22.2620 H   0  0  0  0  0  0
  -24.6601  -15.8310   20.5106 H   0  0  0  0  0  0
  -26.2742  -15.6189   20.0737 H   0  0  0  0  0  0
  -26.7099  -32.5565   23.1183 H   0  0  0  0  0  0
  -25.0061  -33.9796   25.0468 H   0  0  0  0  0  0
  -22.6878  -31.3025   21.4047 H   0  0  0  0  0  0
  -23.3749  -35.9659   23.3326 H   0  0  0  0  0  0
  -24.3569  -36.8921   22.2051 H   0  0  0  0  0  0
  -23.7250  -37.6529   23.6663 H   0  0  0  0  0  0
  -26.0350  -31.6105   20.5979 H   0  0  0  0  0  0
  -26.8103  -30.8927   21.9851 H   0  0  0  0  0  0
  -28.1089  -29.1492   21.1429 H   0  0  0  0  0  0
  -26.1166  -25.9735   19.0266 H   0  0  0  0  0  0
  -23.9946  -27.2636   19.0623 H   0  0  0  0  0  0
  -23.7110  -30.5760   19.4017 H   0  0  0  0  0  0
  -22.7373  -29.2180   19.8796 H   0  0  0  0  0  0
  -25.1315  -36.1984   25.0826 H   0  0  0  0  0  0
  -20.9948  -28.3260   24.1458 H   0  0  0  0  0  0
  -20.5675  -26.2293   23.3625 H   0  0  0  0  0  0
  -21.6609  -26.7456   22.1243 H   0  0  0  0  0  0
  -19.6897  -25.6300   21.1262 H   0  0  0  0  0  0
  -19.6680  -27.3191   20.6748 H   0  0  0  0  0  0
  -17.4195  -26.6764   21.3976 H   0  0  0  0  0  0
  -18.0247  -26.0046   22.8968 H   0  0  0  0  0  0
  -19.7909  -30.7282   24.2276 H   0  0  0  0  0  0
  -17.5000  -31.6266   24.5195 H   0  0  0  0  0  0
  -15.5349  -30.3021   23.7617 H   0  0  0  0  0  0
  -15.8661  -28.0823   22.7105 H   0  0  0  0  0  0
  -24.5917  -30.7025   25.7788 H   0  0  0  0  0  0
  -24.8901  -32.2844   26.4925 H   0  0  0  0  0  0
  -25.8117  -30.8860   27.0220 H   0  0  0  0  0  0
  -26.2872  -29.6832   24.1178 H   0  0  0  0  0  0
  -27.4085  -29.7329   25.4588 H   0  0  0  0  0  0
  -27.8692  -30.4399   23.9262 H   0  0  0  0  0  0
  -27.2591  -33.3619   26.2129 H   0  0  0  0  0  0
  -28.3790  -32.6997   25.0321 H   0  0  0  0  0  0
  -28.0724  -31.8470   26.5379 H   0  0  0  0  0  0
  -28.2607  -38.0118   24.7520 H   0  0  0  0  0  0
  -28.1092  -36.2650   24.6284 H   0  0  0  0  0  0
  -27.2291  -37.1479   25.8846 H   0  0  0  0  0  0
  -20.9275  -29.8797   21.6965 H   0  0  0  0  0  0
  -26.0196  -38.2875   24.1416 H   0  0  0  0  0  0
  -32.1144  -26.2564   20.8251 H   0  0  0  0  0  0
  -30.4562  -26.0306   21.2631 H   0  0  0  0  0  0
  -31.4647  -23.9281   20.7215 H   0  0  0  0  0  0
  -32.0774  -24.4715   19.1904 H   0  0  0  0  0  0
  -30.6989  -24.7215   17.2857 H   0  0  0  0  0  0
  -29.1274  -24.0176   17.1712 H   0  0  0  0  0  0
  -31.4385  -27.0930   18.5503 H   0  0  0  0  0  0
  -30.9151  -28.0621   19.8888 H   0  0  0  0  0  0
  -27.9966  -25.9569   17.5924 H   0  0  0  0  0  0
  -29.4248  -26.5602   16.8437 H   0  0  0  0  0  0
  -29.0953  -24.2645   19.8184 H   0  0  0  0  0  0
  -29.0640  -28.0431   18.5441 H   0  0  0  0  0  0
  -28.1073  -16.2755   19.1417 H   0  0  0  0  0  0
  -29.1426  -17.1567   18.0326 H   0  0  0  0  0  0
  -27.6035  -17.8384   18.5642 H   0  0  0  0  0  0
  -28.8303  -15.5685   21.2628 H   0  0  0  0  0  0
  -30.2206  -15.7003   22.2780 H   0  0  0  0  0  0
  -30.8144  -22.0442   19.6478 H   0  0  0  0  0  0
  -30.1902  -22.1521   18.0411 H   0  0  0  0  0  0
  -27.8288  -22.3105   19.1238 H   0  0  0  0  0  0
  -28.5952  -21.9711   20.6458 H   0  0  0  0  0  0
  -28.1886  -20.1139   18.2726 H   0  0  0  0  0  0
  -27.5516  -19.9993   19.8790 H   0  0  0  0  0  0
  -31.0327  -16.9852   19.8259 H   0  0  0  0  0  0
  -30.7482  -17.6713   21.3936 H   0  0  0  0  0  0
  -30.1264  -19.7075   20.5811 H   0  0  0  0  0  0
  -30.3224  -19.2642   18.8990 H   0  0  0  0  0  0
  -28.4531  -18.0025   20.7639 H   0  0  0  0  0  0
  1 25  1  0  0  0
  1 30  2  0  0  0
  1 79  1  0  0  0
  2  3  1  0  0  0
  2 25  1  0  0  0
  2 86  1  0  0  0
  2 87  1  0  0  0
  3  4  1  0  0  0
  3 88  1  0  0  0
  3 89  1  0  0  0
  4  5  1  0  0  0
  4 90  1  0  0  0
  4 91  1  0  0  0
  5  6  1  0  0  0
  5 26  1  0  0  0
  5 92  1  0  0  0
  6 25  1  0  0  0
  6 93  1  0  0  0
  6 94  1  0  0  0
  7  8  2  0  0  0
  7 26  1  0  0  0
  7 29  1  0  0  0
  8  9  1  0  0  0
  8 22  1  0  0  0
  9 10  1  0  0  0
  9 27  2  0  0  0
 10 11  2  0  0  0
 10 15  1  0  0  0
 11 12  1  0  0  0
 11 95  1  0  0  0
 12 13  2  0  0  0
 12 96  1  0  0  0
 13 14  1  0  0  0
 13 31  1  0  0  0
 14 15  2  0  0  0
 14 97  1  0  0  0
 15 98  1  0  0  0
 16 17  2  0  0  0
 16 21  1  0  0  0
 16 31  1  0  0  0
 17 18  1  0  0  0
 17 99  1  0  0  0
 18 19  2  0  0  0
 18100  1  0  0  0
 19 20  1  0  0  0
 19 24  1  0  0  0
 20 21  2  0  0  0
 20101  1  0  0  0
 21 23  1  0  0  0
 22 28  1  0  0  0
 22 32  2  0  0  0
 26 27  1  0  0  0
 28102  1  0  0  0
 28103  1  0  0  0
 29104  1  0  0  0
 29105  1  0  0  0
 33 34  1  0  0  0
 33 66  1  0  0  0
 33 70  2  0  0  0
 34 36  1  0  0  0
 34 59  1  0  0  0
 34106  1  0  0  0
 35 44  2  0  0  0
 35 45  1  0  0  0
 35 68  1  0  0  0
 36 56  1  0  0  0
 36107  1  0  0  0
 37 39  1  0  0  0
 37 47  1  0  0  0
 37 66  1  0  0  0
 37108  1  0  0  0
 38 43  2  0  0  0
 38 46  1  0  0  0
 38 47  1  0  0  0
 39 64  1  0  0  0
 39 67  2  0  0  0
 40 52  1  0  0  0
 40 53  2  0  0  0
 40 58  1  0  0  0
 41109  1  0  0  0
 41110  1  0  0  0
 41111  1  0  0  0
 41 48  1  0  0  0
 42 43  1  0  0  0
 42 66  1  0  0  0
 42112  1  0  0  0
 42113  1  0  0  0
 43 44  1  0  0  0
 44114  1  0  0  0
 45 46  2  0  0  0
 45115  1  0  0  0
 46116  1  0  0  0
 47117  1  0  0  0
 47118  1  0  0  0
 48 56  1  0  0  0
 48 65  1  0  0  0
 48119  1  0  0  0
 49 50  1  0  0  0
 49 53  1  0  0  0
 49 64  1  0  0  0
 49120  1  0  0  0
 50 51  1  0  0  0
 50121  1  0  0  0
 50122  1  0  0  0
 51 52  1  0  0  0
 51123  1  0  0  0
 51124  1  0  0  0
 52125  1  0  0  0
 52126  1  0  0  0
 53 54  1  0  0  0
 54 55  2  0  0  0
 54127  1  0  0  0
 55 57  1  0  0  0
 55128  1  0  0  0
 56 69  2  0  0  0
 57 58  2  0  0  0
 57129  1  0  0  0
 58130  1  0  0  0
 59 60  1  0  0  0
 59 61  1  0  0  0
 59 62  1  0  0  0
 60131  1  0  0  0
 60132  1  0  0  0
 60133  1  0  0  0
 61134  1  0  0  0
 61135  1  0  0  0
 61136  1  0  0  0
 62137  1  0  0  0
 62138  1  0  0  0
 62139  1  0  0  0
 63 65  1  0  0  0
 63140  1  0  0  0
 63141  1  0  0  0
 63142  1  0  0  0
 64143  1  0  0  0
 65144  1  0  0  0
 68 77  1  0  0  0
 71 72  1  0  0  0
 71 74  1  0  0  0
 71145  1  0  0  0
 71146  1  0  0  0
 72 76  1  0  0  0
 72147  1  0  0  0
 72148  1  0  0  0
 73 75  1  0  0  0
 73 76  1  0  0  0
 73149  1  0  0  0
 73150  1  0  0  0
 74 77  1  0  0  0
 74151  1  0  0  0
 74152  1  0  0  0
 75 77  1  0  0  0
 75153  1  0  0  0
 75154  1  0  0  0
 76 80  1  0  0  0
 76155  1  0  0  0
 77156  1  0  0  0
 78157  1  0  0  0
 78158  1  0  0  0
 78159  1  0  0  0
 78 85  1  0  0  0
 79 83  1  0  0  0
 79160  1  0  0  0
 79161  1  0  0  0
 80 81  1  0  0  0
 80162  1  0  0  0
 80163  1  0  0  0
 81 82  1  0  0  0
 81164  1  0  0  0
 81165  1  0  0  0
 82 84  1  0  0  0
 82166  1  0  0  0
 82167  1  0  0  0
 83 85  1  0  0  0
 83168  1  0  0  0
 83169  1  0  0  0
 84 85  1  0  0  0
 84170  1  0  0  0
 84171  1  0  0  0
 85172  1  0  0  0
M  CHG  1  85   1
M  ISO  4   1 100  68 101  77 101  79 100
M  END
> <chiral flag>
0

> <version>
0

> <s_m_source_file>
/data/baiqing/PycharmProjects/Reinvent-master-3.2/result/LINK_invent/BTK/process_docking_weight1_custom_sum_contain_oxygen_bond_distance_aromatic_linkinvent_7_9_3/rearranged_h_0042.sdf

> <i_m_source_file_index>
87

> <r_mmod_Potential_Energy-OPLS-2005>
-65.0346603393555

> <r_mmod_Stretch_Energy-OPLS-2005>
40.2605514526367

> <r_mmod_Bend_Energy-OPLS-2005>
118.859344482422

> <r_mmod_Torsional_Energy-OPLS-2005>
264.053619384766

> <r_mmod_Improper_Torsional_Energy-OPLS-2005>
2.67614078521729

> <r_mmod_Van_der_Waal_Energy-OPLS-2005>
133.147857666016

> <r_mmod_Electrostatic_Energy-OPLS-2005>
-215.6455078125

> <r_mmod_Solvation_Energy-OPLS-2005>
-420.494415283203

> <b_mmod_Minimization_Converged-OPLS-2005>
0

> <r_mmod_RMS_Derivative-OPLS-2005>
4.91738796234131

$$$$
89
                    3D
 Structure written by MMmdl.
169177  0  0  1  0            999 V2000
  -30.6027  -14.7180   20.4145 C   0  0  0  0  0  0
  -30.4450  -12.4329   19.4279 C   0  0  0  0  0  0
  -29.5044  -12.4984   18.2080 C   0  0  0  0  0  0
  -28.0304  -12.3434   18.6344 C   0  0  0  0  0  0
  -27.6537  -13.2233   19.8565 C   0  0  2  0  0  0
  -28.7109  -13.1317   20.9765 C   0  0  0  0  0  0
  -25.2623  -13.8203   20.5662 C   0  0  0  0  0  0
  -24.1880  -13.0470   20.9212 C   0  0  0  0  0  0
  -24.6466  -11.6940   20.8789 C   0  0  0  0  0  0
  -23.9170  -10.4285   21.0431 C   0  0  0  0  0  0
  -24.3678   -9.4184   21.9211 C   0  0  0  0  0  0
  -23.6317   -8.2230   22.0778 C   0  0  0  0  0  0
  -22.4296   -8.0316   21.3565 C   0  0  0  0  0  0
  -21.9971   -9.0295   20.4666 C   0  0  0  0  0  0
  -22.7340  -10.2147   20.3091 C   0  0  0  0  0  0
  -21.6891   -6.0774   22.5274 C   0  0  0  0  0  0
  -21.3997   -6.5660   23.8193 C   0  0  0  0  0  0
  -21.3648   -5.6806   24.9150 C   0  0  0  0  0  0
  -21.6061   -4.3072   24.7196 C   0  0  0  0  0  0
  -21.8831   -3.8182   23.4315 C   0  0  0  0  0  0
  -21.9179   -4.7009   22.3382 C   0  0  0  0  0  0
  -22.7887  -13.5250   21.1815 C   0  0  0  0  0  0
  -22.1678   -4.2205   21.0960 F   0  0  0  0  0  0
  -21.5633   -3.4532   25.7695 F   0  0  0  0  0  0
  -30.0033  -13.4799   20.3707 N   0  0  0  0  0  0
  -26.3041  -12.9384   20.3314 N   0  0  0  0  0  0
  -25.9394  -11.6560   20.5825 N   0  0  0  0  0  0
  -22.0544  -12.8199   22.0369 N   0  0  0  0  0  0
  -25.4336  -15.1905   20.4013 N   0  0  0  0  0  0
  -31.8026  -14.8387   20.1576 O   0  0  0  0  0  0
  -21.6664   -6.8922   21.4249 O   0  0  0  0  0  0
  -22.3585  -14.5555   20.6713 O   0  0  0  0  0  0
  -24.6260  -31.8498   23.1997 C   0  0  0  0  0  0
  -25.9164  -32.4698   23.8230 C   0  0  1  0  0  0
  -27.1891  -27.2679   20.0905 C   0  0  0  0  0  0
  -25.5984  -33.8512   24.2137 N   0  0  0  0  0  0
  -23.4154  -30.4723   21.5485 C   0  0  2  0  0  0
  -24.8583  -28.9445   20.0891 C   0  0  0  0  0  0
  -22.7432  -29.4446   22.4900 C   0  0  0  0  0  0
  -18.0212  -28.1323   22.8411 C   0  0  0  0  0  0
  -24.1544  -36.7268   23.2643 C   0  0  0  0  0  0
  -25.9627  -30.7620   21.3825 C   0  0  0  0  0  0
  -26.0388  -29.3950   20.7013 C   0  0  0  0  0  0
  -27.2129  -28.5743   20.6925 C   0  0  0  0  0  0
  -25.9862  -26.8800   19.4698 C   0  0  0  0  0  0
  -24.8468  -27.6933   19.4519 C   0  0  0  0  0  0
  -23.6248  -29.8271   20.1547 C   0  0  0  0  0  0
  -25.4187  -36.2996   24.0278 C   0  0  1  0  0  0
  -20.5817  -28.3572   23.1312 C   0  0  2  0  0  0
  -20.6737  -26.9293   22.5456 C   0  0  0  0  0  0
  -19.5758  -26.6306   21.5219 C   0  0  0  0  0  0
  -18.1883  -26.7861   22.1575 C   0  0  0  0  0  0
  -19.1472  -28.8774   23.2822 C   0  0  0  0  0  0
  -18.9446  -30.1375   23.8830 C   0  0  0  0  0  0
  -17.6465  -30.6533   24.0470 C   0  0  0  0  0  0
  -25.9155  -34.9413   23.5017 C   0  0  0  0  0  0
  -16.5332  -29.8992   23.6376 C   0  0  0  0  0  0
  -16.7213  -28.6451   23.0304 C   0  0  0  0  0  0
  -26.4539  -31.6491   25.0608 C   0  0  0  0  0  0
  -25.3700  -31.3690   26.1301 C   0  0  0  0  0  0
  -27.0370  -30.2843   24.6132 C   0  0  0  0  0  0
  -27.6038  -32.4268   25.7391 C   0  0  0  0  0  0
  -27.5578  -37.1769   24.8469 C   0  0  0  0  0  0
  -21.4143  -29.2888   22.3684 N   0  0  0  0  0  0
  -26.4329  -37.3728   23.9394 N   0  0  0  0  0  0
  -24.6872  -31.0404   22.1011 N   0  0  0  0  0  0
  -23.4162  -28.7952   23.2953 O   0  0  0  0  0  0
  -28.2598  -26.3531   20.0542 O   0  0  0  0  0  0
  -26.5775  -34.8889   22.4606 O   0  0  0  0  0  0
  -23.5441  -32.1358   23.7299 O   0  0  0  0  0  0
  -30.7803  -20.6467   21.0718 C   0  0  0  0  0  0
  -29.5887  -20.9877   20.4004 C   0  0  0  0  0  0
  -31.1208  -21.6537   21.9066 C   0  0  0  0  0  0
  -29.3828  -22.3870   20.6182 C   0  0  0  0  0  0
  -32.2619  -21.6929   22.8623 C   0  0  0  0  0  0
  -28.8397  -24.9391   24.5542 C   0  0  0  0  0  0
  -28.7277  -22.4212   24.4093 C   0  0  0  0  0  0
  -28.8787  -19.8452   19.6019 C   0  0  0  0  0  0
  -28.5874  -23.5571   19.8600 C   0  0  0  0  0  0
  -29.4162  -18.2891   19.5027 C   0  0  0  0  0  0
  -30.1032  -23.8029   22.6666 C   0  0  0  0  0  0
  -30.0180  -17.3259   20.6509 C   0  0  0  0  0  0
  -27.9776  -24.9450   20.4883 C   0  0  0  0  0  0
  -28.8590  -23.7320   23.6050 C   0  0  0  0  0  0
  -30.1806  -22.6617   21.7532 N   0  0  0  0  0  0
  -29.7730  -15.8175   20.5381 N   0  0  0  0  0  0
  -31.4790  -12.5656   19.1009 H   0  0  0  0  0  0
  -30.3993  -11.4473   19.8902 H   0  0  0  0  0  0
  -29.7583  -11.7078   17.5022 H   0  0  0  0  0  0
  -29.6477  -13.4439   17.6834 H   0  0  0  0  0  0
  -27.8652  -11.2913   18.8695 H   0  0  0  0  0  0
  -27.3692  -12.5666   17.7971 H   0  0  0  0  0  0
  -27.6547  -14.2510   19.4974 H   0  0  0  0  0  0
  -28.7414  -12.1308   21.4133 H   0  0  0  0  0  0
  -28.4619  -13.8077   21.7946 H   0  0  0  0  0  0
  -25.2837   -9.5631   22.4764 H   0  0  0  0  0  0
  -24.0049   -7.4628   22.7487 H   0  0  0  0  0  0
  -21.0909   -8.8849   19.8930 H   0  0  0  0  0  0
  -22.3866  -10.9704   19.6186 H   0  0  0  0  0  0
  -21.1986   -7.6154   23.9712 H   0  0  0  0  0  0
  -21.1474   -6.0518   25.9049 H   0  0  0  0  0  0
  -22.0616   -2.7649   23.2777 H   0  0  0  0  0  0
  -22.4221  -11.9849   22.4661 H   0  0  0  0  0  0
  -21.1174  -13.1226   22.2627 H   0  0  0  0  0  0
  -24.6703  -15.8493   20.5054 H   0  0  0  0  0  0
  -26.2761  -15.6215   20.0407 H   0  0  0  0  0  0
  -26.7151  -32.5236   23.0868 H   0  0  0  0  0  0
  -24.9969  -33.9686   25.0155 H   0  0  0  0  0  0
  -22.7090  -31.2947   21.4169 H   0  0  0  0  0  0
  -23.3796  -35.9594   23.3331 H   0  0  0  0  0  0
  -24.3643  -36.8930   22.2061 H   0  0  0  0  0  0
  -23.7332  -37.6472   23.6707 H   0  0  0  0  0  0
  -26.1268  -31.5459   20.6383 H   0  0  0  0  0  0
  -26.8325  -30.7833   22.0275 H   0  0  0  0  0  0
  -28.0992  -28.9121   21.2112 H   0  0  0  0  0  0
  -25.9157  -25.9059   19.0024 H   0  0  0  0  0  0
  -23.9617  -27.3440   18.9341 H   0  0  0  0  0  0
  -23.7023  -30.6245   19.4147 H   0  0  0  0  0  0
  -22.7481  -29.2477   19.8573 H   0  0  0  0  0  0
  -25.1367  -36.1834   25.0757 H   0  0  0  0  0  0
  -20.9835  -28.3163   24.1473 H   0  0  0  0  0  0
  -20.5723  -26.2071   23.3570 H   0  0  0  0  0  0
  -21.6579  -26.7361   22.1189 H   0  0  0  0  0  0
  -19.6992  -25.6252   21.1165 H   0  0  0  0  0  0
  -19.6828  -27.3165   20.6803 H   0  0  0  0  0  0
  -17.4176  -26.6527   21.3953 H   0  0  0  0  0  0
  -18.0266  -26.0049   22.9022 H   0  0  0  0  0  0
  -19.7978  -30.7133   24.2125 H   0  0  0  0  0  0
  -17.5085  -31.6218   24.5055 H   0  0  0  0  0  0
  -15.5363  -30.2849   23.7810 H   0  0  0  0  0  0
  -15.8589  -28.0781   22.7005 H   0  0  0  0  0  0
  -24.5969  -30.6923   25.7611 H   0  0  0  0  0  0
  -24.8802  -32.2874   26.4536 H   0  0  0  0  0  0
  -25.7989  -30.8989   27.0157 H   0  0  0  0  0  0
  -26.2912  -29.6591   24.1183 H   0  0  0  0  0  0
  -27.4063  -29.7105   25.4659 H   0  0  0  0  0  0
  -27.8781  -30.4039   23.9296 H   0  0  0  0  0  0
  -27.2575  -33.3623   26.1784 H   0  0  0  0  0  0
  -28.3873  -32.6842   25.0237 H   0  0  0  0  0  0
  -28.0605  -31.8527   26.5461 H   0  0  0  0  0  0
  -28.2538  -38.0098   24.7511 H   0  0  0  0  0  0
  -28.1131  -36.2640   24.6309 H   0  0  0  0  0  0
  -27.2327  -37.1424   25.8873 H   0  0  0  0  0  0
  -20.9270  -29.8812   21.7107 H   0  0  0  0  0  0
  -26.0228  -38.2780   24.1374 H   0  0  0  0  0  0
  -31.3014  -19.7047   21.0005 H   0  0  0  0  0  0
  -32.8102  -22.6334   22.8019 H   0  0  0  0  0  0
  -32.9658  -20.9027   22.6127 H   0  0  0  0  0  0
  -31.9316  -21.5305   23.8890 H   0  0  0  0  0  0
  -27.9131  -24.9985   25.1228 H   0  0  0  0  0  0
  -28.9582  -25.8846   24.0291 H   0  0  0  0  0  0
  -29.6615  -24.8744   25.2676 H   0  0  0  0  0  0
  -27.7992  -22.4168   24.9860 H   0  0  0  0  0  0
  -29.5612  -22.2819   25.0997 H   0  0  0  0  0  0
  -28.6918  -21.5440   23.7609 H   0  0  0  0  0  0
  -28.7836  -20.2217   18.5816 H   0  0  0  0  0  0
  -27.8645  -19.8191   19.9990 H   0  0  0  0  0  0
  -27.7286  -23.0628   19.4013 H   0  0  0  0  0  0
  -29.1920  -23.8539   18.9987 H   0  0  0  0  0  0
  -30.1642  -18.2592   18.7041 H   0  0  0  0  0  0
  -28.5657  -17.7375   19.0911 H   0  0  0  0  0  0
  -30.9886  -23.8278   23.3053 H   0  0  0  0  0  0
  -30.1922  -24.7220   22.0915 H   0  0  0  0  0  0
  -29.6228  -17.6355   21.6203 H   0  0  0  0  0  0
  -31.0954  -17.4843   20.7155 H   0  0  0  0  0  0
  -28.2630  -25.0679   21.5066 H   0  0  0  0  0  0
  -26.9038  -24.7772   20.5973 H   0  0  0  0  0  0
  -27.9536  -23.7636   22.9960 H   0  0  0  0  0  0
  -28.8032  -15.5544   20.6269 H   0  0  0  0  0  0
  1 25  1  0  0  0
  1 30  2  0  0  0
  1 86  1  0  0  0
  2  3  1  0  0  0
  2 25  1  0  0  0
  2 87  1  0  0  0
  2 88  1  0  0  0
  3  4  1  0  0  0
  3 89  1  0  0  0
  3 90  1  0  0  0
  4  5  1  0  0  0
  4 91  1  0  0  0
  4 92  1  0  0  0
  5  6  1  0  0  0
  5 26  1  0  0  0
  5 93  1  0  0  0
  6 25  1  0  0  0
  6 94  1  0  0  0
  6 95  1  0  0  0
  7  8  2  0  0  0
  7 26  1  0  0  0
  7 29  1  0  0  0
  8  9  1  0  0  0
  8 22  1  0  0  0
  9 10  1  0  0  0
  9 27  2  0  0  0
 10 11  2  0  0  0
 10 15  1  0  0  0
 11 12  1  0  0  0
 11 96  1  0  0  0
 12 13  2  0  0  0
 12 97  1  0  0  0
 13 14  1  0  0  0
 13 31  1  0  0  0
 14 15  2  0  0  0
 14 98  1  0  0  0
 15 99  1  0  0  0
 16 17  2  0  0  0
 16 21  1  0  0  0
 16 31  1  0  0  0
 17 18  1  0  0  0
 17100  1  0  0  0
 18 19  2  0  0  0
 18101  1  0  0  0
 19 20  1  0  0  0
 19 24  1  0  0  0
 20 21  2  0  0  0
 20102  1  0  0  0
 21 23  1  0  0  0
 22 28  1  0  0  0
 22 32  2  0  0  0
 26 27  1  0  0  0
 28103  1  0  0  0
 28104  1  0  0  0
 29105  1  0  0  0
 29106  1  0  0  0
 33 34  1  0  0  0
 33 66  1  0  0  0
 33 70  2  0  0  0
 34 36  1  0  0  0
 34 59  1  0  0  0
 34107  1  0  0  0
 35 44  2  0  0  0
 35 45  1  0  0  0
 35 68  1  0  0  0
 36 56  1  0  0  0
 36108  1  0  0  0
 37 39  1  0  0  0
 37 47  1  0  0  0
 37 66  1  0  0  0
 37109  1  0  0  0
 38 43  2  0  0  0
 38 46  1  0  0  0
 38 47  1  0  0  0
 39 64  1  0  0  0
 39 67  2  0  0  0
 40 52  1  0  0  0
 40 53  2  0  0  0
 40 58  1  0  0  0
 41110  1  0  0  0
 41111  1  0  0  0
 41112  1  0  0  0
 41 48  1  0  0  0
 42 43  1  0  0  0
 42 66  1  0  0  0
 42113  1  0  0  0
 42114  1  0  0  0
 43 44  1  0  0  0
 44115  1  0  0  0
 45 46  2  0  0  0
 45116  1  0  0  0
 46117  1  0  0  0
 47118  1  0  0  0
 47119  1  0  0  0
 48 56  1  0  0  0
 48 65  1  0  0  0
 48120  1  0  0  0
 49 50  1  0  0  0
 49 53  1  0  0  0
 49 64  1  0  0  0
 49121  1  0  0  0
 50 51  1  0  0  0
 50122  1  0  0  0
 50123  1  0  0  0
 51 52  1  0  0  0
 51124  1  0  0  0
 51125  1  0  0  0
 52126  1  0  0  0
 52127  1  0  0  0
 53 54  1  0  0  0
 54 55  2  0  0  0
 54128  1  0  0  0
 55 57  1  0  0  0
 55129  1  0  0  0
 56 69  2  0  0  0
 57 58  2  0  0  0
 57130  1  0  0  0
 58131  1  0  0  0
 59 60  1  0  0  0
 59 61  1  0  0  0
 59 62  1  0  0  0
 60132  1  0  0  0
 60133  1  0  0  0
 60134  1  0  0  0
 61135  1  0  0  0
 61136  1  0  0  0
 61137  1  0  0  0
 62138  1  0  0  0
 62139  1  0  0  0
 62140  1  0  0  0
 63 65  1  0  0  0
 63141  1  0  0  0
 63142  1  0  0  0
 63143  1  0  0  0
 64144  1  0  0  0
 65145  1  0  0  0
 68 83  1  0  0  0
 71 72  1  0  0  0
 71 73  2  0  0  0
 71146  1  0  0  0
 72 74  2  0  0  0
 72 78  1  0  0  0
 73 75  1  0  0  0
 73 85  1  0  0  0
 74 79  1  0  0  0
 74 85  1  0  0  0
 75147  1  0  0  0
 75148  1  0  0  0
 75149  1  0  0  0
 76150  1  0  0  0
 76151  1  0  0  0
 76152  1  0  0  0
 76 84  1  0  0  0
 77 84  1  0  0  0
 77153  1  0  0  0
 77154  1  0  0  0
 77155  1  0  0  0
 78 80  1  0  0  0
 78156  1  0  0  0
 78157  1  0  0  0
 79 83  1  0  0  0
 79158  1  0  0  0
 79159  1  0  0  0
 80 82  1  0  0  0
 80160  1  0  0  0
 80161  1  0  0  0
 81 84  1  0  0  0
 81 85  1  0  0  0
 81162  1  0  0  0
 81163  1  0  0  0
 82 86  1  0  0  0
 82164  1  0  0  0
 82165  1  0  0  0
 83166  1  0  0  0
 83167  1  0  0  0
 84168  1  0  0  0
 86169  1  0  0  0
M  ISO  4   1 100  68 101  83 101  86 100
M  END
> <chiral flag>
0

> <version>
0

> <s_m_source_file>
/data/baiqing/PycharmProjects/Reinvent-master-3.2/result/LINK_invent/BTK/process_docking_weight1_custom_sum_contain_oxygen_bond_distance_aromatic_linkinvent_7_9_3/rearranged_h_0042.sdf

> <i_m_source_file_index>
88

> <r_mmod_Potential_Energy-OPLS-2005>
314.301330566406

> <r_mmod_Stretch_Energy-OPLS-2005>
141.343383789062

> <r_mmod_Bend_Energy-OPLS-2005>
243.976699829102

> <r_mmod_Torsional_Energy-OPLS-2005>
297.878692626953

> <r_mmod_Improper_Torsional_Energy-OPLS-2005>
5.35186386108398

> <r_mmod_Van_der_Waal_Energy-OPLS-2005>
128.023635864258

> <r_mmod_Electrostatic_Energy-OPLS-2005>
-374.895050048828

> <r_mmod_Solvation_Energy-OPLS-2005>
-208.330703735352

> <b_mmod_Minimization_Converged-OPLS-2005>
0

> <r_mmod_RMS_Derivative-OPLS-2005>
10.3343257904053

$$$$
90
                    3D
 Structure written by MMmdl.
154162  0  0  1  0            999 V2000
  -30.6147  -14.7273   20.4757 C   0  0  0  0  0  0
  -30.4364  -12.4472   19.4598 C   0  0  0  0  0  0
  -29.5086  -12.4884   18.2272 C   0  0  0  0  0  0
  -28.0366  -12.3055   18.6439 C   0  0  0  0  0  0
  -27.6355  -13.2212   19.8311 C   0  0  2  0  0  0
  -28.6804  -13.1637   20.9665 C   0  0  0  0  0  0
  -25.2474  -13.8188   20.5619 C   0  0  0  0  0  0
  -24.1759  -13.0453   20.9202 C   0  0  0  0  0  0
  -24.6327  -11.6922   20.8731 C   0  0  0  0  0  0
  -23.9002  -10.4303   21.0430 C   0  0  0  0  0  0
  -24.3590   -9.4222   21.9203 C   0  0  0  0  0  0
  -23.6308   -8.2231   22.0767 C   0  0  0  0  0  0
  -22.4288   -8.0245   21.3543 C   0  0  0  0  0  0
  -21.9900   -9.0213   20.4643 C   0  0  0  0  0  0
  -22.7196  -10.2102   20.3065 C   0  0  0  0  0  0
  -21.6843   -6.0725   22.5294 C   0  0  0  0  0  0
  -21.4004   -6.5654   23.8221 C   0  0  0  0  0  0
  -21.3645   -5.6806   24.9192 C   0  0  0  0  0  0
  -21.6055   -4.3070   24.7231 C   0  0  0  0  0  0
  -21.8825   -3.8141   23.4356 C   0  0  0  0  0  0
  -21.9181   -4.6956   22.3400 C   0  0  0  0  0  0
  -22.7775  -13.5235   21.1871 C   0  0  0  0  0  0
  -22.1651   -4.2153   21.0973 F   0  0  0  0  0  0
  -21.5623   -3.4543   25.7734 F   0  0  0  0  0  0
  -29.9824  -13.5089   20.3825 N   0  0  0  0  0  0
  -26.2880  -12.9366   20.3166 N   0  0  0  0  0  0
  -25.9249  -11.6528   20.5726 N   0  0  0  0  0  0
  -22.0371  -12.8250   22.0419 N   0  0  0  0  0  0
  -25.4149  -15.1926   20.3998 N   0  0  0  0  0  0
  -31.8181  -14.8273   20.2253 O   0  0  0  0  0  0
  -21.6630   -6.8860   21.4249 O   0  0  0  0  0  0
  -22.3447  -14.5523   20.6686 O   0  0  0  0  0  0
  -24.6380  -31.8513   23.1912 C   0  0  0  0  0  0
  -25.9252  -32.4671   23.8247 C   0  0  1  0  0  0
  -27.2161  -27.2532   20.1211 C   0  0  0  0  0  0
  -25.6085  -33.8468   24.2211 N   0  0  0  0  0  0
  -23.4286  -30.4813   21.5305 C   0  0  2  0  0  0
  -24.8708  -28.9284   20.0976 C   0  0  0  0  0  0
  -22.7467  -29.4682   22.4822 C   0  0  0  0  0  0
  -18.0302  -28.1399   22.8463 C   0  0  0  0  0  0
  -24.1542  -36.7230   23.2621 C   0  0  0  0  0  0
  -25.9753  -30.7635   21.3719 C   0  0  0  0  0  0
  -26.0417  -29.3892   20.7086 C   0  0  0  0  0  0
  -27.2149  -28.5659   20.7079 C   0  0  0  0  0  0
  -26.0170  -26.8699   19.4743 C   0  0  0  0  0  0
  -24.8662  -27.6761   19.4660 C   0  0  0  0  0  0
  -23.6404  -29.8101   20.1491 C   0  0  0  0  0  0
  -25.4165  -36.2980   24.0303 C   0  0  1  0  0  0
  -20.5905  -28.3734   23.1187 C   0  0  2  0  0  0
  -20.6827  -26.9441   22.5352 C   0  0  0  0  0  0
  -19.5819  -26.6401   21.5160 C   0  0  0  0  0  0
  -18.1978  -26.7963   22.1548 C   0  0  0  0  0  0
  -19.1548  -28.8881   23.2825 C   0  0  0  0  0  0
  -18.9471  -30.1481   23.8849 C   0  0  0  0  0  0
  -17.6472  -30.6569   24.0576 C   0  0  0  0  0  0
  -25.9121  -34.9374   23.5022 C   0  0  0  0  0  0
  -16.5361  -29.9066   23.6375 C   0  0  0  0  0  0
  -16.7290  -28.6493   23.0380 C   0  0  0  0  0  0
  -26.4643  -31.6466   25.0613 C   0  0  0  0  0  0
  -25.3887  -31.3618   26.1335 C   0  0  0  0  0  0
  -27.0537  -30.2872   24.6164 C   0  0  0  0  0  0
  -27.6209  -32.4192   25.7373 C   0  0  0  0  0  0
  -27.5590  -37.1746   24.8441 C   0  0  0  0  0  0
  -21.4183  -29.3079   22.3545 N   0  0  0  0  0  0
  -26.4299  -37.3714   23.9384 N   0  0  0  0  0  0
  -24.6989  -31.0528   22.0856 N   0  0  0  0  0  0
  -23.4159  -28.8314   23.3000 O   0  0  0  0  0  0
  -28.3241  -26.3728   20.2288 O   0  0  0  0  0  0
  -26.5602  -34.8860   22.4528 O   0  0  0  0  0  0
  -23.5551  -32.1348   23.7225 O   0  0  0  0  0  0
  -28.6758  -22.3303   20.0231 C   0  0  0  0  0  0
  -29.0030  -21.2114   20.8676 C   0  0  0  0  0  0
  -28.6844  -23.6768   20.5413 C   0  0  0  0  0  0
  -29.2892  -22.7582   22.5704 C   0  0  0  0  0  0
  -29.5280  -22.9938   24.0478 C   0  0  0  0  0  0
  -28.7554  -19.6672   20.5296 C   0  0  0  0  0  0
  -28.3454  -24.9712   19.6701 C   0  0  0  0  0  0
  -29.8977  -18.5778   20.1795 C   0  0  0  0  0  0
  -30.2034  -17.2715   21.0902 C   0  0  0  0  0  0
  -29.3223  -21.4874   22.1479 N   0  0  0  0  0  0
  -28.9961  -23.8402   21.8446 N   0  0  0  0  0  0
  -29.8300  -15.8516   20.6637 N   0  0  0  0  0  0
  -31.4742  -12.5852   19.1521 H   0  0  0  0  0  0
  -30.3926  -11.4700   19.9468 H   0  0  0  0  0  0
  -29.8003  -11.7160   17.5154 H   0  0  0  0  0  0
  -29.6232  -13.4388   17.7066 H   0  0  0  0  0  0
  -27.9089  -11.2615   18.9316 H   0  0  0  0  0  0
  -27.3745  -12.4603   17.7917 H   0  0  0  0  0  0
  -27.6309  -14.2353   19.4313 H   0  0  0  0  0  0
  -28.7123  -12.1712   21.4226 H   0  0  0  0  0  0
  -28.4102  -13.8540   21.7655 H   0  0  0  0  0  0
  -25.2740   -9.5726   22.4764 H   0  0  0  0  0  0
  -24.0027   -7.4644   22.7504 H   0  0  0  0  0  0
  -21.0834   -8.8711   19.8972 H   0  0  0  0  0  0
  -22.3664  -10.9618   19.6153 H   0  0  0  0  0  0
  -21.1994   -7.6168   23.9732 H   0  0  0  0  0  0
  -21.1463   -6.0530   25.9102 H   0  0  0  0  0  0
  -22.0603   -2.7610   23.2836 H   0  0  0  0  0  0
  -22.3939  -11.9943   22.4896 H   0  0  0  0  0  0
  -21.0962  -13.1270   22.2499 H   0  0  0  0  0  0
  -24.6457  -15.8452   20.5186 H   0  0  0  0  0  0
  -26.2558  -15.6361   20.0532 H   0  0  0  0  0  0
  -26.7316  -32.5325   23.0981 H   0  0  0  0  0  0
  -25.0529  -33.9605   25.0567 H   0  0  0  0  0  0
  -22.7278  -31.3052   21.3807 H   0  0  0  0  0  0
  -23.3795  -35.9563   23.3204 H   0  0  0  0  0  0
  -24.3690  -36.8935   22.2057 H   0  0  0  0  0  0
  -23.7285  -37.6402   23.6705 H   0  0  0  0  0  0
  -26.1222  -31.5356   20.6154 H   0  0  0  0  0  0
  -26.8497  -30.7921   22.0109 H   0  0  0  0  0  0
  -28.1094  -28.9209   21.1962 H   0  0  0  0  0  0
  -25.8992  -25.9206   18.9796 H   0  0  0  0  0  0
  -23.9704  -27.3132   18.9753 H   0  0  0  0  0  0
  -23.7400  -30.5748   19.3785 H   0  0  0  0  0  0
  -22.7620  -29.2299   19.8632 H   0  0  0  0  0  0
  -25.1331  -36.1798   25.0795 H   0  0  0  0  0  0
  -21.0015  -28.3349   24.1307 H   0  0  0  0  0  0
  -20.5730  -26.2349   23.3572 H   0  0  0  0  0  0
  -21.6710  -26.7514   22.1162 H   0  0  0  0  0  0
  -19.6984  -25.6300   21.1222 H   0  0  0  0  0  0
  -19.6786  -27.3187   20.6674 H   0  0  0  0  0  0
  -17.4289  -26.6739   21.3904 H   0  0  0  0  0  0
  -18.0343  -26.0058   22.8886 H   0  0  0  0  0  0
  -19.7949  -30.7311   24.2157 H   0  0  0  0  0  0
  -17.5039  -31.6247   24.5166 H   0  0  0  0  0  0
  -15.5358  -30.2957   23.7722 H   0  0  0  0  0  0
  -15.8710  -28.0802   22.7112 H   0  0  0  0  0  0
  -24.6129  -30.6880   25.7668 H   0  0  0  0  0  0
  -24.9029  -32.2792   26.4639 H   0  0  0  0  0  0
  -25.8253  -30.8892   27.0144 H   0  0  0  0  0  0
  -26.3137  -29.6452   24.1380 H   0  0  0  0  0  0
  -27.4407  -29.7269   25.4681 H   0  0  0  0  0  0
  -27.8916  -30.4049   23.9295 H   0  0  0  0  0  0
  -27.2883  -33.3573   26.1801 H   0  0  0  0  0  0
  -28.4118  -32.6578   25.0250 H   0  0  0  0  0  0
  -28.0776  -31.8386   26.5399 H   0  0  0  0  0  0
  -28.2526  -38.0116   24.7584 H   0  0  0  0  0  0
  -28.1168  -36.2652   24.6163 H   0  0  0  0  0  0
  -27.2321  -37.1248   25.8841 H   0  0  0  0  0  0
  -20.9329  -29.8700   21.6691 H   0  0  0  0  0  0
  -26.0137  -38.2747   24.1463 H   0  0  0  0  0  0
  -28.3779  -22.1707   18.9950 H   0  0  0  0  0  0
  -29.9634  -22.1211   24.5388 H   0  0  0  0  0  0
  -28.5864  -23.2179   24.5482 H   0  0  0  0  0  0
  -30.1981  -23.8415   24.1988 H   0  0  0  0  0  0
  -28.0741  -19.6829   19.6803 H   0  0  0  0  0  0
  -28.1460  -19.2514   21.3306 H   0  0  0  0  0  0
  -27.4677  -24.7092   19.0895 H   0  0  0  0  0  0
  -29.1458  -24.9881   18.9271 H   0  0  0  0  0  0
  -30.8305  -19.1273   20.0525 H   0  0  0  0  0  0
  -29.6852  -18.2068   19.1765 H   0  0  0  0  0  0
  -29.7508  -17.4244   22.0705 H   0  0  0  0  0  0
  -31.2786  -17.2654   21.2942 H   0  0  0  0  0  0
  -28.8417  -15.6527   20.6800 H   0  0  0  0  0  0
  1 25  1  0  0  0
  1 30  2  0  0  0
  1 82  1  0  0  0
  2  3  1  0  0  0
  2 25  1  0  0  0
  2 83  1  0  0  0
  2 84  1  0  0  0
  3  4  1  0  0  0
  3 85  1  0  0  0
  3 86  1  0  0  0
  4  5  1  0  0  0
  4 87  1  0  0  0
  4 88  1  0  0  0
  5  6  1  0  0  0
  5 26  1  0  0  0
  5 89  1  0  0  0
  6 25  1  0  0  0
  6 90  1  0  0  0
  6 91  1  0  0  0
  7  8  2  0  0  0
  7 26  1  0  0  0
  7 29  1  0  0  0
  8  9  1  0  0  0
  8 22  1  0  0  0
  9 10  1  0  0  0
  9 27  2  0  0  0
 10 11  2  0  0  0
 10 15  1  0  0  0
 11 12  1  0  0  0
 11 92  1  0  0  0
 12 13  2  0  0  0
 12 93  1  0  0  0
 13 14  1  0  0  0
 13 31  1  0  0  0
 14 15  2  0  0  0
 14 94  1  0  0  0
 15 95  1  0  0  0
 16 17  2  0  0  0
 16 21  1  0  0  0
 16 31  1  0  0  0
 17 18  1  0  0  0
 17 96  1  0  0  0
 18 19  2  0  0  0
 18 97  1  0  0  0
 19 20  1  0  0  0
 19 24  1  0  0  0
 20 21  2  0  0  0
 20 98  1  0  0  0
 21 23  1  0  0  0
 22 28  1  0  0  0
 22 32  2  0  0  0
 26 27  1  0  0  0
 28 99  1  0  0  0
 28100  1  0  0  0
 29101  1  0  0  0
 29102  1  0  0  0
 33 34  1  0  0  0
 33 66  1  0  0  0
 33 70  2  0  0  0
 34 36  1  0  0  0
 34 59  1  0  0  0
 34103  1  0  0  0
 35 44  2  0  0  0
 35 45  1  0  0  0
 35 68  1  0  0  0
 36 56  1  0  0  0
 36104  1  0  0  0
 37 39  1  0  0  0
 37 47  1  0  0  0
 37 66  1  0  0  0
 37105  1  0  0  0
 38 43  2  0  0  0
 38 46  1  0  0  0
 38 47  1  0  0  0
 39 64  1  0  0  0
 39 67  2  0  0  0
 40 52  1  0  0  0
 40 53  2  0  0  0
 40 58  1  0  0  0
 41106  1  0  0  0
 41107  1  0  0  0
 41108  1  0  0  0
 41 48  1  0  0  0
 42 43  1  0  0  0
 42 66  1  0  0  0
 42109  1  0  0  0
 42110  1  0  0  0
 43 44  1  0  0  0
 44111  1  0  0  0
 45 46  2  0  0  0
 45112  1  0  0  0
 46113  1  0  0  0
 47114  1  0  0  0
 47115  1  0  0  0
 48 56  1  0  0  0
 48 65  1  0  0  0
 48116  1  0  0  0
 49 50  1  0  0  0
 49 53  1  0  0  0
 49 64  1  0  0  0
 49117  1  0  0  0
 50 51  1  0  0  0
 50118  1  0  0  0
 50119  1  0  0  0
 51 52  1  0  0  0
 51120  1  0  0  0
 51121  1  0  0  0
 52122  1  0  0  0
 52123  1  0  0  0
 53 54  1  0  0  0
 54 55  2  0  0  0
 54124  1  0  0  0
 55 57  1  0  0  0
 55125  1  0  0  0
 56 69  2  0  0  0
 57 58  2  0  0  0
 57126  1  0  0  0
 58127  1  0  0  0
 59 60  1  0  0  0
 59 61  1  0  0  0
 59 62  1  0  0  0
 60128  1  0  0  0
 60129  1  0  0  0
 60130  1  0  0  0
 61131  1  0  0  0
 61132  1  0  0  0
 61133  1  0  0  0
 62134  1  0  0  0
 62135  1  0  0  0
 62136  1  0  0  0
 63 65  1  0  0  0
 63137  1  0  0  0
 63138  1  0  0  0
 63139  1  0  0  0
 64140  1  0  0  0
 65141  1  0  0  0
 68 77  1  0  0  0
 71 72  2  0  0  0
 71 73  1  0  0  0
 71142  1  0  0  0
 72 76  1  0  0  0
 72 80  1  0  0  0
 73 77  1  0  0  0
 73 81  2  0  0  0
 74 75  1  0  0  0
 74 80  2  0  0  0
 74 81  1  0  0  0
 75143  1  0  0  0
 75144  1  0  0  0
 75145  1  0  0  0
 76 78  1  0  0  0
 76146  1  0  0  0
 76147  1  0  0  0
 77148  1  0  0  0
 77149  1  0  0  0
 78 79  1  0  0  0
 78150  1  0  0  0
 78151  1  0  0  0
 79 82  1  0  0  0
 79152  1  0  0  0
 79153  1  0  0  0
 82154  1  0  0  0
M  ISO  4   1 100  68 101  77 101  82 100
M  END
> <chiral flag>
0

> <version>
0

> <s_m_source_file>
/data/baiqing/PycharmProjects/Reinvent-master-3.2/result/LINK_invent/BTK/process_docking_weight1_custom_sum_contain_oxygen_bond_distance_aromatic_linkinvent_7_9_3/rearranged_h_0042.sdf

> <i_m_source_file_index>
89

> <r_mmod_Potential_Energy-OPLS-2005>
-236.02848815918

> <r_mmod_Stretch_Energy-OPLS-2005>
117.47119140625

> <r_mmod_Bend_Energy-OPLS-2005>
195.022109985352

> <r_mmod_Torsional_Energy-OPLS-2005>
229.389007568359

> <r_mmod_Improper_Torsional_Energy-OPLS-2005>
5.73525142669678

> <r_mmod_Van_der_Waal_Energy-OPLS-2005>
145.755386352539

> <r_mmod_Electrostatic_Energy-OPLS-2005>
-768.122985839844

> <r_mmod_Solvation_Energy-OPLS-2005>
-249.380844116211

> <b_mmod_Minimization_Converged-OPLS-2005>
0

> <r_mmod_RMS_Derivative-OPLS-2005>
5.36236190795898

$$$$
91
                    3D
 Structure written by MMmdl.
169177  0  0  1  0            999 V2000
  -30.7414  -14.4293   20.6017 C   0  0  0  0  0  0
  -30.3998  -12.2982   19.4053 C   0  0  0  0  0  0
  -29.4805  -12.5046   18.1864 C   0  0  0  0  0  0
  -27.9975  -12.3938   18.5929 C   0  0  0  0  0  0
  -27.6531  -13.2182   19.8645 C   0  0  2  0  0  0
  -28.6951  -13.0030   20.9837 C   0  0  0  0  0  0
  -25.2561  -13.8184   20.5723 C   0  0  0  0  0  0
  -24.1822  -13.0418   20.9192 C   0  0  0  0  0  0
  -24.6370  -11.6888   20.8654 C   0  0  0  0  0  0
  -23.9024  -10.4265   21.0312 C   0  0  0  0  0  0
  -24.3596   -9.4211   21.9093 C   0  0  0  0  0  0
  -23.6307   -8.2235   22.0677 C   0  0  0  0  0  0
  -22.4289   -8.0241   21.3490 C   0  0  0  0  0  0
  -21.9909   -9.0174   20.4568 C   0  0  0  0  0  0
  -22.7194  -10.2085   20.2954 C   0  0  0  0  0  0
  -21.6879   -6.0713   22.5261 C   0  0  0  0  0  0
  -21.4029   -6.5618   23.8184 C   0  0  0  0  0  0
  -21.3655   -5.6771   24.9148 C   0  0  0  0  0  0
  -21.6058   -4.3027   24.7220 C   0  0  0  0  0  0
  -21.8822   -3.8122   23.4332 C   0  0  0  0  0  0
  -21.9214   -4.6944   22.3388 C   0  0  0  0  0  0
  -22.7828  -13.5165   21.1867 C   0  0  0  0  0  0
  -22.1674   -4.2124   21.0973 F   0  0  0  0  0  0
  -21.5638   -3.4508   25.7721 F   0  0  0  0  0  0
  -30.0270  -13.2875   20.4277 N   0  0  0  0  0  0
  -26.2977  -12.9362   20.3329 N   0  0  0  0  0  0
  -25.9298  -11.6506   20.5700 N   0  0  0  0  0  0
  -22.0544  -12.8049   22.0410 N   0  0  0  0  0  0
  -25.4334  -15.1905   20.4215 N   0  0  0  0  0  0
  -31.8493  -14.6141   20.0908 O   0  0  0  0  0  0
  -21.6670   -6.8841   21.4199 O   0  0  0  0  0  0
  -22.3469  -14.5433   20.6702 O   0  0  0  0  0  0
  -24.6145  -31.8701   23.2158 C   0  0  0  0  0  0
  -25.9035  -32.4834   23.8450 C   0  0  1  0  0  0
  -27.2283  -27.4355   20.0999 C   0  0  0  0  0  0
  -25.5892  -33.8645   24.2365 N   0  0  0  0  0  0
  -23.4019  -30.4938   21.5578 C   0  0  2  0  0  0
  -24.8450  -28.9586   20.1186 C   0  0  0  0  0  0
  -22.7402  -29.4660   22.5042 C   0  0  0  0  0  0
  -18.0269  -28.1379   22.8464 C   0  0  0  0  0  0
  -24.1471  -36.7338   23.2647 C   0  0  0  0  0  0
  -25.9311  -30.8335   21.3686 C   0  0  0  0  0  0
  -26.0083  -29.4706   20.7116 C   0  0  0  0  0  0
  -27.2057  -28.7203   20.6879 C   0  0  0  0  0  0
  -26.0501  -26.9352   19.5079 C   0  0  0  0  0  0
  -24.8640  -27.6911   19.5116 C   0  0  0  0  0  0
  -23.6081  -29.8277   20.1702 C   0  0  0  0  0  0
  -25.4099  -36.3148   24.0343 C   0  0  1  0  0  0
  -20.5839  -28.3668   23.1315 C   0  0  2  0  0  0
  -20.6752  -26.9410   22.5401 C   0  0  0  0  0  0
  -19.5751  -26.6374   21.5178 C   0  0  0  0  0  0
  -18.1923  -26.7931   22.1583 C   0  0  0  0  0  0
  -19.1511  -28.8837   23.2885 C   0  0  0  0  0  0
  -18.9462  -30.1442   23.8910 C   0  0  0  0  0  0
  -17.6466  -30.6600   24.0565 C   0  0  0  0  0  0
  -25.9032  -34.9494   23.5163 C   0  0  0  0  0  0
  -16.5355  -29.9105   23.6331 C   0  0  0  0  0  0
  -16.7255  -28.6515   23.0353 C   0  0  0  0  0  0
  -26.4471  -31.6634   25.0801 C   0  0  0  0  0  0
  -25.3731  -31.3702   26.1549 C   0  0  0  0  0  0
  -27.0328  -30.3096   24.6162 C   0  0  0  0  0  0
  -27.6042  -32.4391   25.7543 C   0  0  0  0  0  0
  -27.5580  -37.1827   24.8465 C   0  0  0  0  0  0
  -21.4129  -29.3057   22.3762 N   0  0  0  0  0  0
  -26.4292  -37.3819   23.9416 N   0  0  0  0  0  0
  -24.6688  -31.0776   22.1066 N   0  0  0  0  0  0
  -23.4155  -28.8189   23.3081 O   0  0  0  0  0  0
  -28.3888  -26.6924   20.0978 O   0  0  0  0  0  0
  -26.5588  -34.8933   22.4728 O   0  0  0  0  0  0
  -23.5336  -32.1473   23.7534 O   0  0  0  0  0  0
  -31.7416  -20.6042   21.1790 C   0  0  0  0  0  0
  -31.7659  -21.8422   20.5010 C   0  0  0  0  0  0
  -30.4998  -20.2412   21.7455 C   0  0  0  0  0  0
  -29.5145  -22.1195   20.8448 C   0  0  0  0  0  0
  -33.9285  -20.0783   22.4117 C   0  0  0  0  0  0
  -33.1297  -22.2766   18.4027 C   0  0  0  0  0  0
  -32.9722  -19.7012   21.2732 C   0  0  0  0  0  0
  -33.0355  -22.4490   19.9189 C   0  0  0  0  0  0
  -30.3232  -19.0336   22.6647 C   0  0  0  0  0  0
  -28.2100  -22.8320   20.4791 C   0  0  0  0  0  0
  -29.7298  -17.7612   22.0164 C   0  0  0  0  0  0
  -28.3038  -24.2259   19.8030 C   0  0  0  0  0  0
  -30.7656  -16.6961   21.6036 C   0  0  0  0  0  0
  -28.3226  -25.4232   20.7745 C   0  0  0  0  0  0
  -30.6487  -22.5698   20.3232 N   0  0  0  0  0  0
  -29.4006  -20.9999   21.5590 N   0  0  0  0  0  0
  -30.1441  -15.4001   21.3110 N   0  0  0  0  0  0
  -31.4434  -12.3786   19.0988 H   0  0  0  0  0  0
  -30.2755  -11.2928   19.8088 H   0  0  0  0  0  0
  -29.7151  -11.7722   17.4122 H   0  0  0  0  0  0
  -29.6622  -13.4839   17.7413 H   0  0  0  0  0  0
  -27.7725  -11.3373   18.7546 H   0  0  0  0  0  0
  -27.3650  -12.7149   17.7648 H   0  0  0  0  0  0
  -27.6885  -14.2697   19.5755 H   0  0  0  0  0  0
  -28.6617  -11.9691   21.3318 H   0  0  0  0  0  0
  -28.4526  -13.6129   21.8547 H   0  0  0  0  0  0
  -25.2745   -9.5734   22.4666 H   0  0  0  0  0  0
  -24.0066   -7.4616   22.7341 H   0  0  0  0  0  0
  -21.0889   -8.8564   19.8850 H   0  0  0  0  0  0
  -22.3560  -10.9566   19.6042 H   0  0  0  0  0  0
  -21.1991   -7.6126   23.9657 H   0  0  0  0  0  0
  -21.1510   -6.0525   25.9058 H   0  0  0  0  0  0
  -22.0632   -2.7591   23.2823 H   0  0  0  0  0  0
  -22.4324  -11.9817   22.4882 H   0  0  0  0  0  0
  -21.1037  -13.0798   22.2423 H   0  0  0  0  0  0
  -24.6809  -15.8609   20.5466 H   0  0  0  0  0  0
  -26.3032  -15.6236   20.1331 H   0  0  0  0  0  0
  -26.7097  -32.5523   23.1196 H   0  0  0  0  0  0
  -25.0008  -33.9817   25.0486 H   0  0  0  0  0  0
  -22.6934  -31.3131   21.4194 H   0  0  0  0  0  0
  -23.3743  -35.9657   23.3324 H   0  0  0  0  0  0
  -24.3557  -36.8957   22.2064 H   0  0  0  0  0  0
  -23.7198  -37.6541   23.6651 H   0  0  0  0  0  0
  -26.0407  -31.5989   20.6002 H   0  0  0  0  0  0
  -26.8219  -30.8812   21.9843 H   0  0  0  0  0  0
  -28.1085  -29.1152   21.1355 H   0  0  0  0  0  0
  -26.0366  -25.9638   19.0402 H   0  0  0  0  0  0
  -23.9722  -27.2883   19.0532 H   0  0  0  0  0  0
  -23.7266  -30.6095   19.4218 H   0  0  0  0  0  0
  -22.7282  -29.2586   19.8658 H   0  0  0  0  0  0
  -25.1251  -36.2060   25.0830 H   0  0  0  0  0  0
  -20.9894  -28.3217   24.1446 H   0  0  0  0  0  0
  -20.5618  -26.2284   23.3582 H   0  0  0  0  0  0
  -21.6638  -26.7450   22.1210 H   0  0  0  0  0  0
  -19.6941  -25.6268   21.1250 H   0  0  0  0  0  0
  -19.6728  -27.3155   20.6687 H   0  0  0  0  0  0
  -17.4184  -26.6656   21.3998 H   0  0  0  0  0  0
  -18.0373  -26.0060   22.8988 H   0  0  0  0  0  0
  -19.7946  -30.7232   24.2286 H   0  0  0  0  0  0
  -17.5050  -31.6271   24.5180 H   0  0  0  0  0  0
  -15.5374  -30.3031   23.7656 H   0  0  0  0  0  0
  -15.8640  -28.0843   22.7097 H   0  0  0  0  0  0
  -24.5893  -30.7060   25.7871 H   0  0  0  0  0  0
  -24.8895  -32.2818   26.5072 H   0  0  0  0  0  0
  -25.8061  -30.8817   27.0279 H   0  0  0  0  0  0
  -26.2881  -29.6885   24.1165 H   0  0  0  0  0  0
  -27.4077  -29.7319   25.4616 H   0  0  0  0  0  0
  -27.8703  -30.4475   23.9318 H   0  0  0  0  0  0
  -27.2665  -33.3699   26.2113 H   0  0  0  0  0  0
  -28.3821  -32.6976   25.0347 H   0  0  0  0  0  0
  -28.0740  -31.8547   26.5469 H   0  0  0  0  0  0
  -28.2592  -38.0130   24.7541 H   0  0  0  0  0  0
  -28.1072  -36.2672   24.6243 H   0  0  0  0  0  0
  -27.2296  -37.1432   25.8863 H   0  0  0  0  0  0
  -20.9309  -29.8854   21.7033 H   0  0  0  0  0  0
  -26.0209  -38.2899   24.1441 H   0  0  0  0  0  0
  -34.3977  -21.0476   22.2585 H   0  0  0  0  0  0
  -34.7317  -19.3450   22.5004 H   0  0  0  0  0  0
  -33.4043  -20.1074   23.3656 H   0  0  0  0  0  0
  -34.0543  -22.7081   18.0221 H   0  0  0  0  0  0
  -32.2981  -22.7635   17.8929 H   0  0  0  0  0  0
  -33.1163  -21.2198   18.1356 H   0  0  0  0  0  0
  -33.4985  -19.7049   20.3169 H   0  0  0  0  0  0
  -32.6734  -18.6636   21.4009 H   0  0  0  0  0  0
  -33.9283  -22.0256   20.3707 H   0  0  0  0  0  0
  -33.0598  -23.5081   20.1851 H   0  0  0  0  0  0
  -29.6422  -19.3479   23.4547 H   0  0  0  0  0  0
  -31.2543  -18.8121   23.1860 H   0  0  0  0  0  0
  -27.5673  -22.8915   21.3594 H   0  0  0  0  0  0
  -27.6945  -22.1685   19.7824 H   0  0  0  0  0  0
  -29.0901  -18.0226   21.1741 H   0  0  0  0  0  0
  -29.0805  -17.3121   22.7680 H   0  0  0  0  0  0
  -27.4121  -24.3181   19.1878 H   0  0  0  0  0  0
  -29.1362  -24.2738   19.0993 H   0  0  0  0  0  0
  -31.4998  -16.5490   22.3987 H   0  0  0  0  0  0
  -31.3144  -17.0450   20.7262 H   0  0  0  0  0  0
  -29.2039  -25.3459   21.4105 H   0  0  0  0  0  0
  -27.4625  -25.3770   21.4470 H   0  0  0  0  0  0
  -29.2176  -15.2144   21.6663 H   0  0  0  0  0  0
  1 25  1  0  0  0
  1 30  2  0  0  0
  1 87  1  0  0  0
  2  3  1  0  0  0
  2 25  1  0  0  0
  2 88  1  0  0  0
  2 89  1  0  0  0
  3  4  1  0  0  0
  3 90  1  0  0  0
  3 91  1  0  0  0
  4  5  1  0  0  0
  4 92  1  0  0  0
  4 93  1  0  0  0
  5  6  1  0  0  0
  5 26  1  0  0  0
  5 94  1  0  0  0
  6 25  1  0  0  0
  6 95  1  0  0  0
  6 96  1  0  0  0
  7  8  2  0  0  0
  7 26  1  0  0  0
  7 29  1  0  0  0
  8  9  1  0  0  0
  8 22  1  0  0  0
  9 10  1  0  0  0
  9 27  2  0  0  0
 10 11  2  0  0  0
 10 15  1  0  0  0
 11 12  1  0  0  0
 11 97  1  0  0  0
 12 13  2  0  0  0
 12 98  1  0  0  0
 13 14  1  0  0  0
 13 31  1  0  0  0
 14 15  2  0  0  0
 14 99  1  0  0  0
 15100  1  0  0  0
 16 17  2  0  0  0
 16 21  1  0  0  0
 16 31  1  0  0  0
 17 18  1  0  0  0
 17101  1  0  0  0
 18 19  2  0  0  0
 18102  1  0  0  0
 19 20  1  0  0  0
 19 24  1  0  0  0
 20 21  2  0  0  0
 20103  1  0  0  0
 21 23  1  0  0  0
 22 28  1  0  0  0
 22 32  2  0  0  0
 26 27  1  0  0  0
 28104  1  0  0  0
 28105  1  0  0  0
 29106  1  0  0  0
 29107  1  0  0  0
 33 34  1  0  0  0
 33 66  1  0  0  0
 33 70  2  0  0  0
 34 36  1  0  0  0
 34 59  1  0  0  0
 34108  1  0  0  0
 35 44  2  0  0  0
 35 45  1  0  0  0
 35 68  1  0  0  0
 36 56  1  0  0  0
 36109  1  0  0  0
 37 39  1  0  0  0
 37 47  1  0  0  0
 37 66  1  0  0  0
 37110  1  0  0  0
 38 43  2  0  0  0
 38 46  1  0  0  0
 38 47  1  0  0  0
 39 64  1  0  0  0
 39 67  2  0  0  0
 40 52  1  0  0  0
 40 53  2  0  0  0
 40 58  1  0  0  0
 41111  1  0  0  0
 41112  1  0  0  0
 41113  1  0  0  0
 41 48  1  0  0  0
 42 43  1  0  0  0
 42 66  1  0  0  0
 42114  1  0  0  0
 42115  1  0  0  0
 43 44  1  0  0  0
 44116  1  0  0  0
 45 46  2  0  0  0
 45117  1  0  0  0
 46118  1  0  0  0
 47119  1  0  0  0
 47120  1  0  0  0
 48 56  1  0  0  0
 48 65  1  0  0  0
 48121  1  0  0  0
 49 50  1  0  0  0
 49 53  1  0  0  0
 49 64  1  0  0  0
 49122  1  0  0  0
 50 51  1  0  0  0
 50123  1  0  0  0
 50124  1  0  0  0
 51 52  1  0  0  0
 51125  1  0  0  0
 51126  1  0  0  0
 52127  1  0  0  0
 52128  1  0  0  0
 53 54  1  0  0  0
 54 55  2  0  0  0
 54129  1  0  0  0
 55 57  1  0  0  0
 55130  1  0  0  0
 56 69  2  0  0  0
 57 58  2  0  0  0
 57131  1  0  0  0
 58132  1  0  0  0
 59 60  1  0  0  0
 59 61  1  0  0  0
 59 62  1  0  0  0
 60133  1  0  0  0
 60134  1  0  0  0
 60135  1  0  0  0
 61136  1  0  0  0
 61137  1  0  0  0
 61138  1  0  0  0
 62139  1  0  0  0
 62140  1  0  0  0
 62141  1  0  0  0
 63 65  1  0  0  0
 63142  1  0  0  0
 63143  1  0  0  0
 63144  1  0  0  0
 64145  1  0  0  0
 65146  1  0  0  0
 68 84  1  0  0  0
 71 72  2  0  0  0
 71 73  1  0  0  0
 71 77  1  0  0  0
 72 78  1  0  0  0
 72 85  1  0  0  0
 73 79  1  0  0  0
 73 86  2  0  0  0
 74 80  1  0  0  0
 74 85  2  0  0  0
 74 86  1  0  0  0
 75 77  1  0  0  0
 75147  1  0  0  0
 75148  1  0  0  0
 75149  1  0  0  0
 76 78  1  0  0  0
 76150  1  0  0  0
 76151  1  0  0  0
 76152  1  0  0  0
 77153  1  0  0  0
 77154  1  0  0  0
 78155  1  0  0  0
 78156  1  0  0  0
 79 81  1  0  0  0
 79157  1  0  0  0
 79158  1  0  0  0
 80 82  1  0  0  0
 80159  1  0  0  0
 80160  1  0  0  0
 81 83  1  0  0  0
 81161  1  0  0  0
 81162  1  0  0  0
 82 84  1  0  0  0
 82163  1  0  0  0
 82164  1  0  0  0
 83 87  1  0  0  0
 83165  1  0  0  0
 83166  1  0  0  0
 84167  1  0  0  0
 84168  1  0  0  0
 87169  1  0  0  0
M  ISO  4   1 100  68 101  84 101  87 100
M  END
> <chiral flag>
0

> <version>
0

> <s_m_source_file>
/data/baiqing/PycharmProjects/Reinvent-master-3.2/result/LINK_invent/BTK/process_docking_weight1_custom_sum_contain_oxygen_bond_distance_aromatic_linkinvent_7_9_3/rearranged_h_0042.sdf

> <i_m_source_file_index>
90

> <r_mmod_Potential_Energy-OPLS-2005>
-507.180419921875

> <r_mmod_Stretch_Energy-OPLS-2005>
34.931510925293

> <r_mmod_Bend_Energy-OPLS-2005>
103.877899169922

> <r_mmod_Torsional_Energy-OPLS-2005>
223.466217041016

> <r_mmod_Improper_Torsional_Energy-OPLS-2005>
2.54671025276184

> <r_mmod_Van_der_Waal_Energy-OPLS-2005>
160.595672607422

> <r_mmod_Electrostatic_Energy-OPLS-2005>
-817.381774902344

> <r_mmod_Solvation_Energy-OPLS-2005>
-226.667709350586

> <b_mmod_Minimization_Converged-OPLS-2005>
0

> <r_mmod_RMS_Derivative-OPLS-2005>
4.67555475234985

$$$$
92
                    3D
 Structure written by MMmdl.
180188  0  0  1  0            999 V2000
  -30.7453  -14.4171   20.6223 C   0  0  0  0  0  0
  -30.4161  -12.2955   19.4055 C   0  0  0  0  0  0
  -29.4827  -12.5054   18.1975 C   0  0  0  0  0  0
  -28.0072  -12.3677   18.6178 C   0  0  0  0  0  0
  -27.6630  -13.2047   19.8781 C   0  0  2  0  0  0
  -28.7056  -12.9714   20.9941 C   0  0  0  0  0  0
  -25.2591  -13.8163   20.5697 C   0  0  0  0  0  0
  -24.1838  -13.0454   20.9182 C   0  0  0  0  0  0
  -24.6380  -11.6911   20.8738 C   0  0  0  0  0  0
  -23.9042  -10.4303   21.0407 C   0  0  0  0  0  0
  -24.3599   -9.4220   21.9186 C   0  0  0  0  0  0
  -23.6286   -8.2252   22.0753 C   0  0  0  0  0  0
  -22.4269   -8.0279   21.3549 C   0  0  0  0  0  0
  -21.9901   -9.0251   20.4647 C   0  0  0  0  0  0
  -22.7215  -10.2135   20.3059 C   0  0  0  0  0  0
  -21.6849   -6.0731   22.5281 C   0  0  0  0  0  0
  -21.4010   -6.5636   23.8212 C   0  0  0  0  0  0
  -21.3660   -5.6790   24.9176 C   0  0  0  0  0  0
  -21.6046   -4.3056   24.7224 C   0  0  0  0  0  0
  -21.8819   -3.8143   23.4351 C   0  0  0  0  0  0
  -21.9192   -4.6962   22.3401 C   0  0  0  0  0  0
  -22.7860  -13.5252   21.1851 C   0  0  0  0  0  0
  -22.1661   -4.2146   21.0983 F   0  0  0  0  0  0
  -21.5631   -3.4538   25.7739 F   0  0  0  0  0  0
  -30.0395  -13.2684   20.4430 N   0  0  0  0  0  0
  -26.3034  -12.9333   20.3398 N   0  0  0  0  0  0
  -25.9310  -11.6494   20.5786 N   0  0  0  0  0  0
  -22.0491  -12.8246   22.0396 N   0  0  0  0  0  0
  -25.4347  -15.1885   20.4103 N   0  0  0  0  0  0
  -31.8233  -14.6379   20.0651 O   0  0  0  0  0  0
  -21.6639   -6.8877   21.4242 O   0  0  0  0  0  0
  -22.3551  -14.5568   20.6703 O   0  0  0  0  0  0
  -24.6146  -31.8690   23.2119 C   0  0  0  0  0  0
  -25.9035  -32.4812   23.8421 C   0  0  1  0  0  0
  -27.2252  -27.4335   20.0777 C   0  0  0  0  0  0
  -25.5906  -33.8614   24.2345 N   0  0  0  0  0  0
  -23.4001  -30.4949   21.5571 C   0  0  2  0  0  0
  -24.8405  -28.9664   20.1147 C   0  0  0  0  0  0
  -22.7418  -29.4670   22.5051 C   0  0  0  0  0  0
  -18.0267  -28.1382   22.8500 C   0  0  0  0  0  0
  -24.1491  -36.7310   23.2645 C   0  0  0  0  0  0
  -25.9314  -30.8359   21.3625 C   0  0  0  0  0  0
  -26.0054  -29.4730   20.7039 C   0  0  0  0  0  0
  -27.2007  -28.7164   20.6775 C   0  0  0  0  0  0
  -26.0350  -26.9438   19.4928 C   0  0  0  0  0  0
  -24.8509  -27.7009   19.5081 C   0  0  0  0  0  0
  -23.6020  -29.8331   20.1700 C   0  0  0  0  0  0
  -25.4115  -36.3110   24.0339 C   0  0  1  0  0  0
  -20.5864  -28.3678   23.1339 C   0  0  2  0  0  0
  -20.6783  -26.9422   22.5438 C   0  0  0  0  0  0
  -19.5762  -26.6399   21.5230 C   0  0  0  0  0  0
  -18.1930  -26.7937   22.1618 C   0  0  0  0  0  0
  -19.1517  -28.8842   23.2918 C   0  0  0  0  0  0
  -18.9437  -30.1440   23.8944 C   0  0  0  0  0  0
  -17.6442  -30.6598   24.0564 C   0  0  0  0  0  0
  -25.9029  -34.9464   23.5132 C   0  0  0  0  0  0
  -16.5330  -29.9106   23.6323 C   0  0  0  0  0  0
  -16.7255  -28.6507   23.0371 C   0  0  0  0  0  0
  -26.4468  -31.6586   25.0734 C   0  0  0  0  0  0
  -25.3714  -31.3690   26.1466 C   0  0  0  0  0  0
  -27.0322  -30.3040   24.6092 C   0  0  0  0  0  0
  -27.6063  -32.4302   25.7478 C   0  0  0  0  0  0
  -27.5594  -37.1812   24.8469 C   0  0  0  0  0  0
  -21.4152  -29.3024   22.3740 N   0  0  0  0  0  0
  -26.4316  -37.3783   23.9397 N   0  0  0  0  0  0
  -24.6676  -31.0803   22.1020 N   0  0  0  0  0  0
  -23.4178  -28.8220   23.3107 O   0  0  0  0  0  0
  -28.4102  -26.7177   20.0843 O   0  0  0  0  0  0
  -26.5599  -34.8906   22.4694 O   0  0  0  0  0  0
  -23.5329  -32.1462   23.7500 O   0  0  0  0  0  0
  -30.9976  -20.8696   21.0426 C   0  0  0  0  0  0
  -30.3727  -22.7448   19.6584 C   0  0  0  0  0  0
  -31.3032  -22.1168   20.4936 C   0  0  0  0  0  0
  -29.7915  -20.2161   20.7288 C   0  0  0  0  0  0
  -29.0913  -22.2022   19.3794 C   0  0  0  0  0  0
  -28.8111  -20.8768   19.9084 C   0  0  0  0  0  0
  -32.6324  -22.7837   20.7860 C   0  0  0  0  0  0
  -27.7255  -19.1048   18.4356 C   0  0  0  0  0  0
  -27.9727  -23.5140   15.8239 C   0  0  0  0  0  0
  -27.4699  -24.6836   21.1663 C   0  0  0  0  0  0
  -26.6729  -22.8699   18.4967 C   0  0  0  0  0  0
  -29.6347  -18.8090   21.3520 C   0  0  0  0  0  0
  -27.5359  -20.0784   19.6071 C   0  0  0  0  0  0
  -28.6584  -22.7568   16.9796 C   0  0  0  0  0  0
  -30.7133  -17.7790   20.9272 C   0  0  0  0  0  0
  -28.3976  -24.6564   18.6625 C   0  0  0  0  0  0
  -30.8445  -16.5662   21.8882 C   0  0  0  0  0  0
  -28.4215  -25.2724   20.1019 C   0  0  1  0  0  0
  -28.2032  -23.0991   18.4319 C   0  0  2  0  0  0
  -30.1896  -15.3333   21.4314 N   0  0  0  0  0  0
  -31.4582  -12.3911   19.0957 H   0  0  0  0  0  0
  -30.3167  -11.2806   19.7938 H   0  0  0  0  0  0
  -29.7140  -11.7825   17.4137 H   0  0  0  0  0  0
  -29.6525  -13.4923   17.7645 H   0  0  0  0  0  0
  -27.8172  -11.3117   18.8138 H   0  0  0  0  0  0
  -27.3510  -12.6450   17.7925 H   0  0  0  0  0  0
  -27.7153  -14.2546   19.5901 H   0  0  0  0  0  0
  -28.6762  -11.9325   21.3267 H   0  0  0  0  0  0
  -28.4634  -13.5616   21.8783 H   0  0  0  0  0  0
  -25.2741   -9.5699   22.4765 H   0  0  0  0  0  0
  -23.9992   -7.4644   22.7476 H   0  0  0  0  0  0
  -21.0832   -8.8769   19.8953 H   0  0  0  0  0  0
  -22.3672  -10.9677   19.6172 H   0  0  0  0  0  0
  -21.2001   -7.6144   23.9716 H   0  0  0  0  0  0
  -21.1482   -6.0520   25.9079 H   0  0  0  0  0  0
  -22.0599   -2.7607   23.2850 H   0  0  0  0  0  0
  -22.4083  -11.9884   22.4768 H   0  0  0  0  0  0
  -21.1124  -13.1297   22.2624 H   0  0  0  0  0  0
  -24.6752  -15.8506   20.5270 H   0  0  0  0  0  0
  -26.2953  -15.6226   20.1009 H   0  0  0  0  0  0
  -26.7117  -32.5520   23.1205 H   0  0  0  0  0  0
  -25.0089  -33.9800   25.0511 H   0  0  0  0  0  0
  -22.6852  -31.3105   21.4263 H   0  0  0  0  0  0
  -23.3747  -35.9650   23.3326 H   0  0  0  0  0  0
  -24.3598  -36.8905   22.2061 H   0  0  0  0  0  0
  -23.7241  -37.6520   23.6644 H   0  0  0  0  0  0
  -26.0414  -31.6041   20.5959 H   0  0  0  0  0  0
  -26.8209  -30.8871   21.9792 H   0  0  0  0  0  0
  -28.1003  -29.1067   21.1340 H   0  0  0  0  0  0
  -25.9862  -25.9728   19.0287 H   0  0  0  0  0  0
  -23.9549  -27.2994   19.0552 H   0  0  0  0  0  0
  -23.6966  -30.6105   19.4094 H   0  0  0  0  0  0
  -22.7233  -29.2522   19.8839 H   0  0  0  0  0  0
  -25.1283  -36.2011   25.0835 H   0  0  0  0  0  0
  -20.9936  -28.3267   24.1466 H   0  0  0  0  0  0
  -20.5743  -26.2281   23.3620 H   0  0  0  0  0  0
  -21.6649  -26.7531   22.1190 H   0  0  0  0  0  0
  -19.6927  -25.6317   21.1244 H   0  0  0  0  0  0
  -19.6700  -27.3219   20.6768 H   0  0  0  0  0  0
  -17.4221  -26.6704   21.3999 H   0  0  0  0  0  0
  -18.0291  -26.0072   22.8998 H   0  0  0  0  0  0
  -19.7911  -30.7232   24.2356 H   0  0  0  0  0  0
  -17.5003  -31.6278   24.5157 H   0  0  0  0  0  0
  -15.5331  -30.3019   23.7635 H   0  0  0  0  0  0
  -15.8653  -28.0826   22.7111 H   0  0  0  0  0  0
  -24.5923  -30.6992   25.7804 H   0  0  0  0  0  0
  -24.8829  -32.2829   26.4854 H   0  0  0  0  0  0
  -25.8031  -30.8920   27.0271 H   0  0  0  0  0  0
  -26.2878  -29.6766   24.1171 H   0  0  0  0  0  0
  -27.4173  -29.7288   25.4526 H   0  0  0  0  0  0
  -27.8662  -30.4398   23.9199 H   0  0  0  0  0  0
  -27.2733  -33.3630   26.2044 H   0  0  0  0  0  0
  -28.3865  -32.6814   25.0276 H   0  0  0  0  0  0
  -28.0741  -31.8427   26.5394 H   0  0  0  0  0  0
  -28.2620  -38.0108   24.7520 H   0  0  0  0  0  0
  -28.1089  -36.2635   24.6301 H   0  0  0  0  0  0
  -27.2306  -37.1465   25.8874 H   0  0  0  0  0  0
  -20.9316  -29.8722   21.6937 H   0  0  0  0  0  0
  -26.0208  -38.2865   24.1386 H   0  0  0  0  0  0
  -31.7148  -20.3924   21.6948 H   0  0  0  0  0  0
  -30.6819  -23.6840   19.2277 H   0  0  0  0  0  0
  -33.2210  -22.2034   21.4971 H   0  0  0  0  0  0
  -32.4779  -23.7772   21.2074 H   0  0  0  0  0  0
  -33.2145  -22.8872   19.8703 H   0  0  0  0  0  0
  -26.8334  -18.4965   18.2832 H   0  0  0  0  0  0
  -28.5632  -18.4282   18.6102 H   0  0  0  0  0  0
  -27.9259  -19.6356   17.5071 H   0  0  0  0  0  0
  -28.3778  -23.1863   14.8660 H   0  0  0  0  0  0
  -28.1317  -24.5899   15.8840 H   0  0  0  0  0  0
  -26.8999  -23.3254   15.7843 H   0  0  0  0  0  0
  -26.4226  -24.7138   20.8745 H   0  0  0  0  0  0
  -27.5596  -25.2292   22.1055 H   0  0  0  0  0  0
  -27.7215  -23.6460   21.3842 H   0  0  0  0  0  0
  -26.3716  -21.9783   17.9486 H   0  0  0  0  0  0
  -26.1146  -23.6675   18.0064 H   0  0  0  0  0  0
  -26.2990  -22.8228   19.5184 H   0  0  0  0  0  0
  -28.6728  -18.3340   21.1987 H   0  0  0  0  0  0
  -29.6953  -18.9618   22.4300 H   0  0  0  0  0  0
  -26.6473  -20.6690   19.4755 H   0  0  0  0  0  0
  -27.2214  -19.5315   20.4910 H   0  0  0  0  0  0
  -29.7339  -22.9130   16.8897 H   0  0  0  0  0  0
  -28.5098  -21.6922   16.8027 H   0  0  0  0  0  0
  -31.6866  -18.2697   20.9263 H   0  0  0  0  0  0
  -30.5580  -17.4627   19.8948 H   0  0  0  0  0  0
  -29.3383  -24.9521   18.1987 H   0  0  0  0  0  0
  -27.6805  -25.2050   18.0583 H   0  0  0  0  0  0
  -30.4604  -16.8170   22.8776 H   0  0  0  0  0  0
  -31.9042  -16.3523   22.0459 H   0  0  0  0  0  0
  -29.4129  -25.0635   20.5000 H   0  0  0  0  0  0
  -29.3047  -15.0904   21.8518 H   0  0  0  0  0  0
  1 25  1  0  0  0
  1 30  2  0  0  0
  1 90  1  0  0  0
  2  3  1  0  0  0
  2 25  1  0  0  0
  2 91  1  0  0  0
  2 92  1  0  0  0
  3  4  1  0  0  0
  3 93  1  0  0  0
  3 94  1  0  0  0
  4  5  1  0  0  0
  4 95  1  0  0  0
  4 96  1  0  0  0
  5  6  1  0  0  0
  5 26  1  0  0  0
  5 97  1  0  0  0
  6 25  1  0  0  0
  6 98  1  0  0  0
  6 99  1  0  0  0
  7  8  2  0  0  0
  7 26  1  0  0  0
  7 29  1  0  0  0
  8  9  1  0  0  0
  8 22  1  0  0  0
  9 10  1  0  0  0
  9 27  2  0  0  0
 10 11  2  0  0  0
 10 15  1  0  0  0
 11 12  1  0  0  0
 11100  1  0  0  0
 12 13  2  0  0  0
 12101  1  0  0  0
 13 14  1  0  0  0
 13 31  1  0  0  0
 14 15  2  0  0  0
 14102  1  0  0  0
 15103  1  0  0  0
 16 17  2  0  0  0
 16 21  1  0  0  0
 16 31  1  0  0  0
 17 18  1  0  0  0
 17104  1  0  0  0
 18 19  2  0  0  0
 18105  1  0  0  0
 19 20  1  0  0  0
 19 24  1  0  0  0
 20 21  2  0  0  0
 20106  1  0  0  0
 21 23  1  0  0  0
 22 28  1  0  0  0
 22 32  2  0  0  0
 26 27  1  0  0  0
 28107  1  0  0  0
 28108  1  0  0  0
 29109  1  0  0  0
 29110  1  0  0  0
 33 34  1  0  0  0
 33 66  1  0  0  0
 33 70  2  0  0  0
 34 36  1  0  0  0
 34 59  1  0  0  0
 34111  1  0  0  0
 35 44  2  0  0  0
 35 45  1  0  0  0
 35 68  1  0  0  0
 36 56  1  0  0  0
 36112  1  0  0  0
 37 39  1  0  0  0
 37 47  1  0  0  0
 37 66  1  0  0  0
 37113  1  0  0  0
 38 43  2  0  0  0
 38 46  1  0  0  0
 38 47  1  0  0  0
 39 64  1  0  0  0
 39 67  2  0  0  0
 40 52  1  0  0  0
 40 53  2  0  0  0
 40 58  1  0  0  0
 41114  1  0  0  0
 41115  1  0  0  0
 41116  1  0  0  0
 41 48  1  0  0  0
 42 43  1  0  0  0
 42 66  1  0  0  0
 42117  1  0  0  0
 42118  1  0  0  0
 43 44  1  0  0  0
 44119  1  0  0  0
 45 46  2  0  0  0
 45120  1  0  0  0
 46121  1  0  0  0
 47122  1  0  0  0
 47123  1  0  0  0
 48 56  1  0  0  0
 48 65  1  0  0  0
 48124  1  0  0  0
 49 50  1  0  0  0
 49 53  1  0  0  0
 49 64  1  0  0  0
 49125  1  0  0  0
 50 51  1  0  0  0
 50126  1  0  0  0
 50127  1  0  0  0
 51 52  1  0  0  0
 51128  1  0  0  0
 51129  1  0  0  0
 52130  1  0  0  0
 52131  1  0  0  0
 53 54  1  0  0  0
 54 55  2  0  0  0
 54132  1  0  0  0
 55 57  1  0  0  0
 55133  1  0  0  0
 56 69  2  0  0  0
 57 58  2  0  0  0
 57134  1  0  0  0
 58135  1  0  0  0
 59 60  1  0  0  0
 59 61  1  0  0  0
 59 62  1  0  0  0
 60136  1  0  0  0
 60137  1  0  0  0
 60138  1  0  0  0
 61139  1  0  0  0
 61140  1  0  0  0
 61141  1  0  0  0
 62142  1  0  0  0
 62143  1  0  0  0
 62144  1  0  0  0
 63 65  1  0  0  0
 63145  1  0  0  0
 63146  1  0  0  0
 63147  1  0  0  0
 64148  1  0  0  0
 65149  1  0  0  0
 68 88  1  0  0  0
 71 73  2  0  0  0
 71 74  1  0  0  0
 71150  1  0  0  0
 72 73  1  0  0  0
 72 75  2  0  0  0
 72151  1  0  0  0
 73 77  1  0  0  0
 74 76  2  0  0  0
 74 82  1  0  0  0
 75 76  1  0  0  0
 75 89  1  0  0  0
 76 83  1  0  0  0
 77152  1  0  0  0
 77153  1  0  0  0
 77154  1  0  0  0
 78 83  1  0  0  0
 78155  1  0  0  0
 78156  1  0  0  0
 78157  1  0  0  0
 79 84  1  0  0  0
 79158  1  0  0  0
 79159  1  0  0  0
 79160  1  0  0  0
 80161  1  0  0  0
 80162  1  0  0  0
 80163  1  0  0  0
 80 88  1  0  0  0
 81164  1  0  0  0
 81165  1  0  0  0
 81166  1  0  0  0
 81 89  1  0  0  0
 82 85  1  0  0  0
 82167  1  0  0  0
 82168  1  0  0  0
 83169  1  0  0  0
 83170  1  0  0  0
 84 89  1  0  0  0
 84171  1  0  0  0
 84172  1  0  0  0
 85 87  1  0  0  0
 85173  1  0  0  0
 85174  1  0  0  0
 86 88  1  0  0  0
 86 89  1  0  0  0
 86175  1  0  0  0
 86176  1  0  0  0
 87 90  1  0  0  0
 87177  1  0  0  0
 87178  1  0  0  0
 88179  1  0  0  0
 90180  1  0  0  0
M  ISO  4   1 100  68 101  88 101  90 100
M  END
> <chiral flag>
0

> <version>
0

> <s_m_source_file>
/data/baiqing/PycharmProjects/Reinvent-master-3.2/result/LINK_invent/BTK/process_docking_weight1_custom_sum_contain_oxygen_bond_distance_aromatic_linkinvent_7_9_3/rearranged_h_0042.sdf

> <i_m_source_file_index>
91

> <r_mmod_Potential_Energy-OPLS-2005>
29.4677104949951

> <r_mmod_Stretch_Energy-OPLS-2005>
59.4955177307129

> <r_mmod_Bend_Energy-OPLS-2005>
163.525085449219

> <r_mmod_Torsional_Energy-OPLS-2005>
224.979476928711

> <r_mmod_Improper_Torsional_Energy-OPLS-2005>
2.22811102867126

> <r_mmod_Van_der_Waal_Energy-OPLS-2005>
178.991073608398

> <r_mmod_Electrostatic_Energy-OPLS-2005>
-417.393463134766

> <r_mmod_Solvation_Energy-OPLS-2005>
-192.199462890625

> <b_mmod_Minimization_Converged-OPLS-2005>
0

> <r_mmod_RMS_Derivative-OPLS-2005>
2.26962399482727

$$$$
93
                    3D
 Structure written by MMmdl.
159167  0  0  1  0            999 V2000
  -30.7361  -14.4263   20.5750 C   0  0  0  0  0  0
  -30.4144  -12.2820   19.4148 C   0  0  0  0  0  0
  -29.4901  -12.4953   18.1988 C   0  0  0  0  0  0
  -28.0080  -12.3726   18.6087 C   0  0  0  0  0  0
  -27.6598  -13.2045   19.8720 C   0  0  2  0  0  0
  -28.7008  -12.9670   20.9854 C   0  0  0  0  0  0
  -25.2576  -13.8141   20.5662 C   0  0  0  0  0  0
  -24.1820  -13.0446   20.9152 C   0  0  0  0  0  0
  -24.6357  -11.6902   20.8712 C   0  0  0  0  0  0
  -23.9027  -10.4306   21.0398 C   0  0  0  0  0  0
  -24.3597   -9.4241   21.9182 C   0  0  0  0  0  0
  -23.6288   -8.2269   22.0764 C   0  0  0  0  0  0
  -22.4258   -8.0299   21.3565 C   0  0  0  0  0  0
  -21.9885   -9.0266   20.4650 C   0  0  0  0  0  0
  -22.7198  -10.2153   20.3057 C   0  0  0  0  0  0
  -21.6856   -6.0740   22.5283 C   0  0  0  0  0  0
  -21.4016   -6.5639   23.8220 C   0  0  0  0  0  0
  -21.3668   -5.6790   24.9176 C   0  0  0  0  0  0
  -21.6051   -4.3057   24.7223 C   0  0  0  0  0  0
  -21.8830   -3.8153   23.4346 C   0  0  0  0  0  0
  -21.9197   -4.6968   22.3396 C   0  0  0  0  0  0
  -22.7863  -13.5280   21.1838 C   0  0  0  0  0  0
  -22.1673   -4.2161   21.0971 F   0  0  0  0  0  0
  -21.5628   -3.4535   25.7734 F   0  0  0  0  0  0
  -30.0294  -13.2713   20.4330 N   0  0  0  0  0  0
  -26.3007  -12.9312   20.3346 N   0  0  0  0  0  0
  -25.9282  -11.6478   20.5727 N   0  0  0  0  0  0
  -22.0473  -12.8304   22.0378 N   0  0  0  0  0  0
  -25.4348  -15.1854   20.4094 N   0  0  0  0  0  0
  -31.8904  -14.5378   20.1463 O   0  0  0  0  0  0
  -21.6644   -6.8886   21.4245 O   0  0  0  0  0  0
  -22.3581  -14.5610   20.6704 O   0  0  0  0  0  0
  -24.6138  -31.8707   23.2135 C   0  0  0  0  0  0
  -25.9053  -32.4834   23.8403 C   0  0  1  0  0  0
  -27.2265  -27.4548   20.0603 C   0  0  0  0  0  0
  -25.5913  -33.8626   24.2338 N   0  0  0  0  0  0
  -23.3976  -30.4993   21.5544 C   0  0  2  0  0  0
  -24.8357  -28.9630   20.1205 C   0  0  0  0  0  0
  -22.7394  -29.4705   22.5003 C   0  0  0  0  0  0
  -18.0275  -28.1390   22.8494 C   0  0  0  0  0  0
  -24.1490  -36.7321   23.2638 C   0  0  0  0  0  0
  -25.9279  -30.8350   21.3677 C   0  0  0  0  0  0
  -25.9972  -29.4689   20.7178 C   0  0  0  0  0  0
  -27.1910  -28.7140   20.7004 C   0  0  0  0  0  0
  -26.0393  -26.9536   19.4786 C   0  0  0  0  0  0
  -24.8483  -27.6993   19.5090 C   0  0  0  0  0  0
  -23.6029  -29.8354   20.1678 C   0  0  0  0  0  0
  -25.4111  -36.3112   24.0337 C   0  0  1  0  0  0
  -20.5863  -28.3680   23.1315 C   0  0  2  0  0  0
  -20.6774  -26.9420   22.5415 C   0  0  0  0  0  0
  -19.5748  -26.6400   21.5216 C   0  0  0  0  0  0
  -18.1924  -26.7935   22.1625 C   0  0  0  0  0  0
  -19.1523  -28.8847   23.2906 C   0  0  0  0  0  0
  -18.9456  -30.1454   23.8916 C   0  0  0  0  0  0
  -17.6460  -30.6595   24.0572 C   0  0  0  0  0  0
  -25.9038  -34.9479   23.5132 C   0  0  0  0  0  0
  -16.5351  -29.9104   23.6326 C   0  0  0  0  0  0
  -16.7266  -28.6522   23.0339 C   0  0  0  0  0  0
  -26.4478  -31.6605   25.0727 C   0  0  0  0  0  0
  -25.3748  -31.3720   26.1482 C   0  0  0  0  0  0
  -27.0307  -30.3046   24.6110 C   0  0  0  0  0  0
  -27.6053  -32.4322   25.7487 C   0  0  0  0  0  0
  -27.5583  -37.1817   24.8467 C   0  0  0  0  0  0
  -21.4129  -29.3051   22.3726 N   0  0  0  0  0  0
  -26.4299  -37.3797   23.9404 N   0  0  0  0  0  0
  -24.6647  -31.0824   22.1035 N   0  0  0  0  0  0
  -23.4176  -28.8240   23.3034 O   0  0  0  0  0  0
  -28.4170  -26.7610   20.0168 O   0  0  0  0  0  0
  -26.5596  -34.8930   22.4694 O   0  0  0  0  0  0
  -23.5341  -32.1456   23.7555 O   0  0  0  0  0  0
  -29.4271  -21.1685   18.2909 C   0  0  0  0  0  0
  -27.5630  -20.1158   18.6598 C   0  0  0  0  0  0
  -28.3861  -22.0627   18.2484 C   0  0  0  0  0  0
  -29.5665  -15.8229   22.2094 C   0  0  0  0  0  0
  -28.4555  -23.5335   17.9492 C   0  0  0  0  0  0
  -28.3225  -24.4223   19.2000 C   0  0  0  0  0  0
  -29.1813  -17.6716   19.7035 C   0  0  0  0  0  0
  -29.6443  -18.6821   18.6326 C   0  0  0  0  0  0
  -30.3664  -16.7649   20.0836 C   0  0  0  0  0  0
  -28.6420  -25.8990   18.8956 C   0  0  0  0  0  0
  -27.1896  -21.3852   18.4915 N   0  0  0  0  0  0
  -28.8869  -19.9188   18.5649 N   0  0  0  0  0  0
  -30.0144  -15.5458   20.8392 N   0  0  0  0  0  0
  -31.4594  -12.3644   19.1094 H   0  0  0  0  0  0
  -30.3008  -11.2710   19.8073 H   0  0  0  0  0  0
  -29.7249  -11.7682   17.4217 H   0  0  0  0  0  0
  -29.6722  -13.4764   17.7587 H   0  0  0  0  0  0
  -27.8073  -11.3184   18.7978 H   0  0  0  0  0  0
  -27.3642  -12.6598   17.7764 H   0  0  0  0  0  0
  -27.7101  -14.2561   19.5860 H   0  0  0  0  0  0
  -28.6718  -11.9271   21.3138 H   0  0  0  0  0  0
  -28.4617  -13.5461   21.8732 H   0  0  0  0  0  0
  -25.2748   -9.5742   22.4754 H   0  0  0  0  0  0
  -24.0029   -7.4668   22.7489 H   0  0  0  0  0  0
  -21.0831   -8.8765   19.8940 H   0  0  0  0  0  0
  -22.3653  -10.9698   19.6175 H   0  0  0  0  0  0
  -21.2003   -7.6149   23.9721 H   0  0  0  0  0  0
  -21.1478   -6.0516   25.9078 H   0  0  0  0  0  0
  -22.0592   -2.7615   23.2832 H   0  0  0  0  0  0
  -22.4040  -11.9978   22.4846 H   0  0  0  0  0  0
  -21.1082  -13.1400   22.2476 H   0  0  0  0  0  0
  -24.6796  -15.8484   20.5353 H   0  0  0  0  0  0
  -26.3096  -15.6200   20.1436 H   0  0  0  0  0  0
  -26.7128  -32.5539   23.1165 H   0  0  0  0  0  0
  -25.0071  -33.9785   25.0486 H   0  0  0  0  0  0
  -22.6866  -31.3178   21.4198 H   0  0  0  0  0  0
  -23.3740  -35.9668   23.3318 H   0  0  0  0  0  0
  -24.3582  -36.8915   22.2047 H   0  0  0  0  0  0
  -23.7257  -37.6541   23.6636 H   0  0  0  0  0  0
  -26.0461  -31.5995   20.5975 H   0  0  0  0  0  0
  -26.8154  -30.8835   21.9875 H   0  0  0  0  0  0
  -28.0907  -29.1063   21.1539 H   0  0  0  0  0  0
  -26.0112  -25.9920   18.9893 H   0  0  0  0  0  0
  -23.9514  -27.3005   19.0547 H   0  0  0  0  0  0
  -23.7202  -30.6130   19.4121 H   0  0  0  0  0  0
  -22.7234  -29.2633   19.8661 H   0  0  0  0  0  0
  -25.1288  -36.1978   25.0830 H   0  0  0  0  0  0
  -20.9965  -28.3256   24.1429 H   0  0  0  0  0  0
  -20.5694  -26.2292   23.3605 H   0  0  0  0  0  0
  -21.6641  -26.7479   22.1189 H   0  0  0  0  0  0
  -19.6909  -25.6315   21.1233 H   0  0  0  0  0  0
  -19.6678  -27.3222   20.6753 H   0  0  0  0  0  0
  -17.4195  -26.6692   21.4026 H   0  0  0  0  0  0
  -18.0324  -26.0074   22.9015 H   0  0  0  0  0  0
  -19.7931  -30.7269   24.2288 H   0  0  0  0  0  0
  -17.5015  -31.6269   24.5185 H   0  0  0  0  0  0
  -15.5351  -30.3014   23.7637 H   0  0  0  0  0  0
  -15.8667  -28.0857   22.7029 H   0  0  0  0  0  0
  -24.5912  -30.7078   25.7827 H   0  0  0  0  0  0
  -24.8954  -32.2883   26.4933 H   0  0  0  0  0  0
  -25.8099  -30.8885   27.0237 H   0  0  0  0  0  0
  -26.2850  -29.6807   24.1173 H   0  0  0  0  0  0
  -27.4084  -29.7284   25.4564 H   0  0  0  0  0  0
  -27.8680  -30.4361   23.9256 H   0  0  0  0  0  0
  -27.2670  -33.3609   26.2097 H   0  0  0  0  0  0
  -28.3844  -32.6908   25.0303 H   0  0  0  0  0  0
  -28.0745  -31.8430   26.5378 H   0  0  0  0  0  0
  -28.2617  -38.0101   24.7498 H   0  0  0  0  0  0
  -28.1062  -36.2628   24.6307 H   0  0  0  0  0  0
  -27.2300  -37.1491   25.8874 H   0  0  0  0  0  0
  -20.9298  -29.8768   21.6941 H   0  0  0  0  0  0
  -26.0189  -38.2883   24.1382 H   0  0  0  0  0  0
  -30.4871  -21.3197   18.1336 H   0  0  0  0  0  0
  -26.8605  -19.3140   18.8464 H   0  0  0  0  0  0
  -29.9201  -16.7906   22.5680 H   0  0  0  0  0  0
  -29.9191  -15.0783   22.9256 H   0  0  0  0  0  0
  -28.4780  -15.8384   22.2446 H   0  0  0  0  0  0
  -27.6871  -23.8031   17.2237 H   0  0  0  0  0  0
  -29.4040  -23.7536   17.4569 H   0  0  0  0  0  0
  -29.0067  -24.0725   19.9720 H   0  0  0  0  0  0
  -27.3205  -24.3062   19.6102 H   0  0  0  0  0  0
  -28.3502  -17.0824   19.3141 H   0  0  0  0  0  0
  -28.8181  -18.1881   20.5928 H   0  0  0  0  0  0
  -29.6308  -18.2172   17.6463 H   0  0  0  0  0  0
  -30.6842  -18.9564   18.8196 H   0  0  0  0  0  0
  -30.8514  -16.4938   19.1422 H   0  0  0  0  0  0
  -31.1124  -17.3325   20.6423 H   0  0  0  0  0  0
  -28.1050  -26.2434   18.0088 H   0  0  0  0  0  0
  -29.6970  -25.9818   18.6337 H   0  0  0  0  0  0
  1 25  1  0  0  0
  1 30  2  0  0  0
  1 83  1  0  0  0
  2  3  1  0  0  0
  2 25  1  0  0  0
  2 84  1  0  0  0
  2 85  1  0  0  0
  3  4  1  0  0  0
  3 86  1  0  0  0
  3 87  1  0  0  0
  4  5  1  0  0  0
  4 88  1  0  0  0
  4 89  1  0  0  0
  5  6  1  0  0  0
  5 26  1  0  0  0
  5 90  1  0  0  0
  6 25  1  0  0  0
  6 91  1  0  0  0
  6 92  1  0  0  0
  7  8  2  0  0  0
  7 26  1  0  0  0
  7 29  1  0  0  0
  8  9  1  0  0  0
  8 22  1  0  0  0
  9 10  1  0  0  0
  9 27  2  0  0  0
 10 11  2  0  0  0
 10 15  1  0  0  0
 11 12  1  0  0  0
 11 93  1  0  0  0
 12 13  2  0  0  0
 12 94  1  0  0  0
 13 14  1  0  0  0
 13 31  1  0  0  0
 14 15  2  0  0  0
 14 95  1  0  0  0
 15 96  1  0  0  0
 16 17  2  0  0  0
 16 21  1  0  0  0
 16 31  1  0  0  0
 17 18  1  0  0  0
 17 97  1  0  0  0
 18 19  2  0  0  0
 18 98  1  0  0  0
 19 20  1  0  0  0
 19 24  1  0  0  0
 20 21  2  0  0  0
 20 99  1  0  0  0
 21 23  1  0  0  0
 22 28  1  0  0  0
 22 32  2  0  0  0
 26 27  1  0  0  0
 28100  1  0  0  0
 28101  1  0  0  0
 29102  1  0  0  0
 29103  1  0  0  0
 33 34  1  0  0  0
 33 66  1  0  0  0
 33 70  2  0  0  0
 34 36  1  0  0  0
 34 59  1  0  0  0
 34104  1  0  0  0
 35 44  2  0  0  0
 35 45  1  0  0  0
 35 68  1  0  0  0
 36 56  1  0  0  0
 36105  1  0  0  0
 37 39  1  0  0  0
 37 47  1  0  0  0
 37 66  1  0  0  0
 37106  1  0  0  0
 38 43  2  0  0  0
 38 46  1  0  0  0
 38 47  1  0  0  0
 39 64  1  0  0  0
 39 67  2  0  0  0
 40 52  1  0  0  0
 40 53  2  0  0  0
 40 58  1  0  0  0
 41107  1  0  0  0
 41108  1  0  0  0
 41109  1  0  0  0
 41 48  1  0  0  0
 42 43  1  0  0  0
 42 66  1  0  0  0
 42110  1  0  0  0
 42111  1  0  0  0
 43 44  1  0  0  0
 44112  1  0  0  0
 45 46  2  0  0  0
 45113  1  0  0  0
 46114  1  0  0  0
 47115  1  0  0  0
 47116  1  0  0  0
 48 56  1  0  0  0
 48 65  1  0  0  0
 48117  1  0  0  0
 49 50  1  0  0  0
 49 53  1  0  0  0
 49 64  1  0  0  0
 49118  1  0  0  0
 50 51  1  0  0  0
 50119  1  0  0  0
 50120  1  0  0  0
 51 52  1  0  0  0
 51121  1  0  0  0
 51122  1  0  0  0
 52123  1  0  0  0
 52124  1  0  0  0
 53 54  1  0  0  0
 54 55  2  0  0  0
 54125  1  0  0  0
 55 57  1  0  0  0
 55126  1  0  0  0
 56 69  2  0  0  0
 57 58  2  0  0  0
 57127  1  0  0  0
 58128  1  0  0  0
 59 60  1  0  0  0
 59 61  1  0  0  0
 59 62  1  0  0  0
 60129  1  0  0  0
 60130  1  0  0  0
 60131  1  0  0  0
 61132  1  0  0  0
 61133  1  0  0  0
 61134  1  0  0  0
 62135  1  0  0  0
 62136  1  0  0  0
 62137  1  0  0  0
 63 65  1  0  0  0
 63138  1  0  0  0
 63139  1  0  0  0
 63140  1  0  0  0
 64141  1  0  0  0
 65142  1  0  0  0
 68 80  1  0  0  0
 71 73  2  0  0  0
 71 82  1  0  0  0
 71143  1  0  0  0
 72 81  2  0  0  0
 72 82  1  0  0  0
 72144  1  0  0  0
 73 75  1  0  0  0
 73 81  1  0  0  0
 74 83  1  0  0  0
 74145  1  0  0  0
 74146  1  0  0  0
 74147  1  0  0  0
 75 76  1  0  0  0
 75148  1  0  0  0
 75149  1  0  0  0
 76 80  1  0  0  0
 76150  1  0  0  0
 76151  1  0  0  0
 77 78  1  0  0  0
 77 79  1  0  0  0
 77152  1  0  0  0
 77153  1  0  0  0
 78 82  1  0  0  0
 78154  1  0  0  0
 78155  1  0  0  0
 79 83  1  0  0  0
 79156  1  0  0  0
 79157  1  0  0  0
 80158  1  0  0  0
 80159  1  0  0  0
M  ISO  4   1 100  68 101  80 101  83 100
M  END
> <chiral flag>
0

> <version>
0

> <s_m_source_file>
/data/baiqing/PycharmProjects/Reinvent-master-3.2/result/LINK_invent/BTK/process_docking_weight1_custom_sum_contain_oxygen_bond_distance_aromatic_linkinvent_7_9_3/rearranged_h_0042.sdf

> <i_m_source_file_index>
92

> <r_mmod_Potential_Energy-OPLS-2005>
64.1033706665039

> <r_mmod_Stretch_Energy-OPLS-2005>
33.2841186523438

> <r_mmod_Bend_Energy-OPLS-2005>
109.640869140625

> <r_mmod_Torsional_Energy-OPLS-2005>
275.451904296875

> <r_mmod_Improper_Torsional_Energy-OPLS-2005>
13.4274206161499

> <r_mmod_Van_der_Waal_Energy-OPLS-2005>
139.441360473633

> <r_mmod_Electrostatic_Energy-OPLS-2005>
-305.176696777344

> <r_mmod_Solvation_Energy-OPLS-2005>
-215.450668334961

> <b_mmod_Minimization_Converged-OPLS-2005>
0

> <r_mmod_RMS_Derivative-OPLS-2005>
2.31363773345947

$$$$
94
                    3D
 Structure written by MMmdl.
177185  0  0  1  0            999 V2000
  -30.6922  -14.3709   20.7019 C   0  0  0  0  0  0
  -30.4336  -12.2955   19.3776 C   0  0  0  0  0  0
  -29.4847  -12.5614   18.1879 C   0  0  0  0  0  0
  -28.0108  -12.3550   18.5923 C   0  0  0  0  0  0
  -27.6557  -13.1608   19.8541 C   0  0  2  0  0  0
  -28.6912  -12.8768   20.9680 C   0  0  0  0  0  0
  -25.2583  -13.8006   20.5631 C   0  0  0  0  0  0
  -24.1881  -13.0368   20.9323 C   0  0  0  0  0  0
  -24.6407  -11.6853   20.8885 C   0  0  0  0  0  0
  -23.9095  -10.4247   21.0543 C   0  0  0  0  0  0
  -24.3624   -9.4057   21.9226 C   0  0  0  0  0  0
  -23.6247   -8.2088   22.0713 C   0  0  0  0  0  0
  -22.4216   -8.0205   21.3513 C   0  0  0  0  0  0
  -21.9930   -9.0220   20.4606 C   0  0  0  0  0  0
  -22.7311  -10.2092   20.3103 C   0  0  0  0  0  0
  -21.6772   -6.0711   22.5322 C   0  0  0  0  0  0
  -21.3983   -6.5610   23.8278 C   0  0  0  0  0  0
  -21.3699   -5.6747   24.9242 C   0  0  0  0  0  0
  -21.6055   -4.3014   24.7226 C   0  0  0  0  0  0
  -21.8810   -3.8116   23.4344 C   0  0  0  0  0  0
  -21.9166   -4.6946   22.3419 C   0  0  0  0  0  0
  -22.7846  -13.5190   21.1944 C   0  0  0  0  0  0
  -22.1658   -4.2163   21.0993 F   0  0  0  0  0  0
  -21.5676   -3.4469   25.7729 F   0  0  0  0  0  0
  -30.0499  -13.1934   20.4751 N   0  0  0  0  0  0
  -26.2970  -12.9076   20.3255 N   0  0  0  0  0  0
  -25.9294  -11.6320   20.5843 N   0  0  0  0  0  0
  -22.0418  -12.8222   22.0483 N   0  0  0  0  0  0
  -25.4198  -15.1731   20.3683 N   0  0  0  0  0  0
  -31.6670  -14.7653   20.0579 O   0  0  0  0  0  0
  -21.6524   -6.8855   21.4268 O   0  0  0  0  0  0
  -22.3569  -14.5498   20.6786 O   0  0  0  0  0  0
  -24.6113  -31.8814   23.2157 C   0  0  0  0  0  0
  -25.9059  -32.4839   23.8461 C   0  0  1  0  0  0
  -27.2475  -27.5385   20.0459 C   0  0  0  0  0  0
  -25.5942  -33.8637   24.2390 N   0  0  0  0  0  0
  -23.3873  -30.5069   21.5556 C   0  0  2  0  0  0
  -24.8387  -28.9960   20.0914 C   0  0  0  0  0  0
  -22.7354  -29.4763   22.5062 C   0  0  0  0  0  0
  -18.0331  -28.1300   22.8465 C   0  0  0  0  0  0
  -24.1506  -36.7324   23.2632 C   0  0  0  0  0  0
  -25.9093  -30.8600   21.3677 C   0  0  0  0  0  0
  -25.9904  -29.5066   20.7140 C   0  0  0  0  0  0
  -27.1914  -28.7712   20.7089 C   0  0  0  0  0  0
  -26.1056  -27.0665   19.3508 C   0  0  0  0  0  0
  -24.8920  -27.7681   19.4111 C   0  0  0  0  0  0
  -23.5865  -29.8399   20.1642 C   0  0  0  0  0  0
  -25.4088  -36.3095   24.0357 C   0  0  1  0  0  0
  -20.5839  -28.3775   23.1416 C   0  0  2  0  0  0
  -20.6802  -26.9533   22.5431 C   0  0  0  0  0  0
  -19.5881  -26.6587   21.5120 C   0  0  0  0  0  0
  -18.2050  -26.7926   22.1462 C   0  0  0  0  0  0
  -19.1516  -28.8905   23.2838 C   0  0  0  0  0  0
  -18.9408  -30.1533   23.8791 C   0  0  0  0  0  0
  -17.6381  -30.6574   24.0376 C   0  0  0  0  0  0
  -25.9034  -34.9487   23.5154 C   0  0  0  0  0  0
  -16.5301  -29.8899   23.6186 C   0  0  0  0  0  0
  -16.7302  -28.6285   23.0331 C   0  0  0  0  0  0
  -26.4560  -31.6560   25.0733 C   0  0  0  0  0  0
  -25.3852  -31.3664   26.1481 C   0  0  0  0  0  0
  -27.0338  -30.2991   24.6035 C   0  0  0  0  0  0
  -27.6156  -32.4239   25.7519 C   0  0  0  0  0  0
  -27.5583  -37.1750   24.8474 C   0  0  0  0  0  0
  -21.4085  -29.3165   22.3874 N   0  0  0  0  0  0
  -26.4296  -37.3757   23.9414 N   0  0  0  0  0  0
  -24.6519  -31.0924   22.1054 N   0  0  0  0  0  0
  -23.4196  -28.8246   23.3002 O   0  0  0  0  0  0
  -28.3817  -26.7733   20.1412 O   0  0  0  0  0  0
  -26.5596  -34.9002   22.4706 O   0  0  0  0  0  0
  -23.5323  -32.1556   23.7581 O   0  0  0  0  0  0
  -25.7761  -20.7243   20.3135 C   0  0  0  0  0  0
  -25.9620  -22.1142   20.4627 C   0  0  0  0  0  0
  -25.4259  -19.8989   21.3912 C   0  0  0  0  0  0
  -25.2277  -20.4876   22.6604 C   0  0  0  0  0  0
  -25.6935  -21.8249   22.8760 C   0  0  0  0  0  0
  -26.1187  -22.6510   21.7873 C   0  0  0  0  0  0
  -24.4579  -19.7310   23.7480 C   0  0  0  0  0  0
  -25.7478  -22.3994   24.2881 C   0  0  0  0  0  0
  -24.7361  -22.5589   18.2285 C   0  0  0  0  0  0
  -25.9687  -22.8573   19.1162 C   0  0  0  0  0  0
  -26.7316  -24.0436   22.1422 C   0  0  0  0  0  0
  -25.2702  -18.4038   21.1010 C   0  0  0  0  0  0
  -27.5869  -24.7064   21.0594 C   0  0  0  0  0  0
  -28.7064  -16.8434   20.6181 C   0  0  0  0  0  0
  -29.7664  -16.4958   21.7082 C   0  0  0  0  0  0
  -27.7458  -18.0246   20.9225 C   0  0  0  0  0  0
  -28.3924  -25.9900   21.3450 C   0  0  0  0  0  0
  -30.1313  -15.0740   21.6996 N   0  0  0  0  0  0
  -26.4585  -17.6437   21.5776 N   0  3  0  0  0  0
  -31.4788  -12.4328   19.0904 H   0  0  0  0  0  0
  -30.3573  -11.2521   19.6853 H   0  0  0  0  0  0
  -29.7298  -11.9287   17.3375 H   0  0  0  0  0  0
  -29.6060  -13.5897   17.8460 H   0  0  0  0  0  0
  -27.8302  -11.2994   18.7649 H   0  0  0  0  0  0
  -27.3685  -12.6482   17.7615 H   0  0  0  0  0  0
  -27.6860  -14.1907   19.5193 H   0  0  0  0  0  0
  -28.6410  -11.8236   21.2468 H   0  0  0  0  0  0
  -28.3993  -13.3908   21.8807 H   0  0  0  0  0  0
  -25.2772   -9.5399   22.4777 H   0  0  0  0  0  0
  -23.9902   -7.4418   22.7409 H   0  0  0  0  0  0
  -21.0844   -8.8831   19.8847 H   0  0  0  0  0  0
  -22.3875  -10.9662   19.6198 H   0  0  0  0  0  0
  -21.1944   -7.6102   23.9848 H   0  0  0  0  0  0
  -21.1575   -6.0430   25.9190 H   0  0  0  0  0  0
  -22.0557   -2.7546   23.2842 H   0  0  0  0  0  0
  -22.3905  -11.9922   22.4998 H   0  0  0  0  0  0
  -21.1019  -13.1264   22.2607 H   0  0  0  0  0  0
  -24.4862  -15.5345   20.1813 H   0  0  0  0  0  0
  -25.9973  -15.3134   19.5503 H   0  0  0  0  0  0
  -26.7109  -32.5599   23.1236 H   0  0  0  0  0  0
  -25.0063  -33.9834   25.0517 H   0  0  0  0  0  0
  -22.6630  -31.3142   21.4262 H   0  0  0  0  0  0
  -23.3763  -35.9661   23.3315 H   0  0  0  0  0  0
  -24.3626  -36.8941   22.2045 H   0  0  0  0  0  0
  -23.7322  -37.6561   23.6661 H   0  0  0  0  0  0
  -26.0230  -31.6229   20.5935 H   0  0  0  0  0  0
  -26.8001  -30.9022   21.9805 H   0  0  0  0  0  0
  -28.0702  -29.1384   21.2230 H   0  0  0  0  0  0
  -26.1463  -26.1422   18.7889 H   0  0  0  0  0  0
  -24.0206  -27.3770   18.8986 H   0  0  0  0  0  0
  -23.6320  -30.6135   19.3930 H   0  0  0  0  0  0
  -22.7245  -29.2293   19.8930 H   0  0  0  0  0  0
  -25.1219  -36.1948   25.0844 H   0  0  0  0  0  0
  -20.9745  -28.3359   24.1588 H   0  0  0  0  0  0
  -20.5675  -26.2346   23.3554 H   0  0  0  0  0  0
  -21.6673  -26.7642   22.1258 H   0  0  0  0  0  0
  -19.7246  -25.6716   21.0723 H   0  0  0  0  0  0
  -19.6711  -27.3666   20.6819 H   0  0  0  0  0  0
  -17.4371  -26.6755   21.3782 H   0  0  0  0  0  0
  -18.0470  -26.0002   22.8756 H   0  0  0  0  0  0
  -19.7872  -30.7427   24.2118 H   0  0  0  0  0  0
  -17.4869  -31.6281   24.4857 H   0  0  0  0  0  0
  -15.5256  -30.2701   23.7354 H   0  0  0  0  0  0
  -15.8857  -28.0449   22.6989 H   0  0  0  0  0  0
  -24.6026  -30.7002   25.7894 H   0  0  0  0  0  0
  -24.9047  -32.2813   26.4941 H   0  0  0  0  0  0
  -25.8226  -30.8857   27.0226 H   0  0  0  0  0  0
  -26.2830  -29.6750   24.1129 H   0  0  0  0  0  0
  -27.4235  -29.7219   25.4444 H   0  0  0  0  0  0
  -27.8680  -30.4379   23.9117 H   0  0  0  0  0  0
  -27.2761  -33.3505   26.2182 H   0  0  0  0  0  0
  -28.3939  -32.6798   25.0315 H   0  0  0  0  0  0
  -28.0843  -31.8255   26.5354 H   0  0  0  0  0  0
  -28.2511  -38.0103   24.7418 H   0  0  0  0  0  0
  -28.1097  -36.2588   24.6276 H   0  0  0  0  0  0
  -27.2316  -37.1397   25.8890 H   0  0  0  0  0  0
  -20.9223  -29.8785   21.7033 H   0  0  0  0  0  0
  -26.0203  -38.2884   24.1275 H   0  0  0  0  0  0
  -25.8487  -20.2910   19.3289 H   0  0  0  0  0  0
  -23.9931  -18.8022   23.4109 H   0  0  0  0  0  0
  -23.6260  -20.3616   24.0540 H   0  0  0  0  0  0
  -25.0433  -19.5060   24.6372 H   0  0  0  0  0  0
  -26.7824  -22.6081   24.5778 H   0  0  0  0  0  0
  -25.3628  -21.7237   25.0451 H   0  0  0  0  0  0
  -25.1794  -23.3287   24.3400 H   0  0  0  0  0  0
  -24.8381  -23.0741   17.2726 H   0  0  0  0  0  0
  -23.8074  -22.9173   18.6773 H   0  0  0  0  0  0
  -24.6045  -21.5014   18.0028 H   0  0  0  0  0  0
  -26.8774  -22.5924   18.5829 H   0  0  0  0  0  0
  -25.9304  -23.9250   19.1854 H   0  0  0  0  0  0
  -27.3817  -23.9684   23.0141 H   0  0  0  0  0  0
  -25.9208  -24.7184   22.4400 H   0  0  0  0  0  0
  -25.1451  -18.2588   20.0204 H   0  0  0  0  0  0
  -24.3507  -17.9933   21.5238 H   0  0  0  0  0  0
  -26.8112  -25.0450   20.4312 H   0  0  0  0  0  0
  -28.1973  -23.9818   20.5189 H   0  0  0  0  0  0
  -28.1117  -15.9703   20.3910 H   0  0  0  0  0  0
  -29.2466  -17.0588   19.6900 H   0  0  0  0  0  0
  -29.3296  -16.6680   22.6928 H   0  0  0  0  0  0
  -30.6540  -17.1328   21.6373 H   0  0  0  0  0  0
  -27.5258  -18.5342   19.9841 H   0  0  0  0  0  0
  -28.2329  -18.7766   21.5397 H   0  0  0  0  0  0
  -29.4263  -25.7704   21.6124 H   0  0  0  0  0  0
  -27.9766  -26.5560   22.1822 H   0  0  0  0  0  0
  -29.6152  -14.4931   22.3469 H   0  0  0  0  0  0
  -26.2644  -16.6461   21.4612 H   0  0  0  0  0  0
  -26.5561  -17.8432   22.5627 H   0  0  0  0  0  0
  1 25  1  0  0  0
  1 30  2  0  0  0
  1 88  1  0  0  0
  2  3  1  0  0  0
  2 25  1  0  0  0
  2 90  1  0  0  0
  2 91  1  0  0  0
  3  4  1  0  0  0
  3 92  1  0  0  0
  3 93  1  0  0  0
  4  5  1  0  0  0
  4 94  1  0  0  0
  4 95  1  0  0  0
  5  6  1  0  0  0
  5 26  1  0  0  0
  5 96  1  0  0  0
  6 25  1  0  0  0
  6 97  1  0  0  0
  6 98  1  0  0  0
  7  8  2  0  0  0
  7 26  1  0  0  0
  7 29  1  0  0  0
  8  9  1  0  0  0
  8 22  1  0  0  0
  9 10  1  0  0  0
  9 27  2  0  0  0
 10 11  2  0  0  0
 10 15  1  0  0  0
 11 12  1  0  0  0
 11 99  1  0  0  0
 12 13  2  0  0  0
 12100  1  0  0  0
 13 14  1  0  0  0
 13 31  1  0  0  0
 14 15  2  0  0  0
 14101  1  0  0  0
 15102  1  0  0  0
 16 17  2  0  0  0
 16 21  1  0  0  0
 16 31  1  0  0  0
 17 18  1  0  0  0
 17103  1  0  0  0
 18 19  2  0  0  0
 18104  1  0  0  0
 19 20  1  0  0  0
 19 24  1  0  0  0
 20 21  2  0  0  0
 20105  1  0  0  0
 21 23  1  0  0  0
 22 28  1  0  0  0
 22 32  2  0  0  0
 26 27  1  0  0  0
 28106  1  0  0  0
 28107  1  0  0  0
 29108  1  0  0  0
 29109  1  0  0  0
 33 34  1  0  0  0
 33 66  1  0  0  0
 33 70  2  0  0  0
 34 36  1  0  0  0
 34 59  1  0  0  0
 34110  1  0  0  0
 35 44  2  0  0  0
 35 45  1  0  0  0
 35 68  1  0  0  0
 36 56  1  0  0  0
 36111  1  0  0  0
 37 39  1  0  0  0
 37 47  1  0  0  0
 37 66  1  0  0  0
 37112  1  0  0  0
 38 43  2  0  0  0
 38 46  1  0  0  0
 38 47  1  0  0  0
 39 64  1  0  0  0
 39 67  2  0  0  0
 40 52  1  0  0  0
 40 53  2  0  0  0
 40 58  1  0  0  0
 41113  1  0  0  0
 41114  1  0  0  0
 41115  1  0  0  0
 41 48  1  0  0  0
 42 43  1  0  0  0
 42 66  1  0  0  0
 42116  1  0  0  0
 42117  1  0  0  0
 43 44  1  0  0  0
 44118  1  0  0  0
 45 46  2  0  0  0
 45119  1  0  0  0
 46120  1  0  0  0
 47121  1  0  0  0
 47122  1  0  0  0
 48 56  1  0  0  0
 48 65  1  0  0  0
 48123  1  0  0  0
 49 50  1  0  0  0
 49 53  1  0  0  0
 49 64  1  0  0  0
 49124  1  0  0  0
 50 51  1  0  0  0
 50125  1  0  0  0
 50126  1  0  0  0
 51 52  1  0  0  0
 51127  1  0  0  0
 51128  1  0  0  0
 52129  1  0  0  0
 52130  1  0  0  0
 53 54  1  0  0  0
 54 55  2  0  0  0
 54131  1  0  0  0
 55 57  1  0  0  0
 55132  1  0  0  0
 56 69  2  0  0  0
 57 58  2  0  0  0
 57133  1  0  0  0
 58134  1  0  0  0
 59 60  1  0  0  0
 59 61  1  0  0  0
 59 62  1  0  0  0
 60135  1  0  0  0
 60136  1  0  0  0
 60137  1  0  0  0
 61138  1  0  0  0
 61139  1  0  0  0
 61140  1  0  0  0
 62141  1  0  0  0
 62142  1  0  0  0
 62143  1  0  0  0
 63 65  1  0  0  0
 63144  1  0  0  0
 63145  1  0  0  0
 63146  1  0  0  0
 64147  1  0  0  0
 65148  1  0  0  0
 68 87  1  0  0  0
 71 72  2  0  0  0
 71 73  1  0  0  0
 71149  1  0  0  0
 72 76  1  0  0  0
 72 80  1  0  0  0
 73 74  2  0  0  0
 73 82  1  0  0  0
 74 75  1  0  0  0
 74 77  1  0  0  0
 75 76  2  0  0  0
 75 78  1  0  0  0
 76 81  1  0  0  0
 77150  1  0  0  0
 77151  1  0  0  0
 77152  1  0  0  0
 78153  1  0  0  0
 78154  1  0  0  0
 78155  1  0  0  0
 79 80  1  0  0  0
 79156  1  0  0  0
 79157  1  0  0  0
 79158  1  0  0  0
 80159  1  0  0  0
 80160  1  0  0  0
 81 83  1  0  0  0
 81161  1  0  0  0
 81162  1  0  0  0
 82 89  1  0  0  0
 82163  1  0  0  0
 82164  1  0  0  0
 83 87  1  0  0  0
 83165  1  0  0  0
 83166  1  0  0  0
 84 85  1  0  0  0
 84 86  1  0  0  0
 84167  1  0  0  0
 84168  1  0  0  0
 85 88  1  0  0  0
 85169  1  0  0  0
 85170  1  0  0  0
 86 89  1  0  0  0
 86171  1  0  0  0
 86172  1  0  0  0
 87173  1  0  0  0
 87174  1  0  0  0
 88175  1  0  0  0
 89176  1  0  0  0
 89177  1  0  0  0
M  CHG  1  89   1
M  ISO  4   1 100  68 101  87 101  88 100
M  END
> <chiral flag>
0

> <version>
0

> <s_m_source_file>
/data/baiqing/PycharmProjects/Reinvent-master-3.2/result/LINK_invent/BTK/process_docking_weight1_custom_sum_contain_oxygen_bond_distance_aromatic_linkinvent_7_9_3/rearranged_h_0042.sdf

> <i_m_source_file_index>
93

> <r_mmod_Potential_Energy-OPLS-2005>
-108.44465637207

> <r_mmod_Stretch_Energy-OPLS-2005>
50.8415985107422

> <r_mmod_Bend_Energy-OPLS-2005>
138.526382446289

> <r_mmod_Torsional_Energy-OPLS-2005>
317.544830322266

> <r_mmod_Improper_Torsional_Energy-OPLS-2005>
10.8482027053833

> <r_mmod_Van_der_Waal_Energy-OPLS-2005>
192.170669555664

> <r_mmod_Electrostatic_Energy-OPLS-2005>
-398.593444824219

> <r_mmod_Solvation_Energy-OPLS-2005>
-438.723785400391

> <b_mmod_Minimization_Converged-OPLS-2005>
0

> <r_mmod_RMS_Derivative-OPLS-2005>
12.7759256362915

$$$$
95
                    3D
 Structure written by MMmdl.
161169  0  0  1  0            999 V2000
  -30.7024  -14.4977   20.5689 C   0  0  0  0  0  0
  -30.4384  -12.3281   19.4140 C   0  0  0  0  0  0
  -29.4950  -12.5092   18.2034 C   0  0  0  0  0  0
  -28.0183  -12.3657   18.6267 C   0  0  0  0  0  0
  -27.6708  -13.2056   19.8866 C   0  0  2  0  0  0
  -28.7250  -12.9866   20.9985 C   0  0  0  0  0  0
  -25.2701  -13.8185   20.5814 C   0  0  0  0  0  0
  -24.1896  -13.0452   20.9224 C   0  0  0  0  0  0
  -24.6445  -11.6915   20.8744 C   0  0  0  0  0  0
  -23.9091  -10.4307   21.0428 C   0  0  0  0  0  0
  -24.3638   -9.4200   21.9182 C   0  0  0  0  0  0
  -23.6310   -8.2227   22.0743 C   0  0  0  0  0  0
  -22.4281   -8.0294   21.3552 C   0  0  0  0  0  0
  -21.9892   -9.0298   20.4692 C   0  0  0  0  0  0
  -22.7229  -10.2175   20.3125 C   0  0  0  0  0  0
  -21.6848   -6.0752   22.5284 C   0  0  0  0  0  0
  -21.4010   -6.5651   23.8220 C   0  0  0  0  0  0
  -21.3657   -5.6796   24.9179 C   0  0  0  0  0  0
  -21.6040   -4.3056   24.7226 C   0  0  0  0  0  0
  -21.8810   -3.8154   23.4344 C   0  0  0  0  0  0
  -21.9196   -4.6978   22.3410 C   0  0  0  0  0  0
  -22.7933  -13.5268   21.1879 C   0  0  0  0  0  0
  -22.1664   -4.2172   21.0978 F   0  0  0  0  0  0
  -21.5621   -3.4524   25.7730 F   0  0  0  0  0  0
  -30.0502  -13.3085   20.4402 N   0  0  0  0  0  0
  -26.3112  -12.9315   20.3487 N   0  0  0  0  0  0
  -25.9388  -11.6478   20.5830 N   0  0  0  0  0  0
  -22.0586  -12.8307   22.0483 N   0  0  0  0  0  0
  -25.4457  -15.1886   20.4277 N   0  0  0  0  0  0
  -31.8281  -14.7014   20.1100 O   0  0  0  0  0  0
  -21.6627   -6.8901   21.4251 O   0  0  0  0  0  0
  -22.3589  -14.5540   20.6687 O   0  0  0  0  0  0
  -24.6196  -31.8666   23.2083 C   0  0  0  0  0  0
  -25.9078  -32.4816   23.8356 C   0  0  1  0  0  0
  -27.2031  -27.4073   20.0837 C   0  0  0  0  0  0
  -25.5903  -33.8604   24.2329 N   0  0  0  0  0  0
  -23.4021  -30.4981   21.5516 C   0  0  2  0  0  0
  -24.8345  -28.9613   20.1118 C   0  0  0  0  0  0
  -22.7418  -29.4663   22.4954 C   0  0  0  0  0  0
  -18.0270  -28.1383   22.8489 C   0  0  0  0  0  0
  -24.1480  -36.7343   23.2622 C   0  0  0  0  0  0
  -25.9314  -30.8332   21.3467 C   0  0  0  0  0  0
  -26.0001  -29.4595   20.7049 C   0  0  0  0  0  0
  -27.1879  -28.6914   20.6845 C   0  0  0  0  0  0
  -26.0064  -26.9237   19.5024 C   0  0  0  0  0  0
  -24.8329  -27.6952   19.5079 C   0  0  0  0  0  0
  -23.6041  -29.8387   20.1619 C   0  0  0  0  0  0
  -25.4082  -36.3125   24.0350 C   0  0  1  0  0  0
  -20.5868  -28.3653   23.1307 C   0  0  2  0  0  0
  -20.6755  -26.9375   22.5429 C   0  0  0  0  0  0
  -19.5740  -26.6388   21.5213 C   0  0  0  0  0  0
  -18.1916  -26.7919   22.1624 C   0  0  0  0  0  0
  -19.1525  -28.8828   23.2899 C   0  0  0  0  0  0
  -18.9444  -30.1424   23.8923 C   0  0  0  0  0  0
  -17.6449  -30.6570   24.0569 C   0  0  0  0  0  0
  -25.9012  -34.9485   23.5149 C   0  0  0  0  0  0
  -16.5342  -29.9092   23.6301 C   0  0  0  0  0  0
  -16.7260  -28.6517   23.0314 C   0  0  0  0  0  0
  -26.4499  -31.6550   25.0660 C   0  0  0  0  0  0
  -25.3812  -31.3612   26.1442 C   0  0  0  0  0  0
  -27.0247  -30.2991   24.5928 C   0  0  0  0  0  0
  -27.6112  -32.4199   25.7428 C   0  0  0  0  0  0
  -27.5579  -37.1810   24.8445 C   0  0  0  0  0  0
  -21.4133  -29.3048   22.3719 N   0  0  0  0  0  0
  -26.4259  -37.3823   23.9436 N   0  0  0  0  0  0
  -24.6722  -31.0792   22.0963 N   0  0  0  0  0  0
  -23.4197  -28.8141   23.2951 O   0  0  0  0  0  0
  -28.3830  -26.6834   20.0794 O   0  0  0  0  0  0
  -26.5583  -34.8947   22.4719 O   0  0  0  0  0  0
  -23.5397  -32.1361   23.7532 O   0  0  0  0  0  0
  -28.7774  -20.3490   20.3631 C   0  0  0  0  0  0
  -28.2213  -21.5558   20.8733 C   0  0  0  0  0  0
  -28.7492  -19.1499   21.1200 C   0  0  0  0  0  0
  -27.6679  -21.4983   22.1815 C   0  0  0  0  0  0
  -28.1832  -19.2285   22.4130 C   0  0  0  0  0  0
  -26.9558  -22.6525   22.8664 C   0  0  0  0  0  0
  -28.0235  -18.0277   23.3247 C   0  0  0  0  0  0
  -28.1960  -22.7895   19.9339 C   0  0  0  0  0  0
  -29.1405  -17.7949   20.4887 C   0  0  0  0  0  0
  -28.0688  -24.2320   20.5205 C   0  0  0  0  0  0
  -30.2562  -16.9420   21.1737 C   0  0  0  0  0  0
  -28.4237  -25.3541   19.5160 C   0  0  0  0  0  0
  -27.6826  -20.3715   22.9215 N   0  0  0  0  0  0
  -29.9614  -15.4953   21.0924 N   0  0  0  0  0  0
  -31.4792  -12.4368   19.0999 H   0  0  0  0  0  0
  -30.3551  -11.3139   19.8121 H   0  0  0  0  0  0
  -29.7314  -11.7717   17.4341 H   0  0  0  0  0  0
  -29.6478  -13.4849   17.7441 H   0  0  0  0  0  0
  -27.8356  -11.3070   18.8202 H   0  0  0  0  0  0
  -27.3580  -12.6401   17.8015 H   0  0  0  0  0  0
  -27.7095  -14.2553   19.5914 H   0  0  0  0  0  0
  -28.7214  -11.9499   21.3349 H   0  0  0  0  0  0
  -28.4989  -13.5761   21.8875 H   0  0  0  0  0  0
  -25.2806   -9.5660   22.4738 H   0  0  0  0  0  0
  -24.0042   -7.4591   22.7431 H   0  0  0  0  0  0
  -21.0787   -8.8838   19.9012 H   0  0  0  0  0  0
  -22.3693  -10.9740   19.6280 H   0  0  0  0  0  0
  -21.1999   -7.6159   23.9734 H   0  0  0  0  0  0
  -21.1485   -6.0527   25.9088 H   0  0  0  0  0  0
  -22.0589   -2.7612   23.2830 H   0  0  0  0  0  0
  -22.4263  -12.0079   22.4983 H   0  0  0  0  0  0
  -21.1240  -13.1363   22.2754 H   0  0  0  0  0  0
  -24.6943  -15.8508   20.5841 H   0  0  0  0  0  0
  -26.3046  -15.6301   20.1278 H   0  0  0  0  0  0
  -26.7161  -32.5523   23.1114 H   0  0  0  0  0  0
  -25.0052  -33.9729   25.0481 H   0  0  0  0  0  0
  -22.6909  -31.3166   21.4189 H   0  0  0  0  0  0
  -23.3738  -35.9673   23.3241 H   0  0  0  0  0  0
  -24.3594  -36.8999   22.2045 H   0  0  0  0  0  0
  -23.7231  -37.6551   23.6631 H   0  0  0  0  0  0
  -26.0152  -31.5840   20.5587 H   0  0  0  0  0  0
  -26.8343  -30.9078   21.9419 H   0  0  0  0  0  0
  -28.0910  -29.0764   21.1365 H   0  0  0  0  0  0
  -25.9349  -25.9492   19.0454 H   0  0  0  0  0  0
  -23.9309  -27.3098   19.0487 H   0  0  0  0  0  0
  -23.7177  -30.6152   19.4037 H   0  0  0  0  0  0
  -22.7234  -29.2660   19.8664 H   0  0  0  0  0  0
  -25.1244  -36.1986   25.0839 H   0  0  0  0  0  0
  -20.9983  -28.3244   24.1418 H   0  0  0  0  0  0
  -20.5610  -26.2281   23.3634 H   0  0  0  0  0  0
  -21.6627  -26.7361   22.1262 H   0  0  0  0  0  0
  -19.6895  -25.6310   21.1217 H   0  0  0  0  0  0
  -19.6705  -27.3225   20.6766 H   0  0  0  0  0  0
  -17.4197  -26.6669   21.4018 H   0  0  0  0  0  0
  -18.0288  -26.0047   22.9013 H   0  0  0  0  0  0
  -19.7912  -30.7228   24.2329 H   0  0  0  0  0  0
  -17.4996  -31.6241   24.5173 H   0  0  0  0  0  0
  -15.5338  -30.3019   23.7563 H   0  0  0  0  0  0
  -15.8666  -28.0852   22.6988 H   0  0  0  0  0  0
  -24.6090  -30.6794   25.7849 H   0  0  0  0  0  0
  -24.8873  -32.2731   26.4796 H   0  0  0  0  0  0
  -25.8260  -30.8935   27.0239 H   0  0  0  0  0  0
  -26.2749  -29.6869   24.0901 H   0  0  0  0  0  0
  -27.3964  -29.7067   25.4299 H   0  0  0  0  0  0
  -27.8601  -30.4296   23.9043 H   0  0  0  0  0  0
  -27.2772  -33.3518   26.1970 H   0  0  0  0  0  0
  -28.3937  -32.6694   25.0261 H   0  0  0  0  0  0
  -28.0722  -31.8312   26.5362 H   0  0  0  0  0  0
  -28.2560  -38.0146   24.7563 H   0  0  0  0  0  0
  -28.1116  -36.2701   24.6150 H   0  0  0  0  0  0
  -27.2317  -37.1311   25.8846 H   0  0  0  0  0  0
  -20.9275  -29.8860   21.7039 H   0  0  0  0  0  0
  -26.0155  -38.2882   24.1538 H   0  0  0  0  0  0
  -29.1668  -20.3313   19.3537 H   0  0  0  0  0  0
  -26.1765  -23.0469   22.2201 H   0  0  0  0  0  0
  -27.6547  -23.4448   23.1380 H   0  0  0  0  0  0
  -26.4493  -22.3344   23.7770 H   0  0  0  0  0  0
  -28.8677  -17.9614   24.0096 H   0  0  0  0  0  0
  -27.9481  -17.0930   22.7721 H   0  0  0  0  0  0
  -27.1163  -18.1149   23.9227 H   0  0  0  0  0  0
  -27.4027  -22.6329   19.2009 H   0  0  0  0  0  0
  -29.1282  -22.7568   19.3649 H   0  0  0  0  0  0
  -29.4212  -17.9478   19.4450 H   0  0  0  0  0  0
  -28.2179  -17.2168   20.4601 H   0  0  0  0  0  0
  -28.7553  -24.3316   21.3591 H   0  0  0  0  0  0
  -27.0632  -24.4295   20.8857 H   0  0  0  0  0  0
  -30.3252  -17.1764   22.2320 H   0  0  0  0  0  0
  -31.2363  -17.1882   20.7582 H   0  0  0  0  0  0
  -27.8463  -25.2605   18.5939 H   0  0  0  0  0  0
  -29.4534  -25.1928   19.2045 H   0  0  0  0  0  0
  -29.0601  -15.2058   21.4341 H   0  0  0  0  0  0
  1 25  1  0  0  0
  1 30  2  0  0  0
  1 84  1  0  0  0
  2  3  1  0  0  0
  2 25  1  0  0  0
  2 85  1  0  0  0
  2 86  1  0  0  0
  3  4  1  0  0  0
  3 87  1  0  0  0
  3 88  1  0  0  0
  4  5  1  0  0  0
  4 89  1  0  0  0
  4 90  1  0  0  0
  5  6  1  0  0  0
  5 26  1  0  0  0
  5 91  1  0  0  0
  6 25  1  0  0  0
  6 92  1  0  0  0
  6 93  1  0  0  0
  7  8  2  0  0  0
  7 26  1  0  0  0
  7 29  1  0  0  0
  8  9  1  0  0  0
  8 22  1  0  0  0
  9 10  1  0  0  0
  9 27  2  0  0  0
 10 11  2  0  0  0
 10 15  1  0  0  0
 11 12  1  0  0  0
 11 94  1  0  0  0
 12 13  2  0  0  0
 12 95  1  0  0  0
 13 14  1  0  0  0
 13 31  1  0  0  0
 14 15  2  0  0  0
 14 96  1  0  0  0
 15 97  1  0  0  0
 16 17  2  0  0  0
 16 21  1  0  0  0
 16 31  1  0  0  0
 17 18  1  0  0  0
 17 98  1  0  0  0
 18 19  2  0  0  0
 18 99  1  0  0  0
 19 20  1  0  0  0
 19 24  1  0  0  0
 20 21  2  0  0  0
 20100  1  0  0  0
 21 23  1  0  0  0
 22 28  1  0  0  0
 22 32  2  0  0  0
 26 27  1  0  0  0
 28101  1  0  0  0
 28102  1  0  0  0
 29103  1  0  0  0
 29104  1  0  0  0
 33 34  1  0  0  0
 33 66  1  0  0  0
 33 70  2  0  0  0
 34 36  1  0  0  0
 34 59  1  0  0  0
 34105  1  0  0  0
 35 44  2  0  0  0
 35 45  1  0  0  0
 35 68  1  0  0  0
 36 56  1  0  0  0
 36106  1  0  0  0
 37 39  1  0  0  0
 37 47  1  0  0  0
 37 66  1  0  0  0
 37107  1  0  0  0
 38 43  2  0  0  0
 38 46  1  0  0  0
 38 47  1  0  0  0
 39 64  1  0  0  0
 39 67  2  0  0  0
 40 52  1  0  0  0
 40 53  2  0  0  0
 40 58  1  0  0  0
 41108  1  0  0  0
 41109  1  0  0  0
 41110  1  0  0  0
 41 48  1  0  0  0
 42 43  1  0  0  0
 42 66  1  0  0  0
 42111  1  0  0  0
 42112  1  0  0  0
 43 44  1  0  0  0
 44113  1  0  0  0
 45 46  2  0  0  0
 45114  1  0  0  0
 46115  1  0  0  0
 47116  1  0  0  0
 47117  1  0  0  0
 48 56  1  0  0  0
 48 65  1  0  0  0
 48118  1  0  0  0
 49 50  1  0  0  0
 49 53  1  0  0  0
 49 64  1  0  0  0
 49119  1  0  0  0
 50 51  1  0  0  0
 50120  1  0  0  0
 50121  1  0  0  0
 51 52  1  0  0  0
 51122  1  0  0  0
 51123  1  0  0  0
 52124  1  0  0  0
 52125  1  0  0  0
 53 54  1  0  0  0
 54 55  2  0  0  0
 54126  1  0  0  0
 55 57  1  0  0  0
 55127  1  0  0  0
 56 69  2  0  0  0
 57 58  2  0  0  0
 57128  1  0  0  0
 58129  1  0  0  0
 59 60  1  0  0  0
 59 61  1  0  0  0
 59 62  1  0  0  0
 60130  1  0  0  0
 60131  1  0  0  0
 60132  1  0  0  0
 61133  1  0  0  0
 61134  1  0  0  0
 61135  1  0  0  0
 62136  1  0  0  0
 62137  1  0  0  0
 62138  1  0  0  0
 63 65  1  0  0  0
 63139  1  0  0  0
 63140  1  0  0  0
 63141  1  0  0  0
 64142  1  0  0  0
 65143  1  0  0  0
 68 82  1  0  0  0
 71 72  2  0  0  0
 71 73  1  0  0  0
 71144  1  0  0  0
 72 74  1  0  0  0
 72 78  1  0  0  0
 73 75  2  0  0  0
 73 79  1  0  0  0
 74 76  1  0  0  0
 74 83  2  0  0  0
 75 77  1  0  0  0
 75 83  1  0  0  0
 76145  1  0  0  0
 76146  1  0  0  0
 76147  1  0  0  0
 77148  1  0  0  0
 77149  1  0  0  0
 77150  1  0  0  0
 78 80  1  0  0  0
 78151  1  0  0  0
 78152  1  0  0  0
 79 81  1  0  0  0
 79153  1  0  0  0
 79154  1  0  0  0
 80 82  1  0  0  0
 80155  1  0  0  0
 80156  1  0  0  0
 81 84  1  0  0  0
 81157  1  0  0  0
 81158  1  0  0  0
 82159  1  0  0  0
 82160  1  0  0  0
 84161  1  0  0  0
M  ISO  4   1 100  68 101  82 101  84 100
M  END
> <chiral flag>
0

> <version>
0

> <s_m_source_file>
/data/baiqing/PycharmProjects/Reinvent-master-3.2/result/LINK_invent/BTK/process_docking_weight1_custom_sum_contain_oxygen_bond_distance_aromatic_linkinvent_7_9_3/rearranged_h_0042.sdf

> <i_m_source_file_index>
94

> <r_mmod_Potential_Energy-OPLS-2005>
-247.529312133789

> <r_mmod_Stretch_Energy-OPLS-2005>
44.8504371643066

> <r_mmod_Bend_Energy-OPLS-2005>
123.672676086426

> <r_mmod_Torsional_Energy-OPLS-2005>
198.148681640625

> <r_mmod_Improper_Torsional_Energy-OPLS-2005>
4.43292045593262

> <r_mmod_Van_der_Waal_Energy-OPLS-2005>
158.848266601562

> <r_mmod_Electrostatic_Energy-OPLS-2005>
-567.262573242188

> <r_mmod_Solvation_Energy-OPLS-2005>
-226.50993347168

> <b_mmod_Minimization_Converged-OPLS-2005>
0

> <r_mmod_RMS_Derivative-OPLS-2005>
5.60323143005371

$$$$
96
                    3D
 Structure written by MMmdl.
159167  0  0  1  0            999 V2000
  -30.6614  -14.5508   20.5344 C   0  0  0  0  0  0
  -30.4365  -12.3492   19.4326 C   0  0  0  0  0  0
  -29.5033  -12.5191   18.2156 C   0  0  0  0  0  0
  -28.0283  -12.3510   18.6300 C   0  0  0  0  0  0
  -27.6611  -13.2062   19.8708 C   0  0  2  0  0  0
  -28.7053  -13.0227   20.9958 C   0  0  0  0  0  0
  -25.2593  -13.8155   20.5650 C   0  0  0  0  0  0
  -24.1843  -13.0445   20.9164 C   0  0  0  0  0  0
  -24.6391  -11.6904   20.8737 C   0  0  0  0  0  0
  -23.9057  -10.4301   21.0421 C   0  0  0  0  0  0
  -24.3603   -9.4228   21.9216 C   0  0  0  0  0  0
  -23.6298   -8.2246   22.0774 C   0  0  0  0  0  0
  -22.4282   -8.0277   21.3557 C   0  0  0  0  0  0
  -21.9931   -9.0230   20.4640 C   0  0  0  0  0  0
  -22.7233  -10.2123   20.3071 C   0  0  0  0  0  0
  -21.6833   -6.0751   22.5282 C   0  0  0  0  0  0
  -21.3984   -6.5649   23.8215 C   0  0  0  0  0  0
  -21.3696   -5.6790   24.9172 C   0  0  0  0  0  0
  -21.6076   -4.3055   24.7221 C   0  0  0  0  0  0
  -21.8800   -3.8164   23.4327 C   0  0  0  0  0  0
  -21.9183   -4.6988   22.3390 C   0  0  0  0  0  0
  -22.7860  -13.5234   21.1833 C   0  0  0  0  0  0
  -22.1642   -4.2183   21.0960 F   0  0  0  0  0  0
  -21.5697   -3.4534   25.7737 F   0  0  0  0  0  0
  -30.0276  -13.3465   20.4376 N   0  0  0  0  0  0
  -26.3029  -12.9313   20.3329 N   0  0  0  0  0  0
  -25.9318  -11.6482   20.5753 N   0  0  0  0  0  0
  -22.0479  -12.8229   22.0382 N   0  0  0  0  0  0
  -25.4339  -15.1871   20.4008 N   0  0  0  0  0  0
  -31.8134  -14.7232   20.1266 O   0  0  0  0  0  0
  -21.6634   -6.8888   21.4244 O   0  0  0  0  0  0
  -22.3570  -14.5550   20.6678 O   0  0  0  0  0  0
  -24.6196  -31.8637   23.2030 C   0  0  0  0  0  0
  -25.9054  -32.4799   23.8367 C   0  0  1  0  0  0
  -27.2321  -27.3600   20.1193 C   0  0  0  0  0  0
  -25.5863  -33.8592   24.2285 N   0  0  0  0  0  0
  -23.4125  -30.4832   21.5462 C   0  0  2  0  0  0
  -24.8606  -28.9422   20.1117 C   0  0  0  0  0  0
  -22.7454  -29.4620   22.4972 C   0  0  0  0  0  0
  -18.0280  -28.1377   22.8506 C   0  0  0  0  0  0
  -24.1456  -36.7279   23.2657 C   0  0  0  0  0  0
  -25.9492  -30.8045   21.3700 C   0  0  0  0  0  0
  -26.0231  -29.4338   20.7172 C   0  0  0  0  0  0
  -27.2083  -28.6526   20.7143 C   0  0  0  0  0  0
  -26.0520  -26.9122   19.4811 C   0  0  0  0  0  0
  -24.8757  -27.6845   19.4868 C   0  0  0  0  0  0
  -23.6244  -29.8143   20.1621 C   0  0  0  0  0  0
  -25.4087  -36.3096   24.0352 C   0  0  1  0  0  0
  -20.5881  -28.3657   23.1307 C   0  0  2  0  0  0
  -20.6761  -26.9381   22.5419 C   0  0  0  0  0  0
  -19.5726  -26.6368   21.5231 C   0  0  0  0  0  0
  -18.1912  -26.7919   22.1651 C   0  0  0  0  0  0
  -19.1541  -28.8838   23.2898 C   0  0  0  0  0  0
  -18.9474  -30.1450   23.8891 C   0  0  0  0  0  0
  -17.6473  -30.6583   24.0566 C   0  0  0  0  0  0
  -25.9026  -34.9465   23.5130 C   0  0  0  0  0  0
  -16.5359  -29.9084   23.6334 C   0  0  0  0  0  0
  -16.7274  -28.6511   23.0349 C   0  0  0  0  0  0
  -26.4449  -31.6613   25.0734 C   0  0  0  0  0  0
  -25.3688  -31.3741   26.1470 C   0  0  0  0  0  0
  -27.0311  -30.3059   24.6150 C   0  0  0  0  0  0
  -27.6007  -32.4375   25.7476 C   0  0  0  0  0  0
  -27.5557  -37.1781   24.8484 C   0  0  0  0  0  0
  -21.4182  -29.3012   22.3711 N   0  0  0  0  0  0
  -26.4270  -37.3789   23.9433 N   0  0  0  0  0  0
  -24.6789  -31.0670   22.0958 N   0  0  0  0  0  0
  -23.4214  -28.8180   23.3042 O   0  0  0  0  0  0
  -28.3894  -26.5852   20.1873 O   0  0  0  0  0  0
  -26.5626  -34.8938   22.4711 O   0  0  0  0  0  0
  -23.5372  -32.1409   23.7379 O   0  0  0  0  0  0
  -28.9914  -19.4595   20.4345 C   0  0  0  0  0  0
  -27.8499  -20.2478   20.0878 C   0  0  0  0  0  0
  -29.9513  -20.4309   20.6601 C   0  0  0  0  0  0
  -26.4860  -19.7538   19.6946 C   0  0  0  0  0  0
  -31.3935  -20.2969   21.0311 C   0  0  0  0  0  0
  -28.9571  -17.9083   20.4605 C   0  0  0  0  0  0
  -29.2060  -24.2975   20.9414 C   0  0  0  0  0  0
  -30.0016  -23.0378   20.4182 C   0  0  0  0  0  0
  -30.1956  -17.0506   20.8946 C   0  0  0  0  0  0
  -28.3605  -25.1431   19.9297 C   0  0  0  0  0  0
  -28.0808  -21.5552   20.0859 N   0  0  0  0  0  0
  -29.3691  -21.6940   20.4495 N   0  0  0  0  0  0
  -29.8858  -15.5938   20.9250 N   0  0  0  0  0  0
  -31.4765  -12.4727   19.1261 H   0  0  0  0  0  0
  -30.3679  -11.3387   19.8394 H   0  0  0  0  0  0
  -29.7611  -11.8019   17.4361 H   0  0  0  0  0  0
  -29.6472  -13.5088   17.7801 H   0  0  0  0  0  0
  -27.8653  -11.2954   18.8513 H   0  0  0  0  0  0
  -27.3720  -12.5972   17.7950 H   0  0  0  0  0  0
  -27.6938  -14.2477   19.5485 H   0  0  0  0  0  0
  -28.7030  -11.9928   21.3539 H   0  0  0  0  0  0
  -28.4639  -13.6365   21.8653 H   0  0  0  0  0  0
  -25.2736   -9.5721   22.4805 H   0  0  0  0  0  0
  -24.0037   -7.4637   22.7480 H   0  0  0  0  0  0
  -21.0906   -8.8710   19.8895 H   0  0  0  0  0  0
  -22.3701  -10.9662   19.6192 H   0  0  0  0  0  0
  -21.1903   -7.6144   23.9723 H   0  0  0  0  0  0
  -21.1582   -6.0520   25.9087 H   0  0  0  0  0  0
  -22.0556   -2.7635   23.2782 H   0  0  0  0  0  0
  -22.4036  -11.9838   22.4720 H   0  0  0  0  0  0
  -21.1112  -13.1304   22.2599 H   0  0  0  0  0  0
  -24.6613  -15.8381   20.4849 H   0  0  0  0  0  0
  -26.2742  -15.6148   20.0361 H   0  0  0  0  0  0
  -26.7125  -32.5486   23.1123 H   0  0  0  0  0  0
  -24.9954  -33.9733   25.0391 H   0  0  0  0  0  0
  -22.7041  -31.3016   21.4023 H   0  0  0  0  0  0
  -23.3738  -35.9591   23.3344 H   0  0  0  0  0  0
  -24.3538  -36.8865   22.2064 H   0  0  0  0  0  0
  -23.7175  -37.6475   23.6657 H   0  0  0  0  0  0
  -26.0775  -31.5669   20.6020 H   0  0  0  0  0  0
  -26.8315  -30.8535   21.9958 H   0  0  0  0  0  0
  -28.1018  -29.0240   21.1977 H   0  0  0  0  0  0
  -26.0120  -25.9625   18.9697 H   0  0  0  0  0  0
  -23.9870  -27.3043   19.0036 H   0  0  0  0  0  0
  -23.7343  -30.5878   19.4014 H   0  0  0  0  0  0
  -22.7478  -29.2357   19.8669 H   0  0  0  0  0  0
  -25.1262  -36.1954   25.0847 H   0  0  0  0  0  0
  -20.9978  -28.3206   24.1427 H   0  0  0  0  0  0
  -20.5665  -26.2261   23.3612 H   0  0  0  0  0  0
  -21.6624  -26.7402   22.1196 H   0  0  0  0  0  0
  -19.6869  -25.6286   21.1242 H   0  0  0  0  0  0
  -19.6649  -27.3202   20.6779 H   0  0  0  0  0  0
  -17.4173  -26.6687   21.4053 H   0  0  0  0  0  0
  -18.0288  -26.0055   22.9043 H   0  0  0  0  0  0
  -19.7949  -30.7274   24.2234 H   0  0  0  0  0  0
  -17.5029  -31.6262   24.5173 H   0  0  0  0  0  0
  -15.5361  -30.2991   23.7648 H   0  0  0  0  0  0
  -15.8677  -28.0834   22.7041 H   0  0  0  0  0  0
  -24.5820  -30.7143   25.7792 H   0  0  0  0  0  0
  -24.8927  -32.2912   26.4955 H   0  0  0  0  0  0
  -25.8008  -30.8858   27.0213 H   0  0  0  0  0  0
  -26.2883  -29.6799   24.1187 H   0  0  0  0  0  0
  -27.4069  -29.7317   25.4629 H   0  0  0  0  0  0
  -27.8716  -30.4407   23.9337 H   0  0  0  0  0  0
  -27.2595  -33.3661   26.2070 H   0  0  0  0  0  0
  -28.3767  -32.6974   25.0264 H   0  0  0  0  0  0
  -28.0728  -31.8509   26.5364 H   0  0  0  0  0  0
  -28.2611  -38.0047   24.7533 H   0  0  0  0  0  0
  -28.1019  -36.2585   24.6317 H   0  0  0  0  0  0
  -27.2283  -37.1436   25.8892 H   0  0  0  0  0  0
  -20.9356  -29.8734   21.6922 H   0  0  0  0  0  0
  -26.0163  -38.2868   24.1448 H   0  0  0  0  0  0
  -26.1027  -19.0278   20.4119 H   0  0  0  0  0  0
  -26.5226  -19.2678   18.7194 H   0  0  0  0  0  0
  -25.7597  -20.5634   19.6215 H   0  0  0  0  0  0
  -32.0349  -20.6190   20.2117 H   0  0  0  0  0  0
  -31.6628  -19.2725   21.2728 H   0  0  0  0  0  0
  -31.6306  -20.9020   21.9064 H   0  0  0  0  0  0
  -28.6735  -17.5616   19.4648 H   0  0  0  0  0  0
  -28.1223  -17.6024   21.0919 H   0  0  0  0  0  0
  -29.9544  -24.9768   21.3495 H   0  0  0  0  0  0
  -28.5922  -24.0216   21.7999 H   0  0  0  0  0  0
  -30.9020  -22.9617   21.0267 H   0  0  0  0  0  0
  -30.3694  -23.2190   19.4078 H   0  0  0  0  0  0
  -31.0329  -17.2403   20.2201 H   0  0  0  0  0  0
  -30.5212  -17.3417   21.8953 H   0  0  0  0  0  0
  -27.3585  -24.7209   19.9575 H   0  0  0  0  0  0
  -28.7349  -24.9886   18.9171 H   0  0  0  0  0  0
  -28.9541  -15.3454   21.2225 H   0  0  0  0  0  0
  1 25  1  0  0  0
  1 30  2  0  0  0
  1 83  1  0  0  0
  2  3  1  0  0  0
  2 25  1  0  0  0
  2 84  1  0  0  0
  2 85  1  0  0  0
  3  4  1  0  0  0
  3 86  1  0  0  0
  3 87  1  0  0  0
  4  5  1  0  0  0
  4 88  1  0  0  0
  4 89  1  0  0  0
  5  6  1  0  0  0
  5 26  1  0  0  0
  5 90  1  0  0  0
  6 25  1  0  0  0
  6 91  1  0  0  0
  6 92  1  0  0  0
  7  8  2  0  0  0
  7 26  1  0  0  0
  7 29  1  0  0  0
  8  9  1  0  0  0
  8 22  1  0  0  0
  9 10  1  0  0  0
  9 27  2  0  0  0
 10 11  2  0  0  0
 10 15  1  0  0  0
 11 12  1  0  0  0
 11 93  1  0  0  0
 12 13  2  0  0  0
 12 94  1  0  0  0
 13 14  1  0  0  0
 13 31  1  0  0  0
 14 15  2  0  0  0
 14 95  1  0  0  0
 15 96  1  0  0  0
 16 17  2  0  0  0
 16 21  1  0  0  0
 16 31  1  0  0  0
 17 18  1  0  0  0
 17 97  1  0  0  0
 18 19  2  0  0  0
 18 98  1  0  0  0
 19 20  1  0  0  0
 19 24  1  0  0  0
 20 21  2  0  0  0
 20 99  1  0  0  0
 21 23  1  0  0  0
 22 28  1  0  0  0
 22 32  2  0  0  0
 26 27  1  0  0  0
 28100  1  0  0  0
 28101  1  0  0  0
 29102  1  0  0  0
 29103  1  0  0  0
 33 34  1  0  0  0
 33 66  1  0  0  0
 33 70  2  0  0  0
 34 36  1  0  0  0
 34 59  1  0  0  0
 34104  1  0  0  0
 35 44  2  0  0  0
 35 45  1  0  0  0
 35 68  1  0  0  0
 36 56  1  0  0  0
 36105  1  0  0  0
 37 39  1  0  0  0
 37 47  1  0  0  0
 37 66  1  0  0  0
 37106  1  0  0  0
 38 43  2  0  0  0
 38 46  1  0  0  0
 38 47  1  0  0  0
 39 64  1  0  0  0
 39 67  2  0  0  0
 40 52  1  0  0  0
 40 53  2  0  0  0
 40 58  1  0  0  0
 41107  1  0  0  0
 41108  1  0  0  0
 41109  1  0  0  0
 41 48  1  0  0  0
 42 43  1  0  0  0
 42 66  1  0  0  0
 42110  1  0  0  0
 42111  1  0  0  0
 43 44  1  0  0  0
 44112  1  0  0  0
 45 46  2  0  0  0
 45113  1  0  0  0
 46114  1  0  0  0
 47115  1  0  0  0
 47116  1  0  0  0
 48 56  1  0  0  0
 48 65  1  0  0  0
 48117  1  0  0  0
 49 50  1  0  0  0
 49 53  1  0  0  0
 49 64  1  0  0  0
 49118  1  0  0  0
 50 51  1  0  0  0
 50119  1  0  0  0
 50120  1  0  0  0
 51 52  1  0  0  0
 51121  1  0  0  0
 51122  1  0  0  0
 52123  1  0  0  0
 52124  1  0  0  0
 53 54  1  0  0  0
 54 55  2  0  0  0
 54125  1  0  0  0
 55 57  1  0  0  0
 55126  1  0  0  0
 56 69  2  0  0  0
 57 58  2  0  0  0
 57127  1  0  0  0
 58128  1  0  0  0
 59 60  1  0  0  0
 59 61  1  0  0  0
 59 62  1  0  0  0
 60129  1  0  0  0
 60130  1  0  0  0
 60131  1  0  0  0
 61132  1  0  0  0
 61133  1  0  0  0
 61134  1  0  0  0
 62135  1  0  0  0
 62136  1  0  0  0
 62137  1  0  0  0
 63 65  1  0  0  0
 63138  1  0  0  0
 63139  1  0  0  0
 63140  1  0  0  0
 64141  1  0  0  0
 65142  1  0  0  0
 68 80  1  0  0  0
 71 72  1  0  0  0
 71 73  2  0  0  0
 71 76  1  0  0  0
 72 74  1  0  0  0
 72 81  2  0  0  0
 73 75  1  0  0  0
 73 82  1  0  0  0
 74143  1  0  0  0
 74144  1  0  0  0
 74145  1  0  0  0
 75146  1  0  0  0
 75147  1  0  0  0
 75148  1  0  0  0
 76 79  1  0  0  0
 76149  1  0  0  0
 76150  1  0  0  0
 77 78  1  0  0  0
 77 80  1  0  0  0
 77151  1  0  0  0
 77152  1  0  0  0
 78 82  1  0  0  0
 78153  1  0  0  0
 78154  1  0  0  0
 79 83  1  0  0  0
 79155  1  0  0  0
 79156  1  0  0  0
 80157  1  0  0  0
 80158  1  0  0  0
 81 82  1  0  0  0
 83159  1  0  0  0
M  ISO  4   1 100  68 101  80 101  83 100
M  END
> <chiral flag>
0

> <version>
0

> <s_m_source_file>
/data/baiqing/PycharmProjects/Reinvent-master-3.2/result/LINK_invent/BTK/process_docking_weight1_custom_sum_contain_oxygen_bond_distance_aromatic_linkinvent_7_9_3/rearranged_h_0042.sdf

> <i_m_source_file_index>
95

> <r_mmod_Potential_Energy-OPLS-2005>
-110.891723632812

> <r_mmod_Stretch_Energy-OPLS-2005>
54.5083541870117

> <r_mmod_Bend_Energy-OPLS-2005>
133.198303222656

> <r_mmod_Torsional_Energy-OPLS-2005>
216.065368652344

> <r_mmod_Improper_Torsional_Energy-OPLS-2005>
5.0435643196106

> <r_mmod_Van_der_Waal_Energy-OPLS-2005>
121.118370056152

> <r_mmod_Electrostatic_Energy-OPLS-2005>
-446.367156982422

> <r_mmod_Solvation_Energy-OPLS-2005>
-222.652191162109

> <b_mmod_Minimization_Converged-OPLS-2005>
0

> <r_mmod_RMS_Derivative-OPLS-2005>
2.7252824306488

$$$$
