0
                    3D
 Structure written by MMmdl.
153162  0  0  1  0            999 V2000
  -30.5562  -14.9030   20.4249 C   0  0  0  0  0  0
  -30.4303  -12.5582   19.4921 C   0  0  0  0  0  0
  -29.5137  -12.5310   18.2487 C   0  0  0  0  0  0
  -28.0425  -12.3331   18.6601 C   0  0  0  0  0  0
  -27.6273  -13.2510   19.8409 C   0  0  2  0  0  0
  -28.6699  -13.2574   20.9772 C   0  0  0  0  0  0
  -25.2433  -13.8229   20.5718 C   0  0  0  0  0  0
  -24.1755  -13.0444   20.9229 C   0  0  0  0  0  0
  -24.6380  -11.6929   20.8750 C   0  0  0  0  0  0
  -23.9081  -10.4288   21.0396 C   0  0  0  0  0  0
  -24.3634   -9.4206   21.9178 C   0  0  0  0  0  0
  -23.6307   -8.2243   22.0743 C   0  0  0  0  0  0
  -22.4285   -8.0279   21.3539 C   0  0  0  0  0  0
  -21.9921   -9.0248   20.4639 C   0  0  0  0  0  0
  -22.7247  -10.2130   20.3049 C   0  0  0  0  0  0
  -21.6851   -6.0744   22.5282 C   0  0  0  0  0  0
  -21.4019   -6.5644   23.8219 C   0  0  0  0  0  0
  -21.3664   -5.6793   24.9179 C   0  0  0  0  0  0
  -21.6047   -4.3056   24.7225 C   0  0  0  0  0  0
  -21.8820   -3.8150   23.4344 C   0  0  0  0  0  0
  -21.9193   -4.6972   22.3404 C   0  0  0  0  0  0
  -22.7775  -13.5208   21.1888 C   0  0  0  0  0  0
  -22.1653   -4.2156   21.0981 F   0  0  0  0  0  0
  -21.5626   -3.4541   25.7740 F   0  0  0  0  0  0
  -29.9495  -13.6531   20.3791 N   0  0  0  0  0  0
  -26.2867  -12.9473   20.3262 N   0  0  0  0  0  0
  -25.9316  -11.6596   20.5739 N   0  0  0  0  0  0
  -22.0432  -12.8197   22.0448 N   0  0  0  0  0  0
  -25.4102  -15.1964   20.4168 N   0  0  0  0  0  0
  -31.7592  -14.9598   20.1476 O   0  0  0  0  0  0
  -21.6641   -6.8884   21.4243 O   0  0  0  0  0  0
  -22.3455  -14.5502   20.6723 O   0  0  0  0  0  0
  -24.6403  -31.8451   23.1886 C   0  0  0  0  0  0
  -25.9183  -32.4701   23.8274 C   0  0  1  0  0  0
  -27.2159  -27.1494   20.1434 C   0  0  0  0  0  0
  -25.5938  -33.8513   24.2180 N   0  0  0  0  0  0
  -23.4434  -30.4633   21.5344 C   0  0  2  0  0  0
  -24.8911  -28.8918   20.1057 C   0  0  0  0  0  0
  -22.7555  -29.4544   22.4877 C   0  0  0  0  0  0
  -18.0300  -28.1394   22.8482 C   0  0  0  0  0  0
  -24.1487  -36.7263   23.2643 C   0  0  0  0  0  0
  -25.9971  -30.7211   21.3860 C   0  0  0  0  0  0
  -26.0651  -29.3338   20.7270 C   0  0  0  0  0  0
  -27.2245  -28.4760   20.7328 C   0  0  0  0  0  0
  -26.0148  -26.8016   19.4865 C   0  0  0  0  0  0
  -24.8778  -27.6396   19.4718 C   0  0  0  0  0  0
  -23.6669  -29.7925   20.1528 C   0  0  0  0  0  0
  -25.4123  -36.3047   24.0316 C   0  0  1  0  0  0
  -20.5908  -28.3707   23.1248 C   0  0  2  0  0  0
  -20.6786  -26.9413   22.5409 C   0  0  0  0  0  0
  -19.5757  -26.6372   21.5220 C   0  0  0  0  0  0
  -18.1937  -26.7931   22.1626 C   0  0  0  0  0  0
  -19.1556  -28.8874   23.2856 C   0  0  0  0  0  0
  -18.9473  -30.1471   23.8873 C   0  0  0  0  0  0
  -17.6470  -30.6592   24.0555 C   0  0  0  0  0  0
  -25.9069  -34.9416   23.5062 C   0  0  0  0  0  0
  -16.5360  -29.9084   23.6337 C   0  0  0  0  0  0
  -16.7281  -28.6505   23.0353 C   0  0  0  0  0  0
  -26.4497  -31.6577   25.0723 C   0  0  0  0  0  0
  -25.3674  -31.3787   26.1413 C   0  0  0  0  0  0
  -27.0350  -30.2969   24.6310 C   0  0  0  0  0  0
  -27.6026  -32.4346   25.7509 C   0  0  0  0  0  0
  -27.5577  -37.1794   24.8464 C   0  0  0  0  0  0
  -21.4250  -29.3035   22.3628 N   0  0  0  0  0  0
  -26.4285  -37.3758   23.9406 N   0  0  0  0  0  0
  -24.7133  -31.0320   22.0913 N   0  0  0  0  0  0
  -23.4207  -28.8102   23.3029 O   0  0  0  0  0  0
  -28.2887  -26.1993   20.2606 O   0  0  0  0  0  0
  -26.5667  -34.8914   22.4646 O   0  0  0  0  0  0
  -23.5527  -32.1314   23.7119 O   0  0  0  0  0  0
  -28.0514  -20.9076   21.7530 C   0  0  0  0  0  0
  -27.4906  -22.1182   22.2022 C   0  0  0  0  0  0
  -28.8182  -20.9132   20.5846 C   0  0  0  0  0  0
  -28.3676  -23.3359   20.4389 C   0  0  0  0  0  0
  -30.3246  -17.3798   21.2470 C   0  0  0  0  0  0
  -29.3191  -17.0385   19.5464 C   0  0  0  0  0  0
  -29.2138  -18.2555   20.5502 C   0  0  0  0  0  0
  -26.6303  -22.1527   23.4477 C   0  0  0  0  0  0
  -28.3598  -24.7762   19.6413 C   0  0  0  0  0  0
  -27.6515  -23.2979   21.5605 N   0  0  0  0  0  0
  -28.9538  -22.1640   19.9460 N   0  0  0  0  0  0
  -29.8054  -16.0945   20.6248 N   0  0  0  0  0  0
  -29.4415  -19.7041   20.0625 O   0  0  0  0  0  0
  -31.4669  -12.7016   19.1851 H   0  0  0  0  0  0
  -30.4056  -11.6001   20.0133 H   0  0  0  0  0  0
  -29.8222  -11.7380   17.5652 H   0  0  0  0  0  0
  -29.6153  -13.4684   17.6982 H   0  0  0  0  0  0
  -27.9162  -11.2867   18.9402 H   0  0  0  0  0  0
  -27.3871  -12.4994   17.8041 H   0  0  0  0  0  0
  -27.5975  -14.2610   19.4311 H   0  0  0  0  0  0
  -28.7403  -12.2770   21.4507 H   0  0  0  0  0  0
  -28.3799  -13.9632   21.7584 H   0  0  0  0  0  0
  -25.2772   -9.5681   22.4761 H   0  0  0  0  0  0
  -24.0016   -7.4641   22.7471 H   0  0  0  0  0  0
  -21.0845   -8.8768   19.8950 H   0  0  0  0  0  0
  -22.3696  -10.9674   19.6164 H   0  0  0  0  0  0
  -21.2008   -7.6153   23.9727 H   0  0  0  0  0  0
  -21.1487   -6.0520   25.9086 H   0  0  0  0  0  0
  -22.0594   -2.7615   23.2845 H   0  0  0  0  0  0
  -22.4062  -11.9874   22.4851 H   0  0  0  0  0  0
  -21.1041  -13.1200   22.2644 H   0  0  0  0  0  0
  -24.6453  -15.8518   20.5338 H   0  0  0  0  0  0
  -26.2707  -15.6375   20.1182 H   0  0  0  0  0  0
  -26.7251  -32.5305   23.1003 H   0  0  0  0  0  0
  -25.0051  -33.9626   25.0308 H   0  0  0  0  0  0
  -22.7442  -31.2883   21.3818 H   0  0  0  0  0  0
  -23.3760  -35.9583   23.3295 H   0  0  0  0  0  0
  -24.3566  -36.8902   22.2057 H   0  0  0  0  0  0
  -23.7225  -37.6453   23.6682 H   0  0  0  0  0  0
  -26.1528  -31.4754   20.6137 H   0  0  0  0  0  0
  -26.8687  -30.7689   22.0278 H   0  0  0  0  0  0
  -28.1164  -28.8066   21.2458 H   0  0  0  0  0  0
  -25.9025  -25.8400   19.0132 H   0  0  0  0  0  0
  -23.9779  -27.2948   18.9804 H   0  0  0  0  0  0
  -23.8002  -30.5663   19.3961 H   0  0  0  0  0  0
  -22.7815  -29.2329   19.8455 H   0  0  0  0  0  0
  -25.1309  -36.1878   25.0809 H   0  0  0  0  0  0
  -20.9994  -28.3293   24.1369 H   0  0  0  0  0  0
  -20.5679  -26.2323   23.3627 H   0  0  0  0  0  0
  -21.6655  -26.7423   22.1205 H   0  0  0  0  0  0
  -19.6916  -25.6276   21.1264 H   0  0  0  0  0  0
  -19.6695  -27.3164   20.6738 H   0  0  0  0  0  0
  -17.4208  -26.6666   21.4028 H   0  0  0  0  0  0
  -18.0334  -26.0085   22.9036 H   0  0  0  0  0  0
  -19.7949  -30.7300   24.2220 H   0  0  0  0  0  0
  -17.5022  -31.6269   24.5162 H   0  0  0  0  0  0
  -15.5358  -30.2975   23.7684 H   0  0  0  0  0  0
  -15.8681  -28.0820   22.7072 H   0  0  0  0  0  0
  -24.5867  -30.7108   25.7749 H   0  0  0  0  0  0
  -24.8841  -32.2975   26.4749 H   0  0  0  0  0  0
  -25.7945  -30.9032   27.0248 H   0  0  0  0  0  0
  -26.2967  -29.6711   24.1280 H   0  0  0  0  0  0
  -27.3906  -29.7255   25.4894 H   0  0  0  0  0  0
  -27.8897  -30.4199   23.9656 H   0  0  0  0  0  0
  -27.2618  -33.3677   26.2009 H   0  0  0  0  0  0
  -28.3877  -32.6853   25.0365 H   0  0  0  0  0  0
  -28.0638  -31.8518   26.5487 H   0  0  0  0  0  0
  -28.2593  -38.0094   24.7519 H   0  0  0  0  0  0
  -28.1074  -36.2624   24.6283 H   0  0  0  0  0  0
  -27.2295  -37.1439   25.8868 H   0  0  0  0  0  0
  -20.9464  -29.8749   21.6807 H   0  0  0  0  0  0
  -26.0155  -38.2827   24.1409 H   0  0  0  0  0  0
  -27.8907  -19.9974   22.3120 H   0  0  0  0  0  0
  -31.3378  -17.6426   20.9327 H   0  0  0  0  0  0
  -30.2567  -17.4062   22.3356 H   0  0  0  0  0  0
  -28.3536  -16.7647   19.1201 H   0  0  0  0  0  0
  -30.0446  -17.1980   18.7446 H   0  0  0  0  0  0
  -28.2713  -18.1808   21.0926 H   0  0  0  0  0  0
  -25.5866  -22.3231   23.1822 H   0  0  0  0  0  0
  -26.9509  -22.9491   24.1188 H   0  0  0  0  0  0
  -26.6893  -21.2112   23.9932 H   0  0  0  0  0  0
  -29.3106  -24.7822   19.1087 H   0  0  0  0  0  0
  -27.6326  -24.6807   18.8390 H   0  0  0  0  0  0
  1 25  1  0  0  0
  1 30  2  0  0  0
  1 82  1  0  0  0
  2  3  1  0  0  0
  2 25  1  0  0  0
  2 84  1  0  0  0
  2 85  1  0  0  0
  3  4  1  0  0  0
  3 86  1  0  0  0
  3 87  1  0  0  0
  4  5  1  0  0  0
  4 88  1  0  0  0
  4 89  1  0  0  0
  5  6  1  0  0  0
  5 26  1  0  0  0
  5 90  1  0  0  0
  6 25  1  0  0  0
  6 91  1  0  0  0
  6 92  1  0  0  0
  7  8  2  0  0  0
  7 26  1  0  0  0
  7 29  1  0  0  0
  8  9  1  0  0  0
  8 22  1  0  0  0
  9 10  1  0  0  0
  9 27  2  0  0  0
 10 11  2  0  0  0
 10 15  1  0  0  0
 11 12  1  0  0  0
 11 93  1  0  0  0
 12 13  2  0  0  0
 12 94  1  0  0  0
 13 14  1  0  0  0
 13 31  1  0  0  0
 14 15  2  0  0  0
 14 95  1  0  0  0
 15 96  1  0  0  0
 16 17  2  0  0  0
 16 21  1  0  0  0
 16 31  1  0  0  0
 17 18  1  0  0  0
 17 97  1  0  0  0
 18 19  2  0  0  0
 18 98  1  0  0  0
 19 20  1  0  0  0
 19 24  1  0  0  0
 20 21  2  0  0  0
 20 99  1  0  0  0
 21 23  1  0  0  0
 22 28  1  0  0  0
 22 32  2  0  0  0
 26 27  1  0  0  0
 28100  1  0  0  0
 28101  1  0  0  0
 29102  1  0  0  0
 29103  1  0  0  0
 33 34  1  0  0  0
 33 66  1  0  0  0
 33 70  2  0  0  0
 34 36  1  0  0  0
 34 59  1  0  0  0
 34104  1  0  0  0
 35 44  2  0  0  0
 35 45  1  0  0  0
 35 68  1  0  0  0
 36 56  1  0  0  0
 36105  1  0  0  0
 37 39  1  0  0  0
 37 47  1  0  0  0
 37 66  1  0  0  0
 37106  1  0  0  0
 38 43  2  0  0  0
 38 46  1  0  0  0
 38 47  1  0  0  0
 39 64  1  0  0  0
 39 67  2  0  0  0
 40 52  1  0  0  0
 40 53  2  0  0  0
 40 58  1  0  0  0
 41107  1  0  0  0
 41108  1  0  0  0
 41109  1  0  0  0
 41 48  1  0  0  0
 42 43  1  0  0  0
 42 66  1  0  0  0
 42110  1  0  0  0
 42111  1  0  0  0
 43 44  1  0  0  0
 44112  1  0  0  0
 45 46  2  0  0  0
 45113  1  0  0  0
 46114  1  0  0  0
 47115  1  0  0  0
 47116  1  0  0  0
 48 56  1  0  0  0
 48 65  1  0  0  0
 48117  1  0  0  0
 49 50  1  0  0  0
 49 53  1  0  0  0
 49 64  1  0  0  0
 49118  1  0  0  0
 50 51  1  0  0  0
 50119  1  0  0  0
 50120  1  0  0  0
 51 52  1  0  0  0
 51121  1  0  0  0
 51122  1  0  0  0
 52123  1  0  0  0
 52124  1  0  0  0
 53 54  1  0  0  0
 54 55  2  0  0  0
 54125  1  0  0  0
 55 57  1  0  0  0
 55126  1  0  0  0
 56 69  2  0  0  0
 57 58  2  0  0  0
 57127  1  0  0  0
 58128  1  0  0  0
 59 60  1  0  0  0
 59 61  1  0  0  0
 59 62  1  0  0  0
 60129  1  0  0  0
 60130  1  0  0  0
 60131  1  0  0  0
 61132  1  0  0  0
 61133  1  0  0  0
 61134  1  0  0  0
 62135  1  0  0  0
 62136  1  0  0  0
 62137  1  0  0  0
 63 65  1  0  0  0
 63138  1  0  0  0
 63139  1  0  0  0
 63140  1  0  0  0
 64141  1  0  0  0
 65142  1  0  0  0
 68 79  1  0  0  0
 71 72  2  0  0  0
 71 73  1  0  0  0
 71143  1  0  0  0
 72 78  1  0  0  0
 72 80  1  0  0  0
 73 81  2  0  0  0
 73 83  1  0  0  0
 74 79  1  0  0  0
 74 80  2  0  0  0
 74 81  1  0  0  0
 75 77  1  0  0  0
 75 82  1  0  0  0
 75144  1  0  0  0
 75145  1  0  0  0
 76 77  1  0  0  0
 76 82  1  0  0  0
 76146  1  0  0  0
 76147  1  0  0  0
 77 83  1  0  0  0
 77148  1  0  0  0
 78149  1  0  0  0
 78150  1  0  0  0
 78151  1  0  0  0
 79152  1  0  0  0
 79153  1  0  0  0
M  ISO  4   1 100  68 101  79 101  82 100
M  END
> <chiral flag>
0

> <version>
0

> <s_m_source_file>
/data/baiqing/PycharmProjects/Reinvent-master-3.2/result/LINK_invent/BTK/process_docking_weight1_custom_sum_contain_oxygen_bond_distance_aromatic_linkinvent_7_9_3/rearranged_h_0185.sdf

> <i_m_source_file_index>
1

> <r_mmod_Potential_Energy-OPLS-2005>
43.454891204834

> <r_mmod_Stretch_Energy-OPLS-2005>
208.013427734375

> <r_mmod_Bend_Energy-OPLS-2005>
262.905853271484

> <r_mmod_Torsional_Energy-OPLS-2005>
261.255432128906

> <r_mmod_Improper_Torsional_Energy-OPLS-2005>
11.0364465713501

> <r_mmod_Van_der_Waal_Energy-OPLS-2005>
135.018417358398

> <r_mmod_Electrostatic_Energy-OPLS-2005>
-763.215270996094

> <r_mmod_Solvation_Energy-OPLS-2005>
-241.154357910156

> <b_mmod_Minimization_Converged-OPLS-2005>
0

> <r_mmod_RMS_Derivative-OPLS-2005>
1.43152928352356

$$$$
1
                    3D
 Structure written by MMmdl.
159167  0  0  1  0            999 V2000
  -30.3168  -15.5989   20.3303 C   0  0  0  0  0  0
  -30.4252  -13.0540   19.5365 C   0  0  0  0  0  0
  -29.5479  -12.6470   18.3190 C   0  0  0  0  0  0
  -28.1193  -12.2970   18.7624 C   0  0  0  0  0  0
  -27.5960  -13.3041   19.8117 C   0  0  2  0  0  0
  -28.6138  -13.6258   20.9309 C   0  0  0  0  0  0
  -25.2326  -13.8280   20.5786 C   0  0  0  0  0  0
  -24.1712  -13.0433   20.9283 C   0  0  0  0  0  0
  -24.6409  -11.6943   20.8763 C   0  0  0  0  0  0
  -23.9113  -10.4291   21.0397 C   0  0  0  0  0  0
  -24.3649   -9.4205   21.9180 C   0  0  0  0  0  0
  -23.6309   -8.2246   22.0755 C   0  0  0  0  0  0
  -22.4291   -8.0286   21.3544 C   0  0  0  0  0  0
  -21.9936   -9.0262   20.4645 C   0  0  0  0  0  0
  -22.7279  -10.2134   20.3050 C   0  0  0  0  0  0
  -21.6858   -6.0740   22.5277 C   0  0  0  0  0  0
  -21.4017   -6.5642   23.8211 C   0  0  0  0  0  0
  -21.3658   -5.6793   24.9172 C   0  0  0  0  0  0
  -21.6043   -4.3056   24.7223 C   0  0  0  0  0  0
  -21.8819   -3.8148   23.4345 C   0  0  0  0  0  0
  -21.9195   -4.6966   22.3400 C   0  0  0  0  0  0
  -22.7725  -13.5166   21.1918 C   0  0  0  0  0  0
  -22.1662   -4.2151   21.0977 F   0  0  0  0  0  0
  -21.5627   -3.4539   25.7736 F   0  0  0  0  0  0
  -29.7932  -14.2366   20.2760 N   0  0  0  0  0  0
  -26.2768  -12.9603   20.3223 N   0  0  0  0  0  0
  -25.9354  -11.6680   20.5699 N   0  0  0  0  0  0
  -22.0390  -12.8143   22.0469 N   0  0  0  0  0  0
  -25.3921  -15.2022   20.4227 N   0  0  0  0  0  0
  -31.5511  -15.5424   20.1740 O   0  0  0  0  0  0
  -21.6649   -6.8888   21.4241 O   0  0  0  0  0  0
  -22.3401  -14.5466   20.6756 O   0  0  0  0  0  0
  -24.6834  -31.8000   23.1512 C   0  0  0  0  0  0
  -25.9417  -32.4465   23.8054 C   0  0  1  0  0  0
  -27.2256  -26.7087   20.2132 C   0  0  0  0  0  0
  -25.5998  -33.8291   24.1944 N   0  0  0  0  0  0
  -23.5087  -30.4027   21.5051 C   0  0  2  0  0  0
  -24.9650  -28.7431   20.1187 C   0  0  0  0  0  0
  -22.7763  -29.4320   22.4709 C   0  0  0  0  0  0
  -18.0339  -28.1425   22.8457 C   0  0  0  0  0  0
  -24.1488  -36.7142   23.2655 C   0  0  0  0  0  0
  -26.0892  -30.5354   21.4138 C   0  0  0  0  0  0
  -26.1546  -29.1008   20.7641 C   0  0  0  0  0  0
  -27.2707  -28.1121   20.7767 C   0  0  0  0  0  0
  -26.0020  -26.5576   19.5126 C   0  0  0  0  0  0
  -24.9269  -27.4967   19.4699 C   0  0  0  0  0  0
  -23.7618  -29.6988   20.1408 C   0  0  0  0  0  0
  -25.4140  -36.2890   24.0283 C   0  0  1  0  0  0
  -20.5975  -28.3780   23.1142 C   0  0  2  0  0  0
  -20.6803  -26.9441   22.5402 C   0  0  0  0  0  0
  -19.5777  -26.6375   21.5215 C   0  0  0  0  0  0
  -18.1960  -26.7953   22.1618 C   0  0  0  0  0  0
  -19.1607  -28.8926   23.2782 C   0  0  0  0  0  0
  -18.9514  -30.1509   23.8830 C   0  0  0  0  0  0
  -17.6506  -30.6609   24.0553 C   0  0  0  0  0  0
  -25.9125  -34.9284   23.4949 C   0  0  0  0  0  0
  -16.5394  -29.9092   23.6358 C   0  0  0  0  0  0
  -16.7319  -28.6513   23.0375 C   0  0  0  0  0  0
  -26.4600  -31.6500   25.0675 C   0  0  0  0  0  0
  -25.3670  -31.3814   26.1290 C   0  0  0  0  0  0
  -27.0536  -30.2840   24.6568 C   0  0  0  0  0  0
  -27.6045  -32.4364   25.7496 C   0  0  0  0  0  0
  -27.5555  -37.1729   24.8474 C   0  0  0  0  0  0
  -21.4411  -29.3029   22.3460 N   0  0  0  0  0  0
  -26.4262  -37.3654   23.9415 N   0  0  0  0  0  0
  -24.7840  -30.9454   22.0759 N   0  0  0  0  0  0
  -23.4211  -28.7921   23.3051 O   0  0  0  0  0  0
  -28.1998  -25.5014   20.2796 O   0  0  0  0  0  0
  -26.5765  -34.8864   22.4564 O   0  0  0  0  0  0
  -23.5855  -32.1071   23.6472 O   0  0  0  0  0  0
  -28.0288  -20.0847   18.6247 C   0  0  0  0  0  0
  -30.3095  -19.3094   21.6548 C   0  0  0  0  0  0
  -28.6388  -20.2344   20.0114 C   0  0  1  0  0  0
  -29.7152  -18.7332   20.3332 C   0  0  2  0  0  0
  -30.7847  -20.8362   21.6197 C   0  0  2  0  0  0
  -28.9652  -22.0626   20.2943 C   0  0  1  0  0  0
  -26.7691  -19.2497   18.5453 C   0  0  0  0  0  0
  -31.7138  -21.1015   22.8164 C   0  0  0  0  0  0
  -28.0027  -23.7519   20.2026 C   0  0  0  0  0  0
  -28.5395  -20.6133   17.5950 N   0  0  0  0  0  0
  -29.5530  -16.9559   20.3725 N   0  0  0  0  0  0
  -29.7163  -21.9191   21.5792 N   0  3  0  0  0  0
  -31.4212  -13.3105   19.1741 H   0  0  0  0  0  0
  -30.5770  -12.2058   20.2062 H   0  0  0  0  0  0
  -29.9957  -11.8068   17.7868 H   0  0  0  0  0  0
  -29.5136  -13.4765   17.6111 H   0  0  0  0  0  0
  -28.1411  -11.2971   19.1974 H   0  0  0  0  0  0
  -27.4495  -12.2456   17.9030 H   0  0  0  0  0  0
  -27.4622  -14.2284   19.2476 H   0  0  0  0  0  0
  -28.8654  -12.7410   21.5176 H   0  0  0  0  0  0
  -28.1868  -14.3471   21.6294 H   0  0  0  0  0  0
  -25.2789   -9.5681   22.4764 H   0  0  0  0  0  0
  -24.0011   -7.4641   22.7481 H   0  0  0  0  0  0
  -21.0865   -8.8789   19.8953 H   0  0  0  0  0  0
  -22.3736  -10.9675   19.6161 H   0  0  0  0  0  0
  -21.2010   -7.6151   23.9714 H   0  0  0  0  0  0
  -21.1478   -6.0524   25.9075 H   0  0  0  0  0  0
  -22.0598   -2.7611   23.2844 H   0  0  0  0  0  0
  -22.4028  -11.9815   22.4859 H   0  0  0  0  0  0
  -21.0996  -13.1137   22.2668 H   0  0  0  0  0  0
  -24.6178  -15.8478   20.5330 H   0  0  0  0  0  0
  -26.2295  -15.6436   20.0688 H   0  0  0  0  0  0
  -26.7497  -32.4939   23.0764 H   0  0  0  0  0  0
  -25.0071  -33.9329   25.0048 H   0  0  0  0  0  0
  -22.8342  -31.2403   21.3149 H   0  0  0  0  0  0
  -23.3768  -35.9455   23.3283 H   0  0  0  0  0  0
  -24.3549  -36.8835   22.2076 H   0  0  0  0  0  0
  -23.7232  -37.6306   23.6752 H   0  0  0  0  0  0
  -26.2921  -31.2608   20.6249 H   0  0  0  0  0  0
  -26.9404  -30.6023   22.0788 H   0  0  0  0  0  0
  -28.1676  -28.3935   21.3102 H   0  0  0  0  0  0
  -25.8353  -25.6154   19.0104 H   0  0  0  0  0  0
  -24.0284  -27.2139   18.9384 H   0  0  0  0  0  0
  -23.9368  -30.4582   19.3778 H   0  0  0  0  0  0
  -22.8664  -29.1659   19.8166 H   0  0  0  0  0  0
  -25.1350  -36.1648   25.0774 H   0  0  0  0  0  0
  -21.0060  -28.3404   24.1267 H   0  0  0  0  0  0
  -20.5664  -26.2405   23.3662 H   0  0  0  0  0  0
  -21.6663  -26.7383   22.1219 H   0  0  0  0  0  0
  -19.6935  -25.6270   21.1283 H   0  0  0  0  0  0
  -19.6720  -27.3154   20.6720 H   0  0  0  0  0  0
  -17.4228  -26.6703   21.4021 H   0  0  0  0  0  0
  -18.0344  -26.0113   22.9030 H   0  0  0  0  0  0
  -19.7993  -30.7340   24.2168 H   0  0  0  0  0  0
  -17.5062  -31.6283   24.5165 H   0  0  0  0  0  0
  -15.5392  -30.2973   23.7725 H   0  0  0  0  0  0
  -15.8717  -28.0806   22.7138 H   0  0  0  0  0  0
  -24.5881  -30.7137   25.7588 H   0  0  0  0  0  0
  -24.8834  -32.3037   26.4520 H   0  0  0  0  0  0
  -25.7851  -30.9107   27.0197 H   0  0  0  0  0  0
  -26.3256  -29.6452   24.1556 H   0  0  0  0  0  0
  -27.3967  -29.7285   25.5307 H   0  0  0  0  0  0
  -27.9230  -30.3971   24.0089 H   0  0  0  0  0  0
  -27.2582  -33.3737   26.1861 H   0  0  0  0  0  0
  -28.3964  -32.6808   25.0403 H   0  0  0  0  0  0
  -28.0593  -31.8636   26.5588 H   0  0  0  0  0  0
  -28.2550  -38.0043   24.7507 H   0  0  0  0  0  0
  -28.1067  -36.2563   24.6315 H   0  0  0  0  0  0
  -27.2267  -37.1385   25.8875 H   0  0  0  0  0  0
  -20.9711  -29.8681   21.6525 H   0  0  0  0  0  0
  -26.0085  -38.2698   24.1434 H   0  0  0  0  0  0
  -31.1659  -18.6874   21.9174 H   0  0  0  0  0  0
  -29.5934  -19.1731   22.4657 H   0  0  0  0  0  0
  -27.8122  -20.0624   20.7029 H   0  0  0  0  0  0
  -30.5021  -18.8345   19.5841 H   0  0  0  0  0  0
  -31.4006  -20.9652   20.7276 H   0  0  0  0  0  0
  -29.7447  -22.2619   19.5581 H   0  0  0  0  0  0
  -26.8913  -18.3208   19.1027 H   0  0  0  0  0  0
  -26.5315  -18.9957   17.5117 H   0  0  0  0  0  0
  -25.9265  -19.7976   18.9674 H   0  0  0  0  0  0
  -31.1893  -20.9803   23.7648 H   0  0  0  0  0  0
  -32.1280  -22.1099   22.7879 H   0  0  0  0  0  0
  -32.5579  -20.4112   22.8186 H   0  0  0  0  0  0
  -27.2051  -23.6063   20.9308 H   0  0  0  0  0  0
  -27.4872  -23.6596   19.2467 H   0  0  0  0  0  0
  -29.3885  -21.1305   17.7973 H   0  0  0  0  0  0
  -28.5722  -16.7254   20.4459 H   0  0  0  0  0  0
  -30.1730  -22.8015   21.7544 H   0  0  0  0  0  0
  -29.0643  -21.7805   22.3362 H   0  0  0  0  0  0
  1 25  1  0  0  0
  1 30  2  0  0  0
  1 81  1  0  0  0
  2  3  1  0  0  0
  2 25  1  0  0  0
  2 83  1  0  0  0
  2 84  1  0  0  0
  3  4  1  0  0  0
  3 85  1  0  0  0
  3 86  1  0  0  0
  4  5  1  0  0  0
  4 87  1  0  0  0
  4 88  1  0  0  0
  5  6  1  0  0  0
  5 26  1  0  0  0
  5 89  1  0  0  0
  6 25  1  0  0  0
  6 90  1  0  0  0
  6 91  1  0  0  0
  7  8  2  0  0  0
  7 26  1  0  0  0
  7 29  1  0  0  0
  8  9  1  0  0  0
  8 22  1  0  0  0
  9 10  1  0  0  0
  9 27  2  0  0  0
 10 11  2  0  0  0
 10 15  1  0  0  0
 11 12  1  0  0  0
 11 92  1  0  0  0
 12 13  2  0  0  0
 12 93  1  0  0  0
 13 14  1  0  0  0
 13 31  1  0  0  0
 14 15  2  0  0  0
 14 94  1  0  0  0
 15 95  1  0  0  0
 16 17  2  0  0  0
 16 21  1  0  0  0
 16 31  1  0  0  0
 17 18  1  0  0  0
 17 96  1  0  0  0
 18 19  2  0  0  0
 18 97  1  0  0  0
 19 20  1  0  0  0
 19 24  1  0  0  0
 20 21  2  0  0  0
 20 98  1  0  0  0
 21 23  1  0  0  0
 22 28  1  0  0  0
 22 32  2  0  0  0
 26 27  1  0  0  0
 28 99  1  0  0  0
 28100  1  0  0  0
 29101  1  0  0  0
 29102  1  0  0  0
 33 34  1  0  0  0
 33 66  1  0  0  0
 33 70  2  0  0  0
 34 36  1  0  0  0
 34 59  1  0  0  0
 34103  1  0  0  0
 35 44  2  0  0  0
 35 45  1  0  0  0
 35 68  1  0  0  0
 36 56  1  0  0  0
 36104  1  0  0  0
 37 39  1  0  0  0
 37 47  1  0  0  0
 37 66  1  0  0  0
 37105  1  0  0  0
 38 43  2  0  0  0
 38 46  1  0  0  0
 38 47  1  0  0  0
 39 64  1  0  0  0
 39 67  2  0  0  0
 40 52  1  0  0  0
 40 53  2  0  0  0
 40 58  1  0  0  0
 41106  1  0  0  0
 41107  1  0  0  0
 41108  1  0  0  0
 41 48  1  0  0  0
 42 43  1  0  0  0
 42 66  1  0  0  0
 42109  1  0  0  0
 42110  1  0  0  0
 43 44  1  0  0  0
 44111  1  0  0  0
 45 46  2  0  0  0
 45112  1  0  0  0
 46113  1  0  0  0
 47114  1  0  0  0
 47115  1  0  0  0
 48 56  1  0  0  0
 48 65  1  0  0  0
 48116  1  0  0  0
 49 50  1  0  0  0
 49 53  1  0  0  0
 49 64  1  0  0  0
 49117  1  0  0  0
 50 51  1  0  0  0
 50118  1  0  0  0
 50119  1  0  0  0
 51 52  1  0  0  0
 51120  1  0  0  0
 51121  1  0  0  0
 52122  1  0  0  0
 52123  1  0  0  0
 53 54  1  0  0  0
 54 55  2  0  0  0
 54124  1  0  0  0
 55 57  1  0  0  0
 55125  1  0  0  0
 56 69  2  0  0  0
 57 58  2  0  0  0
 57126  1  0  0  0
 58127  1  0  0  0
 59 60  1  0  0  0
 59 61  1  0  0  0
 59 62  1  0  0  0
 60128  1  0  0  0
 60129  1  0  0  0
 60130  1  0  0  0
 61131  1  0  0  0
 61132  1  0  0  0
 61133  1  0  0  0
 62134  1  0  0  0
 62135  1  0  0  0
 62136  1  0  0  0
 63 65  1  0  0  0
 63137  1  0  0  0
 63138  1  0  0  0
 63139  1  0  0  0
 64140  1  0  0  0
 65141  1  0  0  0
 68 79  1  0  0  0
 71 77  1  0  0  0
 71 80  2  0  0  0
 71 73  1  0  0  0
 72 74  1  0  0  0
 72 75  1  0  0  0
 72142  1  0  0  0
 72143  1  0  0  0
 73 74  1  0  0  0
 73 76  1  0  0  0
 73144  1  0  0  0
 74 81  1  0  0  0
 74145  1  0  0  0
 75 78  1  0  0  0
 75 82  1  0  0  0
 75146  1  0  0  0
 76 79  1  0  0  0
 76 82  1  0  0  0
 76147  1  0  0  0
 77148  1  0  0  0
 77149  1  0  0  0
 77150  1  0  0  0
 78151  1  0  0  0
 78152  1  0  0  0
 78153  1  0  0  0
 79154  1  0  0  0
 79155  1  0  0  0
 80156  1  0  0  0
 81157  1  0  0  0
 82158  1  0  0  0
 82159  1  0  0  0
M  CHG  1  82   1
M  ISO  4   1 100  68 101  79 101  81 100
M  END
> <chiral flag>
0

> <version>
0

> <s_m_source_file>
/data/baiqing/PycharmProjects/Reinvent-master-3.2/result/LINK_invent/BTK/process_docking_weight1_custom_sum_contain_oxygen_bond_distance_aromatic_linkinvent_7_9_3/rearranged_h_0185.sdf

> <i_m_source_file_index>
2

> <r_mmod_Potential_Energy-OPLS-2005>
2241.08837890625

> <r_mmod_Stretch_Energy-OPLS-2005>
1101.86413574219

> <r_mmod_Bend_Energy-OPLS-2005>
629.266662597656

> <r_mmod_Torsional_Energy-OPLS-2005>
255.269485473633

> <r_mmod_Improper_Torsional_Energy-OPLS-2005>
3.65222358703613

> <r_mmod_Van_der_Waal_Energy-OPLS-2005>
108.087310791016

> <r_mmod_Electrostatic_Energy-OPLS-2005>
-224.35498046875

> <r_mmod_Solvation_Energy-OPLS-2005>
-495.717163085938

> <b_mmod_Minimization_Converged-OPLS-2005>
0

> <r_mmod_RMS_Derivative-OPLS-2005>
0.430979043245316

$$$$
2
                    3D
 Structure written by MMmdl.
156165  0  0  1  0            999 V2000
  -30.5973  -14.7533   20.4515 C   0  0  0  0  0  0
  -30.4366  -12.4562   19.4694 C   0  0  0  0  0  0
  -29.5114  -12.5037   18.2330 C   0  0  0  0  0  0
  -28.0374  -12.3255   18.6481 C   0  0  0  0  0  0
  -27.6417  -13.2266   19.8478 C   0  0  2  0  0  0
  -28.6875  -13.1588   20.9825 C   0  0  0  0  0  0
  -25.2517  -13.8181   20.5678 C   0  0  0  0  0  0
  -24.1809  -13.0435   20.9217 C   0  0  0  0  0  0
  -24.6393  -11.6911   20.8757 C   0  0  0  0  0  0
  -23.9066  -10.4292   21.0414 C   0  0  0  0  0  0
  -24.3620   -9.4203   21.9187 C   0  0  0  0  0  0
  -23.6297   -8.2238   22.0753 C   0  0  0  0  0  0
  -22.4275   -8.0282   21.3547 C   0  0  0  0  0  0
  -21.9912   -9.0254   20.4647 C   0  0  0  0  0  0
  -22.7240  -10.2133   20.3060 C   0  0  0  0  0  0
  -21.6851   -6.0737   22.5281 C   0  0  0  0  0  0
  -21.4010   -6.5639   23.8215 C   0  0  0  0  0  0
  -21.3658   -5.6793   24.9177 C   0  0  0  0  0  0
  -21.6046   -4.3055   24.7226 C   0  0  0  0  0  0
  -21.8820   -3.8146   23.4348 C   0  0  0  0  0  0
  -21.9192   -4.6965   22.3405 C   0  0  0  0  0  0
  -22.7832  -13.5225   21.1875 C   0  0  0  0  0  0
  -22.1663   -4.2151   21.0982 F   0  0  0  0  0  0
  -21.5629   -3.4536   25.7738 F   0  0  0  0  0  0
  -29.9870  -13.5176   20.3998 N   0  0  0  0  0  0
  -26.2937  -12.9378   20.3260 N   0  0  0  0  0  0
  -25.9320  -11.6529   20.5750 N   0  0  0  0  0  0
  -22.0474  -12.8217   22.0425 N   0  0  0  0  0  0
  -25.4192  -15.1902   20.4054 N   0  0  0  0  0  0
  -31.7944  -14.8401   20.1553 O   0  0  0  0  0  0
  -21.6641   -6.8878   21.4242 O   0  0  0  0  0  0
  -22.3523  -14.5529   20.6713 O   0  0  0  0  0  0
  -24.6315  -31.8544   23.1969 C   0  0  0  0  0  0
  -25.9137  -32.4751   23.8320 C   0  0  1  0  0  0
  -27.2202  -27.2613   20.1383 C   0  0  0  0  0  0
  -25.5931  -33.8551   24.2248 N   0  0  0  0  0  0
  -23.4283  -30.4750   21.5408 C   0  0  2  0  0  0
  -24.8756  -28.9158   20.1147 C   0  0  0  0  0  0
  -22.7501  -29.4594   22.4921 C   0  0  0  0  0  0
  -18.0286  -28.1383   22.8492 C   0  0  0  0  0  0
  -24.1484  -36.7270   23.2641 C   0  0  0  0  0  0
  -25.9735  -30.7684   21.3745 C   0  0  0  0  0  0
  -26.0475  -29.3890   20.7196 C   0  0  0  0  0  0
  -27.2262  -28.5766   20.7136 C   0  0  0  0  0  0
  -26.0272  -26.8492   19.5100 C   0  0  0  0  0  0
  -24.8696  -27.6538   19.4985 C   0  0  0  0  0  0
  -23.6470  -29.8043   20.1586 C   0  0  0  0  0  0
  -25.4112  -36.3063   24.0328 C   0  0  1  0  0  0
  -20.5893  -28.3689   23.1276 C   0  0  2  0  0  0
  -20.6773  -26.9405   22.5414 C   0  0  0  0  0  0
  -19.5751  -26.6381   21.5215 C   0  0  0  0  0  0
  -18.1929  -26.7930   22.1626 C   0  0  0  0  0  0
  -19.1543  -28.8855   23.2876 C   0  0  0  0  0  0
  -18.9465  -30.1459   23.8888 C   0  0  0  0  0  0
  -17.6465  -30.6586   24.0562 C   0  0  0  0  0  0
  -25.9059  -34.9437   23.5093 C   0  0  0  0  0  0
  -16.5356  -29.9082   23.6338 C   0  0  0  0  0  0
  -16.7273  -28.6500   23.0362 C   0  0  0  0  0  0
  -26.4505  -31.6579   25.0712 C   0  0  0  0  0  0
  -25.3733  -31.3742   26.1441 C   0  0  0  0  0  0
  -27.0346  -30.2996   24.6198 C   0  0  0  0  0  0
  -27.6064  -32.4320   25.7477 C   0  0  0  0  0  0
  -27.5581  -37.1780   24.8461 C   0  0  0  0  0  0
  -21.4209  -29.3033   22.3664 N   0  0  0  0  0  0
  -26.4282  -37.3768   23.9423 N   0  0  0  0  0  0
  -24.6968  -31.0510   22.0938 N   0  0  0  0  0  0
  -23.4200  -28.8140   23.3025 O   0  0  0  0  0  0
  -28.3202  -26.3772   20.1430 O   0  0  0  0  0  0
  -26.5633  -34.8917   22.4664 O   0  0  0  0  0  0
  -23.5467  -32.1361   23.7270 O   0  0  0  0  0  0
  -28.9242  -18.2706   20.4217 C   0  0  0  0  0  0
  -29.1502  -19.6976   20.4086 C   0  0  0  0  0  0
  -30.4394  -20.1601   20.5593 C   0  0  0  0  0  0
  -31.4855  -19.2202   20.6899 C   0  0  0  0  0  0
  -30.0234  -17.3343   20.5664 C   0  0  0  0  0  0
  -28.2019  -20.9225   20.2530 C   0  0  0  0  0  0
  -30.5066  -21.6961   20.5531 C   0  0  0  0  0  0
  -29.0312  -22.2459   20.6177 C   0  0  1  0  0  0
  -32.9230  -19.6749   20.8364 C   0  0  0  0  0  0
  -28.7788  -23.6814   19.8719 C   0  0  0  0  0  0
  -28.1396  -24.9643   20.6329 C   0  0  0  0  0  0
  -31.2726  -17.8708   20.6911 N   0  0  0  0  0  0
  -29.7786  -15.8686   20.6082 N   0  0  0  0  0  0
  -31.4765  -12.5850   19.1641 H   0  0  0  0  0  0
  -30.3864  -11.4795   19.9529 H   0  0  0  0  0  0
  -29.7950  -11.7285   17.5195 H   0  0  0  0  0  0
  -29.6349  -13.4563   17.7152 H   0  0  0  0  0  0
  -27.8971  -11.2772   18.9144 H   0  0  0  0  0  0
  -27.3786  -12.5127   17.7992 H   0  0  0  0  0  0
  -27.6344  -14.2467   19.4640 H   0  0  0  0  0  0
  -28.7266  -12.1586   21.4163 H   0  0  0  0  0  0
  -28.4214  -13.8337   21.7976 H   0  0  0  0  0  0
  -25.2766   -9.5680   22.4759 H   0  0  0  0  0  0
  -24.0009   -7.4627   22.7465 H   0  0  0  0  0  0
  -21.0846   -8.8773   19.8950 H   0  0  0  0  0  0
  -22.3702  -10.9673   19.6169 H   0  0  0  0  0  0
  -21.1999   -7.6149   23.9719 H   0  0  0  0  0  0
  -21.1478   -6.0521   25.9079 H   0  0  0  0  0  0
  -22.0598   -2.7609   23.2846 H   0  0  0  0  0  0
  -22.4094  -11.9885   22.4826 H   0  0  0  0  0  0
  -21.1087  -13.1238   22.2622 H   0  0  0  0  0  0
  -24.6404  -15.8335   20.4977 H   0  0  0  0  0  0
  -26.2443  -15.6252   20.0150 H   0  0  0  0  0  0
  -26.7203  -32.5403   23.1060 H   0  0  0  0  0  0
  -25.0076  -33.9682   25.0397 H   0  0  0  0  0  0
  -22.7249  -31.2972   21.3932 H   0  0  0  0  0  0
  -23.3759  -35.9588   23.3287 H   0  0  0  0  0  0
  -24.3581  -36.8909   22.2058 H   0  0  0  0  0  0
  -23.7219  -37.6460   23.6676 H   0  0  0  0  0  0
  -26.1123  -31.5279   20.6038 H   0  0  0  0  0  0
  -26.8509  -30.8188   22.0073 H   0  0  0  0  0  0
  -28.1280  -28.9384   21.1875 H   0  0  0  0  0  0
  -25.9844  -25.8805   19.0323 H   0  0  0  0  0  0
  -23.9719  -27.2865   19.0206 H   0  0  0  0  0  0
  -23.7721  -30.5783   19.4006 H   0  0  0  0  0  0
  -22.7652  -29.2372   19.8550 H   0  0  0  0  0  0
  -25.1292  -36.1896   25.0819 H   0  0  0  0  0  0
  -20.9989  -28.3259   24.1395 H   0  0  0  0  0  0
  -20.5671  -26.2293   23.3617 H   0  0  0  0  0  0
  -21.6640  -26.7424   22.1211 H   0  0  0  0  0  0
  -19.6908  -25.6291   21.1243 H   0  0  0  0  0  0
  -19.6693  -27.3196   20.6748 H   0  0  0  0  0  0
  -17.4205  -26.6685   21.4021 H   0  0  0  0  0  0
  -18.0321  -26.0069   22.9018 H   0  0  0  0  0  0
  -19.7941  -30.7278   24.2251 H   0  0  0  0  0  0
  -17.5020  -31.6268   24.5164 H   0  0  0  0  0  0
  -15.5356  -30.2982   23.7669 H   0  0  0  0  0  0
  -15.8674  -28.0815   22.7082 H   0  0  0  0  0  0
  -24.5889  -30.7110   25.7776 H   0  0  0  0  0  0
  -24.8948  -32.2919   26.4869 H   0  0  0  0  0  0
  -25.8050  -30.8913   27.0216 H   0  0  0  0  0  0
  -26.2921  -29.6737   24.1235 H   0  0  0  0  0  0
  -27.4042  -29.7263   25.4709 H   0  0  0  0  0  0
  -27.8793  -30.4270   23.9427 H   0  0  0  0  0  0
  -27.2681  -33.3633   26.2030 H   0  0  0  0  0  0
  -28.3882  -32.6856   25.0307 H   0  0  0  0  0  0
  -28.0725  -31.8460   26.5410 H   0  0  0  0  0  0
  -28.2577  -38.0099   24.7549 H   0  0  0  0  0  0
  -28.1095  -36.2634   24.6227 H   0  0  0  0  0  0
  -27.2311  -37.1357   25.8865 H   0  0  0  0  0  0
  -20.9394  -29.8741   21.6858 H   0  0  0  0  0  0
  -26.0153  -38.2830   24.1463 H   0  0  0  0  0  0
  -27.9137  -17.9011   20.3168 H   0  0  0  0  0  0
  -27.3215  -20.8138   20.8871 H   0  0  0  0  0  0
  -27.8586  -20.9609   19.2187 H   0  0  0  0  0  0
  -30.9955  -22.0061   19.6289 H   0  0  0  0  0  0
  -31.1075  -22.0676   21.3841 H   0  0  0  0  0  0
  -28.8405  -22.4126   21.6789 H   0  0  0  0  0  0
  -33.0594  -20.2031   21.7799 H   0  0  0  0  0  0
  -33.1904  -20.3517   20.0249 H   0  0  0  0  0  0
  -33.6163  -18.8334   20.8133 H   0  0  0  0  0  0
  -28.2045  -23.5027   18.9628 H   0  0  0  0  0  0
  -29.7504  -24.0170   19.5102 H   0  0  0  0  0  0
  -28.5679  -24.9729   21.6355 H   0  0  0  0  0  0
  -27.0822  -24.7582   20.8007 H   0  0  0  0  0  0
  -28.8116  -15.6224   20.7370 H   0  0  0  0  0  0
  1 25  1  0  0  0
  1 30  2  0  0  0
  1 83  1  0  0  0
  2  3  1  0  0  0
  2 25  1  0  0  0
  2 84  1  0  0  0
  2 85  1  0  0  0
  3  4  1  0  0  0
  3 86  1  0  0  0
  3 87  1  0  0  0
  4  5  1  0  0  0
  4 88  1  0  0  0
  4 89  1  0  0  0
  5  6  1  0  0  0
  5 26  1  0  0  0
  5 90  1  0  0  0
  6 25  1  0  0  0
  6 91  1  0  0  0
  6 92  1  0  0  0
  7  8  2  0  0  0
  7 26  1  0  0  0
  7 29  1  0  0  0
  8  9  1  0  0  0
  8 22  1  0  0  0
  9 10  1  0  0  0
  9 27  2  0  0  0
 10 11  2  0  0  0
 10 15  1  0  0  0
 11 12  1  0  0  0
 11 93  1  0  0  0
 12 13  2  0  0  0
 12 94  1  0  0  0
 13 14  1  0  0  0
 13 31  1  0  0  0
 14 15  2  0  0  0
 14 95  1  0  0  0
 15 96  1  0  0  0
 16 17  2  0  0  0
 16 21  1  0  0  0
 16 31  1  0  0  0
 17 18  1  0  0  0
 17 97  1  0  0  0
 18 19  2  0  0  0
 18 98  1  0  0  0
 19 20  1  0  0  0
 19 24  1  0  0  0
 20 21  2  0  0  0
 20 99  1  0  0  0
 21 23  1  0  0  0
 22 28  1  0  0  0
 22 32  2  0  0  0
 26 27  1  0  0  0
 28100  1  0  0  0
 28101  1  0  0  0
 29102  1  0  0  0
 29103  1  0  0  0
 33 34  1  0  0  0
 33 66  1  0  0  0
 33 70  2  0  0  0
 34 36  1  0  0  0
 34 59  1  0  0  0
 34104  1  0  0  0
 35 44  2  0  0  0
 35 45  1  0  0  0
 35 68  1  0  0  0
 36 56  1  0  0  0
 36105  1  0  0  0
 37 39  1  0  0  0
 37 47  1  0  0  0
 37 66  1  0  0  0
 37106  1  0  0  0
 38 43  2  0  0  0
 38 46  1  0  0  0
 38 47  1  0  0  0
 39 64  1  0  0  0
 39 67  2  0  0  0
 40 52  1  0  0  0
 40 53  2  0  0  0
 40 58  1  0  0  0
 41107  1  0  0  0
 41108  1  0  0  0
 41109  1  0  0  0
 41 48  1  0  0  0
 42 43  1  0  0  0
 42 66  1  0  0  0
 42110  1  0  0  0
 42111  1  0  0  0
 43 44  1  0  0  0
 44112  1  0  0  0
 45 46  2  0  0  0
 45113  1  0  0  0
 46114  1  0  0  0
 47115  1  0  0  0
 47116  1  0  0  0
 48 56  1  0  0  0
 48 65  1  0  0  0
 48117  1  0  0  0
 49 50  1  0  0  0
 49 53  1  0  0  0
 49 64  1  0  0  0
 49118  1  0  0  0
 50 51  1  0  0  0
 50119  1  0  0  0
 50120  1  0  0  0
 51 52  1  0  0  0
 51121  1  0  0  0
 51122  1  0  0  0
 52123  1  0  0  0
 52124  1  0  0  0
 53 54  1  0  0  0
 54 55  2  0  0  0
 54125  1  0  0  0
 55 57  1  0  0  0
 55126  1  0  0  0
 56 69  2  0  0  0
 57 58  2  0  0  0
 57127  1  0  0  0
 58128  1  0  0  0
 59 60  1  0  0  0
 59 61  1  0  0  0
 59 62  1  0  0  0
 60129  1  0  0  0
 60130  1  0  0  0
 60131  1  0  0  0
 61132  1  0  0  0
 61133  1  0  0  0
 61134  1  0  0  0
 62135  1  0  0  0
 62136  1  0  0  0
 62137  1  0  0  0
 63 65  1  0  0  0
 63138  1  0  0  0
 63139  1  0  0  0
 63140  1  0  0  0
 64141  1  0  0  0
 65142  1  0  0  0
 68 81  1  0  0  0
 71 72  2  0  0  0
 71 75  1  0  0  0
 71143  1  0  0  0
 72 73  1  0  0  0
 72 76  1  0  0  0
 73 74  2  0  0  0
 73 77  1  0  0  0
 74 79  1  0  0  0
 74 82  1  0  0  0
 75 82  2  0  0  0
 75 83  1  0  0  0
 76 78  1  0  0  0
 76144  1  0  0  0
 76145  1  0  0  0
 77 78  1  0  0  0
 77146  1  0  0  0
 77147  1  0  0  0
 78 80  1  0  0  0
 78148  1  0  0  0
 79149  1  0  0  0
 79150  1  0  0  0
 79151  1  0  0  0
 80 81  1  0  0  0
 80152  1  0  0  0
 80153  1  0  0  0
 81154  1  0  0  0
 81155  1  0  0  0
 83156  1  0  0  0
M  ISO  4   1 100  68 101  81 101  83 100
M  END
> <chiral flag>
0

> <version>
0

> <s_m_source_file>
/data/baiqing/PycharmProjects/Reinvent-master-3.2/result/LINK_invent/BTK/process_docking_weight1_custom_sum_contain_oxygen_bond_distance_aromatic_linkinvent_7_9_3/rearranged_h_0185.sdf

> <i_m_source_file_index>
3

> <r_mmod_Potential_Energy-OPLS-2005>
51.1862869262695

> <r_mmod_Stretch_Energy-OPLS-2005>
120.750274658203

> <r_mmod_Bend_Energy-OPLS-2005>
207.280471801758

> <r_mmod_Torsional_Energy-OPLS-2005>
236.502410888672

> <r_mmod_Improper_Torsional_Energy-OPLS-2005>
5.54260540008545

> <r_mmod_Van_der_Waal_Energy-OPLS-2005>
131.456268310547

> <r_mmod_Electrostatic_Energy-OPLS-2005>
-498.669494628906

> <r_mmod_Solvation_Energy-OPLS-2005>
-236.7177734375

> <b_mmod_Minimization_Converged-OPLS-2005>
0

> <r_mmod_RMS_Derivative-OPLS-2005>
0.765287697315216

$$$$
3
                    3D
 Structure written by MMmdl.
153162  0  0  1  0            999 V2000
  -30.5056  -15.1645   20.3989 C   0  0  0  0  0  0
  -30.4317  -12.7426   19.5161 C   0  0  0  0  0  0
  -29.5250  -12.5684   18.2742 C   0  0  0  0  0  0
  -28.0671  -12.3175   18.6968 C   0  0  0  0  0  0
  -27.6147  -13.2720   19.8319 C   0  0  2  0  0  0
  -28.6564  -13.3917   20.9641 C   0  0  0  0  0  0
  -25.2351  -13.8226   20.5736 C   0  0  0  0  0  0
  -24.1714  -13.0412   20.9261 C   0  0  0  0  0  0
  -24.6381  -11.6924   20.8762 C   0  0  0  0  0  0
  -23.9084  -10.4284   21.0400 C   0  0  0  0  0  0
  -24.3637   -9.4207   21.9180 C   0  0  0  0  0  0
  -23.6303   -8.2245   22.0756 C   0  0  0  0  0  0
  -22.4292   -8.0279   21.3540 C   0  0  0  0  0  0
  -21.9921   -9.0252   20.4644 C   0  0  0  0  0  0
  -22.7256  -10.2125   20.3049 C   0  0  0  0  0  0
  -21.6860   -6.0738   22.5282 C   0  0  0  0  0  0
  -21.4016   -6.5640   23.8214 C   0  0  0  0  0  0
  -21.3658   -5.6792   24.9172 C   0  0  0  0  0  0
  -21.6045   -4.3052   24.7222 C   0  0  0  0  0  0
  -21.8822   -3.8146   23.4346 C   0  0  0  0  0  0
  -21.9196   -4.6964   22.3399 C   0  0  0  0  0  0
  -22.7729  -13.5160   21.1897 C   0  0  0  0  0  0
  -22.1669   -4.2151   21.0979 F   0  0  0  0  0  0
  -21.5622   -3.4541   25.7734 F   0  0  0  0  0  0
  -29.8954  -13.8842   20.3415 N   0  0  0  0  0  0
  -26.2814  -12.9524   20.3258 N   0  0  0  0  0  0
  -25.9328  -11.6627   20.5752 N   0  0  0  0  0  0
  -22.0392  -12.8143   22.0464 N   0  0  0  0  0  0
  -25.3873  -15.1950   20.4148 N   0  0  0  0  0  0
  -31.7165  -15.1341   20.1358 O   0  0  0  0  0  0
  -21.6649   -6.8880   21.4241 O   0  0  0  0  0  0
  -22.3410  -14.5459   20.6742 O   0  0  0  0  0  0
  -24.6548  -31.8316   23.1802 C   0  0  0  0  0  0
  -25.9271  -32.4629   23.8217 C   0  0  1  0  0  0
  -27.2072  -26.9827   20.1853 C   0  0  0  0  0  0
  -25.5978  -33.8448   24.2124 N   0  0  0  0  0  0
  -23.4657  -30.4480   21.5283 C   0  0  2  0  0  0
  -24.9178  -28.8504   20.1120 C   0  0  0  0  0  0
  -22.7626  -29.4481   22.4826 C   0  0  0  0  0  0
  -18.0314  -28.1406   22.8473 C   0  0  0  0  0  0
  -24.1487  -36.7218   23.2642 C   0  0  0  0  0  0
  -26.0320  -30.6537   21.4062 C   0  0  0  0  0  0
  -26.0977  -29.2491   20.7535 C   0  0  0  0  0  0
  -27.2368  -28.3344   20.7737 C   0  0  0  0  0  0
  -26.0108  -26.7432   19.4685 C   0  0  0  0  0  0
  -24.8967  -27.6159   19.4490 C   0  0  0  0  0  0
  -23.7014  -29.7710   20.1509 C   0  0  0  0  0  0
  -25.4128  -36.2996   24.0303 C   0  0  1  0  0  0
  -20.5934  -28.3742   23.1212 C   0  0  2  0  0  0
  -20.6801  -26.9435   22.5406 C   0  0  0  0  0  0
  -19.5776  -26.6378   21.5216 C   0  0  0  0  0  0
  -18.1954  -26.7942   22.1623 C   0  0  0  0  0  0
  -19.1573  -28.8897   23.2828 C   0  0  0  0  0  0
  -18.9487  -30.1492   23.8855 C   0  0  0  0  0  0
  -17.6481  -30.6599   24.0558 C   0  0  0  0  0  0
  -25.9093  -34.9374   23.5025 C   0  0  0  0  0  0
  -16.5372  -29.9085   23.6343 C   0  0  0  0  0  0
  -16.7300  -28.6504   23.0365 C   0  0  0  0  0  0
  -26.4545  -31.6561   25.0725 C   0  0  0  0  0  0
  -25.3684  -31.3797   26.1388 C   0  0  0  0  0  0
  -27.0434  -30.2931   24.6428 C   0  0  0  0  0  0
  -27.6043  -32.4363   25.7522 C   0  0  0  0  0  0
  -27.5570  -37.1768   24.8463 C   0  0  0  0  0  0
  -21.4308  -29.3033   22.3564 N   0  0  0  0  0  0
  -26.4277  -37.3728   23.9409 N   0  0  0  0  0  0
  -24.7381  -31.0029   22.0916 N   0  0  0  0  0  0
  -23.4201  -28.8035   23.3036 O   0  0  0  0  0  0
  -28.2297  -25.9073   20.2123 O   0  0  0  0  0  0
  -26.5688  -34.8891   22.4611 O   0  0  0  0  0  0
  -23.5635  -32.1274   23.6928 O   0  0  0  0  0  0
  -26.5155  -22.8490   21.0383 C   0  0  0  0  0  0
  -28.5259  -22.0438   20.4401 C   0  0  0  0  0  0
  -27.9822  -24.4532   20.4066 C   0  0  0  0  0  0
  -28.3565  -18.4068   21.2976 C   0  0  0  0  0  0
  -28.5208  -16.8299   21.0729 C   0  0  0  0  0  0
  -30.2819  -17.9493   20.0892 C   0  0  0  0  0  0
  -29.1293  -19.1789   20.2055 C   0  0  2  0  0  0
  -25.1378  -22.5347   21.5857 C   0  0  0  0  0  0
  -27.2992  -21.7848   20.8438 N   0  0  0  0  0  0
  -26.7699  -24.1471   20.8528 N   0  0  0  0  0  0
  -28.9213  -23.3920   20.2131 N   0  0  0  0  0  0
  -29.8206  -16.4733   20.4529 N   0  0  0  0  0  0
  -29.3733  -20.7788   20.3369 N   0  0  0  0  0  0
  -31.4556  -12.9213   19.1848 H   0  0  0  0  0  0
  -30.4747  -11.8212   20.0991 H   0  0  0  0  0  0
  -29.8843  -11.7465   17.6537 H   0  0  0  0  0  0
  -29.5769  -13.4657   17.6560 H   0  0  0  0  0  0
  -27.9986  -11.2846   19.0387 H   0  0  0  0  0  0
  -27.4000  -12.3999   17.8376 H   0  0  0  0  0  0
  -27.5445  -14.2549   19.3646 H   0  0  0  0  0  0
  -28.8075  -12.4357   21.4664 H   0  0  0  0  0  0
  -28.3129  -14.0835   21.7313 H   0  0  0  0  0  0
  -25.2780   -9.5695   22.4756 H   0  0  0  0  0  0
  -24.0016   -7.4645   22.7482 H   0  0  0  0  0  0
  -21.0852   -8.8771   19.8949 H   0  0  0  0  0  0
  -22.3713  -10.9665   19.6163 H   0  0  0  0  0  0
  -21.2013   -7.6152   23.9718 H   0  0  0  0  0  0
  -21.1474   -6.0520   25.9075 H   0  0  0  0  0  0
  -22.0601   -2.7614   23.2841 H   0  0  0  0  0  0
  -22.4043  -11.9832   22.4863 H   0  0  0  0  0  0
  -21.1005  -13.1137   22.2683 H   0  0  0  0  0  0
  -24.6119  -15.8380   20.5310 H   0  0  0  0  0  0
  -26.2259  -15.6432   20.0716 H   0  0  0  0  0  0
  -26.7331  -32.5179   23.0924 H   0  0  0  0  0  0
  -25.0101  -33.9548   25.0257 H   0  0  0  0  0  0
  -22.7740  -31.2778   21.3664 H   0  0  0  0  0  0
  -23.3775  -35.9522   23.3274 H   0  0  0  0  0  0
  -24.3560  -36.8892   22.2062 H   0  0  0  0  0  0
  -23.7215  -37.6384   23.6715 H   0  0  0  0  0  0
  -26.2078  -31.3975   20.6279 H   0  0  0  0  0  0
  -26.8935  -30.7056   22.0595 H   0  0  0  0  0  0
  -28.1302  -28.6429   21.2965 H   0  0  0  0  0  0
  -25.9008  -25.8063   18.9421 H   0  0  0  0  0  0
  -24.0052  -27.3113   18.9176 H   0  0  0  0  0  0
  -23.8511  -30.5444   19.3969 H   0  0  0  0  0  0
  -22.8111  -29.2243   19.8329 H   0  0  0  0  0  0
  -25.1325  -36.1798   25.0794 H   0  0  0  0  0  0
  -21.0018  -28.3345   24.1337 H   0  0  0  0  0  0
  -20.5697  -26.2356   23.3635 H   0  0  0  0  0  0
  -21.6667  -26.7432   22.1201 H   0  0  0  0  0  0
  -19.6937  -25.6273   21.1279 H   0  0  0  0  0  0
  -19.6718  -27.3161   20.6724 H   0  0  0  0  0  0
  -17.4225  -26.6686   21.4025 H   0  0  0  0  0  0
  -18.0356  -26.0092   22.9028 H   0  0  0  0  0  0
  -19.7964  -30.7329   24.2198 H   0  0  0  0  0  0
  -17.5032  -31.6278   24.5167 H   0  0  0  0  0  0
  -15.5372  -30.2975   23.7701 H   0  0  0  0  0  0
  -15.8698  -28.0813   22.7107 H   0  0  0  0  0  0
  -24.5866  -30.7149   25.7697 H   0  0  0  0  0  0
  -24.8872  -32.2995   26.4716 H   0  0  0  0  0  0
  -25.7920  -30.9021   27.0230 H   0  0  0  0  0  0
  -26.3094  -29.6625   24.1395 H   0  0  0  0  0  0
  -27.3934  -29.7272   25.5074 H   0  0  0  0  0  0
  -27.9052  -30.4121   23.9858 H   0  0  0  0  0  0
  -27.2606  -33.3689   26.2003 H   0  0  0  0  0  0
  -28.3900  -32.6885   25.0394 H   0  0  0  0  0  0
  -28.0657  -31.8561   26.5519 H   0  0  0  0  0  0
  -28.2573  -38.0085   24.7530 H   0  0  0  0  0  0
  -28.1087  -36.2609   24.6274 H   0  0  0  0  0  0
  -27.2286  -37.1389   25.8868 H   0  0  0  0  0  0
  -20.9554  -29.8705   21.6687 H   0  0  0  0  0  0
  -26.0131  -38.2781   24.1443 H   0  0  0  0  0  0
  -28.7623  -18.6660   22.2763 H   0  0  0  0  0  0
  -27.3036  -18.6914   21.3126 H   0  0  0  0  0  0
  -27.7439  -16.4909   20.3913 H   0  0  0  0  0  0
  -28.3793  -16.3051   22.0175 H   0  0  0  0  0  0
  -31.1141  -18.1770   20.7560 H   0  0  0  0  0  0
  -30.7056  -17.9350   19.0846 H   0  0  0  0  0  0
  -28.5265  -19.0995   19.2986 H   0  0  0  0  0  0
  -24.8117  -21.5408   21.2803 H   0  0  0  0  0  0
  -24.3963  -23.2506   21.2323 H   0  0  0  0  0  0
  -25.1502  -22.5690   22.6751 H   0  0  0  0  0  0
  -30.3320  -21.0161   20.1084 H   0  0  0  0  0  0
  1 25  1  0  0  0
  1 30  2  0  0  0
  1 82  1  0  0  0
  2  3  1  0  0  0
  2 25  1  0  0  0
  2 84  1  0  0  0
  2 85  1  0  0  0
  3  4  1  0  0  0
  3 86  1  0  0  0
  3 87  1  0  0  0
  4  5  1  0  0  0
  4 88  1  0  0  0
  4 89  1  0  0  0
  5  6  1  0  0  0
  5 26  1  0  0  0
  5 90  1  0  0  0
  6 25  1  0  0  0
  6 91  1  0  0  0
  6 92  1  0  0  0
  7  8  2  0  0  0
  7 26  1  0  0  0
  7 29  1  0  0  0
  8  9  1  0  0  0
  8 22  1  0  0  0
  9 10  1  0  0  0
  9 27  2  0  0  0
 10 11  2  0  0  0
 10 15  1  0  0  0
 11 12  1  0  0  0
 11 93  1  0  0  0
 12 13  2  0  0  0
 12 94  1  0  0  0
 13 14  1  0  0  0
 13 31  1  0  0  0
 14 15  2  0  0  0
 14 95  1  0  0  0
 15 96  1  0  0  0
 16 17  2  0  0  0
 16 21  1  0  0  0
 16 31  1  0  0  0
 17 18  1  0  0  0
 17 97  1  0  0  0
 18 19  2  0  0  0
 18 98  1  0  0  0
 19 20  1  0  0  0
 19 24  1  0  0  0
 20 21  2  0  0  0
 20 99  1  0  0  0
 21 23  1  0  0  0
 22 28  1  0  0  0
 22 32  2  0  0  0
 26 27  1  0  0  0
 28100  1  0  0  0
 28101  1  0  0  0
 29102  1  0  0  0
 29103  1  0  0  0
 33 34  1  0  0  0
 33 66  1  0  0  0
 33 70  2  0  0  0
 34 36  1  0  0  0
 34 59  1  0  0  0
 34104  1  0  0  0
 35 44  2  0  0  0
 35 45  1  0  0  0
 35 68  1  0  0  0
 36 56  1  0  0  0
 36105  1  0  0  0
 37 39  1  0  0  0
 37 47  1  0  0  0
 37 66  1  0  0  0
 37106  1  0  0  0
 38 43  2  0  0  0
 38 46  1  0  0  0
 38 47  1  0  0  0
 39 64  1  0  0  0
 39 67  2  0  0  0
 40 52  1  0  0  0
 40 53  2  0  0  0
 40 58  1  0  0  0
 41107  1  0  0  0
 41108  1  0  0  0
 41109  1  0  0  0
 41 48  1  0  0  0
 42 43  1  0  0  0
 42 66  1  0  0  0
 42110  1  0  0  0
 42111  1  0  0  0
 43 44  1  0  0  0
 44112  1  0  0  0
 45 46  2  0  0  0
 45113  1  0  0  0
 46114  1  0  0  0
 47115  1  0  0  0
 47116  1  0  0  0
 48 56  1  0  0  0
 48 65  1  0  0  0
 48117  1  0  0  0
 49 50  1  0  0  0
 49 53  1  0  0  0
 49 64  1  0  0  0
 49118  1  0  0  0
 50 51  1  0  0  0
 50119  1  0  0  0
 50120  1  0  0  0
 51 52  1  0  0  0
 51121  1  0  0  0
 51122  1  0  0  0
 52123  1  0  0  0
 52124  1  0  0  0
 53 54  1  0  0  0
 54 55  2  0  0  0
 54125  1  0  0  0
 55 57  1  0  0  0
 55126  1  0  0  0
 56 69  2  0  0  0
 57 58  2  0  0  0
 57127  1  0  0  0
 58128  1  0  0  0
 59 60  1  0  0  0
 59 61  1  0  0  0
 59 62  1  0  0  0
 60129  1  0  0  0
 60130  1  0  0  0
 60131  1  0  0  0
 61132  1  0  0  0
 61133  1  0  0  0
 61134  1  0  0  0
 62135  1  0  0  0
 62136  1  0  0  0
 62137  1  0  0  0
 63 65  1  0  0  0
 63138  1  0  0  0
 63139  1  0  0  0
 63140  1  0  0  0
 64141  1  0  0  0
 65142  1  0  0  0
 68 73  1  0  0  0
 71 78  1  0  0  0
 71 79  2  0  0  0
 71 80  1  0  0  0
 72 79  1  0  0  0
 72 81  2  0  0  0
 72 83  1  0  0  0
 73 80  2  0  0  0
 73 81  1  0  0  0
 74 75  1  0  0  0
 74 77  1  0  0  0
 74143  1  0  0  0
 74144  1  0  0  0
 75 82  1  0  0  0
 75145  1  0  0  0
 75146  1  0  0  0
 76 77  1  0  0  0
 76 82  1  0  0  0
 76147  1  0  0  0
 76148  1  0  0  0
 77 83  1  0  0  0
 77149  1  0  0  0
 78150  1  0  0  0
 78151  1  0  0  0
 78152  1  0  0  0
 83153  1  0  0  0
M  ISO  4   1 100  68 101  73 101  82 100
M  END
> <chiral flag>
0

> <version>
0

> <s_m_source_file>
/data/baiqing/PycharmProjects/Reinvent-master-3.2/result/LINK_invent/BTK/process_docking_weight1_custom_sum_contain_oxygen_bond_distance_aromatic_linkinvent_7_9_3/rearranged_h_0185.sdf

> <i_m_source_file_index>
4

> <r_mmod_Potential_Energy-OPLS-2005>
279.982574462891

> <r_mmod_Stretch_Energy-OPLS-2005>
383.568695068359

> <r_mmod_Bend_Energy-OPLS-2005>
386.246734619141

> <r_mmod_Torsional_Energy-OPLS-2005>
289.253326416016

> <r_mmod_Improper_Torsional_Energy-OPLS-2005>
7.70505380630493

> <r_mmod_Van_der_Waal_Energy-OPLS-2005>
140.290237426758

> <r_mmod_Electrostatic_Energy-OPLS-2005>
-1045.11853027344

> <r_mmod_Solvation_Energy-OPLS-2005>
-239.379470825195

> <b_mmod_Minimization_Converged-OPLS-2005>
0

> <r_mmod_RMS_Derivative-OPLS-2005>
2.07455205917358

$$$$
4
                    3D
 Structure written by MMmdl.
158167  0  0  1  0            999 V2000
  -30.3392  -15.5944   20.3461 C   0  0  0  0  0  0
  -30.4005  -13.0598   19.5314 C   0  0  0  0  0  0
  -29.5346  -12.6308   18.3172 C   0  0  0  0  0  0
  -28.1138  -12.2777   18.7702 C   0  0  0  0  0  0
  -27.5865  -13.2989   19.8056 C   0  0  2  0  0  0
  -28.5945  -13.6502   20.9215 C   0  0  0  0  0  0
  -25.2289  -13.8273   20.5749 C   0  0  0  0  0  0
  -24.1689  -13.0427   20.9273 C   0  0  0  0  0  0
  -24.6383  -11.6930   20.8766 C   0  0  0  0  0  0
  -23.9108  -10.4269   21.0396 C   0  0  0  0  0  0
  -24.3641   -9.4189   21.9179 C   0  0  0  0  0  0
  -23.6295   -8.2240   22.0753 C   0  0  0  0  0  0
  -22.4279   -8.0280   21.3541 C   0  0  0  0  0  0
  -21.9915   -9.0263   20.4646 C   0  0  0  0  0  0
  -22.7268  -10.2134   20.3042 C   0  0  0  0  0  0
  -21.6856   -6.0736   22.5280 C   0  0  0  0  0  0
  -21.4036   -6.5641   23.8218 C   0  0  0  0  0  0
  -21.3664   -5.6789   24.9173 C   0  0  0  0  0  0
  -21.6036   -4.3049   24.7218 C   0  0  0  0  0  0
  -21.8822   -3.8146   23.4340 C   0  0  0  0  0  0
  -21.9184   -4.6962   22.3399 C   0  0  0  0  0  0
  -22.7700  -13.5158   21.1902 C   0  0  0  0  0  0
  -22.1639   -4.2151   21.0977 F   0  0  0  0  0  0
  -21.5620   -3.4525   25.7733 F   0  0  0  0  0  0
  -29.7630  -14.2579   20.2479 N   0  0  0  0  0  0
  -26.2717  -12.9571   20.3192 N   0  0  0  0  0  0
  -25.9312  -11.6663   20.5707 N   0  0  0  0  0  0
  -22.0387  -12.8130   22.0462 N   0  0  0  0  0  0
  -25.3910  -15.2023   20.4204 N   0  0  0  0  0  0
  -31.5721  -15.4654   20.2050 O   0  0  0  0  0  0
  -21.6645   -6.8881   21.4235 O   0  0  0  0  0  0
  -22.3374  -14.5461   20.6744 O   0  0  0  0  0  0
  -24.6846  -31.7987   23.1531 C   0  0  0  0  0  0
  -25.9426  -32.4465   23.8055 C   0  0  1  0  0  0
  -27.2076  -26.6957   20.2288 C   0  0  0  0  0  0
  -25.6022  -33.8292   24.1971 N   0  0  0  0  0  0
  -23.5068  -30.4028   21.5078 C   0  0  2  0  0  0
  -24.9607  -28.7412   20.1240 C   0  0  0  0  0  0
  -22.7742  -29.4313   22.4716 C   0  0  0  0  0  0
  -18.0332  -28.1403   22.8440 C   0  0  0  0  0  0
  -24.1492  -36.7173   23.2650 C   0  0  0  0  0  0
  -26.0856  -30.5295   21.4195 C   0  0  0  0  0  0
  -26.1461  -29.0902   20.7798 C   0  0  0  0  0  0
  -27.2563  -28.0933   20.8052 C   0  0  0  0  0  0
  -25.9930  -26.5596   19.5103 C   0  0  0  0  0  0
  -24.9198  -27.4992   19.4673 C   0  0  0  0  0  0
  -23.7611  -29.7024   20.1411 C   0  0  0  0  0  0
  -25.4139  -36.2906   24.0280 C   0  0  1  0  0  0
  -20.5965  -28.3780   23.1154 C   0  0  2  0  0  0
  -20.6796  -26.9442   22.5398 C   0  0  0  0  0  0
  -19.5776  -26.6366   21.5205 C   0  0  0  0  0  0
  -18.1968  -26.7933   22.1617 C   0  0  0  0  0  0
  -19.1604  -28.8914   23.2779 C   0  0  0  0  0  0
  -18.9503  -30.1506   23.8811 C   0  0  0  0  0  0
  -17.6498  -30.6589   24.0551 C   0  0  0  0  0  0
  -25.9111  -34.9284   23.4947 C   0  0  0  0  0  0
  -16.5391  -29.9072   23.6353 C   0  0  0  0  0  0
  -16.7319  -28.6505   23.0349 C   0  0  0  0  0  0
  -26.4604  -31.6482   25.0664 C   0  0  0  0  0  0
  -25.3686  -31.3811   26.1301 C   0  0  0  0  0  0
  -27.0549  -30.2820   24.6562 C   0  0  0  0  0  0
  -27.6029  -32.4355   25.7507 C   0  0  0  0  0  0
  -27.5546  -37.1777   24.8489 C   0  0  0  0  0  0
  -21.4393  -29.3030   22.3488 N   0  0  0  0  0  0
  -26.4290  -37.3647   23.9385 N   0  0  0  0  0  0
  -24.7821  -30.9435   22.0792 N   0  0  0  0  0  0
  -23.4199  -28.7893   23.3035 O   0  0  0  0  0  0
  -28.1893  -25.4947   20.1986 O   0  0  0  0  0  0
  -26.5738  -34.8856   22.4563 O   0  0  0  0  0  0
  -23.5877  -32.1072   23.6499 O   0  0  0  0  0  0
  -27.4775  -21.7788   21.1914 C   0  0  0  0  0  0
  -28.5516  -21.2986   20.4209 C   0  0  0  0  0  0
  -28.1167  -23.8872   20.3658 C   0  0  0  0  0  0
  -28.5216  -17.9758   20.7119 C   0  0  0  0  0  0
  -30.3843  -18.4969   20.1692 C   0  0  0  0  0  0
  -29.0355  -19.5027   20.1531 C   0  0  0  0  0  0
  -33.8281  -23.0137   19.5911 C   0  0  0  0  0  0
  -30.0379  -22.9337   19.0244 C   0  0  0  0  0  0
  -31.3562  -23.2016   19.7797 C   0  0  0  0  0  0
  -28.9143  -22.7143   19.9339 N   0  0  0  0  0  0
  -27.2636  -23.1964   21.1500 N   0  3  0  0  0  0
  -29.7387  -17.0434   20.2911 N   0  0  0  0  0  0
  -32.5096  -22.5077   19.1632 N   0  3  0  0  0  0
  -31.3959  -13.3048   19.1612 H   0  0  0  0  0  0
  -30.5509  -12.2220   20.2133 H   0  0  0  0  0  0
  -29.9870  -11.7863   17.7969 H   0  0  0  0  0  0
  -29.4984  -13.4514   17.6004 H   0  0  0  0  0  0
  -28.1446  -11.2847   19.2233 H   0  0  0  0  0  0
  -27.4408  -12.2071   17.9157 H   0  0  0  0  0  0
  -27.4473  -14.2116   19.2263 H   0  0  0  0  0  0
  -28.8492  -12.7852   21.5350 H   0  0  0  0  0  0
  -28.1551  -14.3858   21.5968 H   0  0  0  0  0  0
  -25.2793   -9.5670   22.4756 H   0  0  0  0  0  0
  -24.0000   -7.4633   22.7482 H   0  0  0  0  0  0
  -21.0841   -8.8807   19.8949 H   0  0  0  0  0  0
  -22.3738  -10.9680   19.6149 H   0  0  0  0  0  0
  -21.2073   -7.6152   23.9716 H   0  0  0  0  0  0
  -21.1465   -6.0520   25.9072 H   0  0  0  0  0  0
  -22.0598   -2.7606   23.2845 H   0  0  0  0  0  0
  -22.3998  -11.9823   22.4911 H   0  0  0  0  0  0
  -21.0993  -13.1141   22.2650 H   0  0  0  0  0  0
  -24.6208  -15.8504   20.5472 H   0  0  0  0  0  0
  -26.2404  -15.6530   20.1064 H   0  0  0  0  0  0
  -26.7507  -32.4924   23.0766 H   0  0  0  0  0  0
  -25.0123  -33.9318   25.0092 H   0  0  0  0  0  0
  -22.8335  -31.2406   21.3209 H   0  0  0  0  0  0
  -23.3736  -35.9531   23.3348 H   0  0  0  0  0  0
  -24.3533  -36.8795   22.2055 H   0  0  0  0  0  0
  -23.7295  -37.6384   23.6703 H   0  0  0  0  0  0
  -26.2822  -31.2478   20.6243 H   0  0  0  0  0  0
  -26.9378  -30.6001   22.0791 H   0  0  0  0  0  0
  -28.1515  -28.3680   21.3435 H   0  0  0  0  0  0
  -25.8342  -25.6274   18.9880 H   0  0  0  0  0  0
  -24.0275  -27.2243   18.9220 H   0  0  0  0  0  0
  -23.9488  -30.4636   19.3834 H   0  0  0  0  0  0
  -22.8630  -29.1786   19.8124 H   0  0  0  0  0  0
  -25.1358  -36.1679   25.0778 H   0  0  0  0  0  0
  -21.0046  -28.3383   24.1283 H   0  0  0  0  0  0
  -20.5656  -26.2381   23.3648 H   0  0  0  0  0  0
  -21.6653  -26.7370   22.1221 H   0  0  0  0  0  0
  -19.6921  -25.6253   21.1284 H   0  0  0  0  0  0
  -19.6716  -27.3125   20.6703 H   0  0  0  0  0  0
  -17.4229  -26.6679   21.4037 H   0  0  0  0  0  0
  -18.0374  -26.0090   22.9032 H   0  0  0  0  0  0
  -19.7983  -30.7354   24.2127 H   0  0  0  0  0  0
  -17.5043  -31.6258   24.5178 H   0  0  0  0  0  0
  -15.5378  -30.2945   23.7712 H   0  0  0  0  0  0
  -15.8729  -28.0801   22.7083 H   0  0  0  0  0  0
  -24.5865  -30.7161   25.7633 H   0  0  0  0  0  0
  -24.8876  -32.3040   26.4558 H   0  0  0  0  0  0
  -25.7865  -30.9087   27.0201 H   0  0  0  0  0  0
  -26.3272  -29.6429   24.1554 H   0  0  0  0  0  0
  -27.3996  -29.7274   25.5302 H   0  0  0  0  0  0
  -27.9237  -30.3965   24.0076 H   0  0  0  0  0  0
  -27.2529  -33.3705   26.1918 H   0  0  0  0  0  0
  -28.3934  -32.6868   25.0413 H   0  0  0  0  0  0
  -28.0608  -31.8606   26.5579 H   0  0  0  0  0  0
  -28.2631  -37.9997   24.7390 H   0  0  0  0  0  0
  -28.0978  -36.2522   24.6520 H   0  0  0  0  0  0
  -27.2241  -37.1654   25.8889 H   0  0  0  0  0  0
  -20.9691  -29.8729   21.6590 H   0  0  0  0  0  0
  -26.0127  -38.2728   24.1289 H   0  0  0  0  0  0
  -26.8075  -21.1736   21.7847 H   0  0  0  0  0  0
  -27.5796  -17.6811   20.2506 H   0  0  0  0  0  0
  -28.3663  -17.9826   21.7915 H   0  0  0  0  0  0
  -30.9661  -18.6204   19.2561 H   0  0  0  0  0  0
  -31.0366  -18.7238   21.0114 H   0  0  0  0  0  0
  -28.7360  -19.4425   19.1069 H   0  0  0  0  0  0
  -34.6248  -22.3736   19.2119 H   0  0  0  0  0  0
  -33.9109  -23.0423   20.6781 H   0  0  0  0  0  0
  -33.9948  -24.0206   19.2064 H   0  0  0  0  0  0
  -30.1093  -22.0471   18.3926 H   0  0  0  0  0  0
  -29.7902  -23.7649   18.3599 H   0  0  0  0  0  0
  -31.2848  -22.8745   20.8193 H   0  0  0  0  0  0
  -31.5365  -24.2771   19.8069 H   0  0  0  0  0  0
  -26.5409  -23.6506   21.6928 H   0  0  0  0  0  0
  -32.4661  -21.5272   19.3932 H   0  0  0  0  0  0
  -32.4656  -22.5846   18.1604 H   0  0  0  0  0  0
  1 25  1  0  0  0
  1 30  2  0  0  0
  1 82  1  0  0  0
  2  3  1  0  0  0
  2 25  1  0  0  0
  2 84  1  0  0  0
  2 85  1  0  0  0
  3  4  1  0  0  0
  3 86  1  0  0  0
  3 87  1  0  0  0
  4  5  1  0  0  0
  4 88  1  0  0  0
  4 89  1  0  0  0
  5  6  1  0  0  0
  5 26  1  0  0  0
  5 90  1  0  0  0
  6 25  1  0  0  0
  6 91  1  0  0  0
  6 92  1  0  0  0
  7  8  2  0  0  0
  7 26  1  0  0  0
  7 29  1  0  0  0
  8  9  1  0  0  0
  8 22  1  0  0  0
  9 10  1  0  0  0
  9 27  2  0  0  0
 10 11  2  0  0  0
 10 15  1  0  0  0
 11 12  1  0  0  0
 11 93  1  0  0  0
 12 13  2  0  0  0
 12 94  1  0  0  0
 13 14  1  0  0  0
 13 31  1  0  0  0
 14 15  2  0  0  0
 14 95  1  0  0  0
 15 96  1  0  0  0
 16 17  2  0  0  0
 16 21  1  0  0  0
 16 31  1  0  0  0
 17 18  1  0  0  0
 17 97  1  0  0  0
 18 19  2  0  0  0
 18 98  1  0  0  0
 19 20  1  0  0  0
 19 24  1  0  0  0
 20 21  2  0  0  0
 20 99  1  0  0  0
 21 23  1  0  0  0
 22 28  1  0  0  0
 22 32  2  0  0  0
 26 27  1  0  0  0
 28100  1  0  0  0
 28101  1  0  0  0
 29102  1  0  0  0
 29103  1  0  0  0
 33 34  1  0  0  0
 33 66  1  0  0  0
 33 70  2  0  0  0
 34 36  1  0  0  0
 34 59  1  0  0  0
 34104  1  0  0  0
 35 44  2  0  0  0
 35 45  1  0  0  0
 35 68  1  0  0  0
 36 56  1  0  0  0
 36105  1  0  0  0
 37 39  1  0  0  0
 37 47  1  0  0  0
 37 66  1  0  0  0
 37106  1  0  0  0
 38 43  2  0  0  0
 38 46  1  0  0  0
 38 47  1  0  0  0
 39 64  1  0  0  0
 39 67  2  0  0  0
 40 52  1  0  0  0
 40 53  2  0  0  0
 40 58  1  0  0  0
 41107  1  0  0  0
 41108  1  0  0  0
 41109  1  0  0  0
 41 48  1  0  0  0
 42 43  1  0  0  0
 42 66  1  0  0  0
 42110  1  0  0  0
 42111  1  0  0  0
 43 44  1  0  0  0
 44112  1  0  0  0
 45 46  2  0  0  0
 45113  1  0  0  0
 46114  1  0  0  0
 47115  1  0  0  0
 47116  1  0  0  0
 48 56  1  0  0  0
 48 65  1  0  0  0
 48117  1  0  0  0
 49 50  1  0  0  0
 49 53  1  0  0  0
 49 64  1  0  0  0
 49118  1  0  0  0
 50 51  1  0  0  0
 50119  1  0  0  0
 50120  1  0  0  0
 51 52  1  0  0  0
 51121  1  0  0  0
 51122  1  0  0  0
 52123  1  0  0  0
 52124  1  0  0  0
 53 54  1  0  0  0
 54 55  2  0  0  0
 54125  1  0  0  0
 55 57  1  0  0  0
 55126  1  0  0  0
 56 69  2  0  0  0
 57 58  2  0  0  0
 57127  1  0  0  0
 58128  1  0  0  0
 59 60  1  0  0  0
 59 61  1  0  0  0
 59 62  1  0  0  0
 60129  1  0  0  0
 60130  1  0  0  0
 60131  1  0  0  0
 61132  1  0  0  0
 61133  1  0  0  0
 61134  1  0  0  0
 62135  1  0  0  0
 62136  1  0  0  0
 62137  1  0  0  0
 63 65  1  0  0  0
 63138  1  0  0  0
 63139  1  0  0  0
 63140  1  0  0  0
 64141  1  0  0  0
 65142  1  0  0  0
 68 73  1  0  0  0
 71 72  2  0  0  0
 71 81  1  0  0  0
 71143  1  0  0  0
 72 80  1  0  0  0
 72 76  1  0  0  0
 73 80  1  0  0  0
 73 81  2  0  0  0
 74 76  1  0  0  0
 74 82  1  0  0  0
 74144  1  0  0  0
 74145  1  0  0  0
 75 76  1  0  0  0
 75 82  1  0  0  0
 75146  1  0  0  0
 75147  1  0  0  0
 76148  1  0  0  0
 77 83  1  0  0  0
 77149  1  0  0  0
 77150  1  0  0  0
 77151  1  0  0  0
 78 79  1  0  0  0
 78 80  1  0  0  0
 78152  1  0  0  0
 78153  1  0  0  0
 79 83  1  0  0  0
 79154  1  0  0  0
 79155  1  0  0  0
 81156  1  0  0  0
 83157  1  0  0  0
 83158  1  0  0  0
M  CHG  2  81   1  83   1
M  ISO  4   1 100  68 101  73 101  82 100
M  END
> <chiral flag>
0

> <version>
0

> <s_m_source_file>
/data/baiqing/PycharmProjects/Reinvent-master-3.2/result/LINK_invent/BTK/process_docking_weight1_custom_sum_contain_oxygen_bond_distance_aromatic_linkinvent_7_9_3/rearranged_h_0185.sdf

> <i_m_source_file_index>
5

> <r_mmod_Potential_Energy-OPLS-2005>
1887.29516601562

> <r_mmod_Stretch_Energy-OPLS-2005>
849.892761230469

> <r_mmod_Bend_Energy-OPLS-2005>
648.900085449219

> <r_mmod_Torsional_Energy-OPLS-2005>
284.145477294922

> <r_mmod_Improper_Torsional_Energy-OPLS-2005>
10.755578994751

> <r_mmod_Van_der_Waal_Energy-OPLS-2005>
101.475074768066

> <r_mmod_Electrostatic_Energy-OPLS-2005>
97.4575805664062

> <r_mmod_Solvation_Energy-OPLS-2005>
-967.405212402344

> <b_mmod_Minimization_Converged-OPLS-2005>
0

> <r_mmod_RMS_Derivative-OPLS-2005>
3.89487862586975

$$$$
5
                    3D
 Structure written by MMmdl.
158167  0  0  1  0            999 V2000
  -30.6283  -14.8095   20.4613 C   0  0  0  0  0  0
  -30.4431  -12.5126   19.4721 C   0  0  0  0  0  0
  -29.5179  -12.5135   18.2357 C   0  0  0  0  0  0
  -28.0448  -12.3280   18.6486 C   0  0  0  0  0  0
  -27.6418  -13.2349   19.8455 C   0  0  2  0  0  0
  -28.6936  -13.1850   20.9787 C   0  0  0  0  0  0
  -25.2503  -13.8202   20.5699 C   0  0  0  0  0  0
  -24.1788  -13.0447   20.9151 C   0  0  0  0  0  0
  -24.6364  -11.6922   20.8655 C   0  0  0  0  0  0
  -23.9045  -10.4291   21.0340 C   0  0  0  0  0  0
  -24.3603   -9.4224   21.9127 C   0  0  0  0  0  0
  -23.6299   -8.2254   22.0746 C   0  0  0  0  0  0
  -22.4268   -8.0277   21.3556 C   0  0  0  0  0  0
  -21.9877   -9.0236   20.4642 C   0  0  0  0  0  0
  -22.7198  -10.2122   20.3028 C   0  0  0  0  0  0
  -21.6867   -6.0720   22.5267 C   0  0  0  0  0  0
  -21.4029   -6.5622   23.8196 C   0  0  0  0  0  0
  -21.3672   -5.6772   24.9155 C   0  0  0  0  0  0
  -21.6047   -4.3034   24.7199 C   0  0  0  0  0  0
  -21.8826   -3.8131   23.4320 C   0  0  0  0  0  0
  -21.9208   -4.6950   22.3385 C   0  0  0  0  0  0
  -22.7804  -13.5240   21.1798 C   0  0  0  0  0  0
  -22.1668   -4.2125   21.0962 F   0  0  0  0  0  0
  -21.5625   -3.4528   25.7722 F   0  0  0  0  0  0
  -29.9749  -13.5906   20.3832 N   0  0  0  0  0  0
  -26.2940  -12.9424   20.3243 N   0  0  0  0  0  0
  -25.9310  -11.6554   20.5666 N   0  0  0  0  0  0
  -22.0424  -12.8285   22.0371 N   0  0  0  0  0  0
  -25.4066  -15.1934   20.4166 N   0  0  0  0  0  0
  -31.8229  -14.8365   20.1490 O   0  0  0  0  0  0
  -21.6657   -6.8865   21.4244 O   0  0  0  0  0  0
  -22.3465  -14.5510   20.6599 O   0  0  0  0  0  0
  -24.6323  -31.8514   23.1960 C   0  0  0  0  0  0
  -25.9136  -32.4721   23.8309 C   0  0  1  0  0  0
  -27.2252  -27.2434   20.0972 C   0  0  0  0  0  0
  -25.5914  -33.8517   24.2234 N   0  0  0  0  0  0
  -23.4295  -30.4708   21.5418 C   0  0  2  0  0  0
  -24.8750  -28.9116   20.1131 C   0  0  0  0  0  0
  -22.7516  -29.4549   22.4921 C   0  0  0  0  0  0
  -18.0283  -28.1396   22.8501 C   0  0  0  0  0  0
  -24.1488  -36.7274   23.2631 C   0  0  0  0  0  0
  -25.9784  -30.7508   21.3824 C   0  0  0  0  0  0
  -26.0483  -29.3739   20.7179 C   0  0  0  0  0  0
  -27.2224  -28.5475   20.7047 C   0  0  0  0  0  0
  -26.0148  -26.8415   19.4917 C   0  0  0  0  0  0
  -24.8587  -27.6495   19.4987 C   0  0  0  0  0  0
  -23.6481  -29.8037   20.1604 C   0  0  0  0  0  0
  -25.4099  -36.3044   24.0322 C   0  0  1  0  0  0
  -20.5895  -28.3674   23.1300 C   0  0  2  0  0  0
  -20.6785  -26.9387   22.5419 C   0  0  0  0  0  0
  -19.5751  -26.6383   21.5238 C   0  0  0  0  0  0
  -18.1933  -26.7931   22.1655 C   0  0  0  0  0  0
  -19.1546  -28.8858   23.2902 C   0  0  0  0  0  0
  -18.9461  -30.1473   23.8893 C   0  0  0  0  0  0
  -17.6456  -30.6589   24.0554 C   0  0  0  0  0  0
  -25.9049  -34.9421   23.5083 C   0  0  0  0  0  0
  -16.5344  -29.9062   23.6343 C   0  0  0  0  0  0
  -16.7281  -28.6498   23.0345 C   0  0  0  0  0  0
  -26.4512  -31.6563   25.0715 C   0  0  0  0  0  0
  -25.3706  -31.3766   26.1427 C   0  0  0  0  0  0
  -27.0375  -30.2966   24.6268 C   0  0  0  0  0  0
  -27.6059  -32.4311   25.7473 C   0  0  0  0  0  0
  -27.5589  -37.1761   24.8454 C   0  0  0  0  0  0
  -21.4217  -29.3007   22.3702 N   0  0  0  0  0  0
  -26.4286  -37.3744   23.9430 N   0  0  0  0  0  0
  -24.6982  -31.0425   22.0963 N   0  0  0  0  0  0
  -23.4204  -28.8068   23.3006 O   0  0  0  0  0  0
  -28.3258  -26.3452   20.1678 O   0  0  0  0  0  0
  -26.5638  -34.8909   22.4677 O   0  0  0  0  0  0
  -23.5458  -32.1346   23.7241 O   0  0  0  0  0  0
  -28.3037  -24.9890   18.1071 C   0  0  0  0  0  0
  -28.7875  -22.6978   18.1086 C   0  0  0  0  0  0
  -28.9038  -22.6653   19.5389 C   0  0  0  0  0  0
  -28.4012  -25.0666   19.5155 C   0  0  0  0  0  0
  -28.4656  -17.9434   21.1192 C   0  0  0  0  0  0
  -28.8320  -16.4449   21.3847 C   0  0  0  0  0  0
  -30.3563  -17.3420   19.8294 C   0  0  0  0  0  0
  -29.7112  -18.6245   20.5442 C   0  0  1  0  0  0
  -28.9833  -21.4892   17.2039 C   0  0  0  0  0  0
  -29.1948  -21.3065   20.3813 C   0  0  0  0  0  0
  -28.4872  -23.8322   17.4235 N   0  0  0  0  0  0
  -28.7171  -23.8893   20.2119 N   0  0  0  0  0  0
  -29.9261  -16.0352   20.4823 N   0  0  0  0  0  0
  -29.4738  -19.9271   19.7269 N   0  3  0  0  0  0
  -31.4725  -12.6552   19.1417 H   0  0  0  0  0  0
  -30.4367  -11.5483   19.9825 H   0  0  0  0  0  0
  -29.8190  -11.7284   17.5404 H   0  0  0  0  0  0
  -29.6239  -13.4573   17.6979 H   0  0  0  0  0  0
  -27.9054  -11.2779   18.9065 H   0  0  0  0  0  0
  -27.3906  -12.5128   17.7940 H   0  0  0  0  0  0
  -27.6290  -14.2503   19.4490 H   0  0  0  0  0  0
  -28.7613  -12.1829   21.3997 H   0  0  0  0  0  0
  -28.4223  -13.8284   21.8122 H   0  0  0  0  0  0
  -25.2747   -9.5733   22.4679 H   0  0  0  0  0  0
  -24.0015   -7.4672   22.7502 H   0  0  0  0  0  0
  -21.0783   -8.8750   19.8968 H   0  0  0  0  0  0
  -22.3622  -10.9659   19.6132 H   0  0  0  0  0  0
  -21.2024   -7.6122   23.9687 H   0  0  0  0  0  0
  -21.1486   -6.0491   25.9051 H   0  0  0  0  0  0
  -22.0592   -2.7589   23.2804 H   0  0  0  0  0  0
  -22.4066  -12.0063   22.4930 H   0  0  0  0  0  0
  -21.1025  -13.1307   22.2501 H   0  0  0  0  0  0
  -24.6227  -15.8265   20.5331 H   0  0  0  0  0  0
  -26.2441  -15.6540   20.0887 H   0  0  0  0  0  0
  -26.7176  -32.5359   23.1018 H   0  0  0  0  0  0
  -25.0026  -33.9620   25.0348 H   0  0  0  0  0  0
  -22.7247  -31.2917   21.3953 H   0  0  0  0  0  0
  -23.3752  -35.9604   23.3245 H   0  0  0  0  0  0
  -24.3595  -36.8953   22.2064 H   0  0  0  0  0  0
  -23.7246  -37.6453   23.6692 H   0  0  0  0  0  0
  -26.1217  -31.5113   20.6150 H   0  0  0  0  0  0
  -26.8535  -30.7962   22.0188 H   0  0  0  0  0  0
  -28.1200  -28.8857   21.2016 H   0  0  0  0  0  0
  -25.9278  -25.8680   19.0362 H   0  0  0  0  0  0
  -23.9483  -27.2774   19.0455 H   0  0  0  0  0  0
  -23.7794  -30.5774   19.4046 H   0  0  0  0  0  0
  -22.7663  -29.2413   19.8556 H   0  0  0  0  0  0
  -25.1280  -36.1863   25.0808 H   0  0  0  0  0  0
  -20.9994  -28.3240   24.1421 H   0  0  0  0  0  0
  -20.5740  -26.2256   23.3603 H   0  0  0  0  0  0
  -21.6644  -26.7430   22.1189 H   0  0  0  0  0  0
  -19.6885  -25.6300   21.1265 H   0  0  0  0  0  0
  -19.6671  -27.3214   20.6789 H   0  0  0  0  0  0
  -17.4186  -26.6685   21.4060 H   0  0  0  0  0  0
  -18.0292  -26.0071   22.9059 H   0  0  0  0  0  0
  -19.7928  -30.7328   24.2219 H   0  0  0  0  0  0
  -17.4978  -31.6258   24.5172 H   0  0  0  0  0  0
  -15.5346  -30.2946   23.7658 H   0  0  0  0  0  0
  -15.8696  -28.0829   22.7017 H   0  0  0  0  0  0
  -24.5812  -30.7211   25.7743 H   0  0  0  0  0  0
  -24.8978  -32.2968   26.4868 H   0  0  0  0  0  0
  -25.7950  -30.8889   27.0212 H   0  0  0  0  0  0
  -26.3014  -29.6669   24.1268 H   0  0  0  0  0  0
  -27.4005  -29.7272   25.4842 H   0  0  0  0  0  0
  -27.8903  -30.4219   23.9588 H   0  0  0  0  0  0
  -27.2672  -33.3585   26.2113 H   0  0  0  0  0  0
  -28.3833  -32.6927   25.0273 H   0  0  0  0  0  0
  -28.0806  -31.8418   26.5340 H   0  0  0  0  0  0
  -28.2550  -38.0110   24.7555 H   0  0  0  0  0  0
  -28.1144  -36.2642   24.6195 H   0  0  0  0  0  0
  -27.2335  -37.1327   25.8862 H   0  0  0  0  0  0
  -20.9379  -29.8727   21.6925 H   0  0  0  0  0  0
  -26.0151  -38.2806   24.1448 H   0  0  0  0  0  0
  -28.0997  -25.8694   17.5135 H   0  0  0  0  0  0
  -28.1016  -18.4429   22.0190 H   0  0  0  0  0  0
  -27.6634  -17.9791   20.3830 H   0  0  0  0  0  0
  -27.9408  -15.8452   21.2342 H   0  0  0  0  0  0
  -29.1533  -16.3046   22.4198 H   0  0  0  0  0  0
  -31.4462  -17.4247   19.8188 H   0  0  0  0  0  0
  -30.0392  -17.3015   18.7867 H   0  0  0  0  0  0
  -30.3787  -18.8845   21.3661 H   0  0  0  0  0  0
  -29.9697  -21.0479   17.3480 H   0  0  0  0  0  0
  -28.9233  -21.7534   16.1454 H   0  0  0  0  0  0
  -28.2134  -20.7384   17.3865 H   0  0  0  0  0  0
  -28.3364  -21.1763   21.0390 H   0  0  0  0  0  0
  -30.0365  -21.5155   21.0408 H   0  0  0  0  0  0
  -28.7140  -19.7351   19.0953 H   0  0  0  0  0  0
  -30.3041  -20.0607   19.1742 H   0  0  0  0  0  0
  1 25  1  0  0  0
  1 30  2  0  0  0
  1 83  1  0  0  0
  2  3  1  0  0  0
  2 25  1  0  0  0
  2 85  1  0  0  0
  2 86  1  0  0  0
  3  4  1  0  0  0
  3 87  1  0  0  0
  3 88  1  0  0  0
  4  5  1  0  0  0
  4 89  1  0  0  0
  4 90  1  0  0  0
  5  6  1  0  0  0
  5 26  1  0  0  0
  5 91  1  0  0  0
  6 25  1  0  0  0
  6 92  1  0  0  0
  6 93  1  0  0  0
  7  8  2  0  0  0
  7 26  1  0  0  0
  7 29  1  0  0  0
  8  9  1  0  0  0
  8 22  1  0  0  0
  9 10  1  0  0  0
  9 27  2  0  0  0
 10 11  2  0  0  0
 10 15  1  0  0  0
 11 12  1  0  0  0
 11 94  1  0  0  0
 12 13  2  0  0  0
 12 95  1  0  0  0
 13 14  1  0  0  0
 13 31  1  0  0  0
 14 15  2  0  0  0
 14 96  1  0  0  0
 15 97  1  0  0  0
 16 17  2  0  0  0
 16 21  1  0  0  0
 16 31  1  0  0  0
 17 18  1  0  0  0
 17 98  1  0  0  0
 18 19  2  0  0  0
 18 99  1  0  0  0
 19 20  1  0  0  0
 19 24  1  0  0  0
 20 21  2  0  0  0
 20100  1  0  0  0
 21 23  1  0  0  0
 22 28  1  0  0  0
 22 32  2  0  0  0
 26 27  1  0  0  0
 28101  1  0  0  0
 28102  1  0  0  0
 29103  1  0  0  0
 29104  1  0  0  0
 33 34  1  0  0  0
 33 66  1  0  0  0
 33 70  2  0  0  0
 34 36  1  0  0  0
 34 59  1  0  0  0
 34105  1  0  0  0
 35 44  2  0  0  0
 35 45  1  0  0  0
 35 68  1  0  0  0
 36 56  1  0  0  0
 36106  1  0  0  0
 37 39  1  0  0  0
 37 47  1  0  0  0
 37 66  1  0  0  0
 37107  1  0  0  0
 38 43  2  0  0  0
 38 46  1  0  0  0
 38 47  1  0  0  0
 39 64  1  0  0  0
 39 67  2  0  0  0
 40 52  1  0  0  0
 40 53  2  0  0  0
 40 58  1  0  0  0
 41108  1  0  0  0
 41109  1  0  0  0
 41110  1  0  0  0
 41 48  1  0  0  0
 42 43  1  0  0  0
 42 66  1  0  0  0
 42111  1  0  0  0
 42112  1  0  0  0
 43 44  1  0  0  0
 44113  1  0  0  0
 45 46  2  0  0  0
 45114  1  0  0  0
 46115  1  0  0  0
 47116  1  0  0  0
 47117  1  0  0  0
 48 56  1  0  0  0
 48 65  1  0  0  0
 48118  1  0  0  0
 49 50  1  0  0  0
 49 53  1  0  0  0
 49 64  1  0  0  0
 49119  1  0  0  0
 50 51  1  0  0  0
 50120  1  0  0  0
 50121  1  0  0  0
 51 52  1  0  0  0
 51122  1  0  0  0
 51123  1  0  0  0
 52124  1  0  0  0
 52125  1  0  0  0
 53 54  1  0  0  0
 54 55  2  0  0  0
 54126  1  0  0  0
 55 57  1  0  0  0
 55127  1  0  0  0
 56 69  2  0  0  0
 57 58  2  0  0  0
 57128  1  0  0  0
 58129  1  0  0  0
 59 60  1  0  0  0
 59 61  1  0  0  0
 59 62  1  0  0  0
 60130  1  0  0  0
 60131  1  0  0  0
 60132  1  0  0  0
 61133  1  0  0  0
 61134  1  0  0  0
 61135  1  0  0  0
 62136  1  0  0  0
 62137  1  0  0  0
 62138  1  0  0  0
 63 65  1  0  0  0
 63139  1  0  0  0
 63140  1  0  0  0
 63141  1  0  0  0
 64142  1  0  0  0
 65143  1  0  0  0
 68 74  1  0  0  0
 71 74  2  0  0  0
 71 81  1  0  0  0
 71144  1  0  0  0
 72 73  1  0  0  0
 72 79  1  0  0  0
 72 81  2  0  0  0
 73 80  1  0  0  0
 73 82  2  0  0  0
 74 82  1  0  0  0
 75 76  1  0  0  0
 75 78  1  0  0  0
 75145  1  0  0  0
 75146  1  0  0  0
 76 83  1  0  0  0
 76147  1  0  0  0
 76148  1  0  0  0
 77 78  1  0  0  0
 77 83  1  0  0  0
 77149  1  0  0  0
 77150  1  0  0  0
 78 84  1  0  0  0
 78151  1  0  0  0
 79152  1  0  0  0
 79153  1  0  0  0
 79154  1  0  0  0
 80 84  1  0  0  0
 80155  1  0  0  0
 80156  1  0  0  0
 84157  1  0  0  0
 84158  1  0  0  0
M  CHG  1  84   1
M  ISO  4   1 100  68 101  74 101  83 100
M  END
> <chiral flag>
0

> <version>
0

> <s_m_source_file>
/data/baiqing/PycharmProjects/Reinvent-master-3.2/result/LINK_invent/BTK/process_docking_weight1_custom_sum_contain_oxygen_bond_distance_aromatic_linkinvent_7_9_3/rearranged_h_0185.sdf

> <i_m_source_file_index>
6

> <r_mmod_Potential_Energy-OPLS-2005>
273.531768798828

> <r_mmod_Stretch_Energy-OPLS-2005>
148.732086181641

> <r_mmod_Bend_Energy-OPLS-2005>
218.429016113281

> <r_mmod_Torsional_Energy-OPLS-2005>
325.542175292969

> <r_mmod_Improper_Torsional_Energy-OPLS-2005>
12.6168546676636

> <r_mmod_Van_der_Waal_Energy-OPLS-2005>
135.516143798828

> <r_mmod_Electrostatic_Energy-OPLS-2005>
-173.710586547852

> <r_mmod_Solvation_Energy-OPLS-2005>
-498.506134033203

> <b_mmod_Minimization_Converged-OPLS-2005>
0

> <r_mmod_RMS_Derivative-OPLS-2005>
4.96825265884399

$$$$
6
                    3D
 Structure written by MMmdl.
158168  0  0  1  0            999 V2000
  -30.5752  -14.8477   20.4547 C   0  0  0  0  0  0
  -30.4348  -12.5283   19.4913 C   0  0  0  0  0  0
  -29.5202  -12.5365   18.2476 C   0  0  0  0  0  0
  -28.0499  -12.3338   18.6546 C   0  0  0  0  0  0
  -27.6366  -13.2392   19.8474 C   0  0  2  0  0  0
  -28.6739  -13.2154   20.9875 C   0  0  0  0  0  0
  -25.2522  -13.8208   20.5696 C   0  0  0  0  0  0
  -24.1801  -13.0458   20.9190 C   0  0  0  0  0  0
  -24.6387  -11.6935   20.8718 C   0  0  0  0  0  0
  -23.9064  -10.4327   21.0382 C   0  0  0  0  0  0
  -24.3634   -9.4252   21.9169 C   0  0  0  0  0  0
  -23.6314   -8.2273   22.0750 C   0  0  0  0  0  0
  -22.4297   -8.0299   21.3549 C   0  0  0  0  0  0
  -21.9918   -9.0260   20.4646 C   0  0  0  0  0  0
  -22.7236  -10.2147   20.3049 C   0  0  0  0  0  0
  -21.6878   -6.0736   22.5272 C   0  0  0  0  0  0
  -21.4023   -6.5633   23.8205 C   0  0  0  0  0  0
  -21.3665   -5.6783   24.9169 C   0  0  0  0  0  0
  -21.6064   -4.3054   24.7210 C   0  0  0  0  0  0
  -21.8818   -3.8135   23.4325 C   0  0  0  0  0  0
  -21.9202   -4.6961   22.3384 C   0  0  0  0  0  0
  -22.7820  -13.5252   21.1826 C   0  0  0  0  0  0
  -22.1668   -4.2156   21.0959 F   0  0  0  0  0  0
  -21.5634   -3.4525   25.7712 F   0  0  0  0  0  0
  -29.9603  -13.6049   20.4019 N   0  0  0  0  0  0
  -26.2926  -12.9412   20.3269 N   0  0  0  0  0  0
  -25.9329  -11.6557   20.5729 N   0  0  0  0  0  0
  -22.0450  -12.8290   22.0397 N   0  0  0  0  0  0
  -25.4238  -15.1930   20.4151 N   0  0  0  0  0  0
  -31.7681  -14.9146   20.1375 O   0  0  0  0  0  0
  -21.6663   -6.8888   21.4247 O   0  0  0  0  0  0
  -22.3511  -14.5521   20.6615 O   0  0  0  0  0  0
  -24.6407  -31.8495   23.1895 C   0  0  0  0  0  0
  -25.9195  -32.4732   23.8289 C   0  0  1  0  0  0
  -27.2340  -27.1979   20.1439 C   0  0  0  0  0  0
  -25.5956  -33.8529   24.2236 N   0  0  0  0  0  0
  -23.4423  -30.4680   21.5332 C   0  0  2  0  0  0
  -24.8950  -28.9010   20.1112 C   0  0  0  0  0  0
  -22.7556  -29.4582   22.4875 C   0  0  0  0  0  0
  -18.0299  -28.1404   22.8495 C   0  0  0  0  0  0
  -24.1486  -36.7279   23.2639 C   0  0  0  0  0  0
  -25.9904  -30.7502   21.3687 C   0  0  0  0  0  0
  -26.0691  -29.3607   20.7197 C   0  0  0  0  0  0
  -27.2401  -28.5248   20.7207 C   0  0  0  0  0  0
  -26.0346  -26.8252   19.4988 C   0  0  0  0  0  0
  -24.8861  -27.6441   19.4892 C   0  0  0  0  0  0
  -23.6661  -29.7915   20.1539 C   0  0  0  0  0  0
  -25.4111  -36.3047   24.0323 C   0  0  1  0  0  0
  -20.5916  -28.3733   23.1264 C   0  0  2  0  0  0
  -20.6807  -26.9445   22.5418 C   0  0  0  0  0  0
  -19.5767  -26.6397   21.5248 C   0  0  0  0  0  0
  -18.1948  -26.7953   22.1646 C   0  0  0  0  0  0
  -19.1553  -28.8885   23.2877 C   0  0  0  0  0  0
  -18.9466  -30.1492   23.8893 C   0  0  0  0  0  0
  -17.6460  -30.6600   24.0572 C   0  0  0  0  0  0
  -25.9062  -34.9420   23.5081 C   0  0  0  0  0  0
  -16.5351  -29.9099   23.6325 C   0  0  0  0  0  0
  -16.7289  -28.6513   23.0355 C   0  0  0  0  0  0
  -26.4554  -31.6553   25.0682 C   0  0  0  0  0  0
  -25.3750  -31.3725   26.1379 C   0  0  0  0  0  0
  -27.0392  -30.2959   24.6166 C   0  0  0  0  0  0
  -27.6109  -32.4263   25.7484 C   0  0  0  0  0  0
  -27.5576  -37.1785   24.8466 C   0  0  0  0  0  0
  -21.4251  -29.3067   22.3626 N   0  0  0  0  0  0
  -26.4282  -37.3747   23.9413 N   0  0  0  0  0  0
  -24.7118  -31.0405   22.0885 N   0  0  0  0  0  0
  -23.4223  -28.8135   23.3014 O   0  0  0  0  0  0
  -28.3135  -26.2610   20.2253 O   0  0  0  0  0  0
  -26.5635  -34.8909   22.4651 O   0  0  0  0  0  0
  -23.5538  -32.1333   23.7139 O   0  0  0  0  0  0
  -28.7721  -20.1179   18.8950 C   0  0  0  0  0  0
  -29.1410  -19.7294   20.2140 C   0  0  0  0  0  0
  -28.7373  -21.4965   18.8351 C   0  0  0  0  0  0
  -27.1319  -22.6142   17.1031 C   0  0  0  0  0  0
  -28.0898  -21.7509   16.3117 C   0  0  0  0  0  0
  -29.1761  -16.9349   19.7440 C   0  0  0  0  0  0
  -30.4702  -17.3217   21.2277 C   0  0  0  0  0  0
  -29.2537  -18.1764   20.7157 C   0  0  0  0  0  0
  -28.5172  -22.3518   17.6295 C   0  0  0  0  0  0
  -29.1271  -23.5488   20.4792 C   0  0  0  0  0  0
  -28.0953  -24.7573   19.9956 C   0  0  0  0  0  0
  -29.2372  -20.9157   20.9296 N   0  0  0  0  0  0
  -28.9604  -22.0363   20.0964 N   0  0  0  0  0  0
  -29.8495  -16.0284   20.7411 N   0  0  0  0  0  0
  -31.4691  -12.6814   19.1832 H   0  0  0  0  0  0
  -30.4111  -11.5568   19.9880 H   0  0  0  0  0  0
  -29.8314  -11.7623   17.5455 H   0  0  0  0  0  0
  -29.6291  -13.4874   17.7241 H   0  0  0  0  0  0
  -27.9290  -11.2840   18.9221 H   0  0  0  0  0  0
  -27.3968  -12.5127   17.7999 H   0  0  0  0  0  0
  -27.6173  -14.2554   19.4539 H   0  0  0  0  0  0
  -28.7342  -12.2239   21.4424 H   0  0  0  0  0  0
  -28.3826  -13.9080   21.7798 H   0  0  0  0  0  0
  -25.2792   -9.5727   22.4727 H   0  0  0  0  0  0
  -24.0044   -7.4671   22.7463 H   0  0  0  0  0  0
  -21.0854   -8.8765   19.8941 H   0  0  0  0  0  0
  -22.3701  -10.9674   19.6136 H   0  0  0  0  0  0
  -21.2006   -7.6142   23.9717 H   0  0  0  0  0  0
  -21.1505   -6.0507   25.9083 H   0  0  0  0  0  0
  -22.0589   -2.7604   23.2815 H   0  0  0  0  0  0
  -22.4080  -11.9997   22.4867 H   0  0  0  0  0  0
  -21.1033  -13.1282   22.2485 H   0  0  0  0  0  0
  -24.6623  -15.8508   20.5397 H   0  0  0  0  0  0
  -26.2930  -15.6376   20.1465 H   0  0  0  0  0  0
  -26.7268  -32.5386   23.1045 H   0  0  0  0  0  0
  -25.0098  -33.9654   25.0383 H   0  0  0  0  0  0
  -22.7421  -31.2903   21.3752 H   0  0  0  0  0  0
  -23.3744  -35.9612   23.3273 H   0  0  0  0  0  0
  -24.3584  -36.8929   22.2059 H   0  0  0  0  0  0
  -23.7236  -37.6471   23.6684 H   0  0  0  0  0  0
  -26.1103  -31.4978   20.5824 H   0  0  0  0  0  0
  -26.8758  -30.8248   21.9880 H   0  0  0  0  0  0
  -28.1373  -28.8742   21.2112 H   0  0  0  0  0  0
  -25.9506  -25.8634   19.0143 H   0  0  0  0  0  0
  -23.9858  -27.2814   19.0124 H   0  0  0  0  0  0
  -23.7950  -30.5610   19.3920 H   0  0  0  0  0  0
  -22.7859  -29.2211   19.8519 H   0  0  0  0  0  0
  -25.1289  -36.1888   25.0813 H   0  0  0  0  0  0
  -21.0016  -28.3325   24.1377 H   0  0  0  0  0  0
  -20.5760  -26.2348   23.3632 H   0  0  0  0  0  0
  -21.6668  -26.7497   22.1165 H   0  0  0  0  0  0
  -19.6940  -25.6305   21.1287 H   0  0  0  0  0  0
  -19.6705  -27.3203   20.6774 H   0  0  0  0  0  0
  -17.4232  -26.6718   21.4028 H   0  0  0  0  0  0
  -18.0316  -26.0096   22.9030 H   0  0  0  0  0  0
  -19.7932  -30.7335   24.2247 H   0  0  0  0  0  0
  -17.4993  -31.6270   24.5187 H   0  0  0  0  0  0
  -15.5351  -30.3001   23.7638 H   0  0  0  0  0  0
  -15.8687  -28.0834   22.7074 H   0  0  0  0  0  0
  -24.5938  -30.7077   25.7694 H   0  0  0  0  0  0
  -24.8944  -32.2902   26.4766 H   0  0  0  0  0  0
  -25.8028  -30.8916   27.0183 H   0  0  0  0  0  0
  -26.2974  -29.6682   24.1217 H   0  0  0  0  0  0
  -27.4115  -29.7244   25.4684 H   0  0  0  0  0  0
  -27.8831  -30.4242   23.9381 H   0  0  0  0  0  0
  -27.2766  -33.3605   26.2016 H   0  0  0  0  0  0
  -28.3985  -32.6728   25.0345 H   0  0  0  0  0  0
  -28.0710  -31.8382   26.5445 H   0  0  0  0  0  0
  -28.2571  -38.0098   24.7497 H   0  0  0  0  0  0
  -28.1080  -36.2618   24.6293 H   0  0  0  0  0  0
  -27.2294  -37.1442   25.8868 H   0  0  0  0  0  0
  -20.9463  -29.8764   21.6785 H   0  0  0  0  0  0
  -26.0156  -38.2813   24.1406 H   0  0  0  0  0  0
  -28.5679  -19.4491   18.0736 H   0  0  0  0  0  0
  -26.3181  -22.1330   17.6432 H   0  0  0  0  0  0
  -26.9176  -23.6086   16.7147 H   0  0  0  0  0  0
  -28.5428  -22.1710   15.4162 H   0  0  0  0  0  0
  -27.8819  -20.6819   16.2670 H   0  0  0  0  0  0
  -29.7551  -17.0821   18.8276 H   0  0  0  0  0  0
  -28.1513  -16.6617   19.4927 H   0  0  0  0  0  0
  -30.5915  -17.3712   22.3109 H   0  0  0  0  0  0
  -31.4101  -17.5771   20.7339 H   0  0  0  0  0  0
  -28.4618  -18.0491   21.4571 H   0  0  0  0  0  0
  -29.2439  -23.1614   17.5774 H   0  0  0  0  0  0
  -29.2404  -23.6073   21.5616 H   0  0  0  0  0  0
  -30.1048  -23.8300   20.0829 H   0  0  0  0  0  0
  -27.1271  -24.5023   20.4253 H   0  0  0  0  0  0
  -27.9678  -24.6645   18.9182 H   0  0  0  0  0  0
  1 25  1  0  0  0
  1 30  2  0  0  0
  1 84  1  0  0  0
  2  3  1  0  0  0
  2 25  1  0  0  0
  2 85  1  0  0  0
  2 86  1  0  0  0
  3  4  1  0  0  0
  3 87  1  0  0  0
  3 88  1  0  0  0
  4  5  1  0  0  0
  4 89  1  0  0  0
  4 90  1  0  0  0
  5  6  1  0  0  0
  5 26  1  0  0  0
  5 91  1  0  0  0
  6 25  1  0  0  0
  6 92  1  0  0  0
  6 93  1  0  0  0
  7  8  2  0  0  0
  7 26  1  0  0  0
  7 29  1  0  0  0
  8  9  1  0  0  0
  8 22  1  0  0  0
  9 10  1  0  0  0
  9 27  2  0  0  0
 10 11  2  0  0  0
 10 15  1  0  0  0
 11 12  1  0  0  0
 11 94  1  0  0  0
 12 13  2  0  0  0
 12 95  1  0  0  0
 13 14  1  0  0  0
 13 31  1  0  0  0
 14 15  2  0  0  0
 14 96  1  0  0  0
 15 97  1  0  0  0
 16 17  2  0  0  0
 16 21  1  0  0  0
 16 31  1  0  0  0
 17 18  1  0  0  0
 17 98  1  0  0  0
 18 19  2  0  0  0
 18 99  1  0  0  0
 19 20  1  0  0  0
 19 24  1  0  0  0
 20 21  2  0  0  0
 20100  1  0  0  0
 21 23  1  0  0  0
 22 28  1  0  0  0
 22 32  2  0  0  0
 26 27  1  0  0  0
 28101  1  0  0  0
 28102  1  0  0  0
 29103  1  0  0  0
 29104  1  0  0  0
 33 34  1  0  0  0
 33 66  1  0  0  0
 33 70  2  0  0  0
 34 36  1  0  0  0
 34 59  1  0  0  0
 34105  1  0  0  0
 35 44  2  0  0  0
 35 45  1  0  0  0
 35 68  1  0  0  0
 36 56  1  0  0  0
 36106  1  0  0  0
 37 39  1  0  0  0
 37 47  1  0  0  0
 37 66  1  0  0  0
 37107  1  0  0  0
 38 43  2  0  0  0
 38 46  1  0  0  0
 38 47  1  0  0  0
 39 64  1  0  0  0
 39 67  2  0  0  0
 40 52  1  0  0  0
 40 53  2  0  0  0
 40 58  1  0  0  0
 41108  1  0  0  0
 41109  1  0  0  0
 41110  1  0  0  0
 41 48  1  0  0  0
 42 43  1  0  0  0
 42 66  1  0  0  0
 42111  1  0  0  0
 42112  1  0  0  0
 43 44  1  0  0  0
 44113  1  0  0  0
 45 46  2  0  0  0
 45114  1  0  0  0
 46115  1  0  0  0
 47116  1  0  0  0
 47117  1  0  0  0
 48 56  1  0  0  0
 48 65  1  0  0  0
 48118  1  0  0  0
 49 50  1  0  0  0
 49 53  1  0  0  0
 49 64  1  0  0  0
 49119  1  0  0  0
 50 51  1  0  0  0
 50120  1  0  0  0
 50121  1  0  0  0
 51 52  1  0  0  0
 51122  1  0  0  0
 51123  1  0  0  0
 52124  1  0  0  0
 52125  1  0  0  0
 53 54  1  0  0  0
 54 55  2  0  0  0
 54126  1  0  0  0
 55 57  1  0  0  0
 55127  1  0  0  0
 56 69  2  0  0  0
 57 58  2  0  0  0
 57128  1  0  0  0
 58129  1  0  0  0
 59 60  1  0  0  0
 59 61  1  0  0  0
 59 62  1  0  0  0
 60130  1  0  0  0
 60131  1  0  0  0
 60132  1  0  0  0
 61133  1  0  0  0
 61134  1  0  0  0
 61135  1  0  0  0
 62136  1  0  0  0
 62137  1  0  0  0
 62138  1  0  0  0
 63 65  1  0  0  0
 63139  1  0  0  0
 63140  1  0  0  0
 63141  1  0  0  0
 64142  1  0  0  0
 65143  1  0  0  0
 68 81  1  0  0  0
 71 72  1  0  0  0
 71 73  2  0  0  0
 71144  1  0  0  0
 72 82  2  0  0  0
 72 78  1  0  0  0
 73 83  1  0  0  0
 73 79  1  0  0  0
 74 75  1  0  0  0
 74 79  1  0  0  0
 74145  1  0  0  0
 74146  1  0  0  0
 75 79  1  0  0  0
 75147  1  0  0  0
 75148  1  0  0  0
 76 78  1  0  0  0
 76 84  1  0  0  0
 76149  1  0  0  0
 76150  1  0  0  0
 77 78  1  0  0  0
 77 84  1  0  0  0
 77151  1  0  0  0
 77152  1  0  0  0
 78153  1  0  0  0
 79154  1  0  0  0
 80 81  1  0  0  0
 80 83  1  0  0  0
 80155  1  0  0  0
 80156  1  0  0  0
 81157  1  0  0  0
 81158  1  0  0  0
 82 83  1  0  0  0
M  ISO  4   1 100  68 101  81 101  84 100
M  END
> <chiral flag>
0

> <version>
0

> <s_m_source_file>
/data/baiqing/PycharmProjects/Reinvent-master-3.2/result/LINK_invent/BTK/process_docking_weight1_custom_sum_contain_oxygen_bond_distance_aromatic_linkinvent_7_9_3/rearranged_h_0185.sdf

> <i_m_source_file_index>
7

> <r_mmod_Potential_Energy-OPLS-2005>
394.091949462891

> <r_mmod_Stretch_Energy-OPLS-2005>
186.096237182617

> <r_mmod_Bend_Energy-OPLS-2005>
228.581726074219

> <r_mmod_Torsional_Energy-OPLS-2005>
289.099426269531

> <r_mmod_Improper_Torsional_Energy-OPLS-2005>
11.3089666366577

> <r_mmod_Van_der_Waal_Energy-OPLS-2005>
108.550918579102

> <r_mmod_Electrostatic_Energy-OPLS-2005>
-337.443725585938

> <r_mmod_Solvation_Energy-OPLS-2005>
-224.359771728516

> <b_mmod_Minimization_Converged-OPLS-2005>
0

> <r_mmod_RMS_Derivative-OPLS-2005>
3.95938920974731

$$$$
7
                    3D
 Structure written by MMmdl.
173183  0  0  1  0            999 V2000
  -30.6642  -14.6039   20.5117 C   0  0  0  0  0  0
  -30.4268  -12.3773   19.4462 C   0  0  0  0  0  0
  -29.5002  -12.5031   18.2176 C   0  0  0  0  0  0
  -28.0222  -12.3503   18.6291 C   0  0  0  0  0  0
  -27.6505  -13.2164   19.8631 C   0  0  2  0  0  0
  -28.6958  -13.0593   20.9887 C   0  0  0  0  0  0
  -25.2550  -13.8168   20.5695 C   0  0  0  0  0  0
  -24.1814  -13.0437   20.9192 C   0  0  0  0  0  0
  -24.6380  -11.6908   20.8739 C   0  0  0  0  0  0
  -23.9047  -10.4295   21.0408 C   0  0  0  0  0  0
  -24.3600   -9.4212   21.9186 C   0  0  0  0  0  0
  -23.6281   -8.2245   22.0756 C   0  0  0  0  0  0
  -22.4267   -8.0276   21.3543 C   0  0  0  0  0  0
  -21.9896   -9.0251   20.4650 C   0  0  0  0  0  0
  -22.7220  -10.2134   20.3058 C   0  0  0  0  0  0
  -21.6853   -6.0726   22.5273 C   0  0  0  0  0  0
  -21.4021   -6.5634   23.8205 C   0  0  0  0  0  0
  -21.3663   -5.6785   24.9169 C   0  0  0  0  0  0
  -21.6044   -4.3047   24.7225 C   0  0  0  0  0  0
  -21.8822   -3.8140   23.4346 C   0  0  0  0  0  0
  -21.9195   -4.6954   22.3401 C   0  0  0  0  0  0
  -22.7834  -13.5233   21.1849 C   0  0  0  0  0  0
  -22.1663   -4.2141   21.0979 F   0  0  0  0  0  0
  -21.5628   -3.4534   25.7737 F   0  0  0  0  0  0
  -30.0053  -13.4048   20.4207 N   0  0  0  0  0  0
  -26.2973  -12.9352   20.3329 N   0  0  0  0  0  0
  -25.9310  -11.6506   20.5750 N   0  0  0  0  0  0
  -22.0469  -12.8234   22.0408 N   0  0  0  0  0  0
  -25.4258  -15.1890   20.4116 N   0  0  0  0  0  0
  -31.8415  -14.6944   20.1492 O   0  0  0  0  0  0
  -21.6637   -6.8869   21.4234 O   0  0  0  0  0  0
  -22.3525  -14.5540   20.6696 O   0  0  0  0  0  0
  -24.6222  -31.8621   23.2043 C   0  0  0  0  0  0
  -25.9088  -32.4786   23.8358 C   0  0  1  0  0  0
  -27.2290  -27.3564   20.1038 C   0  0  0  0  0  0
  -25.5919  -33.8586   24.2292 N   0  0  0  0  0  0
  -23.4132  -30.4856   21.5461 C   0  0  2  0  0  0
  -24.8586  -28.9430   20.1116 C   0  0  0  0  0  0
  -22.7448  -29.4635   22.4953 C   0  0  0  0  0  0
  -18.0280  -28.1379   22.8485 C   0  0  0  0  0  0
  -24.1490  -36.7297   23.2639 C   0  0  0  0  0  0
  -25.9495  -30.8041   21.3684 C   0  0  0  0  0  0
  -26.0233  -29.4333   20.7132 C   0  0  0  0  0  0
  -27.2070  -28.6475   20.7054 C   0  0  0  0  0  0
  -26.0335  -26.8948   19.5060 C   0  0  0  0  0  0
  -24.8629  -27.6769   19.5050 C   0  0  0  0  0  0
  -23.6250  -29.8188   20.1612 C   0  0  0  0  0  0
  -25.4112  -36.3087   24.0332 C   0  0  1  0  0  0
  -20.5876  -28.3676   23.1300 C   0  0  2  0  0  0
  -20.6770  -26.9403   22.5415 C   0  0  0  0  0  0
  -19.5750  -26.6382   21.5210 C   0  0  0  0  0  0
  -18.1926  -26.7924   22.1617 C   0  0  0  0  0  0
  -19.1530  -28.8845   23.2890 C   0  0  0  0  0  0
  -18.9454  -30.1449   23.8906 C   0  0  0  0  0  0
  -17.6455  -30.6583   24.0566 C   0  0  0  0  0  0
  -25.9045  -34.9454   23.5113 C   0  0  0  0  0  0
  -16.5345  -29.9081   23.6329 C   0  0  0  0  0  0
  -16.7267  -28.6500   23.0349 C   0  0  0  0  0  0
  -26.4488  -31.6581   25.0714 C   0  0  0  0  0  0
  -25.3734  -31.3718   26.1455 C   0  0  0  0  0  0
  -27.0329  -30.3006   24.6143 C   0  0  0  0  0  0
  -27.6054  -32.4309   25.7481 C   0  0  0  0  0  0
  -27.5580  -37.1802   24.8460 C   0  0  0  0  0  0
  -21.4166  -29.3035   22.3698 N   0  0  0  0  0  0
  -26.4292  -37.3779   23.9407 N   0  0  0  0  0  0
  -24.6803  -31.0666   22.0974 N   0  0  0  0  0  0
  -23.4191  -28.8176   23.3018 O   0  0  0  0  0  0
  -28.3853  -26.5768   20.1688 O   0  0  0  0  0  0
  -26.5606  -34.8918   22.4672 O   0  0  0  0  0  0
  -23.5399  -32.1400   23.7401 O   0  0  0  0  0  0
  -28.3236  -22.8146   19.3332 C   0  0  0  0  0  0
  -28.7533  -23.9771   20.0208 C   0  0  0  0  0  0
  -29.4594  -23.6961   21.2149 C   0  0  0  0  0  0
  -29.2469  -21.4027   20.8864 C   0  0  0  0  0  0
  -29.3429  -17.7298   22.0599 C   0  0  0  0  0  0
  -30.2613  -18.2088   19.8363 C   0  0  0  0  0  0
  -31.4197  -24.5623   22.6908 C   0  0  0  0  0  0
  -29.0875  -16.2372   21.6655 C   0  0  0  0  0  0
  -29.9566  -16.7362   19.4164 C   0  0  0  0  0  0
  -31.4681  -25.5563   23.8588 C   0  0  0  0  0  0
  -29.1782  -25.0156   23.3975 C   0  0  0  0  0  0
  -30.0118  -24.7816   22.1378 C   0  0  2  0  0  0
  -29.2791  -18.7563   20.8940 C   0  0  0  0  0  0
  -29.6847  -27.0973   24.6594 C   0  0  0  0  0  0
  -28.5772  -25.3820   19.3497 C   0  0  0  0  0  0
  -28.5700  -21.5436   19.7576 N   0  0  0  0  0  0
  -29.6653  -22.4163   21.6338 N   0  0  0  0  0  0
  -29.8915  -15.7472   20.5244 N   0  0  0  0  0  0
  -29.6007  -20.1319   21.3595 N   0  0  0  0  0  0
  -30.0755  -25.7026   24.3554 N   0  3  2  0  0  0
  -31.4684  -12.4886   19.1400 H   0  0  0  0  0  0
  -30.3518  -11.3818   19.8859 H   0  0  0  0  0  0
  -29.7597  -11.7520   17.4701 H   0  0  0  0  0  0
  -29.6497  -13.4730   17.7407 H   0  0  0  0  0  0
  -27.8515  -11.2963   18.8525 H   0  0  0  0  0  0
  -27.3689  -12.5916   17.7898 H   0  0  0  0  0  0
  -27.6717  -14.2539   19.5305 H   0  0  0  0  0  0
  -28.7076  -12.0333   21.3600 H   0  0  0  0  0  0
  -28.4417  -13.6760   21.8478 H   0  0  0  0  0  0
  -25.2750   -9.5697   22.4754 H   0  0  0  0  0  0
  -23.9996   -7.4641   22.7478 H   0  0  0  0  0  0
  -21.0828   -8.8767   19.8957 H   0  0  0  0  0  0
  -22.3677  -10.9666   19.6162 H   0  0  0  0  0  0
  -21.2017   -7.6142   23.9705 H   0  0  0  0  0  0
  -21.1481   -6.0518   25.9069 H   0  0  0  0  0  0
  -22.0600   -2.7601   23.2847 H   0  0  0  0  0  0
  -22.4065  -11.9892   22.4805 H   0  0  0  0  0  0
  -21.1091  -13.1271   22.2608 H   0  0  0  0  0  0
  -24.6631  -15.8457   20.5335 H   0  0  0  0  0  0
  -26.2803  -15.6278   20.0936 H   0  0  0  0  0  0
  -26.7154  -32.5469   23.1109 H   0  0  0  0  0  0
  -25.0079  -33.9732   25.0449 H   0  0  0  0  0  0
  -22.7050  -31.3045   21.4048 H   0  0  0  0  0  0
  -23.3749  -35.9635   23.3304 H   0  0  0  0  0  0
  -24.3583  -36.8911   22.2053 H   0  0  0  0  0  0
  -23.7246  -37.6503   23.6656 H   0  0  0  0  0  0
  -26.0739  -31.5683   20.6000 H   0  0  0  0  0  0
  -26.8329  -30.8552   21.9932 H   0  0  0  0  0  0
  -28.1036  -29.0218   21.1794 H   0  0  0  0  0  0
  -25.9599  -25.9133   19.0649 H   0  0  0  0  0  0
  -23.9627  -27.2877   19.0499 H   0  0  0  0  0  0
  -23.7412  -30.5939   19.4029 H   0  0  0  0  0  0
  -22.7461  -29.2444   19.8622 H   0  0  0  0  0  0
  -25.1292  -36.1943   25.0825 H   0  0  0  0  0  0
  -20.9965  -28.3245   24.1424 H   0  0  0  0  0  0
  -20.5671  -26.2278   23.3606 H   0  0  0  0  0  0
  -21.6642  -26.7442   22.1211 H   0  0  0  0  0  0
  -19.6912  -25.6293   21.1237 H   0  0  0  0  0  0
  -19.6693  -27.3198   20.6743 H   0  0  0  0  0  0
  -17.4198  -26.6676   21.4014 H   0  0  0  0  0  0
  -18.0324  -26.0064   22.9013 H   0  0  0  0  0  0
  -19.7932  -30.7262   24.2278 H   0  0  0  0  0  0
  -17.5011  -31.6265   24.5162 H   0  0  0  0  0  0
  -15.5346  -30.2984   23.7657 H   0  0  0  0  0  0
  -15.8666  -28.0823   22.7061 H   0  0  0  0  0  0
  -24.5898  -30.7075   25.7791 H   0  0  0  0  0  0
  -24.8943  -32.2891   26.4888 H   0  0  0  0  0  0
  -25.8072  -30.8889   27.0223 H   0  0  0  0  0  0
  -26.2894  -29.6759   24.1181 H   0  0  0  0  0  0
  -27.4049  -29.7257   25.4633 H   0  0  0  0  0  0
  -27.8750  -30.4297   23.9342 H   0  0  0  0  0  0
  -27.2667  -33.3602   26.2071 H   0  0  0  0  0  0
  -28.3858  -32.6876   25.0304 H   0  0  0  0  0  0
  -28.0732  -31.8426   26.5386 H   0  0  0  0  0  0
  -28.2597  -38.0099   24.7509 H   0  0  0  0  0  0
  -28.1073  -36.2629   24.6282 H   0  0  0  0  0  0
  -27.2301  -37.1455   25.8865 H   0  0  0  0  0  0
  -20.9331  -29.8750   21.6913 H   0  0  0  0  0  0
  -26.0173  -38.2857   24.1402 H   0  0  0  0  0  0
  -27.7996  -22.8997   18.3925 H   0  0  0  0  0  0
  -30.3254  -17.7882   22.5327 H   0  0  0  0  0  0
  -28.6279  -18.0132   22.8336 H   0  0  0  0  0  0
  -30.2340  -18.8466   18.9518 H   0  0  0  0  0  0
  -31.2823  -18.2638   20.2179 H   0  0  0  0  0  0
  -31.5348  -23.5493   23.0782 H   0  0  0  0  0  0
  -32.2014  -24.7296   21.9501 H   0  0  0  0  0  0
  -28.0338  -16.1074   21.4169 H   0  0  0  0  0  0
  -29.2748  -15.6188   22.5448 H   0  0  0  0  0  0
  -30.6849  -16.4290   18.6632 H   0  0  0  0  0  0
  -28.9928  -16.7083   18.9057 H   0  0  0  0  0  0
  -31.8448  -26.5164   23.5015 H   0  0  0  0  0  0
  -32.1379  -25.2235   24.6528 H   0  0  0  0  0  0
  -28.8914  -24.0598   23.8378 H   0  0  0  0  0  0
  -28.2590  -25.5635   23.1857 H   0  0  0  0  0  0
  -30.0646  -25.7179   21.5888 H   0  0  0  0  0  0
  -28.2696  -18.7666   20.4793 H   0  0  0  0  0  0
  -30.3505  -27.5283   25.4079 H   0  0  0  0  0  0
  -28.6705  -27.1368   25.0582 H   0  0  0  0  0  0
  -29.7221  -27.7239   23.7674 H   0  0  0  0  0  0
  -27.8665  -25.3091   18.5291 H   0  0  0  0  0  0
  -29.5214  -25.5593   18.8340 H   0  0  0  0  0  0
  -30.1217  -20.1726   22.2260 H   0  0  0  0  0  0
  -30.0107  -25.1902   25.2234 H   0  0  0  0  0  0
  1 25  1  0  0  0
  1 30  2  0  0  0
  1 88  1  0  0  0
  2  3  1  0  0  0
  2 25  1  0  0  0
  2 91  1  0  0  0
  2 92  1  0  0  0
  3  4  1  0  0  0
  3 93  1  0  0  0
  3 94  1  0  0  0
  4  5  1  0  0  0
  4 95  1  0  0  0
  4 96  1  0  0  0
  5  6  1  0  0  0
  5 26  1  0  0  0
  5 97  1  0  0  0
  6 25  1  0  0  0
  6 98  1  0  0  0
  6 99  1  0  0  0
  7  8  2  0  0  0
  7 26  1  0  0  0
  7 29  1  0  0  0
  8  9  1  0  0  0
  8 22  1  0  0  0
  9 10  1  0  0  0
  9 27  2  0  0  0
 10 11  2  0  0  0
 10 15  1  0  0  0
 11 12  1  0  0  0
 11100  1  0  0  0
 12 13  2  0  0  0
 12101  1  0  0  0
 13 14  1  0  0  0
 13 31  1  0  0  0
 14 15  2  0  0  0
 14102  1  0  0  0
 15103  1  0  0  0
 16 17  2  0  0  0
 16 21  1  0  0  0
 16 31  1  0  0  0
 17 18  1  0  0  0
 17104  1  0  0  0
 18 19  2  0  0  0
 18105  1  0  0  0
 19 20  1  0  0  0
 19 24  1  0  0  0
 20 21  2  0  0  0
 20106  1  0  0  0
 21 23  1  0  0  0
 22 28  1  0  0  0
 22 32  2  0  0  0
 26 27  1  0  0  0
 28107  1  0  0  0
 28108  1  0  0  0
 29109  1  0  0  0
 29110  1  0  0  0
 33 34  1  0  0  0
 33 66  1  0  0  0
 33 70  2  0  0  0
 34 36  1  0  0  0
 34 59  1  0  0  0
 34111  1  0  0  0
 35 44  2  0  0  0
 35 45  1  0  0  0
 35 68  1  0  0  0
 36 56  1  0  0  0
 36112  1  0  0  0
 37 39  1  0  0  0
 37 47  1  0  0  0
 37 66  1  0  0  0
 37113  1  0  0  0
 38 43  2  0  0  0
 38 46  1  0  0  0
 38 47  1  0  0  0
 39 64  1  0  0  0
 39 67  2  0  0  0
 40 52  1  0  0  0
 40 53  2  0  0  0
 40 58  1  0  0  0
 41114  1  0  0  0
 41115  1  0  0  0
 41116  1  0  0  0
 41 48  1  0  0  0
 42 43  1  0  0  0
 42 66  1  0  0  0
 42117  1  0  0  0
 42118  1  0  0  0
 43 44  1  0  0  0
 44119  1  0  0  0
 45 46  2  0  0  0
 45120  1  0  0  0
 46121  1  0  0  0
 47122  1  0  0  0
 47123  1  0  0  0
 48 56  1  0  0  0
 48 65  1  0  0  0
 48124  1  0  0  0
 49 50  1  0  0  0
 49 53  1  0  0  0
 49 64  1  0  0  0
 49125  1  0  0  0
 50 51  1  0  0  0
 50126  1  0  0  0
 50127  1  0  0  0
 51 52  1  0  0  0
 51128  1  0  0  0
 51129  1  0  0  0
 52130  1  0  0  0
 52131  1  0  0  0
 53 54  1  0  0  0
 54 55  2  0  0  0
 54132  1  0  0  0
 55 57  1  0  0  0
 55133  1  0  0  0
 56 69  2  0  0  0
 57 58  2  0  0  0
 57134  1  0  0  0
 58135  1  0  0  0
 59 60  1  0  0  0
 59 61  1  0  0  0
 59 62  1  0  0  0
 60136  1  0  0  0
 60137  1  0  0  0
 60138  1  0  0  0
 61139  1  0  0  0
 61140  1  0  0  0
 61141  1  0  0  0
 62142  1  0  0  0
 62143  1  0  0  0
 62144  1  0  0  0
 63 65  1  0  0  0
 63145  1  0  0  0
 63146  1  0  0  0
 63147  1  0  0  0
 64148  1  0  0  0
 65149  1  0  0  0
 68 85  1  0  0  0
 71 72  2  0  0  0
 71 86  1  0  0  0
 71150  1  0  0  0
 72 73  1  0  0  0
 72 85  1  0  0  0
 73 87  2  0  0  0
 73 82  1  0  0  0
 74 86  2  0  0  0
 74 87  1  0  0  0
 74 89  1  0  0  0
 75 78  1  0  0  0
 75 83  1  0  0  0
 75151  1  0  0  0
 75152  1  0  0  0
 76 79  1  0  0  0
 76 83  1  0  0  0
 76153  1  0  0  0
 76154  1  0  0  0
 77 80  1  0  0  0
 77 82  1  0  0  0
 77155  1  0  0  0
 77156  1  0  0  0
 78 88  1  0  0  0
 78157  1  0  0  0
 78158  1  0  0  0
 79 88  1  0  0  0
 79159  1  0  0  0
 79160  1  0  0  0
 80 90  1  0  0  0
 80161  1  0  0  0
 80162  1  0  0  0
 81 82  1  0  0  0
 81 90  1  0  0  0
 81163  1  0  0  0
 81164  1  0  0  0
 82165  1  0  0  0
 83 89  1  0  0  0
 83166  1  0  0  0
 84167  1  0  0  0
 84168  1  0  0  0
 84169  1  0  0  0
 84 90  1  0  0  0
 85170  1  0  0  0
 85171  1  0  0  0
 89172  1  0  0  0
 90173  1  0  0  0
M  CHG  1  90   1
M  ISO  4   1 100  68 101  85 101  88 100
M  END
> <chiral flag>
0

> <version>
0

> <s_m_source_file>
/data/baiqing/PycharmProjects/Reinvent-master-3.2/result/LINK_invent/BTK/process_docking_weight1_custom_sum_contain_oxygen_bond_distance_aromatic_linkinvent_7_9_3/rearranged_h_0185.sdf

> <i_m_source_file_index>
8

> <r_mmod_Potential_Energy-OPLS-2005>
-374.47216796875

> <r_mmod_Stretch_Energy-OPLS-2005>
61.7479515075684

> <r_mmod_Bend_Energy-OPLS-2005>
190.667922973633

> <r_mmod_Torsional_Energy-OPLS-2005>
371.978393554688

> <r_mmod_Improper_Torsional_Energy-OPLS-2005>
16.4419384002686

> <r_mmod_Van_der_Waal_Energy-OPLS-2005>
145.602020263672

> <r_mmod_Electrostatic_Energy-OPLS-2005>
-741.385681152344

> <r_mmod_Solvation_Energy-OPLS-2005>
-454.972229003906

> <b_mmod_Minimization_Converged-OPLS-2005>
0

> <r_mmod_RMS_Derivative-OPLS-2005>
1.01344573497772

$$$$
8
                    3D
 Structure written by MMmdl.
154163  0  0  1  0            999 V2000
  -30.5422  -15.1196   20.3746 C   0  0  0  0  0  0
  -30.4542  -12.7096   19.4946 C   0  0  0  0  0  0
  -29.5346  -12.5615   18.2619 C   0  0  0  0  0  0
  -28.0804  -12.2931   18.6924 C   0  0  0  0  0  0
  -27.6300  -13.2385   19.8331 C   0  0  2  0  0  0
  -28.6854  -13.3810   20.9553 C   0  0  0  0  0  0
  -25.2446  -13.8104   20.5636 C   0  0  0  0  0  0
  -24.1789  -13.0351   20.9229 C   0  0  0  0  0  0
  -24.6435  -11.6836   20.8797 C   0  0  0  0  0  0
  -23.9108  -10.4218   21.0434 C   0  0  0  0  0  0
  -24.3625   -9.4152   21.9249 C   0  0  0  0  0  0
  -23.6271   -8.2209   22.0804 C   0  0  0  0  0  0
  -22.4275   -8.0258   21.3580 C   0  0  0  0  0  0
  -21.9938   -9.0220   20.4680 C   0  0  0  0  0  0
  -22.7274  -10.2079   20.3075 C   0  0  0  0  0  0
  -21.6826   -6.0732   22.5263 C   0  0  0  0  0  0
  -21.4026   -6.5629   23.8215 C   0  0  0  0  0  0
  -21.3660   -5.6766   24.9153 C   0  0  0  0  0  0
  -21.6017   -4.3016   24.7180 C   0  0  0  0  0  0
  -21.8849   -3.8138   23.4301 C   0  0  0  0  0  0
  -21.9192   -4.6969   22.3385 C   0  0  0  0  0  0
  -22.7797  -13.5158   21.1823 C   0  0  0  0  0  0
  -22.1655   -4.2165   21.0961 F   0  0  0  0  0  0
  -21.5632   -3.4514   25.7706 F   0  0  0  0  0  0
  -29.9270  -13.8498   20.3160 N   0  0  0  0  0  0
  -26.2931  -12.9329   20.3272 N   0  0  0  0  0  0
  -25.9391  -11.6465   20.5806 N   0  0  0  0  0  0
  -22.0381  -12.8162   22.0272 N   0  0  0  0  0  0
  -25.4005  -15.1827   20.3953 N   0  0  0  0  0  0
  -31.7726  -15.0935   20.2233 O   0  0  0  0  0  0
  -21.6617   -6.8870   21.4233 O   0  0  0  0  0  0
  -22.3547  -14.5549   20.6754 O   0  0  0  0  0  0
  -24.6539  -31.8329   23.1768 C   0  0  0  0  0  0
  -25.9256  -32.4661   23.8213 C   0  0  1  0  0  0
  -27.2137  -27.0070   20.1654 C   0  0  0  0  0  0
  -25.5944  -33.8483   24.2161 N   0  0  0  0  0  0
  -23.4648  -30.4441   21.5238 C   0  0  2  0  0  0
  -24.9261  -28.8540   20.1022 C   0  0  0  0  0  0
  -22.7634  -29.4428   22.4771 C   0  0  0  0  0  0
  -18.0321  -28.1358   22.8487 C   0  0  0  0  0  0
  -24.1503  -36.7242   23.2649 C   0  0  0  0  0  0
  -26.0318  -30.6571   21.4073 C   0  0  0  0  0  0
  -26.1028  -29.2567   20.7460 C   0  0  0  0  0  0
  -27.2444  -28.3487   20.7659 C   0  0  0  0  0  0
  -26.0304  -26.7592   19.4383 C   0  0  0  0  0  0
  -24.9107  -27.6210   19.4338 C   0  0  0  0  0  0
  -23.7039  -29.7684   20.1463 C   0  0  0  0  0  0
  -25.4144  -36.3028   24.0314 C   0  0  1  0  0  0
  -20.5941  -28.3695   23.1221 C   0  0  2  0  0  0
  -20.6790  -26.9381   22.5410 C   0  0  0  0  0  0
  -19.5763  -26.6329   21.5213 C   0  0  0  0  0  0
  -18.1942  -26.7897   22.1626 C   0  0  0  0  0  0
  -19.1585  -28.8850   23.2838 C   0  0  0  0  0  0
  -18.9476  -30.1443   23.8870 C   0  0  0  0  0  0
  -17.6476  -30.6571   24.0525 C   0  0  0  0  0  0
  -25.9104  -34.9396   23.5067 C   0  0  0  0  0  0
  -16.5362  -29.9063   23.6326 C   0  0  0  0  0  0
  -16.7303  -28.6461   23.0377 C   0  0  0  0  0  0
  -26.4540  -31.6581   25.0720 C   0  0  0  0  0  0
  -25.3691  -31.3773   26.1387 C   0  0  0  0  0  0
  -27.0454  -30.2963   24.6422 C   0  0  0  0  0  0
  -27.6045  -32.4379   25.7499 C   0  0  0  0  0  0
  -27.5591  -37.1797   24.8459 C   0  0  0  0  0  0
  -21.4294  -29.3038   22.3604 N   0  0  0  0  0  0
  -26.4315  -37.3737   23.9395 N   0  0  0  0  0  0
  -24.7367  -31.0026   22.0909 N   0  0  0  0  0  0
  -23.4234  -28.7983   23.2950 O   0  0  0  0  0  0
  -28.2004  -25.9120   20.2260 O   0  0  0  0  0  0
  -26.5691  -34.8907   22.4654 O   0  0  0  0  0  0
  -23.5616  -32.1283   23.6876 O   0  0  0  0  0  0
  -27.2554  -21.7252   21.0728 C   0  0  0  0  0  0
  -26.7972  -24.0324   21.2637 C   0  0  0  0  0  0
  -28.5041  -21.9141   20.4398 C   0  0  0  0  0  0
  -27.9316  -24.4407   20.4933 C   0  0  0  0  0  0
  -28.1735  -18.2534   19.7955 C   0  0  0  0  0  0
  -28.4562  -16.7035   20.0327 C   0  0  0  0  0  0
  -30.3555  -17.9119   20.5432 C   0  0  0  0  0  0
  -29.1787  -19.1150   20.5885 C   0  0  2  0  0  0
  -25.9358  -24.9989   22.0561 C   0  0  0  0  0  0
  -26.4517  -22.7342   21.4823 N   0  0  0  0  0  0
  -28.7961  -23.3160   20.1331 N   0  0  0  0  0  0
  -29.8535  -16.4165   20.4197 N   0  0  0  0  0  0
  -29.3410  -20.6690   20.1830 N   0  0  0  0  0  0
  -31.4813  -12.8746   19.1665 H   0  0  0  0  0  0
  -30.4852  -11.7859   20.0749 H   0  0  0  0  0  0
  -29.8956  -11.7706   17.6051 H   0  0  0  0  0  0
  -29.5795  -13.4786   17.6740 H   0  0  0  0  0  0
  -28.0246  -11.2549   19.0240 H   0  0  0  0  0  0
  -27.4138  -12.3823   17.8342 H   0  0  0  0  0  0
  -27.5488  -14.2055   19.3467 H   0  0  0  0  0  0
  -28.8448  -12.4373   21.4807 H   0  0  0  0  0  0
  -28.3666  -14.0987   21.7106 H   0  0  0  0  0  0
  -25.2758   -9.5629   22.4852 H   0  0  0  0  0  0
  -23.9995   -7.4592   22.7494 H   0  0  0  0  0  0
  -21.0909   -8.8678   19.8948 H   0  0  0  0  0  0
  -22.3737  -10.9633   19.6171 H   0  0  0  0  0  0
  -21.2039   -7.6142   23.9717 H   0  0  0  0  0  0
  -21.1472   -6.0496   25.9071 H   0  0  0  0  0  0
  -22.0651   -2.7602   23.2773 H   0  0  0  0  0  0
  -22.3904  -11.9741   22.4611 H   0  0  0  0  0  0
  -21.1070  -13.1306   22.2553 H   0  0  0  0  0  0
  -24.6281  -15.8226   20.5463 H   0  0  0  0  0  0
  -26.2119  -15.6270   19.9865 H   0  0  0  0  0  0
  -26.7304  -32.5224   23.0897 H   0  0  0  0  0  0
  -25.0014  -33.9599   25.0252 H   0  0  0  0  0  0
  -22.7716  -31.2710   21.3614 H   0  0  0  0  0  0
  -23.3797  -35.9542   23.3290 H   0  0  0  0  0  0
  -24.3541  -36.8906   22.2061 H   0  0  0  0  0  0
  -23.7258  -37.6428   23.6714 H   0  0  0  0  0  0
  -26.2155  -31.4063   20.6356 H   0  0  0  0  0  0
  -26.8864  -30.7027   22.0657 H   0  0  0  0  0  0
  -28.1370  -28.6449   21.3009 H   0  0  0  0  0  0
  -25.9287  -25.8159   18.9195 H   0  0  0  0  0  0
  -24.0164  -27.3158   18.9055 H   0  0  0  0  0  0
  -23.8540  -30.5465   19.3980 H   0  0  0  0  0  0
  -22.8134  -29.2230   19.8251 H   0  0  0  0  0  0
  -25.1345  -36.1835   25.0806 H   0  0  0  0  0  0
  -21.0025  -28.3277   24.1342 H   0  0  0  0  0  0
  -20.5645  -26.2288   23.3623 H   0  0  0  0  0  0
  -21.6646  -26.7357   22.1209 H   0  0  0  0  0  0
  -19.6911  -25.6226   21.1270 H   0  0  0  0  0  0
  -19.6701  -27.3104   20.6712 H   0  0  0  0  0  0
  -17.4205  -26.6622   21.4039 H   0  0  0  0  0  0
  -18.0352  -26.0038   22.9026 H   0  0  0  0  0  0
  -19.7943  -30.7249   24.2224 H   0  0  0  0  0  0
  -17.5028  -31.6252   24.5116 H   0  0  0  0  0  0
  -15.5366  -30.2944   23.7666 H   0  0  0  0  0  0
  -15.8675  -28.0747   22.7155 H   0  0  0  0  0  0
  -24.5829  -30.7196   25.7648 H   0  0  0  0  0  0
  -24.8933  -32.2965   26.4827 H   0  0  0  0  0  0
  -25.7934  -30.8890   27.0171 H   0  0  0  0  0  0
  -26.3122  -29.6626   24.1428 H   0  0  0  0  0  0
  -27.3988  -29.7327   25.5069 H   0  0  0  0  0  0
  -27.9051  -30.4143   23.9818 H   0  0  0  0  0  0
  -27.2609  -33.3654   26.2068 H   0  0  0  0  0  0
  -28.3851  -32.6999   25.0348 H   0  0  0  0  0  0
  -28.0733  -31.8552   26.5422 H   0  0  0  0  0  0
  -28.2619  -38.0091   24.7496 H   0  0  0  0  0  0
  -28.1101  -36.2633   24.6308 H   0  0  0  0  0  0
  -27.2287  -37.1419   25.8855 H   0  0  0  0  0  0
  -20.9503  -29.8804   21.6814 H   0  0  0  0  0  0
  -26.0188  -38.2818   24.1366 H   0  0  0  0  0  0
  -26.8976  -20.7322   21.2945 H   0  0  0  0  0  0
  -27.1401  -18.5061   20.0451 H   0  0  0  0  0  0
  -28.2915  -18.4735   18.7343 H   0  0  0  0  0  0
  -28.2444  -16.1765   19.1056 H   0  0  0  0  0  0
  -27.8038  -16.3104   20.8105 H   0  0  0  0  0  0
  -31.0091  -18.0937   19.6896 H   0  0  0  0  0  0
  -30.9979  -17.9908   21.4229 H   0  0  0  0  0  0
  -28.8252  -19.1328   21.6183 H   0  0  0  0  0  0
  -26.5521  -25.7895   22.4829 H   0  0  0  0  0  0
  -25.4451  -24.4969   22.8928 H   0  0  0  0  0  0
  -25.1529  -25.4301   21.4365 H   0  0  0  0  0  0
  -30.2288  -20.8662   19.7295 H   0  0  0  0  0  0
  1 25  1  0  0  0
  1 30  2  0  0  0
  1 82  1  0  0  0
  2  3  1  0  0  0
  2 25  1  0  0  0
  2 84  1  0  0  0
  2 85  1  0  0  0
  3  4  1  0  0  0
  3 86  1  0  0  0
  3 87  1  0  0  0
  4  5  1  0  0  0
  4 88  1  0  0  0
  4 89  1  0  0  0
  5  6  1  0  0  0
  5 26  1  0  0  0
  5 90  1  0  0  0
  6 25  1  0  0  0
  6 91  1  0  0  0
  6 92  1  0  0  0
  7  8  2  0  0  0
  7 26  1  0  0  0
  7 29  1  0  0  0
  8  9  1  0  0  0
  8 22  1  0  0  0
  9 10  1  0  0  0
  9 27  2  0  0  0
 10 11  2  0  0  0
 10 15  1  0  0  0
 11 12  1  0  0  0
 11 93  1  0  0  0
 12 13  2  0  0  0
 12 94  1  0  0  0
 13 14  1  0  0  0
 13 31  1  0  0  0
 14 15  2  0  0  0
 14 95  1  0  0  0
 15 96  1  0  0  0
 16 17  2  0  0  0
 16 21  1  0  0  0
 16 31  1  0  0  0
 17 18  1  0  0  0
 17 97  1  0  0  0
 18 19  2  0  0  0
 18 98  1  0  0  0
 19 20  1  0  0  0
 19 24  1  0  0  0
 20 21  2  0  0  0
 20 99  1  0  0  0
 21 23  1  0  0  0
 22 28  1  0  0  0
 22 32  2  0  0  0
 26 27  1  0  0  0
 28100  1  0  0  0
 28101  1  0  0  0
 29102  1  0  0  0
 29103  1  0  0  0
 33 34  1  0  0  0
 33 66  1  0  0  0
 33 70  2  0  0  0
 34 36  1  0  0  0
 34 59  1  0  0  0
 34104  1  0  0  0
 35 44  2  0  0  0
 35 45  1  0  0  0
 35 68  1  0  0  0
 36 56  1  0  0  0
 36105  1  0  0  0
 37 39  1  0  0  0
 37 47  1  0  0  0
 37 66  1  0  0  0
 37106  1  0  0  0
 38 43  2  0  0  0
 38 46  1  0  0  0
 38 47  1  0  0  0
 39 64  1  0  0  0
 39 67  2  0  0  0
 40 52  1  0  0  0
 40 53  2  0  0  0
 40 58  1  0  0  0
 41107  1  0  0  0
 41108  1  0  0  0
 41109  1  0  0  0
 41 48  1  0  0  0
 42 43  1  0  0  0
 42 66  1  0  0  0
 42110  1  0  0  0
 42111  1  0  0  0
 43 44  1  0  0  0
 44112  1  0  0  0
 45 46  2  0  0  0
 45113  1  0  0  0
 46114  1  0  0  0
 47115  1  0  0  0
 47116  1  0  0  0
 48 56  1  0  0  0
 48 65  1  0  0  0
 48117  1  0  0  0
 49 50  1  0  0  0
 49 53  1  0  0  0
 49 64  1  0  0  0
 49118  1  0  0  0
 50 51  1  0  0  0
 50119  1  0  0  0
 50120  1  0  0  0
 51 52  1  0  0  0
 51121  1  0  0  0
 51122  1  0  0  0
 52123  1  0  0  0
 52124  1  0  0  0
 53 54  1  0  0  0
 54 55  2  0  0  0
 54125  1  0  0  0
 55 57  1  0  0  0
 55126  1  0  0  0
 56 69  2  0  0  0
 57 58  2  0  0  0
 57127  1  0  0  0
 58128  1  0  0  0
 59 60  1  0  0  0
 59 61  1  0  0  0
 59 62  1  0  0  0
 60129  1  0  0  0
 60130  1  0  0  0
 60131  1  0  0  0
 61132  1  0  0  0
 61133  1  0  0  0
 61134  1  0  0  0
 62135  1  0  0  0
 62136  1  0  0  0
 62137  1  0  0  0
 63 65  1  0  0  0
 63138  1  0  0  0
 63139  1  0  0  0
 63140  1  0  0  0
 64141  1  0  0  0
 65142  1  0  0  0
 68 74  1  0  0  0
 71 73  2  0  0  0
 71 80  1  0  0  0
 71143  1  0  0  0
 72 74  1  0  0  0
 72 79  1  0  0  0
 72 80  2  0  0  0
 73 81  1  0  0  0
 73 83  1  0  0  0
 74 81  2  0  0  0
 75 76  1  0  0  0
 75 78  1  0  0  0
 75144  1  0  0  0
 75145  1  0  0  0
 76 82  1  0  0  0
 76146  1  0  0  0
 76147  1  0  0  0
 77 78  1  0  0  0
 77 82  1  0  0  0
 77148  1  0  0  0
 77149  1  0  0  0
 78 83  1  0  0  0
 78150  1  0  0  0
 79151  1  0  0  0
 79152  1  0  0  0
 79153  1  0  0  0
 83154  1  0  0  0
M  ISO  4   1 100  68 101  74 101  82 100
M  END
> <chiral flag>
0

> <version>
0

> <s_m_source_file>
/data/baiqing/PycharmProjects/Reinvent-master-3.2/result/LINK_invent/BTK/process_docking_weight1_custom_sum_contain_oxygen_bond_distance_aromatic_linkinvent_7_9_3/rearranged_h_0185.sdf

> <i_m_source_file_index>
9

> <r_mmod_Potential_Energy-OPLS-2005>
1013.84265136719

> <r_mmod_Stretch_Energy-OPLS-2005>
375.119476318359

> <r_mmod_Bend_Energy-OPLS-2005>
364.197479248047

> <r_mmod_Torsional_Energy-OPLS-2005>
309.782897949219

> <r_mmod_Improper_Torsional_Energy-OPLS-2005>
5.06182336807251

> <r_mmod_Van_der_Waal_Energy-OPLS-2005>
125.641304016113

> <r_mmod_Electrostatic_Energy-OPLS-2005>
-276.028228759766

> <r_mmod_Solvation_Energy-OPLS-2005>
-224.545761108398

> <b_mmod_Minimization_Converged-OPLS-2005>
0

> <r_mmod_RMS_Derivative-OPLS-2005>
6.57167768478394

$$$$
9
                    3D
 Structure written by MMmdl.
154163  0  0  1  0            999 V2000
  -30.7002  -14.7813   20.4438 C   0  0  0  0  0  0
  -30.4086  -12.4935   19.4767 C   0  0  0  0  0  0
  -29.4944  -12.4950   18.2368 C   0  0  0  0  0  0
  -28.0294  -12.3085   18.6649 C   0  0  0  0  0  0
  -27.6286  -13.2378   19.8411 C   0  0  2  0  0  0
  -28.6826  -13.2509   20.9728 C   0  0  0  0  0  0
  -25.2450  -13.8197   20.5712 C   0  0  0  0  0  0
  -24.1766  -13.0431   20.9242 C   0  0  0  0  0  0
  -24.6379  -11.6918   20.8789 C   0  0  0  0  0  0
  -23.9065  -10.4289   21.0428 C   0  0  0  0  0  0
  -24.3615   -9.4199   21.9196 C   0  0  0  0  0  0
  -23.6293   -8.2231   22.0756 C   0  0  0  0  0  0
  -22.4278   -8.0272   21.3544 C   0  0  0  0  0  0
  -21.9918   -9.0250   20.4647 C   0  0  0  0  0  0
  -22.7245  -10.2133   20.3065 C   0  0  0  0  0  0
  -21.6847   -6.0734   22.5279 C   0  0  0  0  0  0
  -21.4015   -6.5640   23.8213 C   0  0  0  0  0  0
  -21.3654   -5.6795   24.9176 C   0  0  0  0  0  0
  -21.6037   -4.3056   24.7231 C   0  0  0  0  0  0
  -21.8818   -3.8149   23.4351 C   0  0  0  0  0  0
  -21.9192   -4.6964   22.3405 C   0  0  0  0  0  0
  -22.7788  -13.5208   21.1885 C   0  0  0  0  0  0
  -22.1660   -4.2146   21.0984 F   0  0  0  0  0  0
  -21.5628   -3.4542   25.7744 F   0  0  0  0  0  0
  -29.9644  -13.6098   20.3559 N   0  0  0  0  0  0
  -26.2888  -12.9421   20.3317 N   0  0  0  0  0  0
  -25.9312  -11.6563   20.5818 N   0  0  0  0  0  0
  -22.0438  -12.8192   22.0435 N   0  0  0  0  0  0
  -25.4080  -15.1915   20.4061 N   0  0  0  0  0  0
  -31.9080  -14.6871   20.2054 O   0  0  0  0  0  0
  -21.6637   -6.8875   21.4239 O   0  0  0  0  0  0
  -22.3472  -14.5509   20.6723 O   0  0  0  0  0  0
  -24.6333  -31.8546   23.1987 C   0  0  0  0  0  0
  -25.9153  -32.4747   23.8332 C   0  0  1  0  0  0
  -27.2085  -27.2454   20.1378 C   0  0  0  0  0  0
  -25.5944  -33.8550   24.2254 N   0  0  0  0  0  0
  -23.4307  -30.4779   21.5425 C   0  0  2  0  0  0
  -24.8789  -28.9269   20.1085 C   0  0  0  0  0  0
  -22.7516  -29.4601   22.4909 C   0  0  0  0  0  0
  -18.0293  -28.1393   22.8482 C   0  0  0  0  0  0
  -24.1491  -36.7277   23.2638 C   0  0  0  0  0  0
  -25.9791  -30.7632   21.3818 C   0  0  0  0  0  0
  -26.0528  -29.3850   20.7229 C   0  0  0  0  0  0
  -27.2248  -28.5571   20.7268 C   0  0  0  0  0  0
  -26.0218  -26.8716   19.4722 C   0  0  0  0  0  0
  -24.8696  -27.6790   19.4695 C   0  0  0  0  0  0
  -23.6503  -29.8151   20.1580 C   0  0  0  0  0  0
  -25.4116  -36.3062   24.0325 C   0  0  1  0  0  0
  -20.5900  -28.3707   23.1261 C   0  0  2  0  0  0
  -20.6783  -26.9423   22.5407 C   0  0  0  0  0  0
  -19.5760  -26.6388   21.5211 C   0  0  0  0  0  0
  -18.1937  -26.7937   22.1620 C   0  0  0  0  0  0
  -19.1549  -28.8868   23.2864 C   0  0  0  0  0  0
  -18.9469  -30.1467   23.8888 C   0  0  0  0  0  0
  -17.6466  -30.6593   24.0560 C   0  0  0  0  0  0
  -25.9060  -34.9432   23.5086 C   0  0  0  0  0  0
  -16.5358  -29.9088   23.6336 C   0  0  0  0  0  0
  -16.7278  -28.6507   23.0357 C   0  0  0  0  0  0
  -26.4513  -31.6575   25.0726 C   0  0  0  0  0  0
  -25.3731  -31.3739   26.1444 C   0  0  0  0  0  0
  -27.0354  -30.2984   24.6228 C   0  0  0  0  0  0
  -27.6079  -32.4313   25.7487 C   0  0  0  0  0  0
  -27.5579  -37.1786   24.8462 C   0  0  0  0  0  0
  -21.4221  -29.3043   22.3644 N   0  0  0  0  0  0
  -26.4287  -37.3765   23.9411 N   0  0  0  0  0  0
  -24.7001  -31.0498   22.0972 N   0  0  0  0  0  0
  -23.4206  -28.8133   23.3012 O   0  0  0  0  0  0
  -28.2519  -26.2892   20.1893 O   0  0  0  0  0  0
  -26.5634  -34.8906   22.4656 O   0  0  0  0  0  0
  -23.5478  -32.1374   23.7273 O   0  0  0  0  0  0
  -28.8430  -21.6313   19.1915 C   0  0  0  0  0  0
  -29.1109  -20.7846   20.3125 C   0  0  0  0  0  0
  -28.5440  -23.5205   20.5426 C   0  0  0  0  0  0
  -30.7350  -18.7084   20.8796 C   0  0  0  0  0  0
  -28.4169  -18.1272   20.6218 C   0  0  0  0  0  0
  -31.1626  -17.2242   20.5446 C   0  0  0  0  0  0
  -28.7804  -16.5883   20.3429 C   0  0  0  0  0  0
  -29.4532  -19.2122   20.1786 C   0  0  0  0  0  0
  -27.8756  -24.9625   20.8165 C   0  0  0  0  0  0
  -28.5508  -22.9750   19.3077 N   0  0  0  0  0  0
  -29.0846  -21.4095   21.5276 N   0  0  0  0  0  0
  -28.8087  -22.7447   21.6346 N   0  0  0  0  0  0
  -30.1706  -16.0889   20.5983 N   0  0  0  0  0  0
  -31.4487  -12.5800   19.1587 H   0  0  0  0  0  0
  -30.3458  -11.5407   20.0054 H   0  0  0  0  0  0
  -29.7872  -11.7004   17.5484 H   0  0  0  0  0  0
  -29.6053  -13.4338   17.6914 H   0  0  0  0  0  0
  -27.9087  -11.2667   18.9628 H   0  0  0  0  0  0
  -27.3620  -12.4583   17.8155 H   0  0  0  0  0  0
  -27.5929  -14.2361   19.4093 H   0  0  0  0  0  0
  -28.7472  -12.2757   21.4575 H   0  0  0  0  0  0
  -28.4166  -13.9597   21.7572 H   0  0  0  0  0  0
  -25.2752   -9.5676   22.4780 H   0  0  0  0  0  0
  -23.9994   -7.4623   22.7477 H   0  0  0  0  0  0
  -21.0847   -8.8777   19.8950 H   0  0  0  0  0  0
  -22.3704  -10.9678   19.6179 H   0  0  0  0  0  0
  -21.2009   -7.6150   23.9717 H   0  0  0  0  0  0
  -21.1472   -6.0527   25.9075 H   0  0  0  0  0  0
  -22.0601   -2.7611   23.2857 H   0  0  0  0  0  0
  -22.4068  -11.9862   22.4827 H   0  0  0  0  0  0
  -21.1053  -13.1217   22.2649 H   0  0  0  0  0  0
  -24.6340  -15.8388   20.5072 H   0  0  0  0  0  0
  -26.2495  -15.6314   20.0593 H   0  0  0  0  0  0
  -26.7218  -32.5394   23.1072 H   0  0  0  0  0  0
  -25.0101  -33.9695   25.0404 H   0  0  0  0  0  0
  -22.7282  -31.3009   21.3968 H   0  0  0  0  0  0
  -23.3760  -35.9602   23.3290 H   0  0  0  0  0  0
  -24.3586  -36.8915   22.2056 H   0  0  0  0  0  0
  -23.7235  -37.6467   23.6674 H   0  0  0  0  0  0
  -26.1191  -31.5239   20.6121 H   0  0  0  0  0  0
  -26.8563  -30.8125   22.0152 H   0  0  0  0  0  0
  -28.1201  -28.8977   21.2278 H   0  0  0  0  0  0
  -25.9670  -25.9167   18.9684 H   0  0  0  0  0  0
  -23.9740  -27.3284   18.9746 H   0  0  0  0  0  0
  -23.7742  -30.5925   19.4034 H   0  0  0  0  0  0
  -22.7679  -29.2498   19.8529 H   0  0  0  0  0  0
  -25.1295  -36.1905   25.0818 H   0  0  0  0  0  0
  -20.9990  -28.3293   24.1383 H   0  0  0  0  0  0
  -20.5696  -26.2317   23.3615 H   0  0  0  0  0  0
  -21.6648  -26.7457   22.1192 H   0  0  0  0  0  0
  -19.6926  -25.6298   21.1248 H   0  0  0  0  0  0
  -19.6697  -27.3193   20.6740 H   0  0  0  0  0  0
  -17.4206  -26.6685   21.4019 H   0  0  0  0  0  0
  -18.0335  -26.0082   22.9023 H   0  0  0  0  0  0
  -19.7945  -30.7282   24.2257 H   0  0  0  0  0  0
  -17.5021  -31.6276   24.5158 H   0  0  0  0  0  0
  -15.5355  -30.2980   23.7677 H   0  0  0  0  0  0
  -15.8680  -28.0819   22.7080 H   0  0  0  0  0  0
  -24.5900  -30.7099   25.7765 H   0  0  0  0  0  0
  -24.8931  -32.2913   26.4862 H   0  0  0  0  0  0
  -25.8038  -30.8913   27.0226 H   0  0  0  0  0  0
  -26.2945  -29.6723   24.1242 H   0  0  0  0  0  0
  -27.4009  -29.7254   25.4760 H   0  0  0  0  0  0
  -27.8835  -30.4243   23.9495 H   0  0  0  0  0  0
  -27.2717  -33.3638   26.2036 H   0  0  0  0  0  0
  -28.3899  -32.6832   25.0310 H   0  0  0  0  0  0
  -28.0731  -31.8447   26.5419 H   0  0  0  0  0  0
  -28.2581  -38.0097   24.7522 H   0  0  0  0  0  0
  -28.1089  -36.2626   24.6271 H   0  0  0  0  0  0
  -27.2301  -37.1417   25.8865 H   0  0  0  0  0  0
  -20.9416  -29.8758   21.6834 H   0  0  0  0  0  0
  -26.0162  -38.2833   24.1428 H   0  0  0  0  0  0
  -28.8450  -21.2243   18.1907 H   0  0  0  0  0  0
  -31.5628  -19.3695   20.6190 H   0  0  0  0  0  0
  -30.6140  -18.8106   21.9593 H   0  0  0  0  0  0
  -28.2348  -18.2493   21.6907 H   0  0  0  0  0  0
  -27.4600  -18.3440   20.1454 H   0  0  0  0  0  0
  -32.0018  -16.9877   21.2024 H   0  0  0  0  0  0
  -31.5779  -17.2298   19.5349 H   0  0  0  0  0  0
  -28.5706  -16.3801   19.2928 H   0  0  0  0  0  0
  -28.0840  -15.9847   20.9200 H   0  0  0  0  0  0
  -29.6103  -19.0667   19.1093 H   0  0  0  0  0  0
  -27.9879  -25.1391   21.8865 H   0  0  0  0  0  0
  -26.8089  -24.7784   20.7018 H   0  0  0  0  0  0
  1 25  1  0  0  0
  1 30  2  0  0  0
  1 83  1  0  0  0
  2  3  1  0  0  0
  2 25  1  0  0  0
  2 84  1  0  0  0
  2 85  1  0  0  0
  3  4  1  0  0  0
  3 86  1  0  0  0
  3 87  1  0  0  0
  4  5  1  0  0  0
  4 88  1  0  0  0
  4 89  1  0  0  0
  5  6  1  0  0  0
  5 26  1  0  0  0
  5 90  1  0  0  0
  6 25  1  0  0  0
  6 91  1  0  0  0
  6 92  1  0  0  0
  7  8  2  0  0  0
  7 26  1  0  0  0
  7 29  1  0  0  0
  8  9  1  0  0  0
  8 22  1  0  0  0
  9 10  1  0  0  0
  9 27  2  0  0  0
 10 11  2  0  0  0
 10 15  1  0  0  0
 11 12  1  0  0  0
 11 93  1  0  0  0
 12 13  2  0  0  0
 12 94  1  0  0  0
 13 14  1  0  0  0
 13 31  1  0  0  0
 14 15  2  0  0  0
 14 95  1  0  0  0
 15 96  1  0  0  0
 16 17  2  0  0  0
 16 21  1  0  0  0
 16 31  1  0  0  0
 17 18  1  0  0  0
 17 97  1  0  0  0
 18 19  2  0  0  0
 18 98  1  0  0  0
 19 20  1  0  0  0
 19 24  1  0  0  0
 20 21  2  0  0  0
 20 99  1  0  0  0
 21 23  1  0  0  0
 22 28  1  0  0  0
 22 32  2  0  0  0
 26 27  1  0  0  0
 28100  1  0  0  0
 28101  1  0  0  0
 29102  1  0  0  0
 29103  1  0  0  0
 33 34  1  0  0  0
 33 66  1  0  0  0
 33 70  2  0  0  0
 34 36  1  0  0  0
 34 59  1  0  0  0
 34104  1  0  0  0
 35 44  2  0  0  0
 35 45  1  0  0  0
 35 68  1  0  0  0
 36 56  1  0  0  0
 36105  1  0  0  0
 37 39  1  0  0  0
 37 47  1  0  0  0
 37 66  1  0  0  0
 37106  1  0  0  0
 38 43  2  0  0  0
 38 46  1  0  0  0
 38 47  1  0  0  0
 39 64  1  0  0  0
 39 67  2  0  0  0
 40 52  1  0  0  0
 40 53  2  0  0  0
 40 58  1  0  0  0
 41107  1  0  0  0
 41108  1  0  0  0
 41109  1  0  0  0
 41 48  1  0  0  0
 42 43  1  0  0  0
 42 66  1  0  0  0
 42110  1  0  0  0
 42111  1  0  0  0
 43 44  1  0  0  0
 44112  1  0  0  0
 45 46  2  0  0  0
 45113  1  0  0  0
 46114  1  0  0  0
 47115  1  0  0  0
 47116  1  0  0  0
 48 56  1  0  0  0
 48 65  1  0  0  0
 48117  1  0  0  0
 49 50  1  0  0  0
 49 53  1  0  0  0
 49 64  1  0  0  0
 49118  1  0  0  0
 50 51  1  0  0  0
 50119  1  0  0  0
 50120  1  0  0  0
 51 52  1  0  0  0
 51121  1  0  0  0
 51122  1  0  0  0
 52123  1  0  0  0
 52124  1  0  0  0
 53 54  1  0  0  0
 54 55  2  0  0  0
 54125  1  0  0  0
 55 57  1  0  0  0
 55126  1  0  0  0
 56 69  2  0  0  0
 57 58  2  0  0  0
 57127  1  0  0  0
 58128  1  0  0  0
 59 60  1  0  0  0
 59 61  1  0  0  0
 59 62  1  0  0  0
 60129  1  0  0  0
 60130  1  0  0  0
 60131  1  0  0  0
 61132  1  0  0  0
 61133  1  0  0  0
 61134  1  0  0  0
 62135  1  0  0  0
 62136  1  0  0  0
 62137  1  0  0  0
 63 65  1  0  0  0
 63138  1  0  0  0
 63139  1  0  0  0
 63140  1  0  0  0
 64141  1  0  0  0
 65142  1  0  0  0
 68 79  1  0  0  0
 71 72  2  0  0  0
 71 80  1  0  0  0
 71143  1  0  0  0
 72 81  1  0  0  0
 72 78  1  0  0  0
 73 79  1  0  0  0
 73 80  2  0  0  0
 73 82  1  0  0  0
 74 76  1  0  0  0
 74 78  1  0  0  0
 74144  1  0  0  0
 74145  1  0  0  0
 75 77  1  0  0  0
 75 78  1  0  0  0
 75146  1  0  0  0
 75147  1  0  0  0
 76 83  1  0  0  0
 76148  1  0  0  0
 76149  1  0  0  0
 77 83  1  0  0  0
 77150  1  0  0  0
 77151  1  0  0  0
 78152  1  0  0  0
 79153  1  0  0  0
 79154  1  0  0  0
 81 82  2  0  0  0
M  ISO  4   1 100  68 101  79 101  83 100
M  END
> <chiral flag>
0

> <version>
0

> <s_m_source_file>
/data/baiqing/PycharmProjects/Reinvent-master-3.2/result/LINK_invent/BTK/process_docking_weight1_custom_sum_contain_oxygen_bond_distance_aromatic_linkinvent_7_9_3/rearranged_h_0185.sdf

> <i_m_source_file_index>
10

> <r_mmod_Potential_Energy-OPLS-2005>
500.005920410156

> <r_mmod_Stretch_Energy-OPLS-2005>
139.835327148438

> <r_mmod_Bend_Energy-OPLS-2005>
236.403732299805

> <r_mmod_Torsional_Energy-OPLS-2005>
313.275604248047

> <r_mmod_Improper_Torsional_Energy-OPLS-2005>
7.29653978347778

> <r_mmod_Van_der_Waal_Energy-OPLS-2005>
154.87370300293

> <r_mmod_Electrostatic_Energy-OPLS-2005>
-231.004180908203

> <r_mmod_Solvation_Energy-OPLS-2005>
-232.70751953125

> <b_mmod_Minimization_Converged-OPLS-2005>
0

> <r_mmod_RMS_Derivative-OPLS-2005>
0.921181321144104

$$$$
10
                    3D
 Structure written by MMmdl.
153161  0  0  1  0            999 V2000
  -30.2489  -15.6199   20.2932 C   0  0  0  0  0  0
  -30.3945  -13.0660   19.5291 C   0  0  0  0  0  0
  -29.5276  -12.6316   18.3195 C   0  0  0  0  0  0
  -28.0951  -12.2957   18.7501 C   0  0  0  0  0  0
  -27.5748  -13.3029   19.8014 C   0  0  2  0  0  0
  -28.5852  -13.6188   20.9236 C   0  0  0  0  0  0
  -25.2185  -13.8301   20.5693 C   0  0  0  0  0  0
  -24.1652  -13.0454   20.9344 C   0  0  0  0  0  0
  -24.6359  -11.6955   20.8859 C   0  0  0  0  0  0
  -23.9116  -10.4304   21.0510 C   0  0  0  0  0  0
  -24.3668   -9.4191   21.9272 C   0  0  0  0  0  0
  -23.6324   -8.2238   22.0804 C   0  0  0  0  0  0
  -22.4304   -8.0319   21.3580 C   0  0  0  0  0  0
  -21.9970   -9.0303   20.4684 C   0  0  0  0  0  0
  -22.7313  -10.2159   20.3121 C   0  0  0  0  0  0
  -21.6866   -6.0796   22.5285 C   0  0  0  0  0  0
  -21.4007   -6.5695   23.8232 C   0  0  0  0  0  0
  -21.3671   -5.6857   24.9208 C   0  0  0  0  0  0
  -21.6004   -4.3099   24.7252 C   0  0  0  0  0  0
  -21.8773   -3.8188   23.4366 C   0  0  0  0  0  0
  -21.9164   -4.7008   22.3426 C   0  0  0  0  0  0
  -22.7640  -13.5149   21.2059 C   0  0  0  0  0  0
  -22.1631   -4.2201   21.1001 F   0  0  0  0  0  0
  -21.5629   -3.4561   25.7745 F   0  0  0  0  0  0
  -29.7463  -14.2485   20.2475 N   0  0  0  0  0  0
  -26.2616  -12.9636   20.3181 N   0  0  0  0  0  0
  -25.9275  -11.6734   20.5763 N   0  0  0  0  0  0
  -22.0379  -12.8099   22.0632 N   0  0  0  0  0  0
  -25.3775  -15.2045   20.3952 N   0  0  0  0  0  0
  -31.4903  -15.5712   20.1388 O   0  0  0  0  0  0
  -21.6651   -6.8904   21.4261 O   0  0  0  0  0  0
  -22.3295  -14.5468   20.6891 O   0  0  0  0  0  0
  -24.6721  -31.8043   23.1599 C   0  0  0  0  0  0
  -25.9359  -32.4473   23.8072 C   0  0  1  0  0  0
  -27.1652  -26.7533   20.1300 C   0  0  0  0  0  0
  -25.6055  -33.8326   24.1948 N   0  0  0  0  0  0
  -23.4925  -30.4189   21.5154 C   0  0  2  0  0  0
  -24.9265  -28.7877   20.0930 C   0  0  0  0  0  0
  -22.7718  -29.4273   22.4726 C   0  0  0  0  0  0
  -18.0314  -28.1355   22.8496 C   0  0  0  0  0  0
  -24.1482  -36.7099   23.2668 C   0  0  0  0  0  0
  -26.0718  -30.5575   21.4026 C   0  0  0  0  0  0
  -26.1243  -29.1295   20.7350 C   0  0  0  0  0  0
  -27.2345  -28.1416   20.7207 C   0  0  0  0  0  0
  -25.9369  -26.6116   19.4445 C   0  0  0  0  0  0
  -24.8685  -27.5525   19.4272 C   0  0  0  0  0  0
  -23.7317  -29.7515   20.1349 C   0  0  0  0  0  0
  -25.4118  -36.2880   24.0315 C   0  0  1  0  0  0
  -20.5990  -28.3667   23.1180 C   0  0  2  0  0  0
  -20.6799  -26.9337   22.5397 C   0  0  0  0  0  0
  -19.5751  -26.6306   21.5247 C   0  0  0  0  0  0
  -18.1935  -26.7890   22.1625 C   0  0  0  0  0  0
  -19.1612  -28.8824   23.2837 C   0  0  0  0  0  0
  -18.9521  -30.1438   23.8842 C   0  0  0  0  0  0
  -17.6528  -30.6564   24.0579 C   0  0  0  0  0  0
  -25.9115  -34.9294   23.4943 C   0  0  0  0  0  0
  -16.5409  -29.9073   23.6369 C   0  0  0  0  0  0
  -16.7310  -28.6497   23.0388 C   0  0  0  0  0  0
  -26.4530  -31.6489   25.0657 C   0  0  0  0  0  0
  -25.3615  -31.3755   26.1268 C   0  0  0  0  0  0
  -27.0435  -30.2845   24.6437 C   0  0  0  0  0  0
  -27.6003  -32.4303   25.7454 C   0  0  0  0  0  0
  -27.5511  -37.1694   24.8497 C   0  0  0  0  0  0
  -21.4379  -29.2974   22.3565 N   0  0  0  0  0  0
  -26.4198  -37.3647   23.9466 N   0  0  0  0  0  0
  -24.7724  -30.9572   22.0815 N   0  0  0  0  0  0
  -23.4259  -28.7780   23.2926 O   0  0  0  0  0  0
  -28.1077  -25.5336   20.1844 O   0  0  0  0  0  0
  -26.5714  -34.8889   22.4538 O   0  0  0  0  0  0
  -23.5760  -32.1156   23.6585 O   0  0  0  0  0  0
  -29.3201  -18.5004   21.7645 C   0  0  0  0  0  0
  -28.4625  -17.2841   21.3049 C   0  0  0  0  0  0
  -29.6131  -18.7432   20.3012 C   0  0  2  0  0  0
  -27.0014  -20.4735   17.7246 C   0  0  0  0  0  0
  -28.6457  -22.1147   20.2203 C   0  0  0  0  0  0
  -27.9315  -23.8454   19.7787 C   0  0  0  0  0  0
  -28.7342  -20.2928   19.6144 C   0  0  2  0  0  0
  -29.4737  -16.9840   20.2648 N   0  0  0  0  0  0
  -27.4362  -19.8469   19.0054 N   0  3  0  0  0  0
  -31.3935  -13.3280   19.1782 H   0  0  0  0  0  0
  -30.5407  -12.2282   20.2108 H   0  0  0  0  0  0
  -29.9810  -11.7779   17.8167 H   0  0  0  0  0  0
  -29.4915  -13.4452   17.5959 H   0  0  0  0  0  0
  -28.0925  -11.2880   19.1705 H   0  0  0  0  0  0
  -27.4385  -12.2649   17.8777 H   0  0  0  0  0  0
  -27.4421  -14.2325   19.2445 H   0  0  0  0  0  0
  -28.8373  -12.7191   21.4900 H   0  0  0  0  0  0
  -28.1612  -14.3143   21.6460 H   0  0  0  0  0  0
  -25.2795   -9.5672   22.4882 H   0  0  0  0  0  0
  -24.0041   -7.4623   22.7477 H   0  0  0  0  0  0
  -21.0935   -8.8851   19.8941 H   0  0  0  0  0  0
  -22.3827  -10.9750   19.6265 H   0  0  0  0  0  0
  -21.1998   -7.6201   23.9762 H   0  0  0  0  0  0
  -21.1556   -6.0598   25.9136 H   0  0  0  0  0  0
  -22.0525   -2.7645   23.2839 H   0  0  0  0  0  0
  -22.4142  -11.9803   22.4950 H   0  0  0  0  0  0
  -21.1025  -13.1033   22.2958 H   0  0  0  0  0  0
  -24.5808  -15.8325   20.4116 H   0  0  0  0  0  0
  -26.2029  -15.6125   19.9765 H   0  0  0  0  0  0
  -26.7478  -32.4833   23.0786 H   0  0  0  0  0  0
  -25.0382  -33.9434   25.0234 H   0  0  0  0  0  0
  -22.8174  -31.2587   21.3532 H   0  0  0  0  0  0
  -23.3769  -35.9396   23.3288 H   0  0  0  0  0  0
  -24.3591  -36.8772   22.2098 H   0  0  0  0  0  0
  -23.7175  -37.6252   23.6749 H   0  0  0  0  0  0
  -26.2620  -31.2927   20.6220 H   0  0  0  0  0  0
  -26.9343  -30.6138   22.0531 H   0  0  0  0  0  0
  -28.1443  -28.4127   21.2362 H   0  0  0  0  0  0
  -25.7518  -25.6749   18.9355 H   0  0  0  0  0  0
  -23.9656  -27.2891   18.8885 H   0  0  0  0  0  0
  -23.8997  -30.5394   19.3988 H   0  0  0  0  0  0
  -22.8306  -29.2386   19.8027 H   0  0  0  0  0  0
  -25.1292  -36.1648   25.0793 H   0  0  0  0  0  0
  -21.0105  -28.3214   24.1290 H   0  0  0  0  0  0
  -20.5669  -26.2252   23.3624 H   0  0  0  0  0  0
  -21.6654  -26.7261   22.1214 H   0  0  0  0  0  0
  -19.6964  -25.6209   21.1256 H   0  0  0  0  0  0
  -19.6736  -27.3164   20.6849 H   0  0  0  0  0  0
  -17.4227  -26.6695   21.4011 H   0  0  0  0  0  0
  -18.0267  -25.9979   22.8938 H   0  0  0  0  0  0
  -19.8021  -30.7258   24.2162 H   0  0  0  0  0  0
  -17.5113  -31.6260   24.5118 H   0  0  0  0  0  0
  -15.5413  -30.2999   23.7715 H   0  0  0  0  0  0
  -15.8709  -28.0846   22.7129 H   0  0  0  0  0  0
  -24.5977  -30.6907   25.7565 H   0  0  0  0  0  0
  -24.8593  -32.2933   26.4344 H   0  0  0  0  0  0
  -25.7776  -30.9204   27.0261 H   0  0  0  0  0  0
  -26.3104  -29.6483   24.1427 H   0  0  0  0  0  0
  -27.3974  -29.7244   25.5099 H   0  0  0  0  0  0
  -27.9044  -30.4006   23.9824 H   0  0  0  0  0  0
  -27.2657  -33.3813   26.1594 H   0  0  0  0  0  0
  -28.3980  -32.6458   25.0347 H   0  0  0  0  0  0
  -28.0438  -31.8671   26.5690 H   0  0  0  0  0  0
  -28.2441  -38.0058   24.7501 H   0  0  0  0  0  0
  -28.1012  -36.2540   24.6276 H   0  0  0  0  0  0
  -27.2228  -37.1297   25.8897 H   0  0  0  0  0  0
  -20.9556  -29.8810   21.6889 H   0  0  0  0  0  0
  -25.9998  -38.2633   24.1626 H   0  0  0  0  0  0
  -30.2129  -18.2499   22.3423 H   0  0  0  0  0  0
  -28.7748  -19.3140   22.2553 H   0  0  0  0  0  0
  -27.5000  -17.5960   20.8905 H   0  0  0  0  0  0
  -28.3122  -16.5453   22.0875 H   0  0  0  0  0  0
  -30.6726  -18.9793   20.2030 H   0  0  0  0  0  0
  -26.0542  -20.0514   17.3716 H   0  0  0  0  0  0
  -27.7208  -20.3142   16.9261 H   0  0  0  0  0  0
  -26.8411  -21.5447   17.8331 H   0  0  0  0  0  0
  -28.3257  -21.9919   21.2555 H   0  0  0  0  0  0
  -29.7038  -22.3339   20.3206 H   0  0  0  0  0  0
  -26.8562  -23.6932   19.8965 H   0  0  0  0  0  0
  -28.0573  -23.8807   18.6957 H   0  0  0  0  0  0
  -29.3383  -20.4537   18.7205 H   0  0  0  0  0  0
  -27.5247  -18.8721   18.7724 H   0  0  0  0  0  0
  -26.6890  -19.9249   19.6765 H   0  0  0  0  0  0
  1 25  1  0  0  0
  1 30  2  0  0  0
  1 78  1  0  0  0
  2  3  1  0  0  0
  2 25  1  0  0  0
  2 80  1  0  0  0
  2 81  1  0  0  0
  3  4  1  0  0  0
  3 82  1  0  0  0
  3 83  1  0  0  0
  4  5  1  0  0  0
  4 84  1  0  0  0
  4 85  1  0  0  0
  5  6  1  0  0  0
  5 26  1  0  0  0
  5 86  1  0  0  0
  6 25  1  0  0  0
  6 87  1  0  0  0
  6 88  1  0  0  0
  7  8  2  0  0  0
  7 26  1  0  0  0
  7 29  1  0  0  0
  8  9  1  0  0  0
  8 22  1  0  0  0
  9 10  1  0  0  0
  9 27  2  0  0  0
 10 11  2  0  0  0
 10 15  1  0  0  0
 11 12  1  0  0  0
 11 89  1  0  0  0
 12 13  2  0  0  0
 12 90  1  0  0  0
 13 14  1  0  0  0
 13 31  1  0  0  0
 14 15  2  0  0  0
 14 91  1  0  0  0
 15 92  1  0  0  0
 16 17  2  0  0  0
 16 21  1  0  0  0
 16 31  1  0  0  0
 17 18  1  0  0  0
 17 93  1  0  0  0
 18 19  2  0  0  0
 18 94  1  0  0  0
 19 20  1  0  0  0
 19 24  1  0  0  0
 20 21  2  0  0  0
 20 95  1  0  0  0
 21 23  1  0  0  0
 22 28  1  0  0  0
 22 32  2  0  0  0
 26 27  1  0  0  0
 28 96  1  0  0  0
 28 97  1  0  0  0
 29 98  1  0  0  0
 29 99  1  0  0  0
 33 34  1  0  0  0
 33 66  1  0  0  0
 33 70  2  0  0  0
 34 36  1  0  0  0
 34 59  1  0  0  0
 34100  1  0  0  0
 35 44  2  0  0  0
 35 45  1  0  0  0
 35 68  1  0  0  0
 36 56  1  0  0  0
 36101  1  0  0  0
 37 39  1  0  0  0
 37 47  1  0  0  0
 37 66  1  0  0  0
 37102  1  0  0  0
 38 43  2  0  0  0
 38 46  1  0  0  0
 38 47  1  0  0  0
 39 64  1  0  0  0
 39 67  2  0  0  0
 40 52  1  0  0  0
 40 53  2  0  0  0
 40 58  1  0  0  0
 41103  1  0  0  0
 41104  1  0  0  0
 41105  1  0  0  0
 41 48  1  0  0  0
 42 43  1  0  0  0
 42 66  1  0  0  0
 42106  1  0  0  0
 42107  1  0  0  0
 43 44  1  0  0  0
 44108  1  0  0  0
 45 46  2  0  0  0
 45109  1  0  0  0
 46110  1  0  0  0
 47111  1  0  0  0
 47112  1  0  0  0
 48 56  1  0  0  0
 48 65  1  0  0  0
 48113  1  0  0  0
 49 50  1  0  0  0
 49 53  1  0  0  0
 49 64  1  0  0  0
 49114  1  0  0  0
 50 51  1  0  0  0
 50115  1  0  0  0
 50116  1  0  0  0
 51 52  1  0  0  0
 51117  1  0  0  0
 51118  1  0  0  0
 52119  1  0  0  0
 52120  1  0  0  0
 53 54  1  0  0  0
 54 55  2  0  0  0
 54121  1  0  0  0
 55 57  1  0  0  0
 55122  1  0  0  0
 56 69  2  0  0  0
 57 58  2  0  0  0
 57123  1  0  0  0
 58124  1  0  0  0
 59 60  1  0  0  0
 59 61  1  0  0  0
 59 62  1  0  0  0
 60125  1  0  0  0
 60126  1  0  0  0
 60127  1  0  0  0
 61128  1  0  0  0
 61129  1  0  0  0
 61130  1  0  0  0
 62131  1  0  0  0
 62132  1  0  0  0
 62133  1  0  0  0
 63 65  1  0  0  0
 63134  1  0  0  0
 63135  1  0  0  0
 63136  1  0  0  0
 64137  1  0  0  0
 65138  1  0  0  0
 68 76  1  0  0  0
 71 72  1  0  0  0
 71139  1  0  0  0
 71140  1  0  0  0
 71 73  1  0  0  0
 72 78  1  0  0  0
 72141  1  0  0  0
 72142  1  0  0  0
 73 77  1  0  0  0
 73 78  1  0  0  0
 73143  1  0  0  0
 74 79  1  0  0  0
 74144  1  0  0  0
 74145  1  0  0  0
 74146  1  0  0  0
 75 76  1  0  0  0
 75147  1  0  0  0
 75148  1  0  0  0
 75 77  1  0  0  0
 76149  1  0  0  0
 76150  1  0  0  0
 77 79  1  0  0  0
 77151  1  0  0  0
 79152  1  0  0  0
 79153  1  0  0  0
M  CHG  1  79   1
M  ISO  4   1 100  68 101  76 101  78 100
M  END
> <chiral flag>
0

> <version>
0

> <s_m_source_file>
/data/baiqing/PycharmProjects/Reinvent-master-3.2/result/LINK_invent/BTK/process_docking_weight1_custom_sum_contain_oxygen_bond_distance_aromatic_linkinvent_7_9_3/rearranged_h_0185.sdf

> <i_m_source_file_index>
11

> <r_mmod_Potential_Energy-OPLS-2005>
2312.36865234375

> <r_mmod_Stretch_Energy-OPLS-2005>
1107.39709472656

> <r_mmod_Bend_Energy-OPLS-2005>
636.972290039062

> <r_mmod_Torsional_Energy-OPLS-2005>
327.921783447266

> <r_mmod_Improper_Torsional_Energy-OPLS-2005>
12.3418836593628

> <r_mmod_Van_der_Waal_Energy-OPLS-2005>
105.304466247559

> <r_mmod_Electrostatic_Energy-OPLS-2005>
-237.936508178711

> <r_mmod_Solvation_Energy-OPLS-2005>
-498.102264404297

> <b_mmod_Minimization_Converged-OPLS-2005>
0

> <r_mmod_RMS_Derivative-OPLS-2005>
10.8888187408447

$$$$
11
                    3D
 Structure written by MMmdl.
159168  0  0  1  0            999 V2000
  -30.3709  -15.5638   20.3409 C   0  0  0  0  0  0
  -30.4202  -13.0175   19.5691 C   0  0  0  0  0  0
  -29.5536  -12.6473   18.3322 C   0  0  0  0  0  0
  -28.1176  -12.3086   18.7570 C   0  0  0  0  0  0
  -27.5947  -13.3113   19.8107 C   0  0  2  0  0  0
  -28.6053  -13.6199   20.9391 C   0  0  0  0  0  0
  -25.2250  -13.8264   20.5670 C   0  0  0  0  0  0
  -24.1687  -13.0415   20.9276 C   0  0  0  0  0  0
  -24.6415  -11.6940   20.8771 C   0  0  0  0  0  0
  -23.9128  -10.4283   21.0405 C   0  0  0  0  0  0
  -24.3664   -9.4193   21.9185 C   0  0  0  0  0  0
  -23.6321   -8.2236   22.0754 C   0  0  0  0  0  0
  -22.4299   -8.0280   21.3548 C   0  0  0  0  0  0
  -21.9949   -9.0255   20.4646 C   0  0  0  0  0  0
  -22.7297  -10.2124   20.3053 C   0  0  0  0  0  0
  -21.6859   -6.0737   22.5282 C   0  0  0  0  0  0
  -21.4014   -6.5638   23.8214 C   0  0  0  0  0  0
  -21.3665   -5.6793   24.9176 C   0  0  0  0  0  0
  -21.6047   -4.3054   24.7226 C   0  0  0  0  0  0
  -21.8817   -3.8147   23.4346 C   0  0  0  0  0  0
  -21.9193   -4.6963   22.3403 C   0  0  0  0  0  0
  -22.7700  -13.5141   21.1920 C   0  0  0  0  0  0
  -22.1660   -4.2149   21.0981 F   0  0  0  0  0  0
  -21.5633   -3.4538   25.7738 F   0  0  0  0  0  0
  -29.8109  -14.2125   20.3167 N   0  0  0  0  0  0
  -26.2740  -12.9633   20.3170 N   0  0  0  0  0  0
  -25.9364  -11.6706   20.5707 N   0  0  0  0  0  0
  -22.0377  -12.8123   22.0486 N   0  0  0  0  0  0
  -25.3720  -15.1977   20.3923 N   0  0  0  0  0  0
  -31.5955  -15.4356   20.1404 O   0  0  0  0  0  0
  -21.6652   -6.8883   21.4244 O   0  0  0  0  0  0
  -22.3366  -14.5441   20.6765 O   0  0  0  0  0  0
  -24.6802  -31.8036   23.1545 C   0  0  0  0  0  0
  -25.9398  -32.4484   23.8079 C   0  0  1  0  0  0
  -27.2209  -26.7359   20.2283 C   0  0  0  0  0  0
  -25.5992  -33.8307   24.1965 N   0  0  0  0  0  0
  -23.5040  -30.4074   21.5076 C   0  0  2  0  0  0
  -24.9589  -28.7503   20.1272 C   0  0  0  0  0  0
  -22.7746  -29.4340   22.4727 C   0  0  0  0  0  0
  -18.0333  -28.1421   22.8450 C   0  0  0  0  0  0
  -24.1503  -36.7165   23.2650 C   0  0  0  0  0  0
  -26.0827  -30.5509   21.4114 C   0  0  0  0  0  0
  -26.1491  -29.1166   20.7678 C   0  0  0  0  0  0
  -27.2704  -28.1394   20.7785 C   0  0  0  0  0  0
  -25.9955  -26.5656   19.5378 C   0  0  0  0  0  0
  -24.9186  -27.4995   19.4886 C   0  0  0  0  0  0
  -23.7564  -29.7037   20.1438 C   0  0  0  0  0  0
  -25.4148  -36.2901   24.0281 C   0  0  1  0  0  0
  -20.5965  -28.3779   23.1147 C   0  0  2  0  0  0
  -20.6807  -26.9444   22.5398 C   0  0  0  0  0  0
  -19.5785  -26.6375   21.5211 C   0  0  0  0  0  0
  -18.1964  -26.7950   22.1615 C   0  0  0  0  0  0
  -19.1597  -28.8924   23.2781 C   0  0  0  0  0  0
  -18.9506  -30.1506   23.8827 C   0  0  0  0  0  0
  -17.6498  -30.6605   24.0549 C   0  0  0  0  0  0
  -25.9123  -34.9290   23.4957 C   0  0  0  0  0  0
  -16.5387  -29.9086   23.6348 C   0  0  0  0  0  0
  -16.7314  -28.6510   23.0361 C   0  0  0  0  0  0
  -26.4591  -31.6501   25.0682 C   0  0  0  0  0  0
  -25.3672  -31.3803   26.1307 C   0  0  0  0  0  0
  -27.0509  -30.2840   24.6552 C   0  0  0  0  0  0
  -27.6043  -32.4358   25.7499 C   0  0  0  0  0  0
  -27.5568  -37.1737   24.8462 C   0  0  0  0  0  0
  -21.4397  -29.3038   22.3480 N   0  0  0  0  0  0
  -26.4274  -37.3660   23.9407 N   0  0  0  0  0  0
  -24.7788  -30.9527   22.0773 N   0  0  0  0  0  0
  -23.4208  -28.7934   23.3051 O   0  0  0  0  0  0
  -28.2260  -25.5672   20.2079 O   0  0  0  0  0  0
  -26.5757  -34.8862   22.4569 O   0  0  0  0  0  0
  -23.5832  -32.1083   23.6530 O   0  0  0  0  0  0
  -29.7695  -17.2374   20.3577 C   0  0  0  0  0  0
  -30.0079  -19.7523   19.7092 C   0  0  0  0  0  0
  -28.9572  -20.4136   20.4144 C   0  0  0  0  0  0
  -28.6883  -17.9440   21.1187 C   0  0  0  0  0  0
  -30.6482  -20.8721   18.8940 C   0  0  0  0  0  0
  -28.6347  -22.1131   19.9121 C   0  0  1  0  0  0
  -27.9039  -17.1444   22.1359 C   0  0  0  0  0  0
  -28.9478  -24.0659   17.4816 C   0  0  0  0  0  0
  -28.4893  -21.6731   16.7796 C   0  0  0  0  0  0
  -28.2016  -23.8582   20.5901 C   0  0  0  0  0  0
  -29.4542  -22.6137   17.5387 C   0  0  0  0  0  0
  -30.3933  -18.3406   19.6718 N   0  0  0  0  0  0
  -28.2854  -19.3601   21.0912 N   0  0  0  0  0  0
  -29.7895  -22.1462   18.9231 N   0  3  2  0  0  0
  -31.4327  -13.2299   19.2254 H   0  0  0  0  0  0
  -30.5291  -12.1558   20.2297 H   0  0  0  0  0  0
  -29.9943  -11.8082   17.7921 H   0  0  0  0  0  0
  -29.5419  -13.4896   17.6386 H   0  0  0  0  0  0
  -28.1249  -11.3043   19.1819 H   0  0  0  0  0  0
  -27.4563  -12.2724   17.8904 H   0  0  0  0  0  0
  -27.4682  -14.2420   19.2560 H   0  0  0  0  0  0
  -28.8337  -12.7279   21.5244 H   0  0  0  0  0  0
  -28.1791  -14.3337   21.6416 H   0  0  0  0  0  0
  -25.2800   -9.5665   22.4774 H   0  0  0  0  0  0
  -24.0021   -7.4624   22.7477 H   0  0  0  0  0  0
  -21.0879   -8.8788   19.8948 H   0  0  0  0  0  0
  -22.3761  -10.9668   19.6165 H   0  0  0  0  0  0
  -21.2003   -7.6146   23.9720 H   0  0  0  0  0  0
  -21.1492   -6.0519   25.9081 H   0  0  0  0  0  0
  -22.0590   -2.7608   23.2851 H   0  0  0  0  0  0
  -22.4020  -11.9808   22.4898 H   0  0  0  0  0  0
  -21.0979  -13.1113   22.2677 H   0  0  0  0  0  0
  -24.5917  -15.8363   20.4988 H   0  0  0  0  0  0
  -26.1934  -15.6393   20.0019 H   0  0  0  0  0  0
  -26.7474  -32.4969   23.0790 H   0  0  0  0  0  0
  -25.0054  -33.9358   25.0062 H   0  0  0  0  0  0
  -22.8272  -31.2433   21.3186 H   0  0  0  0  0  0
  -23.3779  -35.9481   23.3254 H   0  0  0  0  0  0
  -24.3578  -36.8884   22.2077 H   0  0  0  0  0  0
  -23.7254  -37.6325   23.6765 H   0  0  0  0  0  0
  -26.2796  -31.2765   20.6209 H   0  0  0  0  0  0
  -26.9358  -30.6202   22.0738 H   0  0  0  0  0  0
  -28.1780  -28.4346   21.2863 H   0  0  0  0  0  0
  -25.8414  -25.6213   19.0343 H   0  0  0  0  0  0
  -24.0201  -27.2116   18.9601 H   0  0  0  0  0  0
  -23.9320  -30.4612   19.3795 H   0  0  0  0  0  0
  -22.8619  -29.1687   19.8205 H   0  0  0  0  0  0
  -25.1361  -36.1660   25.0772 H   0  0  0  0  0  0
  -21.0044  -28.3400   24.1275 H   0  0  0  0  0  0
  -20.5674  -26.2403   23.3656 H   0  0  0  0  0  0
  -21.6670  -26.7397   22.1216 H   0  0  0  0  0  0
  -19.6948  -25.6266   21.1289 H   0  0  0  0  0  0
  -19.6730  -27.3143   20.6708 H   0  0  0  0  0  0
  -17.4234  -26.6674   21.4020 H   0  0  0  0  0  0
  -18.0364  -26.0109   22.9032 H   0  0  0  0  0  0
  -19.7982  -30.7337   24.2169 H   0  0  0  0  0  0
  -17.5050  -31.6278   24.5165 H   0  0  0  0  0  0
  -15.5382  -30.2969   23.7721 H   0  0  0  0  0  0
  -15.8711  -28.0810   22.7118 H   0  0  0  0  0  0
  -24.5877  -30.7133   25.7609 H   0  0  0  0  0  0
  -24.8842  -32.3018   26.4562 H   0  0  0  0  0  0
  -25.7863  -30.9074   27.0197 H   0  0  0  0  0  0
  -26.3207  -29.6467   24.1552 H   0  0  0  0  0  0
  -27.3949  -29.7275   25.5282 H   0  0  0  0  0  0
  -27.9189  -30.3964   24.0055 H   0  0  0  0  0  0
  -27.2579  -33.3722   26.1889 H   0  0  0  0  0  0
  -28.3950  -32.6821   25.0399 H   0  0  0  0  0  0
  -28.0607  -31.8613   26.5572 H   0  0  0  0  0  0
  -28.2542  -38.0073   24.7518 H   0  0  0  0  0  0
  -28.1105  -36.2593   24.6275 H   0  0  0  0  0  0
  -27.2281  -37.1354   25.8862 H   0  0  0  0  0  0
  -20.9696  -29.8696   21.6552 H   0  0  0  0  0  0
  -26.0097  -38.2706   24.1423 H   0  0  0  0  0  0
  -30.8470  -20.5175   17.8828 H   0  0  0  0  0  0
  -31.6180  -21.1009   19.3357 H   0  0  0  0  0  0
  -27.7326  -21.9226   19.3360 H   0  0  0  0  0  0
  -28.5776  -16.5647   22.7675 H   0  0  0  0  0  0
  -27.2268  -16.4609   21.6374 H   0  0  0  0  0  0
  -27.3120  -17.7869   22.7883 H   0  0  0  0  0  0
  -28.8936  -24.4086   16.4481 H   0  0  0  0  0  0
  -29.6129  -24.7508   18.0083 H   0  0  0  0  0  0
  -27.9437  -24.1679   17.8930 H   0  0  0  0  0  0
  -28.4271  -21.9616   15.7300 H   0  0  0  0  0  0
  -27.4735  -21.7099   17.1721 H   0  0  0  0  0  0
  -28.8123  -20.6329   16.8010 H   0  0  0  0  0  0
  -28.8300  -23.8862   21.4801 H   0  0  0  0  0  0
  -27.1995  -23.7294   20.9988 H   0  0  0  0  0  0
  -30.3978  -22.6133   16.9886 H   0  0  0  0  0  0
  -30.4305  -22.8317   19.2943 H   0  0  0  0  0  0
  1 25  1  0  0  0
  1 30  2  0  0  0
  1 71  1  0  0  0
  2  3  1  0  0  0
  2 25  1  0  0  0
  2 85  1  0  0  0
  2 86  1  0  0  0
  3  4  1  0  0  0
  3 87  1  0  0  0
  3 88  1  0  0  0
  4  5  1  0  0  0
  4 89  1  0  0  0
  4 90  1  0  0  0
  5  6  1  0  0  0
  5 26  1  0  0  0
  5 91  1  0  0  0
  6 25  1  0  0  0
  6 92  1  0  0  0
  6 93  1  0  0  0
  7  8  2  0  0  0
  7 26  1  0  0  0
  7 29  1  0  0  0
  8  9  1  0  0  0
  8 22  1  0  0  0
  9 10  1  0  0  0
  9 27  2  0  0  0
 10 11  2  0  0  0
 10 15  1  0  0  0
 11 12  1  0  0  0
 11 94  1  0  0  0
 12 13  2  0  0  0
 12 95  1  0  0  0
 13 14  1  0  0  0
 13 31  1  0  0  0
 14 15  2  0  0  0
 14 96  1  0  0  0
 15 97  1  0  0  0
 16 17  2  0  0  0
 16 21  1  0  0  0
 16 31  1  0  0  0
 17 18  1  0  0  0
 17 98  1  0  0  0
 18 19  2  0  0  0
 18 99  1  0  0  0
 19 20  1  0  0  0
 19 24  1  0  0  0
 20 21  2  0  0  0
 20100  1  0  0  0
 21 23  1  0  0  0
 22 28  1  0  0  0
 22 32  2  0  0  0
 26 27  1  0  0  0
 28101  1  0  0  0
 28102  1  0  0  0
 29103  1  0  0  0
 29104  1  0  0  0
 33 34  1  0  0  0
 33 66  1  0  0  0
 33 70  2  0  0  0
 34 36  1  0  0  0
 34 59  1  0  0  0
 34105  1  0  0  0
 35 44  2  0  0  0
 35 45  1  0  0  0
 35 68  1  0  0  0
 36 56  1  0  0  0
 36106  1  0  0  0
 37 39  1  0  0  0
 37 47  1  0  0  0
 37 66  1  0  0  0
 37107  1  0  0  0
 38 43  2  0  0  0
 38 46  1  0  0  0
 38 47  1  0  0  0
 39 64  1  0  0  0
 39 67  2  0  0  0
 40 52  1  0  0  0
 40 53  2  0  0  0
 40 58  1  0  0  0
 41108  1  0  0  0
 41109  1  0  0  0
 41110  1  0  0  0
 41 48  1  0  0  0
 42 43  1  0  0  0
 42 66  1  0  0  0
 42111  1  0  0  0
 42112  1  0  0  0
 43 44  1  0  0  0
 44113  1  0  0  0
 45 46  2  0  0  0
 45114  1  0  0  0
 46115  1  0  0  0
 47116  1  0  0  0
 47117  1  0  0  0
 48 56  1  0  0  0
 48 65  1  0  0  0
 48118  1  0  0  0
 49 50  1  0  0  0
 49 53  1  0  0  0
 49 64  1  0  0  0
 49119  1  0  0  0
 50 51  1  0  0  0
 50120  1  0  0  0
 50121  1  0  0  0
 51 52  1  0  0  0
 51122  1  0  0  0
 51123  1  0  0  0
 52124  1  0  0  0
 52125  1  0  0  0
 53 54  1  0  0  0
 54 55  2  0  0  0
 54126  1  0  0  0
 55 57  1  0  0  0
 55127  1  0  0  0
 56 69  2  0  0  0
 57 58  2  0  0  0
 57128  1  0  0  0
 58129  1  0  0  0
 59 60  1  0  0  0
 59 61  1  0  0  0
 59 62  1  0  0  0
 60130  1  0  0  0
 60131  1  0  0  0
 60132  1  0  0  0
 61133  1  0  0  0
 61134  1  0  0  0
 61135  1  0  0  0
 62136  1  0  0  0
 62137  1  0  0  0
 62138  1  0  0  0
 63 65  1  0  0  0
 63139  1  0  0  0
 63140  1  0  0  0
 63141  1  0  0  0
 64142  1  0  0  0
 65143  1  0  0  0
 68 80  1  0  0  0
 71 74  2  0  0  0
 71 82  1  0  0  0
 72 73  1  0  0  0
 72 75  1  0  0  0
 72 82  2  0  0  0
 73 76  1  0  0  0
 73 83  2  0  0  0
 74 77  1  0  0  0
 74 83  1  0  0  0
 75144  1  0  0  0
 75145  1  0  0  0
 75 84  1  0  0  0
 76 80  1  0  0  0
 76 84  1  0  0  0
 76146  1  0  0  0
 77147  1  0  0  0
 77148  1  0  0  0
 77149  1  0  0  0
 78150  1  0  0  0
 78151  1  0  0  0
 78152  1  0  0  0
 78 81  1  0  0  0
 79 81  1  0  0  0
 79153  1  0  0  0
 79154  1  0  0  0
 79155  1  0  0  0
 80156  1  0  0  0
 80157  1  0  0  0
 81 84  1  0  0  0
 81158  1  0  0  0
 84159  1  0  0  0
M  CHG  1  84   1
M  ISO  4   1 100  68 101  71 100  80 101
M  END
> <chiral flag>
0

> <version>
0

> <s_m_source_file>
/data/baiqing/PycharmProjects/Reinvent-master-3.2/result/LINK_invent/BTK/process_docking_weight1_custom_sum_contain_oxygen_bond_distance_aromatic_linkinvent_7_9_3/rearranged_h_0185.sdf

> <i_m_source_file_index>
12

> <r_mmod_Potential_Energy-OPLS-2005>
2223.06469726562

> <r_mmod_Stretch_Energy-OPLS-2005>
902.204223632812

> <r_mmod_Bend_Energy-OPLS-2005>
740.326538085938

> <r_mmod_Torsional_Energy-OPLS-2005>
253.315231323242

> <r_mmod_Improper_Torsional_Energy-OPLS-2005>
8.97473907470703

> <r_mmod_Van_der_Waal_Energy-OPLS-2005>
129.897644042969

> <r_mmod_Electrostatic_Energy-OPLS-2005>
-148.859970092773

> <r_mmod_Solvation_Energy-OPLS-2005>
-447.129089355469

> <b_mmod_Minimization_Converged-OPLS-2005>
0

> <r_mmod_RMS_Derivative-OPLS-2005>
0.8150714635849

$$$$
12
                    3D
 Structure written by MMmdl.
160169  0  0  1  0            999 V2000
  -30.6576  -14.6867   20.4960 C   0  0  0  0  0  0
  -30.4243  -12.4296   19.4587 C   0  0  0  0  0  0
  -29.5000  -12.5112   18.2249 C   0  0  0  0  0  0
  -28.0244  -12.3465   18.6382 C   0  0  0  0  0  0
  -27.6441  -13.2266   19.8591 C   0  0  2  0  0  0
  -28.6930  -13.1086   20.9863 C   0  0  0  0  0  0
  -25.2498  -13.8186   20.5677 C   0  0  0  0  0  0
  -24.1793  -13.0434   20.9203 C   0  0  0  0  0  0
  -24.6388  -11.6914   20.8757 C   0  0  0  0  0  0
  -23.9069  -10.4291   21.0415 C   0  0  0  0  0  0
  -24.3621   -9.4205   21.9190 C   0  0  0  0  0  0
  -23.6295   -8.2241   22.0755 C   0  0  0  0  0  0
  -22.4278   -8.0278   21.3543 C   0  0  0  0  0  0
  -21.9915   -9.0254   20.4647 C   0  0  0  0  0  0
  -22.7243  -10.2134   20.3060 C   0  0  0  0  0  0
  -21.6851   -6.0734   22.5278 C   0  0  0  0  0  0
  -21.4012   -6.5639   23.8210 C   0  0  0  0  0  0
  -21.3661   -5.6793   24.9172 C   0  0  0  0  0  0
  -21.6046   -4.3056   24.7223 C   0  0  0  0  0  0
  -21.8819   -3.8145   23.4345 C   0  0  0  0  0  0
  -21.9192   -4.6961   22.3402 C   0  0  0  0  0  0
  -22.7816  -13.5217   21.1861 C   0  0  0  0  0  0
  -22.1660   -4.2146   21.0980 F   0  0  0  0  0  0
  -21.5632   -3.4542   25.7737 F   0  0  0  0  0  0
  -29.9897  -13.4832   20.4068 N   0  0  0  0  0  0
  -26.2943  -12.9392   20.3329 N   0  0  0  0  0  0
  -25.9321  -11.6537   20.5785 N   0  0  0  0  0  0
  -22.0469  -12.8208   22.0422 N   0  0  0  0  0  0
  -25.4144  -15.1903   20.4026 N   0  0  0  0  0  0
  -31.8377  -14.7411   20.1330 O   0  0  0  0  0  0
  -21.6640   -6.8877   21.4239 O   0  0  0  0  0  0
  -22.3499  -14.5521   20.6709 O   0  0  0  0  0  0
  -24.6278  -31.8587   23.2016 C   0  0  0  0  0  0
  -25.9118  -32.4775   23.8354 C   0  0  1  0  0  0
  -27.2196  -27.3044   20.1271 C   0  0  0  0  0  0
  -25.5928  -33.8575   24.2281 N   0  0  0  0  0  0
  -23.4233  -30.4813   21.5443 C   0  0  2  0  0  0
  -24.8723  -28.9354   20.1100 C   0  0  0  0  0  0
  -22.7487  -29.4615   22.4928 C   0  0  0  0  0  0
  -18.0290  -28.1384   22.8489 C   0  0  0  0  0  0
  -24.1488  -36.7288   23.2639 C   0  0  0  0  0  0
  -25.9657  -30.7851   21.3755 C   0  0  0  0  0  0
  -26.0421  -29.4111   20.7182 C   0  0  0  0  0  0
  -27.2238  -28.6078   20.7167 C   0  0  0  0  0  0
  -26.0348  -26.8894   19.4841 C   0  0  0  0  0  0
  -24.8712  -27.6805   19.4820 C   0  0  0  0  0  0
  -23.6400  -29.8164   20.1596 C   0  0  0  0  0  0
  -25.4112  -36.3081   24.0331 C   0  0  1  0  0  0
  -20.5892  -28.3690   23.1278 C   0  0  2  0  0  0
  -20.6777  -26.9411   22.5410 C   0  0  0  0  0  0
  -19.5753  -26.6383   21.5213 C   0  0  0  0  0  0
  -18.1932  -26.7928   22.1625 C   0  0  0  0  0  0
  -19.1542  -28.8855   23.2879 C   0  0  0  0  0  0
  -18.9464  -30.1456   23.8896 C   0  0  0  0  0  0
  -17.6463  -30.6587   24.0562 C   0  0  0  0  0  0
  -25.9052  -34.9451   23.5107 C   0  0  0  0  0  0
  -16.5354  -29.9083   23.6331 C   0  0  0  0  0  0
  -16.7275  -28.6500   23.0355 C   0  0  0  0  0  0
  -26.4497  -31.6586   25.0729 C   0  0  0  0  0  0
  -25.3728  -31.3723   26.1453 C   0  0  0  0  0  0
  -27.0344  -30.3010   24.6190 C   0  0  0  0  0  0
  -27.6059  -32.4319   25.7499 C   0  0  0  0  0  0
  -27.5580  -37.1797   24.8463 C   0  0  0  0  0  0
  -21.4198  -29.3042   22.3672 N   0  0  0  0  0  0
  -26.4287  -37.3779   23.9413 N   0  0  0  0  0  0
  -24.6911  -31.0582   22.0976 N   0  0  0  0  0  0
  -23.4201  -28.8152   23.3014 O   0  0  0  0  0  0
  -28.2901  -26.3977   20.1661 O   0  0  0  0  0  0
  -26.5620  -34.8919   22.4674 O   0  0  0  0  0  0
  -23.5437  -32.1390   23.7333 O   0  0  0  0  0  0
  -28.1955  -21.4100   20.2895 C   0  0  0  0  0  0
  -29.5554  -21.0528   20.4783 C   0  0  0  0  0  0
  -30.3808  -22.2095   20.6313 C   0  0  0  0  0  0
  -28.6008  -23.7144   20.5118 C   0  0  0  0  0  0
  -28.9512  -17.8041   21.7518 C   0  0  0  0  0  0
  -28.9448  -16.2559   21.6025 C   0  0  0  0  0  0
  -30.4075  -17.1819   20.0018 C   0  0  0  0  0  0
  -29.4552  -18.3660   20.4223 C   0  0  2  0  0  0
  -32.2645  -22.0735   22.3260 C   0  0  0  0  0  0
  -31.8839  -22.0923   20.8396 C   0  0  0  0  0  0
  -28.0001  -25.1340   20.9018 C   0  0  0  0  0  0
  -27.7427  -22.7003   20.3093 N   0  0  0  0  0  0
  -29.9086  -23.4897   20.6641 N   0  0  0  0  0  0
  -29.9477  -15.8813   20.5946 N   0  0  0  0  0  0
  -30.1074  -19.7136   20.5220 N   0  0  0  0  0  0
  -31.4653  -12.5398   19.1504 H   0  0  0  0  0  0
  -30.3610  -11.4443   19.9237 H   0  0  0  0  0  0
  -29.7714  -11.7463   17.4963 H   0  0  0  0  0  0
  -29.6357  -13.4716   17.7248 H   0  0  0  0  0  0
  -27.8650  -11.2945   18.8780 H   0  0  0  0  0  0
  -27.3685  -12.5671   17.7951 H   0  0  0  0  0  0
  -27.6520  -14.2575   19.5054 H   0  0  0  0  0  0
  -28.7290  -12.0867   21.3665 H   0  0  0  0  0  0
  -28.4303  -13.7214   21.8451 H   0  0  0  0  0  0
  -25.2764   -9.5681   22.4768 H   0  0  0  0  0  0
  -24.0000   -7.4631   22.7477 H   0  0  0  0  0  0
  -21.0845   -8.8774   19.8953 H   0  0  0  0  0  0
  -22.3700  -10.9675   19.6171 H   0  0  0  0  0  0
  -21.2002   -7.6145   23.9711 H   0  0  0  0  0  0
  -21.1485   -6.0524   25.9075 H   0  0  0  0  0  0
  -22.0597   -2.7607   23.2845 H   0  0  0  0  0  0
  -22.4085  -11.9865   22.4800 H   0  0  0  0  0  0
  -21.1089  -13.1232   22.2643 H   0  0  0  0  0  0
  -24.6439  -15.8413   20.5065 H   0  0  0  0  0  0
  -26.2607  -15.6291   20.0638 H   0  0  0  0  0  0
  -26.7189  -32.5442   23.1104 H   0  0  0  0  0  0
  -25.0076  -33.9720   25.0427 H   0  0  0  0  0  0
  -22.7178  -31.3022   21.4000 H   0  0  0  0  0  0
  -23.3753  -35.9617   23.3296 H   0  0  0  0  0  0
  -24.3581  -36.8913   22.2054 H   0  0  0  0  0  0
  -23.7234  -37.6487   23.6662 H   0  0  0  0  0  0
  -26.0982  -31.5477   20.6067 H   0  0  0  0  0  0
  -26.8454  -30.8355   22.0054 H   0  0  0  0  0  0
  -28.1195  -28.9641   21.2062 H   0  0  0  0  0  0
  -25.9984  -25.9223   19.0019 H   0  0  0  0  0  0
  -23.9767  -27.3113   18.9993 H   0  0  0  0  0  0
  -23.7594  -30.5937   19.4038 H   0  0  0  0  0  0
  -22.7600  -29.2461   19.8563 H   0  0  0  0  0  0
  -25.1292  -36.1931   25.0823 H   0  0  0  0  0  0
  -20.9985  -28.3264   24.1399 H   0  0  0  0  0  0
  -20.5677  -26.2300   23.3612 H   0  0  0  0  0  0
  -21.6644  -26.7436   22.1200 H   0  0  0  0  0  0
  -19.6910  -25.6293   21.1244 H   0  0  0  0  0  0
  -19.6689  -27.3193   20.6743 H   0  0  0  0  0  0
  -17.4201  -26.6680   21.4026 H   0  0  0  0  0  0
  -18.0329  -26.0068   22.9019 H   0  0  0  0  0  0
  -19.7939  -30.7275   24.2262 H   0  0  0  0  0  0
  -17.5017  -31.6269   24.5160 H   0  0  0  0  0  0
  -15.5354  -30.2984   23.7658 H   0  0  0  0  0  0
  -15.8675  -28.0816   22.7075 H   0  0  0  0  0  0
  -24.5906  -30.7070   25.7776 H   0  0  0  0  0  0
  -24.8915  -32.2888   26.4876 H   0  0  0  0  0  0
  -25.8050  -30.8900   27.0230 H   0  0  0  0  0  0
  -26.2925  -29.6758   24.1210 H   0  0  0  0  0  0
  -27.4036  -29.7268   25.4698 H   0  0  0  0  0  0
  -27.8795  -30.4294   23.9423 H   0  0  0  0  0  0
  -27.2676  -33.3623   26.2070 H   0  0  0  0  0  0
  -28.3873  -32.6872   25.0330 H   0  0  0  0  0  0
  -28.0722  -31.8448   26.5419 H   0  0  0  0  0  0
  -28.2586  -38.0106   24.7529 H   0  0  0  0  0  0
  -28.1090  -36.2641   24.6264 H   0  0  0  0  0  0
  -27.2304  -37.1413   25.8866 H   0  0  0  0  0  0
  -20.9379  -29.8769   21.6884 H   0  0  0  0  0  0
  -26.0168  -38.2850   24.1427 H   0  0  0  0  0  0
  -27.4445  -20.6470   20.1464 H   0  0  0  0  0  0
  -29.6404  -18.0757   22.5534 H   0  0  0  0  0  0
  -27.9711  -18.1980   22.0246 H   0  0  0  0  0  0
  -27.9641  -15.9292   21.2613 H   0  0  0  0  0  0
  -29.1426  -15.7765   22.5624 H   0  0  0  0  0  0
  -31.4187  -17.3731   20.3653 H   0  0  0  0  0  0
  -30.4731  -17.1019   18.9157 H   0  0  0  0  0  0
  -28.6227  -18.4098   19.7173 H   0  0  0  0  0  0
  -33.3438  -21.9910   22.4514 H   0  0  0  0  0  0
  -31.8009  -21.2285   22.8358 H   0  0  0  0  0  0
  -31.9373  -22.9858   22.8250 H   0  0  0  0  0  0
  -32.3751  -22.9336   20.3499 H   0  0  0  0  0  0
  -32.2686  -21.2043   20.3388 H   0  0  0  0  0  0
  -28.3289  -25.3190   21.9249 H   0  0  0  0  0  0
  -26.9236  -24.9916   21.0022 H   0  0  0  0  0  0
  -31.1092  -19.6668   20.6920 H   0  0  0  0  0  0
  1 25  1  0  0  0
  1 30  2  0  0  0
  1 84  1  0  0  0
  2  3  1  0  0  0
  2 25  1  0  0  0
  2 86  1  0  0  0
  2 87  1  0  0  0
  3  4  1  0  0  0
  3 88  1  0  0  0
  3 89  1  0  0  0
  4  5  1  0  0  0
  4 90  1  0  0  0
  4 91  1  0  0  0
  5  6  1  0  0  0
  5 26  1  0  0  0
  5 92  1  0  0  0
  6 25  1  0  0  0
  6 93  1  0  0  0
  6 94  1  0  0  0
  7  8  2  0  0  0
  7 26  1  0  0  0
  7 29  1  0  0  0
  8  9  1  0  0  0
  8 22  1  0  0  0
  9 10  1  0  0  0
  9 27  2  0  0  0
 10 11  2  0  0  0
 10 15  1  0  0  0
 11 12  1  0  0  0
 11 95  1  0  0  0
 12 13  2  0  0  0
 12 96  1  0  0  0
 13 14  1  0  0  0
 13 31  1  0  0  0
 14 15  2  0  0  0
 14 97  1  0  0  0
 15 98  1  0  0  0
 16 17  2  0  0  0
 16 21  1  0  0  0
 16 31  1  0  0  0
 17 18  1  0  0  0
 17 99  1  0  0  0
 18 19  2  0  0  0
 18100  1  0  0  0
 19 20  1  0  0  0
 19 24  1  0  0  0
 20 21  2  0  0  0
 20101  1  0  0  0
 21 23  1  0  0  0
 22 28  1  0  0  0
 22 32  2  0  0  0
 26 27  1  0  0  0
 28102  1  0  0  0
 28103  1  0  0  0
 29104  1  0  0  0
 29105  1  0  0  0
 33 34  1  0  0  0
 33 66  1  0  0  0
 33 70  2  0  0  0
 34 36  1  0  0  0
 34 59  1  0  0  0
 34106  1  0  0  0
 35 44  2  0  0  0
 35 45  1  0  0  0
 35 68  1  0  0  0
 36 56  1  0  0  0
 36107  1  0  0  0
 37 39  1  0  0  0
 37 47  1  0  0  0
 37 66  1  0  0  0
 37108  1  0  0  0
 38 43  2  0  0  0
 38 46  1  0  0  0
 38 47  1  0  0  0
 39 64  1  0  0  0
 39 67  2  0  0  0
 40 52  1  0  0  0
 40 53  2  0  0  0
 40 58  1  0  0  0
 41109  1  0  0  0
 41110  1  0  0  0
 41111  1  0  0  0
 41 48  1  0  0  0
 42 43  1  0  0  0
 42 66  1  0  0  0
 42112  1  0  0  0
 42113  1  0  0  0
 43 44  1  0  0  0
 44114  1  0  0  0
 45 46  2  0  0  0
 45115  1  0  0  0
 46116  1  0  0  0
 47117  1  0  0  0
 47118  1  0  0  0
 48 56  1  0  0  0
 48 65  1  0  0  0
 48119  1  0  0  0
 49 50  1  0  0  0
 49 53  1  0  0  0
 49 64  1  0  0  0
 49120  1  0  0  0
 50 51  1  0  0  0
 50121  1  0  0  0
 50122  1  0  0  0
 51 52  1  0  0  0
 51123  1  0  0  0
 51124  1  0  0  0
 52125  1  0  0  0
 52126  1  0  0  0
 53 54  1  0  0  0
 54 55  2  0  0  0
 54127  1  0  0  0
 55 57  1  0  0  0
 55128  1  0  0  0
 56 69  2  0  0  0
 57 58  2  0  0  0
 57129  1  0  0  0
 58130  1  0  0  0
 59 60  1  0  0  0
 59 61  1  0  0  0
 59 62  1  0  0  0
 60131  1  0  0  0
 60132  1  0  0  0
 60133  1  0  0  0
 61134  1  0  0  0
 61135  1  0  0  0
 61136  1  0  0  0
 62137  1  0  0  0
 62138  1  0  0  0
 62139  1  0  0  0
 63 65  1  0  0  0
 63140  1  0  0  0
 63141  1  0  0  0
 63142  1  0  0  0
 64143  1  0  0  0
 65144  1  0  0  0
 68 81  1  0  0  0
 71 72  2  0  0  0
 71 82  1  0  0  0
 71145  1  0  0  0
 72 73  1  0  0  0
 72 85  1  0  0  0
 73 80  1  0  0  0
 73 83  2  0  0  0
 74 81  1  0  0  0
 74 82  2  0  0  0
 74 83  1  0  0  0
 75 76  1  0  0  0
 75 78  1  0  0  0
 75146  1  0  0  0
 75147  1  0  0  0
 76 84  1  0  0  0
 76148  1  0  0  0
 76149  1  0  0  0
 77 78  1  0  0  0
 77 84  1  0  0  0
 77150  1  0  0  0
 77151  1  0  0  0
 78 85  1  0  0  0
 78152  1  0  0  0
 79 80  1  0  0  0
 79153  1  0  0  0
 79154  1  0  0  0
 79155  1  0  0  0
 80156  1  0  0  0
 80157  1  0  0  0
 81158  1  0  0  0
 81159  1  0  0  0
 85160  1  0  0  0
M  ISO  4   1 100  68 101  81 101  84 100
M  END
> <chiral flag>
0

> <version>
0

> <s_m_source_file>
/data/baiqing/PycharmProjects/Reinvent-master-3.2/result/LINK_invent/BTK/process_docking_weight1_custom_sum_contain_oxygen_bond_distance_aromatic_linkinvent_7_9_3/rearranged_h_0185.sdf

> <i_m_source_file_index>
13

> <r_mmod_Potential_Energy-OPLS-2005>
-8.0215425491333

> <r_mmod_Stretch_Energy-OPLS-2005>
88.8995132446289

> <r_mmod_Bend_Energy-OPLS-2005>
199.442642211914

> <r_mmod_Torsional_Energy-OPLS-2005>
318.712554931641

> <r_mmod_Improper_Torsional_Energy-OPLS-2005>
14.4660406112671

> <r_mmod_Van_der_Waal_Energy-OPLS-2005>
142.643661499023

> <r_mmod_Electrostatic_Energy-OPLS-2005>
-611.010437011719

> <r_mmod_Solvation_Energy-OPLS-2005>
-224.111663818359

> <b_mmod_Minimization_Converged-OPLS-2005>
0

> <r_mmod_RMS_Derivative-OPLS-2005>
0.481093227863312

$$$$
13
                    3D
 Structure written by MMmdl.
173183  0  0  1  0            999 V2000
  -30.7242  -14.4920   20.5949 C   0  0  0  0  0  0
  -30.4228  -12.3173   19.4562 C   0  0  0  0  0  0
  -29.5075  -12.4717   18.2207 C   0  0  0  0  0  0
  -28.0193  -12.3527   18.6105 C   0  0  0  0  0  0
  -27.6533  -13.2054   19.8533 C   0  0  2  0  0  0
  -28.6873  -13.0149   20.9839 C   0  0  0  0  0  0
  -25.2567  -13.8144   20.5601 C   0  0  0  0  0  0
  -24.1803  -13.0467   20.9149 C   0  0  0  0  0  0
  -24.6314  -11.6920   20.8668 C   0  0  0  0  0  0
  -23.8983  -10.4296   21.0376 C   0  0  0  0  0  0
  -24.3558   -9.4236   21.9156 C   0  0  0  0  0  0
  -23.6257   -8.2251   22.0731 C   0  0  0  0  0  0
  -22.4241   -8.0271   21.3559 C   0  0  0  0  0  0
  -21.9851   -9.0238   20.4670 C   0  0  0  0  0  0
  -22.7145  -10.2121   20.3055 C   0  0  0  0  0  0
  -21.6862   -6.0702   22.5262 C   0  0  0  0  0  0
  -21.4030   -6.5602   23.8199 C   0  0  0  0  0  0
  -21.3645   -5.6763   24.9158 C   0  0  0  0  0  0
  -21.6052   -4.3029   24.7209 C   0  0  0  0  0  0
  -21.8824   -3.8110   23.4337 C   0  0  0  0  0  0
  -21.9203   -4.6928   22.3383 C   0  0  0  0  0  0
  -22.7853  -13.5339   21.1842 C   0  0  0  0  0  0
  -22.1678   -4.2108   21.0961 F   0  0  0  0  0  0
  -21.5612   -3.4514   25.7729 F   0  0  0  0  0  0
  -30.0177  -13.3303   20.4455 N   0  0  0  0  0  0
  -26.2944  -12.9305   20.3208 N   0  0  0  0  0  0
  -25.9234  -11.6470   20.5659 N   0  0  0  0  0  0
  -22.0455  -12.8379   22.0417 N   0  0  0  0  0  0
  -25.4392  -15.1859   20.3963 N   0  0  0  0  0  0
  -31.8676  -14.6068   20.1453 O   0  0  0  0  0  0
  -21.6656   -6.8844   21.4231 O   0  0  0  0  0  0
  -22.3564  -14.5652   20.6693 O   0  0  0  0  0  0
  -24.6173  -31.8698   23.2182 C   0  0  0  0  0  0
  -25.9088  -32.4826   23.8421 C   0  0  1  0  0  0
  -27.1984  -27.4089   20.0565 C   0  0  0  0  0  0
  -25.5953  -33.8633   24.2326 N   0  0  0  0  0  0
  -23.4001  -30.5044   21.5618 C   0  0  2  0  0  0
  -24.8323  -28.9770   20.1137 C   0  0  0  0  0  0
  -22.7415  -29.4680   22.4999 C   0  0  0  0  0  0
  -18.0275  -28.1402   22.8467 C   0  0  0  0  0  0
  -24.1480  -36.7311   23.2629 C   0  0  0  0  0  0
  -25.9382  -30.8162   21.3840 C   0  0  0  0  0  0
  -26.0000  -29.4539   20.7208 C   0  0  0  0  0  0
  -27.1803  -28.6705   20.7065 C   0  0  0  0  0  0
  -26.0127  -26.9810   19.4166 C   0  0  0  0  0  0
  -24.8319  -27.7347   19.4677 C   0  0  0  0  0  0
  -23.6059  -29.8586   20.1695 C   0  0  0  0  0  0
  -25.4103  -36.3095   24.0321 C   0  0  1  0  0  0
  -20.5863  -28.3680   23.1326 C   0  0  2  0  0  0
  -20.6767  -26.9413   22.5455 C   0  0  0  0  0  0
  -19.5768  -26.6397   21.5225 C   0  0  0  0  0  0
  -18.1922  -26.7958   22.1586 C   0  0  0  0  0  0
  -19.1522  -28.8849   23.2890 C   0  0  0  0  0  0
  -18.9456  -30.1452   23.8906 C   0  0  0  0  0  0
  -17.6459  -30.6592   24.0575 C   0  0  0  0  0  0
  -25.9051  -34.9478   23.5099 C   0  0  0  0  0  0
  -16.5347  -29.9094   23.6344 C   0  0  0  0  0  0
  -16.7260  -28.6528   23.0323 C   0  0  0  0  0  0
  -26.4484  -31.6634   25.0784 C   0  0  0  0  0  0
  -25.3746  -31.3836   26.1547 C   0  0  0  0  0  0
  -27.0283  -30.3030   24.6246 C   0  0  0  0  0  0
  -27.6056  -32.4362   25.7534 C   0  0  0  0  0  0
  -27.5594  -37.1788   24.8425 C   0  0  0  0  0  0
  -21.4140  -29.3026   22.3727 N   0  0  0  0  0  0
  -26.4256  -37.3815   23.9432 N   0  0  0  0  0  0
  -24.6709  -31.0771   22.1115 N   0  0  0  0  0  0
  -23.4180  -28.8198   23.3031 O   0  0  0  0  0  0
  -28.3471  -26.6359   20.0769 O   0  0  0  0  0  0
  -26.5605  -34.8921   22.4650 O   0  0  0  0  0  0
  -23.5367  -32.1477   23.7567 O   0  0  0  0  0  0
  -30.0808  -23.6010   21.9873 C   0  0  0  0  0  0
  -30.3262  -22.9980   23.2219 C   0  0  0  0  0  0
  -30.0407  -22.7649   20.8562 C   0  0  0  0  0  0
  -30.3978  -20.9535   22.2336 C   0  0  0  0  0  0
  -27.5703  -24.2026   19.6252 C   0  0  0  0  0  0
  -28.3558  -23.0428   19.0054 C   0  0  0  0  0  0
  -29.7745  -17.3229   22.7509 C   0  0  0  0  0  0
  -30.8526  -17.9623   20.6032 C   0  0  0  0  0  0
  -29.8677  -24.8754   19.3083 C   0  0  0  0  0  0
  -29.3397  -15.9618   22.1243 C   0  0  0  0  0  0
  -30.1394  -16.7762   19.9341 C   0  0  0  0  0  0
  -29.9941  -18.4878   21.7566 C   0  0  0  0  0  0
  -28.4303  -25.4362   19.2695 C   0  0  2  0  0  0
  -29.8133  -23.3078   19.4157 C   0  0  1  0  0  0
  -30.5283  -21.3812   17.7428 C   0  0  0  0  0  0
  -30.8789  -22.7078   18.4419 C   0  0  0  0  0  0
  -30.5096  -21.6701   23.3346 N   0  0  0  0  0  0
  -30.1562  -21.4197   21.0135 N   0  0  0  0  0  0
  -30.0028  -15.6232   20.8453 N   0  0  0  0  0  0
  -30.6322  -19.6117   22.4418 N   0  0  0  0  0  0
  -31.4728  -12.4097   19.1674 H   0  0  0  0  0  0
  -30.3256  -11.3219   19.8931 H   0  0  0  0  0  0
  -29.7588  -11.7143   17.4787 H   0  0  0  0  0  0
  -29.6845  -13.4384   17.7431 H   0  0  0  0  0  0
  -27.8099  -11.3035   18.8144 H   0  0  0  0  0  0
  -27.3881  -12.6276   17.7632 H   0  0  0  0  0  0
  -27.6885  -14.2460   19.5276 H   0  0  0  0  0  0
  -28.6672  -11.9862   21.3435 H   0  0  0  0  0  0
  -28.4179  -13.6076   21.8516 H   0  0  0  0  0  0
  -25.2675   -9.5772   22.4745 H   0  0  0  0  0  0
  -23.9991   -7.4664   22.7452 H   0  0  0  0  0  0
  -21.0760   -8.8745   19.9008 H   0  0  0  0  0  0
  -22.3544  -10.9666   19.6189 H   0  0  0  0  0  0
  -21.2038   -7.6118   23.9694 H   0  0  0  0  0  0
  -21.1471   -6.0489   25.9075 H   0  0  0  0  0  0
  -22.0626   -2.7576   23.2835 H   0  0  0  0  0  0
  -22.4033  -12.0084   22.4882 H   0  0  0  0  0  0
  -21.1109  -13.1537   22.2590 H   0  0  0  0  0  0
  -24.6849  -15.8569   20.4898 H   0  0  0  0  0  0
  -26.2988  -15.6042   20.0633 H   0  0  0  0  0  0
  -26.7151  -32.5489   23.1164 H   0  0  0  0  0  0
  -25.0133  -33.9802   25.0483 H   0  0  0  0  0  0
  -22.6882  -31.3242   21.4389 H   0  0  0  0  0  0
  -23.3755  -35.9624   23.3242 H   0  0  0  0  0  0
  -24.3578  -36.8996   22.2055 H   0  0  0  0  0  0
  -23.7215  -37.6483   23.6695 H   0  0  0  0  0  0
  -26.0700  -31.5867   20.6230 H   0  0  0  0  0  0
  -26.8192  -30.8493   22.0133 H   0  0  0  0  0  0
  -28.0769  -29.0280   21.1916 H   0  0  0  0  0  0
  -25.9547  -26.0768   18.8428 H   0  0  0  0  0  0
  -23.9373  -27.3678   18.9822 H   0  0  0  0  0  0
  -23.7350  -30.6489   19.4290 H   0  0  0  0  0  0
  -22.7190  -29.3056   19.8563 H   0  0  0  0  0  0
  -25.1266  -36.1928   25.0811 H   0  0  0  0  0  0
  -20.9938  -28.3267   24.1451 H   0  0  0  0  0  0
  -20.5672  -26.2287   23.3639 H   0  0  0  0  0  0
  -21.6647  -26.7465   22.1265 H   0  0  0  0  0  0
  -19.6940  -25.6309   21.1246 H   0  0  0  0  0  0
  -19.6752  -27.3210   20.6762 H   0  0  0  0  0  0
  -17.4235  -26.6741   21.3942 H   0  0  0  0  0  0
  -18.0263  -26.0094   22.8960 H   0  0  0  0  0  0
  -19.7929  -30.7258   24.2283 H   0  0  0  0  0  0
  -17.5020  -31.6270   24.5191 H   0  0  0  0  0  0
  -15.5345  -30.2989   23.7702 H   0  0  0  0  0  0
  -15.8658  -28.0875   22.6996 H   0  0  0  0  0  0
  -24.5904  -30.7158   25.7967 H   0  0  0  0  0  0
  -24.8952  -32.3040   26.4903 H   0  0  0  0  0  0
  -25.8107  -30.9119   27.0368 H   0  0  0  0  0  0
  -26.2844  -29.6833   24.1222 H   0  0  0  0  0  0
  -27.3885  -29.7251   25.4776 H   0  0  0  0  0  0
  -27.8773  -30.4269   23.9513 H   0  0  0  0  0  0
  -27.2661  -33.3667   26.2097 H   0  0  0  0  0  0
  -28.3872  -32.6926   25.0376 H   0  0  0  0  0  0
  -28.0709  -31.8508   26.5474 H   0  0  0  0  0  0
  -28.2533  -38.0161   24.7568 H   0  0  0  0  0  0
  -28.1150  -36.2700   24.6071 H   0  0  0  0  0  0
  -27.2349  -37.1245   25.8829 H   0  0  0  0  0  0
  -20.9300  -29.8757   21.6961 H   0  0  0  0  0  0
  -26.0123  -38.2852   24.1539 H   0  0  0  0  0  0
  -29.9236  -24.6693   21.9508 H   0  0  0  0  0  0
  -30.3869  -23.5821   24.1277 H   0  0  0  0  0  0
  -27.4926  -24.0773   20.7059 H   0  0  0  0  0  0
  -26.5592  -24.1986   19.2228 H   0  0  0  0  0  0
  -28.2582  -23.1078   17.9195 H   0  0  0  0  0  0
  -27.9923  -22.0578   19.2991 H   0  0  0  0  0  0
  -30.7039  -17.1522   23.2972 H   0  0  0  0  0  0
  -29.0472  -17.6191   23.5074 H   0  0  0  0  0  0
  -31.0275  -18.7508   19.8717 H   0  0  0  0  0  0
  -31.8342  -17.6550   20.9693 H   0  0  0  0  0  0
  -30.4979  -25.3415   20.0613 H   0  0  0  0  0  0
  -30.3183  -25.1949   18.3693 H   0  0  0  0  0  0
  -28.2597  -15.9567   21.9678 H   0  0  0  0  0  0
  -29.5511  -15.1865   22.8660 H   0  0  0  0  0  0
  -30.6747  -16.5131   19.0190 H   0  0  0  0  0  0
  -29.1410  -17.0759   19.6157 H   0  0  0  0  0  0
  -29.0357  -18.8265   21.3557 H   0  0  0  0  0  0
  -28.2100  -25.7081   18.2336 H   0  0  0  0  0  0
  -31.3718  -21.0395   17.1383 H   0  0  0  0  0  0
  -29.6817  -21.5005   17.0668 H   0  0  0  0  0  0
  -30.2812  -20.5910   18.4504 H   0  0  0  0  0  0
  -31.8284  -22.6112   18.9701 H   0  0  0  0  0  0
  -31.0823  -23.3982   17.6250 H   0  0  0  0  0  0
  -30.8905  -19.4188   23.3999 H   0  0  0  0  0  0
  1 25  1  0  0  0
  1 30  2  0  0  0
  1 89  1  0  0  0
  2  3  1  0  0  0
  2 25  1  0  0  0
  2 91  1  0  0  0
  2 92  1  0  0  0
  3  4  1  0  0  0
  3 93  1  0  0  0
  3 94  1  0  0  0
  4  5  1  0  0  0
  4 95  1  0  0  0
  4 96  1  0  0  0
  5  6  1  0  0  0
  5 26  1  0  0  0
  5 97  1  0  0  0
  6 25  1  0  0  0
  6 98  1  0  0  0
  6 99  1  0  0  0
  7  8  2  0  0  0
  7 26  1  0  0  0
  7 29  1  0  0  0
  8  9  1  0  0  0
  8 22  1  0  0  0
  9 10  1  0  0  0
  9 27  2  0  0  0
 10 11  2  0  0  0
 10 15  1  0  0  0
 11 12  1  0  0  0
 11100  1  0  0  0
 12 13  2  0  0  0
 12101  1  0  0  0
 13 14  1  0  0  0
 13 31  1  0  0  0
 14 15  2  0  0  0
 14102  1  0  0  0
 15103  1  0  0  0
 16 17  2  0  0  0
 16 21  1  0  0  0
 16 31  1  0  0  0
 17 18  1  0  0  0
 17104  1  0  0  0
 18 19  2  0  0  0
 18105  1  0  0  0
 19 20  1  0  0  0
 19 24  1  0  0  0
 20 21  2  0  0  0
 20106  1  0  0  0
 21 23  1  0  0  0
 22 28  1  0  0  0
 22 32  2  0  0  0
 26 27  1  0  0  0
 28107  1  0  0  0
 28108  1  0  0  0
 29109  1  0  0  0
 29110  1  0  0  0
 33 34  1  0  0  0
 33 66  1  0  0  0
 33 70  2  0  0  0
 34 36  1  0  0  0
 34 59  1  0  0  0
 34111  1  0  0  0
 35 44  2  0  0  0
 35 45  1  0  0  0
 35 68  1  0  0  0
 36 56  1  0  0  0
 36112  1  0  0  0
 37 39  1  0  0  0
 37 47  1  0  0  0
 37 66  1  0  0  0
 37113  1  0  0  0
 38 43  2  0  0  0
 38 46  1  0  0  0
 38 47  1  0  0  0
 39 64  1  0  0  0
 39 67  2  0  0  0
 40 52  1  0  0  0
 40 53  2  0  0  0
 40 58  1  0  0  0
 41114  1  0  0  0
 41115  1  0  0  0
 41116  1  0  0  0
 41 48  1  0  0  0
 42 43  1  0  0  0
 42 66  1  0  0  0
 42117  1  0  0  0
 42118  1  0  0  0
 43 44  1  0  0  0
 44119  1  0  0  0
 45 46  2  0  0  0
 45120  1  0  0  0
 46121  1  0  0  0
 47122  1  0  0  0
 47123  1  0  0  0
 48 56  1  0  0  0
 48 65  1  0  0  0
 48124  1  0  0  0
 49 50  1  0  0  0
 49 53  1  0  0  0
 49 64  1  0  0  0
 49125  1  0  0  0
 50 51  1  0  0  0
 50126  1  0  0  0
 50127  1  0  0  0
 51 52  1  0  0  0
 51128  1  0  0  0
 51129  1  0  0  0
 52130  1  0  0  0
 52131  1  0  0  0
 53 54  1  0  0  0
 54 55  2  0  0  0
 54132  1  0  0  0
 55 57  1  0  0  0
 55133  1  0  0  0
 56 69  2  0  0  0
 57 58  2  0  0  0
 57134  1  0  0  0
 58135  1  0  0  0
 59 60  1  0  0  0
 59 61  1  0  0  0
 59 62  1  0  0  0
 60136  1  0  0  0
 60137  1  0  0  0
 60138  1  0  0  0
 61139  1  0  0  0
 61140  1  0  0  0
 61141  1  0  0  0
 62142  1  0  0  0
 62143  1  0  0  0
 62144  1  0  0  0
 63 65  1  0  0  0
 63145  1  0  0  0
 63146  1  0  0  0
 63147  1  0  0  0
 64148  1  0  0  0
 65149  1  0  0  0
 68 83  1  0  0  0
 71 72  2  0  0  0
 71 73  1  0  0  0
 71150  1  0  0  0
 72 87  1  0  0  0
 72151  1  0  0  0
 73 84  1  0  0  0
 73 88  2  0  0  0
 74 87  2  0  0  0
 74 88  1  0  0  0
 74 90  1  0  0  0
 75 76  1  0  0  0
 75 83  1  0  0  0
 75152  1  0  0  0
 75153  1  0  0  0
 76 84  1  0  0  0
 76154  1  0  0  0
 76155  1  0  0  0
 77 80  1  0  0  0
 77 82  1  0  0  0
 77156  1  0  0  0
 77157  1  0  0  0
 78 81  1  0  0  0
 78 82  1  0  0  0
 78158  1  0  0  0
 78159  1  0  0  0
 79 83  1  0  0  0
 79 84  1  0  0  0
 79160  1  0  0  0
 79161  1  0  0  0
 80 89  1  0  0  0
 80162  1  0  0  0
 80163  1  0  0  0
 81 89  1  0  0  0
 81164  1  0  0  0
 81165  1  0  0  0
 82 90  1  0  0  0
 82166  1  0  0  0
 83167  1  0  0  0
 84 86  1  0  0  0
 85 86  1  0  0  0
 85168  1  0  0  0
 85169  1  0  0  0
 85170  1  0  0  0
 86171  1  0  0  0
 86172  1  0  0  0
 90173  1  0  0  0
M  ISO  4   1 100  68 101  83 101  89 100
M  END
> <chiral flag>
0

> <version>
0

> <s_m_source_file>
/data/baiqing/PycharmProjects/Reinvent-master-3.2/result/LINK_invent/BTK/process_docking_weight1_custom_sum_contain_oxygen_bond_distance_aromatic_linkinvent_7_9_3/rearranged_h_0185.sdf

> <i_m_source_file_index>
14

> <r_mmod_Potential_Energy-OPLS-2005>
-270.373748779297

> <r_mmod_Stretch_Energy-OPLS-2005>
47.0650253295898

> <r_mmod_Bend_Energy-OPLS-2005>
173.478439331055

> <r_mmod_Torsional_Energy-OPLS-2005>
357.603271484375

> <r_mmod_Improper_Torsional_Energy-OPLS-2005>
15.425256729126

> <r_mmod_Van_der_Waal_Energy-OPLS-2005>
178.310440063477

> <r_mmod_Electrostatic_Energy-OPLS-2005>
-844.430358886719

> <r_mmod_Solvation_Energy-OPLS-2005>
-220.079208374023

> <b_mmod_Minimization_Converged-OPLS-2005>
0

> <r_mmod_RMS_Derivative-OPLS-2005>
5.1179027557373

$$$$
14
                    3D
 Structure written by MMmdl.
153161  0  0  1  0            999 V2000
  -30.5204  -15.1125   20.3863 C   0  0  0  0  0  0
  -30.4276  -12.7026   19.5145 C   0  0  0  0  0  0
  -29.5222  -12.5423   18.2714 C   0  0  0  0  0  0
  -28.0665  -12.2929   18.7012 C   0  0  0  0  0  0
  -27.6127  -13.2639   19.8217 C   0  0  2  0  0  0
  -28.6492  -13.3998   20.9555 C   0  0  0  0  0  0
  -25.2403  -13.8243   20.5759 C   0  0  0  0  0  0
  -24.1734  -13.0443   20.9246 C   0  0  0  0  0  0
  -24.6377  -11.6935   20.8762 C   0  0  0  0  0  0
  -23.9082  -10.4296   21.0411 C   0  0  0  0  0  0
  -24.3634   -9.4208   21.9184 C   0  0  0  0  0  0
  -23.6310   -8.2242   22.0758 C   0  0  0  0  0  0
  -22.4286   -8.0287   21.3551 C   0  0  0  0  0  0
  -21.9923   -9.0264   20.4656 C   0  0  0  0  0  0
  -22.7254  -10.2138   20.3064 C   0  0  0  0  0  0
  -21.6852   -6.0745   22.5282 C   0  0  0  0  0  0
  -21.4021   -6.5646   23.8218 C   0  0  0  0  0  0
  -21.3663   -5.6797   24.9179 C   0  0  0  0  0  0
  -21.6040   -4.3057   24.7224 C   0  0  0  0  0  0
  -21.8816   -3.8155   23.4342 C   0  0  0  0  0  0
  -21.9188   -4.6974   22.3403 C   0  0  0  0  0  0
  -22.7753  -13.5205   21.1888 C   0  0  0  0  0  0
  -22.1652   -4.2162   21.0976 F   0  0  0  0  0  0
  -21.5628   -3.4541   25.7738 F   0  0  0  0  0  0
  -29.8995  -13.8477   20.3296 N   0  0  0  0  0  0
  -26.2814  -12.9494   20.3220 N   0  0  0  0  0  0
  -25.9309  -11.6610   20.5721 N   0  0  0  0  0  0
  -22.0400  -12.8201   22.0442 N   0  0  0  0  0  0
  -25.4076  -15.1980   20.4241 N   0  0  0  0  0  0
  -31.7430  -15.0798   20.1938 O   0  0  0  0  0  0
  -21.6642   -6.8891   21.4244 O   0  0  0  0  0  0
  -22.3438  -14.5505   20.6725 O   0  0  0  0  0  0
  -24.6551  -31.8332   23.1788 C   0  0  0  0  0  0
  -25.9278  -32.4632   23.8224 C   0  0  1  0  0  0
  -27.2137  -27.0193   20.1652 C   0  0  0  0  0  0
  -25.5975  -33.8443   24.2131 N   0  0  0  0  0  0
  -23.4641  -30.4501   21.5269 C   0  0  2  0  0  0
  -24.9137  -28.8538   20.1129 C   0  0  0  0  0  0
  -22.7632  -29.4496   22.4816 C   0  0  0  0  0  0
  -18.0324  -28.1396   22.8473 C   0  0  0  0  0  0
  -24.1492  -36.7223   23.2645 C   0  0  0  0  0  0
  -26.0292  -30.6686   21.3959 C   0  0  0  0  0  0
  -26.0970  -29.2688   20.7363 C   0  0  0  0  0  0
  -27.2461  -28.3713   20.7390 C   0  0  0  0  0  0
  -26.0005  -26.7327   19.5019 C   0  0  0  0  0  0
  -24.8846  -27.6028   19.4786 C   0  0  0  0  0  0
  -23.6975  -29.7732   20.1496 C   0  0  0  0  0  0
  -25.4127  -36.2991   24.0306 C   0  0  1  0  0  0
  -20.5942  -28.3739   23.1202 C   0  0  2  0  0  0
  -20.6797  -26.9426   22.5402 C   0  0  0  0  0  0
  -19.5766  -26.6368   21.5217 C   0  0  0  0  0  0
  -18.1949  -26.7930   22.1627 C   0  0  0  0  0  0
  -19.1581  -28.8887   23.2826 C   0  0  0  0  0  0
  -18.9492  -30.1482   23.8852 C   0  0  0  0  0  0
  -17.6483  -30.6587   24.0557 C   0  0  0  0  0  0
  -25.9087  -34.9372   23.5036 C   0  0  0  0  0  0
  -16.5376  -29.9074   23.6337 C   0  0  0  0  0  0
  -16.7307  -28.6497   23.0353 C   0  0  0  0  0  0
  -26.4553  -31.6546   25.0718 C   0  0  0  0  0  0
  -25.3703  -31.3779   26.1392 C   0  0  0  0  0  0
  -27.0449  -30.2922   24.6407 C   0  0  0  0  0  0
  -27.6051  -32.4353   25.7516 C   0  0  0  0  0  0
  -27.5572  -37.1760   24.8463 C   0  0  0  0  0  0
  -21.4314  -29.3048   22.3563 N   0  0  0  0  0  0
  -26.4277  -37.3717   23.9411 N   0  0  0  0  0  0
  -24.7367  -31.0085   22.0876 N   0  0  0  0  0  0
  -23.4223  -28.8051   23.3014 O   0  0  0  0  0  0
  -28.2348  -25.9620   20.2293 O   0  0  0  0  0  0
  -26.5689  -34.8898   22.4626 O   0  0  0  0  0  0
  -23.5642  -32.1267   23.6937 O   0  0  0  0  0  0
  -29.2571  -17.1752   19.3282 C   0  0  0  0  0  0
  -30.4668  -17.6014   21.2431 C   0  0  0  0  0  0
  -28.5624  -18.6720   19.4568 C   0  0  0  0  0  0
  -29.7580  -19.0943   21.3955 C   0  0  0  0  0  0
  -28.9225  -22.9323   20.2728 C   0  0  0  0  0  0
  -28.4212  -21.2519   20.2680 C   0  0  0  0  0  0
  -27.9359  -24.3808   20.1233 C   0  0  0  0  0  0
  -29.8430  -16.4096   20.5053 N   0  0  0  0  0  0
  -29.2649  -19.8423   20.1587 N   0  3  0  0  0  0
  -31.4579  -12.8644   19.1936 H   0  0  0  0  0  0
  -30.4445  -11.7854   20.1060 H   0  0  0  0  0  0
  -29.8774  -11.7219   17.6452 H   0  0  0  0  0  0
  -29.5757  -13.4422   17.6573 H   0  0  0  0  0  0
  -28.0079  -11.2665   19.0656 H   0  0  0  0  0  0
  -27.3955  -12.3517   17.8431 H   0  0  0  0  0  0
  -27.5426  -14.2397   19.3401 H   0  0  0  0  0  0
  -28.7781  -12.4601   21.4952 H   0  0  0  0  0  0
  -28.3153  -14.1382   21.6864 H   0  0  0  0  0  0
  -25.2778   -9.5690   22.4765 H   0  0  0  0  0  0
  -24.0017   -7.4638   22.7483 H   0  0  0  0  0  0
  -21.0844   -8.8795   19.8978 H   0  0  0  0  0  0
  -22.3703  -10.9688   19.6186 H   0  0  0  0  0  0
  -21.2021   -7.6159   23.9731 H   0  0  0  0  0  0
  -21.1485   -6.0523   25.9084 H   0  0  0  0  0  0
  -22.0588   -2.7619   23.2834 H   0  0  0  0  0  0
  -22.4023  -11.9891   22.4873 H   0  0  0  0  0  0
  -21.1033  -13.1261   22.2664 H   0  0  0  0  0  0
  -24.6433  -15.8519   20.5592 H   0  0  0  0  0  0
  -26.2681  -15.6455   20.1384 H   0  0  0  0  0  0
  -26.7346  -32.5193   23.0946 H   0  0  0  0  0  0
  -25.0079  -33.9535   25.0253 H   0  0  0  0  0  0
  -22.7719  -31.2789   21.3643 H   0  0  0  0  0  0
  -23.3762  -35.9544   23.3282 H   0  0  0  0  0  0
  -24.3573  -36.8894   22.2065 H   0  0  0  0  0  0
  -23.7245  -37.6404   23.6714 H   0  0  0  0  0  0
  -26.2046  -31.4169   20.6218 H   0  0  0  0  0  0
  -26.8914  -30.7166   22.0496 H   0  0  0  0  0  0
  -28.1445  -28.6875   21.2504 H   0  0  0  0  0  0
  -25.8766  -25.7780   19.0145 H   0  0  0  0  0  0
  -23.9827  -27.2771   18.9798 H   0  0  0  0  0  0
  -23.8494  -30.5455   19.3945 H   0  0  0  0  0  0
  -22.8080  -29.2264   19.8320 H   0  0  0  0  0  0
  -25.1317  -36.1796   25.0794 H   0  0  0  0  0  0
  -21.0040  -28.3343   24.1324 H   0  0  0  0  0  0
  -20.5679  -26.2359   23.3641 H   0  0  0  0  0  0
  -21.6659  -26.7403   22.1208 H   0  0  0  0  0  0
  -19.6918  -25.6268   21.1268 H   0  0  0  0  0  0
  -19.6691  -27.3162   20.6734 H   0  0  0  0  0  0
  -17.4217  -26.6689   21.4029 H   0  0  0  0  0  0
  -18.0337  -26.0079   22.9031 H   0  0  0  0  0  0
  -19.7965  -30.7317   24.2190 H   0  0  0  0  0  0
  -17.5031  -31.6258   24.5177 H   0  0  0  0  0  0
  -15.5372  -30.2957   23.7676 H   0  0  0  0  0  0
  -15.8714  -28.0799   22.7079 H   0  0  0  0  0  0
  -24.5860  -30.7161   25.7700 H   0  0  0  0  0  0
  -24.8920  -32.2982   26.4754 H   0  0  0  0  0  0
  -25.7945  -30.8970   27.0216 H   0  0  0  0  0  0
  -26.3109  -29.6597   24.1396 H   0  0  0  0  0  0
  -27.3994  -29.7279   25.5045 H   0  0  0  0  0  0
  -27.9046  -30.4123   23.9811 H   0  0  0  0  0  0
  -27.2604  -33.3668   26.2021 H   0  0  0  0  0  0
  -28.3893  -32.6900   25.0372 H   0  0  0  0  0  0
  -28.0693  -31.8538   26.5494 H   0  0  0  0  0  0
  -28.2566  -38.0078   24.7515 H   0  0  0  0  0  0
  -28.1091  -36.2604   24.6276 H   0  0  0  0  0  0
  -27.2292  -37.1392   25.8867 H   0  0  0  0  0  0
  -20.9550  -29.8753   21.6716 H   0  0  0  0  0  0
  -26.0131  -38.2777   24.1423 H   0  0  0  0  0  0
  -30.0512  -17.2476   18.5835 H   0  0  0  0  0  0
  -28.5185  -16.5152   18.8730 H   0  0  0  0  0  0
  -30.6862  -17.2514   22.2525 H   0  0  0  0  0  0
  -31.4486  -17.7614   20.7954 H   0  0  0  0  0  0
  -27.6036  -18.5359   19.9591 H   0  0  0  0  0  0
  -28.3017  -19.0056   18.4523 H   0  0  0  0  0  0
  -30.4538  -19.7553   21.9137 H   0  0  0  0  0  0
  -28.9105  -18.9920   22.0735 H   0  0  0  0  0  0
  -29.6757  -23.0164   19.4894 H   0  0  0  0  0  0
  -29.4846  -23.0587   21.1975 H   0  0  0  0  0  0
  -27.7595  -21.2012   19.4028 H   0  0  0  0  0  0
  -27.7440  -21.1214   21.1118 H   0  0  0  0  0  0
  -27.1091  -24.2281   20.8173 H   0  0  0  0  0  0
  -27.4828  -24.2714   19.1387 H   0  0  0  0  0  0
  -30.0771  -20.0492   19.5967 H   0  0  0  0  0  0
  1 25  1  0  0  0
  1 30  2  0  0  0
  1 78  1  0  0  0
  2  3  1  0  0  0
  2 25  1  0  0  0
  2 80  1  0  0  0
  2 81  1  0  0  0
  3  4  1  0  0  0
  3 82  1  0  0  0
  3 83  1  0  0  0
  4  5  1  0  0  0
  4 84  1  0  0  0
  4 85  1  0  0  0
  5  6  1  0  0  0
  5 26  1  0  0  0
  5 86  1  0  0  0
  6 25  1  0  0  0
  6 87  1  0  0  0
  6 88  1  0  0  0
  7  8  2  0  0  0
  7 26  1  0  0  0
  7 29  1  0  0  0
  8  9  1  0  0  0
  8 22  1  0  0  0
  9 10  1  0  0  0
  9 27  2  0  0  0
 10 11  2  0  0  0
 10 15  1  0  0  0
 11 12  1  0  0  0
 11 89  1  0  0  0
 12 13  2  0  0  0
 12 90  1  0  0  0
 13 14  1  0  0  0
 13 31  1  0  0  0
 14 15  2  0  0  0
 14 91  1  0  0  0
 15 92  1  0  0  0
 16 17  2  0  0  0
 16 21  1  0  0  0
 16 31  1  0  0  0
 17 18  1  0  0  0
 17 93  1  0  0  0
 18 19  2  0  0  0
 18 94  1  0  0  0
 19 20  1  0  0  0
 19 24  1  0  0  0
 20 21  2  0  0  0
 20 95  1  0  0  0
 21 23  1  0  0  0
 22 28  1  0  0  0
 22 32  2  0  0  0
 26 27  1  0  0  0
 28 96  1  0  0  0
 28 97  1  0  0  0
 29 98  1  0  0  0
 29 99  1  0  0  0
 33 34  1  0  0  0
 33 66  1  0  0  0
 33 70  2  0  0  0
 34 36  1  0  0  0
 34 59  1  0  0  0
 34100  1  0  0  0
 35 44  2  0  0  0
 35 45  1  0  0  0
 35 68  1  0  0  0
 36 56  1  0  0  0
 36101  1  0  0  0
 37 39  1  0  0  0
 37 47  1  0  0  0
 37 66  1  0  0  0
 37102  1  0  0  0
 38 43  2  0  0  0
 38 46  1  0  0  0
 38 47  1  0  0  0
 39 64  1  0  0  0
 39 67  2  0  0  0
 40 52  1  0  0  0
 40 53  2  0  0  0
 40 58  1  0  0  0
 41103  1  0  0  0
 41104  1  0  0  0
 41105  1  0  0  0
 41 48  1  0  0  0
 42 43  1  0  0  0
 42 66  1  0  0  0
 42106  1  0  0  0
 42107  1  0  0  0
 43 44  1  0  0  0
 44108  1  0  0  0
 45 46  2  0  0  0
 45109  1  0  0  0
 46110  1  0  0  0
 47111  1  0  0  0
 47112  1  0  0  0
 48 56  1  0  0  0
 48 65  1  0  0  0
 48113  1  0  0  0
 49 50  1  0  0  0
 49 53  1  0  0  0
 49 64  1  0  0  0
 49114  1  0  0  0
 50 51  1  0  0  0
 50115  1  0  0  0
 50116  1  0  0  0
 51 52  1  0  0  0
 51117  1  0  0  0
 51118  1  0  0  0
 52119  1  0  0  0
 52120  1  0  0  0
 53 54  1  0  0  0
 54 55  2  0  0  0
 54121  1  0  0  0
 55 57  1  0  0  0
 55122  1  0  0  0
 56 69  2  0  0  0
 57 58  2  0  0  0
 57123  1  0  0  0
 58124  1  0  0  0
 59 60  1  0  0  0
 59 61  1  0  0  0
 59 62  1  0  0  0
 60125  1  0  0  0
 60126  1  0  0  0
 60127  1  0  0  0
 61128  1  0  0  0
 61129  1  0  0  0
 61130  1  0  0  0
 62131  1  0  0  0
 62132  1  0  0  0
 62133  1  0  0  0
 63 65  1  0  0  0
 63134  1  0  0  0
 63135  1  0  0  0
 63136  1  0  0  0
 64137  1  0  0  0
 65138  1  0  0  0
 68 77  1  0  0  0
 71 73  1  0  0  0
 71 78  1  0  0  0
 71139  1  0  0  0
 71140  1  0  0  0
 72 74  1  0  0  0
 72 78  1  0  0  0
 72141  1  0  0  0
 72142  1  0  0  0
 73 79  1  0  0  0
 73143  1  0  0  0
 73144  1  0  0  0
 74 79  1  0  0  0
 74145  1  0  0  0
 74146  1  0  0  0
 75 76  1  0  0  0
 75 77  1  0  0  0
 75147  1  0  0  0
 75148  1  0  0  0
 76149  1  0  0  0
 76150  1  0  0  0
 76 79  1  0  0  0
 77151  1  0  0  0
 77152  1  0  0  0
 79153  1  0  0  0
M  CHG  1  79   1
M  ISO  4   1 100  68 101  77 101  78 100
M  END
> <chiral flag>
0

> <version>
0

> <s_m_source_file>
/data/baiqing/PycharmProjects/Reinvent-master-3.2/result/LINK_invent/BTK/process_docking_weight1_custom_sum_contain_oxygen_bond_distance_aromatic_linkinvent_7_9_3/rearranged_h_0185.sdf

> <i_m_source_file_index>
15

> <r_mmod_Potential_Energy-OPLS-2005>
980.024353027344

> <r_mmod_Stretch_Energy-OPLS-2005>
406.484008789062

> <r_mmod_Bend_Energy-OPLS-2005>
399.727111816406

> <r_mmod_Torsional_Energy-OPLS-2005>
382.632385253906

> <r_mmod_Improper_Torsional_Energy-OPLS-2005>
7.66755390167236

> <r_mmod_Van_der_Waal_Energy-OPLS-2005>
115.77515411377

> <r_mmod_Electrostatic_Energy-OPLS-2005>
-195.852340698242

> <r_mmod_Solvation_Energy-OPLS-2005>
-457.321044921875

> <b_mmod_Minimization_Converged-OPLS-2005>
0

> <r_mmod_RMS_Derivative-OPLS-2005>
1.55493271350861

$$$$
15
                    3D
 Structure written by MMmdl.
147155  0  0  1  0            999 V2000
  -30.2678  -15.8568   20.3242 C   0  0  0  0  0  0
  -30.3927  -13.2570   19.5310 C   0  0  0  0  0  0
  -29.5470  -12.7100   18.3414 C   0  0  0  0  0  0
  -28.1440  -12.3042   18.8051 C   0  0  0  0  0  0
  -27.5837  -13.3338   19.8084 C   0  0  2  0  0  0
  -28.5857  -13.7827   20.9057 C   0  0  0  0  0  0
  -25.2276  -13.8332   20.5854 C   0  0  0  0  0  0
  -24.1688  -13.0444   20.9311 C   0  0  0  0  0  0
  -24.6424  -11.6964   20.8770 C   0  0  0  0  0  0
  -23.9134  -10.4298   21.0390 C   0  0  0  0  0  0
  -24.3663   -9.4210   21.9175 C   0  0  0  0  0  0
  -23.6320   -8.2253   22.0752 C   0  0  0  0  0  0
  -22.4300   -8.0292   21.3544 C   0  0  0  0  0  0
  -21.9950   -9.0268   20.4642 C   0  0  0  0  0  0
  -22.7297  -10.2138   20.3045 C   0  0  0  0  0  0
  -21.6862   -6.0743   22.5277 C   0  0  0  0  0  0
  -21.4021   -6.5643   23.8211 C   0  0  0  0  0  0
  -21.3661   -5.6795   24.9172 C   0  0  0  0  0  0
  -21.6044   -4.3057   24.7222 C   0  0  0  0  0  0
  -21.8818   -3.8150   23.4343 C   0  0  0  0  0  0
  -21.9196   -4.6969   22.3400 C   0  0  0  0  0  0
  -22.7694  -13.5152   21.1931 C   0  0  0  0  0  0
  -22.1662   -4.2154   21.0977 F   0  0  0  0  0  0
  -21.5627   -3.4540   25.7734 F   0  0  0  0  0  0
  -29.7137  -14.4750   20.2175 N   0  0  0  0  0  0
  -26.2747  -12.9709   20.3298 N   0  0  0  0  0  0
  -25.9381  -11.6749   20.5709 N   0  0  0  0  0  0
  -22.0367  -12.8120   22.0481 N   0  0  0  0  0  0
  -25.3854  -15.2078   20.4312 N   0  0  0  0  0  0
  -31.5027  -15.6774   20.2012 O   0  0  0  0  0  0
  -21.6654   -6.8893   21.4242 O   0  0  0  0  0  0
  -22.3362  -14.5446   20.6764 O   0  0  0  0  0  0
  -24.6986  -31.7815   23.1379 C   0  0  0  0  0  0
  -25.9492  -32.4374   23.7985 C   0  0  1  0  0  0
  -27.2302  -26.5427   20.2295 C   0  0  0  0  0  0
  -25.6007  -33.8208   24.1856 N   0  0  0  0  0  0
  -23.5322  -30.3760   21.4953 C   0  0  2  0  0  0
  -24.9911  -28.6836   20.1205 C   0  0  0  0  0  0
  -22.7834  -29.4215   22.4663 C   0  0  0  0  0  0
  -18.0349  -28.1431   22.8448 C   0  0  0  0  0  0
  -24.1493  -36.7109   23.2657 C   0  0  0  0  0  0
  -26.1189  -30.4610   21.4269 C   0  0  0  0  0  0
  -26.1819  -29.0083   20.7797 C   0  0  0  0  0  0
  -27.2778  -27.9702   20.7978 C   0  0  0  0  0  0
  -26.0064  -26.4687   19.5059 C   0  0  0  0  0  0
  -24.9520  -27.4420   19.4588 C   0  0  0  0  0  0
  -23.7950  -29.6585   20.1371 C   0  0  0  0  0  0
  -25.4150  -36.2839   24.0270 C   0  0  1  0  0  0
  -20.5992  -28.3797   23.1112 C   0  0  2  0  0  0
  -20.6805  -26.9440   22.5407 C   0  0  0  0  0  0
  -19.5784  -26.6365   21.5219 C   0  0  0  0  0  0
  -18.1966  -26.7956   22.1618 C   0  0  0  0  0  0
  -19.1620  -28.8941   23.2756 C   0  0  0  0  0  0
  -18.9524  -30.1521   23.8807 C   0  0  0  0  0  0
  -17.6512  -30.6609   24.0547 C   0  0  0  0  0  0
  -25.9142  -34.9235   23.4912 C   0  0  0  0  0  0
  -16.5399  -29.9088   23.6355 C   0  0  0  0  0  0
  -16.7328  -28.6512   23.0371 C   0  0  0  0  0  0
  -26.4620  -31.6479   25.0676 C   0  0  0  0  0  0
  -25.3643  -31.3844   26.1261 C   0  0  0  0  0  0
  -27.0580  -30.2800   24.6695 C   0  0  0  0  0  0
  -27.6037  -32.4380   25.7503 C   0  0  0  0  0  0
  -27.5556  -37.1708   24.8467 C   0  0  0  0  0  0
  -21.4467  -29.3012   22.3413 N   0  0  0  0  0  0
  -26.4260  -37.3619   23.9412 N   0  0  0  0  0  0
  -24.8085  -30.9101   22.0720 N   0  0  0  0  0  0
  -23.4203  -28.7841   23.3082 O   0  0  0  0  0  0
  -28.1711  -25.2519   20.3204 O   0  0  0  0  0  0
  -26.5805  -34.8845   22.4546 O   0  0  0  0  0  0
  -23.5970  -32.0965   23.6232 O   0  0  0  0  0  0
  -29.8879  -20.4661   19.6856 C   0  0  0  0  0  0
  -27.9692  -19.9954   20.5254 C   0  0  0  0  0  0
  -30.4428  -18.7933   20.0452 C   0  0  0  0  0  0
  -28.4776  -18.2898   20.8404 C   0  0  0  0  0  0
  -28.7797  -21.5379   20.4681 C   0  0  0  0  0  0
  -28.0510  -23.4252   20.1041 C   0  0  0  0  0  0
  -29.6840  -17.3757   20.2690 N   0  0  0  0  0  0
  -31.3683  -13.5347   19.1313 H   0  0  0  0  0  0
  -30.6083  -12.4639   20.2492 H   0  0  0  0  0  0
  -30.0486  -11.8644   17.8689 H   0  0  0  0  0  0
  -29.4650  -13.4850   17.5779 H   0  0  0  0  0  0
  -28.2185  -11.3301   19.2900 H   0  0  0  0  0  0
  -27.4736  -12.1783   17.9539 H   0  0  0  0  0  0
  -27.4087  -14.2173   19.1923 H   0  0  0  0  0  0
  -28.9049  -12.9505   21.5351 H   0  0  0  0  0  0
  -28.1065  -14.5000   21.5736 H   0  0  0  0  0  0
  -25.2800   -9.5683   22.4764 H   0  0  0  0  0  0
  -24.0017   -7.4647   22.7481 H   0  0  0  0  0  0
  -21.0878   -8.8799   19.8950 H   0  0  0  0  0  0
  -22.3754  -10.9680   19.6159 H   0  0  0  0  0  0
  -21.2016   -7.6152   23.9716 H   0  0  0  0  0  0
  -21.1483   -6.0524   25.9075 H   0  0  0  0  0  0
  -22.0595   -2.7612   23.2842 H   0  0  0  0  0  0
  -22.4021  -11.9802   22.4877 H   0  0  0  0  0  0
  -21.0969  -13.1102   22.2678 H   0  0  0  0  0  0
  -24.6150  -15.8567   20.5499 H   0  0  0  0  0  0
  -26.2354  -15.6543   20.1123 H   0  0  0  0  0  0
  -26.7589  -32.4804   23.0702 H   0  0  0  0  0  0
  -25.0042  -33.9220   24.9936 H   0  0  0  0  0  0
  -22.8666  -31.2173   21.2917 H   0  0  0  0  0  0
  -23.3781  -35.9410   23.3250 H   0  0  0  0  0  0
  -24.3555  -36.8852   22.2085 H   0  0  0  0  0  0
  -23.7227  -37.6251   23.6794 H   0  0  0  0  0  0
  -26.3387  -31.1750   20.6320 H   0  0  0  0  0  0
  -26.9636  -30.5345   22.0991 H   0  0  0  0  0  0
  -28.1686  -28.2294   21.3525 H   0  0  0  0  0  0
  -25.8133  -25.5381   18.9909 H   0  0  0  0  0  0
  -24.0579  -27.1821   18.9089 H   0  0  0  0  0  0
  -23.9835  -30.4121   19.3716 H   0  0  0  0  0  0
  -22.8965  -29.1332   19.8089 H   0  0  0  0  0  0
  -25.1365  -36.1575   25.0758 H   0  0  0  0  0  0
  -21.0070  -28.3435   24.1241 H   0  0  0  0  0  0
  -20.5654  -26.2425   23.3684 H   0  0  0  0  0  0
  -21.6665  -26.7357   22.1234 H   0  0  0  0  0  0
  -19.6937  -25.6253   21.1306 H   0  0  0  0  0  0
  -19.6732  -27.3127   20.6710 H   0  0  0  0  0  0
  -17.4237  -26.6701   21.4020 H   0  0  0  0  0  0
  -18.0347  -26.0119   22.9033 H   0  0  0  0  0  0
  -19.8000  -30.7359   24.2137 H   0  0  0  0  0  0
  -17.5063  -31.6280   24.5166 H   0  0  0  0  0  0
  -15.5397  -30.2962   23.7733 H   0  0  0  0  0  0
  -15.8729  -28.0801   22.7137 H   0  0  0  0  0  0
  -24.5863  -30.7162   25.7553 H   0  0  0  0  0  0
  -24.8798  -32.3081   26.4435 H   0  0  0  0  0  0
  -25.7779  -30.9168   27.0206 H   0  0  0  0  0  0
  -26.3328  -29.6361   24.1710 H   0  0  0  0  0  0
  -27.3965  -29.7314   25.5495 H   0  0  0  0  0  0
  -27.9323  -30.3888   24.0277 H   0  0  0  0  0  0
  -27.2558  -33.3774   26.1812 H   0  0  0  0  0  0
  -28.3980  -32.6794   25.0428 H   0  0  0  0  0  0
  -28.0561  -31.8695   26.5639 H   0  0  0  0  0  0
  -28.2527  -38.0045   24.7519 H   0  0  0  0  0  0
  -28.1097  -36.2564   24.6286 H   0  0  0  0  0  0
  -27.2272  -37.1329   25.8868 H   0  0  0  0  0  0
  -20.9810  -29.8645   21.6434 H   0  0  0  0  0  0
  -26.0070  -38.2657   24.1440 H   0  0  0  0  0  0
  -29.5696  -20.4340   18.6413 H   0  0  0  0  0  0
  -30.8115  -21.0437   19.6313 H   0  0  0  0  0  0
  -27.1595  -20.1586   21.2374 H   0  0  0  0  0  0
  -27.4334  -19.9361   19.5754 H   0  0  0  0  0  0
  -31.0627  -18.8886   20.9384 H   0  0  0  0  0  0
  -31.1673  -18.5649   19.2626 H   0  0  0  0  0  0
  -27.5875  -17.6844   20.6658 H   0  0  0  0  0  0
  -28.6135  -18.2320   21.9215 H   0  0  0  0  0  0
  -29.1787  -21.6640   21.4749 H   0  0  0  0  0  0
  -27.0604  -23.3092   20.5441 H   0  0  0  0  0  0
  -27.8517  -23.3763   19.0336 H   0  0  0  0  0  0
  1 25  1  0  0  0
  1 30  2  0  0  0
  1 77  1  0  0  0
  2  3  1  0  0  0
  2 25  1  0  0  0
  2 78  1  0  0  0
  2 79  1  0  0  0
  3  4  1  0  0  0
  3 80  1  0  0  0
  3 81  1  0  0  0
  4  5  1  0  0  0
  4 82  1  0  0  0
  4 83  1  0  0  0
  5  6  1  0  0  0
  5 26  1  0  0  0
  5 84  1  0  0  0
  6 25  1  0  0  0
  6 85  1  0  0  0
  6 86  1  0  0  0
  7  8  2  0  0  0
  7 26  1  0  0  0
  7 29  1  0  0  0
  8  9  1  0  0  0
  8 22  1  0  0  0
  9 10  1  0  0  0
  9 27  2  0  0  0
 10 11  2  0  0  0
 10 15  1  0  0  0
 11 12  1  0  0  0
 11 87  1  0  0  0
 12 13  2  0  0  0
 12 88  1  0  0  0
 13 14  1  0  0  0
 13 31  1  0  0  0
 14 15  2  0  0  0
 14 89  1  0  0  0
 15 90  1  0  0  0
 16 17  2  0  0  0
 16 21  1  0  0  0
 16 31  1  0  0  0
 17 18  1  0  0  0
 17 91  1  0  0  0
 18 19  2  0  0  0
 18 92  1  0  0  0
 19 20  1  0  0  0
 19 24  1  0  0  0
 20 21  2  0  0  0
 20 93  1  0  0  0
 21 23  1  0  0  0
 22 28  1  0  0  0
 22 32  2  0  0  0
 26 27  1  0  0  0
 28 94  1  0  0  0
 28 95  1  0  0  0
 29 96  1  0  0  0
 29 97  1  0  0  0
 33 34  1  0  0  0
 33 66  1  0  0  0
 33 70  2  0  0  0
 34 36  1  0  0  0
 34 59  1  0  0  0
 34 98  1  0  0  0
 35 44  2  0  0  0
 35 45  1  0  0  0
 35 68  1  0  0  0
 36 56  1  0  0  0
 36 99  1  0  0  0
 37 39  1  0  0  0
 37 47  1  0  0  0
 37 66  1  0  0  0
 37100  1  0  0  0
 38 43  2  0  0  0
 38 46  1  0  0  0
 38 47  1  0  0  0
 39 64  1  0  0  0
 39 67  2  0  0  0
 40 52  1  0  0  0
 40 53  2  0  0  0
 40 58  1  0  0  0
 41101  1  0  0  0
 41102  1  0  0  0
 41103  1  0  0  0
 41 48  1  0  0  0
 42 43  1  0  0  0
 42 66  1  0  0  0
 42104  1  0  0  0
 42105  1  0  0  0
 43 44  1  0  0  0
 44106  1  0  0  0
 45 46  2  0  0  0
 45107  1  0  0  0
 46108  1  0  0  0
 47109  1  0  0  0
 47110  1  0  0  0
 48 56  1  0  0  0
 48 65  1  0  0  0
 48111  1  0  0  0
 49 50  1  0  0  0
 49 53  1  0  0  0
 49 64  1  0  0  0
 49112  1  0  0  0
 50 51  1  0  0  0
 50113  1  0  0  0
 50114  1  0  0  0
 51 52  1  0  0  0
 51115  1  0  0  0
 51116  1  0  0  0
 52117  1  0  0  0
 52118  1  0  0  0
 53 54  1  0  0  0
 54 55  2  0  0  0
 54119  1  0  0  0
 55 57  1  0  0  0
 55120  1  0  0  0
 56 69  2  0  0  0
 57 58  2  0  0  0
 57121  1  0  0  0
 58122  1  0  0  0
 59 60  1  0  0  0
 59 61  1  0  0  0
 59 62  1  0  0  0
 60123  1  0  0  0
 60124  1  0  0  0
 60125  1  0  0  0
 61126  1  0  0  0
 61127  1  0  0  0
 61128  1  0  0  0
 62129  1  0  0  0
 62130  1  0  0  0
 62131  1  0  0  0
 63 65  1  0  0  0
 63132  1  0  0  0
 63133  1  0  0  0
 63134  1  0  0  0
 64135  1  0  0  0
 65136  1  0  0  0
 68 76  1  0  0  0
 71 73  1  0  0  0
 71 75  1  0  0  0
 71137  1  0  0  0
 71138  1  0  0  0
 72 74  1  0  0  0
 72 75  1  0  0  0
 72139  1  0  0  0
 72140  1  0  0  0
 73 77  1  0  0  0
 73141  1  0  0  0
 73142  1  0  0  0
 74 77  1  0  0  0
 74143  1  0  0  0
 74144  1  0  0  0
 75 76  1  0  0  0
 75145  1  0  0  0
 76146  1  0  0  0
 76147  1  0  0  0
M  ISO  4   1 100  68 101  76 101  77 100
M  END
> <chiral flag>
0

> <version>
0

> <s_m_source_file>
/data/baiqing/PycharmProjects/Reinvent-master-3.2/result/LINK_invent/BTK/process_docking_weight1_custom_sum_contain_oxygen_bond_distance_aromatic_linkinvent_7_9_3/rearranged_h_0185.sdf

> <i_m_source_file_index>
16

> <r_mmod_Potential_Energy-OPLS-2005>
3558.36840820312

> <r_mmod_Stretch_Energy-OPLS-2005>
1375.01708984375

> <r_mmod_Bend_Energy-OPLS-2005>
961.027893066406

> <r_mmod_Torsional_Energy-OPLS-2005>
310.429077148438

> <r_mmod_Improper_Torsional_Energy-OPLS-2005>
10.2289934158325

> <r_mmod_Van_der_Waal_Energy-OPLS-2005>
121.921272277832

> <r_mmod_Electrostatic_Energy-OPLS-2005>
-266.876007080078

> <r_mmod_Solvation_Energy-OPLS-2005>
-210.197875976562

> <b_mmod_Minimization_Converged-OPLS-2005>
0

> <r_mmod_RMS_Derivative-OPLS-2005>
0.203677028417587

$$$$
16
                    3D
 Structure written by MMmdl.
155164  0  0  1  0            999 V2000
  -30.5380  -14.9582   20.4132 C   0  0  0  0  0  0
  -30.4424  -12.5935   19.4987 C   0  0  0  0  0  0
  -29.5231  -12.5290   18.2564 C   0  0  0  0  0  0
  -28.0545  -12.3197   18.6714 C   0  0  0  0  0  0
  -27.6313  -13.2495   19.8385 C   0  0  2  0  0  0
  -28.6747  -13.2799   20.9759 C   0  0  0  0  0  0
  -25.2467  -13.8218   20.5701 C   0  0  0  0  0  0
  -24.1782  -13.0443   20.9225 C   0  0  0  0  0  0
  -24.6399  -11.6928   20.8753 C   0  0  0  0  0  0
  -23.9083  -10.4297   21.0405 C   0  0  0  0  0  0
  -24.3629   -9.4211   21.9179 C   0  0  0  0  0  0
  -23.6302   -8.2246   22.0754 C   0  0  0  0  0  0
  -22.4282   -8.0284   21.3546 C   0  0  0  0  0  0
  -21.9920   -9.0260   20.4650 C   0  0  0  0  0  0
  -22.7254  -10.2136   20.3058 C   0  0  0  0  0  0
  -21.6857   -6.0736   22.5275 C   0  0  0  0  0  0
  -21.4016   -6.5638   23.8208 C   0  0  0  0  0  0
  -21.3662   -5.6792   24.9168 C   0  0  0  0  0  0
  -21.6048   -4.3056   24.7218 C   0  0  0  0  0  0
  -21.8817   -3.8148   23.4340 C   0  0  0  0  0  0
  -21.9194   -4.6965   22.3397 C   0  0  0  0  0  0
  -22.7798  -13.5217   21.1874 C   0  0  0  0  0  0
  -22.1662   -4.2149   21.0975 F   0  0  0  0  0  0
  -21.5632   -3.4543   25.7734 F   0  0  0  0  0  0
  -29.9496  -13.6940   20.3769 N   0  0  0  0  0  0
  -26.2897  -12.9454   20.3248 N   0  0  0  0  0  0
  -25.9337  -11.6583   20.5736 N   0  0  0  0  0  0
  -22.0442  -12.8213   22.0432 N   0  0  0  0  0  0
  -25.4136  -15.1947   20.4108 N   0  0  0  0  0  0
  -31.7426  -15.0236   20.1432 O   0  0  0  0  0  0
  -21.6645   -6.8884   21.4239 O   0  0  0  0  0  0
  -22.3487  -14.5521   20.6715 O   0  0  0  0  0  0
  -24.6457  -31.8429   23.1882 C   0  0  0  0  0  0
  -25.9221  -32.4692   23.8277 C   0  0  1  0  0  0
  -27.2155  -27.1186   20.1518 C   0  0  0  0  0  0
  -25.5962  -33.8503   24.2194 N   0  0  0  0  0  0
  -23.4504  -30.4643   21.5328 C   0  0  2  0  0  0
  -24.9007  -28.8906   20.1091 C   0  0  0  0  0  0
  -22.7584  -29.4548   22.4835 C   0  0  0  0  0  0
  -18.0317  -28.1392   22.8478 C   0  0  0  0  0  0
  -24.1491  -36.7249   23.2640 C   0  0  0  0  0  0
  -26.0094  -30.7107   21.3912 C   0  0  0  0  0  0
  -26.0794  -29.3215   20.7307 C   0  0  0  0  0  0
  -27.2375  -28.4522   20.7358 C   0  0  0  0  0  0
  -26.0107  -26.8007   19.4834 C   0  0  0  0  0  0
  -24.8806  -27.6447   19.4693 C   0  0  0  0  0  0
  -23.6789  -29.7958   20.1519 C   0  0  0  0  0  0
  -25.4123  -36.3034   24.0317 C   0  0  1  0  0  0
  -20.5935  -28.3726   23.1223 C   0  0  2  0  0  0
  -20.6800  -26.9425   22.5400 C   0  0  0  0  0  0
  -19.5767  -26.6381   21.5214 C   0  0  0  0  0  0
  -18.1952  -26.7931   22.1627 C   0  0  0  0  0  0
  -19.1574  -28.8877   23.2846 C   0  0  0  0  0  0
  -18.9487  -30.1474   23.8869 C   0  0  0  0  0  0
  -17.6481  -30.6589   24.0557 C   0  0  0  0  0  0
  -25.9076  -34.9407   23.5064 C   0  0  0  0  0  0
  -16.5373  -29.9079   23.6334 C   0  0  0  0  0  0
  -16.7303  -28.6495   23.0358 C   0  0  0  0  0  0
  -26.4533  -31.6566   25.0724 C   0  0  0  0  0  0
  -25.3707  -31.3764   26.1411 C   0  0  0  0  0  0
  -27.0400  -30.2955   24.6327 C   0  0  0  0  0  0
  -27.6060  -32.4334   25.7510 C   0  0  0  0  0  0
  -27.5582  -37.1779   24.8460 C   0  0  0  0  0  0
  -21.4272  -29.3050   22.3585 N   0  0  0  0  0  0
  -26.4284  -37.3749   23.9411 N   0  0  0  0  0  0
  -24.7217  -31.0277   22.0919 N   0  0  0  0  0  0
  -23.4220  -28.8092   23.2992 O   0  0  0  0  0  0
  -28.2482  -26.1060   20.2374 O   0  0  0  0  0  0
  -26.5659  -34.8904   22.4642 O   0  0  0  0  0  0
  -23.5569  -32.1313   23.7088 O   0  0  0  0  0  0
  -28.4520  -21.8219   20.1787 C   0  0  0  0  0  0
  -29.3621  -20.7013   20.5075 C   0  0  0  0  0  0
  -28.8248  -23.2492   20.3466 C   0  0  0  0  0  0
  -30.8442  -22.4032   21.1099 C   0  0  0  0  0  0
  -29.2442  -18.3200   19.2134 C   0  0  0  0  0  0
  -29.1145  -19.0538   20.5205 C   0  0  1  0  0  0
  -30.0536  -17.6614   20.3108 C   0  0  1  0  0  0
  -27.0569  -21.5005   19.6735 C   0  0  0  0  0  0
  -32.2046  -22.7318   21.6852 C   0  0  0  0  0  0
  -27.8987  -24.5919   20.0354 C   0  0  0  0  0  0
  -30.5605  -21.0982   20.9812 N   0  0  0  0  0  0
  -30.0678  -23.4563   20.8248 N   0  0  0  0  0  0
  -29.7455  -16.1391   20.5222 N   0  0  0  0  0  0
  -31.4753  -12.7535   19.1857 H   0  0  0  0  0  0
  -30.4396  -11.6433   20.0350 H   0  0  0  0  0  0
  -29.8435  -11.7270   17.5908 H   0  0  0  0  0  0
  -29.6143  -13.4552   17.6868 H   0  0  0  0  0  0
  -27.9430  -11.2773   18.9730 H   0  0  0  0  0  0
  -27.3938  -12.4604   17.8147 H   0  0  0  0  0  0
  -27.5949  -14.2515   19.4101 H   0  0  0  0  0  0
  -28.7639  -12.3052   21.4576 H   0  0  0  0  0  0
  -28.3739  -13.9833   21.7539 H   0  0  0  0  0  0
  -25.2764   -9.5700   22.4759 H   0  0  0  0  0  0
  -24.0014   -7.4645   22.7480 H   0  0  0  0  0  0
  -21.0846   -8.8787   19.8961 H   0  0  0  0  0  0
  -22.3706  -10.9679   19.6177 H   0  0  0  0  0  0
  -21.2006   -7.6145   23.9711 H   0  0  0  0  0  0
  -21.1489   -6.0517   25.9072 H   0  0  0  0  0  0
  -22.0597   -2.7611   23.2831 H   0  0  0  0  0  0
  -22.4063  -11.9883   22.4831 H   0  0  0  0  0  0
  -21.1063  -13.1245   22.2643 H   0  0  0  0  0  0
  -24.6395  -15.8420   20.5138 H   0  0  0  0  0  0
  -26.2471  -15.6338   20.0432 H   0  0  0  0  0  0
  -26.7290  -32.5290   23.1005 H   0  0  0  0  0  0
  -25.0094  -33.9617   25.0330 H   0  0  0  0  0  0
  -22.7540  -31.2913   21.3787 H   0  0  0  0  0  0
  -23.3769  -35.9565   23.3282 H   0  0  0  0  0  0
  -24.3577  -36.8901   22.2059 H   0  0  0  0  0  0
  -23.7228  -37.6433   23.6686 H   0  0  0  0  0  0
  -26.1718  -31.4661   20.6208 H   0  0  0  0  0  0
  -26.8769  -30.7568   22.0378 H   0  0  0  0  0  0
  -28.1315  -28.7760   21.2495 H   0  0  0  0  0  0
  -25.8961  -25.8530   18.9811 H   0  0  0  0  0  0
  -23.9820  -27.3115   18.9680 H   0  0  0  0  0  0
  -23.8192  -30.5716   19.3984 H   0  0  0  0  0  0
  -22.7927  -29.2410   19.8383 H   0  0  0  0  0  0
  -25.1311  -36.1858   25.0808 H   0  0  0  0  0  0
  -21.0041  -28.3322   24.1338 H   0  0  0  0  0  0
  -20.5697  -26.2339   23.3625 H   0  0  0  0  0  0
  -21.6663  -26.7422   22.1194 H   0  0  0  0  0  0
  -19.6921  -25.6283   21.1263 H   0  0  0  0  0  0
  -19.6701  -27.3178   20.6735 H   0  0  0  0  0  0
  -17.4221  -26.6687   21.4030 H   0  0  0  0  0  0
  -18.0345  -26.0079   22.9028 H   0  0  0  0  0  0
  -19.7961  -30.7305   24.2221 H   0  0  0  0  0  0
  -17.5030  -31.6264   24.5170 H   0  0  0  0  0  0
  -15.5368  -30.2968   23.7671 H   0  0  0  0  0  0
  -15.8707  -28.0805   22.7080 H   0  0  0  0  0  0
  -24.5871  -30.7136   25.7722 H   0  0  0  0  0  0
  -24.8911  -32.2950   26.4802 H   0  0  0  0  0  0
  -25.7973  -30.8944   27.0215 H   0  0  0  0  0  0
  -26.3020  -29.6670   24.1325 H   0  0  0  0  0  0
  -27.3988  -29.7269   25.4918 H   0  0  0  0  0  0
  -27.8945  -30.4182   23.9669 H   0  0  0  0  0  0
  -27.2647  -33.3646   26.2047 H   0  0  0  0  0  0
  -28.3892  -32.6880   25.0356 H   0  0  0  0  0  0
  -28.0706  -31.8486   26.5458 H   0  0  0  0  0  0
  -28.2578  -38.0100   24.7540 H   0  0  0  0  0  0
  -28.1105  -36.2631   24.6248 H   0  0  0  0  0  0
  -27.2301  -37.1376   25.8863 H   0  0  0  0  0  0
  -20.9483  -29.8756   21.6756 H   0  0  0  0  0  0
  -26.0153  -38.2815   24.1430 H   0  0  0  0  0  0
  -29.8182  -18.8045   18.4266 H   0  0  0  0  0  0
  -28.3448  -17.8204   18.8610 H   0  0  0  0  0  0
  -28.2035  -18.8866   21.0913 H   0  0  0  0  0  0
  -31.1194  -17.8836   20.3192 H   0  0  0  0  0  0
  -26.9288  -20.4339   19.4846 H   0  0  0  0  0  0
  -26.8547  -22.0262   18.7396 H   0  0  0  0  0  0
  -26.3066  -21.8039   20.4051 H   0  0  0  0  0  0
  -32.8332  -21.8445   21.7622 H   0  0  0  0  0  0
  -32.0968  -23.1537   22.6847 H   0  0  0  0  0  0
  -32.7223  -23.4600   21.0602 H   0  0  0  0  0  0
  -26.9760  -24.4176   20.5902 H   0  0  0  0  0  0
  -27.6315  -24.4868   18.9841 H   0  0  0  0  0  0
  -28.7765  -15.9417   20.7231 H   0  0  0  0  0  0
  1 25  1  0  0  0
  1 30  2  0  0  0
  1 83  1  0  0  0
  2  3  1  0  0  0
  2 25  1  0  0  0
  2 84  1  0  0  0
  2 85  1  0  0  0
  3  4  1  0  0  0
  3 86  1  0  0  0
  3 87  1  0  0  0
  4  5  1  0  0  0
  4 88  1  0  0  0
  4 89  1  0  0  0
  5  6  1  0  0  0
  5 26  1  0  0  0
  5 90  1  0  0  0
  6 25  1  0  0  0
  6 91  1  0  0  0
  6 92  1  0  0  0
  7  8  2  0  0  0
  7 26  1  0  0  0
  7 29  1  0  0  0
  8  9  1  0  0  0
  8 22  1  0  0  0
  9 10  1  0  0  0
  9 27  2  0  0  0
 10 11  2  0  0  0
 10 15  1  0  0  0
 11 12  1  0  0  0
 11 93  1  0  0  0
 12 13  2  0  0  0
 12 94  1  0  0  0
 13 14  1  0  0  0
 13 31  1  0  0  0
 14 15  2  0  0  0
 14 95  1  0  0  0
 15 96  1  0  0  0
 16 17  2  0  0  0
 16 21  1  0  0  0
 16 31  1  0  0  0
 17 18  1  0  0  0
 17 97  1  0  0  0
 18 19  2  0  0  0
 18 98  1  0  0  0
 19 20  1  0  0  0
 19 24  1  0  0  0
 20 21  2  0  0  0
 20 99  1  0  0  0
 21 23  1  0  0  0
 22 28  1  0  0  0
 22 32  2  0  0  0
 26 27  1  0  0  0
 28100  1  0  0  0
 28101  1  0  0  0
 29102  1  0  0  0
 29103  1  0  0  0
 33 34  1  0  0  0
 33 66  1  0  0  0
 33 70  2  0  0  0
 34 36  1  0  0  0
 34 59  1  0  0  0
 34104  1  0  0  0
 35 44  2  0  0  0
 35 45  1  0  0  0
 35 68  1  0  0  0
 36 56  1  0  0  0
 36105  1  0  0  0
 37 39  1  0  0  0
 37 47  1  0  0  0
 37 66  1  0  0  0
 37106  1  0  0  0
 38 43  2  0  0  0
 38 46  1  0  0  0
 38 47  1  0  0  0
 39 64  1  0  0  0
 39 67  2  0  0  0
 40 52  1  0  0  0
 40 53  2  0  0  0
 40 58  1  0  0  0
 41107  1  0  0  0
 41108  1  0  0  0
 41109  1  0  0  0
 41 48  1  0  0  0
 42 43  1  0  0  0
 42 66  1  0  0  0
 42110  1  0  0  0
 42111  1  0  0  0
 43 44  1  0  0  0
 44112  1  0  0  0
 45 46  2  0  0  0
 45113  1  0  0  0
 46114  1  0  0  0
 47115  1  0  0  0
 47116  1  0  0  0
 48 56  1  0  0  0
 48 65  1  0  0  0
 48117  1  0  0  0
 49 50  1  0  0  0
 49 53  1  0  0  0
 49 64  1  0  0  0
 49118  1  0  0  0
 50 51  1  0  0  0
 50119  1  0  0  0
 50120  1  0  0  0
 51 52  1  0  0  0
 51121  1  0  0  0
 51122  1  0  0  0
 52123  1  0  0  0
 52124  1  0  0  0
 53 54  1  0  0  0
 54 55  2  0  0  0
 54125  1  0  0  0
 55 57  1  0  0  0
 55126  1  0  0  0
 56 69  2  0  0  0
 57 58  2  0  0  0
 57127  1  0  0  0
 58128  1  0  0  0
 59 60  1  0  0  0
 59 61  1  0  0  0
 59 62  1  0  0  0
 60129  1  0  0  0
 60130  1  0  0  0
 60131  1  0  0  0
 61132  1  0  0  0
 61133  1  0  0  0
 61134  1  0  0  0
 62135  1  0  0  0
 62136  1  0  0  0
 62137  1  0  0  0
 63 65  1  0  0  0
 63138  1  0  0  0
 63139  1  0  0  0
 63140  1  0  0  0
 64141  1  0  0  0
 65142  1  0  0  0
 68 80  1  0  0  0
 71 72  2  0  0  0
 71 73  1  0  0  0
 71 78  1  0  0  0
 72 81  1  0  0  0
 72 76  1  0  0  0
 73 80  1  0  0  0
 73 82  2  0  0  0
 74 79  1  0  0  0
 74 81  2  0  0  0
 74 82  1  0  0  0
 75 76  1  0  0  0
 75 77  1  0  0  0
 75143  1  0  0  0
 75144  1  0  0  0
 76 77  1  0  0  0
 76145  1  0  0  0
 77 83  1  0  0  0
 77146  1  0  0  0
 78147  1  0  0  0
 78148  1  0  0  0
 78149  1  0  0  0
 79150  1  0  0  0
 79151  1  0  0  0
 79152  1  0  0  0
 80153  1  0  0  0
 80154  1  0  0  0
 83155  1  0  0  0
M  ISO  4   1 100  68 101  80 101  83 100
M  END
> <chiral flag>
0

> <version>
0

> <s_m_source_file>
/data/baiqing/PycharmProjects/Reinvent-master-3.2/result/LINK_invent/BTK/process_docking_weight1_custom_sum_contain_oxygen_bond_distance_aromatic_linkinvent_7_9_3/rearranged_h_0185.sdf

> <i_m_source_file_index>
17

> <r_mmod_Potential_Energy-OPLS-2005>
176.238327026367

> <r_mmod_Stretch_Energy-OPLS-2005>
277.301818847656

> <r_mmod_Bend_Energy-OPLS-2005>
242.652679443359

> <r_mmod_Torsional_Energy-OPLS-2005>
253.247909545898

> <r_mmod_Improper_Torsional_Energy-OPLS-2005>
5.62660551071167

> <r_mmod_Van_der_Waal_Energy-OPLS-2005>
135.523254394531

> <r_mmod_Electrostatic_Energy-OPLS-2005>
-692.003295898438

> <r_mmod_Solvation_Energy-OPLS-2005>
-252.537796020508

> <b_mmod_Minimization_Converged-OPLS-2005>
0

> <r_mmod_RMS_Derivative-OPLS-2005>
1.14049911499023

$$$$
17
                    3D
 Structure written by MMmdl.
162171  0  0  1  0            999 V2000
  -30.4937  -14.9496   20.4866 C   0  0  0  0  0  0
  -30.4599  -12.6245   19.4498 C   0  0  0  0  0  0
  -29.5089  -12.5699   18.2275 C   0  0  0  0  0  0
  -28.0381  -12.3532   18.6481 C   0  0  0  0  0  0
  -27.6393  -13.2258   19.8677 C   0  0  2  0  0  0
  -28.7095  -13.0994   20.9738 C   0  0  0  0  0  0
  -25.2461  -13.8117   20.5702 C   0  0  0  0  0  0
  -24.1771  -13.0376   20.9246 C   0  0  0  0  0  0
  -24.6376  -11.6865   20.8807 C   0  0  0  0  0  0
  -23.9058  -10.4253   21.0429 C   0  0  0  0  0  0
  -24.3604   -9.4159   21.9196 C   0  0  0  0  0  0
  -23.6272   -8.2207   22.0751 C   0  0  0  0  0  0
  -22.4262   -8.0254   21.3538 C   0  0  0  0  0  0
  -21.9909   -9.0232   20.4637 C   0  0  0  0  0  0
  -22.7239  -10.2113   20.3061 C   0  0  0  0  0  0
  -21.6841   -6.0733   22.5285 C   0  0  0  0  0  0
  -21.4011   -6.5634   23.8219 C   0  0  0  0  0  0
  -21.3654   -5.6787   24.9181 C   0  0  0  0  0  0
  -21.6037   -4.3054   24.7236 C   0  0  0  0  0  0
  -21.8818   -3.8146   23.4357 C   0  0  0  0  0  0
  -21.9186   -4.6963   22.3410 C   0  0  0  0  0  0
  -22.7799  -13.5196   21.1857 C   0  0  0  0  0  0
  -22.1658   -4.2147   21.0990 F   0  0  0  0  0  0
  -21.5609   -3.4536   25.7753 F   0  0  0  0  0  0
  -29.9378  -13.6627   20.3898 N   0  0  0  0  0  0
  -26.2928  -12.9330   20.3412 N   0  0  0  0  0  0
  -25.9321  -11.6481   20.5845 N   0  0  0  0  0  0
  -22.0412  -12.8223   22.0403 N   0  0  0  0  0  0
  -25.4026  -15.1829   20.3977 N   0  0  0  0  0  0
  -31.6940  -15.0298   20.1914 O   0  0  0  0  0  0
  -21.6604   -6.8880   21.4250 O   0  0  0  0  0  0
  -22.3522  -14.5514   20.6681 O   0  0  0  0  0  0
  -24.6423  -31.8459   23.1887 C   0  0  0  0  0  0
  -25.9203  -32.4703   23.8277 C   0  0  1  0  0  0
  -27.2231  -27.1659   20.1522 C   0  0  0  0  0  0
  -25.5957  -33.8504   24.2204 N   0  0  0  0  0  0
  -23.4443  -30.4655   21.5335 C   0  0  2  0  0  0
  -24.8953  -28.8916   20.1146 C   0  0  0  0  0  0
  -22.7557  -29.4572   22.4861 C   0  0  0  0  0  0
  -18.0311  -28.1391   22.8482 C   0  0  0  0  0  0
  -24.1487  -36.7256   23.2643 C   0  0  0  0  0  0
  -25.9986  -30.7293   21.3829 C   0  0  0  0  0  0
  -26.0725  -29.3418   20.7284 C   0  0  0  0  0  0
  -27.2415  -28.4963   20.7271 C   0  0  0  0  0  0
  -26.0228  -26.8060   19.5051 C   0  0  0  0  0  0
  -24.8817  -27.6348   19.4894 C   0  0  0  0  0  0
  -23.6702  -29.7901   20.1552 C   0  0  0  0  0  0
  -25.4121  -36.3026   24.0321 C   0  0  1  0  0  0
  -20.5921  -28.3724   23.1233 C   0  0  2  0  0  0
  -20.6790  -26.9422   22.5399 C   0  0  0  0  0  0
  -19.5766  -26.6374   21.5211 C   0  0  0  0  0  0
  -18.1953  -26.7929   22.1627 C   0  0  0  0  0  0
  -19.1565  -28.8873   23.2857 C   0  0  0  0  0  0
  -18.9480  -30.1472   23.8878 C   0  0  0  0  0  0
  -17.6475  -30.6590   24.0559 C   0  0  0  0  0  0
  -25.9068  -34.9407   23.5069 C   0  0  0  0  0  0
  -16.5370  -29.9078   23.6333 C   0  0  0  0  0  0
  -16.7297  -28.6496   23.0356 C   0  0  0  0  0  0
  -26.4532  -31.6561   25.0715 C   0  0  0  0  0  0
  -25.3728  -31.3738   26.1421 C   0  0  0  0  0  0
  -27.0399  -30.2962   24.6278 C   0  0  0  0  0  0
  -27.6059  -32.4328   25.7502 C   0  0  0  0  0  0
  -27.5574  -37.1783   24.8473 C   0  0  0  0  0  0
  -21.4247  -29.3063   22.3611 N   0  0  0  0  0  0
  -26.4283  -37.3747   23.9414 N   0  0  0  0  0  0
  -24.7149  -31.0338   22.0902 N   0  0  0  0  0  0
  -23.4210  -28.8124   23.3009 O   0  0  0  0  0  0
  -28.2739  -26.1881   20.1603 O   0  0  0  0  0  0
  -26.5648  -34.8908   22.4641 O   0  0  0  0  0  0
  -23.5548  -32.1319   23.7127 O   0  0  0  0  0  0
  -28.0213  -22.5534   19.3174 C   0  0  0  0  0  0
  -29.3798  -22.4708   21.2270 C   0  0  0  0  0  0
  -28.5180  -23.3173   20.3438 C   0  0  0  0  0  0
  -28.3179  -21.0953   19.0650 C   0  0  0  0  0  0
  -29.9084  -18.0064   22.2056 C   0  0  0  0  0  0
  -28.4380  -16.2726   21.3827 C   0  0  0  0  0  0
  -28.7462  -17.1072   22.6345 C   0  0  2  0  0  0
  -30.1153  -17.6894   20.7157 C   0  0  2  0  0  0
  -27.7209  -18.4499   24.4782 C   0  0  0  0  0  0
  -28.0025  -24.8147   20.7988 C   0  0  0  0  0  0
  -29.3533  -18.8572   19.7784 C   0  0  0  0  0  0
  -29.6691  -21.1863   21.0462 N   0  0  0  0  0  0
  -29.1090  -20.4204   19.9884 N   0  0  0  0  0  0
  -29.7117  -16.1564   20.6519 N   0  0  0  0  0  0
  -27.5543  -17.8269   23.1476 N   0  3  0  0  0  0
  -27.8574  -20.5117   18.0835 O   0  0  0  0  0  0
  -31.4716  -12.8519   19.1120 H   0  0  0  0  0  0
  -30.5347  -11.6467   19.9291 H   0  0  0  0  0  0
  -29.8226  -11.7869   17.5364 H   0  0  0  0  0  0
  -29.5849  -13.5088   17.6760 H   0  0  0  0  0  0
  -27.9154  -11.2979   18.8971 H   0  0  0  0  0  0
  -27.3699  -12.5455   17.8078 H   0  0  0  0  0  0
  -27.6298  -14.2563   19.5127 H   0  0  0  0  0  0
  -28.8387  -12.0443   21.2210 H   0  0  0  0  0  0
  -28.4507  -13.5191   21.9401 H   0  0  0  0  0  0
  -25.2732   -9.5628   22.4810 H   0  0  0  0  0  0
  -23.9942   -7.4613   22.7500 H   0  0  0  0  0  0
  -21.0821   -8.8766   19.8965 H   0  0  0  0  0  0
  -22.3681  -10.9665   19.6191 H   0  0  0  0  0  0
  -21.2009   -7.6139   23.9722 H   0  0  0  0  0  0
  -21.1473   -6.0515   25.9084 H   0  0  0  0  0  0
  -22.0607   -2.7604   23.2859 H   0  0  0  0  0  0
  -22.4009  -11.9921   22.4869 H   0  0  0  0  0  0
  -21.1044  -13.1295   22.2614 H   0  0  0  0  0  0
  -24.5761  -15.7709   20.3785 H   0  0  0  0  0  0
  -26.1602  -15.5565   19.8431 H   0  0  0  0  0  0
  -26.7273  -32.5329   23.1011 H   0  0  0  0  0  0
  -25.0087  -33.9614   25.0340 H   0  0  0  0  0  0
  -22.7481  -31.2927   21.3781 H   0  0  0  0  0  0
  -23.3747  -35.9592   23.3298 H   0  0  0  0  0  0
  -24.3569  -36.8889   22.2060 H   0  0  0  0  0  0
  -23.7248  -37.6454   23.6679 H   0  0  0  0  0  0
  -26.1488  -31.4817   20.6071 H   0  0  0  0  0  0
  -26.8705  -30.7823   22.0228 H   0  0  0  0  0  0
  -28.1427  -28.8401   21.2146 H   0  0  0  0  0  0
  -25.9570  -25.8396   19.0238 H   0  0  0  0  0  0
  -23.9835  -27.2840   19.0009 H   0  0  0  0  0  0
  -23.8049  -30.5623   19.3973 H   0  0  0  0  0  0
  -22.7852  -29.2297   19.8471 H   0  0  0  0  0  0
  -25.1300  -36.1854   25.0813 H   0  0  0  0  0  0
  -21.0031  -28.3315   24.1345 H   0  0  0  0  0  0
  -20.5667  -26.2343   23.3632 H   0  0  0  0  0  0
  -21.6661  -26.7415   22.1207 H   0  0  0  0  0  0
  -19.6916  -25.6276   21.1264 H   0  0  0  0  0  0
  -19.6693  -27.3167   20.6731 H   0  0  0  0  0  0
  -17.4216  -26.6683   21.4035 H   0  0  0  0  0  0
  -18.0348  -26.0079   22.9028 H   0  0  0  0  0  0
  -19.7962  -30.7299   24.2231 H   0  0  0  0  0  0
  -17.5031  -31.6266   24.5165 H   0  0  0  0  0  0
  -15.5369  -30.2971   23.7662 H   0  0  0  0  0  0
  -15.8705  -28.0808   22.7068 H   0  0  0  0  0  0
  -24.5910  -30.7081   25.7747 H   0  0  0  0  0  0
  -24.8921  -32.2922   26.4808 H   0  0  0  0  0  0
  -25.8031  -30.8941   27.0226 H   0  0  0  0  0  0
  -26.3016  -29.6683   24.1283 H   0  0  0  0  0  0
  -27.4018  -29.7258   25.4841 H   0  0  0  0  0  0
  -27.8918  -30.4197   23.9588 H   0  0  0  0  0  0
  -27.2639  -33.3643   26.2029 H   0  0  0  0  0  0
  -28.3901  -32.6870   25.0355 H   0  0  0  0  0  0
  -28.0703  -31.8495   26.5465 H   0  0  0  0  0  0
  -28.2580  -38.0079   24.7503 H   0  0  0  0  0  0
  -28.1062  -36.2612   24.6305 H   0  0  0  0  0  0
  -27.2290  -37.1448   25.8870 H   0  0  0  0  0  0
  -20.9450  -29.8783   21.6797 H   0  0  0  0  0  0
  -26.0143  -38.2812   24.1407 H   0  0  0  0  0  0
  -27.3012  -23.0175   18.6595 H   0  0  0  0  0  0
  -29.7461  -22.9918   22.1124 H   0  0  0  0  0  0
  -30.8009  -17.7219   22.7652 H   0  0  0  0  0  0
  -29.7442  -19.0596   22.4146 H   0  0  0  0  0  0
  -27.7199  -16.7786   20.7405 H   0  0  0  0  0  0
  -27.9181  -15.3802   21.6754 H   0  0  0  0  0  0
  -29.0988  -16.4334   23.4192 H   0  0  0  0  0  0
  -31.1814  -17.7653   20.4990 H   0  0  0  0  0  0
  -26.7857  -18.9138   24.7924 H   0  0  0  0  0  0
  -28.4844  -19.2276   24.4679 H   0  0  0  0  0  0
  -27.9926  -17.7086   25.2296 H   0  0  0  0  0  0
  -28.3541  -24.9382   21.8235 H   0  0  0  0  0  0
  -26.9241  -24.7090   20.9192 H   0  0  0  0  0  0
  -28.3502  -18.4752   19.5947 H   0  0  0  0  0  0
  -29.8244  -18.7772   18.7979 H   0  0  0  0  0  0
  -26.7863  -17.1764   23.2161 H   0  0  0  0  0  0
  -27.2773  -18.5425   22.4937 H   0  0  0  0  0  0
  1 25  1  0  0  0
  1 30  2  0  0  0
  1 84  1  0  0  0
  2  3  1  0  0  0
  2 25  1  0  0  0
  2 87  1  0  0  0
  2 88  1  0  0  0
  3  4  1  0  0  0
  3 89  1  0  0  0
  3 90  1  0  0  0
  4  5  1  0  0  0
  4 91  1  0  0  0
  4 92  1  0  0  0
  5  6  1  0  0  0
  5 26  1  0  0  0
  5 93  1  0  0  0
  6 25  1  0  0  0
  6 94  1  0  0  0
  6 95  1  0  0  0
  7  8  2  0  0  0
  7 26  1  0  0  0
  7 29  1  0  0  0
  8  9  1  0  0  0
  8 22  1  0  0  0
  9 10  1  0  0  0
  9 27  2  0  0  0
 10 11  2  0  0  0
 10 15  1  0  0  0
 11 12  1  0  0  0
 11 96  1  0  0  0
 12 13  2  0  0  0
 12 97  1  0  0  0
 13 14  1  0  0  0
 13 31  1  0  0  0
 14 15  2  0  0  0
 14 98  1  0  0  0
 15 99  1  0  0  0
 16 17  2  0  0  0
 16 21  1  0  0  0
 16 31  1  0  0  0
 17 18  1  0  0  0
 17100  1  0  0  0
 18 19  2  0  0  0
 18101  1  0  0  0
 19 20  1  0  0  0
 19 24  1  0  0  0
 20 21  2  0  0  0
 20102  1  0  0  0
 21 23  1  0  0  0
 22 28  1  0  0  0
 22 32  2  0  0  0
 26 27  1  0  0  0
 28103  1  0  0  0
 28104  1  0  0  0
 29105  1  0  0  0
 29106  1  0  0  0
 33 34  1  0  0  0
 33 66  1  0  0  0
 33 70  2  0  0  0
 34 36  1  0  0  0
 34 59  1  0  0  0
 34107  1  0  0  0
 35 44  2  0  0  0
 35 45  1  0  0  0
 35 68  1  0  0  0
 36 56  1  0  0  0
 36108  1  0  0  0
 37 39  1  0  0  0
 37 47  1  0  0  0
 37 66  1  0  0  0
 37109  1  0  0  0
 38 43  2  0  0  0
 38 46  1  0  0  0
 38 47  1  0  0  0
 39 64  1  0  0  0
 39 67  2  0  0  0
 40 52  1  0  0  0
 40 53  2  0  0  0
 40 58  1  0  0  0
 41110  1  0  0  0
 41111  1  0  0  0
 41112  1  0  0  0
 41 48  1  0  0  0
 42 43  1  0  0  0
 42 66  1  0  0  0
 42113  1  0  0  0
 42114  1  0  0  0
 43 44  1  0  0  0
 44115  1  0  0  0
 45 46  2  0  0  0
 45116  1  0  0  0
 46117  1  0  0  0
 47118  1  0  0  0
 47119  1  0  0  0
 48 56  1  0  0  0
 48 65  1  0  0  0
 48120  1  0  0  0
 49 50  1  0  0  0
 49 53  1  0  0  0
 49 64  1  0  0  0
 49121  1  0  0  0
 50 51  1  0  0  0
 50122  1  0  0  0
 50123  1  0  0  0
 51 52  1  0  0  0
 51124  1  0  0  0
 51125  1  0  0  0
 52126  1  0  0  0
 52127  1  0  0  0
 53 54  1  0  0  0
 54 55  2  0  0  0
 54128  1  0  0  0
 55 57  1  0  0  0
 55129  1  0  0  0
 56 69  2  0  0  0
 57 58  2  0  0  0
 57130  1  0  0  0
 58131  1  0  0  0
 59 60  1  0  0  0
 59 61  1  0  0  0
 59 62  1  0  0  0
 60132  1  0  0  0
 60133  1  0  0  0
 60134  1  0  0  0
 61135  1  0  0  0
 61136  1  0  0  0
 61137  1  0  0  0
 62138  1  0  0  0
 62139  1  0  0  0
 62140  1  0  0  0
 63 65  1  0  0  0
 63141  1  0  0  0
 63142  1  0  0  0
 63143  1  0  0  0
 64144  1  0  0  0
 65145  1  0  0  0
 68 80  1  0  0  0
 71 73  2  0  0  0
 71 74  1  0  0  0
 71146  1  0  0  0
 72 73  1  0  0  0
 72 82  2  0  0  0
 72147  1  0  0  0
 73 80  1  0  0  0
 74 83  1  0  0  0
 74 86  2  0  0  0
 75 77  1  0  0  0
 75 78  1  0  0  0
 75148  1  0  0  0
 75149  1  0  0  0
 76 77  1  0  0  0
 76 84  1  0  0  0
 76150  1  0  0  0
 76151  1  0  0  0
 77 85  1  0  0  0
 77152  1  0  0  0
 78 81  1  0  0  0
 78 84  1  0  0  0
 78153  1  0  0  0
 79 85  1  0  0  0
 79154  1  0  0  0
 79155  1  0  0  0
 79156  1  0  0  0
 80157  1  0  0  0
 80158  1  0  0  0
 81 83  1  0  0  0
 81159  1  0  0  0
 81160  1  0  0  0
 82 83  1  0  0  0
 85161  1  0  0  0
 85162  1  0  0  0
M  CHG  1  85   1
M  ISO  4   1 100  68 101  80 101  84 100
M  END
> <chiral flag>
0

> <version>
0

> <s_m_source_file>
/data/baiqing/PycharmProjects/Reinvent-master-3.2/result/LINK_invent/BTK/process_docking_weight1_custom_sum_contain_oxygen_bond_distance_aromatic_linkinvent_7_9_3/rearranged_h_0185.sdf

> <i_m_source_file_index>
18

> <r_mmod_Potential_Energy-OPLS-2005>
609.05078125

> <r_mmod_Stretch_Energy-OPLS-2005>
255.159561157227

> <r_mmod_Bend_Energy-OPLS-2005>
337.099487304688

> <r_mmod_Torsional_Energy-OPLS-2005>
385.293518066406

> <r_mmod_Improper_Torsional_Energy-OPLS-2005>
10.8203592300415

> <r_mmod_Van_der_Waal_Energy-OPLS-2005>
159.030990600586

> <r_mmod_Electrostatic_Energy-OPLS-2005>
-222.31413269043

> <r_mmod_Solvation_Energy-OPLS-2005>
-489.093566894531

> <b_mmod_Minimization_Converged-OPLS-2005>
0

> <r_mmod_RMS_Derivative-OPLS-2005>
2.39647674560547

$$$$
18
                    3D
 Structure written by MMmdl.
158167  0  0  1  0            999 V2000
  -30.5738  -14.8903   20.4241 C   0  0  0  0  0  0
  -30.4343  -12.5513   19.4927 C   0  0  0  0  0  0
  -29.5169  -12.5178   18.2502 C   0  0  0  0  0  0
  -28.0469  -12.3204   18.6644 C   0  0  0  0  0  0
  -27.6306  -13.2461   19.8383 C   0  0  2  0  0  0
  -28.6731  -13.2595   20.9758 C   0  0  0  0  0  0
  -25.2467  -13.8224   20.5696 C   0  0  0  0  0  0
  -24.1783  -13.0452   20.9226 C   0  0  0  0  0  0
  -24.6396  -11.6938   20.8763 C   0  0  0  0  0  0
  -23.9082  -10.4308   21.0413 C   0  0  0  0  0  0
  -24.3635   -9.4217   21.9187 C   0  0  0  0  0  0
  -23.6310   -8.2253   22.0753 C   0  0  0  0  0  0
  -22.4287   -8.0293   21.3546 C   0  0  0  0  0  0
  -21.9931   -9.0266   20.4647 C   0  0  0  0  0  0
  -22.7261  -10.2144   20.3060 C   0  0  0  0  0  0
  -21.6862   -6.0741   22.5277 C   0  0  0  0  0  0
  -21.4020   -6.5643   23.8209 C   0  0  0  0  0  0
  -21.3662   -5.6794   24.9169 C   0  0  0  0  0  0
  -21.6049   -4.3056   24.7217 C   0  0  0  0  0  0
  -21.8821   -3.8152   23.4338 C   0  0  0  0  0  0
  -21.9194   -4.6972   22.3397 C   0  0  0  0  0  0
  -22.7798  -13.5223   21.1869 C   0  0  0  0  0  0
  -22.1661   -4.2160   21.0972 F   0  0  0  0  0  0
  -21.5630   -3.4536   25.7728 F   0  0  0  0  0  0
  -29.9542  -13.6484   20.3768 N   0  0  0  0  0  0
  -26.2887  -12.9450   20.3241 N   0  0  0  0  0  0
  -25.9325  -11.6585   20.5748 N   0  0  0  0  0  0
  -22.0443  -12.8218   22.0427 N   0  0  0  0  0  0
  -25.4136  -15.1952   20.4095 N   0  0  0  0  0  0
  -31.7781  -14.9373   20.1567 O   0  0  0  0  0  0
  -21.6654   -6.8891   21.4240 O   0  0  0  0  0  0
  -22.3478  -14.5515   20.6694 O   0  0  0  0  0  0
  -24.6416  -31.8465   23.1890 C   0  0  0  0  0  0
  -25.9197  -32.4703   23.8275 C   0  0  1  0  0  0
  -27.2141  -27.1621   20.1463 C   0  0  0  0  0  0
  -25.5947  -33.8506   24.2192 N   0  0  0  0  0  0
  -23.4425  -30.4666   21.5351 C   0  0  2  0  0  0
  -24.8900  -28.8966   20.1092 C   0  0  0  0  0  0
  -22.7552  -29.4562   22.4870 C   0  0  0  0  0  0
  -18.0300  -28.1399   22.8487 C   0  0  0  0  0  0
  -24.1491  -36.7268   23.2641 C   0  0  0  0  0  0
  -25.9958  -30.7297   21.3809 C   0  0  0  0  0  0
  -26.0669  -29.3428   20.7234 C   0  0  0  0  0  0
  -27.2311  -28.4920   20.7233 C   0  0  0  0  0  0
  -26.0108  -26.8073   19.4987 C   0  0  0  0  0  0
  -24.8730  -27.6420   19.4820 C   0  0  0  0  0  0
  -23.6665  -29.7971   20.1535 C   0  0  0  0  0  0
  -25.4119  -36.3034   24.0317 C   0  0  1  0  0  0
  -20.5913  -28.3726   23.1250 C   0  0  2  0  0  0
  -20.6788  -26.9430   22.5413 C   0  0  0  0  0  0
  -19.5756  -26.6386   21.5226 C   0  0  0  0  0  0
  -18.1936  -26.7939   22.1636 C   0  0  0  0  0  0
  -19.1557  -28.8879   23.2861 C   0  0  0  0  0  0
  -18.9473  -30.1475   23.8885 C   0  0  0  0  0  0
  -17.6470  -30.6595   24.0564 C   0  0  0  0  0  0
  -25.9070  -34.9410   23.5067 C   0  0  0  0  0  0
  -16.5361  -29.9091   23.6332 C   0  0  0  0  0  0
  -16.7285  -28.6511   23.0352 C   0  0  0  0  0  0
  -26.4520  -31.6553   25.0707 C   0  0  0  0  0  0
  -25.3708  -31.3743   26.1406 C   0  0  0  0  0  0
  -27.0373  -30.2946   24.6266 C   0  0  0  0  0  0
  -27.6042  -32.4318   25.7503 C   0  0  0  0  0  0
  -27.5574  -37.1792   24.8463 C   0  0  0  0  0  0
  -21.4248  -29.3055   22.3621 N   0  0  0  0  0  0
  -26.4283  -37.3747   23.9409 N   0  0  0  0  0  0
  -24.7133  -31.0345   22.0911 N   0  0  0  0  0  0
  -23.4208  -28.8111   23.3010 O   0  0  0  0  0  0
  -28.2778  -26.2000   20.2144 O   0  0  0  0  0  0
  -26.5658  -34.8908   22.4644 O   0  0  0  0  0  0
  -23.5544  -32.1335   23.7128 O   0  0  0  0  0  0
  -29.0984  -21.8676   20.3908 C   0  0  0  0  0  0
  -29.2367  -21.0492   19.2232 C   0  0  0  0  0  0
  -29.1549  -21.0251   21.5510 C   0  0  0  0  0  0
  -29.5870  -18.9800   20.3914 C   0  0  0  0  0  0
  -30.0675  -21.1673   16.7176 C   0  0  0  0  0  0
  -30.3121  -22.5142   17.3396 C   0  0  0  0  0  0
  -29.1771  -21.6488   17.8474 C   0  0  0  0  0  0
  -29.0134  -21.6200   22.9372 C   0  0  0  0  0  0
  -29.1716  -23.5214   20.4366 C   0  0  0  0  0  0
  -30.3745  -17.5410   20.3962 C   0  0  0  0  0  0
  -28.0240  -24.6771   20.0956 C   0  0  0  0  0  0
  -29.4625  -19.6794   19.2444 N   0  0  0  0  0  0
  -29.4026  -19.6613   21.5381 N   0  0  0  0  0  0
  -29.8377  -16.0858   20.5505 N   0  0  0  0  0  0
  -31.4703  -12.6963   19.1802 H   0  0  0  0  0  0
  -30.4139  -11.5963   20.0194 H   0  0  0  0  0  0
  -29.8258  -11.7215   17.5722 H   0  0  0  0  0  0
  -29.6203  -13.4518   17.6957 H   0  0  0  0  0  0
  -27.9273  -11.2765   18.9567 H   0  0  0  0  0  0
  -27.3889  -12.4736   17.8085 H   0  0  0  0  0  0
  -27.6002  -14.2522   19.4199 H   0  0  0  0  0  0
  -28.7464  -12.2840   21.4575 H   0  0  0  0  0  0
  -28.3834  -13.9686   21.7531 H   0  0  0  0  0  0
  -25.2780   -9.5694   22.4759 H   0  0  0  0  0  0
  -24.0019   -7.4652   22.7479 H   0  0  0  0  0  0
  -21.0861   -8.8790   19.8954 H   0  0  0  0  0  0
  -22.3722  -10.9685   19.6172 H   0  0  0  0  0  0
  -21.2010   -7.6153   23.9713 H   0  0  0  0  0  0
  -21.1485   -6.0523   25.9073 H   0  0  0  0  0  0
  -22.0593   -2.7617   23.2830 H   0  0  0  0  0  0
  -22.4065  -11.9899   22.4846 H   0  0  0  0  0  0
  -21.1049  -13.1232   22.2601 H   0  0  0  0  0  0
  -24.6433  -15.8462   20.5173 H   0  0  0  0  0  0
  -26.2515  -15.6328   20.0497 H   0  0  0  0  0  0
  -26.7259  -32.5319   23.1002 H   0  0  0  0  0  0
  -25.0045  -33.9610   25.0307 H   0  0  0  0  0  0
  -22.7445  -31.2924   21.3827 H   0  0  0  0  0  0
  -23.3749  -35.9605   23.3287 H   0  0  0  0  0  0
  -24.3580  -36.8919   22.2060 H   0  0  0  0  0  0
  -23.7255  -37.6465   23.6688 H   0  0  0  0  0  0
  -26.1434  -31.4845   20.6072 H   0  0  0  0  0  0
  -26.8698  -30.7825   22.0184 H   0  0  0  0  0  0
  -28.1288  -28.8300   21.2218 H   0  0  0  0  0  0
  -25.9175  -25.8462   19.0164 H   0  0  0  0  0  0
  -23.9734  -27.2951   18.9926 H   0  0  0  0  0  0
  -23.8025  -30.5732   19.3994 H   0  0  0  0  0  0
  -22.7813  -29.2400   19.8418 H   0  0  0  0  0  0
  -25.1304  -36.1862   25.0810 H   0  0  0  0  0  0
  -21.0005  -28.3317   24.1373 H   0  0  0  0  0  0
  -20.5701  -26.2337   23.3634 H   0  0  0  0  0  0
  -21.6650  -26.7450   22.1196 H   0  0  0  0  0  0
  -19.6914  -25.6295   21.1261 H   0  0  0  0  0  0
  -19.6681  -27.3196   20.6755 H   0  0  0  0  0  0
  -17.4208  -26.6695   21.4033 H   0  0  0  0  0  0
  -18.0319  -26.0084   22.9034 H   0  0  0  0  0  0
  -19.7945  -30.7296   24.2246 H   0  0  0  0  0  0
  -17.5021  -31.6272   24.5175 H   0  0  0  0  0  0
  -15.5359  -30.2990   23.7660 H   0  0  0  0  0  0
  -15.8687  -28.0826   22.7068 H   0  0  0  0  0  0
  -24.5891  -30.7081   25.7741 H   0  0  0  0  0  0
  -24.8891  -32.2927   26.4773 H   0  0  0  0  0  0
  -25.7998  -30.8963   27.0220 H   0  0  0  0  0  0
  -26.2977  -29.6678   24.1268 H   0  0  0  0  0  0
  -27.3984  -29.7233   25.4829 H   0  0  0  0  0  0
  -27.8887  -30.4178   23.9569 H   0  0  0  0  0  0
  -27.2610  -33.3624   26.2034 H   0  0  0  0  0  0
  -28.3879  -32.6870   25.0360 H   0  0  0  0  0  0
  -28.0674  -31.8477   26.5464 H   0  0  0  0  0  0
  -28.2577  -38.0099   24.7500 H   0  0  0  0  0  0
  -28.1078  -36.2626   24.6289 H   0  0  0  0  0  0
  -27.2292  -37.1441   25.8866 H   0  0  0  0  0  0
  -20.9455  -29.8765   21.6800 H   0  0  0  0  0  0
  -26.0148  -38.2817   24.1404 H   0  0  0  0  0  0
  -30.7853  -20.3779   16.9319 H   0  0  0  0  0  0
  -29.6466  -21.1557   15.7147 H   0  0  0  0  0  0
  -30.0530  -23.3910   16.7498 H   0  0  0  0  0  0
  -31.1997  -22.6119   17.9616 H   0  0  0  0  0  0
  -28.1609  -21.9487   17.5989 H   0  0  0  0  0  0
  -28.2216  -22.3680   22.9571 H   0  0  0  0  0  0
  -29.9457  -22.0943   23.2427 H   0  0  0  0  0  0
  -28.7627  -20.8560   23.6736 H   0  0  0  0  0  0
  -30.0238  -23.7749   19.8067 H   0  0  0  0  0  0
  -29.5294  -23.7696   21.4348 H   0  0  0  0  0  0
  -31.1390  -17.6433   21.1667 H   0  0  0  0  0  0
  -30.9429  -17.5320   19.4655 H   0  0  0  0  0  0
  -27.1580  -24.4581   20.7219 H   0  0  0  0  0  0
  -27.6975  -24.4959   19.0718 H   0  0  0  0  0  0
  -28.8465  -16.0077   20.7147 H   0  0  0  0  0  0
  1 25  1  0  0  0
  1 30  2  0  0  0
  1 84  1  0  0  0
  2  3  1  0  0  0
  2 25  1  0  0  0
  2 85  1  0  0  0
  2 86  1  0  0  0
  3  4  1  0  0  0
  3 87  1  0  0  0
  3 88  1  0  0  0
  4  5  1  0  0  0
  4 89  1  0  0  0
  4 90  1  0  0  0
  5  6  1  0  0  0
  5 26  1  0  0  0
  5 91  1  0  0  0
  6 25  1  0  0  0
  6 92  1  0  0  0
  6 93  1  0  0  0
  7  8  2  0  0  0
  7 26  1  0  0  0
  7 29  1  0  0  0
  8  9  1  0  0  0
  8 22  1  0  0  0
  9 10  1  0  0  0
  9 27  2  0  0  0
 10 11  2  0  0  0
 10 15  1  0  0  0
 11 12  1  0  0  0
 11 94  1  0  0  0
 12 13  2  0  0  0
 12 95  1  0  0  0
 13 14  1  0  0  0
 13 31  1  0  0  0
 14 15  2  0  0  0
 14 96  1  0  0  0
 15 97  1  0  0  0
 16 17  2  0  0  0
 16 21  1  0  0  0
 16 31  1  0  0  0
 17 18  1  0  0  0
 17 98  1  0  0  0
 18 19  2  0  0  0
 18 99  1  0  0  0
 19 20  1  0  0  0
 19 24  1  0  0  0
 20 21  2  0  0  0
 20100  1  0  0  0
 21 23  1  0  0  0
 22 28  1  0  0  0
 22 32  2  0  0  0
 26 27  1  0  0  0
 28101  1  0  0  0
 28102  1  0  0  0
 29103  1  0  0  0
 29104  1  0  0  0
 33 34  1  0  0  0
 33 66  1  0  0  0
 33 70  2  0  0  0
 34 36  1  0  0  0
 34 59  1  0  0  0
 34105  1  0  0  0
 35 44  2  0  0  0
 35 45  1  0  0  0
 35 68  1  0  0  0
 36 56  1  0  0  0
 36106  1  0  0  0
 37 39  1  0  0  0
 37 47  1  0  0  0
 37 66  1  0  0  0
 37107  1  0  0  0
 38 43  2  0  0  0
 38 46  1  0  0  0
 38 47  1  0  0  0
 39 64  1  0  0  0
 39 67  2  0  0  0
 40 52  1  0  0  0
 40 53  2  0  0  0
 40 58  1  0  0  0
 41108  1  0  0  0
 41109  1  0  0  0
 41110  1  0  0  0
 41 48  1  0  0  0
 42 43  1  0  0  0
 42 66  1  0  0  0
 42111  1  0  0  0
 42112  1  0  0  0
 43 44  1  0  0  0
 44113  1  0  0  0
 45 46  2  0  0  0
 45114  1  0  0  0
 46115  1  0  0  0
 47116  1  0  0  0
 47117  1  0  0  0
 48 56  1  0  0  0
 48 65  1  0  0  0
 48118  1  0  0  0
 49 50  1  0  0  0
 49 53  1  0  0  0
 49 64  1  0  0  0
 49119  1  0  0  0
 50 51  1  0  0  0
 50120  1  0  0  0
 50121  1  0  0  0
 51 52  1  0  0  0
 51122  1  0  0  0
 51123  1  0  0  0
 52124  1  0  0  0
 52125  1  0  0  0
 53 54  1  0  0  0
 54 55  2  0  0  0
 54126  1  0  0  0
 55 57  1  0  0  0
 55127  1  0  0  0
 56 69  2  0  0  0
 57 58  2  0  0  0
 57128  1  0  0  0
 58129  1  0  0  0
 59 60  1  0  0  0
 59 61  1  0  0  0
 59 62  1  0  0  0
 60130  1  0  0  0
 60131  1  0  0  0
 60132  1  0  0  0
 61133  1  0  0  0
 61134  1  0  0  0
 61135  1  0  0  0
 62136  1  0  0  0
 62137  1  0  0  0
 62138  1  0  0  0
 63 65  1  0  0  0
 63139  1  0  0  0
 63140  1  0  0  0
 63141  1  0  0  0
 64142  1  0  0  0
 65143  1  0  0  0
 68 81  1  0  0  0
 71 72  1  0  0  0
 71 73  2  0  0  0
 71 79  1  0  0  0
 72 82  2  0  0  0
 72 77  1  0  0  0
 73 78  1  0  0  0
 73 83  1  0  0  0
 74 80  1  0  0  0
 74 82  1  0  0  0
 74 83  2  0  0  0
 75 76  1  0  0  0
 75 77  1  0  0  0
 75144  1  0  0  0
 75145  1  0  0  0
 76 77  1  0  0  0
 76146  1  0  0  0
 76147  1  0  0  0
 77148  1  0  0  0
 78149  1  0  0  0
 78150  1  0  0  0
 78151  1  0  0  0
 79 81  1  0  0  0
 79152  1  0  0  0
 79153  1  0  0  0
 80 84  1  0  0  0
 80154  1  0  0  0
 80155  1  0  0  0
 81156  1  0  0  0
 81157  1  0  0  0
 84158  1  0  0  0
M  ISO  4   1 100  68 101  81 101  84 100
M  END
> <chiral flag>
0

> <version>
0

> <s_m_source_file>
/data/baiqing/PycharmProjects/Reinvent-master-3.2/result/LINK_invent/BTK/process_docking_weight1_custom_sum_contain_oxygen_bond_distance_aromatic_linkinvent_7_9_3/rearranged_h_0185.sdf

> <i_m_source_file_index>
19

> <r_mmod_Potential_Energy-OPLS-2005>
-164.959350585938

> <r_mmod_Stretch_Energy-OPLS-2005>
197.762664794922

> <r_mmod_Bend_Energy-OPLS-2005>
245.710205078125

> <r_mmod_Torsional_Energy-OPLS-2005>
243.752899169922

> <r_mmod_Improper_Torsional_Energy-OPLS-2005>
9.98849868774414

> <r_mmod_Van_der_Waal_Energy-OPLS-2005>
137.041320800781

> <r_mmod_Electrostatic_Energy-OPLS-2005>
-924.885375976562

> <r_mmod_Solvation_Energy-OPLS-2005>
-235.449493408203

> <b_mmod_Minimization_Converged-OPLS-2005>
0

> <r_mmod_RMS_Derivative-OPLS-2005>
1.07692992687225

$$$$
19
                    3D
 Structure written by MMmdl.
153162  0  0  1  0            999 V2000
  -30.4112  -15.3641   20.3415 C   0  0  0  0  0  0
  -30.4413  -12.8726   19.5565 C   0  0  0  0  0  0
  -29.5518  -12.6163   18.3111 C   0  0  0  0  0  0
  -28.1013  -12.3208   18.7298 C   0  0  0  0  0  0
  -27.6119  -13.2938   19.8313 C   0  0  2  0  0  0
  -28.6407  -13.5029   20.9698 C   0  0  0  0  0  0
  -25.2383  -13.8266   20.5785 C   0  0  0  0  0  0
  -24.1752  -13.0446   20.9258 C   0  0  0  0  0  0
  -24.6427  -11.6935   20.8760 C   0  0  0  0  0  0
  -23.9109  -10.4301   21.0401 C   0  0  0  0  0  0
  -24.3640   -9.4203   21.9164 C   0  0  0  0  0  0
  -23.6291   -8.2254   22.0756 C   0  0  0  0  0  0
  -22.4264   -8.0313   21.3568 C   0  0  0  0  0  0
  -21.9902   -9.0276   20.4664 C   0  0  0  0  0  0
  -22.7267  -10.2140   20.3058 C   0  0  0  0  0  0
  -21.6860   -6.0742   22.5288 C   0  0  0  0  0  0
  -21.4034   -6.5647   23.8220 C   0  0  0  0  0  0
  -21.3655   -5.6798   24.9180 C   0  0  0  0  0  0
  -21.6037   -4.3058   24.7229 C   0  0  0  0  0  0
  -21.8806   -3.8145   23.4350 C   0  0  0  0  0  0
  -21.9184   -4.6964   22.3406 C   0  0  0  0  0  0
  -22.7768  -13.5189   21.1889 C   0  0  0  0  0  0
  -22.1662   -4.2153   21.0977 F   0  0  0  0  0  0
  -21.5602   -3.4533   25.7734 F   0  0  0  0  0  0
  -29.8713  -14.0319   20.3513 N   0  0  0  0  0  0
  -26.2840  -12.9585   20.3254 N   0  0  0  0  0  0
  -25.9375  -11.6673   20.5712 N   0  0  0  0  0  0
  -22.0411  -12.8225   22.0460 N   0  0  0  0  0  0
  -25.3979  -15.2014   20.4285 N   0  0  0  0  0  0
  -31.6176  -15.3503   20.0478 O   0  0  0  0  0  0
  -21.6646   -6.8900   21.4261 O   0  0  0  0  0  0
  -22.3448  -14.5472   20.6692 O   0  0  0  0  0  0
  -24.6649  -31.8186   23.1649 C   0  0  0  0  0  0
  -25.9330  -32.4549   23.8129 C   0  0  1  0  0  0
  -27.2196  -26.8873   20.1894 C   0  0  0  0  0  0
  -25.5994  -33.8371   24.2037 N   0  0  0  0  0  0
  -23.4796  -30.4294   21.5149 C   0  0  2  0  0  0
  -24.9341  -28.8073   20.1043 C   0  0  0  0  0  0
  -22.7676  -29.4410   22.4753 C   0  0  0  0  0  0
  -18.0325  -28.1404   22.8453 C   0  0  0  0  0  0
  -24.1503  -36.7226   23.2646 C   0  0  0  0  0  0
  -26.0516  -30.6119   21.3983 C   0  0  0  0  0  0
  -26.1172  -29.1981   20.7453 C   0  0  0  0  0  0
  -27.2477  -28.2594   20.7632 C   0  0  0  0  0  0
  -26.0110  -26.6627   19.4885 C   0  0  0  0  0  0
  -24.9101  -27.5613   19.4564 C   0  0  0  0  0  0
  -23.7224  -29.7423   20.1401 C   0  0  0  0  0  0
  -25.4134  -36.2945   24.0285 C   0  0  1  0  0  0
  -20.5957  -28.3758   23.1176 C   0  0  2  0  0  0
  -20.6799  -26.9432   22.5422 C   0  0  0  0  0  0
  -19.5791  -26.6338   21.5227 C   0  0  0  0  0  0
  -18.1965  -26.7926   22.1622 C   0  0  0  0  0  0
  -19.1591  -28.8902   23.2797 C   0  0  0  0  0  0
  -18.9494  -30.1490   23.8833 C   0  0  0  0  0  0
  -17.6486  -30.6588   24.0559 C   0  0  0  0  0  0
  -25.9106  -34.9330   23.4979 C   0  0  0  0  0  0
  -16.5382  -29.9076   23.6336 C   0  0  0  0  0  0
  -16.7306  -28.6506   23.0337 C   0  0  0  0  0  0
  -26.4538  -31.6508   25.0682 C   0  0  0  0  0  0
  -25.3656  -31.3804   26.1341 C   0  0  0  0  0  0
  -27.0417  -30.2858   24.6446 C   0  0  0  0  0  0
  -27.6015  -32.4324   25.7503 C   0  0  0  0  0  0
  -27.5565  -37.1762   24.8448 C   0  0  0  0  0  0
  -21.4342  -29.3028   22.3511 N   0  0  0  0  0  0
  -26.4274  -37.3683   23.9390 N   0  0  0  0  0  0
  -24.7542  -30.9819   22.0792 N   0  0  0  0  0  0
  -23.4216  -28.7989   23.3004 O   0  0  0  0  0  0
  -28.2174  -25.7677   20.3057 O   0  0  0  0  0  0
  -26.5743  -34.8885   22.4596 O   0  0  0  0  0  0
  -23.5714  -32.1188   23.6734 O   0  0  0  0  0  0
  -29.8960  -20.9050   18.9547 C   0  0  0  0  0  0
  -30.4619  -19.7745   18.4211 C   0  0  0  0  0  0
  -29.7350  -18.1782   20.1093 C   0  0  0  0  0  0
  -29.0212  -19.6515   20.7550 C   0  0  0  0  0  0
  -30.4655  -19.9344   15.8157 C   0  0  0  0  0  0
  -31.3924  -21.0427   16.2513 C   0  0  0  0  0  0
  -31.2195  -19.8126   17.1269 C   0  0  0  0  0  0
  -28.7877  -22.5740   20.6671 C   0  0  0  0  0  0
  -28.1090  -24.1290   19.9685 C   0  0  0  0  0  0
  -30.3828  -18.4813   19.0177 N   0  0  0  0  0  0
  -29.1347  -20.9932   20.1360 N   0  0  0  0  0  0
  -29.6420  -16.6409   20.5134 N   0  0  0  0  0  0
  -28.3991  -19.5442   21.8199 O   0  0  0  0  0  0
  -31.4681  -13.0656   19.2391 H   0  0  0  0  0  0
  -30.5059  -11.9745   20.1738 H   0  0  0  0  0  0
  -29.9500  -11.7951   17.7158 H   0  0  0  0  0  0
  -29.5735  -13.4983   17.6707 H   0  0  0  0  0  0
  -28.0626  -11.2978   19.1052 H   0  0  0  0  0  0
  -27.4400  -12.3597   17.8621 H   0  0  0  0  0  0
  -27.5151  -14.2518   19.3202 H   0  0  0  0  0  0
  -28.8238  -12.5757   21.5154 H   0  0  0  0  0  0
  -28.2637  -14.2208   21.7013 H   0  0  0  0  0  0
  -25.2776   -9.5668   22.4752 H   0  0  0  0  0  0
  -23.9991   -7.4644   22.7472 H   0  0  0  0  0  0
  -21.0818   -8.8806   19.8980 H   0  0  0  0  0  0
  -22.3714  -10.9680   19.6179 H   0  0  0  0  0  0
  -21.2070   -7.6158   23.9718 H   0  0  0  0  0  0
  -21.1488   -6.0538   25.9080 H   0  0  0  0  0  0
  -22.0584   -2.7609   23.2843 H   0  0  0  0  0  0
  -22.4042  -11.9933   22.4920 H   0  0  0  0  0  0
  -21.1038  -13.1280   22.2634 H   0  0  0  0  0  0
  -24.6145  -15.8403   20.5210 H   0  0  0  0  0  0
  -26.2376  -15.6518   20.0913 H   0  0  0  0  0  0
  -26.7423  -32.5068   23.0858 H   0  0  0  0  0  0
  -25.0040  -33.9426   25.0115 H   0  0  0  0  0  0
  -22.7946  -31.2629   21.3417 H   0  0  0  0  0  0
  -23.3738  -35.9583   23.3277 H   0  0  0  0  0  0
  -24.3587  -36.8920   22.2070 H   0  0  0  0  0  0
  -23.7308  -37.6422   23.6741 H   0  0  0  0  0  0
  -26.2319  -31.3488   20.6152 H   0  0  0  0  0  0
  -26.9130  -30.6734   22.0502 H   0  0  0  0  0  0
  -28.1395  -28.5535   21.2980 H   0  0  0  0  0  0
  -25.8797  -25.7132   18.9930 H   0  0  0  0  0  0
  -24.0144  -27.2538   18.9338 H   0  0  0  0  0  0
  -23.8863  -30.5152   19.3884 H   0  0  0  0  0  0
  -22.8274  -29.2079   19.8153 H   0  0  0  0  0  0
  -25.1335  -36.1716   25.0775 H   0  0  0  0  0  0
  -21.0041  -28.3391   24.1300 H   0  0  0  0  0  0
  -20.5644  -26.2398   23.3675 H   0  0  0  0  0  0
  -21.6670  -26.7371   22.1268 H   0  0  0  0  0  0
  -19.6947  -25.6215   21.1336 H   0  0  0  0  0  0
  -19.6735  -27.3085   20.6712 H   0  0  0  0  0  0
  -17.4233  -26.6664   21.4025 H   0  0  0  0  0  0
  -18.0357  -26.0075   22.9032 H   0  0  0  0  0  0
  -19.7972  -30.7332   24.2156 H   0  0  0  0  0  0
  -17.5037  -31.6250   24.5183 H   0  0  0  0  0  0
  -15.5386  -30.2963   23.7648 H   0  0  0  0  0  0
  -15.8720  -28.0803   22.7055 H   0  0  0  0  0  0
  -24.5830  -30.7146   25.7675 H   0  0  0  0  0  0
  -24.8846  -32.3027   26.4620 H   0  0  0  0  0  0
  -25.7873  -30.9073   27.0222 H   0  0  0  0  0  0
  -26.3069  -29.6527   24.1456 H   0  0  0  0  0  0
  -27.3922  -29.7231   25.5110 H   0  0  0  0  0  0
  -27.9038  -30.3998   23.9872 H   0  0  0  0  0  0
  -27.2554  -33.3655   26.1965 H   0  0  0  0  0  0
  -28.3903  -32.6834   25.0401 H   0  0  0  0  0  0
  -28.0605  -31.8536   26.5527 H   0  0  0  0  0  0
  -28.2542  -38.0086   24.7475 H   0  0  0  0  0  0
  -28.1101  -36.2613   24.6276 H   0  0  0  0  0  0
  -27.2312  -37.1433   25.8861 H   0  0  0  0  0  0
  -20.9584  -29.8733   21.6668 H   0  0  0  0  0  0
  -26.0108  -38.2741   24.1375 H   0  0  0  0  0  0
  -30.0020  -21.8705   18.4831 H   0  0  0  0  0  0
  -30.7860  -19.3213   14.9724 H   0  0  0  0  0  0
  -29.3982  -20.1476   15.8586 H   0  0  0  0  0  0
  -30.9282  -21.9871   16.5250 H   0  0  0  0  0  0
  -32.3214  -21.1416   15.6923 H   0  0  0  0  0  0
  -32.0726  -19.1357   17.1247 H   0  0  0  0  0  0
  -28.2109  -22.4033   21.5766 H   0  0  0  0  0  0
  -29.7583  -22.8862   21.0533 H   0  0  0  0  0  0
  -27.0339  -23.9476   19.9496 H   0  0  0  0  0  0
  -28.3831  -24.0913   18.9153 H   0  0  0  0  0  0
  -28.7775  -16.4479   20.9951 H   0  0  0  0  0  0
  1 25  1  0  0  0
  1 30  2  0  0  0
  1 82  1  0  0  0
  2  3  1  0  0  0
  2 25  1  0  0  0
  2 84  1  0  0  0
  2 85  1  0  0  0
  3  4  1  0  0  0
  3 86  1  0  0  0
  3 87  1  0  0  0
  4  5  1  0  0  0
  4 88  1  0  0  0
  4 89  1  0  0  0
  5  6  1  0  0  0
  5 26  1  0  0  0
  5 90  1  0  0  0
  6 25  1  0  0  0
  6 91  1  0  0  0
  6 92  1  0  0  0
  7  8  2  0  0  0
  7 26  1  0  0  0
  7 29  1  0  0  0
  8  9  1  0  0  0
  8 22  1  0  0  0
  9 10  1  0  0  0
  9 27  2  0  0  0
 10 11  2  0  0  0
 10 15  1  0  0  0
 11 12  1  0  0  0
 11 93  1  0  0  0
 12 13  2  0  0  0
 12 94  1  0  0  0
 13 14  1  0  0  0
 13 31  1  0  0  0
 14 15  2  0  0  0
 14 95  1  0  0  0
 15 96  1  0  0  0
 16 17  2  0  0  0
 16 21  1  0  0  0
 16 31  1  0  0  0
 17 18  1  0  0  0
 17 97  1  0  0  0
 18 19  2  0  0  0
 18 98  1  0  0  0
 19 20  1  0  0  0
 19 24  1  0  0  0
 20 21  2  0  0  0
 20 99  1  0  0  0
 21 23  1  0  0  0
 22 28  1  0  0  0
 22 32  2  0  0  0
 26 27  1  0  0  0
 28100  1  0  0  0
 28101  1  0  0  0
 29102  1  0  0  0
 29103  1  0  0  0
 33 34  1  0  0  0
 33 66  1  0  0  0
 33 70  2  0  0  0
 34 36  1  0  0  0
 34 59  1  0  0  0
 34104  1  0  0  0
 35 44  2  0  0  0
 35 45  1  0  0  0
 35 68  1  0  0  0
 36 56  1  0  0  0
 36105  1  0  0  0
 37 39  1  0  0  0
 37 47  1  0  0  0
 37 66  1  0  0  0
 37106  1  0  0  0
 38 43  2  0  0  0
 38 46  1  0  0  0
 38 47  1  0  0  0
 39 64  1  0  0  0
 39 67  2  0  0  0
 40 52  1  0  0  0
 40 53  2  0  0  0
 40 58  1  0  0  0
 41107  1  0  0  0
 41108  1  0  0  0
 41109  1  0  0  0
 41 48  1  0  0  0
 42 43  1  0  0  0
 42 66  1  0  0  0
 42110  1  0  0  0
 42111  1  0  0  0
 43 44  1  0  0  0
 44112  1  0  0  0
 45 46  2  0  0  0
 45113  1  0  0  0
 46114  1  0  0  0
 47115  1  0  0  0
 47116  1  0  0  0
 48 56  1  0  0  0
 48 65  1  0  0  0
 48117  1  0  0  0
 49 50  1  0  0  0
 49 53  1  0  0  0
 49 64  1  0  0  0
 49118  1  0  0  0
 50 51  1  0  0  0
 50119  1  0  0  0
 50120  1  0  0  0
 51 52  1  0  0  0
 51121  1  0  0  0
 51122  1  0  0  0
 52123  1  0  0  0
 52124  1  0  0  0
 53 54  1  0  0  0
 54 55  2  0  0  0
 54125  1  0  0  0
 55 57  1  0  0  0
 55126  1  0  0  0
 56 69  2  0  0  0
 57 58  2  0  0  0
 57127  1  0  0  0
 58128  1  0  0  0
 59 60  1  0  0  0
 59 61  1  0  0  0
 59 62  1  0  0  0
 60129  1  0  0  0
 60130  1  0  0  0
 60131  1  0  0  0
 61132  1  0  0  0
 61133  1  0  0  0
 61134  1  0  0  0
 62135  1  0  0  0
 62136  1  0  0  0
 62137  1  0  0  0
 63 65  1  0  0  0
 63138  1  0  0  0
 63139  1  0  0  0
 63140  1  0  0  0
 64141  1  0  0  0
 65142  1  0  0  0
 68 79  1  0  0  0
 71 72  2  0  0  0
 71 81  1  0  0  0
 71143  1  0  0  0
 72 80  1  0  0  0
 72 77  1  0  0  0
 73 74  1  0  0  0
 73 80  2  0  0  0
 73 82  1  0  0  0
 74 81  1  0  0  0
 74 83  2  0  0  0
 75 76  1  0  0  0
 75 77  1  0  0  0
 75144  1  0  0  0
 75145  1  0  0  0
 76 77  1  0  0  0
 76146  1  0  0  0
 76147  1  0  0  0
 77148  1  0  0  0
 78 79  1  0  0  0
 78 81  1  0  0  0
 78149  1  0  0  0
 78150  1  0  0  0
 79151  1  0  0  0
 79152  1  0  0  0
 82153  1  0  0  0
M  ISO  4   1 100  68 101  79 101  82 100
M  END
> <chiral flag>
0

> <version>
0

> <s_m_source_file>
/data/baiqing/PycharmProjects/Reinvent-master-3.2/result/LINK_invent/BTK/process_docking_weight1_custom_sum_contain_oxygen_bond_distance_aromatic_linkinvent_7_9_3/rearranged_h_0185.sdf

> <i_m_source_file_index>
20

> <r_mmod_Potential_Energy-OPLS-2005>
1430.26049804688

> <r_mmod_Stretch_Energy-OPLS-2005>
690.117370605469

> <r_mmod_Bend_Energy-OPLS-2005>
463.10595703125

> <r_mmod_Torsional_Energy-OPLS-2005>
249.051651000977

> <r_mmod_Improper_Torsional_Energy-OPLS-2005>
4.20705223083496

> <r_mmod_Van_der_Waal_Energy-OPLS-2005>
128.537811279297

> <r_mmod_Electrostatic_Energy-OPLS-2005>
-414.586212158203

> <r_mmod_Solvation_Energy-OPLS-2005>
-235.873397827148

> <b_mmod_Minimization_Converged-OPLS-2005>
0

> <r_mmod_RMS_Derivative-OPLS-2005>
4.79542016983032

$$$$
20
                    3D
 Structure written by MMmdl.
157167  0  0  1  0            999 V2000
  -30.5728  -14.7943   20.3972 C   0  0  0  0  0  0
  -30.4339  -12.4805   19.4645 C   0  0  0  0  0  0
  -29.5129  -12.5180   18.2277 C   0  0  0  0  0  0
  -28.0377  -12.3398   18.6343 C   0  0  0  0  0  0
  -27.6370  -13.2374   19.8376 C   0  0  2  0  0  0
  -28.6844  -13.1898   20.9706 C   0  0  0  0  0  0
  -25.2509  -13.8213   20.5695 C   0  0  0  0  0  0
  -24.1809  -13.0441   20.9204 C   0  0  0  0  0  0
  -24.6429  -11.6916   20.8751 C   0  0  0  0  0  0
  -23.9126  -10.4288   21.0401 C   0  0  0  0  0  0
  -24.3673   -9.4186   21.9162 C   0  0  0  0  0  0
  -23.6317   -8.2232   22.0747 C   0  0  0  0  0  0
  -22.4293   -8.0284   21.3546 C   0  0  0  0  0  0
  -21.9939   -9.0271   20.4649 C   0  0  0  0  0  0
  -22.7300  -10.2129   20.3038 C   0  0  0  0  0  0
  -21.6869   -6.0751   22.5278 C   0  0  0  0  0  0
  -21.4031   -6.5658   23.8211 C   0  0  0  0  0  0
  -21.3650   -5.6803   24.9178 C   0  0  0  0  0  0
  -21.6030   -4.3068   24.7224 C   0  0  0  0  0  0
  -21.8824   -3.8167   23.4342 C   0  0  0  0  0  0
  -21.9203   -4.6977   22.3410 C   0  0  0  0  0  0
  -22.7837  -13.5214   21.1855 C   0  0  0  0  0  0
  -22.1655   -4.2168   21.0984 F   0  0  0  0  0  0
  -21.5617   -3.4552   25.7738 F   0  0  0  0  0  0
  -29.9799  -13.5494   20.3849 N   0  0  0  0  0  0
  -26.2928  -12.9411   20.3207 N   0  0  0  0  0  0
  -25.9345  -11.6554   20.5709 N   0  0  0  0  0  0
  -22.0480  -12.8219   22.0415 N   0  0  0  0  0  0
  -25.4160  -15.1945   20.4123 N   0  0  0  0  0  0
  -31.7677  -14.8996   20.1080 O   0  0  0  0  0  0
  -21.6649   -6.8877   21.4235 O   0  0  0  0  0  0
  -22.3510  -14.5512   20.6675 O   0  0  0  0  0  0
  -24.6343  -31.8530   23.1916 C   0  0  0  0  0  0
  -25.9167  -32.4729   23.8271 C   0  0  1  0  0  0
  -27.2245  -27.2337   20.1172 C   0  0  0  0  0  0
  -25.5960  -33.8527   24.2208 N   0  0  0  0  0  0
  -23.4307  -30.4734   21.5349 C   0  0  2  0  0  0
  -24.8762  -28.9072   20.1016 C   0  0  0  0  0  0
  -22.7512  -29.4619   22.4869 C   0  0  0  0  0  0
  -18.0305  -28.1425   22.8494 C   0  0  0  0  0  0
  -24.1509  -36.7261   23.2641 C   0  0  0  0  0  0
  -25.9786  -30.7500   21.3754 C   0  0  0  0  0  0
  -26.0443  -29.3692   20.7185 C   0  0  0  0  0  0
  -27.2134  -28.5418   20.7184 C   0  0  0  0  0  0
  -26.0347  -26.8379   19.4715 C   0  0  0  0  0  0
  -24.8792  -27.6518   19.4675 C   0  0  0  0  0  0
  -23.6484  -29.7994   20.1512 C   0  0  0  0  0  0
  -25.4142  -36.3050   24.0311 C   0  0  1  0  0  0
  -20.5915  -28.3736   23.1257 C   0  0  2  0  0  0
  -20.6804  -26.9447   22.5409 C   0  0  0  0  0  0
  -19.5769  -26.6405   21.5236 C   0  0  0  0  0  0
  -18.1944  -26.7966   22.1641 C   0  0  0  0  0  0
  -19.1566  -28.8897   23.2875 C   0  0  0  0  0  0
  -18.9475  -30.1505   23.8899 C   0  0  0  0  0  0
  -17.6461  -30.6605   24.0580 C   0  0  0  0  0  0
  -25.9090  -34.9428   23.5069 C   0  0  0  0  0  0
  -16.5351  -29.9095   23.6342 C   0  0  0  0  0  0
  -16.7295  -28.6525   23.0346 C   0  0  0  0  0  0
  -26.4523  -31.6551   25.0664 C   0  0  0  0  0  0
  -25.3733  -31.3676   26.1358 C   0  0  0  0  0  0
  -27.0356  -30.2966   24.6176 C   0  0  0  0  0  0
  -27.6139  -32.4251   25.7376 C   0  0  0  0  0  0
  -27.5592  -37.1794   24.8470 C   0  0  0  0  0  0
  -21.4218  -29.3060   22.3613 N   0  0  0  0  0  0
  -26.4313  -37.3744   23.9395 N   0  0  0  0  0  0
  -24.7006  -31.0463   22.0907 N   0  0  0  0  0  0
  -23.4197  -28.8185   23.2992 O   0  0  0  0  0  0
  -28.3376  -26.3618   20.2212 O   0  0  0  0  0  0
  -26.5668  -34.8919   22.4641 O   0  0  0  0  0  0
  -23.5493  -32.1352   23.7222 O   0  0  0  0  0  0
  -26.5135  -22.0777   20.0101 C   0  0  0  0  0  0
  -28.1637  -23.5890   19.9425 C   0  0  0  0  0  0
  -28.5949  -21.3005   20.1132 C   0  0  0  0  0  0
  -24.5292  -20.9807   18.7198 C   0  0  0  0  0  0
  -24.1603  -22.4340   18.8699 C   0  0  0  0  0  0
  -29.0786  -17.8796   18.9984 C   0  0  0  0  0  0
  -25.0471  -21.7743   19.9066 C   0  0  0  0  0  0
  -29.0819  -18.6618   20.2804 C   0  0  1  0  0  0
  -30.0185  -17.3514   20.0686 C   0  0  1  0  0  0
  -28.5548  -25.0741   19.4555 C   0  0  0  0  0  0
  -26.8540  -23.3617   19.9676 N   0  0  0  0  0  0
  -27.3081  -21.0159   20.1024 N   0  0  0  0  0  0
  -29.0898  -22.5688   20.0181 N   0  0  0  0  0  0
  -29.4528  -20.1439   20.1901 N   0  0  0  0  0  0
  -29.7468  -15.9184   20.4679 N   0  0  0  0  0  0
  -31.4726  -12.6138   19.1584 H   0  0  0  0  0  0
  -30.3860  -11.5094   19.9564 H   0  0  0  0  0  0
  -29.8047  -11.7461   17.5147 H   0  0  0  0  0  0
  -29.6367  -13.4688   17.7088 H   0  0  0  0  0  0
  -27.8916  -11.2890   18.8824 H   0  0  0  0  0  0
  -27.3914  -12.5422   17.7807 H   0  0  0  0  0  0
  -27.6168  -14.2564   19.4510 H   0  0  0  0  0  0
  -28.7291  -12.1971   21.4174 H   0  0  0  0  0  0
  -28.4184  -13.8818   21.7719 H   0  0  0  0  0  0
  -25.2813   -9.5682   22.4745 H   0  0  0  0  0  0
  -24.0039   -7.4640   22.7487 H   0  0  0  0  0  0
  -21.0858   -8.8813   19.8974 H   0  0  0  0  0  0
  -22.3752  -10.9681   19.6171 H   0  0  0  0  0  0
  -21.2013   -7.6157   23.9733 H   0  0  0  0  0  0
  -21.1462   -6.0529   25.9089 H   0  0  0  0  0  0
  -22.0606   -2.7624   23.2857 H   0  0  0  0  0  0
  -22.4137  -11.9933   22.4864 H   0  0  0  0  0  0
  -21.1072  -13.1221   22.2548 H   0  0  0  0  0  0
  -24.6458  -15.8451   20.5287 H   0  0  0  0  0  0
  -26.2564  -15.6405   20.0672 H   0  0  0  0  0  0
  -26.7221  -32.5373   23.0998 H   0  0  0  0  0  0
  -25.0087  -33.9640   25.0338 H   0  0  0  0  0  0
  -22.7313  -31.2980   21.3864 H   0  0  0  0  0  0
  -23.3777  -35.9590   23.3304 H   0  0  0  0  0  0
  -24.3593  -36.8893   22.2058 H   0  0  0  0  0  0
  -23.7269  -37.6463   23.6667 H   0  0  0  0  0  0
  -26.1274  -31.5052   20.6038 H   0  0  0  0  0  0
  -26.8577  -30.7945   22.0076 H   0  0  0  0  0  0
  -28.1053  -28.8914   21.2186 H   0  0  0  0  0  0
  -25.9700  -25.8666   19.0015 H   0  0  0  0  0  0
  -23.9851  -27.2915   18.9727 H   0  0  0  0  0  0
  -23.7629  -30.5743   19.3920 H   0  0  0  0  0  0
  -22.7697  -29.2256   19.8540 H   0  0  0  0  0  0
  -25.1344  -36.1857   25.0801 H   0  0  0  0  0  0
  -21.0029  -28.3337   24.1377 H   0  0  0  0  0  0
  -20.5722  -26.2360   23.3630 H   0  0  0  0  0  0
  -21.6667  -26.7484   22.1198 H   0  0  0  0  0  0
  -19.6911  -25.6314   21.1297 H   0  0  0  0  0  0
  -19.6706  -27.3217   20.6770 H   0  0  0  0  0  0
  -17.4226  -26.6745   21.4036 H   0  0  0  0  0  0
  -18.0323  -26.0100   22.9033 H   0  0  0  0  0  0
  -19.7937  -30.7353   24.2250 H   0  0  0  0  0  0
  -17.4991  -31.6294   24.5196 H   0  0  0  0  0  0
  -15.5352  -30.2984   23.7669 H   0  0  0  0  0  0
  -15.8710  -28.0856   22.7022 H   0  0  0  0  0  0
  -24.5933  -30.7032   25.7592 H   0  0  0  0  0  0
  -24.8909  -32.2828   26.4789 H   0  0  0  0  0  0
  -25.8013  -30.8786   27.0107 H   0  0  0  0  0  0
  -26.2910  -29.6671   24.1298 H   0  0  0  0  0  0
  -27.4109  -29.7270   25.4677 H   0  0  0  0  0  0
  -27.8752  -30.4211   23.9342 H   0  0  0  0  0  0
  -27.2874  -33.3607   26.1894 H   0  0  0  0  0  0
  -28.3948  -32.6686   25.0166 H   0  0  0  0  0  0
  -28.0787  -31.8377   26.5304 H   0  0  0  0  0  0
  -28.2628  -38.0080   24.7525 H   0  0  0  0  0  0
  -28.1086  -36.2622   24.6296 H   0  0  0  0  0  0
  -27.2314  -37.1437   25.8877 H   0  0  0  0  0  0
  -20.9411  -29.8687   21.6751 H   0  0  0  0  0  0
  -26.0184  -38.2812   24.1378 H   0  0  0  0  0  0
  -25.2406  -20.7151   17.9377 H   0  0  0  0  0  0
  -23.7676  -20.2306   18.9278 H   0  0  0  0  0  0
  -23.1415  -22.6660   19.1654 H   0  0  0  0  0  0
  -24.6234  -23.1618   18.2073 H   0  0  0  0  0  0
  -29.5320  -18.3405   18.1245 H   0  0  0  0  0  0
  -28.1724  -17.3109   18.7832 H   0  0  0  0  0  0
  -24.6198  -21.5619   20.8828 H   0  0  0  0  0  0
  -28.2109  -18.5434   20.9249 H   0  0  0  0  0  0
  -31.0739  -17.5854   19.9370 H   0  0  0  0  0  0
  -28.1365  -25.1953   18.4551 H   0  0  0  0  0  0
  -29.6326  -25.0376   19.2806 H   0  0  0  0  0  0
  -30.4448  -20.3604   20.1991 H   0  0  0  0  0  0
  -28.7886  -15.7114   20.7051 H   0  0  0  0  0  0
  1 25  1  0  0  0
  1 30  2  0  0  0
  1 85  1  0  0  0
  2  3  1  0  0  0
  2 25  1  0  0  0
  2 86  1  0  0  0
  2 87  1  0  0  0
  3  4  1  0  0  0
  3 88  1  0  0  0
  3 89  1  0  0  0
  4  5  1  0  0  0
  4 90  1  0  0  0
  4 91  1  0  0  0
  5  6  1  0  0  0
  5 26  1  0  0  0
  5 92  1  0  0  0
  6 25  1  0  0  0
  6 93  1  0  0  0
  6 94  1  0  0  0
  7  8  2  0  0  0
  7 26  1  0  0  0
  7 29  1  0  0  0
  8  9  1  0  0  0
  8 22  1  0  0  0
  9 10  1  0  0  0
  9 27  2  0  0  0
 10 11  2  0  0  0
 10 15  1  0  0  0
 11 12  1  0  0  0
 11 95  1  0  0  0
 12 13  2  0  0  0
 12 96  1  0  0  0
 13 14  1  0  0  0
 13 31  1  0  0  0
 14 15  2  0  0  0
 14 97  1  0  0  0
 15 98  1  0  0  0
 16 17  2  0  0  0
 16 21  1  0  0  0
 16 31  1  0  0  0
 17 18  1  0  0  0
 17 99  1  0  0  0
 18 19  2  0  0  0
 18100  1  0  0  0
 19 20  1  0  0  0
 19 24  1  0  0  0
 20 21  2  0  0  0
 20101  1  0  0  0
 21 23  1  0  0  0
 22 28  1  0  0  0
 22 32  2  0  0  0
 26 27  1  0  0  0
 28102  1  0  0  0
 28103  1  0  0  0
 29104  1  0  0  0
 29105  1  0  0  0
 33 34  1  0  0  0
 33 66  1  0  0  0
 33 70  2  0  0  0
 34 36  1  0  0  0
 34 59  1  0  0  0
 34106  1  0  0  0
 35 44  2  0  0  0
 35 45  1  0  0  0
 35 68  1  0  0  0
 36 56  1  0  0  0
 36107  1  0  0  0
 37 39  1  0  0  0
 37 47  1  0  0  0
 37 66  1  0  0  0
 37108  1  0  0  0
 38 43  2  0  0  0
 38 46  1  0  0  0
 38 47  1  0  0  0
 39 64  1  0  0  0
 39 67  2  0  0  0
 40 52  1  0  0  0
 40 53  2  0  0  0
 40 58  1  0  0  0
 41109  1  0  0  0
 41110  1  0  0  0
 41111  1  0  0  0
 41 48  1  0  0  0
 42 43  1  0  0  0
 42 66  1  0  0  0
 42112  1  0  0  0
 42113  1  0  0  0
 43 44  1  0  0  0
 44114  1  0  0  0
 45 46  2  0  0  0
 45115  1  0  0  0
 46116  1  0  0  0
 47117  1  0  0  0
 47118  1  0  0  0
 48 56  1  0  0  0
 48 65  1  0  0  0
 48119  1  0  0  0
 49 50  1  0  0  0
 49 53  1  0  0  0
 49 64  1  0  0  0
 49120  1  0  0  0
 50 51  1  0  0  0
 50121  1  0  0  0
 50122  1  0  0  0
 51 52  1  0  0  0
 51123  1  0  0  0
 51124  1  0  0  0
 52125  1  0  0  0
 52126  1  0  0  0
 53 54  1  0  0  0
 54 55  2  0  0  0
 54127  1  0  0  0
 55 57  1  0  0  0
 55128  1  0  0  0
 56 69  2  0  0  0
 57 58  2  0  0  0
 57129  1  0  0  0
 58130  1  0  0  0
 59 60  1  0  0  0
 59 61  1  0  0  0
 59 62  1  0  0  0
 60131  1  0  0  0
 60132  1  0  0  0
 60133  1  0  0  0
 61134  1  0  0  0
 61135  1  0  0  0
 61136  1  0  0  0
 62137  1  0  0  0
 62138  1  0  0  0
 62139  1  0  0  0
 63 65  1  0  0  0
 63140  1  0  0  0
 63141  1  0  0  0
 63142  1  0  0  0
 64143  1  0  0  0
 65144  1  0  0  0
 68 80  1  0  0  0
 71 81  2  0  0  0
 71 82  1  0  0  0
 71 77  1  0  0  0
 72 80  1  0  0  0
 72 81  1  0  0  0
 72 83  2  0  0  0
 73 82  2  0  0  0
 73 83  1  0  0  0
 73 84  1  0  0  0
 74 75  1  0  0  0
 74 77  1  0  0  0
 74145  1  0  0  0
 74146  1  0  0  0
 75 77  1  0  0  0
 75147  1  0  0  0
 75148  1  0  0  0
 76 78  1  0  0  0
 76 79  1  0  0  0
 76149  1  0  0  0
 76150  1  0  0  0
 77151  1  0  0  0
 78 79  1  0  0  0
 78 84  1  0  0  0
 78152  1  0  0  0
 79 85  1  0  0  0
 79153  1  0  0  0
 80154  1  0  0  0
 80155  1  0  0  0
 84156  1  0  0  0
 85157  1  0  0  0
M  ISO  4   1 100  68 101  80 101  85 100
M  END
> <chiral flag>
0

> <version>
0

> <s_m_source_file>
/data/baiqing/PycharmProjects/Reinvent-master-3.2/result/LINK_invent/BTK/process_docking_weight1_custom_sum_contain_oxygen_bond_distance_aromatic_linkinvent_7_9_3/rearranged_h_0185.sdf

> <i_m_source_file_index>
21

> <r_mmod_Potential_Energy-OPLS-2005>
-539.203552246094

> <r_mmod_Stretch_Energy-OPLS-2005>
136.692031860352

> <r_mmod_Bend_Energy-OPLS-2005>
198.713409423828

> <r_mmod_Torsional_Energy-OPLS-2005>
270.609954833984

> <r_mmod_Improper_Torsional_Energy-OPLS-2005>
9.26970386505127

> <r_mmod_Van_der_Waal_Energy-OPLS-2005>
143.288146972656

> <r_mmod_Electrostatic_Energy-OPLS-2005>
-1159.33068847656

> <r_mmod_Solvation_Energy-OPLS-2005>
-244.983825683594

> <b_mmod_Minimization_Converged-OPLS-2005>
0

> <r_mmod_RMS_Derivative-OPLS-2005>
4.46819543838501

$$$$
21
                    3D
 Structure written by MMmdl.
157166  0  0  1  0            999 V2000
  -30.6671  -14.6027   20.5019 C   0  0  0  0  0  0
  -30.4239  -12.3718   19.4493 C   0  0  0  0  0  0
  -29.5007  -12.5004   18.2189 C   0  0  0  0  0  0
  -28.0220  -12.3505   18.6293 C   0  0  0  0  0  0
  -27.6498  -13.2182   19.8618 C   0  0  2  0  0  0
  -28.6949  -13.0668   20.9881 C   0  0  0  0  0  0
  -25.2540  -13.8176   20.5682 C   0  0  0  0  0  0
  -24.1813  -13.0438   20.9191 C   0  0  0  0  0  0
  -24.6387  -11.6911   20.8743 C   0  0  0  0  0  0
  -23.9059  -10.4293   21.0408 C   0  0  0  0  0  0
  -24.3613   -9.4209   21.9185 C   0  0  0  0  0  0
  -23.6290   -8.2243   22.0754 C   0  0  0  0  0  0
  -22.4272   -8.0280   21.3544 C   0  0  0  0  0  0
  -21.9905   -9.0254   20.4648 C   0  0  0  0  0  0
  -22.7232  -10.2134   20.3058 C   0  0  0  0  0  0
  -21.6853   -6.0733   22.5278 C   0  0  0  0  0  0
  -21.4015   -6.5638   23.8211 C   0  0  0  0  0  0
  -21.3660   -5.6790   24.9173 C   0  0  0  0  0  0
  -21.6045   -4.3053   24.7225 C   0  0  0  0  0  0
  -21.8820   -3.8145   23.4346 C   0  0  0  0  0  0
  -21.9193   -4.6961   22.3402 C   0  0  0  0  0  0
  -22.7835  -13.5230   21.1853 C   0  0  0  0  0  0
  -22.1662   -4.2147   21.0980 F   0  0  0  0  0  0
  -21.5628   -3.4537   25.7737 F   0  0  0  0  0  0
  -30.0056  -13.4051   20.4179 N   0  0  0  0  0  0
  -26.2970  -12.9364   20.3322 N   0  0  0  0  0  0
  -25.9315  -11.6515   20.5760 N   0  0  0  0  0  0
  -22.0481  -12.8226   22.0415 N   0  0  0  0  0  0
  -25.4236  -15.1894   20.4077 N   0  0  0  0  0  0
  -31.8489  -14.6864   20.1509 O   0  0  0  0  0  0
  -21.6639   -6.8876   21.4240 O   0  0  0  0  0  0
  -22.3520  -14.5535   20.6700 O   0  0  0  0  0  0
  -24.6224  -31.8622   23.2045 C   0  0  0  0  0  0
  -25.9087  -32.4790   23.8362 C   0  0  1  0  0  0
  -27.2285  -27.3531   20.0980 C   0  0  0  0  0  0
  -25.5914  -33.8590   24.2292 N   0  0  0  0  0  0
  -23.4134  -30.4865   21.5469 C   0  0  2  0  0  0
  -24.8576  -28.9445   20.1116 C   0  0  0  0  0  0
  -22.7450  -29.4635   22.4953 C   0  0  0  0  0  0
  -18.0280  -28.1380   22.8488 C   0  0  0  0  0  0
  -24.1489  -36.7301   23.2639 C   0  0  0  0  0  0
  -25.9511  -30.8024   21.3697 C   0  0  0  0  0  0
  -26.0238  -29.4320   20.7122 C   0  0  0  0  0  0
  -27.2074  -28.6444   20.7015 C   0  0  0  0  0  0
  -26.0281  -26.8956   19.5045 C   0  0  0  0  0  0
  -24.8590  -27.6791   19.5051 C   0  0  0  0  0  0
  -23.6248  -29.8215   20.1614 C   0  0  0  0  0  0
  -25.4112  -36.3091   24.0332 C   0  0  1  0  0  0
  -20.5877  -28.3677   23.1296 C   0  0  2  0  0  0
  -20.6770  -26.9404   22.5412 C   0  0  0  0  0  0
  -19.5747  -26.6382   21.5210 C   0  0  0  0  0  0
  -18.1927  -26.7923   22.1625 C   0  0  0  0  0  0
  -19.1532  -28.8845   23.2889 C   0  0  0  0  0  0
  -18.9457  -30.1449   23.8903 C   0  0  0  0  0  0
  -17.6457  -30.6585   24.0563 C   0  0  0  0  0  0
  -25.9045  -34.9459   23.5111 C   0  0  0  0  0  0
  -16.5349  -29.9084   23.6328 C   0  0  0  0  0  0
  -16.7269  -28.6501   23.0350 C   0  0  0  0  0  0
  -26.4486  -31.6592   25.0721 C   0  0  0  0  0  0
  -25.3733  -31.3718   26.1458 C   0  0  0  0  0  0
  -27.0323  -30.3022   24.6150 C   0  0  0  0  0  0
  -27.6051  -32.4322   25.7489 C   0  0  0  0  0  0
  -27.5579  -37.1806   24.8466 C   0  0  0  0  0  0
  -21.4169  -29.3037   22.3696 N   0  0  0  0  0  0
  -26.4293  -37.3781   23.9406 N   0  0  0  0  0  0
  -24.6811  -31.0664   22.0977 N   0  0  0  0  0  0
  -23.4192  -28.8174   23.3018 O   0  0  0  0  0  0
  -28.3854  -26.5709   20.1508 O   0  0  0  0  0  0
  -26.5613  -34.8921   22.4678 O   0  0  0  0  0  0
  -23.5399  -32.1406   23.7398 O   0  0  0  0  0  0
  -29.6468  -23.8477   21.1435 C   0  0  0  0  0  0
  -29.9790  -22.5396   21.5784 C   0  0  0  0  0  0
  -28.7940  -23.9874   20.0286 C   0  0  0  0  0  0
  -29.4563  -21.4197   20.8873 C   0  0  0  0  0  0
  -29.3954  -17.7543   21.9890 C   0  0  0  0  0  0
  -30.3520  -18.1779   19.7622 C   0  0  0  0  0  0
  -29.0855  -16.2714   21.5982 C   0  0  0  0  0  0
  -29.9803  -16.7171   19.3583 C   0  0  0  0  0  0
  -29.4052  -18.7830   20.8226 C   0  0  0  0  0  0
  -28.5506  -25.3653   19.3321 C   0  0  0  0  0  0
  -28.2976  -22.8643   19.4196 N   0  0  0  0  0  0
  -28.6130  -21.6137   19.8369 N   0  0  0  0  0  0
  -29.8973  -15.7463   20.4796 N   0  0  0  0  0  0
  -29.8464  -20.1176   21.3025 N   0  0  0  0  0  0
  -31.4677  -12.4738   19.1473 H   0  0  0  0  0  0
  -30.3404  -11.3784   19.8926 H   0  0  0  0  0  0
  -29.7592  -11.7483   17.4723 H   0  0  0  0  0  0
  -29.6537  -13.4701   17.7421 H   0  0  0  0  0  0
  -27.8497  -11.2972   18.8543 H   0  0  0  0  0  0
  -27.3703  -12.5910   17.7885 H   0  0  0  0  0  0
  -27.6693  -14.2551   19.5265 H   0  0  0  0  0  0
  -28.7033  -12.0437   21.3666 H   0  0  0  0  0  0
  -28.4421  -13.6907   21.8425 H   0  0  0  0  0  0
  -25.2761   -9.5686   22.4755 H   0  0  0  0  0  0
  -24.0002   -7.4635   22.7473 H   0  0  0  0  0  0
  -21.0836   -8.8773   19.8955 H   0  0  0  0  0  0
  -22.3693  -10.9672   19.6164 H   0  0  0  0  0  0
  -21.2009   -7.6146   23.9713 H   0  0  0  0  0  0
  -21.1481   -6.0521   25.9076 H   0  0  0  0  0  0
  -22.0599   -2.7607   23.2847 H   0  0  0  0  0  0
  -22.4096  -11.9889   22.4807 H   0  0  0  0  0  0
  -21.1100  -13.1253   22.2622 H   0  0  0  0  0  0
  -24.6574  -15.8446   20.5172 H   0  0  0  0  0  0
  -26.2760  -15.6267   20.0824 H   0  0  0  0  0  0
  -26.7153  -32.5467   23.1112 H   0  0  0  0  0  0
  -25.0062  -33.9740   25.0436 H   0  0  0  0  0  0
  -22.7055  -31.3059   21.4061 H   0  0  0  0  0  0
  -23.3745  -35.9640   23.3313 H   0  0  0  0  0  0
  -24.3580  -36.8907   22.2051 H   0  0  0  0  0  0
  -23.7249  -37.6511   23.6652 H   0  0  0  0  0  0
  -26.0780  -31.5672   20.6024 H   0  0  0  0  0  0
  -26.8336  -30.8507   21.9961 H   0  0  0  0  0  0
  -28.1051  -29.0177   21.1744 H   0  0  0  0  0  0
  -25.9418  -25.9159   19.0625 H   0  0  0  0  0  0
  -23.9578  -27.2916   19.0501 H   0  0  0  0  0  0
  -23.7414  -30.5977   19.4042 H   0  0  0  0  0  0
  -22.7454  -29.2489   19.8611 H   0  0  0  0  0  0
  -25.1292  -36.1949   25.0825 H   0  0  0  0  0  0
  -20.9970  -28.3247   24.1415 H   0  0  0  0  0  0
  -20.5669  -26.2285   23.3606 H   0  0  0  0  0  0
  -21.6640  -26.7438   22.1206 H   0  0  0  0  0  0
  -19.6908  -25.6294   21.1236 H   0  0  0  0  0  0
  -19.6684  -27.3197   20.6743 H   0  0  0  0  0  0
  -17.4195  -26.6668   21.4028 H   0  0  0  0  0  0
  -18.0331  -26.0064   22.9022 H   0  0  0  0  0  0
  -19.7934  -30.7261   24.2275 H   0  0  0  0  0  0
  -17.5014  -31.6266   24.5161 H   0  0  0  0  0  0
  -15.5349  -30.2987   23.7648 H   0  0  0  0  0  0
  -15.8669  -28.0820   22.7062 H   0  0  0  0  0  0
  -24.5907  -30.7064   25.7794 H   0  0  0  0  0  0
  -24.8924  -32.2879   26.4897 H   0  0  0  0  0  0
  -25.8071  -30.8892   27.0225 H   0  0  0  0  0  0
  -26.2886  -29.6777   24.1185 H   0  0  0  0  0  0
  -27.4047  -29.7269   25.4637 H   0  0  0  0  0  0
  -27.8744  -30.4318   23.9347 H   0  0  0  0  0  0
  -27.2663  -33.3616   26.2079 H   0  0  0  0  0  0
  -28.3854  -32.6891   25.0312 H   0  0  0  0  0  0
  -28.0729  -31.8439   26.5394 H   0  0  0  0  0  0
  -28.2603  -38.0096   24.7505 H   0  0  0  0  0  0
  -28.1067  -36.2627   24.6302 H   0  0  0  0  0  0
  -27.2298  -37.1472   25.8869 H   0  0  0  0  0  0
  -20.9336  -29.8764   21.6918 H   0  0  0  0  0  0
  -26.0178  -38.2859   24.1399 H   0  0  0  0  0  0
  -30.0711  -24.7177   21.6224 H   0  0  0  0  0  0
  -30.6500  -22.4088   22.4145 H   0  0  0  0  0  0
  -30.3688  -17.7684   22.4824 H   0  0  0  0  0  0
  -28.6780  -18.0733   22.7468 H   0  0  0  0  0  0
  -30.3511  -18.8078   18.8714 H   0  0  0  0  0  0
  -31.3776  -18.1856   20.1351 H   0  0  0  0  0  0
  -28.0341  -16.1812   21.3254 H   0  0  0  0  0  0
  -29.2283  -15.6534   22.4854 H   0  0  0  0  0  0
  -30.6843  -16.3713   18.5988 H   0  0  0  0  0  0
  -29.0088  -16.7233   18.8627 H   0  0  0  0  0  0
  -28.3994  -18.8679   20.4067 H   0  0  0  0  0  0
  -27.8038  -25.2516   18.5508 H   0  0  0  0  0  0
  -29.4637  -25.5492   18.7660 H   0  0  0  0  0  0
  -30.4797  -20.1053   22.0941 H   0  0  0  0  0  0
  1 25  1  0  0  0
  1 30  2  0  0  0
  1 83  1  0  0  0
  2  3  1  0  0  0
  2 25  1  0  0  0
  2 85  1  0  0  0
  2 86  1  0  0  0
  3  4  1  0  0  0
  3 87  1  0  0  0
  3 88  1  0  0  0
  4  5  1  0  0  0
  4 89  1  0  0  0
  4 90  1  0  0  0
  5  6  1  0  0  0
  5 26  1  0  0  0
  5 91  1  0  0  0
  6 25  1  0  0  0
  6 92  1  0  0  0
  6 93  1  0  0  0
  7  8  2  0  0  0
  7 26  1  0  0  0
  7 29  1  0  0  0
  8  9  1  0  0  0
  8 22  1  0  0  0
  9 10  1  0  0  0
  9 27  2  0  0  0
 10 11  2  0  0  0
 10 15  1  0  0  0
 11 12  1  0  0  0
 11 94  1  0  0  0
 12 13  2  0  0  0
 12 95  1  0  0  0
 13 14  1  0  0  0
 13 31  1  0  0  0
 14 15  2  0  0  0
 14 96  1  0  0  0
 15 97  1  0  0  0
 16 17  2  0  0  0
 16 21  1  0  0  0
 16 31  1  0  0  0
 17 18  1  0  0  0
 17 98  1  0  0  0
 18 19  2  0  0  0
 18 99  1  0  0  0
 19 20  1  0  0  0
 19 24  1  0  0  0
 20 21  2  0  0  0
 20100  1  0  0  0
 21 23  1  0  0  0
 22 28  1  0  0  0
 22 32  2  0  0  0
 26 27  1  0  0  0
 28101  1  0  0  0
 28102  1  0  0  0
 29103  1  0  0  0
 29104  1  0  0  0
 33 34  1  0  0  0
 33 66  1  0  0  0
 33 70  2  0  0  0
 34 36  1  0  0  0
 34 59  1  0  0  0
 34105  1  0  0  0
 35 44  2  0  0  0
 35 45  1  0  0  0
 35 68  1  0  0  0
 36 56  1  0  0  0
 36106  1  0  0  0
 37 39  1  0  0  0
 37 47  1  0  0  0
 37 66  1  0  0  0
 37107  1  0  0  0
 38 43  2  0  0  0
 38 46  1  0  0  0
 38 47  1  0  0  0
 39 64  1  0  0  0
 39 67  2  0  0  0
 40 52  1  0  0  0
 40 53  2  0  0  0
 40 58  1  0  0  0
 41108  1  0  0  0
 41109  1  0  0  0
 41110  1  0  0  0
 41 48  1  0  0  0
 42 43  1  0  0  0
 42 66  1  0  0  0
 42111  1  0  0  0
 42112  1  0  0  0
 43 44  1  0  0  0
 44113  1  0  0  0
 45 46  2  0  0  0
 45114  1  0  0  0
 46115  1  0  0  0
 47116  1  0  0  0
 47117  1  0  0  0
 48 56  1  0  0  0
 48 65  1  0  0  0
 48118  1  0  0  0
 49 50  1  0  0  0
 49 53  1  0  0  0
 49 64  1  0  0  0
 49119  1  0  0  0
 50 51  1  0  0  0
 50120  1  0  0  0
 50121  1  0  0  0
 51 52  1  0  0  0
 51122  1  0  0  0
 51123  1  0  0  0
 52124  1  0  0  0
 52125  1  0  0  0
 53 54  1  0  0  0
 54 55  2  0  0  0
 54126  1  0  0  0
 55 57  1  0  0  0
 55127  1  0  0  0
 56 69  2  0  0  0
 57 58  2  0  0  0
 57128  1  0  0  0
 58129  1  0  0  0
 59 60  1  0  0  0
 59 61  1  0  0  0
 59 62  1  0  0  0
 60130  1  0  0  0
 60131  1  0  0  0
 60132  1  0  0  0
 61133  1  0  0  0
 61134  1  0  0  0
 61135  1  0  0  0
 62136  1  0  0  0
 62137  1  0  0  0
 62138  1  0  0  0
 63 65  1  0  0  0
 63139  1  0  0  0
 63140  1  0  0  0
 63141  1  0  0  0
 64142  1  0  0  0
 65143  1  0  0  0
 68 80  1  0  0  0
 71 72  2  0  0  0
 71 73  1  0  0  0
 71144  1  0  0  0
 72 74  1  0  0  0
 72145  1  0  0  0
 73 80  1  0  0  0
 73 81  2  0  0  0
 74 82  2  0  0  0
 74 84  1  0  0  0
 75 77  1  0  0  0
 75 79  1  0  0  0
 75146  1  0  0  0
 75147  1  0  0  0
 76 78  1  0  0  0
 76 79  1  0  0  0
 76148  1  0  0  0
 76149  1  0  0  0
 77 83  1  0  0  0
 77150  1  0  0  0
 77151  1  0  0  0
 78 83  1  0  0  0
 78152  1  0  0  0
 78153  1  0  0  0
 79 84  1  0  0  0
 79154  1  0  0  0
 80155  1  0  0  0
 80156  1  0  0  0
 81 82  1  0  0  0
 84157  1  0  0  0
M  ISO  4   1 100  68 101  80 101  83 100
M  END
> <chiral flag>
0

> <version>
0

> <s_m_source_file>
/data/baiqing/PycharmProjects/Reinvent-master-3.2/result/LINK_invent/BTK/process_docking_weight1_custom_sum_contain_oxygen_bond_distance_aromatic_linkinvent_7_9_3/rearranged_h_0185.sdf

> <i_m_source_file_index>
22

> <r_mmod_Potential_Energy-OPLS-2005>
220.192947387695

> <r_mmod_Stretch_Energy-OPLS-2005>
64.5538330078125

> <r_mmod_Bend_Energy-OPLS-2005>
161.440551757812

> <r_mmod_Torsional_Energy-OPLS-2005>
316.333831787109

> <r_mmod_Improper_Torsional_Energy-OPLS-2005>
17.1490993499756

> <r_mmod_Van_der_Waal_Energy-OPLS-2005>
146.772583007812

> <r_mmod_Electrostatic_Energy-OPLS-2005>
-294.472869873047

> <r_mmod_Solvation_Energy-OPLS-2005>
-227.46012878418

> <b_mmod_Minimization_Converged-OPLS-2005>
0

> <r_mmod_RMS_Derivative-OPLS-2005>
0.27764818072319

$$$$
22
                    3D
 Structure written by MMmdl.
147155  0  0  1  0            999 V2000
  -30.5116  -14.9289   20.4312 C   0  0  0  0  0  0
  -30.4525  -12.5720   19.4936 C   0  0  0  0  0  0
  -29.5265  -12.5324   18.2537 C   0  0  0  0  0  0
  -28.0569  -12.3191   18.6677 C   0  0  0  0  0  0
  -27.6363  -13.2378   19.8437 C   0  0  2  0  0  0
  -28.6801  -13.2280   20.9821 C   0  0  0  0  0  0
  -25.2490  -13.8187   20.5686 C   0  0  0  0  0  0
  -24.1800  -13.0432   20.9238 C   0  0  0  0  0  0
  -24.6399  -11.6912   20.8760 C   0  0  0  0  0  0
  -23.9075  -10.4290   21.0415 C   0  0  0  0  0  0
  -24.3622   -9.4203   21.9190 C   0  0  0  0  0  0
  -23.6294   -8.2241   22.0757 C   0  0  0  0  0  0
  -22.4276   -8.0282   21.3546 C   0  0  0  0  0  0
  -21.9913   -9.0259   20.4652 C   0  0  0  0  0  0
  -22.7246  -10.2136   20.3064 C   0  0  0  0  0  0
  -21.6854   -6.0735   22.5279 C   0  0  0  0  0  0
  -21.4015   -6.5638   23.8212 C   0  0  0  0  0  0
  -21.3660   -5.6792   24.9174 C   0  0  0  0  0  0
  -21.6043   -4.3054   24.7226 C   0  0  0  0  0  0
  -21.8819   -3.8146   23.4347 C   0  0  0  0  0  0
  -21.9192   -4.6963   22.3402 C   0  0  0  0  0  0
  -22.7820  -13.5216   21.1886 C   0  0  0  0  0  0
  -22.1661   -4.2148   21.0981 F   0  0  0  0  0  0
  -21.5628   -3.4538   25.7739 F   0  0  0  0  0  0
  -29.9622  -13.6489   20.3975 N   0  0  0  0  0  0
  -26.2910  -12.9400   20.3236 N   0  0  0  0  0  0
  -25.9328  -11.6542   20.5737 N   0  0  0  0  0  0
  -22.0458  -12.8214   22.0439 N   0  0  0  0  0  0
  -25.4148  -15.1910   20.4034 N   0  0  0  0  0  0
  -31.7056  -15.0503   20.1304 O   0  0  0  0  0  0
  -21.6640   -6.8880   21.4242 O   0  0  0  0  0  0
  -22.3514  -14.5521   20.6721 O   0  0  0  0  0  0
  -24.6432  -31.8444   23.1885 C   0  0  0  0  0  0
  -25.9206  -32.4697   23.8273 C   0  0  1  0  0  0
  -27.2205  -27.1407   20.1489 C   0  0  0  0  0  0
  -25.5954  -33.8502   24.2191 N   0  0  0  0  0  0
  -23.4468  -30.4640   21.5341 C   0  0  2  0  0  0
  -24.8967  -28.8920   20.1107 C   0  0  0  0  0  0
  -22.7565  -29.4549   22.4858 C   0  0  0  0  0  0
  -18.0306  -28.1394   22.8477 C   0  0  0  0  0  0
  -24.1493  -36.7257   23.2644 C   0  0  0  0  0  0
  -26.0029  -30.7197   21.3868 C   0  0  0  0  0  0
  -26.0748  -29.3316   20.7277 C   0  0  0  0  0  0
  -27.2376  -28.4730   20.7282 C   0  0  0  0  0  0
  -26.0137  -26.8019   19.4961 C   0  0  0  0  0  0
  -24.8790  -27.6402   19.4795 C   0  0  0  0  0  0
  -23.6732  -29.7937   20.1534 C   0  0  0  0  0  0
  -25.4126  -36.3032   24.0315 C   0  0  1  0  0  0
  -20.5918  -28.3721   23.1234 C   0  0  2  0  0  0
  -20.6790  -26.9424   22.5404 C   0  0  0  0  0  0
  -19.5763  -26.6379   21.5213 C   0  0  0  0  0  0
  -18.1945  -26.7932   22.1624 C   0  0  0  0  0  0
  -19.1562  -28.8875   23.2849 C   0  0  0  0  0  0
  -18.9478  -30.1470   23.8876 C   0  0  0  0  0  0
  -17.6474  -30.6591   24.0558 C   0  0  0  0  0  0
  -25.9073  -34.9407   23.5062 C   0  0  0  0  0  0
  -16.5366  -29.9083   23.6334 C   0  0  0  0  0  0
  -16.7290  -28.6501   23.0357 C   0  0  0  0  0  0
  -26.4527  -31.6564   25.0714 C   0  0  0  0  0  0
  -25.3712  -31.3754   26.1410 C   0  0  0  0  0  0
  -27.0393  -30.2959   24.6297 C   0  0  0  0  0  0
  -27.6055  -32.4331   25.7502 C   0  0  0  0  0  0
  -27.5572  -37.1791   24.8469 C   0  0  0  0  0  0
  -21.4258  -29.3049   22.3605 N   0  0  0  0  0  0
  -26.4292  -37.3741   23.9399 N   0  0  0  0  0  0
  -24.7174  -31.0304   22.0916 N   0  0  0  0  0  0
  -23.4208  -28.8096   23.3008 O   0  0  0  0  0  0
  -28.2768  -26.1587   20.2153 O   0  0  0  0  0  0
  -26.5658  -34.8904   22.4640 O   0  0  0  0  0  0
  -23.5551  -32.1317   23.7107 O   0  0  0  0  0  0
  -28.2761  -18.1537   20.6115 C   0  0  0  0  0  0
  -30.2815  -19.8826   20.3000 C   0  0  0  0  0  0
  -29.5778  -17.5509   20.5167 C   0  0  0  0  0  0
  -28.9549  -20.4573   20.3858 C   0  0  0  0  0  0
  -29.0093  -23.3089   20.3322 C   0  0  0  0  0  0
  -27.9828  -24.6331   20.1050 C   0  0  0  0  0  0
  -30.5749  -18.5027   20.3552 N   0  0  0  0  0  0
  -27.9808  -19.5089   20.5429 N   0  0  0  0  0  0
  -29.6356  -16.0233   20.6298 N   0  0  0  0  0  0
  -28.4510  -21.8545   20.3050 N   0  0  0  0  0  0
  -31.4843  -12.7439   19.1829 H   0  0  0  0  0  0
  -30.4526  -11.6100   20.0085 H   0  0  0  0  0  0
  -29.8415  -11.7420   17.5710 H   0  0  0  0  0  0
  -29.6179  -13.4683   17.7003 H   0  0  0  0  0  0
  -27.9463  -11.2745   18.9613 H   0  0  0  0  0  0
  -27.3961  -12.4673   17.8127 H   0  0  0  0  0  0
  -27.6092  -14.2464   19.4313 H   0  0  0  0  0  0
  -28.7612  -12.2356   21.4282 H   0  0  0  0  0  0
  -28.3805  -13.8992   21.7885 H   0  0  0  0  0  0
  -25.2766   -9.5676   22.4767 H   0  0  0  0  0  0
  -24.0001   -7.4630   22.7476 H   0  0  0  0  0  0
  -21.0844   -8.8783   19.8958 H   0  0  0  0  0  0
  -22.3707  -10.9678   19.6176 H   0  0  0  0  0  0
  -21.2008   -7.6147   23.9715 H   0  0  0  0  0  0
  -21.1482   -6.0522   25.9077 H   0  0  0  0  0  0
  -22.0596   -2.7609   23.2849 H   0  0  0  0  0  0
  -22.4069  -11.9880   22.4839 H   0  0  0  0  0  0
  -21.1076  -13.1248   22.2639 H   0  0  0  0  0  0
  -24.6238  -15.8223   20.4736 H   0  0  0  0  0  0
  -26.2066  -15.6058   19.9320 H   0  0  0  0  0  0
  -26.7272  -32.5306   23.1003 H   0  0  0  0  0  0
  -25.0079  -33.9617   25.0324 H   0  0  0  0  0  0
  -22.7492  -31.2898   21.3798 H   0  0  0  0  0  0
  -23.3751  -35.9595   23.3313 H   0  0  0  0  0  0
  -24.3573  -36.8881   22.2056 H   0  0  0  0  0  0
  -23.7258  -37.6460   23.6677 H   0  0  0  0  0  0
  -26.1587  -31.4746   20.6150 H   0  0  0  0  0  0
  -26.8732  -30.7693   22.0296 H   0  0  0  0  0  0
  -28.1349  -28.8056   21.2308 H   0  0  0  0  0  0
  -25.9089  -25.8466   19.0061 H   0  0  0  0  0  0
  -23.9800  -27.2981   18.9852 H   0  0  0  0  0  0
  -23.8093  -30.5685   19.3980 H   0  0  0  0  0  0
  -22.7881  -29.2356   19.8426 H   0  0  0  0  0  0
  -25.1318  -36.1863   25.0808 H   0  0  0  0  0  0
  -21.0012  -28.3314   24.1355 H   0  0  0  0  0  0
  -20.5684  -26.2335   23.3624 H   0  0  0  0  0  0
  -21.6656  -26.7429   22.1203 H   0  0  0  0  0  0
  -19.6925  -25.6283   21.1259 H   0  0  0  0  0  0
  -19.6701  -27.3175   20.6731 H   0  0  0  0  0  0
  -17.4213  -26.6673   21.4030 H   0  0  0  0  0  0
  -18.0348  -26.0081   22.9028 H   0  0  0  0  0  0
  -19.7954  -30.7292   24.2236 H   0  0  0  0  0  0
  -17.5028  -31.6270   24.5161 H   0  0  0  0  0  0
  -15.5366  -30.2978   23.7670 H   0  0  0  0  0  0
  -15.8691  -28.0811   22.7086 H   0  0  0  0  0  0
  -24.5897  -30.7096   25.7730 H   0  0  0  0  0  0
  -24.8897  -32.2937   26.4780 H   0  0  0  0  0  0
  -25.7995  -30.8963   27.0222 H   0  0  0  0  0  0
  -26.3012  -29.6679   24.1296 H   0  0  0  0  0  0
  -27.3996  -29.7262   25.4874 H   0  0  0  0  0  0
  -27.8924  -30.4194   23.9622 H   0  0  0  0  0  0
  -27.2645  -33.3648   26.2029 H   0  0  0  0  0  0
  -28.3894  -32.6865   25.0352 H   0  0  0  0  0  0
  -28.0694  -31.8490   26.5461 H   0  0  0  0  0  0
  -28.2603  -38.0073   24.7483 H   0  0  0  0  0  0
  -28.1054  -36.2601   24.6341 H   0  0  0  0  0  0
  -27.2284  -37.1492   25.8871 H   0  0  0  0  0  0
  -20.9464  -29.8759   21.6785 H   0  0  0  0  0  0
  -26.0160  -38.2814   24.1382 H   0  0  0  0  0  0
  -27.4135  -17.5176   20.7458 H   0  0  0  0  0  0
  -31.1330  -20.5342   20.1685 H   0  0  0  0  0  0
  -29.5019  -23.4359   21.2969 H   0  0  0  0  0  0
  -29.8074  -23.3679   19.5913 H   0  0  0  0  0  0
  -27.1390  -24.4667   20.7758 H   0  0  0  0  0  0
  -27.5822  -24.4897   19.1019 H   0  0  0  0  0  0
  -28.7261  -15.6535   20.8559 H   0  0  0  0  0  0
  -27.4361  -21.8615   20.3367 H   0  0  0  0  0  0
  1 25  1  0  0  0
  1 30  2  0  0  0
  1 79  1  0  0  0
  2  3  1  0  0  0
  2 25  1  0  0  0
  2 81  1  0  0  0
  2 82  1  0  0  0
  3  4  1  0  0  0
  3 83  1  0  0  0
  3 84  1  0  0  0
  4  5  1  0  0  0
  4 85  1  0  0  0
  4 86  1  0  0  0
  5  6  1  0  0  0
  5 26  1  0  0  0
  5 87  1  0  0  0
  6 25  1  0  0  0
  6 88  1  0  0  0
  6 89  1  0  0  0
  7  8  2  0  0  0
  7 26  1  0  0  0
  7 29  1  0  0  0
  8  9  1  0  0  0
  8 22  1  0  0  0
  9 10  1  0  0  0
  9 27  2  0  0  0
 10 11  2  0  0  0
 10 15  1  0  0  0
 11 12  1  0  0  0
 11 90  1  0  0  0
 12 13  2  0  0  0
 12 91  1  0  0  0
 13 14  1  0  0  0
 13 31  1  0  0  0
 14 15  2  0  0  0
 14 92  1  0  0  0
 15 93  1  0  0  0
 16 17  2  0  0  0
 16 21  1  0  0  0
 16 31  1  0  0  0
 17 18  1  0  0  0
 17 94  1  0  0  0
 18 19  2  0  0  0
 18 95  1  0  0  0
 19 20  1  0  0  0
 19 24  1  0  0  0
 20 21  2  0  0  0
 20 96  1  0  0  0
 21 23  1  0  0  0
 22 28  1  0  0  0
 22 32  2  0  0  0
 26 27  1  0  0  0
 28 97  1  0  0  0
 28 98  1  0  0  0
 29 99  1  0  0  0
 29100  1  0  0  0
 33 34  1  0  0  0
 33 66  1  0  0  0
 33 70  2  0  0  0
 34 36  1  0  0  0
 34 59  1  0  0  0
 34101  1  0  0  0
 35 44  2  0  0  0
 35 45  1  0  0  0
 35 68  1  0  0  0
 36 56  1  0  0  0
 36102  1  0  0  0
 37 39  1  0  0  0
 37 47  1  0  0  0
 37 66  1  0  0  0
 37103  1  0  0  0
 38 43  2  0  0  0
 38 46  1  0  0  0
 38 47  1  0  0  0
 39 64  1  0  0  0
 39 67  2  0  0  0
 40 52  1  0  0  0
 40 53  2  0  0  0
 40 58  1  0  0  0
 41104  1  0  0  0
 41105  1  0  0  0
 41106  1  0  0  0
 41 48  1  0  0  0
 42 43  1  0  0  0
 42 66  1  0  0  0
 42107  1  0  0  0
 42108  1  0  0  0
 43 44  1  0  0  0
 44109  1  0  0  0
 45 46  2  0  0  0
 45110  1  0  0  0
 46111  1  0  0  0
 47112  1  0  0  0
 47113  1  0  0  0
 48 56  1  0  0  0
 48 65  1  0  0  0
 48114  1  0  0  0
 49 50  1  0  0  0
 49 53  1  0  0  0
 49 64  1  0  0  0
 49115  1  0  0  0
 50 51  1  0  0  0
 50116  1  0  0  0
 50117  1  0  0  0
 51 52  1  0  0  0
 51118  1  0  0  0
 51119  1  0  0  0
 52120  1  0  0  0
 52121  1  0  0  0
 53 54  1  0  0  0
 54 55  2  0  0  0
 54122  1  0  0  0
 55 57  1  0  0  0
 55123  1  0  0  0
 56 69  2  0  0  0
 57 58  2  0  0  0
 57124  1  0  0  0
 58125  1  0  0  0
 59 60  1  0  0  0
 59 61  1  0  0  0
 59 62  1  0  0  0
 60126  1  0  0  0
 60127  1  0  0  0
 60128  1  0  0  0
 61129  1  0  0  0
 61130  1  0  0  0
 61131  1  0  0  0
 62132  1  0  0  0
 62133  1  0  0  0
 62134  1  0  0  0
 63 65  1  0  0  0
 63135  1  0  0  0
 63136  1  0  0  0
 63137  1  0  0  0
 64138  1  0  0  0
 65139  1  0  0  0
 68 76  1  0  0  0
 71 73  2  0  0  0
 71 78  1  0  0  0
 71140  1  0  0  0
 72 74  1  0  0  0
 72 77  2  0  0  0
 72141  1  0  0  0
 73 77  1  0  0  0
 73 79  1  0  0  0
 74 78  2  0  0  0
 74 80  1  0  0  0
 75 76  1  0  0  0
 75 80  1  0  0  0
 75142  1  0  0  0
 75143  1  0  0  0
 76144  1  0  0  0
 76145  1  0  0  0
 79146  1  0  0  0
 80147  1  0  0  0
M  ISO  4   1 100  68 101  76 101  79 100
M  END
> <chiral flag>
0

> <version>
0

> <s_m_source_file>
/data/baiqing/PycharmProjects/Reinvent-master-3.2/result/LINK_invent/BTK/process_docking_weight1_custom_sum_contain_oxygen_bond_distance_aromatic_linkinvent_7_9_3/rearranged_h_0185.sdf

> <i_m_source_file_index>
23

> <r_mmod_Potential_Energy-OPLS-2005>
437.809753417969

> <r_mmod_Stretch_Energy-OPLS-2005>
225.389709472656

> <r_mmod_Bend_Energy-OPLS-2005>
296.636901855469

> <r_mmod_Torsional_Energy-OPLS-2005>
195.28742980957

> <r_mmod_Improper_Torsional_Energy-OPLS-2005>
5.12456035614014

> <r_mmod_Van_der_Waal_Energy-OPLS-2005>
134.266662597656

> <r_mmod_Electrostatic_Energy-OPLS-2005>
-355.329986572266

> <r_mmod_Solvation_Energy-OPLS-2005>
-246.914047241211

> <b_mmod_Minimization_Converged-OPLS-2005>
0

> <r_mmod_RMS_Derivative-OPLS-2005>
0.304456263780594

$$$$
23
                    3D
 Structure written by MMmdl.
153161  0  0  1  0            999 V2000
  -30.5766  -15.0658   20.4040 C   0  0  0  0  0  0
  -30.4184  -12.6803   19.4994 C   0  0  0  0  0  0
  -29.5103  -12.5360   18.2594 C   0  0  0  0  0  0
  -28.0545  -12.3010   18.6931 C   0  0  0  0  0  0
  -27.6141  -13.2658   19.8249 C   0  0  2  0  0  0
  -28.6586  -13.3892   20.9543 C   0  0  0  0  0  0
  -25.2407  -13.8252   20.5749 C   0  0  0  0  0  0
  -24.1745  -13.0450   20.9251 C   0  0  0  0  0  0
  -24.6386  -11.6942   20.8771 C   0  0  0  0  0  0
  -23.9082  -10.4299   21.0411 C   0  0  0  0  0  0
  -24.3632   -9.4211   21.9184 C   0  0  0  0  0  0
  -23.6305   -8.2246   22.0754 C   0  0  0  0  0  0
  -22.4286   -8.0282   21.3542 C   0  0  0  0  0  0
  -21.9924   -9.0257   20.4643 C   0  0  0  0  0  0
  -22.7257  -10.2136   20.3056 C   0  0  0  0  0  0
  -21.6856   -6.0740   22.5278 C   0  0  0  0  0  0
  -21.4015   -6.5644   23.8211 C   0  0  0  0  0  0
  -21.3655   -5.6796   24.9171 C   0  0  0  0  0  0
  -21.6043   -4.3059   24.7224 C   0  0  0  0  0  0
  -21.8820   -3.8151   23.4345 C   0  0  0  0  0  0
  -21.9195   -4.6967   22.3400 C   0  0  0  0  0  0
  -22.7762  -13.5201   21.1894 C   0  0  0  0  0  0
  -22.1664   -4.2154   21.0978 F   0  0  0  0  0  0
  -21.5626   -3.4542   25.7735 F   0  0  0  0  0  0
  -29.9055  -13.8317   20.3162 N   0  0  0  0  0  0
  -26.2827  -12.9512   20.3255 N   0  0  0  0  0  0
  -25.9324  -11.6622   20.5761 N   0  0  0  0  0  0
  -22.0425  -12.8175   22.0447 N   0  0  0  0  0  0
  -25.4066  -15.1978   20.4169 N   0  0  0  0  0  0
  -31.7944  -14.9756   20.1972 O   0  0  0  0  0  0
  -21.6646   -6.8882   21.4239 O   0  0  0  0  0  0
  -22.3438  -14.5500   20.6734 O   0  0  0  0  0  0
  -24.6510  -31.8360   23.1816 C   0  0  0  0  0  0
  -25.9249  -32.4651   23.8230 C   0  0  1  0  0  0
  -27.2125  -27.0540   20.1628 C   0  0  0  0  0  0
  -25.5966  -33.8463   24.2146 N   0  0  0  0  0  0
  -23.4585  -30.4531   21.5285 C   0  0  2  0  0  0
  -24.9091  -28.8652   20.1093 C   0  0  0  0  0  0
  -22.7601  -29.4509   22.4824 C   0  0  0  0  0  0
  -18.0309  -28.1407   22.8468 C   0  0  0  0  0  0
  -24.1492  -36.7229   23.2644 C   0  0  0  0  0  0
  -26.0200  -30.6835   21.3923 C   0  0  0  0  0  0
  -26.0896  -29.2869   20.7341 C   0  0  0  0  0  0
  -27.2406  -28.3988   20.7406 C   0  0  0  0  0  0
  -26.0058  -26.7544   19.4934 C   0  0  0  0  0  0
  -24.8851  -27.6158   19.4711 C   0  0  0  0  0  0
  -23.6901  -29.7781   20.1498 C   0  0  0  0  0  0
  -25.4128  -36.3004   24.0309 C   0  0  1  0  0  0
  -20.5929  -28.3738   23.1216 C   0  0  2  0  0  0
  -20.6796  -26.9432   22.5406 C   0  0  0  0  0  0
  -19.5771  -26.6387   21.5213 C   0  0  0  0  0  0
  -18.1947  -26.7942   22.1620 C   0  0  0  0  0  0
  -19.1568  -28.8890   23.2829 C   0  0  0  0  0  0
  -18.9486  -30.1483   23.8860 C   0  0  0  0  0  0
  -17.6482  -30.6598   24.0559 C   0  0  0  0  0  0
  -25.9090  -34.9384   23.5040 C   0  0  0  0  0  0
  -16.5373  -29.9090   23.6344 C   0  0  0  0  0  0
  -16.7292  -28.6513   23.0357 C   0  0  0  0  0  0
  -26.4543  -31.6551   25.0706 C   0  0  0  0  0  0
  -25.3704  -31.3765   26.1383 C   0  0  0  0  0  0
  -27.0422  -30.2940   24.6344 C   0  0  0  0  0  0
  -27.6062  -32.4334   25.7497 C   0  0  0  0  0  0
  -27.5570  -37.1765   24.8462 C   0  0  0  0  0  0
  -21.4285  -29.3046   22.3575 N   0  0  0  0  0  0
  -26.4281  -37.3731   23.9411 N   0  0  0  0  0  0
  -24.7304  -31.0142   22.0887 N   0  0  0  0  0  0
  -23.4206  -28.8066   23.3011 O   0  0  0  0  0  0
  -28.2369  -26.0153   20.2451 O   0  0  0  0  0  0
  -26.5682  -34.8892   22.4624 O   0  0  0  0  0  0
  -23.5614  -32.1279   23.6988 O   0  0  0  0  0  0
  -30.2050  -19.0772   19.5321 C   0  0  0  0  0  0
  -28.3051  -18.5713   20.7794 C   0  0  0  0  0  0
  -30.8278  -17.6127   19.9252 C   0  0  0  0  0  0
  -28.8808  -17.0650   21.1419 C   0  0  0  0  0  0
  -29.2398  -19.8608   20.5265 C   0  0  0  0  0  0
  -28.4992  -21.3811   20.0972 C   0  0  0  0  0  0
  -28.8926  -23.0423   20.4020 C   0  0  0  0  0  0
  -27.9552  -24.4591   20.0429 C   0  0  0  0  0  0
  -29.9835  -16.4049   20.3348 N   0  0  0  0  0  0
  -31.4488  -12.8232   19.1715 H   0  0  0  0  0  0
  -30.4252  -11.7596   20.0853 H   0  0  0  0  0  0
  -29.8522  -11.7134   17.6296 H   0  0  0  0  0  0
  -29.5726  -13.4385   17.6495 H   0  0  0  0  0  0
  -27.9820  -11.2703   19.0423 H   0  0  0  0  0  0
  -27.3824  -12.3800   17.8379 H   0  0  0  0  0  0
  -27.5467  -14.2461   19.3516 H   0  0  0  0  0  0
  -28.7884  -12.4445   21.4840 H   0  0  0  0  0  0
  -28.3369  -14.1197   21.6974 H   0  0  0  0  0  0
  -25.2774   -9.5689   22.4765 H   0  0  0  0  0  0
  -24.0013   -7.4637   22.7475 H   0  0  0  0  0  0
  -21.0859   -8.8775   19.8946 H   0  0  0  0  0  0
  -22.3711  -10.9676   19.6169 H   0  0  0  0  0  0
  -21.2009   -7.6154   23.9713 H   0  0  0  0  0  0
  -21.1473   -6.0527   25.9072 H   0  0  0  0  0  0
  -22.0603   -2.7616   23.2844 H   0  0  0  0  0  0
  -22.4068  -11.9849   22.4833 H   0  0  0  0  0  0
  -21.1032  -13.1169   22.2648 H   0  0  0  0  0  0
  -24.6404  -15.8521   20.5317 H   0  0  0  0  0  0
  -26.2578  -15.6371   20.0910 H   0  0  0  0  0  0
  -26.7304  -32.5223   23.0940 H   0  0  0  0  0  0
  -25.0076  -33.9566   25.0270 H   0  0  0  0  0  0
  -22.7658  -31.2819   21.3677 H   0  0  0  0  0  0
  -23.3761  -35.9552   23.3294 H   0  0  0  0  0  0
  -24.3573  -36.8884   22.2061 H   0  0  0  0  0  0
  -23.7243  -37.6416   23.6699 H   0  0  0  0  0  0
  -26.1845  -31.4337   20.6175 H   0  0  0  0  0  0
  -26.8871  -30.7372   22.0387 H   0  0  0  0  0  0
  -28.1364  -28.7153   21.2565 H   0  0  0  0  0  0
  -25.8929  -25.7989   19.0029 H   0  0  0  0  0  0
  -23.9852  -27.2898   18.9680 H   0  0  0  0  0  0
  -23.8337  -30.5517   19.3944 H   0  0  0  0  0  0
  -22.8023  -29.2265   19.8363 H   0  0  0  0  0  0
  -25.1317  -36.1815   25.0799 H   0  0  0  0  0  0
  -21.0011  -28.3340   24.1342 H   0  0  0  0  0  0
  -20.5698  -26.2346   23.3631 H   0  0  0  0  0  0
  -21.6657  -26.7440   22.1195 H   0  0  0  0  0  0
  -19.6940  -25.6291   21.1260 H   0  0  0  0  0  0
  -19.6718  -27.3181   20.6730 H   0  0  0  0  0  0
  -17.4219  -26.6681   21.4021 H   0  0  0  0  0  0
  -18.0342  -26.0099   22.9030 H   0  0  0  0  0  0
  -19.7966  -30.7302   24.2214 H   0  0  0  0  0  0
  -17.5042  -31.6276   24.5166 H   0  0  0  0  0  0
  -15.5373  -30.2980   23.7699 H   0  0  0  0  0  0
  -15.8692  -28.0825   22.7090 H   0  0  0  0  0  0
  -24.5903  -30.7095   25.7696 H   0  0  0  0  0  0
  -24.8863  -32.2952   26.4712 H   0  0  0  0  0  0
  -25.7960  -30.9005   27.0225 H   0  0  0  0  0  0
  -26.3065  -29.6638   24.1337 H   0  0  0  0  0  0
  -27.3996  -29.7270   25.4950 H   0  0  0  0  0  0
  -27.8984  -30.4160   23.9705 H   0  0  0  0  0  0
  -27.2661  -33.3672   26.1984 H   0  0  0  0  0  0
  -28.3918  -32.6835   25.0355 H   0  0  0  0  0  0
  -28.0676  -31.8517   26.5487 H   0  0  0  0  0  0
  -28.2563  -38.0083   24.7519 H   0  0  0  0  0  0
  -28.1087  -36.2610   24.6275 H   0  0  0  0  0  0
  -27.2283  -37.1388   25.8862 H   0  0  0  0  0  0
  -20.9513  -29.8744   21.6728 H   0  0  0  0  0  0
  -26.0134  -38.2786   24.1442 H   0  0  0  0  0  0
  -29.6847  -18.9643   18.5797 H   0  0  0  0  0  0
  -31.0426  -19.7379   19.3049 H   0  0  0  0  0  0
  -27.5986  -18.8389   21.5662 H   0  0  0  0  0  0
  -27.6797  -18.4574   19.8924 H   0  0  0  0  0  0
  -31.5399  -17.7716   20.7365 H   0  0  0  0  0  0
  -31.4397  -17.2993   19.0777 H   0  0  0  0  0  0
  -28.0342  -16.3801   21.1552 H   0  0  0  0  0  0
  -29.2396  -17.0892   22.1720 H   0  0  0  0  0  0
  -29.7891  -20.0399   21.4520 H   0  0  0  0  0  0
  -27.4992  -21.2948   20.5225 H   0  0  0  0  0  0
  -28.3172  -21.3184   19.0243 H   0  0  0  0  0  0
  -29.8634  -23.2045   19.9330 H   0  0  0  0  0  0
  -29.1015  -23.0999   21.4706 H   0  0  0  0  0  0
  -27.0032  -24.2916   20.5477 H   0  0  0  0  0  0
  -27.7204  -24.3701   18.9818 H   0  0  0  0  0  0
  1 25  1  0  0  0
  1 30  2  0  0  0
  1 79  1  0  0  0
  2  3  1  0  0  0
  2 25  1  0  0  0
  2 80  1  0  0  0
  2 81  1  0  0  0
  3  4  1  0  0  0
  3 82  1  0  0  0
  3 83  1  0  0  0
  4  5  1  0  0  0
  4 84  1  0  0  0
  4 85  1  0  0  0
  5  6  1  0  0  0
  5 26  1  0  0  0
  5 86  1  0  0  0
  6 25  1  0  0  0
  6 87  1  0  0  0
  6 88  1  0  0  0
  7  8  2  0  0  0
  7 26  1  0  0  0
  7 29  1  0  0  0
  8  9  1  0  0  0
  8 22  1  0  0  0
  9 10  1  0  0  0
  9 27  2  0  0  0
 10 11  2  0  0  0
 10 15  1  0  0  0
 11 12  1  0  0  0
 11 89  1  0  0  0
 12 13  2  0  0  0
 12 90  1  0  0  0
 13 14  1  0  0  0
 13 31  1  0  0  0
 14 15  2  0  0  0
 14 91  1  0  0  0
 15 92  1  0  0  0
 16 17  2  0  0  0
 16 21  1  0  0  0
 16 31  1  0  0  0
 17 18  1  0  0  0
 17 93  1  0  0  0
 18 19  2  0  0  0
 18 94  1  0  0  0
 19 20  1  0  0  0
 19 24  1  0  0  0
 20 21  2  0  0  0
 20 95  1  0  0  0
 21 23  1  0  0  0
 22 28  1  0  0  0
 22 32  2  0  0  0
 26 27  1  0  0  0
 28 96  1  0  0  0
 28 97  1  0  0  0
 29 98  1  0  0  0
 29 99  1  0  0  0
 33 34  1  0  0  0
 33 66  1  0  0  0
 33 70  2  0  0  0
 34 36  1  0  0  0
 34 59  1  0  0  0
 34100  1  0  0  0
 35 44  2  0  0  0
 35 45  1  0  0  0
 35 68  1  0  0  0
 36 56  1  0  0  0
 36101  1  0  0  0
 37 39  1  0  0  0
 37 47  1  0  0  0
 37 66  1  0  0  0
 37102  1  0  0  0
 38 43  2  0  0  0
 38 46  1  0  0  0
 38 47  1  0  0  0
 39 64  1  0  0  0
 39 67  2  0  0  0
 40 52  1  0  0  0
 40 53  2  0  0  0
 40 58  1  0  0  0
 41103  1  0  0  0
 41104  1  0  0  0
 41105  1  0  0  0
 41 48  1  0  0  0
 42 43  1  0  0  0
 42 66  1  0  0  0
 42106  1  0  0  0
 42107  1  0  0  0
 43 44  1  0  0  0
 44108  1  0  0  0
 45 46  2  0  0  0
 45109  1  0  0  0
 46110  1  0  0  0
 47111  1  0  0  0
 47112  1  0  0  0
 48 56  1  0  0  0
 48 65  1  0  0  0
 48113  1  0  0  0
 49 50  1  0  0  0
 49 53  1  0  0  0
 49 64  1  0  0  0
 49114  1  0  0  0
 50 51  1  0  0  0
 50115  1  0  0  0
 50116  1  0  0  0
 51 52  1  0  0  0
 51117  1  0  0  0
 51118  1  0  0  0
 52119  1  0  0  0
 52120  1  0  0  0
 53 54  1  0  0  0
 54 55  2  0  0  0
 54121  1  0  0  0
 55 57  1  0  0  0
 55122  1  0  0  0
 56 69  2  0  0  0
 57 58  2  0  0  0
 57123  1  0  0  0
 58124  1  0  0  0
 59 60  1  0  0  0
 59 61  1  0  0  0
 59 62  1  0  0  0
 60125  1  0  0  0
 60126  1  0  0  0
 60127  1  0  0  0
 61128  1  0  0  0
 61129  1  0  0  0
 61130  1  0  0  0
 62131  1  0  0  0
 62132  1  0  0  0
 62133  1  0  0  0
 63 65  1  0  0  0
 63134  1  0  0  0
 63135  1  0  0  0
 63136  1  0  0  0
 64137  1  0  0  0
 65138  1  0  0  0
 68 78  1  0  0  0
 71 73  1  0  0  0
 71 75  1  0  0  0
 71139  1  0  0  0
 71140  1  0  0  0
 72 74  1  0  0  0
 72 75  1  0  0  0
 72141  1  0  0  0
 72142  1  0  0  0
 73 79  1  0  0  0
 73143  1  0  0  0
 73144  1  0  0  0
 74 79  1  0  0  0
 74145  1  0  0  0
 74146  1  0  0  0
 75 76  1  0  0  0
 75147  1  0  0  0
 76 77  1  0  0  0
 76148  1  0  0  0
 76149  1  0  0  0
 77 78  1  0  0  0
 77150  1  0  0  0
 77151  1  0  0  0
 78152  1  0  0  0
 78153  1  0  0  0
M  ISO  4   1 100  68 101  78 101  79 100
M  END
> <chiral flag>
0

> <version>
0

> <s_m_source_file>
/data/baiqing/PycharmProjects/Reinvent-master-3.2/result/LINK_invent/BTK/process_docking_weight1_custom_sum_contain_oxygen_bond_distance_aromatic_linkinvent_7_9_3/rearranged_h_0185.sdf

> <i_m_source_file_index>
24

> <r_mmod_Potential_Energy-OPLS-2005>
1001.23303222656

> <r_mmod_Stretch_Energy-OPLS-2005>
365.684143066406

> <r_mmod_Bend_Energy-OPLS-2005>
382.273956298828

> <r_mmod_Torsional_Energy-OPLS-2005>
307.644104003906

> <r_mmod_Improper_Torsional_Energy-OPLS-2005>
12.9353694915771

> <r_mmod_Van_der_Waal_Energy-OPLS-2005>
118.705436706543

> <r_mmod_Electrostatic_Energy-OPLS-2005>
-271.370513916016

> <r_mmod_Solvation_Energy-OPLS-2005>
-195.035430908203

> <b_mmod_Minimization_Converged-OPLS-2005>
0

> <r_mmod_RMS_Derivative-OPLS-2005>
0.791967809200287

$$$$
24
                    3D
 Structure written by MMmdl.
153161  0  0  1  0            999 V2000
  -30.4815  -15.3157   20.3556 C   0  0  0  0  0  0
  -30.4131  -12.8426   19.5370 C   0  0  0  0  0  0
  -29.5333  -12.5942   18.2878 C   0  0  0  0  0  0
  -28.0809  -12.3190   18.7013 C   0  0  0  0  0  0
  -27.6052  -13.2919   19.8105 C   0  0  2  0  0  0
  -28.6286  -13.5234   20.9439 C   0  0  0  0  0  0
  -25.2385  -13.8300   20.5724 C   0  0  0  0  0  0
  -24.1765  -13.0457   20.9240 C   0  0  0  0  0  0
  -24.6400  -11.6958   20.8728 C   0  0  0  0  0  0
  -23.9092  -10.4320   21.0356 C   0  0  0  0  0  0
  -24.3660   -9.4241   21.9130 C   0  0  0  0  0  0
  -23.6325   -8.2269   22.0731 C   0  0  0  0  0  0
  -22.4283   -8.0287   21.3562 C   0  0  0  0  0  0
  -21.9931   -9.0240   20.4647 C   0  0  0  0  0  0
  -22.7258  -10.2124   20.3030 C   0  0  0  0  0  0
  -21.6866   -6.0721   22.5248 C   0  0  0  0  0  0
  -21.4046   -6.5624   23.8181 C   0  0  0  0  0  0
  -21.3681   -5.6775   24.9143 C   0  0  0  0  0  0
  -21.6039   -4.3034   24.7182 C   0  0  0  0  0  0
  -21.8833   -3.8124   23.4311 C   0  0  0  0  0  0
  -21.9228   -4.6953   22.3376 C   0  0  0  0  0  0
  -22.7783  -13.5200   21.1863 C   0  0  0  0  0  0
  -22.1669   -4.2135   21.0940 F   0  0  0  0  0  0
  -21.5641   -3.4514   25.7695 F   0  0  0  0  0  0
  -29.8539  -14.0259   20.3115 N   0  0  0  0  0  0
  -26.2804  -12.9588   20.3172 N   0  0  0  0  0  0
  -25.9326  -11.6656   20.5650 N   0  0  0  0  0  0
  -22.0447  -12.8208   22.0445 N   0  0  0  0  0  0
  -25.4023  -15.2048   20.4146 N   0  0  0  0  0  0
  -31.6937  -15.2046   20.1296 O   0  0  0  0  0  0
  -21.6685   -6.8861   21.4203 O   0  0  0  0  0  0
  -22.3415  -14.5435   20.6612 O   0  0  0  0  0  0
  -24.6674  -31.8208   23.1683 C   0  0  0  0  0  0
  -25.9340  -32.4585   23.8176 C   0  0  1  0  0  0
  -27.1991  -26.8912   20.1953 C   0  0  0  0  0  0
  -25.6001  -33.8407   24.2087 N   0  0  0  0  0  0
  -23.4799  -30.4306   21.5222 C   0  0  2  0  0  0
  -24.9283  -28.8126   20.1115 C   0  0  0  0  0  0
  -22.7668  -29.4426   22.4816 C   0  0  0  0  0  0
  -18.0304  -28.1378   22.8458 C   0  0  0  0  0  0
  -24.1501  -36.7209   23.2644 C   0  0  0  0  0  0
  -26.0502  -30.6109   21.4010 C   0  0  0  0  0  0
  -26.1142  -29.1996   20.7486 C   0  0  0  0  0  0
  -27.2451  -28.2621   20.7629 C   0  0  0  0  0  0
  -25.9877  -26.6633   19.5042 C   0  0  0  0  0  0
  -24.8945  -27.5667   19.4661 C   0  0  0  0  0  0
  -23.7182  -29.7469   20.1470 C   0  0  0  0  0  0
  -25.4158  -36.2988   24.0302 C   0  0  1  0  0  0
  -20.5936  -28.3738   23.1193 C   0  0  2  0  0  0
  -20.6794  -26.9423   22.5403 C   0  0  0  0  0  0
  -19.5779  -26.6348   21.5227 C   0  0  0  0  0  0
  -18.1957  -26.7902   22.1618 C   0  0  0  0  0  0
  -19.1563  -28.8883   23.2796 C   0  0  0  0  0  0
  -18.9483  -30.1480   23.8828 C   0  0  0  0  0  0
  -17.6471  -30.6586   24.0554 C   0  0  0  0  0  0
  -25.9129  -34.9361   23.5022 C   0  0  0  0  0  0
  -16.5356  -29.9072   23.6336 C   0  0  0  0  0  0
  -16.7279  -28.6475   23.0372 C   0  0  0  0  0  0
  -26.4574  -31.6504   25.0690 C   0  0  0  0  0  0
  -25.3735  -31.3752   26.1367 C   0  0  0  0  0  0
  -27.0430  -30.2854   24.6419 C   0  0  0  0  0  0
  -27.6063  -32.4300   25.7503 C   0  0  0  0  0  0
  -27.5585  -37.1784   24.8469 C   0  0  0  0  0  0
  -21.4336  -29.3034   22.3559 N   0  0  0  0  0  0
  -26.4295  -37.3734   23.9411 N   0  0  0  0  0  0
  -24.7545  -30.9829   22.0838 N   0  0  0  0  0  0
  -23.4201  -28.8019   23.3076 O   0  0  0  0  0  0
  -28.1905  -25.7705   20.2673 O   0  0  0  0  0  0
  -26.5746  -34.8889   22.4616 O   0  0  0  0  0  0
  -23.5734  -32.1191   23.6751 O   0  0  0  0  0  0
  -30.2775  -19.1530   21.5228 C   0  0  0  0  0  0
  -30.8545  -17.6730   21.3154 C   0  0  0  0  0  0
  -28.9962  -17.8775   20.0240 C   0  0  0  0  0  0
  -29.4367  -19.5551   20.2849 C   0  0  1  0  0  0
  -29.7111  -22.8231   21.7305 C   0  0  0  0  0  0
  -27.9186  -24.1236   20.2224 C   0  0  0  0  0  0
  -28.9403  -22.6169   20.4059 C   0  0  2  0  0  0
  -29.9304  -16.6967   20.6413 N   0  0  0  0  0  0
  -28.5215  -20.9816   20.2884 N   0  3  0  0  0  0
  -31.4429  -13.0031   19.2137 H   0  0  0  0  0  0
  -30.4498  -11.9438   20.1541 H   0  0  0  0  0  0
  -29.9203  -11.7544   17.7072 H   0  0  0  0  0  0
  -29.5699  -13.4661   17.6351 H   0  0  0  0  0  0
  -28.0249  -11.2893   19.0517 H   0  0  0  0  0  0
  -27.4228  -12.3849   17.8331 H   0  0  0  0  0  0
  -27.5033  -14.2483   19.2949 H   0  0  0  0  0  0
  -28.8061  -12.6145   21.5193 H   0  0  0  0  0  0
  -28.2507  -14.2691   21.6460 H   0  0  0  0  0  0
  -25.2814   -9.5709   22.4706 H   0  0  0  0  0  0
  -24.0045   -7.4658   22.7461 H   0  0  0  0  0  0
  -21.0856   -8.8727   19.8961 H   0  0  0  0  0  0
  -22.3675  -10.9633   19.6148 H   0  0  0  0  0  0
  -21.2013   -7.6125   23.9683 H   0  0  0  0  0  0
  -21.1512   -6.0500   25.9060 H   0  0  0  0  0  0
  -22.0606   -2.7581   23.2802 H   0  0  0  0  0  0
  -22.4050  -11.9911   22.4918 H   0  0  0  0  0  0
  -21.1016  -13.1170   22.2528 H   0  0  0  0  0  0
  -24.6339  -15.8547   20.5386 H   0  0  0  0  0  0
  -26.2529  -15.6515   20.0908 H   0  0  0  0  0  0
  -26.7422  -32.5101   23.0890 H   0  0  0  0  0  0
  -25.0132  -33.9519   25.0219 H   0  0  0  0  0  0
  -22.7940  -31.2650   21.3603 H   0  0  0  0  0  0
  -23.3794  -35.9500   23.3269 H   0  0  0  0  0  0
  -24.3573  -36.8884   22.2065 H   0  0  0  0  0  0
  -23.7211  -37.6375   23.6702 H   0  0  0  0  0  0
  -26.2379  -31.3417   20.6125 H   0  0  0  0  0  0
  -26.9085  -30.6706   22.0587 H   0  0  0  0  0  0
  -28.1399  -28.5526   21.2963 H   0  0  0  0  0  0
  -25.8420  -25.7112   19.0159 H   0  0  0  0  0  0
  -23.9933  -27.2692   18.9448 H   0  0  0  0  0  0
  -23.8762  -30.5175   19.3926 H   0  0  0  0  0  0
  -22.8199  -29.2081   19.8356 H   0  0  0  0  0  0
  -25.1348  -36.1811   25.0800 H   0  0  0  0  0  0
  -20.9988  -28.3344   24.1329 H   0  0  0  0  0  0
  -20.5727  -26.2350   23.3645 H   0  0  0  0  0  0
  -21.6661  -26.7457   22.1197 H   0  0  0  0  0  0
  -19.6963  -25.6255   21.1287 H   0  0  0  0  0  0
  -19.6706  -27.3127   20.6754 H   0  0  0  0  0  0
  -17.4229  -26.6628   21.4022 H   0  0  0  0  0  0
  -18.0360  -26.0039   22.9015 H   0  0  0  0  0  0
  -19.7971  -30.7321   24.2123 H   0  0  0  0  0  0
  -17.5037  -31.6259   24.5175 H   0  0  0  0  0  0
  -15.5360  -30.2980   23.7691 H   0  0  0  0  0  0
  -15.8667  -28.0801   22.7133 H   0  0  0  0  0  0
  -24.5887  -30.7127   25.7698 H   0  0  0  0  0  0
  -24.8966  -32.2938   26.4793 H   0  0  0  0  0  0
  -25.7999  -30.8920   27.0165 H   0  0  0  0  0  0
  -26.3062  -29.6551   24.1414 H   0  0  0  0  0  0
  -27.3916  -29.7218   25.5090 H   0  0  0  0  0  0
  -27.9038  -30.4016   23.9832 H   0  0  0  0  0  0
  -27.2619  -33.3620   26.2012 H   0  0  0  0  0  0
  -28.3903  -32.6841   25.0350 H   0  0  0  0  0  0
  -28.0672  -31.8467   26.5487 H   0  0  0  0  0  0
  -28.2599  -38.0094   24.7535 H   0  0  0  0  0  0
  -28.1082  -36.2618   24.6262 H   0  0  0  0  0  0
  -27.2284  -37.1378   25.8866 H   0  0  0  0  0  0
  -20.9588  -29.8705   21.6677 H   0  0  0  0  0  0
  -26.0145  -38.2792   24.1392 H   0  0  0  0  0  0
  -31.1008  -19.8513   21.6840 H   0  0  0  0  0  0
  -29.6656  -19.1803   22.4251 H   0  0  0  0  0  0
  -31.2225  -17.2736   22.2635 H   0  0  0  0  0  0
  -31.7387  -17.7672   20.6794 H   0  0  0  0  0  0
  -28.9109  -17.7006   18.9495 H   0  0  0  0  0  0
  -27.9887  -17.7132   20.4148 H   0  0  0  0  0  0
  -30.1529  -19.7590   19.4866 H   0  0  0  0  0  0
  -30.3338  -23.7195   21.6720 H   0  0  0  0  0  0
  -30.3825  -21.9982   21.9702 H   0  0  0  0  0  0
  -29.0334  -22.9479   22.5786 H   0  0  0  0  0  0
  -27.1472  -24.0108   20.9831 H   0  0  0  0  0  0
  -27.3742  -23.9733   19.2902 H   0  0  0  0  0  0
  -29.6801  -22.7111   19.6112 H   0  0  0  0  0  0
  -27.7935  -20.8376   20.9735 H   0  0  0  0  0  0
  -28.0341  -20.9369   19.4040 H   0  0  0  0  0  0
  1 25  1  0  0  0
  1 30  2  0  0  0
  1 78  1  0  0  0
  2  3  1  0  0  0
  2 25  1  0  0  0
  2 80  1  0  0  0
  2 81  1  0  0  0
  3  4  1  0  0  0
  3 82  1  0  0  0
  3 83  1  0  0  0
  4  5  1  0  0  0
  4 84  1  0  0  0
  4 85  1  0  0  0
  5  6  1  0  0  0
  5 26  1  0  0  0
  5 86  1  0  0  0
  6 25  1  0  0  0
  6 87  1  0  0  0
  6 88  1  0  0  0
  7  8  2  0  0  0
  7 26  1  0  0  0
  7 29  1  0  0  0
  8  9  1  0  0  0
  8 22  1  0  0  0
  9 10  1  0  0  0
  9 27  2  0  0  0
 10 11  2  0  0  0
 10 15  1  0  0  0
 11 12  1  0  0  0
 11 89  1  0  0  0
 12 13  2  0  0  0
 12 90  1  0  0  0
 13 14  1  0  0  0
 13 31  1  0  0  0
 14 15  2  0  0  0
 14 91  1  0  0  0
 15 92  1  0  0  0
 16 17  2  0  0  0
 16 21  1  0  0  0
 16 31  1  0  0  0
 17 18  1  0  0  0
 17 93  1  0  0  0
 18 19  2  0  0  0
 18 94  1  0  0  0
 19 20  1  0  0  0
 19 24  1  0  0  0
 20 21  2  0  0  0
 20 95  1  0  0  0
 21 23  1  0  0  0
 22 28  1  0  0  0
 22 32  2  0  0  0
 26 27  1  0  0  0
 28 96  1  0  0  0
 28 97  1  0  0  0
 29 98  1  0  0  0
 29 99  1  0  0  0
 33 34  1  0  0  0
 33 66  1  0  0  0
 33 70  2  0  0  0
 34 36  1  0  0  0
 34 59  1  0  0  0
 34100  1  0  0  0
 35 44  2  0  0  0
 35 45  1  0  0  0
 35 68  1  0  0  0
 36 56  1  0  0  0
 36101  1  0  0  0
 37 39  1  0  0  0
 37 47  1  0  0  0
 37 66  1  0  0  0
 37102  1  0  0  0
 38 43  2  0  0  0
 38 46  1  0  0  0
 38 47  1  0  0  0
 39 64  1  0  0  0
 39 67  2  0  0  0
 40 52  1  0  0  0
 40 53  2  0  0  0
 40 58  1  0  0  0
 41103  1  0  0  0
 41104  1  0  0  0
 41105  1  0  0  0
 41 48  1  0  0  0
 42 43  1  0  0  0
 42 66  1  0  0  0
 42106  1  0  0  0
 42107  1  0  0  0
 43 44  1  0  0  0
 44108  1  0  0  0
 45 46  2  0  0  0
 45109  1  0  0  0
 46110  1  0  0  0
 47111  1  0  0  0
 47112  1  0  0  0
 48 56  1  0  0  0
 48 65  1  0  0  0
 48113  1  0  0  0
 49 50  1  0  0  0
 49 53  1  0  0  0
 49 64  1  0  0  0
 49114  1  0  0  0
 50 51  1  0  0  0
 50115  1  0  0  0
 50116  1  0  0  0
 51 52  1  0  0  0
 51117  1  0  0  0
 51118  1  0  0  0
 52119  1  0  0  0
 52120  1  0  0  0
 53 54  1  0  0  0
 54 55  2  0  0  0
 54121  1  0  0  0
 55 57  1  0  0  0
 55122  1  0  0  0
 56 69  2  0  0  0
 57 58  2  0  0  0
 57123  1  0  0  0
 58124  1  0  0  0
 59 60  1  0  0  0
 59 61  1  0  0  0
 59 62  1  0  0  0
 60125  1  0  0  0
 60126  1  0  0  0
 60127  1  0  0  0
 61128  1  0  0  0
 61129  1  0  0  0
 61130  1  0  0  0
 62131  1  0  0  0
 62132  1  0  0  0
 62133  1  0  0  0
 63 65  1  0  0  0
 63134  1  0  0  0
 63135  1  0  0  0
 63136  1  0  0  0
 64137  1  0  0  0
 65138  1  0  0  0
 68 76  1  0  0  0
 71 72  1  0  0  0
 71 74  1  0  0  0
 71139  1  0  0  0
 71140  1  0  0  0
 72 78  1  0  0  0
 72141  1  0  0  0
 72142  1  0  0  0
 73 74  1  0  0  0
 73 78  1  0  0  0
 73143  1  0  0  0
 73144  1  0  0  0
 74 79  1  0  0  0
 74145  1  0  0  0
 75146  1  0  0  0
 75147  1  0  0  0
 75148  1  0  0  0
 75 77  1  0  0  0
 76 77  1  0  0  0
 76149  1  0  0  0
 76150  1  0  0  0
 77 79  1  0  0  0
 77151  1  0  0  0
 79152  1  0  0  0
 79153  1  0  0  0
M  CHG  1  79   1
M  ISO  4   1 100  68 101  76 101  78 100
M  END
> <chiral flag>
0

> <version>
0

> <s_m_source_file>
/data/baiqing/PycharmProjects/Reinvent-master-3.2/result/LINK_invent/BTK/process_docking_weight1_custom_sum_contain_oxygen_bond_distance_aromatic_linkinvent_7_9_3/rearranged_h_0185.sdf

> <i_m_source_file_index>
25

> <r_mmod_Potential_Energy-OPLS-2005>
1509.46105957031

> <r_mmod_Stretch_Energy-OPLS-2005>
644.001281738281

> <r_mmod_Bend_Energy-OPLS-2005>
543.06298828125

> <r_mmod_Torsional_Energy-OPLS-2005>
338.124084472656

> <r_mmod_Improper_Torsional_Energy-OPLS-2005>
4.76600360870361

> <r_mmod_Van_der_Waal_Energy-OPLS-2005>
108.242568969727

> <r_mmod_Electrostatic_Energy-OPLS-2005>
-176.094635009766

> <r_mmod_Solvation_Energy-OPLS-2005>
-458.685363769531

> <b_mmod_Minimization_Converged-OPLS-2005>
0

> <r_mmod_RMS_Derivative-OPLS-2005>
6.76454162597656

$$$$
25
                    3D
 Structure written by MMmdl.
165173  0  0  1  0            999 V2000
  -30.5132  -15.1383   20.3357 C   0  0  0  0  0  0
  -30.4363  -12.7190   19.4876 C   0  0  0  0  0  0
  -29.5097  -12.5355   18.2617 C   0  0  0  0  0  0
  -28.0584  -12.2774   18.7066 C   0  0  0  0  0  0
  -27.6006  -13.2412   19.8307 C   0  0  2  0  0  0
  -28.6620  -13.4113   20.9405 C   0  0  0  0  0  0
  -25.2278  -13.7930   20.5864 C   0  0  0  0  0  0
  -24.1622  -13.0191   20.9221 C   0  0  0  0  0  0
  -24.6314  -11.6732   20.8742 C   0  0  0  0  0  0
  -23.9038  -10.4144   21.0369 C   0  0  0  0  0  0
  -24.3592   -9.4098   21.9180 C   0  0  0  0  0  0
  -23.6247   -8.2150   22.0761 C   0  0  0  0  0  0
  -22.4229   -8.0229   21.3552 C   0  0  0  0  0  0
  -21.9870   -9.0180   20.4628 C   0  0  0  0  0  0
  -22.7201  -10.2036   20.3018 C   0  0  0  0  0  0
  -21.6824   -6.0704   22.5285 C   0  0  0  0  0  0
  -21.3986   -6.5631   23.8212 C   0  0  0  0  0  0
  -21.3636   -5.6795   24.9182 C   0  0  0  0  0  0
  -21.6041   -4.3056   24.7241 C   0  0  0  0  0  0
  -21.8833   -3.8140   23.4363 C   0  0  0  0  0  0
  -21.9205   -4.6940   22.3419 C   0  0  0  0  0  0
  -22.7670  -13.5021   21.1911 C   0  0  0  0  0  0
  -22.1659   -4.2140   21.0993 F   0  0  0  0  0  0
  -21.5659   -3.4532   25.7750 F   0  0  0  0  0  0
  -29.9012  -13.8662   20.2865 N   0  0  0  0  0  0
  -26.2777  -12.9252   20.3441 N   0  0  0  0  0  0
  -25.9276  -11.6404   20.5858 N   0  0  0  0  0  0
  -22.0336  -12.8088   22.0521 N   0  0  0  0  0  0
  -25.3804  -15.1630   20.4621 N   0  0  0  0  0  0
  -31.7494  -15.1126   20.2827 O   0  0  0  0  0  0
  -21.6604   -6.8823   21.4245 O   0  0  0  0  0  0
  -22.3457  -14.5397   20.6795 O   0  0  0  0  0  0
  -24.6483  -31.8377   23.1805 C   0  0  0  0  0  0
  -25.9214  -32.4657   23.8245 C   0  0  1  0  0  0
  -27.2383  -27.0837   20.1792 C   0  0  0  0  0  0
  -25.5967  -33.8471   24.2167 N   0  0  0  0  0  0
  -23.4565  -30.4530   21.5265 C   0  0  2  0  0  0
  -24.9105  -28.8636   20.1160 C   0  0  0  0  0  0
  -22.7610  -29.4523   22.4852 C   0  0  0  0  0  0
  -18.0376  -28.1348   22.8506 C   0  0  0  0  0  0
  -24.1502  -36.7242   23.2650 C   0  0  0  0  0  0
  -26.0150  -30.6976   21.3856 C   0  0  0  0  0  0
  -26.0889  -29.3014   20.7335 C   0  0  0  0  0  0
  -27.2502  -28.4323   20.7390 C   0  0  0  0  0  0
  -26.0311  -26.7531   19.5255 C   0  0  0  0  0  0
  -24.8987  -27.6035   19.4934 C   0  0  0  0  0  0
  -23.6847  -29.7669   20.1509 C   0  0  0  0  0  0
  -25.4126  -36.3021   24.0317 C   0  0  1  0  0  0
  -20.5975  -28.3758   23.1292 C   0  0  2  0  0  0
  -20.6860  -26.9465   22.5439 C   0  0  0  0  0  0
  -19.5896  -26.6582   21.5131 C   0  0  0  0  0  0
  -18.2081  -26.7921   22.1603 C   0  0  0  0  0  0
  -19.1606  -28.8871   23.2898 C   0  0  0  0  0  0
  -18.9474  -30.1464   23.8908 C   0  0  0  0  0  0
  -17.6460  -30.6566   24.0538 C   0  0  0  0  0  0
  -25.9069  -34.9395   23.5050 C   0  0  0  0  0  0
  -16.5382  -29.9026   23.6335 C   0  0  0  0  0  0
  -16.7343  -28.6433   23.0394 C   0  0  0  0  0  0
  -26.4536  -31.6549   25.0702 C   0  0  0  0  0  0
  -25.3702  -31.3752   26.1384 C   0  0  0  0  0  0
  -27.0416  -30.2938   24.6327 C   0  0  0  0  0  0
  -27.6069  -32.4326   25.7493 C   0  0  0  0  0  0
  -27.5575  -37.1772   24.8470 C   0  0  0  0  0  0
  -21.4289  -29.3090   22.3662 N   0  0  0  0  0  0
  -26.4283  -37.3731   23.9411 N   0  0  0  0  0  0
  -24.7277  -31.0202   22.0844 N   0  0  0  0  0  0
  -23.4249  -28.8035   23.2961 O   0  0  0  0  0  0
  -28.3161  -26.1042   20.1830 O   0  0  0  0  0  0
  -26.5667  -34.8902   22.4639 O   0  0  0  0  0  0
  -23.5580  -32.1287   23.6967 O   0  0  0  0  0  0
  -28.4123  -20.4653   20.4080 C   0  0  0  0  0  0
  -30.4006  -20.8892   20.3731 C   0  0  0  0  0  0
  -29.6661  -19.4877   20.0965 C   0  0  1  0  0  0
  -25.3068  -17.9930   18.7022 C   0  0  0  0  0  0
  -26.8440  -17.1741   16.9948 C   0  0  0  0  0  0
  -30.1351  -17.9184   20.7152 C   0  0  0  0  0  0
  -28.8857  -16.5295   19.0490 C   0  0  0  0  0  0
  -28.9522  -23.1760   19.9177 C   0  0  0  0  0  0
  -27.5136  -17.1546   19.4173 C   0  0  0  0  0  0
  -28.1686  -24.5674   20.5582 C   0  0  0  0  0  0
  -29.7884  -16.4131   20.2122 N   0  0  0  0  0  0
  -29.1814  -21.7542   20.6586 N   0  3  2  0  0  0
  -26.4184  -17.0525   18.4089 N   0  3  0  0  0  0
  -31.4587  -12.9047   19.1559 H   0  0  0  0  0  0
  -30.4806  -11.8105   20.0917 H   0  0  0  0  0  0
  -29.8564  -11.7091   17.6427 H   0  0  0  0  0  0
  -29.5497  -13.4270   17.6345 H   0  0  0  0  0  0
  -28.0059  -11.2505   19.0704 H   0  0  0  0  0  0
  -27.3820  -12.3312   17.8527 H   0  0  0  0  0  0
  -27.4757  -14.1971   19.3407 H   0  0  0  0  0  0
  -28.8165  -12.4819   21.4923 H   0  0  0  0  0  0
  -28.3351  -14.1614   21.6628 H   0  0  0  0  0  0
  -25.2724   -9.5594   22.4788 H   0  0  0  0  0  0
  -23.9953   -7.4534   22.7487 H   0  0  0  0  0  0
  -21.0814   -8.8687   19.8897 H   0  0  0  0  0  0
  -22.3665  -10.9596   19.6150 H   0  0  0  0  0  0
  -21.1939   -7.6141   23.9725 H   0  0  0  0  0  0
  -21.1437   -6.0516   25.9092 H   0  0  0  0  0  0
  -22.0625   -2.7598   23.2884 H   0  0  0  0  0  0
  -22.3971  -11.9769   22.4913 H   0  0  0  0  0  0
  -21.0950  -13.1108   22.2719 H   0  0  0  0  0  0
  -24.5169  -15.6112   20.7498 H   0  0  0  0  0  0
  -26.1107  -15.4402   21.1070 H   0  0  0  0  0  0
  -26.7288  -32.5280   23.0998 H   0  0  0  0  0  0
  -25.0084  -33.9586   25.0295 H   0  0  0  0  0  0
  -22.7607  -31.2770   21.3589 H   0  0  0  0  0  0
  -23.3767  -35.9574   23.3292 H   0  0  0  0  0  0
  -24.3584  -36.8885   22.2070 H   0  0  0  0  0  0
  -23.7243  -37.6427   23.6683 H   0  0  0  0  0  0
  -26.1735  -31.4436   20.6063 H   0  0  0  0  0  0
  -26.8844  -30.7559   22.0287 H   0  0  0  0  0  0
  -28.1487  -28.7718   21.2319 H   0  0  0  0  0  0
  -25.9459  -25.7910   19.0422 H   0  0  0  0  0  0
  -24.0036  -27.2631   18.9922 H   0  0  0  0  0  0
  -23.8108  -30.5331   19.3846 H   0  0  0  0  0  0
  -22.8029  -29.1961   19.8527 H   0  0  0  0  0  0
  -25.1315  -36.1841   25.0800 H   0  0  0  0  0  0
  -21.0079  -28.3389   24.1420 H   0  0  0  0  0  0
  -20.5623  -26.2367   23.3636 H   0  0  0  0  0  0
  -21.6759  -26.7431   22.1366 H   0  0  0  0  0  0
  -19.7101  -25.6598   21.0933 H   0  0  0  0  0  0
  -19.6790  -27.3609   20.6835 H   0  0  0  0  0  0
  -17.4312  -26.6641   21.4050 H   0  0  0  0  0  0
  -18.0641  -26.0017   22.8969 H   0  0  0  0  0  0
  -19.7932  -30.7301   24.2254 H   0  0  0  0  0  0
  -17.5001  -31.6299   24.5043 H   0  0  0  0  0  0
  -15.5369  -30.2909   23.7591 H   0  0  0  0  0  0
  -15.8753  -28.0711   22.7148 H   0  0  0  0  0  0
  -24.5888  -30.7104   25.7696 H   0  0  0  0  0  0
  -24.8890  -32.2933   26.4753 H   0  0  0  0  0  0
  -25.7958  -30.8952   27.0204 H   0  0  0  0  0  0
  -26.3054  -29.6635   24.1329 H   0  0  0  0  0  0
  -27.4009  -29.7265   25.4927 H   0  0  0  0  0  0
  -27.8970  -30.4173   23.9684 H   0  0  0  0  0  0
  -27.2672  -33.3652   26.2028 H   0  0  0  0  0  0
  -28.3913  -32.6844   25.0335 H   0  0  0  0  0  0
  -28.0729  -31.8480   26.5446 H   0  0  0  0  0  0
  -28.2588  -38.0076   24.7501 H   0  0  0  0  0  0
  -28.1067  -36.2587   24.6305 H   0  0  0  0  0  0
  -27.2291  -37.1457   25.8878 H   0  0  0  0  0  0
  -20.9485  -29.8864   21.6899 H   0  0  0  0  0  0
  -26.0149  -38.2805   24.1369 H   0  0  0  0  0  0
  -27.8563  -20.1745   21.3006 H   0  0  0  0  0  0
  -27.7316  -20.5707   19.5622 H   0  0  0  0  0  0
  -30.9603  -21.2487   19.5087 H   0  0  0  0  0  0
  -31.0581  -20.8486   21.2404 H   0  0  0  0  0  0
  -29.6954  -19.4006   19.0100 H   0  0  0  0  0  0
  -24.4559  -17.8083   18.0422 H   0  0  0  0  0  0
  -25.6085  -19.0340   18.5639 H   0  0  0  0  0  0
  -24.9574  -17.8816   19.7277 H   0  0  0  0  0  0
  -25.9866  -17.0776   16.3278 H   0  0  0  0  0  0
  -27.5492  -16.3933   16.7169 H   0  0  0  0  0  0
  -27.3053  -18.1438   16.8017 H   0  0  0  0  0  0
  -29.8526  -17.9049   21.7690 H   0  0  0  0  0  0
  -31.2247  -17.9282   20.7556 H   0  0  0  0  0  0
  -29.3786  -17.1615   18.3112 H   0  0  0  0  0  0
  -28.7686  -15.5795   18.5385 H   0  0  0  0  0  0
  -29.9638  -23.5125   19.6912 H   0  0  0  0  0  0
  -28.5184  -22.9623   18.9407 H   0  0  0  0  0  0
  -27.6368  -18.2122   19.5750 H   0  0  0  0  0  0
  -27.2010  -16.7913   20.3907 H   0  0  0  0  0  0
  -28.4246  -24.5632   21.6177 H   0  0  0  0  0  0
  -27.1017  -24.3452   20.5549 H   0  0  0  0  0  0
  -29.1823  -21.9263   21.6551 H   0  0  0  0  0  0
  -26.0140  -16.1325   18.5363 H   0  0  0  0  0  0
  1 25  1  0  0  0
  1 30  2  0  0  0
  1 81  1  0  0  0
  2  3  1  0  0  0
  2 25  1  0  0  0
  2 84  1  0  0  0
  2 85  1  0  0  0
  3  4  1  0  0  0
  3 86  1  0  0  0
  3 87  1  0  0  0
  4  5  1  0  0  0
  4 88  1  0  0  0
  4 89  1  0  0  0
  5  6  1  0  0  0
  5 26  1  0  0  0
  5 90  1  0  0  0
  6 25  1  0  0  0
  6 91  1  0  0  0
  6 92  1  0  0  0
  7  8  2  0  0  0
  7 26  1  0  0  0
  7 29  1  0  0  0
  8  9  1  0  0  0
  8 22  1  0  0  0
  9 10  1  0  0  0
  9 27  2  0  0  0
 10 11  2  0  0  0
 10 15  1  0  0  0
 11 12  1  0  0  0
 11 93  1  0  0  0
 12 13  2  0  0  0
 12 94  1  0  0  0
 13 14  1  0  0  0
 13 31  1  0  0  0
 14 15  2  0  0  0
 14 95  1  0  0  0
 15 96  1  0  0  0
 16 17  2  0  0  0
 16 21  1  0  0  0
 16 31  1  0  0  0
 17 18  1  0  0  0
 17 97  1  0  0  0
 18 19  2  0  0  0
 18 98  1  0  0  0
 19 20  1  0  0  0
 19 24  1  0  0  0
 20 21  2  0  0  0
 20 99  1  0  0  0
 21 23  1  0  0  0
 22 28  1  0  0  0
 22 32  2  0  0  0
 26 27  1  0  0  0
 28100  1  0  0  0
 28101  1  0  0  0
 29102  1  0  0  0
 29103  1  0  0  0
 33 34  1  0  0  0
 33 66  1  0  0  0
 33 70  2  0  0  0
 34 36  1  0  0  0
 34 59  1  0  0  0
 34104  1  0  0  0
 35 44  2  0  0  0
 35 45  1  0  0  0
 35 68  1  0  0  0
 36 56  1  0  0  0
 36105  1  0  0  0
 37 39  1  0  0  0
 37 47  1  0  0  0
 37 66  1  0  0  0
 37106  1  0  0  0
 38 43  2  0  0  0
 38 46  1  0  0  0
 38 47  1  0  0  0
 39 64  1  0  0  0
 39 67  2  0  0  0
 40 52  1  0  0  0
 40 53  2  0  0  0
 40 58  1  0  0  0
 41107  1  0  0  0
 41108  1  0  0  0
 41109  1  0  0  0
 41 48  1  0  0  0
 42 43  1  0  0  0
 42 66  1  0  0  0
 42110  1  0  0  0
 42111  1  0  0  0
 43 44  1  0  0  0
 44112  1  0  0  0
 45 46  2  0  0  0
 45113  1  0  0  0
 46114  1  0  0  0
 47115  1  0  0  0
 47116  1  0  0  0
 48 56  1  0  0  0
 48 65  1  0  0  0
 48117  1  0  0  0
 49 50  1  0  0  0
 49 53  1  0  0  0
 49 64  1  0  0  0
 49118  1  0  0  0
 50 51  1  0  0  0
 50119  1  0  0  0
 50120  1  0  0  0
 51 52  1  0  0  0
 51121  1  0  0  0
 51122  1  0  0  0
 52123  1  0  0  0
 52124  1  0  0  0
 53 54  1  0  0  0
 54 55  2  0  0  0
 54125  1  0  0  0
 55 57  1  0  0  0
 55126  1  0  0  0
 56 69  2  0  0  0
 57 58  2  0  0  0
 57127  1  0  0  0
 58128  1  0  0  0
 59 60  1  0  0  0
 59 61  1  0  0  0
 59 62  1  0  0  0
 60129  1  0  0  0
 60130  1  0  0  0
 60131  1  0  0  0
 61132  1  0  0  0
 61133  1  0  0  0
 61134  1  0  0  0
 62135  1  0  0  0
 62136  1  0  0  0
 62137  1  0  0  0
 63 65  1  0  0  0
 63138  1  0  0  0
 63139  1  0  0  0
 63140  1  0  0  0
 64141  1  0  0  0
 65142  1  0  0  0
 68 80  1  0  0  0
 71 73  1  0  0  0
 71 82  1  0  0  0
 71143  1  0  0  0
 71144  1  0  0  0
 72 73  1  0  0  0
 72 82  1  0  0  0
 72145  1  0  0  0
 72146  1  0  0  0
 73 76  1  0  0  0
 73147  1  0  0  0
 74148  1  0  0  0
 74149  1  0  0  0
 74150  1  0  0  0
 74 83  1  0  0  0
 75 83  1  0  0  0
 75151  1  0  0  0
 75152  1  0  0  0
 75153  1  0  0  0
 76 81  1  0  0  0
 76154  1  0  0  0
 76155  1  0  0  0
 77 79  1  0  0  0
 77 81  1  0  0  0
 77156  1  0  0  0
 77157  1  0  0  0
 78 80  1  0  0  0
 78158  1  0  0  0
 78159  1  0  0  0
 78 82  1  0  0  0
 79 83  1  0  0  0
 79160  1  0  0  0
 79161  1  0  0  0
 80162  1  0  0  0
 80163  1  0  0  0
 82164  1  0  0  0
 83165  1  0  0  0
M  CHG  2  82   1  83   1
M  ISO  4   1 100  68 101  80 101  81 100
M  END
> <chiral flag>
0

> <version>
0

> <s_m_source_file>
/data/baiqing/PycharmProjects/Reinvent-master-3.2/result/LINK_invent/BTK/process_docking_weight1_custom_sum_contain_oxygen_bond_distance_aromatic_linkinvent_7_9_3/rearranged_h_0185.sdf

> <i_m_source_file_index>
26

> <r_mmod_Potential_Energy-OPLS-2005>
775.260070800781

> <r_mmod_Stretch_Energy-OPLS-2005>
367.338531494141

> <r_mmod_Bend_Energy-OPLS-2005>
367.395904541016

> <r_mmod_Torsional_Energy-OPLS-2005>
400.073272705078

> <r_mmod_Improper_Torsional_Energy-OPLS-2005>
13.1634302139282

> <r_mmod_Van_der_Waal_Energy-OPLS-2005>
123.270324707031

> <r_mmod_Electrostatic_Energy-OPLS-2005>
92.9950180053711

> <r_mmod_Solvation_Energy-OPLS-2005>
-889.905456542969

> <b_mmod_Minimization_Converged-OPLS-2005>
0

> <r_mmod_RMS_Derivative-OPLS-2005>
4.39203929901123

$$$$
26
                    3D
 Structure written by MMmdl.
165174  0  0  1  0            999 V2000
  -30.6417  -14.5167   20.5521 C   0  0  0  0  0  0
  -30.4375  -12.3313   19.4061 C   0  0  0  0  0  0
  -29.4967  -12.4980   18.1929 C   0  0  0  0  0  0
  -28.0175  -12.3472   18.6125 C   0  0  0  0  0  0
  -27.6557  -13.1947   19.8619 C   0  0  2  0  0  0
  -28.7038  -12.9813   20.9777 C   0  0  0  0  0  0
  -25.2600  -13.8123   20.5667 C   0  0  0  0  0  0
  -24.1836  -13.0410   20.9204 C   0  0  0  0  0  0
  -24.6376  -11.6880   20.8742 C   0  0  0  0  0  0
  -23.9026  -10.4277   21.0406 C   0  0  0  0  0  0
  -24.3585   -9.4199   21.9180 C   0  0  0  0  0  0
  -23.6273   -8.2234   22.0755 C   0  0  0  0  0  0
  -22.4261   -8.0264   21.3551 C   0  0  0  0  0  0
  -21.9883   -9.0231   20.4655 C   0  0  0  0  0  0
  -22.7200  -10.2117   20.3060 C   0  0  0  0  0  0
  -21.6847   -6.0721   22.5274 C   0  0  0  0  0  0
  -21.4007   -6.5626   23.8203 C   0  0  0  0  0  0
  -21.3661   -5.6785   24.9170 C   0  0  0  0  0  0
  -21.6053   -4.3050   24.7224 C   0  0  0  0  0  0
  -21.8818   -3.8133   23.4348 C   0  0  0  0  0  0
  -21.9193   -4.6950   22.3400 C   0  0  0  0  0  0
  -22.7871  -13.5238   21.1860 C   0  0  0  0  0  0
  -22.1662   -4.2129   21.0982 F   0  0  0  0  0  0
  -21.5632   -3.4538   25.7743 F   0  0  0  0  0  0
  -30.0207  -13.3152   20.4131 N   0  0  0  0  0  0
  -26.2991  -12.9249   20.3292 N   0  0  0  0  0  0
  -25.9291  -11.6429   20.5731 N   0  0  0  0  0  0
  -22.0496  -12.8231   22.0416 N   0  0  0  0  0  0
  -25.4317  -15.1842   20.4070 N   0  0  0  0  0  0
  -31.8122  -14.7143   20.2090 O   0  0  0  0  0  0
  -21.6639   -6.8862   21.4238 O   0  0  0  0  0  0
  -22.3567  -14.5553   20.6730 O   0  0  0  0  0  0
  -24.6142  -31.8668   23.2067 C   0  0  0  0  0  0
  -25.9030  -32.4799   23.8376 C   0  0  1  0  0  0
  -27.2299  -27.4159   20.1151 C   0  0  0  0  0  0
  -25.5896  -33.8606   24.2313 N   0  0  0  0  0  0
  -23.4024  -30.4895   21.5452 C   0  0  2  0  0  0
  -24.8505  -28.9500   20.1125 C   0  0  0  0  0  0
  -22.7403  -29.4667   22.4969 C   0  0  0  0  0  0
  -18.0259  -28.1383   22.8458 C   0  0  0  0  0  0
  -24.1478  -36.7280   23.2654 C   0  0  0  0  0  0
  -25.9308  -30.8287   21.3621 C   0  0  0  0  0  0
  -26.0101  -29.4616   20.7098 C   0  0  0  0  0  0
  -27.2050  -28.7035   20.7009 C   0  0  0  0  0  0
  -26.0581  -26.9224   19.5037 C   0  0  0  0  0  0
  -24.8716  -27.6820   19.5021 C   0  0  0  0  0  0
  -23.6121  -29.8173   20.1623 C   0  0  0  0  0  0
  -25.4090  -36.3084   24.0349 C   0  0  1  0  0  0
  -20.5849  -28.3657   23.1277 C   0  0  2  0  0  0
  -20.6728  -26.9392   22.5390 C   0  0  0  0  0  0
  -19.5714  -26.6376   21.5185 C   0  0  0  0  0  0
  -18.1897  -26.7919   22.1610 C   0  0  0  0  0  0
  -19.1520  -28.8830   23.2857 C   0  0  0  0  0  0
  -18.9486  -30.1442   23.8859 C   0  0  0  0  0  0
  -17.6502  -30.6584   24.0564 C   0  0  0  0  0  0
  -25.9031  -34.9456   23.5121 C   0  0  0  0  0  0
  -16.5374  -29.9095   23.6351 C   0  0  0  0  0  0
  -16.7253  -28.6529   23.0323 C   0  0  0  0  0  0
  -26.4444  -31.6596   25.0712 C   0  0  0  0  0  0
  -25.3711  -31.3728   26.1489 C   0  0  0  0  0  0
  -27.0287  -30.3037   24.6096 C   0  0  0  0  0  0
  -27.6053  -32.4323   25.7433 C   0  0  0  0  0  0
  -27.5567  -37.1772   24.8474 C   0  0  0  0  0  0
  -21.4141  -29.3034   22.3717 N   0  0  0  0  0  0
  -26.4265  -37.3775   23.9446 N   0  0  0  0  0  0
  -24.6670  -31.0760   22.0968 N   0  0  0  0  0  0
  -23.4189  -28.8221   23.2999 O   0  0  0  0  0  0
  -28.3900  -26.6685   20.1216 O   0  0  0  0  0  0
  -26.5613  -34.8919   22.4696 O   0  0  0  0  0  0
  -23.5330  -32.1458   23.7432 O   0  0  0  0  0  0
  -30.4174  -16.4532   22.9452 C   0  0  0  0  0  0
  -29.6428  -18.9413   22.1621 C   0  0  0  0  0  0
  -30.0013  -16.6886   21.6114 C   0  0  0  0  0  0
  -30.0484  -18.6631   23.4981 C   0  0  0  0  0  0
  -30.4735  -21.2065   21.1994 C   0  0  0  0  0  0
  -28.0636  -20.5864   20.8315 C   0  0  0  0  0  0
  -30.0973  -22.6979   21.0078 C   0  0  0  0  0  0
  -27.7405  -22.0954   20.6053 C   0  0  0  0  0  0
  -29.2862  -20.3973   21.7614 C   0  0  1  0  0  0
  -30.5123  -19.3669   25.7656 C   0  0  0  0  0  0
  -28.6740  -24.2474   19.5975 C   0  0  0  0  0  0
  -28.2968  -25.3273   20.6523 C   0  0  0  0  0  0
  -30.4438  -17.4243   23.8819 N   0  0  0  0  0  0
  -29.6306  -17.9504   21.2178 N   0  0  0  0  0  0
  -29.7891  -15.5367   20.8044 N   0  0  0  0  0  0
  -28.9260  -22.8491   20.1021 N   0  3  1  0  0  0
  -30.0551  -19.6659   24.4476 O   0  0  0  0  0  0
  -31.4775  -12.4609   19.1024 H   0  0  0  0  0  0
  -30.3614  -11.3203   19.8112 H   0  0  0  0  0  0
  -29.7407  -11.7660   17.4213 H   0  0  0  0  0  0
  -29.6486  -13.4786   17.7393 H   0  0  0  0  0  0
  -27.8434  -11.2919   18.8241 H   0  0  0  0  0  0
  -27.3601  -12.6012   17.7800 H   0  0  0  0  0  0
  -27.6902  -14.2380   19.5475 H   0  0  0  0  0  0
  -28.6999  -11.9420   21.3106 H   0  0  0  0  0  0
  -28.4717  -13.5760   21.8633 H   0  0  0  0  0  0
  -25.2728   -9.5683   22.4749 H   0  0  0  0  0  0
  -23.9984   -7.4629   22.7478 H   0  0  0  0  0  0
  -21.0808   -8.8756   19.8961 H   0  0  0  0  0  0
  -22.3656  -10.9659   19.6173 H   0  0  0  0  0  0
  -21.1997   -7.6132   23.9700 H   0  0  0  0  0  0
  -21.1486   -6.0518   25.9072 H   0  0  0  0  0  0
  -22.0601   -2.7595   23.2858 H   0  0  0  0  0  0
  -22.4088  -11.9866   22.4781 H   0  0  0  0  0  0
  -21.1120  -13.1283   22.2621 H   0  0  0  0  0  0
  -24.6629  -15.8339   20.5255 H   0  0  0  0  0  0
  -26.2556  -15.6219   20.0131 H   0  0  0  0  0  0
  -26.7107  -32.5493   23.1150 H   0  0  0  0  0  0
  -25.0026  -33.9761   25.0446 H   0  0  0  0  0  0
  -22.6909  -31.3055   21.3994 H   0  0  0  0  0  0
  -23.3756  -35.9605   23.3342 H   0  0  0  0  0  0
  -24.3584  -36.8856   22.2070 H   0  0  0  0  0  0
  -23.7213  -37.6484   23.6646 H   0  0  0  0  0  0
  -26.0468  -31.5932   20.5929 H   0  0  0  0  0  0
  -26.8171  -30.8802   21.9828 H   0  0  0  0  0  0
  -28.1023  -29.0924   21.1617 H   0  0  0  0  0  0
  -26.0613  -25.9529   19.0228 H   0  0  0  0  0  0
  -23.9814  -27.2828   19.0355 H   0  0  0  0  0  0
  -23.7169  -30.5929   19.4028 H   0  0  0  0  0  0
  -22.7358  -29.2341   19.8726 H   0  0  0  0  0  0
  -25.1260  -36.1960   25.0835 H   0  0  0  0  0  0
  -20.9917  -28.3242   24.1406 H   0  0  0  0  0  0
  -20.5568  -26.2298   23.3594 H   0  0  0  0  0  0
  -21.6599  -26.7353   22.1235 H   0  0  0  0  0  0
  -19.6880  -25.6297   21.1193 H   0  0  0  0  0  0
  -19.6662  -27.3202   20.6734 H   0  0  0  0  0  0
  -17.4148  -26.6644   21.4040 H   0  0  0  0  0  0
  -18.0321  -26.0050   22.9002 H   0  0  0  0  0  0
  -19.7985  -30.7237   24.2200 H   0  0  0  0  0  0
  -17.5085  -31.6250   24.5197 H   0  0  0  0  0  0
  -15.5393  -30.3003   23.7687 H   0  0  0  0  0  0
  -15.8651  -28.0864   22.7017 H   0  0  0  0  0  0
  -24.5909  -30.7009   25.7878 H   0  0  0  0  0  0
  -24.8847  -32.2877   26.4897 H   0  0  0  0  0  0
  -25.8077  -30.8970   27.0285 H   0  0  0  0  0  0
  -26.2824  -29.6782   24.1166 H   0  0  0  0  0  0
  -27.4108  -29.7288   25.4551 H   0  0  0  0  0  0
  -27.8638  -30.4377   23.9212 H   0  0  0  0  0  0
  -27.2719  -33.3650   26.2014 H   0  0  0  0  0  0
  -28.3824  -32.6856   25.0199 H   0  0  0  0  0  0
  -28.0770  -31.8437   26.5323 H   0  0  0  0  0  0
  -28.2581  -38.0070   24.7510 H   0  0  0  0  0  0
  -28.1041  -36.2592   24.6283 H   0  0  0  0  0  0
  -27.2292  -37.1413   25.8878 H   0  0  0  0  0  0
  -20.9339  -29.8803   21.6970 H   0  0  0  0  0  0
  -26.0166  -38.2848   24.1484 H   0  0  0  0  0  0
  -30.6603  -15.4567   23.2886 H   0  0  0  0  0  0
  -31.3142  -21.1493   21.8911 H   0  0  0  0  0  0
  -30.8226  -20.7756   20.2604 H   0  0  0  0  0  0
  -28.2406  -20.0956   19.8739 H   0  0  0  0  0  0
  -27.1913  -20.0933   21.2615 H   0  0  0  0  0  0
  -30.9524  -23.2424   20.6064 H   0  0  0  0  0  0
  -29.8724  -23.1474   21.9771 H   0  0  0  0  0  0
  -27.3881  -22.5437   21.5359 H   0  0  0  0  0  0
  -26.9219  -22.1884   19.8911 H   0  0  0  0  0  0
  -28.9943  -20.8874   22.6917 H   0  0  0  0  0  0
  -30.3215  -20.2196   26.4163 H   0  0  0  0  0  0
  -31.5874  -19.1825   25.7727 H   0  0  0  0  0  0
  -30.0025  -18.5065   26.2036 H   0  0  0  0  0  0
  -29.5793  -24.5738   19.0829 H   0  0  0  0  0  0
  -27.9050  -24.2168   18.8257 H   0  0  0  0  0  0
  -28.9933  -25.2833   21.4894 H   0  0  0  0  0  0
  -27.3107  -25.1214   21.0740 H   0  0  0  0  0  0
  -28.8227  -15.2615   20.7426 H   0  0  0  0  0  0
  -29.1934  -22.3506   19.2647 H   0  0  0  0  0  0
  1 25  1  0  0  0
  1 30  2  0  0  0
  1 85  1  0  0  0
  2  3  1  0  0  0
  2 25  1  0  0  0
  2 88  1  0  0  0
  2 89  1  0  0  0
  3  4  1  0  0  0
  3 90  1  0  0  0
  3 91  1  0  0  0
  4  5  1  0  0  0
  4 92  1  0  0  0
  4 93  1  0  0  0
  5  6  1  0  0  0
  5 26  1  0  0  0
  5 94  1  0  0  0
  6 25  1  0  0  0
  6 95  1  0  0  0
  6 96  1  0  0  0
  7  8  2  0  0  0
  7 26  1  0  0  0
  7 29  1  0  0  0
  8  9  1  0  0  0
  8 22  1  0  0  0
  9 10  1  0  0  0
  9 27  2  0  0  0
 10 11  2  0  0  0
 10 15  1  0  0  0
 11 12  1  0  0  0
 11 97  1  0  0  0
 12 13  2  0  0  0
 12 98  1  0  0  0
 13 14  1  0  0  0
 13 31  1  0  0  0
 14 15  2  0  0  0
 14 99  1  0  0  0
 15100  1  0  0  0
 16 17  2  0  0  0
 16 21  1  0  0  0
 16 31  1  0  0  0
 17 18  1  0  0  0
 17101  1  0  0  0
 18 19  2  0  0  0
 18102  1  0  0  0
 19 20  1  0  0  0
 19 24  1  0  0  0
 20 21  2  0  0  0
 20103  1  0  0  0
 21 23  1  0  0  0
 22 28  1  0  0  0
 22 32  2  0  0  0
 26 27  1  0  0  0
 28104  1  0  0  0
 28105  1  0  0  0
 29106  1  0  0  0
 29107  1  0  0  0
 33 34  1  0  0  0
 33 66  1  0  0  0
 33 70  2  0  0  0
 34 36  1  0  0  0
 34 59  1  0  0  0
 34108  1  0  0  0
 35 44  2  0  0  0
 35 45  1  0  0  0
 35 68  1  0  0  0
 36 56  1  0  0  0
 36109  1  0  0  0
 37 39  1  0  0  0
 37 47  1  0  0  0
 37 66  1  0  0  0
 37110  1  0  0  0
 38 43  2  0  0  0
 38 46  1  0  0  0
 38 47  1  0  0  0
 39 64  1  0  0  0
 39 67  2  0  0  0
 40 52  1  0  0  0
 40 53  2  0  0  0
 40 58  1  0  0  0
 41111  1  0  0  0
 41112  1  0  0  0
 41113  1  0  0  0
 41 48  1  0  0  0
 42 43  1  0  0  0
 42 66  1  0  0  0
 42114  1  0  0  0
 42115  1  0  0  0
 43 44  1  0  0  0
 44116  1  0  0  0
 45 46  2  0  0  0
 45117  1  0  0  0
 46118  1  0  0  0
 47119  1  0  0  0
 47120  1  0  0  0
 48 56  1  0  0  0
 48 65  1  0  0  0
 48121  1  0  0  0
 49 50  1  0  0  0
 49 53  1  0  0  0
 49 64  1  0  0  0
 49122  1  0  0  0
 50 51  1  0  0  0
 50123  1  0  0  0
 50124  1  0  0  0
 51 52  1  0  0  0
 51125  1  0  0  0
 51126  1  0  0  0
 52127  1  0  0  0
 52128  1  0  0  0
 53 54  1  0  0  0
 54 55  2  0  0  0
 54129  1  0  0  0
 55 57  1  0  0  0
 55130  1  0  0  0
 56 69  2  0  0  0
 57 58  2  0  0  0
 57131  1  0  0  0
 58132  1  0  0  0
 59 60  1  0  0  0
 59 61  1  0  0  0
 59 62  1  0  0  0
 60133  1  0  0  0
 60134  1  0  0  0
 60135  1  0  0  0
 61136  1  0  0  0
 61137  1  0  0  0
 61138  1  0  0  0
 62139  1  0  0  0
 62140  1  0  0  0
 62141  1  0  0  0
 63 65  1  0  0  0
 63142  1  0  0  0
 63143  1  0  0  0
 63144  1  0  0  0
 64145  1  0  0  0
 65146  1  0  0  0
 68 82  1  0  0  0
 71 73  2  0  0  0
 71 83  1  0  0  0
 71147  1  0  0  0
 72 74  1  0  0  0
 72 84  2  0  0  0
 72 79  1  0  0  0
 73 84  1  0  0  0
 73 85  1  0  0  0
 74 83  2  0  0  0
 74 87  1  0  0  0
 75 77  1  0  0  0
 75 79  1  0  0  0
 75148  1  0  0  0
 75149  1  0  0  0
 76 78  1  0  0  0
 76 79  1  0  0  0
 76150  1  0  0  0
 76151  1  0  0  0
 77 86  1  0  0  0
 77152  1  0  0  0
 77153  1  0  0  0
 78 86  1  0  0  0
 78154  1  0  0  0
 78155  1  0  0  0
 79156  1  0  0  0
 80 87  1  0  0  0
 80157  1  0  0  0
 80158  1  0  0  0
 80159  1  0  0  0
 81 82  1  0  0  0
 81160  1  0  0  0
 81161  1  0  0  0
 81 86  1  0  0  0
 82162  1  0  0  0
 82163  1  0  0  0
 85164  1  0  0  0
 86165  1  0  0  0
M  CHG  1  86   1
M  ISO  4   1 100  68 101  82 101  85 100
M  END
> <chiral flag>
0

> <version>
0

> <s_m_source_file>
/data/baiqing/PycharmProjects/Reinvent-master-3.2/result/LINK_invent/BTK/process_docking_weight1_custom_sum_contain_oxygen_bond_distance_aromatic_linkinvent_7_9_3/rearranged_h_0185.sdf

> <i_m_source_file_index>
27

> <r_mmod_Potential_Energy-OPLS-2005>
-71.8429183959961

> <r_mmod_Stretch_Energy-OPLS-2005>
48.0673141479492

> <r_mmod_Bend_Energy-OPLS-2005>
119.207023620605

> <r_mmod_Torsional_Energy-OPLS-2005>
271.988403320312

> <r_mmod_Improper_Torsional_Energy-OPLS-2005>
10.3604402542114

> <r_mmod_Van_der_Waal_Energy-OPLS-2005>
161.344375610352

> <r_mmod_Electrostatic_Energy-OPLS-2005>
-267.621276855469

> <r_mmod_Solvation_Energy-OPLS-2005>
-435.360809326172

> <b_mmod_Minimization_Converged-OPLS-2005>
0

> <r_mmod_RMS_Derivative-OPLS-2005>
3.22531867027283

$$$$
27
                    3D
 Structure written by MMmdl.
149157  0  0  1  0            999 V2000
  -30.5903  -14.7343   20.4892 C   0  0  0  0  0  0
  -30.4324  -12.4473   19.4837 C   0  0  0  0  0  0
  -29.5190  -12.5234   18.2394 C   0  0  0  0  0  0
  -28.0375  -12.3513   18.6389 C   0  0  0  0  0  0
  -27.6406  -13.2325   19.8541 C   0  0  2  0  0  0
  -28.6787  -13.1393   20.9922 C   0  0  0  0  0  0
  -25.2464  -13.8201   20.5686 C   0  0  0  0  0  0
  -24.1760  -13.0443   20.9197 C   0  0  0  0  0  0
  -24.6356  -11.6925   20.8725 C   0  0  0  0  0  0
  -23.9036  -10.4303   21.0389 C   0  0  0  0  0  0
  -24.3606   -9.4221   21.9165 C   0  0  0  0  0  0
  -23.6293   -8.2248   22.0741 C   0  0  0  0  0  0
  -22.4271   -8.0274   21.3535 C   0  0  0  0  0  0
  -21.9890   -9.0243   20.4649 C   0  0  0  0  0  0
  -22.7207  -10.2128   20.3046 C   0  0  0  0  0  0
  -21.6855   -6.0733   22.5280 C   0  0  0  0  0  0
  -21.4030   -6.5640   23.8217 C   0  0  0  0  0  0
  -21.3659   -5.6790   24.9174 C   0  0  0  0  0  0
  -21.6031   -4.3044   24.7218 C   0  0  0  0  0  0
  -21.8806   -3.8146   23.4345 C   0  0  0  0  0  0
  -21.9193   -4.6968   22.3407 C   0  0  0  0  0  0
  -22.7779  -13.5221   21.1869 C   0  0  0  0  0  0
  -22.1658   -4.2153   21.0982 F   0  0  0  0  0  0
  -21.5624   -3.4531   25.7732 F   0  0  0  0  0  0
  -29.9826  -13.5006   20.4217 N   0  0  0  0  0  0
  -26.2898  -12.9412   20.3247 N   0  0  0  0  0  0
  -25.9278  -11.6554   20.5685 N   0  0  0  0  0  0
  -22.0429  -12.8229   22.0449 N   0  0  0  0  0  0
  -25.4114  -15.1927   20.4095 N   0  0  0  0  0  0
  -31.7765  -14.8556   20.1701 O   0  0  0  0  0  0
  -21.6641   -6.8873   21.4236 O   0  0  0  0  0  0
  -22.3460  -14.5521   20.6704 O   0  0  0  0  0  0
  -24.6315  -31.8561   23.1965 C   0  0  0  0  0  0
  -25.9134  -32.4761   23.8329 C   0  0  1  0  0  0
  -27.2155  -27.2520   20.1286 C   0  0  0  0  0  0
  -25.5931  -33.8564   24.2241 N   0  0  0  0  0  0
  -23.4276  -30.4773   21.5426 C   0  0  2  0  0  0
  -24.8738  -28.9249   20.1131 C   0  0  0  0  0  0
  -22.7505  -29.4600   22.4918 C   0  0  0  0  0  0
  -18.0300  -28.1398   22.8456 C   0  0  0  0  0  0
  -24.1487  -36.7286   23.2630 C   0  0  0  0  0  0
  -25.9744  -30.7647   21.3801 C   0  0  0  0  0  0
  -26.0474  -29.3870   20.7220 C   0  0  0  0  0  0
  -27.2220  -28.5653   20.7155 C   0  0  0  0  0  0
  -26.0164  -26.8650   19.4876 C   0  0  0  0  0  0
  -24.8652  -27.6728   19.4840 C   0  0  0  0  0  0
  -23.6444  -29.8102   20.1602 C   0  0  0  0  0  0
  -25.4114  -36.3066   24.0312 C   0  0  1  0  0  0
  -20.5894  -28.3699   23.1254 C   0  0  2  0  0  0
  -20.6781  -26.9416   22.5389 C   0  0  0  0  0  0
  -19.5763  -26.6381   21.5188 C   0  0  0  0  0  0
  -18.1947  -26.7932   22.1610 C   0  0  0  0  0  0
  -19.1546  -28.8871   23.2845 C   0  0  0  0  0  0
  -18.9473  -30.1477   23.8848 C   0  0  0  0  0  0
  -17.6466  -30.6583   24.0562 C   0  0  0  0  0  0
  -25.9063  -34.9445   23.5082 C   0  0  0  0  0  0
  -16.5361  -29.9071   23.6344 C   0  0  0  0  0  0
  -16.7284  -28.6511   23.0320 C   0  0  0  0  0  0
  -26.4487  -31.6603   25.0741 C   0  0  0  0  0  0
  -25.3676  -31.3780   26.1442 C   0  0  0  0  0  0
  -27.0361  -30.3016   24.6270 C   0  0  0  0  0  0
  -27.6042  -32.4352   25.7517 C   0  0  0  0  0  0
  -27.5585  -37.1783   24.8444 C   0  0  0  0  0  0
  -21.4215  -29.3041   22.3650 N   0  0  0  0  0  0
  -26.4280  -37.3773   23.9416 N   0  0  0  0  0  0
  -24.6968  -31.0512   22.0960 N   0  0  0  0  0  0
  -23.4205  -28.8141   23.3021 O   0  0  0  0  0  0
  -28.3122  -26.3542   20.1580 O   0  0  0  0  0  0
  -26.5639  -34.8918   22.4653 O   0  0  0  0  0  0
  -23.5460  -32.1402   23.7240 O   0  0  0  0  0  0
  -29.1362  -21.0773   19.6554 C   0  0  0  0  0  0
  -29.1160  -22.2300   20.4462 C   0  0  0  0  0  0
  -29.2567  -23.7867   20.1208 C   0  0  0  0  0  0
  -29.1102  -18.4360   20.2073 C   0  0  0  0  0  0
  -30.1393  -17.3409   20.8192 C   0  0  0  0  0  0
  -28.0664  -24.8665   20.3087 C   0  0  0  0  0  0
  -29.1647  -21.7275   21.7573 N   0  0  0  0  0  0
  -29.1957  -20.4090   21.7784 N   0  0  0  0  0  0
  -29.2155  -19.9402   20.5022 N   0  0  0  0  0  0
  -29.7961  -15.8445   20.7329 N   0  0  0  0  0  0
  -31.4810  -12.5676   19.2066 H   0  0  0  0  0  0
  -30.3607  -11.4650   19.9531 H   0  0  0  0  0  0
  -29.8060  -11.7605   17.5144 H   0  0  0  0  0  0
  -29.6547  -13.4860   17.7422 H   0  0  0  0  0  0
  -27.8756  -11.2984   18.8765 H   0  0  0  0  0  0
  -27.3905  -12.5724   17.7901 H   0  0  0  0  0  0
  -27.6422  -14.2603   19.4908 H   0  0  0  0  0  0
  -28.7033  -12.1297   21.4062 H   0  0  0  0  0  0
  -28.4099  -13.7991   21.8181 H   0  0  0  0  0  0
  -25.2756   -9.5707   22.4721 H   0  0  0  0  0  0
  -24.0017   -7.4634   22.7445 H   0  0  0  0  0  0
  -21.0818   -8.8742   19.8959 H   0  0  0  0  0  0
  -22.3644  -10.9655   19.6154 H   0  0  0  0  0  0
  -21.2040   -7.6146   23.9725 H   0  0  0  0  0  0
  -21.1488   -6.0517   25.9074 H   0  0  0  0  0  0
  -22.0588   -2.7607   23.2837 H   0  0  0  0  0  0
  -22.4072  -11.9938   22.4903 H   0  0  0  0  0  0
  -21.1026  -13.1220   22.2619 H   0  0  0  0  0  0
  -24.6291  -15.8337   20.4934 H   0  0  0  0  0  0
  -26.2404  -15.6321   20.0323 H   0  0  0  0  0  0
  -26.7199  -32.5400   23.1070 H   0  0  0  0  0  0
  -25.0063  -33.9722   25.0374 H   0  0  0  0  0  0
  -22.7236  -31.2987   21.3963 H   0  0  0  0  0  0
  -23.3760  -35.9605   23.3256 H   0  0  0  0  0  0
  -24.3568  -36.8957   22.2051 H   0  0  0  0  0  0
  -23.7235  -37.6465   23.6694 H   0  0  0  0  0  0
  -26.1147  -31.5248   20.6105 H   0  0  0  0  0  0
  -26.8505  -30.8117   22.0151 H   0  0  0  0  0  0
  -28.1207  -28.9182   21.2022 H   0  0  0  0  0  0
  -25.9324  -25.9219   18.9719 H   0  0  0  0  0  0
  -23.9697  -27.3167   18.9936 H   0  0  0  0  0  0
  -23.7619  -30.5836   19.4005 H   0  0  0  0  0  0
  -22.7647  -29.2375   19.8602 H   0  0  0  0  0  0
  -25.1291  -36.1894   25.0800 H   0  0  0  0  0  0
  -20.9976  -28.3271   24.1379 H   0  0  0  0  0  0
  -20.5658  -26.2312   23.3591 H   0  0  0  0  0  0
  -21.6657  -26.7429   22.1203 H   0  0  0  0  0  0
  -19.6923  -25.6279   21.1246 H   0  0  0  0  0  0
  -19.6708  -27.3165   20.6694 H   0  0  0  0  0  0
  -17.4206  -26.6641   21.4030 H   0  0  0  0  0  0
  -18.0381  -26.0096   22.9037 H   0  0  0  0  0  0
  -19.7947  -30.7316   24.2174 H   0  0  0  0  0  0
  -17.5020  -31.6247   24.5191 H   0  0  0  0  0  0
  -15.5357  -30.2952   23.7706 H   0  0  0  0  0  0
  -15.8690  -28.0838   22.7011 H   0  0  0  0  0  0
  -24.5814  -30.7194   25.7727 H   0  0  0  0  0  0
  -24.8916  -32.2978   26.4860 H   0  0  0  0  0  0
  -25.7937  -30.8919   27.0228 H   0  0  0  0  0  0
  -26.2985  -29.6751   24.1246 H   0  0  0  0  0  0
  -27.3971  -29.7299   25.4829 H   0  0  0  0  0  0
  -27.8881  -30.4286   23.9588 H   0  0  0  0  0  0
  -27.2646  -33.3639   26.2116 H   0  0  0  0  0  0
  -28.3843  -32.6939   25.0345 H   0  0  0  0  0  0
  -28.0733  -31.8475   26.5420 H   0  0  0  0  0  0
  -28.2549  -38.0132   24.7561 H   0  0  0  0  0  0
  -28.1141  -36.2668   24.6179 H   0  0  0  0  0  0
  -27.2318  -37.1313   25.8846 H   0  0  0  0  0  0
  -20.9403  -29.8764   21.6849 H   0  0  0  0  0  0
  -26.0150  -38.2834   24.1454 H   0  0  0  0  0  0
  -29.1223  -20.9681   18.5770 H   0  0  0  0  0  0
  -29.6026  -23.8833   19.0912 H   0  0  0  0  0  0
  -30.0946  -24.1615   20.7101 H   0  0  0  0  0  0
  -28.1055  -18.1482   20.5165 H   0  0  0  0  0  0
  -29.1096  -18.3246   19.1235 H   0  0  0  0  0  0
  -30.2748  -17.5645   21.8788 H   0  0  0  0  0  0
  -31.1180  -17.4987   20.3653 H   0  0  0  0  0  0
  -27.6513  -24.7302   21.3084 H   0  0  0  0  0  0
  -27.2911  -24.5362   19.6229 H   0  0  0  0  0  0
  -28.8338  -15.6176   20.9361 H   0  0  0  0  0  0
  1 25  1  0  0  0
  1 30  2  0  0  0
  1 80  1  0  0  0
  2  3  1  0  0  0
  2 25  1  0  0  0
  2 81  1  0  0  0
  2 82  1  0  0  0
  3  4  1  0  0  0
  3 83  1  0  0  0
  3 84  1  0  0  0
  4  5  1  0  0  0
  4 85  1  0  0  0
  4 86  1  0  0  0
  5  6  1  0  0  0
  5 26  1  0  0  0
  5 87  1  0  0  0
  6 25  1  0  0  0
  6 88  1  0  0  0
  6 89  1  0  0  0
  7  8  2  0  0  0
  7 26  1  0  0  0
  7 29  1  0  0  0
  8  9  1  0  0  0
  8 22  1  0  0  0
  9 10  1  0  0  0
  9 27  2  0  0  0
 10 11  2  0  0  0
 10 15  1  0  0  0
 11 12  1  0  0  0
 11 90  1  0  0  0
 12 13  2  0  0  0
 12 91  1  0  0  0
 13 14  1  0  0  0
 13 31  1  0  0  0
 14 15  2  0  0  0
 14 92  1  0  0  0
 15 93  1  0  0  0
 16 17  2  0  0  0
 16 21  1  0  0  0
 16 31  1  0  0  0
 17 18  1  0  0  0
 17 94  1  0  0  0
 18 19  2  0  0  0
 18 95  1  0  0  0
 19 20  1  0  0  0
 19 24  1  0  0  0
 20 21  2  0  0  0
 20 96  1  0  0  0
 21 23  1  0  0  0
 22 28  1  0  0  0
 22 32  2  0  0  0
 26 27  1  0  0  0
 28 97  1  0  0  0
 28 98  1  0  0  0
 29 99  1  0  0  0
 29100  1  0  0  0
 33 34  1  0  0  0
 33 66  1  0  0  0
 33 70  2  0  0  0
 34 36  1  0  0  0
 34 59  1  0  0  0
 34101  1  0  0  0
 35 44  2  0  0  0
 35 45  1  0  0  0
 35 68  1  0  0  0
 36 56  1  0  0  0
 36102  1  0  0  0
 37 39  1  0  0  0
 37 47  1  0  0  0
 37 66  1  0  0  0
 37103  1  0  0  0
 38 43  2  0  0  0
 38 46  1  0  0  0
 38 47  1  0  0  0
 39 64  1  0  0  0
 39 67  2  0  0  0
 40 52  1  0  0  0
 40 53  2  0  0  0
 40 58  1  0  0  0
 41104  1  0  0  0
 41105  1  0  0  0
 41106  1  0  0  0
 41 48  1  0  0  0
 42 43  1  0  0  0
 42 66  1  0  0  0
 42107  1  0  0  0
 42108  1  0  0  0
 43 44  1  0  0  0
 44109  1  0  0  0
 45 46  2  0  0  0
 45110  1  0  0  0
 46111  1  0  0  0
 47112  1  0  0  0
 47113  1  0  0  0
 48 56  1  0  0  0
 48 65  1  0  0  0
 48114  1  0  0  0
 49 50  1  0  0  0
 49 53  1  0  0  0
 49 64  1  0  0  0
 49115  1  0  0  0
 50 51  1  0  0  0
 50116  1  0  0  0
 50117  1  0  0  0
 51 52  1  0  0  0
 51118  1  0  0  0
 51119  1  0  0  0
 52120  1  0  0  0
 52121  1  0  0  0
 53 54  1  0  0  0
 54 55  2  0  0  0
 54122  1  0  0  0
 55 57  1  0  0  0
 55123  1  0  0  0
 56 69  2  0  0  0
 57 58  2  0  0  0
 57124  1  0  0  0
 58125  1  0  0  0
 59 60  1  0  0  0
 59 61  1  0  0  0
 59 62  1  0  0  0
 60126  1  0  0  0
 60127  1  0  0  0
 60128  1  0  0  0
 61129  1  0  0  0
 61130  1  0  0  0
 61131  1  0  0  0
 62132  1  0  0  0
 62133  1  0  0  0
 62134  1  0  0  0
 63 65  1  0  0  0
 63135  1  0  0  0
 63136  1  0  0  0
 63137  1  0  0  0
 64138  1  0  0  0
 65139  1  0  0  0
 68 76  1  0  0  0
 71 72  2  0  0  0
 71 79  1  0  0  0
 71140  1  0  0  0
 72 73  1  0  0  0
 72 77  1  0  0  0
 73 76  1  0  0  0
 73141  1  0  0  0
 73142  1  0  0  0
 74 75  1  0  0  0
 74 79  1  0  0  0
 74143  1  0  0  0
 74144  1  0  0  0
 75 80  1  0  0  0
 75145  1  0  0  0
 75146  1  0  0  0
 76147  1  0  0  0
 76148  1  0  0  0
 77 78  2  0  0  0
 78 79  1  0  0  0
 80149  1  0  0  0
M  ISO  4   1 100  68 101  76 101  80 100
M  END
> <chiral flag>
0

> <version>
0

> <s_m_source_file>
/data/baiqing/PycharmProjects/Reinvent-master-3.2/result/LINK_invent/BTK/process_docking_weight1_custom_sum_contain_oxygen_bond_distance_aromatic_linkinvent_7_9_3/rearranged_h_0185.sdf

> <i_m_source_file_index>
28

> <r_mmod_Potential_Energy-OPLS-2005>
106.098121643066

> <r_mmod_Stretch_Energy-OPLS-2005>
124.519073486328

> <r_mmod_Bend_Energy-OPLS-2005>
170.317749023438

> <r_mmod_Torsional_Energy-OPLS-2005>
210.903030395508

> <r_mmod_Improper_Torsional_Energy-OPLS-2005>
5.84339189529419

> <r_mmod_Van_der_Waal_Energy-OPLS-2005>
116.346046447754

> <r_mmod_Electrostatic_Energy-OPLS-2005>
-367.682434082031

> <r_mmod_Solvation_Energy-OPLS-2005>
-238.350021362305

> <b_mmod_Minimization_Converged-OPLS-2005>
0

> <r_mmod_RMS_Derivative-OPLS-2005>
2.527104139328

$$$$
28
                    3D
 Structure written by MMmdl.
160169  0  0  1  0            999 V2000
  -30.7174  -14.5054   20.5954 C   0  0  0  0  0  0
  -30.4259  -12.3347   19.4389 C   0  0  0  0  0  0
  -29.5028  -12.5180   18.2164 C   0  0  0  0  0  0
  -28.0209  -12.3818   18.6204 C   0  0  0  0  0  0
  -27.6640  -13.2138   19.8812 C   0  0  2  0  0  0
  -28.7068  -12.9900   20.9985 C   0  0  0  0  0  0
  -25.2611  -13.8179   20.5708 C   0  0  0  0  0  0
  -24.1851  -13.0455   20.9164 C   0  0  0  0  0  0
  -24.6401  -11.6920   20.8720 C   0  0  0  0  0  0
  -23.9058  -10.4307   21.0386 C   0  0  0  0  0  0
  -24.3610   -9.4224   21.9169 C   0  0  0  0  0  0
  -23.6292   -8.2257   22.0753 C   0  0  0  0  0  0
  -22.4275   -8.0281   21.3545 C   0  0  0  0  0  0
  -21.9897   -9.0251   20.4650 C   0  0  0  0  0  0
  -22.7221  -10.2137   20.3045 C   0  0  0  0  0  0
  -21.6859   -6.0728   22.5273 C   0  0  0  0  0  0
  -21.4019   -6.5632   23.8203 C   0  0  0  0  0  0
  -21.3666   -5.6786   24.9167 C   0  0  0  0  0  0
  -21.6049   -4.3048   24.7219 C   0  0  0  0  0  0
  -21.8825   -3.8139   23.4338 C   0  0  0  0  0  0
  -21.9198   -4.6957   22.3396 C   0  0  0  0  0  0
  -22.7871  -13.5252   21.1825 C   0  0  0  0  0  0
  -22.1665   -4.2140   21.0977 F   0  0  0  0  0  0
  -21.5629   -3.4538   25.7736 F   0  0  0  0  0  0
  -30.0294  -13.3308   20.4519 N   0  0  0  0  0  0
  -26.3051  -12.9356   20.3404 N   0  0  0  0  0  0
  -25.9335  -11.6506   20.5752 N   0  0  0  0  0  0
  -22.0509  -12.8259   22.0391 N   0  0  0  0  0  0
  -25.4359  -15.1903   20.4169 N   0  0  0  0  0  0
  -31.8426  -14.6469   20.1031 O   0  0  0  0  0  0
  -21.6636   -6.8878   21.4242 O   0  0  0  0  0  0
  -22.3555  -14.5555   20.6668 O   0  0  0  0  0  0
  -24.6194  -31.8655   23.2098 C   0  0  0  0  0  0
  -25.9072  -32.4807   23.8398 C   0  0  1  0  0  0
  -27.2226  -27.3924   20.0987 C   0  0  0  0  0  0
  -25.5907  -33.8610   24.2321 N   0  0  0  0  0  0
  -23.4072  -30.4951   21.5507 C   0  0  2  0  0  0
  -24.8518  -28.9633   20.1085 C   0  0  0  0  0  0
  -22.7420  -29.4677   22.4965 C   0  0  0  0  0  0
  -18.0271  -28.1378   22.8478 C   0  0  0  0  0  0
  -24.1484  -36.7316   23.2636 C   0  0  0  0  0  0
  -25.9423  -30.8204   21.3679 C   0  0  0  0  0  0
  -26.0171  -29.4535   20.7113 C   0  0  0  0  0  0
  -27.2054  -28.6772   20.7042 C   0  0  0  0  0  0
  -26.0419  -26.9523   19.4527 C   0  0  0  0  0  0
  -24.8621  -27.7141   19.4713 C   0  0  0  0  0  0
  -23.6156  -29.8330   20.1638 C   0  0  0  0  0  0
  -25.4100  -36.3110   24.0340 C   0  0  1  0  0  0
  -20.5864  -28.3683   23.1300 C   0  0  2  0  0  0
  -20.6755  -26.9397   22.5454 C   0  0  0  0  0  0
  -19.5744  -26.6312   21.5260 C   0  0  0  0  0  0
  -18.1922  -26.7905   22.1642 C   0  0  0  0  0  0
  -19.1520  -28.8838   23.2889 C   0  0  0  0  0  0
  -18.9460  -30.1441   23.8912 C   0  0  0  0  0  0
  -17.6462  -30.6582   24.0571 C   0  0  0  0  0  0
  -25.9030  -34.9467   23.5125 C   0  0  0  0  0  0
  -16.5351  -29.9098   23.6312 C   0  0  0  0  0  0
  -16.7258  -28.6509   23.0338 C   0  0  0  0  0  0
  -26.4474  -31.6594   25.0732 C   0  0  0  0  0  0
  -25.3738  -31.3712   26.1483 C   0  0  0  0  0  0
  -27.0295  -30.3028   24.6124 C   0  0  0  0  0  0
  -27.6047  -32.4308   25.7500 C   0  0  0  0  0  0
  -27.5581  -37.1818   24.8463 C   0  0  0  0  0  0
  -21.4143  -29.3056   22.3704 N   0  0  0  0  0  0
  -26.4287  -37.3797   23.9414 N   0  0  0  0  0  0
  -24.6755  -31.0745   22.1007 N   0  0  0  0  0  0
  -23.4179  -28.8204   23.3010 O   0  0  0  0  0  0
  -28.3516  -26.5783   20.1656 O   0  0  0  0  0  0
  -26.5600  -34.8922   22.4695 O   0  0  0  0  0  0
  -23.5377  -32.1415   23.7470 O   0  0  0  0  0  0
  -27.2758  -22.5048   21.5418 C   0  0  0  0  0  0
  -26.8837  -21.1749   21.7228 C   0  0  0  0  0  0
  -28.5874  -22.7462   21.0931 C   0  0  0  0  0  0
  -28.9690  -20.4568   21.1285 C   0  0  0  0  0  0
  -29.6115  -17.4124   22.5387 C   0  0  0  0  0  0
  -29.5405  -15.8887   22.3343 C   0  0  0  0  0  0
  -30.2371  -16.9252   20.3141 C   0  0  0  0  0  0
  -29.4386  -17.9600   21.1252 C   0  0  2  0  0  0
  -25.4766  -20.8089   22.1386 C   0  0  0  0  0  0
  -29.0926  -24.1986   20.8824 C   0  0  0  0  0  0
  -28.1100  -25.1391   20.1064 C   0  0  0  0  0  0
  -27.7391  -20.1618   21.5184 N   0  0  0  0  0  0
  -29.4342  -21.6908   20.8935 N   0  0  0  0  0  0
  -30.0143  -15.6148   20.9673 N   0  0  0  0  0  0
  -29.8280  -19.3761   20.9540 N   0  0  0  0  0  0
  -31.4704  -12.4275   19.1403 H   0  0  0  0  0  0
  -30.3276  -11.3271   19.8455 H   0  0  0  0  0  0
  -29.7492  -11.7851   17.4473 H   0  0  0  0  0  0
  -29.6753  -13.4994   17.7721 H   0  0  0  0  0  0
  -27.8276  -11.3256   18.8058 H   0  0  0  0  0  0
  -27.3748  -12.6636   17.7884 H   0  0  0  0  0  0
  -27.7076  -14.2643   19.5931 H   0  0  0  0  0  0
  -28.6995  -11.9457   21.3108 H   0  0  0  0  0  0
  -28.4588  -13.5442   21.8968 H   0  0  0  0  0  0
  -25.2749   -9.5705   22.4747 H   0  0  0  0  0  0
  -24.0004   -7.4649   22.7468 H   0  0  0  0  0  0
  -21.0821   -8.8758   19.8959 H   0  0  0  0  0  0
  -22.3658  -10.9671   19.6155 H   0  0  0  0  0  0
  -21.2009   -7.6139   23.9707 H   0  0  0  0  0  0
  -21.1486   -6.0511   25.9069 H   0  0  0  0  0  0
  -22.0600   -2.7600   23.2834 H   0  0  0  0  0  0
  -22.4094  -11.9914   22.4797 H   0  0  0  0  0  0
  -21.1131  -13.1305   22.2592 H   0  0  0  0  0  0
  -24.6809  -15.8545   20.5445 H   0  0  0  0  0  0
  -26.3056  -15.6290   20.1424 H   0  0  0  0  0  0
  -26.7155  -32.5500   23.1173 H   0  0  0  0  0  0
  -25.0060  -33.9766   25.0469 H   0  0  0  0  0  0
  -22.6987  -31.3148   21.4145 H   0  0  0  0  0  0
  -23.3733  -35.9664   23.3295 H   0  0  0  0  0  0
  -24.3581  -36.8924   22.2052 H   0  0  0  0  0  0
  -23.7249  -37.6529   23.6645 H   0  0  0  0  0  0
  -26.0570  -31.5850   20.5985 H   0  0  0  0  0  0
  -26.8302  -30.8724   21.9866 H   0  0  0  0  0  0
  -28.0975  -29.0495   21.1900 H   0  0  0  0  0  0
  -26.0042  -26.0075   18.9313 H   0  0  0  0  0  0
  -23.9732  -27.3370   18.9833 H   0  0  0  0  0  0
  -23.7231  -30.6094   19.4058 H   0  0  0  0  0  0
  -22.7380  -29.2569   19.8673 H   0  0  0  0  0  0
  -25.1281  -36.1978   25.0836 H   0  0  0  0  0  0
  -20.9967  -28.3285   24.1417 H   0  0  0  0  0  0
  -20.5618  -26.2348   23.3695 H   0  0  0  0  0  0
  -21.6640  -26.7390   22.1303 H   0  0  0  0  0  0
  -19.6892  -25.6180   21.1392 H   0  0  0  0  0  0
  -19.6698  -27.3030   20.6717 H   0  0  0  0  0  0
  -17.4192  -26.6604   21.4051 H   0  0  0  0  0  0
  -18.0323  -26.0080   22.9070 H   0  0  0  0  0  0
  -19.7942  -30.7230   24.2305 H   0  0  0  0  0  0
  -17.5022  -31.6248   24.5203 H   0  0  0  0  0  0
  -15.5354  -30.3011   23.7636 H   0  0  0  0  0  0
  -15.8655  -28.0844   22.7045 H   0  0  0  0  0  0
  -24.5904  -30.7059   25.7836 H   0  0  0  0  0  0
  -24.8933  -32.2870   26.4939 H   0  0  0  0  0  0
  -25.8087  -30.8886   27.0243 H   0  0  0  0  0  0
  -26.2846  -29.6806   24.1148 H   0  0  0  0  0  0
  -27.4021  -29.7254   25.4596 H   0  0  0  0  0  0
  -27.8706  -30.4333   23.9307 H   0  0  0  0  0  0
  -27.2662  -33.3596   26.2112 H   0  0  0  0  0  0
  -28.3847  -32.6884   25.0319 H   0  0  0  0  0  0
  -28.0731  -31.8406   26.5395 H   0  0  0  0  0  0
  -28.2606  -38.0109   24.7511 H   0  0  0  0  0  0
  -28.1066  -36.2644   24.6280 H   0  0  0  0  0  0
  -27.2301  -37.1467   25.8864 H   0  0  0  0  0  0
  -20.9288  -29.8853   21.7004 H   0  0  0  0  0  0
  -26.0164  -38.2871   24.1409 H   0  0  0  0  0  0
  -26.5758  -23.3026   21.7453 H   0  0  0  0  0  0
  -30.5883  -17.6853   22.9421 H   0  0  0  0  0  0
  -28.8540  -17.7785   23.2327 H   0  0  0  0  0  0
  -28.4973  -15.5886   22.4219 H   0  0  0  0  0  0
  -30.1135  -15.3524   23.0933 H   0  0  0  0  0  0
  -31.3013  -17.1670   20.3400 H   0  0  0  0  0  0
  -29.9257  -16.9016   19.2695 H   0  0  0  0  0  0
  -28.3912  -17.8455   20.8413 H   0  0  0  0  0  0
  -25.0493  -21.5746   22.7853 H   0  0  0  0  0  0
  -25.4585  -19.8593   22.6751 H   0  0  0  0  0  0
  -24.8447  -20.7160   21.2550 H   0  0  0  0  0  0
  -30.0601  -24.1847   20.3805 H   0  0  0  0  0  0
  -29.2711  -24.6192   21.8723 H   0  0  0  0  0  0
  -28.0592  -24.8251   19.0639 H   0  0  0  0  0  0
  -27.1277  -24.9526   20.5326 H   0  0  0  0  0  0
  -30.7660  -19.5976   20.6434 H   0  0  0  0  0  0
  1 25  1  0  0  0
  1 30  2  0  0  0
  1 84  1  0  0  0
  2  3  1  0  0  0
  2 25  1  0  0  0
  2 86  1  0  0  0
  2 87  1  0  0  0
  3  4  1  0  0  0
  3 88  1  0  0  0
  3 89  1  0  0  0
  4  5  1  0  0  0
  4 90  1  0  0  0
  4 91  1  0  0  0
  5  6  1  0  0  0
  5 26  1  0  0  0
  5 92  1  0  0  0
  6 25  1  0  0  0
  6 93  1  0  0  0
  6 94  1  0  0  0
  7  8  2  0  0  0
  7 26  1  0  0  0
  7 29  1  0  0  0
  8  9  1  0  0  0
  8 22  1  0  0  0
  9 10  1  0  0  0
  9 27  2  0  0  0
 10 11  2  0  0  0
 10 15  1  0  0  0
 11 12  1  0  0  0
 11 95  1  0  0  0
 12 13  2  0  0  0
 12 96  1  0  0  0
 13 14  1  0  0  0
 13 31  1  0  0  0
 14 15  2  0  0  0
 14 97  1  0  0  0
 15 98  1  0  0  0
 16 17  2  0  0  0
 16 21  1  0  0  0
 16 31  1  0  0  0
 17 18  1  0  0  0
 17 99  1  0  0  0
 18 19  2  0  0  0
 18100  1  0  0  0
 19 20  1  0  0  0
 19 24  1  0  0  0
 20 21  2  0  0  0
 20101  1  0  0  0
 21 23  1  0  0  0
 22 28  1  0  0  0
 22 32  2  0  0  0
 26 27  1  0  0  0
 28102  1  0  0  0
 28103  1  0  0  0
 29104  1  0  0  0
 29105  1  0  0  0
 33 34  1  0  0  0
 33 66  1  0  0  0
 33 70  2  0  0  0
 34 36  1  0  0  0
 34 59  1  0  0  0
 34106  1  0  0  0
 35 44  2  0  0  0
 35 45  1  0  0  0
 35 68  1  0  0  0
 36 56  1  0  0  0
 36107  1  0  0  0
 37 39  1  0  0  0
 37 47  1  0  0  0
 37 66  1  0  0  0
 37108  1  0  0  0
 38 43  2  0  0  0
 38 46  1  0  0  0
 38 47  1  0  0  0
 39 64  1  0  0  0
 39 67  2  0  0  0
 40 52  1  0  0  0
 40 53  2  0  0  0
 40 58  1  0  0  0
 41109  1  0  0  0
 41110  1  0  0  0
 41111  1  0  0  0
 41 48  1  0  0  0
 42 43  1  0  0  0
 42 66  1  0  0  0
 42112  1  0  0  0
 42113  1  0  0  0
 43 44  1  0  0  0
 44114  1  0  0  0
 45 46  2  0  0  0
 45115  1  0  0  0
 46116  1  0  0  0
 47117  1  0  0  0
 47118  1  0  0  0
 48 56  1  0  0  0
 48 65  1  0  0  0
 48119  1  0  0  0
 49 50  1  0  0  0
 49 53  1  0  0  0
 49 64  1  0  0  0
 49120  1  0  0  0
 50 51  1  0  0  0
 50121  1  0  0  0
 50122  1  0  0  0
 51 52  1  0  0  0
 51123  1  0  0  0
 51124  1  0  0  0
 52125  1  0  0  0
 52126  1  0  0  0
 53 54  1  0  0  0
 54 55  2  0  0  0
 54127  1  0  0  0
 55 57  1  0  0  0
 55128  1  0  0  0
 56 69  2  0  0  0
 57 58  2  0  0  0
 57129  1  0  0  0
 58130  1  0  0  0
 59 60  1  0  0  0
 59 61  1  0  0  0
 59 62  1  0  0  0
 60131  1  0  0  0
 60132  1  0  0  0
 60133  1  0  0  0
 61134  1  0  0  0
 61135  1  0  0  0
 61136  1  0  0  0
 62137  1  0  0  0
 62138  1  0  0  0
 62139  1  0  0  0
 63 65  1  0  0  0
 63140  1  0  0  0
 63141  1  0  0  0
 63142  1  0  0  0
 64143  1  0  0  0
 65144  1  0  0  0
 68 81  1  0  0  0
 71 72  2  0  0  0
 71 73  1  0  0  0
 71145  1  0  0  0
 72 79  1  0  0  0
 72 82  1  0  0  0
 73 80  1  0  0  0
 73 83  2  0  0  0
 74 82  2  0  0  0
 74 83  1  0  0  0
 74 85  1  0  0  0
 75 76  1  0  0  0
 75 78  1  0  0  0
 75146  1  0  0  0
 75147  1  0  0  0
 76 84  1  0  0  0
 76148  1  0  0  0
 76149  1  0  0  0
 77 78  1  0  0  0
 77 84  1  0  0  0
 77150  1  0  0  0
 77151  1  0  0  0
 78 85  1  0  0  0
 78152  1  0  0  0
 79153  1  0  0  0
 79154  1  0  0  0
 79155  1  0  0  0
 80 81  1  0  0  0
 80156  1  0  0  0
 80157  1  0  0  0
 81158  1  0  0  0
 81159  1  0  0  0
 85160  1  0  0  0
M  ISO  4   1 100  68 101  81 101  84 100
M  END
> <chiral flag>
0

> <version>
0

> <s_m_source_file>
/data/baiqing/PycharmProjects/Reinvent-master-3.2/result/LINK_invent/BTK/process_docking_weight1_custom_sum_contain_oxygen_bond_distance_aromatic_linkinvent_7_9_3/rearranged_h_0185.sdf

> <i_m_source_file_index>
29

> <r_mmod_Potential_Energy-OPLS-2005>
-365.104766845703

> <r_mmod_Stretch_Energy-OPLS-2005>
49.0681991577148

> <r_mmod_Bend_Energy-OPLS-2005>
144.992691040039

> <r_mmod_Torsional_Energy-OPLS-2005>
300.894592285156

> <r_mmod_Improper_Torsional_Energy-OPLS-2005>
11.5946645736694

> <r_mmod_Van_der_Waal_Energy-OPLS-2005>
166.767440795898

> <r_mmod_Electrostatic_Energy-OPLS-2005>
-828.13134765625

> <r_mmod_Solvation_Energy-OPLS-2005>
-231.391876220703

> <b_mmod_Minimization_Converged-OPLS-2005>
0

> <r_mmod_RMS_Derivative-OPLS-2005>
1.98533976078033

$$$$
29
                    3D
 Structure written by MMmdl.
159168  0  0  1  0            999 V2000
  -30.6605  -14.5666   20.5714 C   0  0  0  0  0  0
  -30.4400  -12.3555   19.4502 C   0  0  0  0  0  0
  -29.5104  -12.4851   18.2255 C   0  0  0  0  0  0
  -28.0311  -12.3401   18.6311 C   0  0  0  0  0  0
  -27.6603  -13.2044   19.8688 C   0  0  2  0  0  0
  -28.7007  -13.0170   20.9937 C   0  0  0  0  0  0
  -25.2628  -13.8171   20.5652 C   0  0  0  0  0  0
  -24.1861  -13.0461   20.9145 C   0  0  0  0  0  0
  -24.6405  -11.6902   20.8741 C   0  0  0  0  0  0
  -23.9052  -10.4303   21.0419 C   0  0  0  0  0  0
  -24.3590   -9.4216   21.9183 C   0  0  0  0  0  0
  -23.6273   -8.2248   22.0746 C   0  0  0  0  0  0
  -22.4273   -8.0297   21.3529 C   0  0  0  0  0  0
  -21.9896   -9.0282   20.4643 C   0  0  0  0  0  0
  -22.7244  -10.2143   20.3058 C   0  0  0  0  0  0
  -21.6837   -6.0771   22.5291 C   0  0  0  0  0  0
  -21.4053   -6.5648   23.8253 C   0  0  0  0  0  0
  -21.3635   -5.6787   24.9191 C   0  0  0  0  0  0
  -21.6048   -4.3052   24.7233 C   0  0  0  0  0  0
  -21.8825   -3.8161   23.4353 C   0  0  0  0  0  0
  -21.9173   -4.6993   22.3418 C   0  0  0  0  0  0
  -22.7913  -13.5288   21.1808 C   0  0  0  0  0  0
  -22.1640   -4.2178   21.1000 F   0  0  0  0  0  0
  -21.5624   -3.4533   25.7742 F   0  0  0  0  0  0
  -30.0173  -13.3652   20.4408 N   0  0  0  0  0  0
  -26.3043  -12.9298   20.3371 N   0  0  0  0  0  0
  -25.9328  -11.6461   20.5795 N   0  0  0  0  0  0
  -22.0502  -12.8327   22.0370 N   0  0  0  0  0  0
  -25.4341  -15.1887   20.3978 N   0  0  0  0  0  0
  -31.7864  -14.7460   20.0955 O   0  0  0  0  0  0
  -21.6589   -6.8916   21.4252 O   0  0  0  0  0  0
  -22.3597  -14.5589   20.6618 O   0  0  0  0  0  0
  -24.6220  -31.8658   23.2049 C   0  0  0  0  0  0
  -25.9099  -32.4795   23.8383 C   0  0  1  0  0  0
  -27.2272  -27.3544   20.1408 C   0  0  0  0  0  0
  -25.5959  -33.8598   24.2325 N   0  0  0  0  0  0
  -23.4127  -30.4879   21.5458 C   0  0  2  0  0  0
  -24.8601  -28.9362   20.1231 C   0  0  0  0  0  0
  -22.7456  -29.4681   22.4985 C   0  0  0  0  0  0
  -18.0284  -28.1391   22.8506 C   0  0  0  0  0  0
  -24.1488  -36.7305   23.2639 C   0  0  0  0  0  0
  -25.9475  -30.8075   21.3718 C   0  0  0  0  0  0
  -26.0222  -29.4327   20.7272 C   0  0  0  0  0  0
  -27.2104  -28.6508   20.7258 C   0  0  0  0  0  0
  -26.0483  -26.8948   19.5181 C   0  0  0  0  0  0
  -24.8737  -27.6734   19.5099 C   0  0  0  0  0  0
  -23.6253  -29.8126   20.1643 C   0  0  0  0  0  0
  -25.4108  -36.3097   24.0346 C   0  0  1  0  0  0
  -20.5882  -28.3707   23.1323 C   0  0  2  0  0  0
  -20.6791  -26.9448   22.5426 C   0  0  0  0  0  0
  -19.5758  -26.6402   21.5240 C   0  0  0  0  0  0
  -18.1935  -26.7937   22.1643 C   0  0  0  0  0  0
  -19.1531  -28.8859   23.2918 C   0  0  0  0  0  0
  -18.9451  -30.1452   23.8942 C   0  0  0  0  0  0
  -17.6452  -30.6597   24.0579 C   0  0  0  0  0  0
  -25.9038  -34.9468   23.5123 C   0  0  0  0  0  0
  -16.5348  -29.9110   23.6302 C   0  0  0  0  0  0
  -16.7274  -28.6520   23.0342 C   0  0  0  0  0  0
  -26.4507  -31.6586   25.0741 C   0  0  0  0  0  0
  -25.3752  -31.3728   26.1476 C   0  0  0  0  0  0
  -27.0359  -30.3007   24.6189 C   0  0  0  0  0  0
  -27.6065  -32.4330   25.7510 C   0  0  0  0  0  0
  -27.5593  -37.1798   24.8453 C   0  0  0  0  0  0
  -21.4175  -29.3073   22.3721 N   0  0  0  0  0  0
  -26.4282  -37.3795   23.9420 N   0  0  0  0  0  0
  -24.6784  -31.0703   22.0991 N   0  0  0  0  0  0
  -23.4191  -28.8240   23.3068 O   0  0  0  0  0  0
  -28.3942  -26.6006   20.0731 O   0  0  0  0  0  0
  -26.5580  -34.8934   22.4667 O   0  0  0  0  0  0
  -23.5389  -32.1454   23.7404 O   0  0  0  0  0  0
  -29.7430  -21.5311   18.4009 C   0  0  0  0  0  0
  -28.5891  -22.7056   19.9070 C   0  0  0  0  0  0
  -29.0499  -20.5164   20.2376 C   0  0  0  0  0  0
  -30.6089  -17.0384   22.3683 C   0  0  0  0  0  0
  -29.6919  -15.8278   22.4752 C   0  0  0  0  0  0
  -30.2084  -17.0932   20.8978 C   0  0  2  0  0  0
  -30.4121  -21.4771   17.0457 C   0  0  0  0  0  0
  -27.7732  -24.0116   20.1672 C   0  0  0  0  0  0
  -28.9730  -17.9554   20.4722 C   0  0  0  0  0  0
  -28.5128  -25.2878   20.7245 C   0  0  0  0  0  0
  -29.2394  -22.7089   18.7486 N   0  0  0  0  0  0
  -29.6813  -20.3965   19.0854 N   0  0  0  0  0  0
  -28.4824  -21.6333   20.7229 N   0  0  0  0  0  0
  -29.9170  -15.6215   21.0348 N   0  0  0  0  0  0
  -28.9567  -19.3469   20.9941 N   0  0  0  0  0  0
  -31.4799  -12.4814   19.1415 H   0  0  0  0  0  0
  -30.3866  -11.3512   19.8770 H   0  0  0  0  0  0
  -29.7672  -11.7293   17.4829 H   0  0  0  0  0  0
  -29.6617  -13.4535   17.7448 H   0  0  0  0  0  0
  -27.8553  -11.2846   18.8469 H   0  0  0  0  0  0
  -27.3858  -12.5843   17.7877 H   0  0  0  0  0  0
  -27.6936  -14.2480   19.5540 H   0  0  0  0  0  0
  -28.7060  -11.9823   21.3361 H   0  0  0  0  0  0
  -28.4478  -13.6073   21.8714 H   0  0  0  0  0  0
  -25.2745   -9.5687   22.4723 H   0  0  0  0  0  0
  -23.9984   -7.4639   22.7475 H   0  0  0  0  0  0
  -21.0822   -8.8863   19.8949 H   0  0  0  0  0  0
  -22.3770  -10.9684   19.6147 H   0  0  0  0  0  0
  -21.2045   -7.6150   23.9807 H   0  0  0  0  0  0
  -21.1451   -6.0479   25.9110 H   0  0  0  0  0  0
  -22.0583   -2.7612   23.2841 H   0  0  0  0  0  0
  -22.3995  -11.9982   22.4842 H   0  0  0  0  0  0
  -21.1119  -13.1449   22.2480 H   0  0  0  0  0  0
  -24.6686  -15.8476   20.4911 H   0  0  0  0  0  0
  -26.3052  -15.6341   20.1348 H   0  0  0  0  0  0
  -26.7174  -32.5484   23.1151 H   0  0  0  0  0  0
  -25.0207  -33.9751   25.0535 H   0  0  0  0  0  0
  -22.7036  -31.3069   21.4017 H   0  0  0  0  0  0
  -23.3760  -35.9621   23.3260 H   0  0  0  0  0  0
  -24.3602  -36.8948   22.2064 H   0  0  0  0  0  0
  -23.7218  -37.6497   23.6655 H   0  0  0  0  0  0
  -26.0709  -31.5683   20.5986 H   0  0  0  0  0  0
  -26.8303  -30.8603   21.9976 H   0  0  0  0  0  0
  -28.1119  -29.0396   21.1808 H   0  0  0  0  0  0
  -26.0244  -25.9455   19.0091 H   0  0  0  0  0  0
  -23.9876  -27.2959   19.0200 H   0  0  0  0  0  0
  -23.7362  -30.5815   19.3989 H   0  0  0  0  0  0
  -22.7471  -29.2354   19.8696 H   0  0  0  0  0  0
  -25.1276  -36.1968   25.0837 H   0  0  0  0  0  0
  -20.9984  -28.3280   24.1440 H   0  0  0  0  0  0
  -20.5760  -26.2328   23.3631 H   0  0  0  0  0  0
  -21.6653  -26.7541   22.1184 H   0  0  0  0  0  0
  -19.6941  -25.6322   21.1258 H   0  0  0  0  0  0
  -19.6673  -27.3221   20.6775 H   0  0  0  0  0  0
  -17.4237  -26.6732   21.4004 H   0  0  0  0  0  0
  -18.0295  -26.0052   22.9003 H   0  0  0  0  0  0
  -19.7926  -30.7243   24.2356 H   0  0  0  0  0  0
  -17.5008  -31.6264   24.5204 H   0  0  0  0  0  0
  -15.5349  -30.3028   23.7577 H   0  0  0  0  0  0
  -15.8685  -28.0838   22.7033 H   0  0  0  0  0  0
  -24.5899  -30.7109   25.7810 H   0  0  0  0  0  0
  -24.8985  -32.2903   26.4933 H   0  0  0  0  0  0
  -25.8075  -30.8885   27.0240 H   0  0  0  0  0  0
  -26.2931  -29.6729   24.1254 H   0  0  0  0  0  0
  -27.4100  -29.7287   25.4692 H   0  0  0  0  0  0
  -27.8773  -30.4283   23.9374 H   0  0  0  0  0  0
  -27.2661  -33.3615   26.2105 H   0  0  0  0  0  0
  -28.3865  -32.6929   25.0341 H   0  0  0  0  0  0
  -28.0756  -31.8472   26.5425 H   0  0  0  0  0  0
  -28.2567  -38.0141   24.7572 H   0  0  0  0  0  0
  -28.1131  -36.2682   24.6164 H   0  0  0  0  0  0
  -27.2331  -37.1315   25.8857 H   0  0  0  0  0  0
  -20.9369  -29.8771   21.6904 H   0  0  0  0  0  0
  -26.0176  -38.2865   24.1434 H   0  0  0  0  0  0
  -31.6637  -16.7964   22.5181 H   0  0  0  0  0  0
  -30.3094  -17.8955   22.9698 H   0  0  0  0  0  0
  -28.6578  -16.0824   22.7162 H   0  0  0  0  0  0
  -30.0721  -15.0502   23.1368 H   0  0  0  0  0  0
  -31.0831  -17.3114   20.2815 H   0  0  0  0  0  0
  -31.0850  -22.3254   16.9225 H   0  0  0  0  0  0
  -29.6591  -21.5284   16.2589 H   0  0  0  0  0  0
  -30.9894  -20.5634   16.9057 H   0  0  0  0  0  0
  -26.9270  -23.7862   20.8165 H   0  0  0  0  0  0
  -27.3337  -24.2623   19.2041 H   0  0  0  0  0  0
  -28.0616  -17.4851   20.8441 H   0  0  0  0  0  0
  -28.8548  -17.9607   19.3864 H   0  0  0  0  0  0
  -29.5775  -25.0624   20.6724 H   0  0  0  0  0  0
  -28.3135  -25.3904   21.7914 H   0  0  0  0  0  0
  -28.4429  -19.4614   21.8576 H   0  0  0  0  0  0
  1 25  1  0  0  0
  1 30  2  0  0  0
  1 84  1  0  0  0
  2  3  1  0  0  0
  2 25  1  0  0  0
  2 86  1  0  0  0
  2 87  1  0  0  0
  3  4  1  0  0  0
  3 88  1  0  0  0
  3 89  1  0  0  0
  4  5  1  0  0  0
  4 90  1  0  0  0
  4 91  1  0  0  0
  5  6  1  0  0  0
  5 26  1  0  0  0
  5 92  1  0  0  0
  6 25  1  0  0  0
  6 93  1  0  0  0
  6 94  1  0  0  0
  7  8  2  0  0  0
  7 26  1  0  0  0
  7 29  1  0  0  0
  8  9  1  0  0  0
  8 22  1  0  0  0
  9 10  1  0  0  0
  9 27  2  0  0  0
 10 11  2  0  0  0
 10 15  1  0  0  0
 11 12  1  0  0  0
 11 95  1  0  0  0
 12 13  2  0  0  0
 12 96  1  0  0  0
 13 14  1  0  0  0
 13 31  1  0  0  0
 14 15  2  0  0  0
 14 97  1  0  0  0
 15 98  1  0  0  0
 16 17  2  0  0  0
 16 21  1  0  0  0
 16 31  1  0  0  0
 17 18  1  0  0  0
 17 99  1  0  0  0
 18 19  2  0  0  0
 18100  1  0  0  0
 19 20  1  0  0  0
 19 24  1  0  0  0
 20 21  2  0  0  0
 20101  1  0  0  0
 21 23  1  0  0  0
 22 28  1  0  0  0
 22 32  2  0  0  0
 26 27  1  0  0  0
 28102  1  0  0  0
 28103  1  0  0  0
 29104  1  0  0  0
 29105  1  0  0  0
 33 34  1  0  0  0
 33 66  1  0  0  0
 33 70  2  0  0  0
 34 36  1  0  0  0
 34 59  1  0  0  0
 34106  1  0  0  0
 35 44  2  0  0  0
 35 45  1  0  0  0
 35 68  1  0  0  0
 36 56  1  0  0  0
 36107  1  0  0  0
 37 39  1  0  0  0
 37 47  1  0  0  0
 37 66  1  0  0  0
 37108  1  0  0  0
 38 43  2  0  0  0
 38 46  1  0  0  0
 38 47  1  0  0  0
 39 64  1  0  0  0
 39 67  2  0  0  0
 40 52  1  0  0  0
 40 53  2  0  0  0
 40 58  1  0  0  0
 41109  1  0  0  0
 41110  1  0  0  0
 41111  1  0  0  0
 41 48  1  0  0  0
 42 43  1  0  0  0
 42 66  1  0  0  0
 42112  1  0  0  0
 42113  1  0  0  0
 43 44  1  0  0  0
 44114  1  0  0  0
 45 46  2  0  0  0
 45115  1  0  0  0
 46116  1  0  0  0
 47117  1  0  0  0
 47118  1  0  0  0
 48 56  1  0  0  0
 48 65  1  0  0  0
 48119  1  0  0  0
 49 50  1  0  0  0
 49 53  1  0  0  0
 49 64  1  0  0  0
 49120  1  0  0  0
 50 51  1  0  0  0
 50121  1  0  0  0
 50122  1  0  0  0
 51 52  1  0  0  0
 51123  1  0  0  0
 51124  1  0  0  0
 52125  1  0  0  0
 52126  1  0  0  0
 53 54  1  0  0  0
 54 55  2  0  0  0
 54127  1  0  0  0
 55 57  1  0  0  0
 55128  1  0  0  0
 56 69  2  0  0  0
 57 58  2  0  0  0
 57129  1  0  0  0
 58130  1  0  0  0
 59 60  1  0  0  0
 59 61  1  0  0  0
 59 62  1  0  0  0
 60131  1  0  0  0
 60132  1  0  0  0
 60133  1  0  0  0
 61134  1  0  0  0
 61135  1  0  0  0
 61136  1  0  0  0
 62137  1  0  0  0
 62138  1  0  0  0
 62139  1  0  0  0
 63 65  1  0  0  0
 63140  1  0  0  0
 63141  1  0  0  0
 63142  1  0  0  0
 64143  1  0  0  0
 65144  1  0  0  0
 68 80  1  0  0  0
 71 77  1  0  0  0
 71 81  2  0  0  0
 71 82  1  0  0  0
 72 78  1  0  0  0
 72 81  1  0  0  0
 72 83  2  0  0  0
 73 82  2  0  0  0
 73 83  1  0  0  0
 73 85  1  0  0  0
 74 75  1  0  0  0
 74 76  1  0  0  0
 74145  1  0  0  0
 74146  1  0  0  0
 75 84  1  0  0  0
 75147  1  0  0  0
 75148  1  0  0  0
 76 79  1  0  0  0
 76 84  1  0  0  0
 76149  1  0  0  0
 77150  1  0  0  0
 77151  1  0  0  0
 77152  1  0  0  0
 78 80  1  0  0  0
 78153  1  0  0  0
 78154  1  0  0  0
 79 85  1  0  0  0
 79155  1  0  0  0
 79156  1  0  0  0
 80157  1  0  0  0
 80158  1  0  0  0
 85159  1  0  0  0
M  ISO  4   1 100  68 101  80 101  84 100
M  END
> <chiral flag>
0

> <version>
0

> <s_m_source_file>
/data/baiqing/PycharmProjects/Reinvent-master-3.2/result/LINK_invent/BTK/process_docking_weight1_custom_sum_contain_oxygen_bond_distance_aromatic_linkinvent_7_9_3/rearranged_h_0185.sdf

> <i_m_source_file_index>
30

> <r_mmod_Potential_Energy-OPLS-2005>
-671.290405273438

> <r_mmod_Stretch_Energy-OPLS-2005>
60.8719863891602

> <r_mmod_Bend_Energy-OPLS-2005>
142.999908447266

> <r_mmod_Torsional_Energy-OPLS-2005>
284.231567382812

> <r_mmod_Improper_Torsional_Energy-OPLS-2005>
14.6271715164185

> <r_mmod_Van_der_Waal_Energy-OPLS-2005>
165.156158447266

> <r_mmod_Electrostatic_Energy-OPLS-2005>
-1131.20275878906

> <r_mmod_Solvation_Energy-OPLS-2005>
-234.311340332031

> <b_mmod_Minimization_Converged-OPLS-2005>
0

> <r_mmod_RMS_Derivative-OPLS-2005>
4.5627555847168

$$$$
30
                    3D
 Structure written by MMmdl.
153162  0  0  1  0            999 V2000
  -30.4937  -15.1408   20.4041 C   0  0  0  0  0  0
  -30.4420  -12.7193   19.5215 C   0  0  0  0  0  0
  -29.5381  -12.5748   18.2738 C   0  0  0  0  0  0
  -28.0813  -12.3096   18.6944 C   0  0  0  0  0  0
  -27.6241  -13.2650   19.8266 C   0  0  2  0  0  0
  -28.6583  -13.3932   20.9668 C   0  0  0  0  0  0
  -25.2464  -13.8256   20.5679 C   0  0  0  0  0  0
  -24.1812  -13.0449   20.9224 C   0  0  0  0  0  0
  -24.6459  -11.6947   20.8739 C   0  0  0  0  0  0
  -23.9149  -10.4315   21.0395 C   0  0  0  0  0  0
  -24.3687   -9.4219   21.9168 C   0  0  0  0  0  0
  -23.6334   -8.2267   22.0759 C   0  0  0  0  0  0
  -22.4302   -8.0320   21.3560 C   0  0  0  0  0  0
  -21.9958   -9.0292   20.4646 C   0  0  0  0  0  0
  -22.7316  -10.2160   20.3040 C   0  0  0  0  0  0
  -21.6877   -6.0763   22.5285 C   0  0  0  0  0  0
  -21.4022   -6.5646   23.8221 C   0  0  0  0  0  0
  -21.3665   -5.6785   24.9176 C   0  0  0  0  0  0
  -21.6051   -4.3051   24.7213 C   0  0  0  0  0  0
  -21.8821   -3.8161   23.4328 C   0  0  0  0  0  0
  -21.9204   -4.6991   22.3393 C   0  0  0  0  0  0
  -22.7827  -13.5211   21.1859 C   0  0  0  0  0  0
  -22.1671   -4.2182   21.0971 F   0  0  0  0  0  0
  -21.5634   -3.4523   25.7724 F   0  0  0  0  0  0
  -29.9143  -13.8523   20.3563 N   0  0  0  0  0  0
  -26.2884  -12.9495   20.3176 N   0  0  0  0  0  0
  -25.9380  -11.6617   20.5690 N   0  0  0  0  0  0
  -22.0468  -12.8204   22.0420 N   0  0  0  0  0  0
  -25.4082  -15.1980   20.4085 N   0  0  0  0  0  0
  -31.7083  -15.1653   20.1677 O   0  0  0  0  0  0
  -21.6663   -6.8908   21.4253 O   0  0  0  0  0  0
  -22.3513  -14.5508   20.6694 O   0  0  0  0  0  0
  -24.6616  -31.8340   23.1771 C   0  0  0  0  0  0
  -25.9308  -32.4642   23.8223 C   0  0  1  0  0  0
  -27.2012  -26.9658   20.1563 C   0  0  0  0  0  0
  -25.5984  -33.8460   24.2136 N   0  0  0  0  0  0
  -23.4698  -30.4510   21.5315 C   0  0  2  0  0  0
  -24.9133  -28.8593   20.1097 C   0  0  0  0  0  0
  -22.7658  -29.4500   22.4854 C   0  0  0  0  0  0
  -18.0326  -28.1396   22.8488 C   0  0  0  0  0  0
  -24.1494  -36.7216   23.2652 C   0  0  0  0  0  0
  -26.0401  -30.6505   21.4018 C   0  0  0  0  0  0
  -26.1010  -29.2480   20.7394 C   0  0  0  0  0  0
  -27.2364  -28.3235   20.7419 C   0  0  0  0  0  0
  -25.9697  -26.7325   19.4885 C   0  0  0  0  0  0
  -24.8725  -27.6193   19.4657 C   0  0  0  0  0  0
  -23.6997  -29.7817   20.1525 C   0  0  0  0  0  0
  -25.4132  -36.3016   24.0325 C   0  0  1  0  0  0
  -20.5957  -28.3743   23.1216 C   0  0  2  0  0  0
  -20.6799  -26.9435   22.5409 C   0  0  0  0  0  0
  -19.5761  -26.6380   21.5227 C   0  0  0  0  0  0
  -18.1951  -26.7936   22.1641 C   0  0  0  0  0  0
  -19.1587  -28.8886   23.2842 C   0  0  0  0  0  0
  -18.9489  -30.1477   23.8870 C   0  0  0  0  0  0
  -17.6476  -30.6585   24.0554 C   0  0  0  0  0  0
  -25.9095  -34.9390   23.5051 C   0  0  0  0  0  0
  -16.5370  -29.9072   23.6330 C   0  0  0  0  0  0
  -16.7309  -28.6490   23.0368 C   0  0  0  0  0  0
  -26.4536  -31.6551   25.0724 C   0  0  0  0  0  0
  -25.3658  -31.3781   26.1375 C   0  0  0  0  0  0
  -27.0405  -30.2927   24.6404 C   0  0  0  0  0  0
  -27.6062  -32.4313   25.7505 C   0  0  0  0  0  0
  -27.5579  -37.1778   24.8468 C   0  0  0  0  0  0
  -21.4338  -29.3050   22.3577 N   0  0  0  0  0  0
  -26.4286  -37.3745   23.9412 N   0  0  0  0  0  0
  -24.7456  -31.0037   22.0898 N   0  0  0  0  0  0
  -23.4237  -28.8062   23.3060 O   0  0  0  0  0  0
  -28.2191  -25.8808   20.2788 O   0  0  0  0  0  0
  -26.5719  -34.8910   22.4647 O   0  0  0  0  0  0
  -23.5690  -32.1295   23.6883 O   0  0  0  0  0  0
  -27.3987  -22.9640   18.3369 C   0  0  0  0  0  0
  -28.6056  -22.0148   19.9774 C   0  0  0  0  0  0
  -28.1150  -24.4398   19.9024 C   0  0  0  0  0  0
  -29.9979  -18.7395   21.8608 C   0  0  0  0  0  0
  -29.8972  -20.3227   21.6538 C   0  0  0  0  0  0
  -29.0470  -19.2144   19.8051 C   0  0  0  0  0  0
  -29.9921  -17.9967   20.4923 C   0  0  2  0  0  0
  -26.6372  -22.7654   17.0410 C   0  0  0  0  0  0
  -27.9063  -21.8567   18.8729 N   0  0  0  0  0  0
  -27.4766  -24.2235   18.7595 N   0  0  0  0  0  0
  -28.7462  -23.3189   20.5408 N   0  0  0  0  0  0
  -29.1491  -20.6518   20.4314 N   0  0  0  0  0  0
  -29.7204  -16.3756   20.5190 N   0  0  0  0  0  0
  -31.4719  -12.8920   19.2074 H   0  0  0  0  0  0
  -30.4625  -11.7881   20.0900 H   0  0  0  0  0  0
  -29.8997  -11.7744   17.6256 H   0  0  0  0  0  0
  -29.5902  -13.4935   17.6853 H   0  0  0  0  0  0
  -28.0226  -11.2759   19.0374 H   0  0  0  0  0  0
  -27.4165  -12.3852   17.8333 H   0  0  0  0  0  0
  -27.5573  -14.2464   19.3559 H   0  0  0  0  0  0
  -28.7860  -12.4533   21.5056 H   0  0  0  0  0  0
  -28.3157  -14.1282   21.6973 H   0  0  0  0  0  0
  -25.2833   -9.5702   22.4742 H   0  0  0  0  0  0
  -24.0054   -7.4666   22.7478 H   0  0  0  0  0  0
  -21.0895   -8.8824   19.8934 H   0  0  0  0  0  0
  -22.3788  -10.9708   19.6150 H   0  0  0  0  0  0
  -21.2007   -7.6146   23.9743 H   0  0  0  0  0  0
  -21.1483   -6.0499   25.9085 H   0  0  0  0  0  0
  -22.0594   -2.7625   23.2812 H   0  0  0  0  0  0
  -22.4090  -11.9878   22.4833 H   0  0  0  0  0  0
  -21.1075  -13.1240   22.2564 H   0  0  0  0  0  0
  -24.6297  -15.8382   20.5131 H   0  0  0  0  0  0
  -26.2332  -15.6434   20.0278 H   0  0  0  0  0  0
  -26.7398  -32.5196   23.0964 H   0  0  0  0  0  0
  -25.0050  -33.9549   25.0235 H   0  0  0  0  0  0
  -22.7815  -31.2832   21.3738 H   0  0  0  0  0  0
  -23.3789  -35.9515   23.3292 H   0  0  0  0  0  0
  -24.3571  -36.8870   22.2068 H   0  0  0  0  0  0
  -23.7200  -37.6388   23.6691 H   0  0  0  0  0  0
  -26.2189  -31.3961   20.6258 H   0  0  0  0  0  0
  -26.9040  -30.7016   22.0513 H   0  0  0  0  0  0
  -28.1323  -28.6184   21.2688 H   0  0  0  0  0  0
  -25.7621  -25.7970   19.0038 H   0  0  0  0  0  0
  -23.9676  -27.3072   18.9612 H   0  0  0  0  0  0
  -23.8476  -30.5578   19.4022 H   0  0  0  0  0  0
  -22.8086  -29.2387   19.8325 H   0  0  0  0  0  0
  -25.1324  -36.1851   25.0820 H   0  0  0  0  0  0
  -21.0045  -28.3333   24.1337 H   0  0  0  0  0  0
  -20.5687  -26.2366   23.3656 H   0  0  0  0  0  0
  -21.6661  -26.7411   22.1207 H   0  0  0  0  0  0
  -19.6909  -25.6282   21.1273 H   0  0  0  0  0  0
  -19.6668  -27.3184   20.6753 H   0  0  0  0  0  0
  -17.4221  -26.6714   21.4043 H   0  0  0  0  0  0
  -18.0308  -26.0083   22.9033 H   0  0  0  0  0  0
  -19.7956  -30.7311   24.2234 H   0  0  0  0  0  0
  -17.5015  -31.6259   24.5159 H   0  0  0  0  0  0
  -15.5365  -30.2955   23.7641 H   0  0  0  0  0  0
  -15.8727  -28.0775   22.7105 H   0  0  0  0  0  0
  -24.5848  -30.7131   25.7663 H   0  0  0  0  0  0
  -24.8825  -32.2974   26.4702 H   0  0  0  0  0  0
  -25.7882  -30.8995   27.0224 H   0  0  0  0  0  0
  -26.3048  -29.6631   24.1388 H   0  0  0  0  0  0
  -27.3936  -29.7251   25.5027 H   0  0  0  0  0  0
  -27.9003  -30.4127   23.9810 H   0  0  0  0  0  0
  -27.2678  -33.3652   26.2005 H   0  0  0  0  0  0
  -28.3905  -32.6812   25.0345 H   0  0  0  0  0  0
  -28.0697  -31.8480   26.5475 H   0  0  0  0  0  0
  -28.2597  -38.0080   24.7536 H   0  0  0  0  0  0
  -28.1079  -36.2610   24.6274 H   0  0  0  0  0  0
  -27.2297  -37.1404   25.8874 H   0  0  0  0  0  0
  -20.9586  -29.8757   21.6733 H   0  0  0  0  0  0
  -26.0156  -38.2823   24.1391 H   0  0  0  0  0  0
  -29.1310  -18.4068   22.4357 H   0  0  0  0  0  0
  -30.8752  -18.4798   22.4558 H   0  0  0  0  0  0
  -30.9000  -20.7445   21.5630 H   0  0  0  0  0  0
  -29.4264  -20.7950   22.5160 H   0  0  0  0  0  0
  -27.9989  -18.9196   19.8568 H   0  0  0  0  0  0
  -29.2786  -19.2884   18.7428 H   0  0  0  0  0  0
  -30.9910  -18.1085   20.0691 H   0  0  0  0  0  0
  -26.6806  -21.7322   16.6936 H   0  0  0  0  0  0
  -27.0604  -23.3939   16.2581 H   0  0  0  0  0  0
  -25.5866  -23.0303   17.1645 H   0  0  0  0  0  0
  -28.7433  -16.1659   20.6540 H   0  0  0  0  0  0
  1 25  1  0  0  0
  1 30  2  0  0  0
  1 83  1  0  0  0
  2  3  1  0  0  0
  2 25  1  0  0  0
  2 84  1  0  0  0
  2 85  1  0  0  0
  3  4  1  0  0  0
  3 86  1  0  0  0
  3 87  1  0  0  0
  4  5  1  0  0  0
  4 88  1  0  0  0
  4 89  1  0  0  0
  5  6  1  0  0  0
  5 26  1  0  0  0
  5 90  1  0  0  0
  6 25  1  0  0  0
  6 91  1  0  0  0
  6 92  1  0  0  0
  7  8  2  0  0  0
  7 26  1  0  0  0
  7 29  1  0  0  0
  8  9  1  0  0  0
  8 22  1  0  0  0
  9 10  1  0  0  0
  9 27  2  0  0  0
 10 11  2  0  0  0
 10 15  1  0  0  0
 11 12  1  0  0  0
 11 93  1  0  0  0
 12 13  2  0  0  0
 12 94  1  0  0  0
 13 14  1  0  0  0
 13 31  1  0  0  0
 14 15  2  0  0  0
 14 95  1  0  0  0
 15 96  1  0  0  0
 16 17  2  0  0  0
 16 21  1  0  0  0
 16 31  1  0  0  0
 17 18  1  0  0  0
 17 97  1  0  0  0
 18 19  2  0  0  0
 18 98  1  0  0  0
 19 20  1  0  0  0
 19 24  1  0  0  0
 20 21  2  0  0  0
 20 99  1  0  0  0
 21 23  1  0  0  0
 22 28  1  0  0  0
 22 32  2  0  0  0
 26 27  1  0  0  0
 28100  1  0  0  0
 28101  1  0  0  0
 29102  1  0  0  0
 29103  1  0  0  0
 33 34  1  0  0  0
 33 66  1  0  0  0
 33 70  2  0  0  0
 34 36  1  0  0  0
 34 59  1  0  0  0
 34104  1  0  0  0
 35 44  2  0  0  0
 35 45  1  0  0  0
 35 68  1  0  0  0
 36 56  1  0  0  0
 36105  1  0  0  0
 37 39  1  0  0  0
 37 47  1  0  0  0
 37 66  1  0  0  0
 37106  1  0  0  0
 38 43  2  0  0  0
 38 46  1  0  0  0
 38 47  1  0  0  0
 39 64  1  0  0  0
 39 67  2  0  0  0
 40 52  1  0  0  0
 40 53  2  0  0  0
 40 58  1  0  0  0
 41107  1  0  0  0
 41108  1  0  0  0
 41109  1  0  0  0
 41 48  1  0  0  0
 42 43  1  0  0  0
 42 66  1  0  0  0
 42110  1  0  0  0
 42111  1  0  0  0
 43 44  1  0  0  0
 44112  1  0  0  0
 45 46  2  0  0  0
 45113  1  0  0  0
 46114  1  0  0  0
 47115  1  0  0  0
 47116  1  0  0  0
 48 56  1  0  0  0
 48 65  1  0  0  0
 48117  1  0  0  0
 49 50  1  0  0  0
 49 53  1  0  0  0
 49 64  1  0  0  0
 49118  1  0  0  0
 50 51  1  0  0  0
 50119  1  0  0  0
 50120  1  0  0  0
 51 52  1  0  0  0
 51121  1  0  0  0
 51122  1  0  0  0
 52123  1  0  0  0
 52124  1  0  0  0
 53 54  1  0  0  0
 54 55  2  0  0  0
 54125  1  0  0  0
 55 57  1  0  0  0
 55126  1  0  0  0
 56 69  2  0  0  0
 57 58  2  0  0  0
 57127  1  0  0  0
 58128  1  0  0  0
 59 60  1  0  0  0
 59 61  1  0  0  0
 59 62  1  0  0  0
 60129  1  0  0  0
 60130  1  0  0  0
 60131  1  0  0  0
 61132  1  0  0  0
 61133  1  0  0  0
 61134  1  0  0  0
 62135  1  0  0  0
 62136  1  0  0  0
 62137  1  0  0  0
 63 65  1  0  0  0
 63138  1  0  0  0
 63139  1  0  0  0
 63140  1  0  0  0
 64141  1  0  0  0
 65142  1  0  0  0
 68 73  1  0  0  0
 71 78  1  0  0  0
 71 79  2  0  0  0
 71 80  1  0  0  0
 72 79  1  0  0  0
 72 81  2  0  0  0
 72 82  1  0  0  0
 73 80  2  0  0  0
 73 81  1  0  0  0
 74 75  1  0  0  0
 74 77  1  0  0  0
 74143  1  0  0  0
 74144  1  0  0  0
 75 82  1  0  0  0
 75145  1  0  0  0
 75146  1  0  0  0
 76 77  1  0  0  0
 76 82  1  0  0  0
 76147  1  0  0  0
 76148  1  0  0  0
 77 83  1  0  0  0
 77149  1  0  0  0
 78150  1  0  0  0
 78151  1  0  0  0
 78152  1  0  0  0
 83153  1  0  0  0
M  ISO  4   1 100  68 101  73 101  83 100
M  END
> <chiral flag>
0

> <version>
0

> <s_m_source_file>
/data/baiqing/PycharmProjects/Reinvent-master-3.2/result/LINK_invent/BTK/process_docking_weight1_custom_sum_contain_oxygen_bond_distance_aromatic_linkinvent_7_9_3/rearranged_h_0185.sdf

> <i_m_source_file_index>
31

> <r_mmod_Potential_Energy-OPLS-2005>
166.426055908203

> <r_mmod_Stretch_Energy-OPLS-2005>
391.173034667969

> <r_mmod_Bend_Energy-OPLS-2005>
388.832489013672

> <r_mmod_Torsional_Energy-OPLS-2005>
244.294616699219

> <r_mmod_Improper_Torsional_Energy-OPLS-2005>
5.02617692947388

> <r_mmod_Van_der_Waal_Energy-OPLS-2005>
148.728576660156

> <r_mmod_Electrostatic_Energy-OPLS-2005>
-1123.28259277344

> <r_mmod_Solvation_Energy-OPLS-2005>
-250.787261962891

> <b_mmod_Minimization_Converged-OPLS-2005>
0

> <r_mmod_RMS_Derivative-OPLS-2005>
2.71538114547729

$$$$
31
                    3D
 Structure written by MMmdl.
148157  0  0  1  0            999 V2000
  -30.3550  -15.3937   20.3602 C   0  0  0  0  0  0
  -30.4457  -12.8988   19.5337 C   0  0  0  0  0  0
  -29.5469  -12.6054   18.3017 C   0  0  0  0  0  0
  -28.1011  -12.3000   18.7305 C   0  0  0  0  0  0
  -27.6099  -13.2807   19.8219 C   0  0  2  0  0  0
  -28.6386  -13.4902   20.9549 C   0  0  0  0  0  0
  -25.2372  -13.8220   20.5716 C   0  0  0  0  0  0
  -24.1746  -13.0417   20.9284 C   0  0  0  0  0  0
  -24.6412  -11.6920   20.8778 C   0  0  0  0  0  0
  -23.9104  -10.4283   21.0413 C   0  0  0  0  0  0
  -24.3642   -9.4195   21.9191 C   0  0  0  0  0  0
  -23.6304   -8.2237   22.0758 C   0  0  0  0  0  0
  -22.4287   -8.0281   21.3545 C   0  0  0  0  0  0
  -21.9932   -9.0259   20.4648 C   0  0  0  0  0  0
  -22.7274  -10.2132   20.3059 C   0  0  0  0  0  0
  -21.6854   -6.0738   22.5278 C   0  0  0  0  0  0
  -21.4016   -6.5641   23.8212 C   0  0  0  0  0  0
  -21.3659   -5.6793   24.9173 C   0  0  0  0  0  0
  -21.6043   -4.3056   24.7224 C   0  0  0  0  0  0
  -21.8819   -3.8148   23.4345 C   0  0  0  0  0  0
  -21.9194   -4.6965   22.3402 C   0  0  0  0  0  0
  -22.7764  -13.5176   21.1917 C   0  0  0  0  0  0
  -22.1662   -4.2151   21.0979 F   0  0  0  0  0  0
  -21.5628   -3.4539   25.7736 F   0  0  0  0  0  0
  -29.8535  -14.0461   20.3284 N   0  0  0  0  0  0
  -26.2813  -12.9514   20.3200 N   0  0  0  0  0  0
  -25.9351  -11.6618   20.5719 N   0  0  0  0  0  0
  -22.0414  -12.8162   22.0466 N   0  0  0  0  0  0
  -25.3950  -15.1936   20.4024 N   0  0  0  0  0  0
  -31.5777  -15.4241   20.1383 O   0  0  0  0  0  0
  -21.6642   -6.8882   21.4241 O   0  0  0  0  0  0
  -22.3451  -14.5477   20.6746 O   0  0  0  0  0  0
  -24.6701  -31.8149   23.1629 C   0  0  0  0  0  0
  -25.9346  -32.4544   23.8129 C   0  0  1  0  0  0
  -27.2264  -26.8491   20.2006 C   0  0  0  0  0  0
  -25.5979  -33.8362   24.2028 N   0  0  0  0  0  0
  -23.4893  -30.4216   21.5140 C   0  0  2  0  0  0
  -24.9447  -28.7890   20.1171 C   0  0  0  0  0  0
  -22.7701  -29.4394   22.4761 C   0  0  0  0  0  0
  -18.0327  -28.1411   22.8463 C   0  0  0  0  0  0
  -24.1495  -36.7189   23.2653 C   0  0  0  0  0  0
  -26.0622  -30.5966   21.4038 C   0  0  0  0  0  0
  -26.1309  -29.1766   20.7523 C   0  0  0  0  0  0
  -27.2639  -28.2315   20.7620 C   0  0  0  0  0  0
  -26.0077  -26.6294   19.5180 C   0  0  0  0  0  0
  -24.9130  -27.5377   19.4781 C   0  0  0  0  0  0
  -23.7343  -29.7270   20.1449 C   0  0  0  0  0  0
  -25.4142  -36.2943   24.0292 C   0  0  1  0  0  0
  -20.5955  -28.3763   23.1172 C   0  0  2  0  0  0
  -20.6799  -26.9436   22.5403 C   0  0  0  0  0  0
  -19.5774  -26.6374   21.5214 C   0  0  0  0  0  0
  -18.1957  -26.7942   22.1622 C   0  0  0  0  0  0
  -19.1590  -28.8910   23.2801 C   0  0  0  0  0  0
  -18.9497  -30.1497   23.8840 C   0  0  0  0  0  0
  -17.6489  -30.6600   24.0552 C   0  0  0  0  0  0
  -25.9107  -34.9325   23.4989 C   0  0  0  0  0  0
  -16.5380  -29.9084   23.6346 C   0  0  0  0  0  0
  -16.7308  -28.6505   23.0365 C   0  0  0  0  0  0
  -26.4571  -31.6522   25.0693 C   0  0  0  0  0  0
  -25.3676  -31.3794   26.1334 C   0  0  0  0  0  0
  -27.0483  -30.2880   24.6483 C   0  0  0  0  0  0
  -27.6045  -32.4352   25.7504 C   0  0  0  0  0  0
  -27.5559  -37.1766   24.8477 C   0  0  0  0  0  0
  -21.4363  -29.3037   22.3511 N   0  0  0  0  0  0
  -26.4288  -37.3678   23.9389 N   0  0  0  0  0  0
  -24.7627  -30.9736   22.0804 N   0  0  0  0  0  0
  -23.4210  -28.7980   23.3046 O   0  0  0  0  0  0
  -28.2303  -25.7176   20.2595 O   0  0  0  0  0  0
  -26.5730  -34.8875   22.4593 O   0  0  0  0  0  0
  -23.5753  -32.1155   23.6674 O   0  0  0  0  0  0
  -29.8239  -19.4434   20.0702 C   0  0  0  0  0  0
  -28.9633  -20.7060   20.4017 C   0  0  0  0  0  0
  -29.2857  -18.1428   20.5013 C   0  0  0  0  0  0
  -28.5406  -23.2830   19.0907 C   0  0  0  0  0  0
  -29.0250  -22.5151   20.3188 C   0  0  1  0  0  0
  -28.0107  -24.0373   20.2935 C   0  0  1  0  0  0
  -27.0558  -17.9560   21.7329 C   0  0  0  0  0  0
  -27.9517  -20.0852   21.0282 N   0  0  0  0  0  0
  -28.1221  -18.6913   21.0794 N   0  0  0  0  0  0
  -29.4809  -16.6166   20.4671 N   0  0  0  0  0  0
  -31.4534  -13.1382   19.1918 H   0  0  0  0  0  0
  -30.5546  -12.0086   20.1554 H   0  0  0  0  0  0
  -29.9518  -11.7743   17.7228 H   0  0  0  0  0  0
  -29.5525  -13.4720   17.6390 H   0  0  0  0  0  0
  -28.0789  -11.2813   19.1195 H   0  0  0  0  0  0
  -27.4329  -12.3140   17.8686 H   0  0  0  0  0  0
  -27.5126  -14.2376   19.3077 H   0  0  0  0  0  0
  -28.8380  -12.5621   21.4929 H   0  0  0  0  0  0
  -28.2519  -14.1958   21.6919 H   0  0  0  0  0  0
  -25.2783   -9.5666   22.4773 H   0  0  0  0  0  0
  -24.0005   -7.4627   22.7481 H   0  0  0  0  0  0
  -21.0863   -8.8788   19.8953 H   0  0  0  0  0  0
  -22.3737  -10.9676   19.6173 H   0  0  0  0  0  0
  -21.2010   -7.6150   23.9716 H   0  0  0  0  0  0
  -21.1480   -6.0524   25.9076 H   0  0  0  0  0  0
  -22.0599   -2.7611   23.2845 H   0  0  0  0  0  0
  -22.4043  -11.9835   22.4864 H   0  0  0  0  0  0
  -21.1024  -13.1172   22.2660 H   0  0  0  0  0  0
  -24.5935  -15.8122   20.4588 H   0  0  0  0  0  0
  -26.1733  -15.6022   19.9047 H   0  0  0  0  0  0
  -26.7420  -32.5058   23.0843 H   0  0  0  0  0  0
  -25.0055  -33.9426   25.0131 H   0  0  0  0  0  0
  -22.8069  -31.2550   21.3346 H   0  0  0  0  0  0
  -23.3754  -35.9526   23.3323 H   0  0  0  0  0  0
  -24.3554  -36.8833   22.2065 H   0  0  0  0  0  0
  -23.7269  -37.6385   23.6712 H   0  0  0  0  0  0
  -26.2487  -31.3314   20.6195 H   0  0  0  0  0  0
  -26.9196  -30.6594   22.0621 H   0  0  0  0  0  0
  -28.1628  -28.5322   21.2817 H   0  0  0  0  0  0
  -25.8722  -25.6753   19.0284 H   0  0  0  0  0  0
  -24.0134  -27.2334   18.9608 H   0  0  0  0  0  0
  -23.8966  -30.4907   19.3834 H   0  0  0  0  0  0
  -22.8424  -29.1846   19.8264 H   0  0  0  0  0  0
  -25.1353  -36.1735   25.0785 H   0  0  0  0  0  0
  -21.0039  -28.3375   24.1298 H   0  0  0  0  0  0
  -20.5668  -26.2384   23.3651 H   0  0  0  0  0  0
  -21.6662  -26.7397   22.1215 H   0  0  0  0  0  0
  -19.6932  -25.6269   21.1281 H   0  0  0  0  0  0
  -19.6714  -27.3153   20.6719 H   0  0  0  0  0  0
  -17.4224  -26.6682   21.4027 H   0  0  0  0  0  0
  -18.0352  -26.0098   22.9032 H   0  0  0  0  0  0
  -19.7972  -30.7327   24.2186 H   0  0  0  0  0  0
  -17.5040  -31.6274   24.5164 H   0  0  0  0  0  0
  -15.5377  -30.2967   23.7703 H   0  0  0  0  0  0
  -15.8709  -28.0803   22.7115 H   0  0  0  0  0  0
  -24.5881  -30.7121   25.7638 H   0  0  0  0  0  0
  -24.8841  -32.3000   26.4609 H   0  0  0  0  0  0
  -25.7890  -30.9060   27.0212 H   0  0  0  0  0  0
  -26.3170  -29.6532   24.1469 H   0  0  0  0  0  0
  -27.3964  -29.7276   25.5170 H   0  0  0  0  0  0
  -27.9130  -30.4044   23.9947 H   0  0  0  0  0  0
  -27.2600  -33.3706   26.1929 H   0  0  0  0  0  0
  -28.3937  -32.6830   25.0394 H   0  0  0  0  0  0
  -28.0625  -31.8583   26.5549 H   0  0  0  0  0  0
  -28.2601  -38.0033   24.7448 H   0  0  0  0  0  0
  -28.1030  -36.2554   24.6411 H   0  0  0  0  0  0
  -27.2258  -37.1536   25.8877 H   0  0  0  0  0  0
  -20.9638  -29.8708   21.6610 H   0  0  0  0  0  0
  -26.0133  -38.2746   24.1348 H   0  0  0  0  0  0
  -30.7700  -19.5134   19.5523 H   0  0  0  0  0  0
  -27.7886  -22.7926   18.4763 H   0  0  0  0  0  0
  -29.3186  -23.7683   18.5057 H   0  0  0  0  0  0
  -30.0288  -22.7603   20.6591 H   0  0  0  0  0  0
  -26.9738  -23.8622   20.5741 H   0  0  0  0  0  0
  -27.4127  -16.9947   22.1017 H   0  0  0  0  0  0
  -26.2424  -17.7911   21.0273 H   0  0  0  0  0  0
  -26.6732  -18.5219   22.5829 H   0  0  0  0  0  0
  -28.5751  -16.2158   20.6499 H   0  0  0  0  0  0
  1 25  1  0  0  0
  1 30  2  0  0  0
  1 80  1  0  0  0
  2  3  1  0  0  0
  2 25  1  0  0  0
  2 81  1  0  0  0
  2 82  1  0  0  0
  3  4  1  0  0  0
  3 83  1  0  0  0
  3 84  1  0  0  0
  4  5  1  0  0  0
  4 85  1  0  0  0
  4 86  1  0  0  0
  5  6  1  0  0  0
  5 26  1  0  0  0
  5 87  1  0  0  0
  6 25  1  0  0  0
  6 88  1  0  0  0
  6 89  1  0  0  0
  7  8  2  0  0  0
  7 26  1  0  0  0
  7 29  1  0  0  0
  8  9  1  0  0  0
  8 22  1  0  0  0
  9 10  1  0  0  0
  9 27  2  0  0  0
 10 11  2  0  0  0
 10 15  1  0  0  0
 11 12  1  0  0  0
 11 90  1  0  0  0
 12 13  2  0  0  0
 12 91  1  0  0  0
 13 14  1  0  0  0
 13 31  1  0  0  0
 14 15  2  0  0  0
 14 92  1  0  0  0
 15 93  1  0  0  0
 16 17  2  0  0  0
 16 21  1  0  0  0
 16 31  1  0  0  0
 17 18  1  0  0  0
 17 94  1  0  0  0
 18 19  2  0  0  0
 18 95  1  0  0  0
 19 20  1  0  0  0
 19 24  1  0  0  0
 20 21  2  0  0  0
 20 96  1  0  0  0
 21 23  1  0  0  0
 22 28  1  0  0  0
 22 32  2  0  0  0
 26 27  1  0  0  0
 28 97  1  0  0  0
 28 98  1  0  0  0
 29 99  1  0  0  0
 29100  1  0  0  0
 33 34  1  0  0  0
 33 66  1  0  0  0
 33 70  2  0  0  0
 34 36  1  0  0  0
 34 59  1  0  0  0
 34101  1  0  0  0
 35 44  2  0  0  0
 35 45  1  0  0  0
 35 68  1  0  0  0
 36 56  1  0  0  0
 36102  1  0  0  0
 37 39  1  0  0  0
 37 47  1  0  0  0
 37 66  1  0  0  0
 37103  1  0  0  0
 38 43  2  0  0  0
 38 46  1  0  0  0
 38 47  1  0  0  0
 39 64  1  0  0  0
 39 67  2  0  0  0
 40 52  1  0  0  0
 40 53  2  0  0  0
 40 58  1  0  0  0
 41104  1  0  0  0
 41105  1  0  0  0
 41106  1  0  0  0
 41 48  1  0  0  0
 42 43  1  0  0  0
 42 66  1  0  0  0
 42107  1  0  0  0
 42108  1  0  0  0
 43 44  1  0  0  0
 44109  1  0  0  0
 45 46  2  0  0  0
 45110  1  0  0  0
 46111  1  0  0  0
 47112  1  0  0  0
 47113  1  0  0  0
 48 56  1  0  0  0
 48 65  1  0  0  0
 48114  1  0  0  0
 49 50  1  0  0  0
 49 53  1  0  0  0
 49 64  1  0  0  0
 49115  1  0  0  0
 50 51  1  0  0  0
 50116  1  0  0  0
 50117  1  0  0  0
 51 52  1  0  0  0
 51118  1  0  0  0
 51119  1  0  0  0
 52120  1  0  0  0
 52121  1  0  0  0
 53 54  1  0  0  0
 54 55  2  0  0  0
 54122  1  0  0  0
 55 57  1  0  0  0
 55123  1  0  0  0
 56 69  2  0  0  0
 57 58  2  0  0  0
 57124  1  0  0  0
 58125  1  0  0  0
 59 60  1  0  0  0
 59 61  1  0  0  0
 59 62  1  0  0  0
 60126  1  0  0  0
 60127  1  0  0  0
 60128  1  0  0  0
 61129  1  0  0  0
 61130  1  0  0  0
 61131  1  0  0  0
 62132  1  0  0  0
 62133  1  0  0  0
 62134  1  0  0  0
 63 65  1  0  0  0
 63135  1  0  0  0
 63136  1  0  0  0
 63137  1  0  0  0
 64138  1  0  0  0
 65139  1  0  0  0
 68 76  1  0  0  0
 71 72  1  0  0  0
 71 73  2  0  0  0
 71140  1  0  0  0
 72 78  2  0  0  0
 72 75  1  0  0  0
 73 79  1  0  0  0
 73 80  1  0  0  0
 74 75  1  0  0  0
 74 76  1  0  0  0
 74141  1  0  0  0
 74142  1  0  0  0
 75 76  1  0  0  0
 75143  1  0  0  0
 76144  1  0  0  0
 77 79  1  0  0  0
 77145  1  0  0  0
 77146  1  0  0  0
 77147  1  0  0  0
 78 79  1  0  0  0
 80148  1  0  0  0
M  ISO  4   1 100  68 101  76 101  80 100
M  END
> <chiral flag>
0

> <version>
0

> <s_m_source_file>
/data/baiqing/PycharmProjects/Reinvent-master-3.2/result/LINK_invent/BTK/process_docking_weight1_custom_sum_contain_oxygen_bond_distance_aromatic_linkinvent_7_9_3/rearranged_h_0185.sdf

> <i_m_source_file_index>
32

> <r_mmod_Potential_Energy-OPLS-2005>
1519.83471679688

> <r_mmod_Stretch_Energy-OPLS-2005>
690.544067382812

> <r_mmod_Bend_Energy-OPLS-2005>
539.061828613281

> <r_mmod_Torsional_Energy-OPLS-2005>
237.809127807617

> <r_mmod_Improper_Torsional_Energy-OPLS-2005>
5.52844190597534

> <r_mmod_Van_der_Waal_Energy-OPLS-2005>
101.790840148926

> <r_mmod_Electrostatic_Energy-OPLS-2005>
-420.552398681641

> <r_mmod_Solvation_Energy-OPLS-2005>
-229.585388183594

> <b_mmod_Minimization_Converged-OPLS-2005>
0

> <r_mmod_RMS_Derivative-OPLS-2005>
0.232153132557869

$$$$
32
                    3D
 Structure written by MMmdl.
150158  0  0  1  0            999 V2000
  -30.4693  -15.2410   20.3878 C   0  0  0  0  0  0
  -30.4337  -12.7932   19.5282 C   0  0  0  0  0  0
  -29.5332  -12.5836   18.2864 C   0  0  0  0  0  0
  -28.0799  -12.3125   18.7108 C   0  0  0  0  0  0
  -27.6132  -13.2776   19.8308 C   0  0  2  0  0  0
  -28.6501  -13.4313   20.9649 C   0  0  0  0  0  0
  -25.2344  -13.8251   20.5719 C   0  0  0  0  0  0
  -24.1716  -13.0431   20.9256 C   0  0  0  0  0  0
  -24.6385  -11.6933   20.8766 C   0  0  0  0  0  0
  -23.9088  -10.4290   21.0413 C   0  0  0  0  0  0
  -24.3631   -9.4202   21.9189 C   0  0  0  0  0  0
  -23.6296   -8.2239   22.0757 C   0  0  0  0  0  0
  -22.4276   -8.0283   21.3543 C   0  0  0  0  0  0
  -21.9919   -9.0262   20.4649 C   0  0  0  0  0  0
  -22.7257  -10.2138   20.3059 C   0  0  0  0  0  0
  -21.6852   -6.0730   22.5273 C   0  0  0  0  0  0
  -21.4021   -6.5628   23.8207 C   0  0  0  0  0  0
  -21.3663   -5.6783   24.9169 C   0  0  0  0  0  0
  -21.6042   -4.3047   24.7218 C   0  0  0  0  0  0
  -21.8819   -3.8138   23.4342 C   0  0  0  0  0  0
  -21.9192   -4.6955   22.3397 C   0  0  0  0  0  0
  -22.7730  -13.5186   21.1893 C   0  0  0  0  0  0
  -22.1657   -4.2140   21.0978 F   0  0  0  0  0  0
  -21.5631   -3.4535   25.7738 F   0  0  0  0  0  0
  -29.8805  -13.9434   20.3391 N   0  0  0  0  0  0
  -26.2808  -12.9543   20.3252 N   0  0  0  0  0  0
  -25.9330  -11.6646   20.5744 N   0  0  0  0  0  0
  -22.0369  -12.8195   22.0451 N   0  0  0  0  0  0
  -25.3880  -15.1977   20.4066 N   0  0  0  0  0  0
  -31.6794  -15.2100   20.1132 O   0  0  0  0  0  0
  -21.6633   -6.8881   21.4240 O   0  0  0  0  0  0
  -22.3414  -14.5487   20.6727 O   0  0  0  0  0  0
  -24.6619  -31.8243   23.1721 C   0  0  0  0  0  0
  -25.9314  -32.4578   23.8180 C   0  0  1  0  0  0
  -27.2149  -26.9429   20.1864 C   0  0  0  0  0  0
  -25.5988  -33.8393   24.2090 N   0  0  0  0  0  0
  -23.4749  -30.4375   21.5189 C   0  0  2  0  0  0
  -24.9280  -28.8272   20.1078 C   0  0  0  0  0  0
  -22.7657  -29.4452   22.4769 C   0  0  0  0  0  0
  -18.0326  -28.1401   22.8462 C   0  0  0  0  0  0
  -24.1497  -36.7213   23.2648 C   0  0  0  0  0  0
  -26.0425  -30.6349   21.4007 C   0  0  0  0  0  0
  -26.1088  -29.2266   20.7456 C   0  0  0  0  0  0
  -27.2456  -28.3045   20.7624 C   0  0  0  0  0  0
  -26.0109  -26.6936   19.4908 C   0  0  0  0  0  0
  -24.9043  -27.5809   19.4588 C   0  0  0  0  0  0
  -23.7140  -29.7543   20.1431 C   0  0  0  0  0  0
  -25.4135  -36.2963   24.0302 C   0  0  1  0  0  0
  -20.5949  -28.3752   23.1181 C   0  0  2  0  0  0
  -20.6804  -26.9436   22.5395 C   0  0  0  0  0  0
  -19.5779  -26.6375   21.5207 C   0  0  0  0  0  0
  -18.1961  -26.7933   22.1616 C   0  0  0  0  0  0
  -19.1586  -28.8897   23.2810 C   0  0  0  0  0  0
  -18.9493  -30.1486   23.8848 C   0  0  0  0  0  0
  -17.6486  -30.6592   24.0554 C   0  0  0  0  0  0
  -25.9096  -34.9343   23.5011 C   0  0  0  0  0  0
  -16.5376  -29.9080   23.6336 C   0  0  0  0  0  0
  -16.7311  -28.6498   23.0361 C   0  0  0  0  0  0
  -26.4574  -31.6514   25.0702 C   0  0  0  0  0  0
  -25.3720  -31.3753   26.1375 C   0  0  0  0  0  0
  -27.0471  -30.2879   24.6426 C   0  0  0  0  0  0
  -27.6062  -32.4330   25.7503 C   0  0  0  0  0  0
  -27.5567  -37.1770   24.8473 C   0  0  0  0  0  0
  -21.4328  -29.3047   22.3528 N   0  0  0  0  0  0
  -26.4287  -37.3691   23.9394 N   0  0  0  0  0  0
  -24.7474  -30.9931   22.0838 N   0  0  0  0  0  0
  -23.4214  -28.8024   23.3011 O   0  0  0  0  0  0
  -28.2153  -25.8471   20.2974 O   0  0  0  0  0  0
  -26.5697  -34.8875   22.4605 O   0  0  0  0  0  0
  -23.5694  -32.1207   23.6828 O   0  0  0  0  0  0
  -28.1126  -18.4412   21.0351 C   0  0  0  0  0  0
  -28.5907  -16.9270   21.2618 C   0  0  0  0  0  0
  -30.1029  -18.0540   19.9553 C   0  0  0  0  0  0
  -29.2704  -19.3990   20.6255 C   0  0  1  0  0  0
  -28.8093  -21.0172   19.9667 C   0  0  0  0  0  0
  -28.8030  -22.7167   20.5618 C   0  0  0  0  0  0
  -28.0190  -24.2401   20.0037 C   0  0  0  0  0  0
  -29.7639  -16.5571   20.4388 N   0  0  0  0  0  0
  -31.4564  -12.9796   19.1961 H   0  0  0  0  0  0
  -30.4888  -11.8823   20.1260 H   0  0  0  0  0  0
  -29.9095  -11.7624   17.6739 H   0  0  0  0  0  0
  -29.5692  -13.4756   17.6595 H   0  0  0  0  0  0
  -28.0278  -11.2844   19.0718 H   0  0  0  0  0  0
  -27.4130  -12.3693   17.8498 H   0  0  0  0  0  0
  -27.5330  -14.2516   19.3458 H   0  0  0  0  0  0
  -28.8163  -12.4855   21.4826 H   0  0  0  0  0  0
  -28.2970  -14.1312   21.7210 H   0  0  0  0  0  0
  -25.2772   -9.5681   22.4775 H   0  0  0  0  0  0
  -23.9996   -7.4633   22.7484 H   0  0  0  0  0  0
  -21.0844   -8.8790   19.8959 H   0  0  0  0  0  0
  -22.3714  -10.9680   19.6172 H   0  0  0  0  0  0
  -21.2018   -7.6136   23.9713 H   0  0  0  0  0  0
  -21.1485   -6.0508   25.9073 H   0  0  0  0  0  0
  -22.0596   -2.7601   23.2832 H   0  0  0  0  0  0
  -22.3983  -11.9879   22.4891 H   0  0  0  0  0  0
  -21.0989  -13.1237   22.2645 H   0  0  0  0  0  0
  -24.6102  -15.8397   20.5140 H   0  0  0  0  0  0
  -26.2237  -15.6426   20.0517 H   0  0  0  0  0  0
  -26.7383  -32.5117   23.0891 H   0  0  0  0  0  0
  -25.0108  -33.9464   25.0221 H   0  0  0  0  0  0
  -22.7869  -31.2688   21.3494 H   0  0  0  0  0  0
  -23.3748  -35.9558   23.3311 H   0  0  0  0  0  0
  -24.3568  -36.8853   22.2063 H   0  0  0  0  0  0
  -23.7278  -37.6413   23.6699 H   0  0  0  0  0  0
  -26.2242  -31.3757   20.6209 H   0  0  0  0  0  0
  -26.9031  -30.6886   22.0560 H   0  0  0  0  0  0
  -28.1364  -28.6047   21.2960 H   0  0  0  0  0  0
  -25.8901  -25.7413   18.9951 H   0  0  0  0  0  0
  -24.0092  -27.2707   18.9371 H   0  0  0  0  0  0
  -23.8706  -30.5239   19.3865 H   0  0  0  0  0  0
  -22.8229  -29.2094   19.8255 H   0  0  0  0  0  0
  -25.1333  -36.1763   25.0794 H   0  0  0  0  0  0
  -21.0040  -28.3366   24.1305 H   0  0  0  0  0  0
  -20.5686  -26.2374   23.3634 H   0  0  0  0  0  0
  -21.6666  -26.7413   22.1203 H   0  0  0  0  0  0
  -19.6938  -25.6273   21.1273 H   0  0  0  0  0  0
  -19.6712  -27.3153   20.6710 H   0  0  0  0  0  0
  -17.4227  -26.6676   21.4024 H   0  0  0  0  0  0
  -18.0360  -26.0085   22.9025 H   0  0  0  0  0  0
  -19.7971  -30.7319   24.2191 H   0  0  0  0  0  0
  -17.5038  -31.6267   24.5171 H   0  0  0  0  0  0
  -15.5376  -30.2968   23.7684 H   0  0  0  0  0  0
  -15.8711  -28.0801   22.7102 H   0  0  0  0  0  0
  -24.5897  -30.7103   25.7694 H   0  0  0  0  0  0
  -24.8923  -32.2953   26.4725 H   0  0  0  0  0  0
  -25.7983  -30.8969   27.0205 H   0  0  0  0  0  0
  -26.3134  -29.6546   24.1429 H   0  0  0  0  0  0
  -27.3998  -29.7247   25.5077 H   0  0  0  0  0  0
  -27.9077  -30.4053   23.9840 H   0  0  0  0  0  0
  -27.2616  -33.3663   26.1970 H   0  0  0  0  0  0
  -28.3932  -32.6846   25.0380 H   0  0  0  0  0  0
  -28.0671  -31.8539   26.5515 H   0  0  0  0  0  0
  -28.2591  -38.0057   24.7463 H   0  0  0  0  0  0
  -28.1054  -36.2574   24.6368 H   0  0  0  0  0  0
  -27.2274  -37.1499   25.8877 H   0  0  0  0  0  0
  -20.9580  -29.8729   21.6647 H   0  0  0  0  0  0
  -26.0136  -38.2760   24.1355 H   0  0  0  0  0  0
  -27.5862  -18.8147   21.9136 H   0  0  0  0  0  0
  -27.3786  -18.4411   20.2273 H   0  0  0  0  0  0
  -27.7665  -16.2484   21.0601 H   0  0  0  0  0  0
  -28.8627  -16.7814   22.3084 H   0  0  0  0  0  0
  -31.1774  -18.2088   20.0681 H   0  0  0  0  0  0
  -29.9277  -18.0604   18.8785 H   0  0  0  0  0  0
  -29.8153  -19.6308   21.5416 H   0  0  0  0  0  0
  -27.7835  -20.8655   19.6280 H   0  0  0  0  0  0
  -29.3596  -21.0807   19.0276 H   0  0  0  0  0  0
  -29.8611  -22.9726   20.6235 H   0  0  0  0  0  0
  -28.5026  -22.6336   21.6066 H   0  0  0  0  0  0
  -26.9640  -24.0706   20.2172 H   0  0  0  0  0  0
  -28.0717  -24.1907   18.9165 H   0  0  0  0  0  0
  1 25  1  0  0  0
  1 30  2  0  0  0
  1 78  1  0  0  0
  2  3  1  0  0  0
  2 25  1  0  0  0
  2 79  1  0  0  0
  2 80  1  0  0  0
  3  4  1  0  0  0
  3 81  1  0  0  0
  3 82  1  0  0  0
  4  5  1  0  0  0
  4 83  1  0  0  0
  4 84  1  0  0  0
  5  6  1  0  0  0
  5 26  1  0  0  0
  5 85  1  0  0  0
  6 25  1  0  0  0
  6 86  1  0  0  0
  6 87  1  0  0  0
  7  8  2  0  0  0
  7 26  1  0  0  0
  7 29  1  0  0  0
  8  9  1  0  0  0
  8 22  1  0  0  0
  9 10  1  0  0  0
  9 27  2  0  0  0
 10 11  2  0  0  0
 10 15  1  0  0  0
 11 12  1  0  0  0
 11 88  1  0  0  0
 12 13  2  0  0  0
 12 89  1  0  0  0
 13 14  1  0  0  0
 13 31  1  0  0  0
 14 15  2  0  0  0
 14 90  1  0  0  0
 15 91  1  0  0  0
 16 17  2  0  0  0
 16 21  1  0  0  0
 16 31  1  0  0  0
 17 18  1  0  0  0
 17 92  1  0  0  0
 18 19  2  0  0  0
 18 93  1  0  0  0
 19 20  1  0  0  0
 19 24  1  0  0  0
 20 21  2  0  0  0
 20 94  1  0  0  0
 21 23  1  0  0  0
 22 28  1  0  0  0
 22 32  2  0  0  0
 26 27  1  0  0  0
 28 95  1  0  0  0
 28 96  1  0  0  0
 29 97  1  0  0  0
 29 98  1  0  0  0
 33 34  1  0  0  0
 33 66  1  0  0  0
 33 70  2  0  0  0
 34 36  1  0  0  0
 34 59  1  0  0  0
 34 99  1  0  0  0
 35 44  2  0  0  0
 35 45  1  0  0  0
 35 68  1  0  0  0
 36 56  1  0  0  0
 36100  1  0  0  0
 37 39  1  0  0  0
 37 47  1  0  0  0
 37 66  1  0  0  0
 37101  1  0  0  0
 38 43  2  0  0  0
 38 46  1  0  0  0
 38 47  1  0  0  0
 39 64  1  0  0  0
 39 67  2  0  0  0
 40 52  1  0  0  0
 40 53  2  0  0  0
 40 58  1  0  0  0
 41102  1  0  0  0
 41103  1  0  0  0
 41104  1  0  0  0
 41 48  1  0  0  0
 42 43  1  0  0  0
 42 66  1  0  0  0
 42105  1  0  0  0
 42106  1  0  0  0
 43 44  1  0  0  0
 44107  1  0  0  0
 45 46  2  0  0  0
 45108  1  0  0  0
 46109  1  0  0  0
 47110  1  0  0  0
 47111  1  0  0  0
 48 56  1  0  0  0
 48 65  1  0  0  0
 48112  1  0  0  0
 49 50  1  0  0  0
 49 53  1  0  0  0
 49 64  1  0  0  0
 49113  1  0  0  0
 50 51  1  0  0  0
 50114  1  0  0  0
 50115  1  0  0  0
 51 52  1  0  0  0
 51116  1  0  0  0
 51117  1  0  0  0
 52118  1  0  0  0
 52119  1  0  0  0
 53 54  1  0  0  0
 54 55  2  0  0  0
 54120  1  0  0  0
 55 57  1  0  0  0
 55121  1  0  0  0
 56 69  2  0  0  0
 57 58  2  0  0  0
 57122  1  0  0  0
 58123  1  0  0  0
 59 60  1  0  0  0
 59 61  1  0  0  0
 59 62  1  0  0  0
 60124  1  0  0  0
 60125  1  0  0  0
 60126  1  0  0  0
 61127  1  0  0  0
 61128  1  0  0  0
 61129  1  0  0  0
 62130  1  0  0  0
 62131  1  0  0  0
 62132  1  0  0  0
 63 65  1  0  0  0
 63133  1  0  0  0
 63134  1  0  0  0
 63135  1  0  0  0
 64136  1  0  0  0
 65137  1  0  0  0
 68 77  1  0  0  0
 71 72  1  0  0  0
 71 74  1  0  0  0
 71138  1  0  0  0
 71139  1  0  0  0
 72 78  1  0  0  0
 72140  1  0  0  0
 72141  1  0  0  0
 73 74  1  0  0  0
 73 78  1  0  0  0
 73142  1  0  0  0
 73143  1  0  0  0
 74 75  1  0  0  0
 74144  1  0  0  0
 75 76  1  0  0  0
 75145  1  0  0  0
 75146  1  0  0  0
 76 77  1  0  0  0
 76147  1  0  0  0
 76148  1  0  0  0
 77149  1  0  0  0
 77150  1  0  0  0
M  ISO  4   1 100  68 101  77 101  78 100
M  END
> <chiral flag>
0

> <version>
0

> <s_m_source_file>
/data/baiqing/PycharmProjects/Reinvent-master-3.2/result/LINK_invent/BTK/process_docking_weight1_custom_sum_contain_oxygen_bond_distance_aromatic_linkinvent_7_9_3/rearranged_h_0185.sdf

> <i_m_source_file_index>
33

> <r_mmod_Potential_Energy-OPLS-2005>
1433.19067382812

> <r_mmod_Stretch_Energy-OPLS-2005>
571.425109863281

> <r_mmod_Bend_Energy-OPLS-2005>
469.299743652344

> <r_mmod_Torsional_Energy-OPLS-2005>
321.936737060547

> <r_mmod_Improper_Torsional_Energy-OPLS-2005>
7.66867685317993

> <r_mmod_Van_der_Waal_Energy-OPLS-2005>
104.885734558105

> <r_mmod_Electrostatic_Energy-OPLS-2005>
-271.072875976562

> <r_mmod_Solvation_Energy-OPLS-2005>
-200.859802246094

> <b_mmod_Minimization_Converged-OPLS-2005>
0

> <r_mmod_RMS_Derivative-OPLS-2005>
1.46803760528564

$$$$
33
                    3D
 Structure written by MMmdl.
152160  0  0  1  0            999 V2000
  -30.4717  -15.2051   20.3758 C   0  0  0  0  0  0
  -30.4382  -12.7664   19.5203 C   0  0  0  0  0  0
  -29.5326  -12.5654   18.2806 C   0  0  0  0  0  0
  -28.0768  -12.3056   18.7059 C   0  0  0  0  0  0
  -27.6144  -13.2730   19.8245 C   0  0  2  0  0  0
  -28.6515  -13.4249   20.9580 C   0  0  0  0  0  0
  -25.2397  -13.8248   20.5742 C   0  0  0  0  0  0
  -24.1747  -13.0437   20.9255 C   0  0  0  0  0  0
  -24.6403  -11.6935   20.8766 C   0  0  0  0  0  0
  -23.9099  -10.4293   21.0412 C   0  0  0  0  0  0
  -24.3642   -9.4205   21.9188 C   0  0  0  0  0  0
  -23.6306   -8.2246   22.0759 C   0  0  0  0  0  0
  -22.4283   -8.0288   21.3553 C   0  0  0  0  0  0
  -21.9926   -9.0264   20.4655 C   0  0  0  0  0  0
  -22.7268  -10.2136   20.3062 C   0  0  0  0  0  0
  -21.6854   -6.0743   22.5283 C   0  0  0  0  0  0
  -21.4020   -6.5646   23.8219 C   0  0  0  0  0  0
  -21.3658   -5.6794   24.9177 C   0  0  0  0  0  0
  -21.6039   -4.3057   24.7224 C   0  0  0  0  0  0
  -21.8817   -3.8153   23.4345 C   0  0  0  0  0  0
  -21.9192   -4.6971   22.3401 C   0  0  0  0  0  0
  -22.7761  -13.5189   21.1900 C   0  0  0  0  0  0
  -22.1659   -4.2161   21.0977 F   0  0  0  0  0  0
  -21.5623   -3.4538   25.7737 F   0  0  0  0  0  0
  -29.8913  -13.9113   20.3327 N   0  0  0  0  0  0
  -26.2827  -12.9524   20.3220 N   0  0  0  0  0  0
  -25.9340  -11.6630   20.5729 N   0  0  0  0  0  0
  -22.0414  -12.8178   22.0454 N   0  0  0  0  0  0
  -25.4015  -15.1984   20.4177 N   0  0  0  0  0  0
  -31.6910  -15.2021   20.1591 O   0  0  0  0  0  0
  -21.6641   -6.8889   21.4248 O   0  0  0  0  0  0
  -22.3437  -14.5484   20.6730 O   0  0  0  0  0  0
  -24.6599  -31.8279   23.1748 C   0  0  0  0  0  0
  -25.9295  -32.4611   23.8199 C   0  0  1  0  0  0
  -27.2184  -26.9629   20.1740 C   0  0  0  0  0  0
  -25.5974  -33.8425   24.2103 N   0  0  0  0  0  0
  -23.4734  -30.4418   21.5235 C   0  0  2  0  0  0
  -24.9276  -28.8403   20.1110 C   0  0  0  0  0  0
  -22.7653  -29.4464   22.4796 C   0  0  0  0  0  0
  -18.0320  -28.1406   22.8469 C   0  0  0  0  0  0
  -24.1493  -36.7217   23.2645 C   0  0  0  0  0  0
  -26.0420  -30.6454   21.4019 C   0  0  0  0  0  0
  -26.1113  -29.2399   20.7437 C   0  0  0  0  0  0
  -27.2528  -28.3218   20.7529 C   0  0  0  0  0  0
  -26.0061  -26.7151   19.4881 C   0  0  0  0  0  0
  -24.8989  -27.5976   19.4632 C   0  0  0  0  0  0
  -23.7113  -29.7626   20.1481 C   0  0  0  0  0  0
  -25.4132  -36.2982   24.0302 C   0  0  1  0  0  0
  -20.5944  -28.3751   23.1194 C   0  0  2  0  0  0
  -20.6800  -26.9435   22.5400 C   0  0  0  0  0  0
  -19.5772  -26.6378   21.5212 C   0  0  0  0  0  0
  -18.1954  -26.7940   22.1622 C   0  0  0  0  0  0
  -19.1581  -28.8899   23.2819 C   0  0  0  0  0  0
  -18.9490  -30.1489   23.8854 C   0  0  0  0  0  0
  -17.6483  -30.6597   24.0556 C   0  0  0  0  0  0
  -25.9096  -34.9363   23.5022 C   0  0  0  0  0  0
  -16.5374  -29.9084   23.6343 C   0  0  0  0  0  0
  -16.7301  -28.6504   23.0364 C   0  0  0  0  0  0
  -26.4552  -31.6544   25.0714 C   0  0  0  0  0  0
  -25.3681  -31.3783   26.1370 C   0  0  0  0  0  0
  -27.0446  -30.2915   24.6430 C   0  0  0  0  0  0
  -27.6051  -32.4349   25.7511 C   0  0  0  0  0  0
  -27.5575  -37.1761   24.8460 C   0  0  0  0  0  0
  -21.4326  -29.3046   22.3542 N   0  0  0  0  0  0
  -26.4279  -37.3715   23.9409 N   0  0  0  0  0  0
  -24.7463  -30.9973   22.0869 N   0  0  0  0  0  0
  -23.4215  -28.8028   23.3022 O   0  0  0  0  0  0
  -28.2073  -25.8538   20.2567 O   0  0  0  0  0  0
  -26.5701  -34.8891   22.4616 O   0  0  0  0  0  0
  -23.5676  -32.1234   23.6856 O   0  0  0  0  0  0
  -29.2045  -20.5172   21.4767 C   0  0  0  0  0  0
  -28.8155  -21.9515   21.4224 C   0  0  0  0  0  0
  -28.5864  -22.7231   20.2077 C   0  0  0  0  0  0
  -29.3902  -19.6248   20.3473 C   0  0  0  0  0  0
  -28.8133  -21.7589   19.1272 C   0  0  0  0  0  0
  -28.6257  -22.6767   22.7405 C   0  0  0  0  0  0
  -28.6079  -22.2296   17.7012 C   0  0  0  0  0  0
  -27.8200  -24.2857   20.0409 C   0  0  0  0  0  0
  -30.1590  -18.0633   20.3297 C   0  0  0  0  0  0
  -29.1904  -20.3846   19.1970 N   0  0  0  0  0  0
  -29.7329  -16.4759   20.4549 N   0  0  0  0  0  0
  -31.4614  -12.9556   19.1925 H   0  0  0  0  0  0
  -30.4871  -11.8544   20.1174 H   0  0  0  0  0  0
  -29.8999  -11.7391   17.6706 H   0  0  0  0  0  0
  -29.5767  -13.4548   17.6509 H   0  0  0  0  0  0
  -28.0185  -11.2775   19.0647 H   0  0  0  0  0  0
  -27.4099  -12.3671   17.8450 H   0  0  0  0  0  0
  -27.5370  -14.2465   19.3392 H   0  0  0  0  0  0
  -28.8036  -12.4846   21.4901 H   0  0  0  0  0  0
  -28.3039  -14.1493   21.6959 H   0  0  0  0  0  0
  -25.2789   -9.5674   22.4764 H   0  0  0  0  0  0
  -24.0014   -7.4631   22.7475 H   0  0  0  0  0  0
  -21.0859   -8.8793   19.8954 H   0  0  0  0  0  0
  -22.3738  -10.9677   19.6171 H   0  0  0  0  0  0
  -21.2023   -7.6155   23.9727 H   0  0  0  0  0  0
  -21.1477   -6.0522   25.9080 H   0  0  0  0  0  0
  -22.0596   -2.7616   23.2838 H   0  0  0  0  0  0
  -22.4039  -11.9854   22.4864 H   0  0  0  0  0  0
  -21.1026  -13.1198   22.2651 H   0  0  0  0  0  0
  -24.6288  -15.8459   20.5313 H   0  0  0  0  0  0
  -26.2377  -15.6418   20.0621 H   0  0  0  0  0  0
  -26.7364  -32.5162   23.0917 H   0  0  0  0  0  0
  -25.0067  -33.9512   25.0215 H   0  0  0  0  0  0
  -22.7843  -31.2724   21.3565 H   0  0  0  0  0  0
  -23.3773  -35.9528   23.3268 H   0  0  0  0  0  0
  -24.3572  -36.8901   22.2067 H   0  0  0  0  0  0
  -23.7231  -37.6388   23.6723 H   0  0  0  0  0  0
  -26.2199  -31.3911   20.6259 H   0  0  0  0  0  0
  -26.9027  -30.6991   22.0568 H   0  0  0  0  0  0
  -28.1473  -28.6246   21.2789 H   0  0  0  0  0  0
  -25.8667  -25.7720   18.9836 H   0  0  0  0  0  0
  -24.0005  -27.2876   18.9477 H   0  0  0  0  0  0
  -23.8626  -30.5334   19.3916 H   0  0  0  0  0  0
  -22.8223  -29.2144   19.8316 H   0  0  0  0  0  0
  -25.1326  -36.1785   25.0792 H   0  0  0  0  0  0
  -21.0032  -28.3357   24.1318 H   0  0  0  0  0  0
  -20.5683  -26.2365   23.3636 H   0  0  0  0  0  0
  -21.6662  -26.7416   22.1202 H   0  0  0  0  0  0
  -19.6931  -25.6276   21.1273 H   0  0  0  0  0  0
  -19.6713  -27.3161   20.6722 H   0  0  0  0  0  0
  -17.4220  -26.6682   21.4028 H   0  0  0  0  0  0
  -18.0354  -26.0092   22.9030 H   0  0  0  0  0  0
  -19.7963  -30.7319   24.2203 H   0  0  0  0  0  0
  -17.5033  -31.6272   24.5167 H   0  0  0  0  0  0
  -15.5372  -30.2971   23.7691 H   0  0  0  0  0  0
  -15.8703  -28.0803   22.7113 H   0  0  0  0  0  0
  -24.5879  -30.7117   25.7672 H   0  0  0  0  0  0
  -24.8849  -32.2980   26.4680 H   0  0  0  0  0  0
  -25.7913  -30.9022   27.0224 H   0  0  0  0  0  0
  -26.3107  -29.6595   24.1416 H   0  0  0  0  0  0
  -27.3963  -29.7273   25.5079 H   0  0  0  0  0  0
  -27.9056  -30.4101   23.9850 H   0  0  0  0  0  0
  -27.2623  -33.3691   26.1974 H   0  0  0  0  0  0
  -28.3918  -32.6847   25.0378 H   0  0  0  0  0  0
  -28.0657  -31.8553   26.5521 H   0  0  0  0  0  0
  -28.2559  -38.0089   24.7534 H   0  0  0  0  0  0
  -28.1107  -36.2619   24.6255 H   0  0  0  0  0  0
  -27.2294  -37.1360   25.8861 H   0  0  0  0  0  0
  -20.9574  -29.8730   21.6671 H   0  0  0  0  0  0
  -26.0134  -38.2771   24.1434 H   0  0  0  0  0  0
  -29.3987  -20.0868   22.4502 H   0  0  0  0  0  0
  -28.8663  -22.0388   23.5910 H   0  0  0  0  0  0
  -27.5928  -23.0068   22.8496 H   0  0  0  0  0  0
  -29.2716  -23.5542   22.7873 H   0  0  0  0  0  0
  -27.5445  -22.3259   17.4831 H   0  0  0  0  0  0
  -29.0377  -21.5319   16.9816 H   0  0  0  0  0  0
  -29.0838  -23.1977   17.5438 H   0  0  0  0  0  0
  -26.9145  -24.1685   20.6365 H   0  0  0  0  0  0
  -27.4570  -24.2660   19.0154 H   0  0  0  0  0  0
  -30.9245  -18.1663   21.0988 H   0  0  0  0  0  0
  -30.7321  -18.0849   19.4029 H   0  0  0  0  0  0
  -28.7402  -16.3506   20.5805 H   0  0  0  0  0  0
  1 25  1  0  0  0
  1 30  2  0  0  0
  1 81  1  0  0  0
  2  3  1  0  0  0
  2 25  1  0  0  0
  2 82  1  0  0  0
  2 83  1  0  0  0
  3  4  1  0  0  0
  3 84  1  0  0  0
  3 85  1  0  0  0
  4  5  1  0  0  0
  4 86  1  0  0  0
  4 87  1  0  0  0
  5  6  1  0  0  0
  5 26  1  0  0  0
  5 88  1  0  0  0
  6 25  1  0  0  0
  6 89  1  0  0  0
  6 90  1  0  0  0
  7  8  2  0  0  0
  7 26  1  0  0  0
  7 29  1  0  0  0
  8  9  1  0  0  0
  8 22  1  0  0  0
  9 10  1  0  0  0
  9 27  2  0  0  0
 10 11  2  0  0  0
 10 15  1  0  0  0
 11 12  1  0  0  0
 11 91  1  0  0  0
 12 13  2  0  0  0
 12 92  1  0  0  0
 13 14  1  0  0  0
 13 31  1  0  0  0
 14 15  2  0  0  0
 14 93  1  0  0  0
 15 94  1  0  0  0
 16 17  2  0  0  0
 16 21  1  0  0  0
 16 31  1  0  0  0
 17 18  1  0  0  0
 17 95  1  0  0  0
 18 19  2  0  0  0
 18 96  1  0  0  0
 19 20  1  0  0  0
 19 24  1  0  0  0
 20 21  2  0  0  0
 20 97  1  0  0  0
 21 23  1  0  0  0
 22 28  1  0  0  0
 22 32  2  0  0  0
 26 27  1  0  0  0
 28 98  1  0  0  0
 28 99  1  0  0  0
 29100  1  0  0  0
 29101  1  0  0  0
 33 34  1  0  0  0
 33 66  1  0  0  0
 33 70  2  0  0  0
 34 36  1  0  0  0
 34 59  1  0  0  0
 34102  1  0  0  0
 35 44  2  0  0  0
 35 45  1  0  0  0
 35 68  1  0  0  0
 36 56  1  0  0  0
 36103  1  0  0  0
 37 39  1  0  0  0
 37 47  1  0  0  0
 37 66  1  0  0  0
 37104  1  0  0  0
 38 43  2  0  0  0
 38 46  1  0  0  0
 38 47  1  0  0  0
 39 64  1  0  0  0
 39 67  2  0  0  0
 40 52  1  0  0  0
 40 53  2  0  0  0
 40 58  1  0  0  0
 41105  1  0  0  0
 41106  1  0  0  0
 41107  1  0  0  0
 41 48  1  0  0  0
 42 43  1  0  0  0
 42 66  1  0  0  0
 42108  1  0  0  0
 42109  1  0  0  0
 43 44  1  0  0  0
 44110  1  0  0  0
 45 46  2  0  0  0
 45111  1  0  0  0
 46112  1  0  0  0
 47113  1  0  0  0
 47114  1  0  0  0
 48 56  1  0  0  0
 48 65  1  0  0  0
 48115  1  0  0  0
 49 50  1  0  0  0
 49 53  1  0  0  0
 49 64  1  0  0  0
 49116  1  0  0  0
 50 51  1  0  0  0
 50117  1  0  0  0
 50118  1  0  0  0
 51 52  1  0  0  0
 51119  1  0  0  0
 51120  1  0  0  0
 52121  1  0  0  0
 52122  1  0  0  0
 53 54  1  0  0  0
 54 55  2  0  0  0
 54123  1  0  0  0
 55 57  1  0  0  0
 55124  1  0  0  0
 56 69  2  0  0  0
 57 58  2  0  0  0
 57125  1  0  0  0
 58126  1  0  0  0
 59 60  1  0  0  0
 59 61  1  0  0  0
 59 62  1  0  0  0
 60127  1  0  0  0
 60128  1  0  0  0
 60129  1  0  0  0
 61130  1  0  0  0
 61131  1  0  0  0
 61132  1  0  0  0
 62133  1  0  0  0
 62134  1  0  0  0
 62135  1  0  0  0
 63 65  1  0  0  0
 63136  1  0  0  0
 63137  1  0  0  0
 63138  1  0  0  0
 64139  1  0  0  0
 65140  1  0  0  0
 68 78  1  0  0  0
 71 72  2  0  0  0
 71 74  1  0  0  0
 71141  1  0  0  0
 72 73  1  0  0  0
 72 76  1  0  0  0
 73 75  2  0  0  0
 73 78  1  0  0  0
 74 79  1  0  0  0
 74 80  2  0  0  0
 75 77  1  0  0  0
 75 80  1  0  0  0
 76142  1  0  0  0
 76143  1  0  0  0
 76144  1  0  0  0
 77145  1  0  0  0
 77146  1  0  0  0
 77147  1  0  0  0
 78148  1  0  0  0
 78149  1  0  0  0
 79 81  1  0  0  0
 79150  1  0  0  0
 79151  1  0  0  0
 81152  1  0  0  0
M  ISO  4   1 100  68 101  78 101  81 100
M  END
> <chiral flag>
0

> <version>
0

> <s_m_source_file>
/data/baiqing/PycharmProjects/Reinvent-master-3.2/result/LINK_invent/BTK/process_docking_weight1_custom_sum_contain_oxygen_bond_distance_aromatic_linkinvent_7_9_3/rearranged_h_0185.sdf

> <i_m_source_file_index>
34

> <r_mmod_Potential_Energy-OPLS-2005>
845.948303222656

> <r_mmod_Stretch_Energy-OPLS-2005>
464.744445800781

> <r_mmod_Bend_Energy-OPLS-2005>
419.141143798828

> <r_mmod_Torsional_Energy-OPLS-2005>
225.636566162109

> <r_mmod_Improper_Torsional_Energy-OPLS-2005>
9.57733345031738

> <r_mmod_Van_der_Waal_Energy-OPLS-2005>
134.01025390625

> <r_mmod_Electrostatic_Energy-OPLS-2005>
-580.278625488281

> <r_mmod_Solvation_Energy-OPLS-2005>
-231.366943359375

> <b_mmod_Minimization_Converged-OPLS-2005>
0

> <r_mmod_RMS_Derivative-OPLS-2005>
0.747876167297363

$$$$
34
                    3D
 Structure written by MMmdl.
147155  0  0  1  0            999 V2000
  -30.3352  -15.5603   20.3695 C   0  0  0  0  0  0
  -30.4237  -13.0299   19.5391 C   0  0  0  0  0  0
  -29.5447  -12.6479   18.3155 C   0  0  0  0  0  0
  -28.1125  -12.3038   18.7508 C   0  0  0  0  0  0
  -27.5974  -13.3003   19.8148 C   0  0  2  0  0  0
  -28.6158  -13.5939   20.9391 C   0  0  0  0  0  0
  -25.2349  -13.8281   20.5794 C   0  0  0  0  0  0
  -24.1721  -13.0437   20.9266 C   0  0  0  0  0  0
  -24.6412  -11.6943   20.8751 C   0  0  0  0  0  0
  -23.9115  -10.4293   21.0396 C   0  0  0  0  0  0
  -24.3655   -9.4210   21.9179 C   0  0  0  0  0  0
  -23.6322   -8.2246   22.0748 C   0  0  0  0  0  0
  -22.4302   -8.0282   21.3536 C   0  0  0  0  0  0
  -21.9946   -9.0259   20.4637 C   0  0  0  0  0  0
  -22.7285  -10.2137   20.3046 C   0  0  0  0  0  0
  -21.6864   -6.0740   22.5279 C   0  0  0  0  0  0
  -21.4024   -6.5641   23.8212 C   0  0  0  0  0  0
  -21.3667   -5.6791   24.9170 C   0  0  0  0  0  0
  -21.6042   -4.3052   24.7219 C   0  0  0  0  0  0
  -21.8822   -3.8149   23.4337 C   0  0  0  0  0  0
  -21.9196   -4.6968   22.3397 C   0  0  0  0  0  0
  -22.7740  -13.5174   21.1908 C   0  0  0  0  0  0
  -22.1665   -4.2152   21.0974 F   0  0  0  0  0  0
  -21.5628   -3.4536   25.7731 F   0  0  0  0  0  0
  -29.7997  -14.2059   20.2940 N   0  0  0  0  0  0
  -26.2769  -12.9585   20.3216 N   0  0  0  0  0  0
  -25.9351  -11.6666   20.5688 N   0  0  0  0  0  0
  -22.0409  -12.8146   22.0464 N   0  0  0  0  0  0
  -25.4008  -15.2021   20.4282 N   0  0  0  0  0  0
  -31.5598  -15.5041   20.1483 O   0  0  0  0  0  0
  -21.6655   -6.8889   21.4241 O   0  0  0  0  0  0
  -22.3407  -14.5466   20.6741 O   0  0  0  0  0  0
  -24.6801  -31.8036   23.1537 C   0  0  0  0  0  0
  -25.9398  -32.4485   23.8068 C   0  0  1  0  0  0
  -27.2283  -26.7409   20.2163 C   0  0  0  0  0  0
  -25.5993  -33.8312   24.1965 N   0  0  0  0  0  0
  -23.5047  -30.4059   21.5065 C   0  0  2  0  0  0
  -24.9629  -28.7523   20.1188 C   0  0  0  0  0  0
  -22.7746  -29.4329   22.4709 C   0  0  0  0  0  0
  -18.0333  -28.1416   22.8453 C   0  0  0  0  0  0
  -24.1503  -36.7169   23.2647 C   0  0  0  0  0  0
  -26.0836  -30.5497   21.4115 C   0  0  0  0  0  0
  -26.1505  -29.1175   20.7634 C   0  0  0  0  0  0
  -27.2692  -28.1382   20.7809 C   0  0  0  0  0  0
  -26.0094  -26.5733   19.5134 C   0  0  0  0  0  0
  -24.9290  -27.5053   19.4705 C   0  0  0  0  0  0
  -23.7574  -29.7037   20.1413 C   0  0  0  0  0  0
  -25.4151  -36.2910   24.0278 C   0  0  1  0  0  0
  -20.5968  -28.3774   23.1141 C   0  0  2  0  0  0
  -20.6796  -26.9433   22.5400 C   0  0  0  0  0  0
  -19.5779  -26.6369   21.5206 C   0  0  0  0  0  0
  -18.1962  -26.7946   22.1611 C   0  0  0  0  0  0
  -19.1602  -28.8919   23.2776 C   0  0  0  0  0  0
  -18.9507  -30.1502   23.8822 C   0  0  0  0  0  0
  -17.6498  -30.6599   24.0551 C   0  0  0  0  0  0
  -25.9125  -34.9295   23.4958 C   0  0  0  0  0  0
  -16.5386  -29.9084   23.6345 C   0  0  0  0  0  0
  -16.7313  -28.6507   23.0359 C   0  0  0  0  0  0
  -26.4598  -31.6499   25.0669 C   0  0  0  0  0  0
  -25.3674  -31.3806   26.1283 C   0  0  0  0  0  0
  -27.0512  -30.2835   24.6542 C   0  0  0  0  0  0
  -27.6050  -32.4346   25.7498 C   0  0  0  0  0  0
  -27.5575  -37.1739   24.8459 C   0  0  0  0  0  0
  -21.4396  -29.3034   22.3472 N   0  0  0  0  0  0
  -26.4281  -37.3665   23.9401 N   0  0  0  0  0  0
  -24.7792  -30.9519   22.0770 N   0  0  0  0  0  0
  -23.4202  -28.7918   23.3030 O   0  0  0  0  0  0
  -28.2039  -25.5479   20.3049 O   0  0  0  0  0  0
  -26.5765  -34.8867   22.4573 O   0  0  0  0  0  0
  -23.5828  -32.1084   23.6514 O   0  0  0  0  0  0
  -29.7571  -18.3403   22.0343 C   0  0  0  0  0  0
  -28.8389  -17.1386   21.7160 C   0  0  0  0  0  0
  -29.7838  -18.6774   20.5550 C   0  0  2  0  0  0
  -28.7845  -20.2673   20.1555 C   0  0  0  0  0  0
  -28.9671  -22.1643   20.4257 C   0  0  0  0  0  0
  -28.0241  -23.8198   20.1410 C   0  0  0  0  0  0
  -29.5881  -16.9249   20.4719 N   0  0  0  0  0  0
  -31.4225  -13.2797   19.1804 H   0  0  0  0  0  0
  -30.5665  -12.1708   20.1971 H   0  0  0  0  0  0
  -29.9860  -11.8125   17.7700 H   0  0  0  0  0  0
  -29.5183  -13.4885   17.6207 H   0  0  0  0  0  0
  -28.1220  -11.2962   19.1677 H   0  0  0  0  0  0
  -27.4442  -12.2748   17.8893 H   0  0  0  0  0  0
  -27.4719  -14.2344   19.2656 H   0  0  0  0  0  0
  -28.8610  -12.6966   21.5092 H   0  0  0  0  0  0
  -28.1848  -14.2988   21.6502 H   0  0  0  0  0  0
  -25.2797   -9.5679   22.4757 H   0  0  0  0  0  0
  -24.0027   -7.4633   22.7465 H   0  0  0  0  0  0
  -21.0877   -8.8784   19.8936 H   0  0  0  0  0  0
  -22.3749  -10.9674   19.6150 H   0  0  0  0  0  0
  -21.2027   -7.6149   23.9715 H   0  0  0  0  0  0
  -21.1486   -6.0518   25.9071 H   0  0  0  0  0  0
  -22.0596   -2.7610   23.2835 H   0  0  0  0  0  0
  -22.4072  -11.9842   22.4877 H   0  0  0  0  0  0
  -21.1007  -13.1121   22.2643 H   0  0  0  0  0  0
  -24.6386  -15.8585   20.5531 H   0  0  0  0  0  0
  -26.2582  -15.6441   20.1210 H   0  0  0  0  0  0
  -26.7476  -32.4976   23.0775 H   0  0  0  0  0  0
  -25.0055  -33.9361   25.0062 H   0  0  0  0  0  0
  -22.8276  -31.2415   21.3179 H   0  0  0  0  0  0
  -23.3778  -35.9484   23.3260 H   0  0  0  0  0  0
  -24.3568  -36.8882   22.2071 H   0  0  0  0  0  0
  -23.7249  -37.6332   23.6755 H   0  0  0  0  0  0
  -26.2808  -31.2754   20.6204 H   0  0  0  0  0  0
  -26.9366  -30.6185   22.0744 H   0  0  0  0  0  0
  -28.1629  -28.4229   21.3185 H   0  0  0  0  0  0
  -25.8533  -25.6265   19.0163 H   0  0  0  0  0  0
  -24.0308  -27.2163   18.9421 H   0  0  0  0  0  0
  -23.9299  -30.4642   19.3788 H   0  0  0  0  0  0
  -22.8632  -29.1678   19.8191 H   0  0  0  0  0  0
  -25.1358  -36.1682   25.0768 H   0  0  0  0  0  0
  -21.0049  -28.3403   24.1265 H   0  0  0  0  0  0
  -20.5639  -26.2401   23.3660 H   0  0  0  0  0  0
  -21.6660  -26.7364   22.1231 H   0  0  0  0  0  0
  -19.6930  -25.6260   21.1287 H   0  0  0  0  0  0
  -19.6728  -27.3134   20.6702 H   0  0  0  0  0  0
  -17.4224  -26.6677   21.4021 H   0  0  0  0  0  0
  -18.0357  -26.0109   22.9031 H   0  0  0  0  0  0
  -19.7983  -30.7338   24.2159 H   0  0  0  0  0  0
  -17.5047  -31.6270   24.5171 H   0  0  0  0  0  0
  -15.5381  -30.2958   23.7716 H   0  0  0  0  0  0
  -15.8713  -28.0801   22.7109 H   0  0  0  0  0  0
  -24.5891  -30.7121   25.7582 H   0  0  0  0  0  0
  -24.8825  -32.3025   26.4504 H   0  0  0  0  0  0
  -25.7854  -30.9105   27.0192 H   0  0  0  0  0  0
  -26.3214  -29.6457   24.1543 H   0  0  0  0  0  0
  -27.3953  -29.7267   25.5269 H   0  0  0  0  0  0
  -27.9194  -30.3942   24.0041 H   0  0  0  0  0  0
  -27.2590  -33.3709   26.1887 H   0  0  0  0  0  0
  -28.3971  -32.6807   25.0415 H   0  0  0  0  0  0
  -28.0597  -31.8599   26.5575 H   0  0  0  0  0  0
  -28.2544  -38.0080   24.7520 H   0  0  0  0  0  0
  -28.1119  -36.2598   24.6272 H   0  0  0  0  0  0
  -27.2282  -37.1356   25.8858 H   0  0  0  0  0  0
  -20.9681  -29.8720   21.6579 H   0  0  0  0  0  0
  -26.0112  -38.2715   24.1417 H   0  0  0  0  0  0
  -30.7324  -18.0501   22.4314 H   0  0  0  0  0  0
  -29.2912  -19.1002   22.6633 H   0  0  0  0  0  0
  -27.7936  -17.4119   21.5589 H   0  0  0  0  0  0
  -28.9186  -16.3494   22.4647 H   0  0  0  0  0  0
  -30.8152  -18.8959   20.2738 H   0  0  0  0  0  0
  -27.7932  -20.0702   20.5654 H   0  0  0  0  0  0
  -28.6113  -20.2067   19.0815 H   0  0  0  0  0  0
  -29.9285  -22.3669   19.9532 H   0  0  0  0  0  0
  -29.1986  -22.2199   21.4895 H   0  0  0  0  0  0
  -27.0964  -23.6574   20.6898 H   0  0  0  0  0  0
  -27.7182  -23.7429   19.0978 H   0  0  0  0  0  0
  1 25  1  0  0  0
  1 30  2  0  0  0
  1 77  1  0  0  0
  2  3  1  0  0  0
  2 25  1  0  0  0
  2 78  1  0  0  0
  2 79  1  0  0  0
  3  4  1  0  0  0
  3 80  1  0  0  0
  3 81  1  0  0  0
  4  5  1  0  0  0
  4 82  1  0  0  0
  4 83  1  0  0  0
  5  6  1  0  0  0
  5 26  1  0  0  0
  5 84  1  0  0  0
  6 25  1  0  0  0
  6 85  1  0  0  0
  6 86  1  0  0  0
  7  8  2  0  0  0
  7 26  1  0  0  0
  7 29  1  0  0  0
  8  9  1  0  0  0
  8 22  1  0  0  0
  9 10  1  0  0  0
  9 27  2  0  0  0
 10 11  2  0  0  0
 10 15  1  0  0  0
 11 12  1  0  0  0
 11 87  1  0  0  0
 12 13  2  0  0  0
 12 88  1  0  0  0
 13 14  1  0  0  0
 13 31  1  0  0  0
 14 15  2  0  0  0
 14 89  1  0  0  0
 15 90  1  0  0  0
 16 17  2  0  0  0
 16 21  1  0  0  0
 16 31  1  0  0  0
 17 18  1  0  0  0
 17 91  1  0  0  0
 18 19  2  0  0  0
 18 92  1  0  0  0
 19 20  1  0  0  0
 19 24  1  0  0  0
 20 21  2  0  0  0
 20 93  1  0  0  0
 21 23  1  0  0  0
 22 28  1  0  0  0
 22 32  2  0  0  0
 26 27  1  0  0  0
 28 94  1  0  0  0
 28 95  1  0  0  0
 29 96  1  0  0  0
 29 97  1  0  0  0
 33 34  1  0  0  0
 33 66  1  0  0  0
 33 70  2  0  0  0
 34 36  1  0  0  0
 34 59  1  0  0  0
 34 98  1  0  0  0
 35 44  2  0  0  0
 35 45  1  0  0  0
 35 68  1  0  0  0
 36 56  1  0  0  0
 36 99  1  0  0  0
 37 39  1  0  0  0
 37 47  1  0  0  0
 37 66  1  0  0  0
 37100  1  0  0  0
 38 43  2  0  0  0
 38 46  1  0  0  0
 38 47  1  0  0  0
 39 64  1  0  0  0
 39 67  2  0  0  0
 40 52  1  0  0  0
 40 53  2  0  0  0
 40 58  1  0  0  0
 41101  1  0  0  0
 41102  1  0  0  0
 41103  1  0  0  0
 41 48  1  0  0  0
 42 43  1  0  0  0
 42 66  1  0  0  0
 42104  1  0  0  0
 42105  1  0  0  0
 43 44  1  0  0  0
 44106  1  0  0  0
 45 46  2  0  0  0
 45107  1  0  0  0
 46108  1  0  0  0
 47109  1  0  0  0
 47110  1  0  0  0
 48 56  1  0  0  0
 48 65  1  0  0  0
 48111  1  0  0  0
 49 50  1  0  0  0
 49 53  1  0  0  0
 49 64  1  0  0  0
 49112  1  0  0  0
 50 51  1  0  0  0
 50113  1  0  0  0
 50114  1  0  0  0
 51 52  1  0  0  0
 51115  1  0  0  0
 51116  1  0  0  0
 52117  1  0  0  0
 52118  1  0  0  0
 53 54  1  0  0  0
 54 55  2  0  0  0
 54119  1  0  0  0
 55 57  1  0  0  0
 55120  1  0  0  0
 56 69  2  0  0  0
 57 58  2  0  0  0
 57121  1  0  0  0
 58122  1  0  0  0
 59 60  1  0  0  0
 59 61  1  0  0  0
 59 62  1  0  0  0
 60123  1  0  0  0
 60124  1  0  0  0
 60125  1  0  0  0
 61126  1  0  0  0
 61127  1  0  0  0
 61128  1  0  0  0
 62129  1  0  0  0
 62130  1  0  0  0
 62131  1  0  0  0
 63 65  1  0  0  0
 63132  1  0  0  0
 63133  1  0  0  0
 63134  1  0  0  0
 64135  1  0  0  0
 65136  1  0  0  0
 68 76  1  0  0  0
 71 72  1  0  0  0
 71 73  1  0  0  0
 71137  1  0  0  0
 71138  1  0  0  0
 72 77  1  0  0  0
 72139  1  0  0  0
 72140  1  0  0  0
 73 74  1  0  0  0
 73 77  1  0  0  0
 73141  1  0  0  0
 74 75  1  0  0  0
 74142  1  0  0  0
 74143  1  0  0  0
 75 76  1  0  0  0
 75144  1  0  0  0
 75145  1  0  0  0
 76146  1  0  0  0
 76147  1  0  0  0
M  ISO  4   1 100  68 101  76 101  77 100
M  END
> <chiral flag>
0

> <version>
0

> <s_m_source_file>
/data/baiqing/PycharmProjects/Reinvent-master-3.2/result/LINK_invent/BTK/process_docking_weight1_custom_sum_contain_oxygen_bond_distance_aromatic_linkinvent_7_9_3/rearranged_h_0185.sdf

> <i_m_source_file_index>
35

> <r_mmod_Potential_Energy-OPLS-2005>
2419.91674804688

> <r_mmod_Stretch_Energy-OPLS-2005>
1106.58618164062

> <r_mmod_Bend_Energy-OPLS-2005>
623.591247558594

> <r_mmod_Torsional_Energy-OPLS-2005>
273.150146484375

> <r_mmod_Improper_Torsional_Energy-OPLS-2005>
11.0388498306274

> <r_mmod_Van_der_Waal_Energy-OPLS-2005>
108.756896972656

> <r_mmod_Electrostatic_Energy-OPLS-2005>
-297.280517578125

> <r_mmod_Solvation_Energy-OPLS-2005>
-207.390747070312

> <b_mmod_Minimization_Converged-OPLS-2005>
0

> <r_mmod_RMS_Derivative-OPLS-2005>
1.22472012042999

$$$$
35
                    3D
 Structure written by MMmdl.
149158  0  0  1  0            999 V2000
  -30.4843  -15.1163   20.3974 C   0  0  0  0  0  0
  -30.4439  -12.7034   19.5067 C   0  0  0  0  0  0
  -29.5281  -12.5458   18.2689 C   0  0  0  0  0  0
  -28.0698  -12.2974   18.6967 C   0  0  0  0  0  0
  -27.6190  -13.2578   19.8268 C   0  0  2  0  0  0
  -28.6604  -13.3643   20.9605 C   0  0  0  0  0  0
  -25.2421  -13.8218   20.5725 C   0  0  0  0  0  0
  -24.1758  -13.0429   20.9251 C   0  0  0  0  0  0
  -24.6390  -11.6922   20.8764 C   0  0  0  0  0  0
  -23.9078  -10.4289   21.0409 C   0  0  0  0  0  0
  -24.3626   -9.4202   21.9186 C   0  0  0  0  0  0
  -23.6297   -8.2239   22.0754 C   0  0  0  0  0  0
  -22.4279   -8.0279   21.3544 C   0  0  0  0  0  0
  -21.9919   -9.0252   20.4646 C   0  0  0  0  0  0
  -22.7250  -10.2130   20.3055 C   0  0  0  0  0  0
  -21.6852   -6.0733   22.5277 C   0  0  0  0  0  0
  -21.4015   -6.5638   23.8211 C   0  0  0  0  0  0
  -21.3659   -5.6790   24.9172 C   0  0  0  0  0  0
  -21.6043   -4.3054   24.7224 C   0  0  0  0  0  0
  -21.8818   -3.8144   23.4347 C   0  0  0  0  0  0
  -21.9195   -4.6961   22.3402 C   0  0  0  0  0  0
  -22.7777  -13.5193   21.1899 C   0  0  0  0  0  0
  -22.1660   -4.2147   21.0980 F   0  0  0  0  0  0
  -21.5630   -3.4536   25.7738 F   0  0  0  0  0  0
  -29.9103  -13.8290   20.3417 N   0  0  0  0  0  0
  -26.2840  -12.9465   20.3216 N   0  0  0  0  0  0
  -25.9321  -11.6588   20.5728 N   0  0  0  0  0  0
  -22.0432  -12.8178   22.0456 N   0  0  0  0  0  0
  -25.4045  -15.1953   20.4138 N   0  0  0  0  0  0
  -31.7089  -15.1316   20.1983 O   0  0  0  0  0  0
  -21.6640   -6.8877   21.4240 O   0  0  0  0  0  0
  -22.3457  -14.5493   20.6737 O   0  0  0  0  0  0
  -24.6535  -31.8347   23.1792 C   0  0  0  0  0  0
  -25.9260  -32.4646   23.8222 C   0  0  1  0  0  0
  -27.2128  -27.0232   20.1742 C   0  0  0  0  0  0
  -25.5975  -33.8456   24.2132 N   0  0  0  0  0  0
  -23.4632  -30.4502   21.5276 C   0  0  2  0  0  0
  -24.9137  -28.8569   20.1139 C   0  0  0  0  0  0
  -22.7622  -29.4496   22.4821 C   0  0  0  0  0  0
  -18.0316  -28.1403   22.8484 C   0  0  0  0  0  0
  -24.1492  -36.7226   23.2646 C   0  0  0  0  0  0
  -26.0266  -30.6722   21.3951 C   0  0  0  0  0  0
  -26.0958  -29.2715   20.7400 C   0  0  0  0  0  0
  -27.2449  -28.3750   20.7463 C   0  0  0  0  0  0
  -26.0045  -26.7430   19.4975 C   0  0  0  0  0  0
  -24.8877  -27.6100   19.4735 C   0  0  0  0  0  0
  -23.6969  -29.7738   20.1504 C   0  0  0  0  0  0
  -25.4132  -36.3001   24.0307 C   0  0  1  0  0  0
  -20.5938  -28.3736   23.1215 C   0  0  2  0  0  0
  -20.6800  -26.9429   22.5403 C   0  0  0  0  0  0
  -19.5771  -26.6383   21.5217 C   0  0  0  0  0  0
  -18.1953  -26.7942   22.1627 C   0  0  0  0  0  0
  -19.1578  -28.8890   23.2839 C   0  0  0  0  0  0
  -18.9491  -30.1483   23.8866 C   0  0  0  0  0  0
  -17.6487  -30.6599   24.0560 C   0  0  0  0  0  0
  -25.9091  -34.9382   23.5035 C   0  0  0  0  0  0
  -16.5376  -29.9088   23.6342 C   0  0  0  0  0  0
  -16.7301  -28.6505   23.0368 C   0  0  0  0  0  0
  -26.4545  -31.6552   25.0704 C   0  0  0  0  0  0
  -25.3699  -31.3780   26.1379 C   0  0  0  0  0  0
  -27.0422  -30.2935   24.6356 C   0  0  0  0  0  0
  -27.6051  -32.4345   25.7500 C   0  0  0  0  0  0
  -27.5569  -37.1778   24.8473 C   0  0  0  0  0  0
  -21.4303  -29.3045   22.3571 N   0  0  0  0  0  0
  -26.4288  -37.3724   23.9406 N   0  0  0  0  0  0
  -24.7353  -31.0101   22.0881 N   0  0  0  0  0  0
  -23.4215  -28.8054   23.3019 O   0  0  0  0  0  0
  -28.2395  -25.9715   20.2131 O   0  0  0  0  0  0
  -26.5683  -34.8899   22.4618 O   0  0  0  0  0  0
  -23.5629  -32.1273   23.6945 O   0  0  0  0  0  0
  -31.0618  -19.7652   21.1547 C   0  0  0  0  0  0
  -30.0630  -20.7123   20.7972 C   0  0  0  0  0  0
  -28.9331  -20.1648   20.2559 C   0  0  0  0  0  0
  -29.8081  -17.8430   20.4835 C   0  0  0  0  0  0
  -29.9940  -22.2946   20.9171 C   0  0  0  0  0  0
  -27.9838  -21.4165   19.9177 C   0  0  0  0  0  0
  -28.7562  -22.8863   20.0732 C   0  0  1  0  0  0
  -27.9347  -24.4030   20.4138 C   0  0  0  0  0  0
  -30.9276  -18.3975   20.9928 N   0  0  0  0  0  0
  -28.7944  -18.7495   20.1169 N   0  0  0  0  0  0
  -29.6759  -16.3290   20.4214 N   0  0  0  0  0  0
  -31.4677  -12.8921   19.1806 H   0  0  0  0  0  0
  -30.4841  -11.7777   20.0826 H   0  0  0  0  0  0
  -29.8793  -11.7281   17.6379 H   0  0  0  0  0  0
  -29.5819  -13.4488   17.6590 H   0  0  0  0  0  0
  -28.0030  -11.2665   19.0469 H   0  0  0  0  0  0
  -27.4009  -12.3717   17.8389 H   0  0  0  0  0  0
  -27.5541  -14.2391   19.3564 H   0  0  0  0  0  0
  -28.7941  -12.4074   21.4681 H   0  0  0  0  0  0
  -28.3288  -14.0751   21.7190 H   0  0  0  0  0  0
  -25.2766   -9.5677   22.4766 H   0  0  0  0  0  0
  -24.0002   -7.4626   22.7470 H   0  0  0  0  0  0
  -21.0851   -8.8770   19.8949 H   0  0  0  0  0  0
  -22.3704  -10.9670   19.6167 H   0  0  0  0  0  0
  -21.2005   -7.6146   23.9712 H   0  0  0  0  0  0
  -21.1482   -6.0523   25.9076 H   0  0  0  0  0  0
  -22.0599   -2.7607   23.2846 H   0  0  0  0  0  0
  -22.4060  -11.9845   22.4848 H   0  0  0  0  0  0
  -21.1041  -13.1185   22.2652 H   0  0  0  0  0  0
  -24.6262  -15.8371   20.5212 H   0  0  0  0  0  0
  -26.2286  -15.6406   20.0337 H   0  0  0  0  0  0
  -26.7323  -32.5204   23.0939 H   0  0  0  0  0  0
  -25.0096  -33.9558   25.0266 H   0  0  0  0  0  0
  -22.7714  -31.2793   21.3648 H   0  0  0  0  0  0
  -23.3757  -35.9553   23.3308 H   0  0  0  0  0  0
  -24.3570  -36.8865   22.2060 H   0  0  0  0  0  0
  -23.7247  -37.6419   23.6690 H   0  0  0  0  0  0
  -26.1964  -31.4188   20.6183 H   0  0  0  0  0  0
  -26.8912  -30.7263   22.0445 H   0  0  0  0  0  0
  -28.1444  -28.6919   21.2551 H   0  0  0  0  0  0
  -25.8905  -25.8027   18.9810 H   0  0  0  0  0  0
  -23.9911  -27.2902   18.9606 H   0  0  0  0  0  0
  -23.8453  -30.5453   19.3940 H   0  0  0  0  0  0
  -22.8082  -29.2238   19.8348 H   0  0  0  0  0  0
  -25.1328  -36.1815   25.0799 H   0  0  0  0  0  0
  -21.0030  -28.3333   24.1337 H   0  0  0  0  0  0
  -20.5693  -26.2353   23.3633 H   0  0  0  0  0  0
  -21.6665  -26.7428   22.1198 H   0  0  0  0  0  0
  -19.6933  -25.6285   21.1266 H   0  0  0  0  0  0
  -19.6707  -27.3176   20.6732 H   0  0  0  0  0  0
  -17.4223  -26.6691   21.4025 H   0  0  0  0  0  0
  -18.0344  -26.0090   22.9030 H   0  0  0  0  0  0
  -19.7966  -30.7314   24.2213 H   0  0  0  0  0  0
  -17.5039  -31.6274   24.5170 H   0  0  0  0  0  0
  -15.5375  -30.2984   23.7683 H   0  0  0  0  0  0
  -15.8701  -28.0813   22.7103 H   0  0  0  0  0  0
  -24.5894  -30.7113   25.7698 H   0  0  0  0  0  0
  -24.8867  -32.2969   26.4703 H   0  0  0  0  0  0
  -25.7955  -30.9023   27.0222 H   0  0  0  0  0  0
  -26.3059  -29.6641   24.1341 H   0  0  0  0  0  0
  -27.3978  -29.7262   25.4967 H   0  0  0  0  0  0
  -27.8995  -30.4149   23.9734 H   0  0  0  0  0  0
  -27.2627  -33.3684   26.1970 H   0  0  0  0  0  0
  -28.3913  -32.6846   25.0364 H   0  0  0  0  0  0
  -28.0656  -31.8540   26.5503 H   0  0  0  0  0  0
  -28.2593  -38.0066   24.7492 H   0  0  0  0  0  0
  -28.1058  -36.2593   24.6338 H   0  0  0  0  0  0
  -27.2282  -37.1469   25.8877 H   0  0  0  0  0  0
  -20.9533  -29.8747   21.6725 H   0  0  0  0  0  0
  -26.0144  -38.2789   24.1399 H   0  0  0  0  0  0
  -31.9922  -20.1007   21.5885 H   0  0  0  0  0  0
  -30.9357  -22.7473   20.6030 H   0  0  0  0  0  0
  -29.8612  -22.5426   21.9709 H   0  0  0  0  0  0
  -27.1410  -21.3797   20.6081 H   0  0  0  0  0  0
  -27.5703  -21.3044   18.9155 H   0  0  0  0  0  0
  -29.1695  -23.0463   19.0769 H   0  0  0  0  0  0
  -27.6619  -24.3365   21.4668 H   0  0  0  0  0  0
  -26.9866  -24.2528   19.9046 H   0  0  0  0  0  0
  -28.7052  -16.0733   20.3795 H   0  0  0  0  0  0
  1 25  1  0  0  0
  1 30  2  0  0  0
  1 81  1  0  0  0
  2  3  1  0  0  0
  2 25  1  0  0  0
  2 82  1  0  0  0
  2 83  1  0  0  0
  3  4  1  0  0  0
  3 84  1  0  0  0
  3 85  1  0  0  0
  4  5  1  0  0  0
  4 86  1  0  0  0
  4 87  1  0  0  0
  5  6  1  0  0  0
  5 26  1  0  0  0
  5 88  1  0  0  0
  6 25  1  0  0  0
  6 89  1  0  0  0
  6 90  1  0  0  0
  7  8  2  0  0  0
  7 26  1  0  0  0
  7 29  1  0  0  0
  8  9  1  0  0  0
  8 22  1  0  0  0
  9 10  1  0  0  0
  9 27  2  0  0  0
 10 11  2  0  0  0
 10 15  1  0  0  0
 11 12  1  0  0  0
 11 91  1  0  0  0
 12 13  2  0  0  0
 12 92  1  0  0  0
 13 14  1  0  0  0
 13 31  1  0  0  0
 14 15  2  0  0  0
 14 93  1  0  0  0
 15 94  1  0  0  0
 16 17  2  0  0  0
 16 21  1  0  0  0
 16 31  1  0  0  0
 17 18  1  0  0  0
 17 95  1  0  0  0
 18 19  2  0  0  0
 18 96  1  0  0  0
 19 20  1  0  0  0
 19 24  1  0  0  0
 20 21  2  0  0  0
 20 97  1  0  0  0
 21 23  1  0  0  0
 22 28  1  0  0  0
 22 32  2  0  0  0
 26 27  1  0  0  0
 28 98  1  0  0  0
 28 99  1  0  0  0
 29100  1  0  0  0
 29101  1  0  0  0
 33 34  1  0  0  0
 33 66  1  0  0  0
 33 70  2  0  0  0
 34 36  1  0  0  0
 34 59  1  0  0  0
 34102  1  0  0  0
 35 44  2  0  0  0
 35 45  1  0  0  0
 35 68  1  0  0  0
 36 56  1  0  0  0
 36103  1  0  0  0
 37 39  1  0  0  0
 37 47  1  0  0  0
 37 66  1  0  0  0
 37104  1  0  0  0
 38 43  2  0  0  0
 38 46  1  0  0  0
 38 47  1  0  0  0
 39 64  1  0  0  0
 39 67  2  0  0  0
 40 52  1  0  0  0
 40 53  2  0  0  0
 40 58  1  0  0  0
 41105  1  0  0  0
 41106  1  0  0  0
 41107  1  0  0  0
 41 48  1  0  0  0
 42 43  1  0  0  0
 42 66  1  0  0  0
 42108  1  0  0  0
 42109  1  0  0  0
 43 44  1  0  0  0
 44110  1  0  0  0
 45 46  2  0  0  0
 45111  1  0  0  0
 46112  1  0  0  0
 47113  1  0  0  0
 47114  1  0  0  0
 48 56  1  0  0  0
 48 65  1  0  0  0
 48115  1  0  0  0
 49 50  1  0  0  0
 49 53  1  0  0  0
 49 64  1  0  0  0
 49116  1  0  0  0
 50 51  1  0  0  0
 50117  1  0  0  0
 50118  1  0  0  0
 51 52  1  0  0  0
 51119  1  0  0  0
 51120  1  0  0  0
 52121  1  0  0  0
 52122  1  0  0  0
 53 54  1  0  0  0
 54 55  2  0  0  0
 54123  1  0  0  0
 55 57  1  0  0  0
 55124  1  0  0  0
 56 69  2  0  0  0
 57 58  2  0  0  0
 57125  1  0  0  0
 58126  1  0  0  0
 59 60  1  0  0  0
 59 61  1  0  0  0
 59 62  1  0  0  0
 60127  1  0  0  0
 60128  1  0  0  0
 60129  1  0  0  0
 61130  1  0  0  0
 61131  1  0  0  0
 61132  1  0  0  0
 62133  1  0  0  0
 62134  1  0  0  0
 62135  1  0  0  0
 63 65  1  0  0  0
 63136  1  0  0  0
 63137  1  0  0  0
 63138  1  0  0  0
 64139  1  0  0  0
 65140  1  0  0  0
 68 78  1  0  0  0
 71 72  2  0  0  0
 71 79  1  0  0  0
 71141  1  0  0  0
 72 73  1  0  0  0
 72 75  1  0  0  0
 73 76  1  0  0  0
 73 80  2  0  0  0
 74 79  2  0  0  0
 74 80  1  0  0  0
 74 81  1  0  0  0
 75 77  1  0  0  0
 75142  1  0  0  0
 75143  1  0  0  0
 76 77  1  0  0  0
 76144  1  0  0  0
 76145  1  0  0  0
 77 78  1  0  0  0
 77146  1  0  0  0
 78147  1  0  0  0
 78148  1  0  0  0
 81149  1  0  0  0
M  ISO  4   1 100  68 101  78 101  81 100
M  END
> <chiral flag>
0

> <version>
0

> <s_m_source_file>
/data/baiqing/PycharmProjects/Reinvent-master-3.2/result/LINK_invent/BTK/process_docking_weight1_custom_sum_contain_oxygen_bond_distance_aromatic_linkinvent_7_9_3/rearranged_h_0185.sdf

> <i_m_source_file_index>
36

> <r_mmod_Potential_Energy-OPLS-2005>
418.949768066406

> <r_mmod_Stretch_Energy-OPLS-2005>
359.419403076172

> <r_mmod_Bend_Energy-OPLS-2005>
384.910308837891

> <r_mmod_Torsional_Energy-OPLS-2005>
221.392990112305

> <r_mmod_Improper_Torsional_Energy-OPLS-2005>
5.84105825424194

> <r_mmod_Van_der_Waal_Energy-OPLS-2005>
129.527908325195

> <r_mmod_Electrostatic_Energy-OPLS-2005>
-754.767150878906

> <r_mmod_Solvation_Energy-OPLS-2005>
-244.394744873047

> <b_mmod_Minimization_Converged-OPLS-2005>
0

> <r_mmod_RMS_Derivative-OPLS-2005>
0.785000801086426

$$$$
36
                    3D
 Structure written by MMmdl.
157166  0  0  1  0            999 V2000
  -30.5999  -14.8125   20.4503 C   0  0  0  0  0  0
  -30.4311  -12.4988   19.4774 C   0  0  0  0  0  0
  -29.5096  -12.5097   18.2380 C   0  0  0  0  0  0
  -28.0383  -12.3219   18.6554 C   0  0  0  0  0  0
  -27.6339  -13.2362   19.8421 C   0  0  2  0  0  0
  -28.6801  -13.2116   20.9772 C   0  0  0  0  0  0
  -25.2479  -13.8199   20.5698 C   0  0  0  0  0  0
  -24.1786  -13.0436   20.9226 C   0  0  0  0  0  0
  -24.6385  -11.6917   20.8757 C   0  0  0  0  0  0
  -23.9067  -10.4292   21.0410 C   0  0  0  0  0  0
  -24.3618   -9.4206   21.9185 C   0  0  0  0  0  0
  -23.6294   -8.2241   22.0754 C   0  0  0  0  0  0
  -22.4276   -8.0280   21.3544 C   0  0  0  0  0  0
  -21.9911   -9.0253   20.4646 C   0  0  0  0  0  0
  -22.7240  -10.2132   20.3058 C   0  0  0  0  0  0
  -21.6853   -6.0735   22.5279 C   0  0  0  0  0  0
  -21.4014   -6.5640   23.8212 C   0  0  0  0  0  0
  -21.3660   -5.6792   24.9175 C   0  0  0  0  0  0
  -21.6045   -4.3055   24.7225 C   0  0  0  0  0  0
  -21.8818   -3.8147   23.4345 C   0  0  0  0  0  0
  -21.9192   -4.6964   22.3402 C   0  0  0  0  0  0
  -22.7807  -13.5216   21.1883 C   0  0  0  0  0  0
  -22.1660   -4.2149   21.0980 F   0  0  0  0  0  0
  -21.5630   -3.4538   25.7736 F   0  0  0  0  0  0
  -29.9700  -13.5814   20.3826 N   0  0  0  0  0  0
  -26.2899  -12.9411   20.3255 N   0  0  0  0  0  0
  -25.9316  -11.6552   20.5752 N   0  0  0  0  0  0
  -22.0453  -12.8204   22.0435 N   0  0  0  0  0  0
  -25.4137  -15.1928   20.4102 N   0  0  0  0  0  0
  -31.8061  -14.8535   20.1763 O   0  0  0  0  0  0
  -21.6641   -6.8876   21.4239 O   0  0  0  0  0  0
  -22.3495  -14.5523   20.6727 O   0  0  0  0  0  0
  -24.6348  -31.8516   23.1944 C   0  0  0  0  0  0
  -25.9157  -32.4734   23.8306 C   0  0  1  0  0  0
  -27.2167  -27.2205   20.1452 C   0  0  0  0  0  0
  -25.5937  -33.8537   24.2227 N   0  0  0  0  0  0
  -23.4337  -30.4723   21.5387 C   0  0  2  0  0  0
  -24.8817  -28.9094   20.1130 C   0  0  0  0  0  0
  -22.7520  -29.4584   22.4898 C   0  0  0  0  0  0
  -18.0296  -28.1389   22.8483 C   0  0  0  0  0  0
  -24.1493  -36.7274   23.2641 C   0  0  0  0  0  0
  -25.9824  -30.7525   21.3798 C   0  0  0  0  0  0
  -26.0551  -29.3703   20.7240 C   0  0  0  0  0  0
  -27.2274  -28.5411   20.7226 C   0  0  0  0  0  0
  -26.0230  -26.8382   19.4970 C   0  0  0  0  0  0
  -24.8731  -27.6537   19.4860 C   0  0  0  0  0  0
  -23.6546  -29.8019   20.1570 C   0  0  0  0  0  0
  -25.4123  -36.3056   24.0320 C   0  0  1  0  0  0
  -20.5903  -28.3703   23.1262 C   0  0  2  0  0  0
  -20.6783  -26.9417   22.5408 C   0  0  0  0  0  0
  -19.5758  -26.6382   21.5214 C   0  0  0  0  0  0
  -18.1938  -26.7930   22.1625 C   0  0  0  0  0  0
  -19.1550  -28.8864   23.2866 C   0  0  0  0  0  0
  -18.9470  -30.1464   23.8884 C   0  0  0  0  0  0
  -17.6467  -30.6589   24.0561 C   0  0  0  0  0  0
  -25.9065  -34.9429   23.5080 C   0  0  0  0  0  0
  -16.5359  -29.9083   23.6333 C   0  0  0  0  0  0
  -16.7282  -28.6501   23.0354 C   0  0  0  0  0  0
  -26.4509  -31.6574   25.0714 C   0  0  0  0  0  0
  -25.3716  -31.3736   26.1423 C   0  0  0  0  0  0
  -27.0364  -30.2983   24.6233 C   0  0  0  0  0  0
  -27.6053  -32.4325   25.7492 C   0  0  0  0  0  0
  -27.5579  -37.1797   24.8466 C   0  0  0  0  0  0
  -21.4224  -29.3043   22.3644 N   0  0  0  0  0  0
  -26.4295  -37.3759   23.9402 N   0  0  0  0  0  0
  -24.7029  -31.0446   22.0937 N   0  0  0  0  0  0
  -23.4204  -28.8129   23.3015 O   0  0  0  0  0  0
  -28.3035  -26.3045   20.1736 O   0  0  0  0  0  0
  -26.5646  -34.8912   22.4654 O   0  0  0  0  0  0
  -23.5488  -32.1355   23.7218 O   0  0  0  0  0  0
  -31.4954  -19.0097   21.4243 C   0  0  0  0  0  0
  -29.5589  -19.6800   20.5346 C   0  0  0  0  0  0
  -30.1078  -17.3905   20.6915 C   0  0  0  0  0  0
  -28.7052  -24.3968   21.8230 C   0  0  0  0  0  0
  -28.7062  -22.8365   21.8311 C   0  0  0  0  0  0
  -28.5969  -23.5922   19.5908 C   0  0  0  0  0  0
  -28.0772  -24.8268   20.4883 C   0  0  2  0  0  0
  -32.8149  -19.3719   22.0717 C   0  0  0  0  0  0
  -28.6438  -20.9265   20.0839 C   0  0  0  0  0  0
  -30.7119  -20.0321   21.0896 N   0  0  0  0  0  0
  -31.2667  -17.7086   21.2578 N   0  0  0  0  0  0
  -29.2010  -18.3604   20.3268 N   0  0  0  0  0  0
  -29.8195  -15.9766   20.5593 N   0  0  0  0  0  0
  -29.0288  -22.3889   20.4552 N   0  3  2  0  0  0
  -31.4697  -12.6281   19.1691 H   0  0  0  0  0  0
  -30.3885  -11.5329   19.9833 H   0  0  0  0  0  0
  -29.8041  -11.7247   17.5402 H   0  0  0  0  0  0
  -29.6221  -13.4535   17.7024 H   0  0  0  0  0  0
  -27.9096  -11.2761   18.9366 H   0  0  0  0  0  0
  -27.3772  -12.4903   17.8043 H   0  0  0  0  0  0
  -27.6127  -14.2485   19.4388 H   0  0  0  0  0  0
  -28.7351  -12.2242   21.4383 H   0  0  0  0  0  0
  -28.4041  -13.9066   21.7717 H   0  0  0  0  0  0
  -25.2760   -9.5684   22.4762 H   0  0  0  0  0  0
  -24.0004   -7.4631   22.7472 H   0  0  0  0  0  0
  -21.0843   -8.8770   19.8951 H   0  0  0  0  0  0
  -22.3695  -10.9671   19.6171 H   0  0  0  0  0  0
  -21.2007   -7.6148   23.9716 H   0  0  0  0  0  0
  -21.1482   -6.0523   25.9077 H   0  0  0  0  0  0
  -22.0598   -2.7610   23.2846 H   0  0  0  0  0  0
  -22.4065  -11.9863   22.4823 H   0  0  0  0  0  0
  -21.1069  -13.1224   22.2639 H   0  0  0  0  0  0
  -24.6376  -15.8373   20.5166 H   0  0  0  0  0  0
  -26.2422  -15.6364   20.0366 H   0  0  0  0  0  0
  -26.7222  -32.5371   23.1042 H   0  0  0  0  0  0
  -25.0064  -33.9666   25.0359 H   0  0  0  0  0  0
  -22.7321  -31.2955   21.3887 H   0  0  0  0  0  0
  -23.3756  -35.9607   23.3306 H   0  0  0  0  0  0
  -24.3578  -36.8900   22.2055 H   0  0  0  0  0  0
  -23.7250  -37.6475   23.6672 H   0  0  0  0  0  0
  -26.1268  -31.5104   20.6087 H   0  0  0  0  0  0
  -26.8574  -30.8023   22.0162 H   0  0  0  0  0  0
  -28.1271  -28.8909   21.2095 H   0  0  0  0  0  0
  -25.9625  -25.8804   19.0000 H   0  0  0  0  0  0
  -23.9769  -27.2987   18.9959 H   0  0  0  0  0  0
  -23.7833  -30.5757   19.3993 H   0  0  0  0  0  0
  -22.7717  -29.2376   19.8514 H   0  0  0  0  0  0
  -25.1311  -36.1898   25.0814 H   0  0  0  0  0  0
  -20.9996  -28.3286   24.1383 H   0  0  0  0  0  0
  -20.5682  -26.2315   23.3617 H   0  0  0  0  0  0
  -21.6650  -26.7436   22.1202 H   0  0  0  0  0  0
  -19.6919  -25.6290   21.1250 H   0  0  0  0  0  0
  -19.6695  -27.3187   20.6740 H   0  0  0  0  0  0
  -17.4209  -26.6677   21.4027 H   0  0  0  0  0  0
  -18.0338  -26.0073   22.9022 H   0  0  0  0  0  0
  -19.7945  -30.7285   24.2246 H   0  0  0  0  0  0
  -17.5020  -31.6269   24.5164 H   0  0  0  0  0  0
  -15.5358  -30.2980   23.7664 H   0  0  0  0  0  0
  -15.8683  -28.0815   22.7075 H   0  0  0  0  0  0
  -24.5894  -30.7088   25.7741 H   0  0  0  0  0  0
  -24.8906  -32.2910   26.4826 H   0  0  0  0  0  0
  -25.8017  -30.8920   27.0213 H   0  0  0  0  0  0
  -26.2960  -29.6718   24.1247 H   0  0  0  0  0  0
  -27.4017  -29.7264   25.4773 H   0  0  0  0  0  0
  -27.8849  -30.4243   23.9504 H   0  0  0  0  0  0
  -27.2653  -33.3631   26.2048 H   0  0  0  0  0  0
  -28.3875  -32.6877   25.0331 H   0  0  0  0  0  0
  -28.0709  -31.8466   26.5427 H   0  0  0  0  0  0
  -28.2600  -38.0090   24.7504 H   0  0  0  0  0  0
  -28.1072  -36.2620   24.6310 H   0  0  0  0  0  0
  -27.2293  -37.1463   25.8869 H   0  0  0  0  0  0
  -20.9419  -29.8757   21.6834 H   0  0  0  0  0  0
  -26.0170  -38.2833   24.1395 H   0  0  0  0  0  0
  -29.7311  -24.7625   21.8721 H   0  0  0  0  0  0
  -28.1718  -24.8115   22.6780 H   0  0  0  0  0  0
  -27.7121  -22.4792   22.1034 H   0  0  0  0  0  0
  -29.4102  -22.4292   22.5579 H   0  0  0  0  0  0
  -29.4603  -23.9079   19.0050 H   0  0  0  0  0  0
  -27.8265  -23.3002   18.8766 H   0  0  0  0  0  0
  -27.0057  -24.6716   20.6169 H   0  0  0  0  0  0
  -32.7484  -20.3266   22.5938 H   0  0  0  0  0  0
  -33.5952  -19.4508   21.3155 H   0  0  0  0  0  0
  -33.1162  -18.6169   22.7980 H   0  0  0  0  0  0
  -27.6215  -20.7364   20.4091 H   0  0  0  0  0  0
  -28.6131  -20.8781   18.9958 H   0  0  0  0  0  0
  -28.8342  -15.7830   20.5487 H   0  0  0  0  0  0
  -30.0387  -22.3470   20.4189 H   0  0  0  0  0  0
  1 25  1  0  0  0
  1 30  2  0  0  0
  1 83  1  0  0  0
  2  3  1  0  0  0
  2 25  1  0  0  0
  2 85  1  0  0  0
  2 86  1  0  0  0
  3  4  1  0  0  0
  3 87  1  0  0  0
  3 88  1  0  0  0
  4  5  1  0  0  0
  4 89  1  0  0  0
  4 90  1  0  0  0
  5  6  1  0  0  0
  5 26  1  0  0  0
  5 91  1  0  0  0
  6 25  1  0  0  0
  6 92  1  0  0  0
  6 93  1  0  0  0
  7  8  2  0  0  0
  7 26  1  0  0  0
  7 29  1  0  0  0
  8  9  1  0  0  0
  8 22  1  0  0  0
  9 10  1  0  0  0
  9 27  2  0  0  0
 10 11  2  0  0  0
 10 15  1  0  0  0
 11 12  1  0  0  0
 11 94  1  0  0  0
 12 13  2  0  0  0
 12 95  1  0  0  0
 13 14  1  0  0  0
 13 31  1  0  0  0
 14 15  2  0  0  0
 14 96  1  0  0  0
 15 97  1  0  0  0
 16 17  2  0  0  0
 16 21  1  0  0  0
 16 31  1  0  0  0
 17 18  1  0  0  0
 17 98  1  0  0  0
 18 19  2  0  0  0
 18 99  1  0  0  0
 19 20  1  0  0  0
 19 24  1  0  0  0
 20 21  2  0  0  0
 20100  1  0  0  0
 21 23  1  0  0  0
 22 28  1  0  0  0
 22 32  2  0  0  0
 26 27  1  0  0  0
 28101  1  0  0  0
 28102  1  0  0  0
 29103  1  0  0  0
 29104  1  0  0  0
 33 34  1  0  0  0
 33 66  1  0  0  0
 33 70  2  0  0  0
 34 36  1  0  0  0
 34 59  1  0  0  0
 34105  1  0  0  0
 35 44  2  0  0  0
 35 45  1  0  0  0
 35 68  1  0  0  0
 36 56  1  0  0  0
 36106  1  0  0  0
 37 39  1  0  0  0
 37 47  1  0  0  0
 37 66  1  0  0  0
 37107  1  0  0  0
 38 43  2  0  0  0
 38 46  1  0  0  0
 38 47  1  0  0  0
 39 64  1  0  0  0
 39 67  2  0  0  0
 40 52  1  0  0  0
 40 53  2  0  0  0
 40 58  1  0  0  0
 41108  1  0  0  0
 41109  1  0  0  0
 41110  1  0  0  0
 41 48  1  0  0  0
 42 43  1  0  0  0
 42 66  1  0  0  0
 42111  1  0  0  0
 42112  1  0  0  0
 43 44  1  0  0  0
 44113  1  0  0  0
 45 46  2  0  0  0
 45114  1  0  0  0
 46115  1  0  0  0
 47116  1  0  0  0
 47117  1  0  0  0
 48 56  1  0  0  0
 48 65  1  0  0  0
 48118  1  0  0  0
 49 50  1  0  0  0
 49 53  1  0  0  0
 49 64  1  0  0  0
 49119  1  0  0  0
 50 51  1  0  0  0
 50120  1  0  0  0
 50121  1  0  0  0
 51 52  1  0  0  0
 51122  1  0  0  0
 51123  1  0  0  0
 52124  1  0  0  0
 52125  1  0  0  0
 53 54  1  0  0  0
 54 55  2  0  0  0
 54126  1  0  0  0
 55 57  1  0  0  0
 55127  1  0  0  0
 56 69  2  0  0  0
 57 58  2  0  0  0
 57128  1  0  0  0
 58129  1  0  0  0
 59 60  1  0  0  0
 59 61  1  0  0  0
 59 62  1  0  0  0
 60130  1  0  0  0
 60131  1  0  0  0
 60132  1  0  0  0
 61133  1  0  0  0
 61134  1  0  0  0
 61135  1  0  0  0
 62136  1  0  0  0
 62137  1  0  0  0
 62138  1  0  0  0
 63 65  1  0  0  0
 63139  1  0  0  0
 63140  1  0  0  0
 63141  1  0  0  0
 64142  1  0  0  0
 65143  1  0  0  0
 68 77  1  0  0  0
 71 78  1  0  0  0
 71 80  2  0  0  0
 71 81  1  0  0  0
 72 79  1  0  0  0
 72 80  1  0  0  0
 72 82  2  0  0  0
 73 81  2  0  0  0
 73 82  1  0  0  0
 73 83  1  0  0  0
 74 75  1  0  0  0
 74 77  1  0  0  0
 74144  1  0  0  0
 74145  1  0  0  0
 75 84  1  0  0  0
 75146  1  0  0  0
 75147  1  0  0  0
 76 77  1  0  0  0
 76 84  1  0  0  0
 76148  1  0  0  0
 76149  1  0  0  0
 77150  1  0  0  0
 78151  1  0  0  0
 78152  1  0  0  0
 78153  1  0  0  0
 79154  1  0  0  0
 79155  1  0  0  0
 79 84  1  0  0  0
 83156  1  0  0  0
 84157  1  0  0  0
M  CHG  1  84   1
M  ISO  4   1 100  68 101  77 101  83 100
M  END
> <chiral flag>
0

> <version>
0

> <s_m_source_file>
/data/baiqing/PycharmProjects/Reinvent-master-3.2/result/LINK_invent/BTK/process_docking_weight1_custom_sum_contain_oxygen_bond_distance_aromatic_linkinvent_7_9_3/rearranged_h_0185.sdf

> <i_m_source_file_index>
37

> <r_mmod_Potential_Energy-OPLS-2005>
-549.027770996094

> <r_mmod_Stretch_Energy-OPLS-2005>
144.608093261719

> <r_mmod_Bend_Energy-OPLS-2005>
212.295974731445

> <r_mmod_Torsional_Energy-OPLS-2005>
277.904541015625

> <r_mmod_Improper_Torsional_Energy-OPLS-2005>
6.38726568222046

> <r_mmod_Van_der_Waal_Energy-OPLS-2005>
148.050903320312

> <r_mmod_Electrostatic_Energy-OPLS-2005>
-989.264770507812

> <r_mmod_Solvation_Energy-OPLS-2005>
-462.329223632812

> <b_mmod_Minimization_Converged-OPLS-2005>
0

> <r_mmod_RMS_Derivative-OPLS-2005>
0.379501104354858

$$$$
37
                    3D
 Structure written by MMmdl.
159167  0  0  1  0            999 V2000
  -30.6353  -14.8430   20.4456 C   0  0  0  0  0  0
  -30.4160  -12.5292   19.4840 C   0  0  0  0  0  0
  -29.5011  -12.5012   18.2416 C   0  0  0  0  0  0
  -28.0365  -12.2970   18.6676 C   0  0  0  0  0  0
  -27.6197  -13.2286   19.8343 C   0  0  2  0  0  0
  -28.6668  -13.2673   20.9685 C   0  0  0  0  0  0
  -25.2445  -13.8172   20.5762 C   0  0  0  0  0  0
  -24.1751  -13.0423   20.9257 C   0  0  0  0  0  0
  -24.6341  -11.6901   20.8782 C   0  0  0  0  0  0
  -23.9028  -10.4289   21.0418 C   0  0  0  0  0  0
  -24.3593   -9.4204   21.9191 C   0  0  0  0  0  0
  -23.6289   -8.2236   22.0748 C   0  0  0  0  0  0
  -22.4269   -8.0275   21.3539 C   0  0  0  0  0  0
  -21.9894   -9.0247   20.4637 C   0  0  0  0  0  0
  -22.7210  -10.2130   20.3055 C   0  0  0  0  0  0
  -21.6853   -6.0723   22.5281 C   0  0  0  0  0  0
  -21.4028   -6.5630   23.8218 C   0  0  0  0  0  0
  -21.3668   -5.6776   24.9178 C   0  0  0  0  0  0
  -21.6047   -4.3045   24.7220 C   0  0  0  0  0  0
  -21.8819   -3.8136   23.4340 C   0  0  0  0  0  0
  -21.9196   -4.6959   22.3398 C   0  0  0  0  0  0
  -22.7771  -13.5218   21.1893 C   0  0  0  0  0  0
  -22.1648   -4.2146   21.0971 F   0  0  0  0  0  0
  -21.5630   -3.4519   25.7726 F   0  0  0  0  0  0
  -29.9483  -13.6401   20.3583 N   0  0  0  0  0  0
  -26.2826  -12.9360   20.3263 N   0  0  0  0  0  0
  -25.9260  -11.6512   20.5781 N   0  0  0  0  0  0
  -22.0390  -12.8225   22.0436 N   0  0  0  0  0  0
  -25.4121  -15.1918   20.4235 N   0  0  0  0  0  0
  -31.8440  -14.8168   20.1945 O   0  0  0  0  0  0
  -21.6638   -6.8873   21.4246 O   0  0  0  0  0  0
  -22.3461  -14.5507   20.6705 O   0  0  0  0  0  0
  -24.6378  -31.8499   23.1958 C   0  0  0  0  0  0
  -25.9194  -32.4716   23.8308 C   0  0  1  0  0  0
  -27.2191  -27.2203   20.1374 C   0  0  0  0  0  0
  -25.5989  -33.8517   24.2249 N   0  0  0  0  0  0
  -23.4346  -30.4728   21.5390 C   0  0  2  0  0  0
  -24.8846  -28.9105   20.1125 C   0  0  0  0  0  0
  -22.7523  -29.4574   22.4894 C   0  0  0  0  0  0
  -18.0300  -28.1370   22.8503 C   0  0  0  0  0  0
  -24.1487  -36.7244   23.2633 C   0  0  0  0  0  0
  -25.9844  -30.7490   21.3817 C   0  0  0  0  0  0
  -26.0575  -29.3669   20.7273 C   0  0  0  0  0  0
  -27.2300  -28.5356   20.7252 C   0  0  0  0  0  0
  -26.0273  -26.8462   19.4805 C   0  0  0  0  0  0
  -24.8767  -27.6596   19.4766 C   0  0  0  0  0  0
  -23.6581  -29.8040   20.1555 C   0  0  0  0  0  0
  -25.4117  -36.3043   24.0329 C   0  0  1  0  0  0
  -20.5907  -28.3688   23.1253 C   0  0  2  0  0  0
  -20.6775  -26.9396   22.5404 C   0  0  0  0  0  0
  -19.5753  -26.6377   21.5204 C   0  0  0  0  0  0
  -18.1940  -26.7915   22.1623 C   0  0  0  0  0  0
  -19.1555  -28.8850   23.2876 C   0  0  0  0  0  0
  -18.9471  -30.1451   23.8894 C   0  0  0  0  0  0
  -17.6468  -30.6576   24.0554 C   0  0  0  0  0  0
  -25.9066  -34.9413   23.5082 C   0  0  0  0  0  0
  -16.5362  -29.9069   23.6325 C   0  0  0  0  0  0
  -16.7284  -28.6480   23.0363 C   0  0  0  0  0  0
  -26.4557  -31.6535   25.0701 C   0  0  0  0  0  0
  -25.3782  -31.3665   26.1412 C   0  0  0  0  0  0
  -27.0387  -30.2942   24.6193 C   0  0  0  0  0  0
  -27.6099  -32.4265   25.7498 C   0  0  0  0  0  0
  -27.5579  -37.1778   24.8481 C   0  0  0  0  0  0
  -21.4227  -29.3035   22.3638 N   0  0  0  0  0  0
  -26.4285  -37.3759   23.9430 N   0  0  0  0  0  0
  -24.7043  -31.0438   22.0947 N   0  0  0  0  0  0
  -23.4209  -28.8113   23.3005 O   0  0  0  0  0  0
  -28.2963  -26.2901   20.1542 O   0  0  0  0  0  0
  -26.5604  -34.8907   22.4630 O   0  0  0  0  0  0
  -23.5512  -32.1330   23.7234 O   0  0  0  0  0  0
  -30.7661  -17.1777   21.4662 C   0  0  0  0  0  0
  -28.7461  -16.6798   20.2407 C   0  0  0  0  0  0
  -30.7533  -18.6583   20.8810 C   0  0  0  0  0  0
  -28.6665  -18.2328   19.8052 C   0  0  0  0  0  0
  -28.2122  -24.9002   22.1238 C   0  0  0  0  0  0
  -28.7089  -22.0226   20.6437 C   0  0  0  0  0  0
  -28.8782  -23.5489   20.0263 C   0  0  0  0  0  0
  -29.4648  -20.7178   19.9887 C   0  0  0  0  0  0
  -28.0502  -24.8519   20.6003 C   0  0  1  0  0  0
  -30.0313  -16.0914   20.7426 N   0  0  0  0  0  0
  -29.4092  -19.2732   20.6073 N   0  3  0  0  0  0
  -31.4553  -12.6464   19.1740 H   0  0  0  0  0  0
  -30.3761  -11.5797   20.0187 H   0  0  0  0  0  0
  -29.8068  -11.7049   17.5625 H   0  0  0  0  0  0
  -29.6036  -13.4364   17.6889 H   0  0  0  0  0  0
  -27.9288  -11.2564   18.9750 H   0  0  0  0  0  0
  -27.3703  -12.4359   17.8159 H   0  0  0  0  0  0
  -27.5638  -14.2139   19.3877 H   0  0  0  0  0  0
  -28.7369  -12.2989   21.4660 H   0  0  0  0  0  0
  -28.3814  -13.9881   21.7352 H   0  0  0  0  0  0
  -25.2732   -9.5701   22.4765 H   0  0  0  0  0  0
  -24.0007   -7.4629   22.7463 H   0  0  0  0  0  0
  -21.0820   -8.8770   19.8941 H   0  0  0  0  0  0
  -22.3672  -10.9673   19.6170 H   0  0  0  0  0  0
  -21.2017   -7.6138   23.9727 H   0  0  0  0  0  0
  -21.1487   -6.0493   25.9080 H   0  0  0  0  0  0
  -22.0587   -2.7596   23.2827 H   0  0  0  0  0  0
  -22.3983  -11.9914   22.4893 H   0  0  0  0  0  0
  -21.1008  -13.1272   22.2620 H   0  0  0  0  0  0
  -24.6470  -15.8431   20.5612 H   0  0  0  0  0  0
  -26.2571  -15.6376   20.0960 H   0  0  0  0  0  0
  -26.7245  -32.5363   23.1023 H   0  0  0  0  0  0
  -25.0263  -33.9649   25.0479 H   0  0  0  0  0  0
  -22.7340  -31.2960   21.3885 H   0  0  0  0  0  0
  -23.3772  -35.9555   23.3290 H   0  0  0  0  0  0
  -24.3575  -36.8860   22.2048 H   0  0  0  0  0  0
  -23.7209  -37.6433   23.6643 H   0  0  0  0  0  0
  -26.1255  -31.5030   20.6071 H   0  0  0  0  0  0
  -26.8585  -30.8002   22.0181 H   0  0  0  0  0  0
  -28.1287  -28.8837   21.2144 H   0  0  0  0  0  0
  -25.9744  -25.8989   18.9624 H   0  0  0  0  0  0
  -23.9836  -27.3110   18.9768 H   0  0  0  0  0  0
  -23.7893  -30.5787   19.3995 H   0  0  0  0  0  0
  -22.7757  -29.2429   19.8438 H   0  0  0  0  0  0
  -25.1295  -36.1871   25.0820 H   0  0  0  0  0  0
  -21.0005  -28.3252   24.1367 H   0  0  0  0  0  0
  -20.5653  -26.2292   23.3611 H   0  0  0  0  0  0
  -21.6644  -26.7395   22.1210 H   0  0  0  0  0  0
  -19.6903  -25.6289   21.1227 H   0  0  0  0  0  0
  -19.6680  -27.3192   20.6739 H   0  0  0  0  0  0
  -17.4206  -26.6688   21.4023 H   0  0  0  0  0  0
  -18.0336  -26.0033   22.8993 H   0  0  0  0  0  0
  -19.7945  -30.7274   24.2262 H   0  0  0  0  0  0
  -17.5013  -31.6256   24.5152 H   0  0  0  0  0  0
  -15.5355  -30.2963   23.7648 H   0  0  0  0  0  0
  -15.8689  -28.0785   22.7083 H   0  0  0  0  0  0
  -24.6020  -30.6944   25.7748 H   0  0  0  0  0  0
  -24.8924  -32.2808   26.4816 H   0  0  0  0  0  0
  -25.8136  -30.8889   27.0197 H   0  0  0  0  0  0
  -26.2939  -29.6674   24.1280 H   0  0  0  0  0  0
  -27.4113  -29.7234   25.4706 H   0  0  0  0  0  0
  -27.8815  -30.4197   23.9394 H   0  0  0  0  0  0
  -27.2714  -33.3583   26.2041 H   0  0  0  0  0  0
  -28.3951  -32.6772   25.0352 H   0  0  0  0  0  0
  -28.0705  -31.8390   26.5452 H   0  0  0  0  0  0
  -28.2602  -38.0076   24.7538 H   0  0  0  0  0  0
  -28.1070  -36.2605   24.6296 H   0  0  0  0  0  0
  -27.2291  -37.1411   25.8883 H   0  0  0  0  0  0
  -20.9421  -29.8772   21.6850 H   0  0  0  0  0  0
  -26.0156  -38.2827   24.1449 H   0  0  0  0  0  0
  -30.3554  -17.2044   22.4770 H   0  0  0  0  0  0
  -31.8102  -16.8923   21.6008 H   0  0  0  0  0  0
  -27.9980  -16.4981   21.0125 H   0  0  0  0  0  0
  -28.4300  -16.1160   19.3670 H   0  0  0  0  0  0
  -31.3311  -18.6724   19.9554 H   0  0  0  0  0  0
  -31.2874  -19.3103   21.5731 H   0  0  0  0  0  0
  -27.6195  -18.5346   19.7472 H   0  0  0  0  0  0
  -29.0371  -18.2966   18.7815 H   0  0  0  0  0  0
  -29.2609  -25.0138   22.3998 H   0  0  0  0  0  0
  -27.8410  -23.9876   22.5857 H   0  0  0  0  0  0
  -27.6614  -25.7282   22.5689 H   0  0  0  0  0  0
  -27.6428  -21.7964   20.6714 H   0  0  0  0  0  0
  -29.0162  -22.0711   21.6884 H   0  0  0  0  0  0
  -28.6684  -23.4875   18.9573 H   0  0  0  0  0  0
  -29.9382  -23.7966   20.0851 H   0  0  0  0  0  0
  -30.5183  -20.9910   19.9128 H   0  0  0  0  0  0
  -29.1424  -20.6377   18.9499 H   0  0  0  0  0  0
  -27.0023  -24.6177   20.4197 H   0  0  0  0  0  0
  -28.9456  -19.3567   21.5004 H   0  0  0  0  0  0
  1 25  1  0  0  0
  1 30  2  0  0  0
  1 80  1  0  0  0
  2  3  1  0  0  0
  2 25  1  0  0  0
  2 82  1  0  0  0
  2 83  1  0  0  0
  3  4  1  0  0  0
  3 84  1  0  0  0
  3 85  1  0  0  0
  4  5  1  0  0  0
  4 86  1  0  0  0
  4 87  1  0  0  0
  5  6  1  0  0  0
  5 26  1  0  0  0
  5 88  1  0  0  0
  6 25  1  0  0  0
  6 89  1  0  0  0
  6 90  1  0  0  0
  7  8  2  0  0  0
  7 26  1  0  0  0
  7 29  1  0  0  0
  8  9  1  0  0  0
  8 22  1  0  0  0
  9 10  1  0  0  0
  9 27  2  0  0  0
 10 11  2  0  0  0
 10 15  1  0  0  0
 11 12  1  0  0  0
 11 91  1  0  0  0
 12 13  2  0  0  0
 12 92  1  0  0  0
 13 14  1  0  0  0
 13 31  1  0  0  0
 14 15  2  0  0  0
 14 93  1  0  0  0
 15 94  1  0  0  0
 16 17  2  0  0  0
 16 21  1  0  0  0
 16 31  1  0  0  0
 17 18  1  0  0  0
 17 95  1  0  0  0
 18 19  2  0  0  0
 18 96  1  0  0  0
 19 20  1  0  0  0
 19 24  1  0  0  0
 20 21  2  0  0  0
 20 97  1  0  0  0
 21 23  1  0  0  0
 22 28  1  0  0  0
 22 32  2  0  0  0
 26 27  1  0  0  0
 28 98  1  0  0  0
 28 99  1  0  0  0
 29100  1  0  0  0
 29101  1  0  0  0
 33 34  1  0  0  0
 33 66  1  0  0  0
 33 70  2  0  0  0
 34 36  1  0  0  0
 34 59  1  0  0  0
 34102  1  0  0  0
 35 44  2  0  0  0
 35 45  1  0  0  0
 35 68  1  0  0  0
 36 56  1  0  0  0
 36103  1  0  0  0
 37 39  1  0  0  0
 37 47  1  0  0  0
 37 66  1  0  0  0
 37104  1  0  0  0
 38 43  2  0  0  0
 38 46  1  0  0  0
 38 47  1  0  0  0
 39 64  1  0  0  0
 39 67  2  0  0  0
 40 52  1  0  0  0
 40 53  2  0  0  0
 40 58  1  0  0  0
 41105  1  0  0  0
 41106  1  0  0  0
 41107  1  0  0  0
 41 48  1  0  0  0
 42 43  1  0  0  0
 42 66  1  0  0  0
 42108  1  0  0  0
 42109  1  0  0  0
 43 44  1  0  0  0
 44110  1  0  0  0
 45 46  2  0  0  0
 45111  1  0  0  0
 46112  1  0  0  0
 47113  1  0  0  0
 47114  1  0  0  0
 48 56  1  0  0  0
 48 65  1  0  0  0
 48115  1  0  0  0
 49 50  1  0  0  0
 49 53  1  0  0  0
 49 64  1  0  0  0
 49116  1  0  0  0
 50 51  1  0  0  0
 50117  1  0  0  0
 50118  1  0  0  0
 51 52  1  0  0  0
 51119  1  0  0  0
 51120  1  0  0  0
 52121  1  0  0  0
 52122  1  0  0  0
 53 54  1  0  0  0
 54 55  2  0  0  0
 54123  1  0  0  0
 55 57  1  0  0  0
 55124  1  0  0  0
 56 69  2  0  0  0
 57 58  2  0  0  0
 57125  1  0  0  0
 58126  1  0  0  0
 59 60  1  0  0  0
 59 61  1  0  0  0
 59 62  1  0  0  0
 60127  1  0  0  0
 60128  1  0  0  0
 60129  1  0  0  0
 61130  1  0  0  0
 61131  1  0  0  0
 61132  1  0  0  0
 62133  1  0  0  0
 62134  1  0  0  0
 62135  1  0  0  0
 63 65  1  0  0  0
 63136  1  0  0  0
 63137  1  0  0  0
 63138  1  0  0  0
 64139  1  0  0  0
 65140  1  0  0  0
 68 79  1  0  0  0
 71 73  1  0  0  0
 71 80  1  0  0  0
 71141  1  0  0  0
 71142  1  0  0  0
 72 74  1  0  0  0
 72 80  1  0  0  0
 72143  1  0  0  0
 72144  1  0  0  0
 73 81  1  0  0  0
 73145  1  0  0  0
 73146  1  0  0  0
 74 81  1  0  0  0
 74147  1  0  0  0
 74148  1  0  0  0
 75149  1  0  0  0
 75150  1  0  0  0
 75151  1  0  0  0
 75 79  1  0  0  0
 76 77  1  0  0  0
 76 78  1  0  0  0
 76152  1  0  0  0
 76153  1  0  0  0
 77 79  1  0  0  0
 77154  1  0  0  0
 77155  1  0  0  0
 78156  1  0  0  0
 78157  1  0  0  0
 78 81  1  0  0  0
 79158  1  0  0  0
 81159  1  0  0  0
M  CHG  1  81   1
M  ISO  4   1 100  68 101  79 101  80 100
M  END
> <chiral flag>
0

> <version>
0

> <s_m_source_file>
/data/baiqing/PycharmProjects/Reinvent-master-3.2/result/LINK_invent/BTK/process_docking_weight1_custom_sum_contain_oxygen_bond_distance_aromatic_linkinvent_7_9_3/rearranged_h_0185.sdf

> <i_m_source_file_index>
38

> <r_mmod_Potential_Energy-OPLS-2005>
393.375

> <r_mmod_Stretch_Energy-OPLS-2005>
169.022415161133

> <r_mmod_Bend_Energy-OPLS-2005>
230.200317382812

> <r_mmod_Torsional_Energy-OPLS-2005>
393.389038085938

> <r_mmod_Improper_Torsional_Energy-OPLS-2005>
1.80491983890533

> <r_mmod_Van_der_Waal_Energy-OPLS-2005>
121.905502319336

> <r_mmod_Electrostatic_Energy-OPLS-2005>
-202.383895874023

> <r_mmod_Solvation_Energy-OPLS-2005>
-448.131561279297

> <b_mmod_Minimization_Converged-OPLS-2005>
0

> <r_mmod_RMS_Derivative-OPLS-2005>
2.51623725891113

$$$$
38
                    3D
 Structure written by MMmdl.
160170  0  0  1  0            999 V2000
  -30.5171  -15.0436   20.4212 C   0  0  0  0  0  0
  -30.4299  -12.6463   19.5241 C   0  0  0  0  0  0
  -29.5342  -12.5610   18.2677 C   0  0  0  0  0  0
  -28.0626  -12.3408   18.6671 C   0  0  0  0  0  0
  -27.6230  -13.2647   19.8368 C   0  0  2  0  0  0
  -28.6588  -13.3261   20.9789 C   0  0  0  0  0  0
  -25.2426  -13.8243   20.5694 C   0  0  0  0  0  0
  -24.1757  -13.0442   20.9204 C   0  0  0  0  0  0
  -24.6382  -11.6926   20.8682 C   0  0  0  0  0  0
  -23.9056  -10.4297   21.0337 C   0  0  0  0  0  0
  -24.3609   -9.4223   21.9139 C   0  0  0  0  0  0
  -23.6300   -8.2254   22.0733 C   0  0  0  0  0  0
  -22.4284   -8.0265   21.3535 C   0  0  0  0  0  0
  -21.9889   -9.0220   20.4634 C   0  0  0  0  0  0
  -22.7204  -10.2109   20.3023 C   0  0  0  0  0  0
  -21.6875   -6.0682   22.5249 C   0  0  0  0  0  0
  -21.4014   -6.5597   23.8179 C   0  0  0  0  0  0
  -21.3692   -5.6767   24.9162 C   0  0  0  0  0  0
  -21.6074   -4.3032   24.7226 C   0  0  0  0  0  0
  -21.8831   -3.8096   23.4345 C   0  0  0  0  0  0
  -21.9200   -4.6905   22.3395 C   0  0  0  0  0  0
  -22.7782  -13.5210   21.1878 C   0  0  0  0  0  0
  -22.1661   -4.2075   21.0969 F   0  0  0  0  0  0
  -21.5659   -3.4536   25.7748 F   0  0  0  0  0  0
  -29.9208  -13.7700   20.3752 N   0  0  0  0  0  0
  -26.2853  -12.9485   20.3201 N   0  0  0  0  0  0
  -25.9322  -11.6600   20.5664 N   0  0  0  0  0  0
  -22.0425  -12.8202   22.0442 N   0  0  0  0  0  0
  -25.4133  -15.1979   20.4127 N   0  0  0  0  0  0
  -31.7126  -15.0668   20.0938 O   0  0  0  0  0  0
  -21.6688   -6.8839   21.4214 O   0  0  0  0  0  0
  -22.3437  -14.5496   20.6709 O   0  0  0  0  0  0
  -24.6519  -31.8361   23.1826 C   0  0  0  0  0  0
  -25.9266  -32.4656   23.8225 C   0  0  1  0  0  0
  -27.2119  -27.0600   20.1699 C   0  0  0  0  0  0
  -25.6008  -33.8459   24.2160 N   0  0  0  0  0  0
  -23.4601  -30.4511   21.5267 C   0  0  2  0  0  0
  -24.9134  -28.8659   20.1113 C   0  0  0  0  0  0
  -22.7598  -29.4499   22.4802 C   0  0  0  0  0  0
  -18.0299  -28.1406   22.8460 C   0  0  0  0  0  0
  -24.1501  -36.7262   23.2636 C   0  0  0  0  0  0
  -26.0182  -30.6819   21.3940 C   0  0  0  0  0  0
  -26.0903  -29.2854   20.7418 C   0  0  0  0  0  0
  -27.2429  -28.4003   20.7529 C   0  0  0  0  0  0
  -26.0141  -26.7670   19.4839 C   0  0  0  0  0  0
  -24.8948  -27.6281   19.4573 C   0  0  0  0  0  0
  -23.6964  -29.7779   20.1486 C   0  0  0  0  0  0
  -25.4125  -36.3022   24.0317 C   0  0  1  0  0  0
  -20.5905  -28.3752   23.1217 C   0  0  2  0  0  0
  -20.6787  -26.9442   22.5400 C   0  0  0  0  0  0
  -19.5781  -26.6383   21.5203 C   0  0  0  0  0  0
  -18.1953  -26.7942   22.1597 C   0  0  0  0  0  0
  -19.1548  -28.8891   23.2836 C   0  0  0  0  0  0
  -18.9471  -30.1472   23.8903 C   0  0  0  0  0  0
  -17.6469  -30.6611   24.0549 C   0  0  0  0  0  0
  -25.9081  -34.9396   23.5058 C   0  0  0  0  0  0
  -16.5361  -29.9102   23.6334 C   0  0  0  0  0  0
  -16.7276  -28.6502   23.0382 C   0  0  0  0  0  0
  -26.4557  -31.6542   25.0691 C   0  0  0  0  0  0
  -25.3725  -31.3744   26.1377 C   0  0  0  0  0  0
  -27.0407  -30.2927   24.6300 C   0  0  0  0  0  0
  -27.6095  -32.4307   25.7491 C   0  0  0  0  0  0
  -27.5596  -37.1770   24.8435 C   0  0  0  0  0  0
  -21.4260  -29.3079   22.3575 N   0  0  0  0  0  0
  -26.4280  -37.3750   23.9426 N   0  0  0  0  0  0
  -24.7297  -31.0136   22.0905 N   0  0  0  0  0  0
  -23.4200  -28.8021   23.2978 O   0  0  0  0  0  0
  -28.2374  -26.0238   20.2064 O   0  0  0  0  0  0
  -26.5631  -34.8918   22.4612 O   0  0  0  0  0  0
  -23.5629  -32.1267   23.7035 O   0  0  0  0  0  0
  -30.9383  -22.4029   19.0349 C   0  0  0  0  0  0
  -30.0715  -23.4398   19.4135 C   0  0  0  0  0  0
  -30.6753  -21.0312   19.2923 C   0  0  0  0  0  0
  -29.5081  -20.6496   20.0261 C   0  0  0  0  0  0
  -28.8893  -23.1601   20.0969 C   0  0  0  0  0  0
  -32.5089  -20.3034   17.4974 C   0  0  0  0  0  0
  -31.4219  -19.2650   17.4787 C   0  0  0  0  0  0
  -29.2683  -18.4526   21.7725 C   0  0  0  0  0  0
  -29.1846  -16.8587   21.7404 C   0  0  0  0  0  0
  -29.9560  -17.6378   19.7239 C   0  0  0  0  0  0
  -31.6844  -20.0482   18.7529 C   0  0  0  0  0  0
  -29.1971  -18.9984   20.3346 C   0  0  2  0  0  0
  -27.9088  -24.4814   20.4292 C   0  0  0  0  0  0
  -28.6478  -21.7592   20.3890 N   0  0  0  0  0  0
  -29.7718  -16.2899   20.4985 N   0  0  0  0  0  0
  -31.4685  -12.7949   19.2247 H   0  0  0  0  0  0
  -30.4096  -11.6976   20.0672 H   0  0  0  0  0  0
  -29.8692  -11.7523   17.6174 H   0  0  0  0  0  0
  -29.6343  -13.4808   17.6890 H   0  0  0  0  0  0
  -27.9550  -11.2968   18.9601 H   0  0  0  0  0  0
  -27.4148  -12.4821   17.8006 H   0  0  0  0  0  0
  -27.5757  -14.2670   19.4076 H   0  0  0  0  0  0
  -28.7670  -12.3539   21.4632 H   0  0  0  0  0  0
  -28.3411  -14.0270   21.7502 H   0  0  0  0  0  0
  -25.2727   -9.5740   22.4750 H   0  0  0  0  0  0
  -24.0006   -7.4660   22.7475 H   0  0  0  0  0  0
  -21.0807   -8.8707   19.8963 H   0  0  0  0  0  0
  -22.3593  -10.9635   19.6154 H   0  0  0  0  0  0
  -21.1975   -7.6101   23.9648 H   0  0  0  0  0  0
  -21.1538   -6.0515   25.9070 H   0  0  0  0  0  0
  -22.0588   -2.7550   23.2886 H   0  0  0  0  0  0
  -22.4022  -11.9886   22.4878 H   0  0  0  0  0  0
  -21.1016  -13.1187   22.2591 H   0  0  0  0  0  0
  -24.6505  -15.8586   20.5222 H   0  0  0  0  0  0
  -26.2715  -15.6287   20.0904 H   0  0  0  0  0  0
  -26.7301  -32.5220   23.0906 H   0  0  0  0  0  0
  -25.0155  -33.9495   25.0320 H   0  0  0  0  0  0
  -22.7699  -31.2795   21.3609 H   0  0  0  0  0  0
  -23.3815  -35.9538   23.3195 H   0  0  0  0  0  0
  -24.3606  -36.9002   22.2073 H   0  0  0  0  0  0
  -23.7191  -37.6409   23.6726 H   0  0  0  0  0  0
  -26.1708  -31.4252   20.6124 H   0  0  0  0  0  0
  -26.8938  -30.7378   22.0300 H   0  0  0  0  0  0
  -28.1357  -28.7158   21.2738 H   0  0  0  0  0  0
  -25.9106  -25.8283   18.9627 H   0  0  0  0  0  0
  -24.0060  -27.3126   18.9289 H   0  0  0  0  0  0
  -23.8525  -30.5477   19.3922 H   0  0  0  0  0  0
  -22.8136  -29.2191   19.8325 H   0  0  0  0  0  0
  -25.1306  -36.1829   25.0806 H   0  0  0  0  0  0
  -20.9965  -28.3356   24.1361 H   0  0  0  0  0  0
  -20.5674  -26.2357   23.3617 H   0  0  0  0  0  0
  -21.6653  -26.7454   22.1204 H   0  0  0  0  0  0
  -19.6949  -25.6283   21.1283 H   0  0  0  0  0  0
  -19.6775  -27.3161   20.6718 H   0  0  0  0  0  0
  -17.4231  -26.6700   21.4000 H   0  0  0  0  0  0
  -18.0357  -26.0065   22.8979 H   0  0  0  0  0  0
  -19.7940  -30.7251   24.2344 H   0  0  0  0  0  0
  -17.5030  -31.6306   24.5121 H   0  0  0  0  0  0
  -15.5367  -30.3021   23.7659 H   0  0  0  0  0  0
  -15.8653  -28.0805   22.7176 H   0  0  0  0  0  0
  -24.5921  -30.7076   25.7691 H   0  0  0  0  0  0
  -24.8911  -32.2929   26.4755 H   0  0  0  0  0  0
  -25.8001  -30.8946   27.0190 H   0  0  0  0  0  0
  -26.3010  -29.6637   24.1328 H   0  0  0  0  0  0
  -27.4007  -29.7242   25.4891 H   0  0  0  0  0  0
  -27.8937  -30.4152   23.9616 H   0  0  0  0  0  0
  -27.2692  -33.3614   26.2043 H   0  0  0  0  0  0
  -28.3938  -32.6847   25.0343 H   0  0  0  0  0  0
  -28.0720  -31.8437   26.5432 H   0  0  0  0  0  0
  -28.2524  -38.0154   24.7601 H   0  0  0  0  0  0
  -28.1181  -36.2697   24.6107 H   0  0  0  0  0  0
  -27.2318  -37.1224   25.8828 H   0  0  0  0  0  0
  -20.9484  -29.8818   21.6752 H   0  0  0  0  0  0
  -26.0153  -38.2804   24.1519 H   0  0  0  0  0  0
  -31.8344  -22.6894   18.5055 H   0  0  0  0  0  0
  -30.3121  -24.4640   19.1554 H   0  0  0  0  0  0
  -32.3298  -21.1933   16.8969 H   0  0  0  0  0  0
  -33.5272  -19.9169   17.4594 H   0  0  0  0  0  0
  -31.7387  -18.2234   17.4503 H   0  0  0  0  0  0
  -30.5288  -19.4983   16.9015 H   0  0  0  0  0  0
  -30.2226  -18.7472   22.2098 H   0  0  0  0  0  0
  -28.4920  -18.8926   22.4002 H   0  0  0  0  0  0
  -28.1402  -16.5459   21.7786 H   0  0  0  0  0  0
  -29.6671  -16.4441   22.6250 H   0  0  0  0  0  0
  -31.0316  -17.7726   19.7221 H   0  0  0  0  0  0
  -29.6486  -17.4887   18.6882 H   0  0  0  0  0  0
  -32.2477  -19.5941   19.5644 H   0  0  0  0  0  0
  -28.1530  -18.8918   20.0354 H   0  0  0  0  0  0
  -27.6962  -24.3977   21.4952 H   0  0  0  0  0  0
  -26.9593  -24.2496   19.9523 H   0  0  0  0  0  0
  1 25  1  0  0  0
  1 30  2  0  0  0
  1 85  1  0  0  0
  2  3  1  0  0  0
  2 25  1  0  0  0
  2 86  1  0  0  0
  2 87  1  0  0  0
  3  4  1  0  0  0
  3 88  1  0  0  0
  3 89  1  0  0  0
  4  5  1  0  0  0
  4 90  1  0  0  0
  4 91  1  0  0  0
  5  6  1  0  0  0
  5 26  1  0  0  0
  5 92  1  0  0  0
  6 25  1  0  0  0
  6 93  1  0  0  0
  6 94  1  0  0  0
  7  8  2  0  0  0
  7 26  1  0  0  0
  7 29  1  0  0  0
  8  9  1  0  0  0
  8 22  1  0  0  0
  9 10  1  0  0  0
  9 27  2  0  0  0
 10 11  2  0  0  0
 10 15  1  0  0  0
 11 12  1  0  0  0
 11 95  1  0  0  0
 12 13  2  0  0  0
 12 96  1  0  0  0
 13 14  1  0  0  0
 13 31  1  0  0  0
 14 15  2  0  0  0
 14 97  1  0  0  0
 15 98  1  0  0  0
 16 17  2  0  0  0
 16 21  1  0  0  0
 16 31  1  0  0  0
 17 18  1  0  0  0
 17 99  1  0  0  0
 18 19  2  0  0  0
 18100  1  0  0  0
 19 20  1  0  0  0
 19 24  1  0  0  0
 20 21  2  0  0  0
 20101  1  0  0  0
 21 23  1  0  0  0
 22 28  1  0  0  0
 22 32  2  0  0  0
 26 27  1  0  0  0
 28102  1  0  0  0
 28103  1  0  0  0
 29104  1  0  0  0
 29105  1  0  0  0
 33 34  1  0  0  0
 33 66  1  0  0  0
 33 70  2  0  0  0
 34 36  1  0  0  0
 34 59  1  0  0  0
 34106  1  0  0  0
 35 44  2  0  0  0
 35 45  1  0  0  0
 35 68  1  0  0  0
 36 56  1  0  0  0
 36107  1  0  0  0
 37 39  1  0  0  0
 37 47  1  0  0  0
 37 66  1  0  0  0
 37108  1  0  0  0
 38 43  2  0  0  0
 38 46  1  0  0  0
 38 47  1  0  0  0
 39 64  1  0  0  0
 39 67  2  0  0  0
 40 52  1  0  0  0
 40 53  2  0  0  0
 40 58  1  0  0  0
 41109  1  0  0  0
 41110  1  0  0  0
 41111  1  0  0  0
 41 48  1  0  0  0
 42 43  1  0  0  0
 42 66  1  0  0  0
 42112  1  0  0  0
 42113  1  0  0  0
 43 44  1  0  0  0
 44114  1  0  0  0
 45 46  2  0  0  0
 45115  1  0  0  0
 46116  1  0  0  0
 47117  1  0  0  0
 47118  1  0  0  0
 48 56  1  0  0  0
 48 65  1  0  0  0
 48119  1  0  0  0
 49 50  1  0  0  0
 49 53  1  0  0  0
 49 64  1  0  0  0
 49120  1  0  0  0
 50 51  1  0  0  0
 50121  1  0  0  0
 50122  1  0  0  0
 51 52  1  0  0  0
 51123  1  0  0  0
 51124  1  0  0  0
 52125  1  0  0  0
 52126  1  0  0  0
 53 54  1  0  0  0
 54 55  2  0  0  0
 54127  1  0  0  0
 55 57  1  0  0  0
 55128  1  0  0  0
 56 69  2  0  0  0
 57 58  2  0  0  0
 57129  1  0  0  0
 58130  1  0  0  0
 59 60  1  0  0  0
 59 61  1  0  0  0
 59 62  1  0  0  0
 60131  1  0  0  0
 60132  1  0  0  0
 60133  1  0  0  0
 61134  1  0  0  0
 61135  1  0  0  0
 61136  1  0  0  0
 62137  1  0  0  0
 62138  1  0  0  0
 62139  1  0  0  0
 63 65  1  0  0  0
 63140  1  0  0  0
 63141  1  0  0  0
 63142  1  0  0  0
 64143  1  0  0  0
 65144  1  0  0  0
 68 83  1  0  0  0
 71 72  2  0  0  0
 71 73  1  0  0  0
 71145  1  0  0  0
 72 75  1  0  0  0
 72146  1  0  0  0
 73 74  2  0  0  0
 73 81  1  0  0  0
 74 84  1  0  0  0
 74 82  1  0  0  0
 75 83  1  0  0  0
 75 84  2  0  0  0
 76 77  1  0  0  0
 76 81  1  0  0  0
 76147  1  0  0  0
 76148  1  0  0  0
 77 81  1  0  0  0
 77149  1  0  0  0
 77150  1  0  0  0
 78 79  1  0  0  0
 78 82  1  0  0  0
 78151  1  0  0  0
 78152  1  0  0  0
 79 85  1  0  0  0
 79153  1  0  0  0
 79154  1  0  0  0
 80 82  1  0  0  0
 80 85  1  0  0  0
 80155  1  0  0  0
 80156  1  0  0  0
 81157  1  0  0  0
 82158  1  0  0  0
 83159  1  0  0  0
 83160  1  0  0  0
M  ISO  4   1 100  68 101  83 101  85 100
M  END
> <chiral flag>
0

> <version>
0

> <s_m_source_file>
/data/baiqing/PycharmProjects/Reinvent-master-3.2/result/LINK_invent/BTK/process_docking_weight1_custom_sum_contain_oxygen_bond_distance_aromatic_linkinvent_7_9_3/rearranged_h_0185.sdf

> <i_m_source_file_index>
39

> <r_mmod_Potential_Energy-OPLS-2005>
831.968933105469

> <r_mmod_Stretch_Energy-OPLS-2005>
343.542266845703

> <r_mmod_Bend_Energy-OPLS-2005>
338.154693603516

> <r_mmod_Torsional_Energy-OPLS-2005>
354.611999511719

> <r_mmod_Improper_Torsional_Energy-OPLS-2005>
11.1180372238159

> <r_mmod_Van_der_Waal_Energy-OPLS-2005>
125.816871643066

> <r_mmod_Electrostatic_Energy-OPLS-2005>
-389.962371826172

> <r_mmod_Solvation_Energy-OPLS-2005>
-214.308135986328

> <b_mmod_Minimization_Converged-OPLS-2005>
0

> <r_mmod_RMS_Derivative-OPLS-2005>
4.22889709472656

$$$$
39
                    3D
 Structure written by MMmdl.
146155  0  0  1  0            999 V2000
  -30.4022  -15.3036   20.3260 C   0  0  0  0  0  0
  -30.4329  -12.8290   19.5029 C   0  0  0  0  0  0
  -29.5241  -12.5697   18.2727 C   0  0  0  0  0  0
  -28.0776  -12.2849   18.7185 C   0  0  0  0  0  0
  -27.6064  -13.2680   19.8164 C   0  0  2  0  0  0
  -28.6453  -13.4614   20.9426 C   0  0  0  0  0  0
  -25.2360  -13.8165   20.5699 C   0  0  0  0  0  0
  -24.1725  -13.0369   20.9281 C   0  0  0  0  0  0
  -24.6381  -11.6877   20.8801 C   0  0  0  0  0  0
  -23.9093  -10.4246   21.0457 C   0  0  0  0  0  0
  -24.3624   -9.4157   21.9232 C   0  0  0  0  0  0
  -23.6278   -8.2199   22.0795 C   0  0  0  0  0  0
  -22.4298   -8.0247   21.3541 C   0  0  0  0  0  0
  -21.9935   -9.0254   20.4661 C   0  0  0  0  0  0
  -22.7273  -10.2122   20.3068 C   0  0  0  0  0  0
  -21.6848   -6.0701   22.5271 C   0  0  0  0  0  0
  -21.4015   -6.5633   23.8199 C   0  0  0  0  0  0
  -21.3677   -5.6790   24.9175 C   0  0  0  0  0  0
  -21.6058   -4.3052   24.7248 C   0  0  0  0  0  0
  -21.8794   -3.8122   23.4343 C   0  0  0  0  0  0
  -21.9187   -4.6927   22.3399 C   0  0  0  0  0  0
  -22.7689  -13.5149   21.1904 C   0  0  0  0  0  0
  -22.1649   -4.2127   21.0973 F   0  0  0  0  0  0
  -21.5659   -3.4541   25.7763 F   0  0  0  0  0  0
  -29.8587  -13.9826   20.2911 N   0  0  0  0  0  0
  -26.2810  -12.9457   20.3218 N   0  0  0  0  0  0
  -25.9324  -11.6578   20.5733 N   0  0  0  0  0  0
  -22.0335  -12.8195   22.0485 N   0  0  0  0  0  0
  -25.3936  -15.1871   20.3966 N   0  0  0  0  0  0
  -31.6372  -15.2831   20.1799 O   0  0  0  0  0  0
  -21.6629   -6.8860   21.4223 O   0  0  0  0  0  0
  -22.3391  -14.5480   20.6755 O   0  0  0  0  0  0
  -24.6638  -31.8179   23.1684 C   0  0  0  0  0  0
  -25.9298  -32.4552   23.8159 C   0  0  1  0  0  0
  -27.2206  -26.8888   20.1728 C   0  0  0  0  0  0
  -25.5985  -33.8384   24.2057 N   0  0  0  0  0  0
  -23.4797  -30.4293   21.5150 C   0  0  2  0  0  0
  -24.9361  -28.8076   20.1111 C   0  0  0  0  0  0
  -22.7661  -29.4407   22.4753 C   0  0  0  0  0  0
  -18.0315  -28.1411   22.8455 C   0  0  0  0  0  0
  -24.1506  -36.7156   23.2649 C   0  0  0  0  0  0
  -26.0536  -30.6095   21.4101 C   0  0  0  0  0  0
  -26.1200  -29.1967   20.7505 C   0  0  0  0  0  0
  -27.2489  -28.2541   20.7623 C   0  0  0  0  0  0
  -26.0046  -26.6607   19.4870 C   0  0  0  0  0  0
  -24.9065  -27.5618   19.4623 C   0  0  0  0  0  0
  -23.7232  -29.7362   20.1449 C   0  0  0  0  0  0
  -25.4151  -36.2943   24.0301 C   0  0  1  0  0  0
  -20.5941  -28.3760   23.1179 C   0  0  2  0  0  0
  -20.6796  -26.9447   22.5390 C   0  0  0  0  0  0
  -19.5790  -26.6377   21.5189 C   0  0  0  0  0  0
  -18.1967  -26.7939   22.1597 C   0  0  0  0  0  0
  -19.1581  -28.8900   23.2801 C   0  0  0  0  0  0
  -18.9507  -30.1487   23.8846 C   0  0  0  0  0  0
  -17.6509  -30.6609   24.0546 C   0  0  0  0  0  0
  -25.9108  -34.9333   23.5000 C   0  0  0  0  0  0
  -16.5385  -29.9098   23.6355 C   0  0  0  0  0  0
  -16.7297  -28.6510   23.0372 C   0  0  0  0  0  0
  -26.4569  -31.6521   25.0685 C   0  0  0  0  0  0
  -25.3694  -31.3773   26.1328 C   0  0  0  0  0  0
  -27.0486  -30.2882   24.6488 C   0  0  0  0  0  0
  -27.6070  -32.4338   25.7488 C   0  0  0  0  0  0
  -27.5579  -37.1739   24.8481 C   0  0  0  0  0  0
  -21.4324  -29.3032   22.3508 N   0  0  0  0  0  0
  -26.4293  -37.3683   23.9421 N   0  0  0  0  0  0
  -24.7539  -30.9798   22.0842 N   0  0  0  0  0  0
  -23.4182  -28.7971   23.3001 O   0  0  0  0  0  0
  -28.2278  -25.7816   20.2761 O   0  0  0  0  0  0
  -26.5735  -34.8873   22.4601 O   0  0  0  0  0  0
  -23.5705  -32.1193   23.6753 O   0  0  0  0  0  0
  -28.8169  -19.3725   20.2219 C   0  0  0  0  0  0
  -31.3171  -20.0001   20.2264 C   0  0  0  0  0  0
  -29.1466  -20.8836   20.1980 C   0  0  0  0  0  0
  -29.8013  -18.1856   20.2610 C   0  0  0  0  0  0
  -28.2010  -23.4965   21.1849 C   0  0  0  0  0  0
  -28.2161  -22.4002   20.1903 C   0  0  1  0  0  0
  -28.2319  -24.1764   19.7932 C   0  0  1  0  0  0
  -30.4833  -21.0582   20.2036 N   0  0  0  0  0  0
  -31.0595  -18.6790   20.2580 N   0  0  0  0  0  0
  -29.6035  -16.5689   20.3158 N   0  0  0  0  0  0
  -31.4490  -13.0428   19.1705 H   0  0  0  0  0  0
  -30.5066  -11.9326   20.1219 H   0  0  0  0  0  0
  -29.9038  -11.7356   17.6810 H   0  0  0  0  0  0
  -29.5390  -13.4422   17.6136 H   0  0  0  0  0  0
  -28.0408  -11.2644   19.1090 H   0  0  0  0  0  0
  -27.4000  -12.3167   17.8641 H   0  0  0  0  0  0
  -27.5156  -14.2318   19.3151 H   0  0  0  0  0  0
  -28.8299  -12.5361   21.4889 H   0  0  0  0  0  0
  -28.2847  -14.1917   21.6669 H   0  0  0  0  0  0
  -25.2746   -9.5612   22.4875 H   0  0  0  0  0  0
  -23.9939   -7.4608   22.7575 H   0  0  0  0  0  0
  -21.0832   -8.8790   19.8990 H   0  0  0  0  0  0
  -22.3725  -10.9692   19.6201 H   0  0  0  0  0  0
  -21.1989   -7.6150   23.9695 H   0  0  0  0  0  0
  -21.1565   -6.0532   25.9077 H   0  0  0  0  0  0
  -22.0560   -2.7587   23.2867 H   0  0  0  0  0  0
  -22.3838  -11.9846   22.4910 H   0  0  0  0  0  0
  -21.1001  -13.1304   22.2729 H   0  0  0  0  0  0
  -24.5903  -15.8029   20.4152 H   0  0  0  0  0  0
  -26.2189  -15.6293   20.0204 H   0  0  0  0  0  0
  -26.7345  -32.5082   23.0858 H   0  0  0  0  0  0
  -25.0093  -33.9472   25.0193 H   0  0  0  0  0  0
  -22.7942  -31.2615   21.3362 H   0  0  0  0  0  0
  -23.3800  -35.9450   23.3269 H   0  0  0  0  0  0
  -24.3552  -36.8841   22.2061 H   0  0  0  0  0  0
  -23.7216  -37.6319   23.6725 H   0  0  0  0  0  0
  -26.2474  -31.3518   20.6349 H   0  0  0  0  0  0
  -26.9054  -30.6596   22.0763 H   0  0  0  0  0  0
  -28.1386  -28.5422   21.3063 H   0  0  0  0  0  0
  -25.8548  -25.7089   18.9980 H   0  0  0  0  0  0
  -24.0020  -27.2536   18.9540 H   0  0  0  0  0  0
  -23.8852  -30.4995   19.3853 H   0  0  0  0  0  0
  -22.8331  -29.1921   19.8217 H   0  0  0  0  0  0
  -25.1352  -36.1732   25.0793 H   0  0  0  0  0  0
  -21.0031  -28.3372   24.1307 H   0  0  0  0  0  0
  -20.5673  -26.2380   23.3630 H   0  0  0  0  0  0
  -21.6665  -26.7434   22.1205 H   0  0  0  0  0  0
  -19.6954  -25.6275   21.1265 H   0  0  0  0  0  0
  -19.6723  -27.3149   20.6694 H   0  0  0  0  0  0
  -17.4223  -26.6672   21.4004 H   0  0  0  0  0  0
  -18.0384  -26.0101   22.9029 H   0  0  0  0  0  0
  -19.7985  -30.7300   24.2206 H   0  0  0  0  0  0
  -17.5064  -31.6294   24.5154 H   0  0  0  0  0  0
  -15.5387  -30.2986   23.7708 H   0  0  0  0  0  0
  -15.8690  -28.0791   22.7151 H   0  0  0  0  0  0
  -24.5930  -30.7050   25.7640 H   0  0  0  0  0  0
  -24.8793  -32.2958   26.4577 H   0  0  0  0  0  0
  -25.7915  -30.9071   27.0223 H   0  0  0  0  0  0
  -26.3172  -29.6512   24.1489 H   0  0  0  0  0  0
  -27.3992  -29.7287   25.5178 H   0  0  0  0  0  0
  -27.9141  -30.4020   23.9949 H   0  0  0  0  0  0
  -27.2674  -33.3737   26.1872 H   0  0  0  0  0  0
  -28.4003  -32.6739   25.0382 H   0  0  0  0  0  0
  -28.0614  -31.8565   26.5562 H   0  0  0  0  0  0
  -28.2593  -38.0049   24.7532 H   0  0  0  0  0  0
  -28.1092  -36.2561   24.6327 H   0  0  0  0  0  0
  -27.2271  -37.1400   25.8885 H   0  0  0  0  0  0
  -20.9601  -29.8699   21.6620 H   0  0  0  0  0  0
  -26.0130  -38.2747   24.1433 H   0  0  0  0  0  0
  -27.7628  -19.1226   20.2024 H   0  0  0  0  0  0
  -32.3687  -20.2473   20.2133 H   0  0  0  0  0  0
  -27.2897  -23.5986   21.7703 H   0  0  0  0  0  0
  -29.1062  -23.6146   21.7746 H   0  0  0  0  0  0
  -27.2317  -22.0043   19.9464 H   0  0  0  0  0  0
  -27.4271  -24.2087   19.0675 H   0  0  0  0  0  0
  -28.6252  -16.3296   20.3192 H   0  0  0  0  0  0
  1 25  1  0  0  0
  1 30  2  0  0  0
  1 80  1  0  0  0
  2  3  1  0  0  0
  2 25  1  0  0  0
  2 81  1  0  0  0
  2 82  1  0  0  0
  3  4  1  0  0  0
  3 83  1  0  0  0
  3 84  1  0  0  0
  4  5  1  0  0  0
  4 85  1  0  0  0
  4 86  1  0  0  0
  5  6  1  0  0  0
  5 26  1  0  0  0
  5 87  1  0  0  0
  6 25  1  0  0  0
  6 88  1  0  0  0
  6 89  1  0  0  0
  7  8  2  0  0  0
  7 26  1  0  0  0
  7 29  1  0  0  0
  8  9  1  0  0  0
  8 22  1  0  0  0
  9 10  1  0  0  0
  9 27  2  0  0  0
 10 11  2  0  0  0
 10 15  1  0  0  0
 11 12  1  0  0  0
 11 90  1  0  0  0
 12 13  2  0  0  0
 12 91  1  0  0  0
 13 14  1  0  0  0
 13 31  1  0  0  0
 14 15  2  0  0  0
 14 92  1  0  0  0
 15 93  1  0  0  0
 16 17  2  0  0  0
 16 21  1  0  0  0
 16 31  1  0  0  0
 17 18  1  0  0  0
 17 94  1  0  0  0
 18 19  2  0  0  0
 18 95  1  0  0  0
 19 20  1  0  0  0
 19 24  1  0  0  0
 20 21  2  0  0  0
 20 96  1  0  0  0
 21 23  1  0  0  0
 22 28  1  0  0  0
 22 32  2  0  0  0
 26 27  1  0  0  0
 28 97  1  0  0  0
 28 98  1  0  0  0
 29 99  1  0  0  0
 29100  1  0  0  0
 33 34  1  0  0  0
 33 66  1  0  0  0
 33 70  2  0  0  0
 34 36  1  0  0  0
 34 59  1  0  0  0
 34101  1  0  0  0
 35 44  2  0  0  0
 35 45  1  0  0  0
 35 68  1  0  0  0
 36 56  1  0  0  0
 36102  1  0  0  0
 37 39  1  0  0  0
 37 47  1  0  0  0
 37 66  1  0  0  0
 37103  1  0  0  0
 38 43  2  0  0  0
 38 46  1  0  0  0
 38 47  1  0  0  0
 39 64  1  0  0  0
 39 67  2  0  0  0
 40 52  1  0  0  0
 40 53  2  0  0  0
 40 58  1  0  0  0
 41104  1  0  0  0
 41105  1  0  0  0
 41106  1  0  0  0
 41 48  1  0  0  0
 42 43  1  0  0  0
 42 66  1  0  0  0
 42107  1  0  0  0
 42108  1  0  0  0
 43 44  1  0  0  0
 44109  1  0  0  0
 45 46  2  0  0  0
 45110  1  0  0  0
 46111  1  0  0  0
 47112  1  0  0  0
 47113  1  0  0  0
 48 56  1  0  0  0
 48 65  1  0  0  0
 48114  1  0  0  0
 49 50  1  0  0  0
 49 53  1  0  0  0
 49 64  1  0  0  0
 49115  1  0  0  0
 50 51  1  0  0  0
 50116  1  0  0  0
 50117  1  0  0  0
 51 52  1  0  0  0
 51118  1  0  0  0
 51119  1  0  0  0
 52120  1  0  0  0
 52121  1  0  0  0
 53 54  1  0  0  0
 54 55  2  0  0  0
 54122  1  0  0  0
 55 57  1  0  0  0
 55123  1  0  0  0
 56 69  2  0  0  0
 57 58  2  0  0  0
 57124  1  0  0  0
 58125  1  0  0  0
 59 60  1  0  0  0
 59 61  1  0  0  0
 59 62  1  0  0  0
 60126  1  0  0  0
 60127  1  0  0  0
 60128  1  0  0  0
 61129  1  0  0  0
 61130  1  0  0  0
 61131  1  0  0  0
 62132  1  0  0  0
 62133  1  0  0  0
 62134  1  0  0  0
 63 65  1  0  0  0
 63135  1  0  0  0
 63136  1  0  0  0
 63137  1  0  0  0
 64138  1  0  0  0
 65139  1  0  0  0
 68 77  1  0  0  0
 71 73  2  0  0  0
 71 74  1  0  0  0
 71140  1  0  0  0
 72 78  2  0  0  0
 72 79  1  0  0  0
 72141  1  0  0  0
 73 78  1  0  0  0
 73 76  1  0  0  0
 74 79  2  0  0  0
 74 80  1  0  0  0
 75 76  1  0  0  0
 75 77  1  0  0  0
 75142  1  0  0  0
 75143  1  0  0  0
 76 77  1  0  0  0
 76144  1  0  0  0
 77145  1  0  0  0
 80146  1  0  0  0
M  ISO  4   1 100  68 101  77 101  80 100
M  END
> <chiral flag>
0

> <version>
0

> <s_m_source_file>
/data/baiqing/PycharmProjects/Reinvent-master-3.2/result/LINK_invent/BTK/process_docking_weight1_custom_sum_contain_oxygen_bond_distance_aromatic_linkinvent_7_9_3/rearranged_h_0185.sdf

> <i_m_source_file_index>
40

> <r_mmod_Potential_Energy-OPLS-2005>
1059.89416503906

> <r_mmod_Stretch_Energy-OPLS-2005>
638.500915527344

> <r_mmod_Bend_Energy-OPLS-2005>
535.079895019531

> <r_mmod_Torsional_Energy-OPLS-2005>
209.263961791992

> <r_mmod_Improper_Torsional_Energy-OPLS-2005>
5.04861927032471

> <r_mmod_Van_der_Waal_Energy-OPLS-2005>
135.345825195312

> <r_mmod_Electrostatic_Energy-OPLS-2005>
-706.547607421875

> <r_mmod_Solvation_Energy-OPLS-2005>
-262.328216552734

> <b_mmod_Minimization_Converged-OPLS-2005>
0

> <r_mmod_RMS_Derivative-OPLS-2005>
5.4442663192749

$$$$
40
                    3D
 Structure written by MMmdl.
157166  0  0  1  0            999 V2000
  -30.3411  -15.5529   20.3412 C   0  0  0  0  0  0
  -30.4262  -13.0180   19.5547 C   0  0  0  0  0  0
  -29.5510  -12.6469   18.3246 C   0  0  0  0  0  0
  -28.1178  -12.3050   18.7570 C   0  0  0  0  0  0
  -27.5992  -13.3046   19.8165 C   0  0  2  0  0  0
  -28.6137  -13.6056   20.9463 C   0  0  0  0  0  0
  -25.2330  -13.8287   20.5762 C   0  0  0  0  0  0
  -24.1714  -13.0429   20.9262 C   0  0  0  0  0  0
  -24.6410  -11.6943   20.8747 C   0  0  0  0  0  0
  -23.9118  -10.4286   21.0385 C   0  0  0  0  0  0
  -24.3659   -9.4201   21.9166 C   0  0  0  0  0  0
  -23.6319   -8.2242   22.0747 C   0  0  0  0  0  0
  -22.4297   -8.0283   21.3542 C   0  0  0  0  0  0
  -21.9940   -9.0256   20.4641 C   0  0  0  0  0  0
  -22.7283  -10.2126   20.3043 C   0  0  0  0  0  0
  -21.6862   -6.0735   22.5274 C   0  0  0  0  0  0
  -21.4019   -6.5634   23.8208 C   0  0  0  0  0  0
  -21.3665   -5.6786   24.9170 C   0  0  0  0  0  0
  -21.6052   -4.3048   24.7221 C   0  0  0  0  0  0
  -21.8821   -3.8141   23.4339 C   0  0  0  0  0  0
  -21.9196   -4.6960   22.3397 C   0  0  0  0  0  0
  -22.7731  -13.5163   21.1909 C   0  0  0  0  0  0
  -22.1661   -4.2147   21.0975 F   0  0  0  0  0  0
  -21.5637   -3.4534   25.7735 F   0  0  0  0  0  0
  -29.8100  -14.1976   20.3100 N   0  0  0  0  0  0
  -26.2772  -12.9608   20.3207 N   0  0  0  0  0  0
  -25.9356  -11.6683   20.5680 N   0  0  0  0  0  0
  -22.0401  -12.8137   22.0469 N   0  0  0  0  0  0
  -25.3949  -15.2025   20.4206 N   0  0  0  0  0  0
  -31.5626  -15.5021   20.1124 O   0  0  0  0  0  0
  -21.6652   -6.8884   21.4239 O   0  0  0  0  0  0
  -22.3396  -14.5452   20.6741 O   0  0  0  0  0  0
  -24.6779  -31.8059   23.1561 C   0  0  0  0  0  0
  -25.9382  -32.4500   23.8090 C   0  0  1  0  0  0
  -27.2284  -26.7572   20.2097 C   0  0  0  0  0  0
  -25.5991  -33.8323   24.1990 N   0  0  0  0  0  0
  -23.5013  -30.4085   21.5094 C   0  0  2  0  0  0
  -24.9590  -28.7605   20.1136 C   0  0  0  0  0  0
  -22.7734  -29.4341   22.4741 C   0  0  0  0  0  0
  -18.0328  -28.1419   22.8465 C   0  0  0  0  0  0
  -24.1494  -36.7162   23.2655 C   0  0  0  0  0  0
  -26.0783  -30.5554   21.4121 C   0  0  0  0  0  0
  -26.1440  -29.1258   20.7621 C   0  0  0  0  0  0
  -27.2623  -28.1492   20.7830 C   0  0  0  0  0  0
  -26.0142  -26.5880   19.4982 C   0  0  0  0  0  0
  -24.9300  -27.5164   19.4587 C   0  0  0  0  0  0
  -23.7512  -29.7085   20.1420 C   0  0  0  0  0  0
  -25.4140  -36.2916   24.0294 C   0  0  1  0  0  0
  -20.5962  -28.3774   23.1166 C   0  0  2  0  0  0
  -20.6800  -26.9442   22.5411 C   0  0  0  0  0  0
  -19.5774  -26.6375   21.5222 C   0  0  0  0  0  0
  -18.1957  -26.7947   22.1625 C   0  0  0  0  0  0
  -19.1595  -28.8919   23.2796 C   0  0  0  0  0  0
  -18.9502  -30.1502   23.8838 C   0  0  0  0  0  0
  -17.6492  -30.6606   24.0551 C   0  0  0  0  0  0
  -25.9116  -34.9304   23.4975 C   0  0  0  0  0  0
  -16.5383  -29.9091   23.6352 C   0  0  0  0  0  0
  -16.7308  -28.6510   23.0373 C   0  0  0  0  0  0
  -26.4579  -31.6509   25.0684 C   0  0  0  0  0  0
  -25.3670  -31.3798   26.1320 C   0  0  0  0  0  0
  -27.0502  -30.2865   24.6521 C   0  0  0  0  0  0
  -27.6059  -32.4344   25.7485 C   0  0  0  0  0  0
  -27.5558  -37.1744   24.8470 C   0  0  0  0  0  0
  -21.4389  -29.3029   22.3492 N   0  0  0  0  0  0
  -26.4270  -37.3670   23.9407 N   0  0  0  0  0  0
  -24.7757  -30.9548   22.0789 N   0  0  0  0  0  0
  -23.4205  -28.7939   23.3062 O   0  0  0  0  0  0
  -28.2043  -25.5717   20.3289 O   0  0  0  0  0  0
  -26.5750  -34.8868   22.4585 O   0  0  0  0  0  0
  -23.5814  -32.1112   23.6542 O   0  0  0  0  0  0
  -27.9693  -18.6593   18.4475 C   0  0  0  0  0  0
  -27.6860  -19.9198   19.2889 C   0  0  0  0  0  0
  -30.2224  -19.5226   17.8214 C   0  0  0  0  0  0
  -29.4936  -18.4158   18.5494 C   0  0  1  0  0  0
  -29.8278  -18.6087   20.0332 C   0  0  1  0  0  0
  -29.0617  -20.3864   19.7905 C   0  0  2  0  0  0
  -29.6677  -21.9120   17.7799 C   0  0  0  0  0  0
  -28.8614  -22.1639   20.5060 C   0  0  0  0  0  0
  -28.1075  -23.8684   20.0012 C   0  0  0  0  0  0
  -29.6000  -16.9088   20.4302 N   0  0  0  0  0  0
  -29.9678  -20.7292   18.6265 N   0  3  2  0  0  0
  -31.4307  -13.2568   19.2044 H   0  0  0  0  0  0
  -30.5543  -12.1569   20.2123 H   0  0  0  0  0  0
  -29.9905  -11.8122   17.7778 H   0  0  0  0  0  0
  -29.5305  -13.4915   17.6337 H   0  0  0  0  0  0
  -28.1280  -11.2986   19.1777 H   0  0  0  0  0  0
  -27.4524  -12.2720   17.8935 H   0  0  0  0  0  0
  -27.4731  -14.2360   19.2623 H   0  0  0  0  0  0
  -28.8466  -12.7136   21.5289 H   0  0  0  0  0  0
  -28.1906  -14.3303   21.6440 H   0  0  0  0  0  0
  -25.2804   -9.5668   22.4741 H   0  0  0  0  0  0
  -24.0023   -7.4632   22.7466 H   0  0  0  0  0  0
  -21.0870   -8.8781   19.8947 H   0  0  0  0  0  0
  -22.3742  -10.9665   19.6151 H   0  0  0  0  0  0
  -21.2010   -7.6142   23.9712 H   0  0  0  0  0  0
  -21.1489   -6.0513   25.9074 H   0  0  0  0  0  0
  -22.0599   -2.7604   23.2839 H   0  0  0  0  0  0
  -22.4048  -11.9825   22.4875 H   0  0  0  0  0  0
  -21.1002  -13.1123   22.2660 H   0  0  0  0  0  0
  -24.6247  -15.8534   20.5313 H   0  0  0  0  0  0
  -26.2356  -15.6405   20.0694 H   0  0  0  0  0  0
  -26.7455  -32.4986   23.0799 H   0  0  0  0  0  0
  -25.0067  -33.9374   25.0096 H   0  0  0  0  0  0
  -22.8244  -31.2456   21.3254 H   0  0  0  0  0  0
  -23.3774  -35.9472   23.3276 H   0  0  0  0  0  0
  -24.3568  -36.8855   22.2076 H   0  0  0  0  0  0
  -23.7234  -37.6329   23.6747 H   0  0  0  0  0  0
  -26.2718  -31.2807   20.6210 H   0  0  0  0  0  0
  -26.9337  -30.6243   22.0712 H   0  0  0  0  0  0
  -28.1496  -28.4292   21.3330 H   0  0  0  0  0  0
  -25.8594  -25.6427   18.9979 H   0  0  0  0  0  0
  -24.0334  -27.2298   18.9260 H   0  0  0  0  0  0
  -23.9186  -30.4722   19.3818 H   0  0  0  0  0  0
  -22.8563  -29.1725   19.8211 H   0  0  0  0  0  0
  -25.1346  -36.1694   25.0786 H   0  0  0  0  0  0
  -21.0040  -28.3390   24.1292 H   0  0  0  0  0  0
  -20.5679  -26.2391   23.3663 H   0  0  0  0  0  0
  -21.6664  -26.7399   22.1218 H   0  0  0  0  0  0
  -19.6936  -25.6268   21.1293 H   0  0  0  0  0  0
  -19.6718  -27.3150   20.6725 H   0  0  0  0  0  0
  -17.4227  -26.6690   21.4026 H   0  0  0  0  0  0
  -18.0345  -26.0105   22.9035 H   0  0  0  0  0  0
  -19.7976  -30.7335   24.2186 H   0  0  0  0  0  0
  -17.5045  -31.6285   24.5157 H   0  0  0  0  0  0
  -15.5383  -30.2974   23.7714 H   0  0  0  0  0  0
  -15.8705  -28.0806   22.7133 H   0  0  0  0  0  0
  -24.5855  -30.7155   25.7614 H   0  0  0  0  0  0
  -24.8855  -32.3006   26.4623 H   0  0  0  0  0  0
  -25.7861  -30.9031   27.0189 H   0  0  0  0  0  0
  -26.3204  -29.6507   24.1504 H   0  0  0  0  0  0
  -27.3962  -29.7280   25.5230 H   0  0  0  0  0  0
  -27.9170  -30.4031   24.0014 H   0  0  0  0  0  0
  -27.2633  -33.3706   26.1904 H   0  0  0  0  0  0
  -28.3941  -32.6806   25.0356 H   0  0  0  0  0  0
  -28.0649  -31.8576   26.5525 H   0  0  0  0  0  0
  -28.2567  -38.0047   24.7500 H   0  0  0  0  0  0
  -28.1061  -36.2573   24.6319 H   0  0  0  0  0  0
  -27.2272  -37.1408   25.8873 H   0  0  0  0  0  0
  -20.9682  -29.8684   21.6565 H   0  0  0  0  0  0
  -26.0104  -38.2723   24.1411 H   0  0  0  0  0  0
  -27.6604  -18.8013   17.4112 H   0  0  0  0  0  0
  -27.4073  -17.8075   18.8325 H   0  0  0  0  0  0
  -27.0564  -19.6721   20.1446 H   0  0  0  0  0  0
  -27.1582  -20.6848   18.7207 H   0  0  0  0  0  0
  -29.8587  -19.6078   16.7960 H   0  0  0  0  0  0
  -31.2945  -19.3274   17.7742 H   0  0  0  0  0  0
  -29.7843  -17.4559   18.1192 H   0  0  0  0  0  0
  -30.8973  -18.7509   20.1981 H   0  0  0  0  0  0
  -30.0468  -22.8189   18.2474 H   0  0  0  0  0  0
  -28.6051  -22.0201   17.5689 H   0  0  0  0  0  0
  -30.1835  -21.8587   16.8203 H   0  0  0  0  0  0
  -29.8885  -22.4337   20.7536 H   0  0  0  0  0  0
  -28.4211  -21.9877   21.4871 H   0  0  0  0  0  0
  -27.0352  -23.6880   20.0733 H   0  0  0  0  0  0
  -28.2608  -23.9107   18.9262 H   0  0  0  0  0  0
  -28.6363  -16.7417   20.6823 H   0  0  0  0  0  0
  -30.8655  -20.9334   19.0406 H   0  0  0  0  0  0
  1 25  1  0  0  0
  1 30  2  0  0  0
  1 80  1  0  0  0
  2  3  1  0  0  0
  2 25  1  0  0  0
  2 82  1  0  0  0
  2 83  1  0  0  0
  3  4  1  0  0  0
  3 84  1  0  0  0
  3 85  1  0  0  0
  4  5  1  0  0  0
  4 86  1  0  0  0
  4 87  1  0  0  0
  5  6  1  0  0  0
  5 26  1  0  0  0
  5 88  1  0  0  0
  6 25  1  0  0  0
  6 89  1  0  0  0
  6 90  1  0  0  0
  7  8  2  0  0  0
  7 26  1  0  0  0
  7 29  1  0  0  0
  8  9  1  0  0  0
  8 22  1  0  0  0
  9 10  1  0  0  0
  9 27  2  0  0  0
 10 11  2  0  0  0
 10 15  1  0  0  0
 11 12  1  0  0  0
 11 91  1  0  0  0
 12 13  2  0  0  0
 12 92  1  0  0  0
 13 14  1  0  0  0
 13 31  1  0  0  0
 14 15  2  0  0  0
 14 93  1  0  0  0
 15 94  1  0  0  0
 16 17  2  0  0  0
 16 21  1  0  0  0
 16 31  1  0  0  0
 17 18  1  0  0  0
 17 95  1  0  0  0
 18 19  2  0  0  0
 18 96  1  0  0  0
 19 20  1  0  0  0
 19 24  1  0  0  0
 20 21  2  0  0  0
 20 97  1  0  0  0
 21 23  1  0  0  0
 22 28  1  0  0  0
 22 32  2  0  0  0
 26 27  1  0  0  0
 28 98  1  0  0  0
 28 99  1  0  0  0
 29100  1  0  0  0
 29101  1  0  0  0
 33 34  1  0  0  0
 33 66  1  0  0  0
 33 70  2  0  0  0
 34 36  1  0  0  0
 34 59  1  0  0  0
 34102  1  0  0  0
 35 44  2  0  0  0
 35 45  1  0  0  0
 35 68  1  0  0  0
 36 56  1  0  0  0
 36103  1  0  0  0
 37 39  1  0  0  0
 37 47  1  0  0  0
 37 66  1  0  0  0
 37104  1  0  0  0
 38 43  2  0  0  0
 38 46  1  0  0  0
 38 47  1  0  0  0
 39 64  1  0  0  0
 39 67  2  0  0  0
 40 52  1  0  0  0
 40 53  2  0  0  0
 40 58  1  0  0  0
 41105  1  0  0  0
 41106  1  0  0  0
 41107  1  0  0  0
 41 48  1  0  0  0
 42 43  1  0  0  0
 42 66  1  0  0  0
 42108  1  0  0  0
 42109  1  0  0  0
 43 44  1  0  0  0
 44110  1  0  0  0
 45 46  2  0  0  0
 45111  1  0  0  0
 46112  1  0  0  0
 47113  1  0  0  0
 47114  1  0  0  0
 48 56  1  0  0  0
 48 65  1  0  0  0
 48115  1  0  0  0
 49 50  1  0  0  0
 49 53  1  0  0  0
 49 64  1  0  0  0
 49116  1  0  0  0
 50 51  1  0  0  0
 50117  1  0  0  0
 50118  1  0  0  0
 51 52  1  0  0  0
 51119  1  0  0  0
 51120  1  0  0  0
 52121  1  0  0  0
 52122  1  0  0  0
 53 54  1  0  0  0
 54 55  2  0  0  0
 54123  1  0  0  0
 55 57  1  0  0  0
 55124  1  0  0  0
 56 69  2  0  0  0
 57 58  2  0  0  0
 57125  1  0  0  0
 58126  1  0  0  0
 59 60  1  0  0  0
 59 61  1  0  0  0
 59 62  1  0  0  0
 60127  1  0  0  0
 60128  1  0  0  0
 60129  1  0  0  0
 61130  1  0  0  0
 61131  1  0  0  0
 61132  1  0  0  0
 62133  1  0  0  0
 62134  1  0  0  0
 62135  1  0  0  0
 63 65  1  0  0  0
 63136  1  0  0  0
 63137  1  0  0  0
 63138  1  0  0  0
 64139  1  0  0  0
 65140  1  0  0  0
 68 79  1  0  0  0
 71 72  1  0  0  0
 71141  1  0  0  0
 71142  1  0  0  0
 71 74  1  0  0  0
 72 76  1  0  0  0
 72143  1  0  0  0
 72144  1  0  0  0
 73 74  1  0  0  0
 73 81  1  0  0  0
 73145  1  0  0  0
 73146  1  0  0  0
 74 75  1  0  0  0
 74147  1  0  0  0
 75 76  1  0  0  0
 75 80  1  0  0  0
 75148  1  0  0  0
 76 78  1  0  0  0
 76 81  1  0  0  0
 77149  1  0  0  0
 77150  1  0  0  0
 77151  1  0  0  0
 77 81  1  0  0  0
 78 79  1  0  0  0
 78152  1  0  0  0
 78153  1  0  0  0
 79154  1  0  0  0
 79155  1  0  0  0
 80156  1  0  0  0
 81157  1  0  0  0
M  CHG  1  81   1
M  ISO  4   1 100  68 101  79 101  80 100
M  END
> <chiral flag>
0

> <version>
0

> <s_m_source_file>
/data/baiqing/PycharmProjects/Reinvent-master-3.2/result/LINK_invent/BTK/process_docking_weight1_custom_sum_contain_oxygen_bond_distance_aromatic_linkinvent_7_9_3/rearranged_h_0185.sdf

> <i_m_source_file_index>
41

> <r_mmod_Potential_Energy-OPLS-2005>
2442.07763671875

> <r_mmod_Stretch_Energy-OPLS-2005>
1112.79040527344

> <r_mmod_Bend_Energy-OPLS-2005>
837.324096679688

> <r_mmod_Torsional_Energy-OPLS-2005>
331.019622802734

> <r_mmod_Improper_Torsional_Energy-OPLS-2005>
4.12198495864868

> <r_mmod_Van_der_Waal_Energy-OPLS-2005>
122.707214355469

> <r_mmod_Electrostatic_Energy-OPLS-2005>
-286.613006591797

> <r_mmod_Solvation_Energy-OPLS-2005>
-464.893524169922

> <b_mmod_Minimization_Converged-OPLS-2005>
0

> <r_mmod_RMS_Derivative-OPLS-2005>
1.7476327419281

$$$$
41
                    3D
 Structure written by MMmdl.
159167  0  0  1  0            999 V2000
  -30.5480  -15.1486   20.4003 C   0  0  0  0  0  0
  -30.4193  -12.7449   19.4968 C   0  0  0  0  0  0
  -29.5114  -12.5436   18.2629 C   0  0  0  0  0  0
  -28.0628  -12.2876   18.7083 C   0  0  0  0  0  0
  -27.6058  -13.2705   19.8162 C   0  0  2  0  0  0
  -28.6460  -13.4510   20.9424 C   0  0  0  0  0  0
  -25.2368  -13.8254   20.5734 C   0  0  0  0  0  0
  -24.1705  -13.0449   20.9246 C   0  0  0  0  0  0
  -24.6360  -11.6947   20.8760 C   0  0  0  0  0  0
  -23.9053  -10.4308   21.0402 C   0  0  0  0  0  0
  -24.3610   -9.4216   21.9179 C   0  0  0  0  0  0
  -23.6282   -8.2244   22.0762 C   0  0  0  0  0  0
  -22.4278   -8.0269   21.3534 C   0  0  0  0  0  0
  -21.9899   -9.0233   20.4645 C   0  0  0  0  0  0
  -22.7225  -10.2125   20.3052 C   0  0  0  0  0  0
  -21.6847   -6.0723   22.5262 C   0  0  0  0  0  0
  -21.4002   -6.5627   23.8184 C   0  0  0  0  0  0
  -21.3676   -5.6785   24.9160 C   0  0  0  0  0  0
  -21.6047   -4.3047   24.7209 C   0  0  0  0  0  0
  -21.8819   -3.8139   23.4322 C   0  0  0  0  0  0
  -21.9182   -4.6947   22.3384 C   0  0  0  0  0  0
  -22.7725  -13.5195   21.1910 C   0  0  0  0  0  0
  -22.1654   -4.2131   21.0961 F   0  0  0  0  0  0
  -21.5649   -3.4548   25.7723 F   0  0  0  0  0  0
  -29.8867  -13.9040   20.2968 N   0  0  0  0  0  0
  -26.2795  -12.9517   20.3240 N   0  0  0  0  0  0
  -25.9311  -11.6630   20.5764 N   0  0  0  0  0  0
  -22.0389  -12.8155   22.0460 N   0  0  0  0  0  0
  -25.4057  -15.1981   20.4187 N   0  0  0  0  0  0
  -31.7768  -15.0512   20.2673 O   0  0  0  0  0  0
  -21.6653   -6.8872   21.4224 O   0  0  0  0  0  0
  -22.3402  -14.5506   20.6769 O   0  0  0  0  0  0
  -24.6572  -31.8292   23.1775 C   0  0  0  0  0  0
  -25.9283  -32.4619   23.8192 C   0  0  1  0  0  0
  -27.2118  -27.0086   20.1669 C   0  0  0  0  0  0
  -25.5996  -33.8419   24.2153 N   0  0  0  0  0  0
  -23.4639  -30.4491   21.5266 C   0  0  2  0  0  0
  -24.9129  -28.8442   20.1159 C   0  0  0  0  0  0
  -22.7615  -29.4481   22.4799 C   0  0  0  0  0  0
  -18.0307  -28.1385   22.8445 C   0  0  0  0  0  0
  -24.1476  -36.7160   23.2673 C   0  0  0  0  0  0
  -26.0329  -30.6590   21.3948 C   0  0  0  0  0  0
  -26.0967  -29.2576   20.7393 C   0  0  0  0  0  0
  -27.2500  -28.3655   20.7317 C   0  0  0  0  0  0
  -25.9986  -26.7160   19.5123 C   0  0  0  0  0  0
  -24.8839  -27.5887   19.4861 C   0  0  0  0  0  0
  -23.6995  -29.7704   20.1501 C   0  0  0  0  0  0
  -25.4112  -36.2945   24.0341 C   0  0  1  0  0  0
  -20.5921  -28.3695   23.1163 C   0  0  2  0  0  0
  -20.6773  -26.9367   22.5352 C   0  0  0  0  0  0
  -19.5752  -26.6319   21.5166 C   0  0  0  0  0  0
  -18.1935  -26.7925   22.1565 C   0  0  0  0  0  0
  -19.1573  -28.8853   23.2792 C   0  0  0  0  0  0
  -18.9505  -30.1457   23.8814 C   0  0  0  0  0  0
  -17.6518  -30.6568   24.0549 C   0  0  0  0  0  0
  -25.9091  -34.9343   23.5017 C   0  0  0  0  0  0
  -16.5389  -29.9071   23.6345 C   0  0  0  0  0  0
  -16.7287  -28.6492   23.0351 C   0  0  0  0  0  0
  -26.4588  -31.6529   25.0660 C   0  0  0  0  0  0
  -25.3773  -31.3723   26.1339 C   0  0  0  0  0  0
  -27.0528  -30.2929   24.6317 C   0  0  0  0  0  0
  -27.6076  -32.4340   25.7459 C   0  0  0  0  0  0
  -27.5547  -37.1719   24.8504 C   0  0  0  0  0  0
  -21.4297  -29.3045   22.3558 N   0  0  0  0  0  0
  -26.4251  -37.3677   23.9462 N   0  0  0  0  0  0
  -24.7397  -31.0016   22.0893 N   0  0  0  0  0  0
  -23.4216  -28.8000   23.2964 O   0  0  0  0  0  0
  -28.2640  -25.9846   20.1007 O   0  0  0  0  0  0
  -26.5644  -34.8886   22.4609 O   0  0  0  0  0  0
  -23.5657  -32.1258   23.6907 O   0  0  0  0  0  0
  -30.5221  -19.2262   20.9637 C   0  0  0  0  0  0
  -28.6984  -18.8352   19.5817 C   0  0  0  0  0  0
  -30.6380  -17.6264   21.3391 C   0  0  0  0  0  0
  -28.7343  -17.2044   19.9757 C   0  0  0  0  0  0
  -29.1547  -20.0025   20.6112 C   0  0  0  0  0  0
  -27.2919  -22.6428   18.9089 C   0  0  0  0  0  0
  -30.3271  -21.8641   19.2251 C   0  0  0  0  0  0
  -28.2654  -24.4855   20.6971 C   0  0  0  0  0  0
  -28.1446  -22.7911   20.1851 C   0  0  2  0  0  0
  -29.9609  -16.4920   20.5674 N   0  0  0  0  0  0
  -29.2849  -21.6163   20.2556 N   0  3  1  0  0  0
  -31.4425  -12.9157   19.1570 H   0  0  0  0  0  0
  -30.4584  -11.8377   20.1042 H   0  0  0  0  0  0
  -29.8697  -11.7088   17.6603 H   0  0  0  0  0  0
  -29.5524  -13.4259   17.6235 H   0  0  0  0  0  0
  -28.0149  -11.2656   19.0852 H   0  0  0  0  0  0
  -27.3844  -12.3301   17.8561 H   0  0  0  0  0  0
  -27.5216  -14.2356   19.3154 H   0  0  0  0  0  0
  -28.7947  -12.5348   21.5150 H   0  0  0  0  0  0
  -28.3034  -14.2120   21.6473 H   0  0  0  0  0  0
  -25.2753   -9.5685   22.4768 H   0  0  0  0  0  0
  -23.9980   -7.4639   22.7492 H   0  0  0  0  0  0
  -21.0836   -8.8736   19.8950 H   0  0  0  0  0  0
  -22.3661  -10.9651   19.6170 H   0  0  0  0  0  0
  -21.1981   -7.6144   23.9668 H   0  0  0  0  0  0
  -21.1515   -6.0535   25.9048 H   0  0  0  0  0  0
  -22.0584   -2.7602   23.2827 H   0  0  0  0  0  0
  -22.4040  -11.9796   22.4804 H   0  0  0  0  0  0
  -21.1010  -13.1168   22.2728 H   0  0  0  0  0  0
  -24.6406  -15.8570   20.5276 H   0  0  0  0  0  0
  -26.2686  -15.6358   20.1213 H   0  0  0  0  0  0
  -26.7331  -32.5180   23.0879 H   0  0  0  0  0  0
  -25.0216  -33.9548   25.0336 H   0  0  0  0  0  0
  -22.7760  -31.2801   21.3580 H   0  0  0  0  0  0
  -23.3763  -35.9454   23.3301 H   0  0  0  0  0  0
  -24.3584  -36.8808   22.2092 H   0  0  0  0  0  0
  -23.7184  -37.6325   23.6726 H   0  0  0  0  0  0
  -26.2152  -31.4042   20.6188 H   0  0  0  0  0  0
  -26.9007  -30.7030   22.0426 H   0  0  0  0  0  0
  -28.1632  -28.7000   21.2024 H   0  0  0  0  0  0
  -25.9054  -25.7620   19.0122 H   0  0  0  0  0  0
  -23.9826  -27.2644   18.9867 H   0  0  0  0  0  0
  -23.8717  -30.5484   19.4073 H   0  0  0  0  0  0
  -22.8079  -29.2364   19.8130 H   0  0  0  0  0  0
  -25.1296  -36.1736   25.0822 H   0  0  0  0  0  0
  -21.0004  -28.3258   24.1284 H   0  0  0  0  0  0
  -20.5635  -26.2297   23.3585 H   0  0  0  0  0  0
  -21.6646  -26.7319   22.1171 H   0  0  0  0  0  0
  -19.6944  -25.6225   21.1185 H   0  0  0  0  0  0
  -19.6734  -27.3166   20.6742 H   0  0  0  0  0  0
  -17.4206  -26.6621   21.3987 H   0  0  0  0  0  0
  -18.0318  -26.0115   22.8991 H   0  0  0  0  0  0
  -19.8036  -30.7242   24.2121 H   0  0  0  0  0  0
  -17.5131  -31.6272   24.5139 H   0  0  0  0  0  0
  -15.5416  -30.2983   23.7778 H   0  0  0  0  0  0
  -15.8644  -28.0829   22.7112 H   0  0  0  0  0  0
  -24.6001  -30.7020   25.7668 H   0  0  0  0  0  0
  -24.8932  -32.2911   26.4641 H   0  0  0  0  0  0
  -25.8054  -30.8980   27.0185 H   0  0  0  0  0  0
  -26.3215  -29.6554   24.1341 H   0  0  0  0  0  0
  -27.4216  -29.7266   25.4885 H   0  0  0  0  0  0
  -27.9055  -30.4195   23.9641 H   0  0  0  0  0  0
  -27.2661  -33.3731   26.1827 H   0  0  0  0  0  0
  -28.3987  -32.6755   25.0346 H   0  0  0  0  0  0
  -28.0638  -31.8611   26.5548 H   0  0  0  0  0  0
  -28.2496  -38.0060   24.7530 H   0  0  0  0  0  0
  -28.1048  -36.2562   24.6294 H   0  0  0  0  0  0
  -27.2271  -37.1349   25.8904 H   0  0  0  0  0  0
  -20.9495  -29.8797   21.6771 H   0  0  0  0  0  0
  -26.0062  -38.2702   24.1526 H   0  0  0  0  0  0
  -31.1956  -19.3611   20.1182 H   0  0  0  0  0  0
  -31.0092  -19.7786   21.7692 H   0  0  0  0  0  0
  -27.6797  -19.0597   19.2601 H   0  0  0  0  0  0
  -29.2885  -18.9526   18.6715 H   0  0  0  0  0  0
  -30.3038  -17.5096   22.3717 H   0  0  0  0  0  0
  -31.7059  -17.3993   21.3816 H   0  0  0  0  0  0
  -28.4403  -16.6371   19.0915 H   0  0  0  0  0  0
  -27.9316  -17.0310   20.6936 H   0  0  0  0  0  0
  -28.5023  -19.9549   21.4844 H   0  0  0  0  0  0
  -26.3642  -23.2105   18.9800 H   0  0  0  0  0  0
  -27.0113  -21.5992   18.7518 H   0  0  0  0  0  0
  -27.8271  -22.9688   18.0148 H   0  0  0  0  0  0
  -31.3016  -21.5009   19.5534 H   0  0  0  0  0  0
  -30.4510  -22.9302   19.0434 H   0  0  0  0  0  0
  -30.0839  -21.3917   18.2719 H   0  0  0  0  0  0
  -29.1623  -24.4981   21.3120 H   0  0  0  0  0  0
  -27.4727  -24.5770   21.4390 H   0  0  0  0  0  0
  -27.5000  -22.4095   20.9775 H   0  0  0  0  0  0
  -29.7536  -21.9199   21.0983 H   0  0  0  0  0  0
  1 25  1  0  0  0
  1 30  2  0  0  0
  1 80  1  0  0  0
  2  3  1  0  0  0
  2 25  1  0  0  0
  2 82  1  0  0  0
  2 83  1  0  0  0
  3  4  1  0  0  0
  3 84  1  0  0  0
  3 85  1  0  0  0
  4  5  1  0  0  0
  4 86  1  0  0  0
  4 87  1  0  0  0
  5  6  1  0  0  0
  5 26  1  0  0  0
  5 88  1  0  0  0
  6 25  1  0  0  0
  6 89  1  0  0  0
  6 90  1  0  0  0
  7  8  2  0  0  0
  7 26  1  0  0  0
  7 29  1  0  0  0
  8  9  1  0  0  0
  8 22  1  0  0  0
  9 10  1  0  0  0
  9 27  2  0  0  0
 10 11  2  0  0  0
 10 15  1  0  0  0
 11 12  1  0  0  0
 11 91  1  0  0  0
 12 13  2  0  0  0
 12 92  1  0  0  0
 13 14  1  0  0  0
 13 31  1  0  0  0
 14 15  2  0  0  0
 14 93  1  0  0  0
 15 94  1  0  0  0
 16 17  2  0  0  0
 16 21  1  0  0  0
 16 31  1  0  0  0
 17 18  1  0  0  0
 17 95  1  0  0  0
 18 19  2  0  0  0
 18 96  1  0  0  0
 19 20  1  0  0  0
 19 24  1  0  0  0
 20 21  2  0  0  0
 20 97  1  0  0  0
 21 23  1  0  0  0
 22 28  1  0  0  0
 22 32  2  0  0  0
 26 27  1  0  0  0
 28 98  1  0  0  0
 28 99  1  0  0  0
 29100  1  0  0  0
 29101  1  0  0  0
 33 34  1  0  0  0
 33 66  1  0  0  0
 33 70  2  0  0  0
 34 36  1  0  0  0
 34 59  1  0  0  0
 34102  1  0  0  0
 35 44  2  0  0  0
 35 45  1  0  0  0
 35 68  1  0  0  0
 36 56  1  0  0  0
 36103  1  0  0  0
 37 39  1  0  0  0
 37 47  1  0  0  0
 37 66  1  0  0  0
 37104  1  0  0  0
 38 43  2  0  0  0
 38 46  1  0  0  0
 38 47  1  0  0  0
 39 64  1  0  0  0
 39 67  2  0  0  0
 40 52  1  0  0  0
 40 53  2  0  0  0
 40 58  1  0  0  0
 41105  1  0  0  0
 41106  1  0  0  0
 41107  1  0  0  0
 41 48  1  0  0  0
 42 43  1  0  0  0
 42 66  1  0  0  0
 42108  1  0  0  0
 42109  1  0  0  0
 43 44  1  0  0  0
 44110  1  0  0  0
 45 46  2  0  0  0
 45111  1  0  0  0
 46112  1  0  0  0
 47113  1  0  0  0
 47114  1  0  0  0
 48 56  1  0  0  0
 48 65  1  0  0  0
 48115  1  0  0  0
 49 50  1  0  0  0
 49 53  1  0  0  0
 49 64  1  0  0  0
 49116  1  0  0  0
 50 51  1  0  0  0
 50117  1  0  0  0
 50118  1  0  0  0
 51 52  1  0  0  0
 51119  1  0  0  0
 51120  1  0  0  0
 52121  1  0  0  0
 52122  1  0  0  0
 53 54  1  0  0  0
 54 55  2  0  0  0
 54123  1  0  0  0
 55 57  1  0  0  0
 55124  1  0  0  0
 56 69  2  0  0  0
 57 58  2  0  0  0
 57125  1  0  0  0
 58126  1  0  0  0
 59 60  1  0  0  0
 59 61  1  0  0  0
 59 62  1  0  0  0
 60127  1  0  0  0
 60128  1  0  0  0
 60129  1  0  0  0
 61130  1  0  0  0
 61131  1  0  0  0
 61132  1  0  0  0
 62133  1  0  0  0
 62134  1  0  0  0
 62135  1  0  0  0
 63 65  1  0  0  0
 63136  1  0  0  0
 63137  1  0  0  0
 63138  1  0  0  0
 64139  1  0  0  0
 65140  1  0  0  0
 68 78  1  0  0  0
 71 73  1  0  0  0
 71141  1  0  0  0
 71142  1  0  0  0
 71 75  1  0  0  0
 72 74  1  0  0  0
 72 75  1  0  0  0
 72143  1  0  0  0
 72144  1  0  0  0
 73 80  1  0  0  0
 73145  1  0  0  0
 73146  1  0  0  0
 74 80  1  0  0  0
 74147  1  0  0  0
 74148  1  0  0  0
 75 81  1  0  0  0
 75149  1  0  0  0
 76150  1  0  0  0
 76151  1  0  0  0
 76152  1  0  0  0
 76 79  1  0  0  0
 77153  1  0  0  0
 77154  1  0  0  0
 77155  1  0  0  0
 77 81  1  0  0  0
 78 79  1  0  0  0
 78156  1  0  0  0
 78157  1  0  0  0
 79 81  1  0  0  0
 79158  1  0  0  0
 81159  1  0  0  0
M  CHG  1  81   1
M  ISO  4   1 100  68 101  78 101  80 100
M  END
> <chiral flag>
0

> <version>
0

> <s_m_source_file>
/data/baiqing/PycharmProjects/Reinvent-master-3.2/result/LINK_invent/BTK/process_docking_weight1_custom_sum_contain_oxygen_bond_distance_aromatic_linkinvent_7_9_3/rearranged_h_0185.sdf

> <i_m_source_file_index>
42

> <r_mmod_Potential_Energy-OPLS-2005>
1198.81005859375

> <r_mmod_Stretch_Energy-OPLS-2005>
426.724975585938

> <r_mmod_Bend_Energy-OPLS-2005>
503.223114013672

> <r_mmod_Torsional_Energy-OPLS-2005>
371.225616455078

> <r_mmod_Improper_Torsional_Energy-OPLS-2005>
2.00055956840515

> <r_mmod_Van_der_Waal_Energy-OPLS-2005>
107.021125793457

> <r_mmod_Electrostatic_Energy-OPLS-2005>
-124.447174072266

> <r_mmod_Solvation_Energy-OPLS-2005>
-425.347290039062

> <b_mmod_Minimization_Converged-OPLS-2005>
0

> <r_mmod_RMS_Derivative-OPLS-2005>
5.48992252349854

$$$$
42
                    3D
 Structure written by MMmdl.
157166  0  0  1  0            999 V2000
  -30.4792  -15.1133   20.4408 C   0  0  0  0  0  0
  -30.4549  -12.7292   19.4680 C   0  0  0  0  0  0
  -29.5107  -12.5797   18.2467 C   0  0  0  0  0  0
  -28.0547  -12.3145   18.6817 C   0  0  0  0  0  0
  -27.6259  -13.2361   19.8502 C   0  0  2  0  0  0
  -28.6963  -13.2313   20.9657 C   0  0  0  0  0  0
  -25.2355  -13.8132   20.5705 C   0  0  0  0  0  0
  -24.1699  -13.0369   20.9250 C   0  0  0  0  0  0
  -24.6359  -11.6877   20.8771 C   0  0  0  0  0  0
  -23.9058  -10.4254   21.0394 C   0  0  0  0  0  0
  -24.3620   -9.4184   21.9168 C   0  0  0  0  0  0
  -23.6296   -8.2228   22.0743 C   0  0  0  0  0  0
  -22.4273   -8.0271   21.3532 C   0  0  0  0  0  0
  -21.9907   -9.0238   20.4626 C   0  0  0  0  0  0
  -22.7244  -10.2105   20.3026 C   0  0  0  0  0  0
  -21.6856   -6.0744   22.5285 C   0  0  0  0  0  0
  -21.4014   -6.5646   23.8216 C   0  0  0  0  0  0
  -21.3647   -5.6795   24.9176 C   0  0  0  0  0  0
  -21.6038   -4.3056   24.7224 C   0  0  0  0  0  0
  -21.8818   -3.8153   23.4342 C   0  0  0  0  0  0
  -21.9189   -4.6970   22.3401 C   0  0  0  0  0  0
  -22.7726  -13.5161   21.1883 C   0  0  0  0  0  0
  -22.1666   -4.2163   21.0976 F   0  0  0  0  0  0
  -21.5621   -3.4538   25.7732 F   0  0  0  0  0  0
  -29.9132  -13.8118   20.3609 N   0  0  0  0  0  0
  -26.2852  -12.9384   20.3361 N   0  0  0  0  0  0
  -25.9301  -11.6518   20.5813 N   0  0  0  0  0  0
  -22.0391  -12.8154   22.0448 N   0  0  0  0  0  0
  -25.3748  -15.1845   20.4017 N   0  0  0  0  0  0
  -31.6909  -15.1427   20.1822 O   0  0  0  0  0  0
  -21.6623   -6.8883   21.4250 O   0  0  0  0  0  0
  -22.3409  -14.5476   20.6739 O   0  0  0  0  0  0
  -24.6527  -31.8376   23.1823 C   0  0  0  0  0  0
  -25.9274  -32.4661   23.8235 C   0  0  1  0  0  0
  -27.2188  -27.0582   20.1535 C   0  0  0  0  0  0
  -25.5991  -33.8471   24.2144 N   0  0  0  0  0  0
  -23.4597  -30.4553   21.5305 C   0  0  2  0  0  0
  -24.9097  -28.8732   20.1115 C   0  0  0  0  0  0
  -22.7624  -29.4505   22.4837 C   0  0  0  0  0  0
  -18.0318  -28.1392   22.8470 C   0  0  0  0  0  0
  -24.1487  -36.7247   23.2639 C   0  0  0  0  0  0
  -26.0223  -30.6855   21.3942 C   0  0  0  0  0  0
  -26.0935  -29.2894   20.7353 C   0  0  0  0  0  0
  -27.2467  -28.4003   20.7393 C   0  0  0  0  0  0
  -26.0051  -26.7716   19.4821 C   0  0  0  0  0  0
  -24.8843  -27.6290   19.4681 C   0  0  0  0  0  0
  -23.6890  -29.7842   20.1525 C   0  0  0  0  0  0
  -25.4119  -36.3012   24.0301 C   0  0  1  0  0  0
  -20.5928  -28.3735   23.1214 C   0  0  2  0  0  0
  -20.6800  -26.9435   22.5404 C   0  0  0  0  0  0
  -19.5773  -26.6373   21.5212 C   0  0  0  0  0  0
  -18.1947  -26.7939   22.1605 C   0  0  0  0  0  0
  -19.1573  -28.8884   23.2823 C   0  0  0  0  0  0
  -18.9490  -30.1475   23.8851 C   0  0  0  0  0  0
  -17.6489  -30.6593   24.0549 C   0  0  0  0  0  0
  -25.9085  -34.9394   23.5031 C   0  0  0  0  0  0
  -16.5376  -29.9077   23.6341 C   0  0  0  0  0  0
  -16.7301  -28.6495   23.0364 C   0  0  0  0  0  0
  -26.4550  -31.6578   25.0729 C   0  0  0  0  0  0
  -25.3688  -31.3802   26.1396 C   0  0  0  0  0  0
  -27.0443  -30.2962   24.6394 C   0  0  0  0  0  0
  -27.6043  -32.4386   25.7518 C   0  0  0  0  0  0
  -27.5585  -37.1757   24.8445 C   0  0  0  0  0  0
  -21.4300  -29.3060   22.3596 N   0  0  0  0  0  0
  -26.4259  -37.3748   23.9435 N   0  0  0  0  0  0
  -24.7321  -31.0149   22.0904 N   0  0  0  0  0  0
  -23.4224  -28.8045   23.3018 O   0  0  0  0  0  0
  -28.2338  -26.0028   20.2303 O   0  0  0  0  0  0
  -26.5673  -34.8912   22.4611 O   0  0  0  0  0  0
  -23.5626  -32.1292   23.6989 O   0  0  0  0  0  0
  -28.3433  -21.7442   19.3928 C   0  0  0  0  0  0
  -29.0145  -20.6107   19.9077 C   0  0  0  0  0  0
  -28.6228  -22.9858   20.1493 C   0  0  0  0  0  0
  -29.0963  -19.0234   19.5952 C   0  0  0  0  0  0
  -30.3353  -18.7304   21.7867 C   0  0  0  0  0  0
  -30.0749  -17.9575   20.4285 C   0  0  1  0  0  0
  -30.6247  -20.3126   21.7775 C   0  0  2  0  0  0
  -30.7288  -20.8405   23.2196 C   0  0  0  0  0  0
  -28.3082  -16.3763   20.9431 C   0  0  0  0  0  0
  -27.8351  -24.4811   20.0012 C   0  0  0  0  0  0
  -29.4851  -22.5419   21.1129 N   0  0  0  0  0  0
  -29.6900  -21.1435   20.9701 N   0  0  0  0  0  0
  -29.7248  -16.3733   20.5696 N   0  0  0  0  0  0
  -31.4578  -12.9645   19.1102 H   0  0  0  0  0  0
  -30.5567  -11.7838   20.0031 H   0  0  0  0  0  0
  -29.8590  -11.7807   17.5919 H   0  0  0  0  0  0
  -29.5432  -13.4956   17.6549 H   0  0  0  0  0  0
  -27.9859  -11.2714   18.9935 H   0  0  0  0  0  0
  -27.3754  -12.4273   17.8357 H   0  0  0  0  0  0
  -27.5789  -14.2288   19.4121 H   0  0  0  0  0  0
  -28.8688  -12.2062   21.2970 H   0  0  0  0  0  0
  -28.3911  -13.7221   21.8838 H   0  0  0  0  0  0
  -25.2769   -9.5698   22.4734 H   0  0  0  0  0  0
  -24.0004   -7.4655   22.7500 H   0  0  0  0  0  0
  -21.0819   -8.8787   19.8956 H   0  0  0  0  0  0
  -22.3716  -10.9657   19.6131 H   0  0  0  0  0  0
  -21.2011   -7.6153   23.9728 H   0  0  0  0  0  0
  -21.1462   -6.0514   25.9083 H   0  0  0  0  0  0
  -22.0590   -2.7615   23.2838 H   0  0  0  0  0  0
  -22.4068  -11.9846   22.4840 H   0  0  0  0  0  0
  -21.1015  -13.1160   22.2682 H   0  0  0  0  0  0
  -24.5890  -15.8185   20.5008 H   0  0  0  0  0  0
  -26.2117  -15.6425   20.0698 H   0  0  0  0  0  0
  -26.7355  -32.5234   23.0961 H   0  0  0  0  0  0
  -25.0141  -33.9561   25.0300 H   0  0  0  0  0  0
  -22.7659  -31.2827   21.3748 H   0  0  0  0  0  0
  -23.3771  -35.9549   23.3206 H   0  0  0  0  0  0
  -24.3591  -36.8992   22.2079 H   0  0  0  0  0  0
  -23.7210  -37.6390   23.6756 H   0  0  0  0  0  0
  -26.1897  -31.4341   20.6176 H   0  0  0  0  0  0
  -26.8879  -30.7360   22.0438 H   0  0  0  0  0  0
  -28.1431  -28.7140   21.2562 H   0  0  0  0  0  0
  -25.8653  -25.8299   18.9761 H   0  0  0  0  0  0
  -23.9831  -27.3032   18.9658 H   0  0  0  0  0  0
  -23.8318  -30.5577   19.3981 H   0  0  0  0  0  0
  -22.7999  -29.2323   19.8405 H   0  0  0  0  0  0
  -25.1297  -36.1802   25.0783 H   0  0  0  0  0  0
  -21.0003  -28.3342   24.1334 H   0  0  0  0  0  0
  -20.5718  -26.2347   23.3627 H   0  0  0  0  0  0
  -21.6663  -26.7448   22.1193 H   0  0  0  0  0  0
  -19.6937  -25.6268   21.1281 H   0  0  0  0  0  0
  -19.6714  -27.3139   20.6705 H   0  0  0  0  0  0
  -17.4231  -26.6694   21.3989 H   0  0  0  0  0  0
  -18.0314  -26.0072   22.8985 H   0  0  0  0  0  0
  -19.7967  -30.7294   24.2202 H   0  0  0  0  0  0
  -17.5047  -31.6271   24.5155 H   0  0  0  0  0  0
  -15.5372  -30.2965   23.7700 H   0  0  0  0  0  0
  -15.8693  -28.0801   22.7109 H   0  0  0  0  0  0
  -24.5854  -30.7169   25.7712 H   0  0  0  0  0  0
  -24.8881  -32.2993   26.4754 H   0  0  0  0  0  0
  -25.7920  -30.9015   27.0235 H   0  0  0  0  0  0
  -26.3104  -29.6645   24.1378 H   0  0  0  0  0  0
  -27.3991  -29.7320   25.5032 H   0  0  0  0  0  0
  -27.9028  -30.4172   23.9782 H   0  0  0  0  0  0
  -27.2629  -33.3753   26.1938 H   0  0  0  0  0  0
  -28.3917  -32.6857   25.0386 H   0  0  0  0  0  0
  -28.0633  -31.8628   26.5561 H   0  0  0  0  0  0
  -28.2505  -38.0159   24.7628 H   0  0  0  0  0  0
  -28.1183  -36.2687   24.6082 H   0  0  0  0  0  0
  -27.2330  -37.1178   25.8852 H   0  0  0  0  0  0
  -20.9532  -29.8807   21.6789 H   0  0  0  0  0  0
  -26.0107  -38.2781   24.1533 H   0  0  0  0  0  0
  -27.6569  -21.6894   18.5582 H   0  0  0  0  0  0
  -29.3393  -18.9117   18.5387 H   0  0  0  0  0  0
  -28.0706  -18.6630   19.6484 H   0  0  0  0  0  0
  -31.1568  -18.2309   22.3010 H   0  0  0  0  0  0
  -29.4718  -18.5819   22.4351 H   0  0  0  0  0  0
  -31.0343  -17.9768   19.9093 H   0  0  0  0  0  0
  -31.6026  -20.4479   21.3126 H   0  0  0  0  0  0
  -29.7917  -20.6961   23.7598 H   0  0  0  0  0  0
  -30.9651  -21.9050   23.2471 H   0  0  0  0  0  0
  -31.5130  -20.3224   23.7713 H   0  0  0  0  0  0
  -27.9876  -17.3061   21.4102 H   0  0  0  0  0  0
  -28.0252  -15.6496   21.6889 H   0  0  0  0  0  0
  -27.7083  -16.2701   20.0444 H   0  0  0  0  0  0
  -26.9199  -24.3665   20.5833 H   0  0  0  0  0  0
  -27.4921  -24.4745   18.9677 H   0  0  0  0  0  0
  1 25  1  0  0  0
  1 30  2  0  0  0
  1 83  1  0  0  0
  2  3  1  0  0  0
  2 25  1  0  0  0
  2 84  1  0  0  0
  2 85  1  0  0  0
  3  4  1  0  0  0
  3 86  1  0  0  0
  3 87  1  0  0  0
  4  5  1  0  0  0
  4 88  1  0  0  0
  4 89  1  0  0  0
  5  6  1  0  0  0
  5 26  1  0  0  0
  5 90  1  0  0  0
  6 25  1  0  0  0
  6 91  1  0  0  0
  6 92  1  0  0  0
  7  8  2  0  0  0
  7 26  1  0  0  0
  7 29  1  0  0  0
  8  9  1  0  0  0
  8 22  1  0  0  0
  9 10  1  0  0  0
  9 27  2  0  0  0
 10 11  2  0  0  0
 10 15  1  0  0  0
 11 12  1  0  0  0
 11 93  1  0  0  0
 12 13  2  0  0  0
 12 94  1  0  0  0
 13 14  1  0  0  0
 13 31  1  0  0  0
 14 15  2  0  0  0
 14 95  1  0  0  0
 15 96  1  0  0  0
 16 17  2  0  0  0
 16 21  1  0  0  0
 16 31  1  0  0  0
 17 18  1  0  0  0
 17 97  1  0  0  0
 18 19  2  0  0  0
 18 98  1  0  0  0
 19 20  1  0  0  0
 19 24  1  0  0  0
 20 21  2  0  0  0
 20 99  1  0  0  0
 21 23  1  0  0  0
 22 28  1  0  0  0
 22 32  2  0  0  0
 26 27  1  0  0  0
 28100  1  0  0  0
 28101  1  0  0  0
 29102  1  0  0  0
 29103  1  0  0  0
 33 34  1  0  0  0
 33 66  1  0  0  0
 33 70  2  0  0  0
 34 36  1  0  0  0
 34 59  1  0  0  0
 34104  1  0  0  0
 35 44  2  0  0  0
 35 45  1  0  0  0
 35 68  1  0  0  0
 36 56  1  0  0  0
 36105  1  0  0  0
 37 39  1  0  0  0
 37 47  1  0  0  0
 37 66  1  0  0  0
 37106  1  0  0  0
 38 43  2  0  0  0
 38 46  1  0  0  0
 38 47  1  0  0  0
 39 64  1  0  0  0
 39 67  2  0  0  0
 40 52  1  0  0  0
 40 53  2  0  0  0
 40 58  1  0  0  0
 41107  1  0  0  0
 41108  1  0  0  0
 41109  1  0  0  0
 41 48  1  0  0  0
 42 43  1  0  0  0
 42 66  1  0  0  0
 42110  1  0  0  0
 42111  1  0  0  0
 43 44  1  0  0  0
 44112  1  0  0  0
 45 46  2  0  0  0
 45113  1  0  0  0
 46114  1  0  0  0
 47115  1  0  0  0
 47116  1  0  0  0
 48 56  1  0  0  0
 48 65  1  0  0  0
 48117  1  0  0  0
 49 50  1  0  0  0
 49 53  1  0  0  0
 49 64  1  0  0  0
 49118  1  0  0  0
 50 51  1  0  0  0
 50119  1  0  0  0
 50120  1  0  0  0
 51 52  1  0  0  0
 51121  1  0  0  0
 51122  1  0  0  0
 52123  1  0  0  0
 52124  1  0  0  0
 53 54  1  0  0  0
 54 55  2  0  0  0
 54125  1  0  0  0
 55 57  1  0  0  0
 55126  1  0  0  0
 56 69  2  0  0  0
 57 58  2  0  0  0
 57127  1  0  0  0
 58128  1  0  0  0
 59 60  1  0  0  0
 59 61  1  0  0  0
 59 62  1  0  0  0
 60129  1  0  0  0
 60130  1  0  0  0
 60131  1  0  0  0
 61132  1  0  0  0
 61133  1  0  0  0
 61134  1  0  0  0
 62135  1  0  0  0
 62136  1  0  0  0
 62137  1  0  0  0
 63 65  1  0  0  0
 63138  1  0  0  0
 63139  1  0  0  0
 63140  1  0  0  0
 64141  1  0  0  0
 65142  1  0  0  0
 68 80  1  0  0  0
 71 72  2  0  0  0
 71 73  1  0  0  0
 71143  1  0  0  0
 72 74  1  0  0  0
 72 82  1  0  0  0
 73 80  1  0  0  0
 73 81  2  0  0  0
 74 76  1  0  0  0
 74144  1  0  0  0
 74145  1  0  0  0
 75 76  1  0  0  0
 75 77  1  0  0  0
 75146  1  0  0  0
 75147  1  0  0  0
 76 83  1  0  0  0
 76148  1  0  0  0
 77 78  1  0  0  0
 77 82  1  0  0  0
 77149  1  0  0  0
 78150  1  0  0  0
 78151  1  0  0  0
 78152  1  0  0  0
 79 83  1  0  0  0
 79153  1  0  0  0
 79154  1  0  0  0
 79155  1  0  0  0
 80156  1  0  0  0
 80157  1  0  0  0
 81 82  1  0  0  0
M  ISO  4   1 100  68 101  80 101  83 100
M  END
> <chiral flag>
0

> <version>
0

> <s_m_source_file>
/data/baiqing/PycharmProjects/Reinvent-master-3.2/result/LINK_invent/BTK/process_docking_weight1_custom_sum_contain_oxygen_bond_distance_aromatic_linkinvent_7_9_3/rearranged_h_0185.sdf

> <i_m_source_file_index>
43

> <r_mmod_Potential_Energy-OPLS-2005>
939.211364746094

> <r_mmod_Stretch_Energy-OPLS-2005>
345.860137939453

> <r_mmod_Bend_Energy-OPLS-2005>
351.366119384766

> <r_mmod_Torsional_Energy-OPLS-2005>
302.953155517578

> <r_mmod_Improper_Torsional_Energy-OPLS-2005>
6.42508411407471

> <r_mmod_Van_der_Waal_Energy-OPLS-2005>
136.261291503906

> <r_mmod_Electrostatic_Energy-OPLS-2005>
-273.565765380859

> <r_mmod_Solvation_Energy-OPLS-2005>
-221.528549194336

> <b_mmod_Minimization_Converged-OPLS-2005>
0

> <r_mmod_RMS_Derivative-OPLS-2005>
2.24311590194702

$$$$
43
                    3D
 Structure written by MMmdl.
163172  0  0  1  0            999 V2000
  -30.6759  -14.5967   20.5596 C   0  0  0  0  0  0
  -30.4300  -12.3815   19.4521 C   0  0  0  0  0  0
  -29.5041  -12.5115   18.2242 C   0  0  0  0  0  0
  -28.0285  -12.3504   18.6355 C   0  0  0  0  0  0
  -27.6553  -13.2179   19.8670 C   0  0  2  0  0  0
  -28.6969  -13.0645   20.9970 C   0  0  0  0  0  0
  -25.2560  -13.8179   20.5675 C   0  0  0  0  0  0
  -24.1817  -13.0443   20.9163 C   0  0  0  0  0  0
  -24.6383  -11.6913   20.8724 C   0  0  0  0  0  0
  -23.9054  -10.4295   21.0396 C   0  0  0  0  0  0
  -24.3609   -9.4211   21.9177 C   0  0  0  0  0  0
  -23.6286   -8.2245   22.0750 C   0  0  0  0  0  0
  -22.4268   -8.0276   21.3546 C   0  0  0  0  0  0
  -21.9893   -9.0250   20.4650 C   0  0  0  0  0  0
  -22.7222  -10.2131   20.3056 C   0  0  0  0  0  0
  -21.6850   -6.0728   22.5270 C   0  0  0  0  0  0
  -21.4018   -6.5633   23.8203 C   0  0  0  0  0  0
  -21.3666   -5.6789   24.9166 C   0  0  0  0  0  0
  -21.6044   -4.3051   24.7216 C   0  0  0  0  0  0
  -21.8826   -3.8140   23.4339 C   0  0  0  0  0  0
  -21.9192   -4.6956   22.3396 C   0  0  0  0  0  0
  -22.7837  -13.5230   21.1832 C   0  0  0  0  0  0
  -22.1661   -4.2148   21.0973 F   0  0  0  0  0  0
  -21.5628   -3.4534   25.7730 F   0  0  0  0  0  0
  -30.0184  -13.3983   20.4422 N   0  0  0  0  0  0
  -26.2995  -12.9363   20.3334 N   0  0  0  0  0  0
  -25.9316  -11.6513   20.5748 N   0  0  0  0  0  0
  -22.0493  -12.8224   22.0405 N   0  0  0  0  0  0
  -25.4301  -15.1899   20.4100 N   0  0  0  0  0  0
  -31.7826  -14.7729   20.0393 O   0  0  0  0  0  0
  -21.6636   -6.8870   21.4233 O   0  0  0  0  0  0
  -22.3517  -14.5536   20.6686 O   0  0  0  0  0  0
  -24.6225  -31.8624   23.2045 C   0  0  0  0  0  0
  -25.9087  -32.4792   23.8359 C   0  0  1  0  0  0
  -27.2221  -27.3504   20.1242 C   0  0  0  0  0  0
  -25.5910  -33.8592   24.2294 N   0  0  0  0  0  0
  -23.4155  -30.4851   21.5453 C   0  0  2  0  0  0
  -24.8653  -28.9467   20.1074 C   0  0  0  0  0  0
  -22.7463  -29.4627   22.4939 C   0  0  0  0  0  0
  -18.0283  -28.1381   22.8487 C   0  0  0  0  0  0
  -24.1490  -36.7303   23.2634 C   0  0  0  0  0  0
  -25.9525  -30.8053   21.3697 C   0  0  0  0  0  0
  -26.0310  -29.4346   20.7132 C   0  0  0  0  0  0
  -27.2169  -28.6463   20.7153 C   0  0  0  0  0  0
  -26.0440  -26.9083   19.4877 C   0  0  0  0  0  0
  -24.8722  -27.6884   19.4830 C   0  0  0  0  0  0
  -23.6293  -29.8211   20.1589 C   0  0  0  0  0  0
  -25.4112  -36.3093   24.0330 C   0  0  1  0  0  0
  -20.5883  -28.3681   23.1296 C   0  0  2  0  0  0
  -20.6780  -26.9406   22.5416 C   0  0  0  0  0  0
  -19.5755  -26.6385   21.5214 C   0  0  0  0  0  0
  -18.1933  -26.7924   22.1623 C   0  0  0  0  0  0
  -19.1537  -28.8846   23.2888 C   0  0  0  0  0  0
  -18.9458  -30.1451   23.8908 C   0  0  0  0  0  0
  -17.6460  -30.6583   24.0564 C   0  0  0  0  0  0
  -25.9045  -34.9463   23.5114 C   0  0  0  0  0  0
  -16.5349  -29.9084   23.6324 C   0  0  0  0  0  0
  -16.7272  -28.6497   23.0347 C   0  0  0  0  0  0
  -26.4486  -31.6586   25.0710 C   0  0  0  0  0  0
  -25.3738  -31.3730   26.1456 C   0  0  0  0  0  0
  -27.0298  -30.3007   24.6128 C   0  0  0  0  0  0
  -27.6065  -32.4303   25.7467 C   0  0  0  0  0  0
  -27.5585  -37.1801   24.8460 C   0  0  0  0  0  0
  -21.4177  -29.3038   22.3690 N   0  0  0  0  0  0
  -26.4289  -37.3785   23.9408 N   0  0  0  0  0  0
  -24.6820  -31.0659   22.0977 N   0  0  0  0  0  0
  -23.4203  -28.8166   23.3006 O   0  0  0  0  0  0
  -28.3072  -26.4763   20.1786 O   0  0  0  0  0  0
  -26.5615  -34.8927   22.4682 O   0  0  0  0  0  0
  -23.5399  -32.1400   23.7393 O   0  0  0  0  0  0
  -30.3154  -22.8063   19.7723 C   0  0  0  0  0  0
  -29.3947  -21.8596   20.3222 C   0  0  0  0  0  0
  -28.4084  -22.7054   20.8101 C   0  0  0  0  0  0
  -29.8680  -17.3286   22.8747 C   0  0  0  0  0  0
  -30.1616  -15.8536   22.5703 C   0  0  0  0  0  0
  -29.8121  -17.0214   20.5265 C   0  0  0  0  0  0
  -30.2165  -18.0979   21.5936 C   0  0  1  0  0  0
  -27.1507  -22.3653   21.5450 C   0  0  0  0  0  0
  -30.3258  -20.3488   22.6303 C   0  0  0  0  0  0
  -29.5570  -20.2910   20.2761 C   0  0  0  0  0  0
  -28.0840  -25.3108   21.0010 C   0  0  0  0  0  0
  -29.9522  -24.0820   19.9217 N   0  0  0  0  0  0
  -28.7599  -24.0482   20.5544 N   0  0  0  0  0  0
  -30.0004  -15.6506   21.1265 N   0  0  0  0  0  0
  -29.6603  -19.5288   21.5806 N   0  3  1  0  0  0
  -31.4744  -12.4878   19.1516 H   0  0  0  0  0  0
  -30.3493  -11.3847   19.8892 H   0  0  0  0  0  0
  -29.7666  -11.7657   17.4730 H   0  0  0  0  0  0
  -29.6505  -13.4840   17.7528 H   0  0  0  0  0  0
  -27.8618  -11.2955   18.8616 H   0  0  0  0  0  0
  -27.3742  -12.5892   17.7967 H   0  0  0  0  0  0
  -27.6795  -14.2562   19.5338 H   0  0  0  0  0  0
  -28.7009  -12.0429   21.3808 H   0  0  0  0  0  0
  -28.4280  -13.6976   21.8413 H   0  0  0  0  0  0
  -25.2768   -9.5675   22.4732 H   0  0  0  0  0  0
  -24.0005   -7.4633   22.7461 H   0  0  0  0  0  0
  -21.0829   -8.8758   19.8960 H   0  0  0  0  0  0
  -22.3683  -10.9654   19.6150 H   0  0  0  0  0  0
  -21.2018   -7.6143   23.9698 H   0  0  0  0  0  0
  -21.1483   -6.0522   25.9066 H   0  0  0  0  0  0
  -22.0604   -2.7603   23.2834 H   0  0  0  0  0  0
  -22.4115  -11.9884   22.4787 H   0  0  0  0  0  0
  -21.1116  -13.1243   22.2632 H   0  0  0  0  0  0
  -24.6684  -15.8509   20.5160 H   0  0  0  0  0  0
  -26.2919  -15.6248   20.1070 H   0  0  0  0  0  0
  -26.7153  -32.5481   23.1110 H   0  0  0  0  0  0
  -25.0061  -33.9741   25.0437 H   0  0  0  0  0  0
  -22.7067  -31.3038   21.4044 H   0  0  0  0  0  0
  -23.3756  -35.9631   23.3282 H   0  0  0  0  0  0
  -24.3591  -36.8936   22.2052 H   0  0  0  0  0  0
  -23.7241  -37.6500   23.6662 H   0  0  0  0  0  0
  -26.0758  -31.5709   20.6025 H   0  0  0  0  0  0
  -26.8361  -30.8582   21.9938 H   0  0  0  0  0  0
  -28.1093  -29.0103   21.2045 H   0  0  0  0  0  0
  -26.0231  -25.9364   19.0148 H   0  0  0  0  0  0
  -23.9794  -27.3107   19.0041 H   0  0  0  0  0  0
  -23.7416  -30.5985   19.4016 H   0  0  0  0  0  0
  -22.7510  -29.2463   19.8589 H   0  0  0  0  0  0
  -25.1289  -36.1949   25.0820 H   0  0  0  0  0  0
  -20.9976  -28.3258   24.1417 H   0  0  0  0  0  0
  -20.5691  -26.2283   23.3609 H   0  0  0  0  0  0
  -21.6650  -26.7451   22.1207 H   0  0  0  0  0  0
  -19.6924  -25.6300   21.1237 H   0  0  0  0  0  0
  -19.6696  -27.3202   20.6748 H   0  0  0  0  0  0
  -17.4206  -26.6668   21.4024 H   0  0  0  0  0  0
  -18.0334  -26.0066   22.9019 H   0  0  0  0  0  0
  -19.7936  -30.7264   24.2283 H   0  0  0  0  0  0
  -17.5012  -31.6266   24.5162 H   0  0  0  0  0  0
  -15.5350  -30.2988   23.7643 H   0  0  0  0  0  0
  -15.8668  -28.0820   22.7063 H   0  0  0  0  0  0
  -24.5874  -30.7122   25.7791 H   0  0  0  0  0  0
  -24.8976  -32.2906   26.4921 H   0  0  0  0  0  0
  -25.8069  -30.8866   27.0203 H   0  0  0  0  0  0
  -26.2838  -29.6779   24.1174 H   0  0  0  0  0  0
  -27.4027  -29.7245   25.4605 H   0  0  0  0  0  0
  -27.8705  -30.4295   23.9307 H   0  0  0  0  0  0
  -27.2699  -33.3614   26.2040 H   0  0  0  0  0  0
  -28.3870  -32.6843   25.0281 H   0  0  0  0  0  0
  -28.0730  -31.8422   26.5380 H   0  0  0  0  0  0
  -28.2595  -38.0105   24.7518 H   0  0  0  0  0  0
  -28.1086  -36.2640   24.6264 H   0  0  0  0  0  0
  -27.2307  -37.1434   25.8863 H   0  0  0  0  0  0
  -20.9345  -29.8750   21.6900 H   0  0  0  0  0  0
  -26.0178  -38.2859   24.1415 H   0  0  0  0  0  0
  -31.2482  -22.6007   19.2667 H   0  0  0  0  0  0
  -30.4282  -17.6593   23.7493 H   0  0  0  0  0  0
  -28.8068  -17.4396   23.1014 H   0  0  0  0  0  0
  -29.5075  -15.1996   23.1477 H   0  0  0  0  0  0
  -31.1887  -15.6219   22.8649 H   0  0  0  0  0  0
  -30.3971  -17.1428   19.6131 H   0  0  0  0  0  0
  -28.7620  -17.1256   20.2531 H   0  0  0  0  0  0
  -31.3040  -18.1840   21.5385 H   0  0  0  0  0  0
  -27.0466  -21.2901   21.6853 H   0  0  0  0  0  0
  -26.2722  -22.7140   21.0016 H   0  0  0  0  0  0
  -27.1415  -22.8273   22.5326 H   0  0  0  0  0  0
  -30.3570  -19.8471   23.5947 H   0  0  0  0  0  0
  -29.8033  -21.2863   22.8154 H   0  0  0  0  0  0
  -31.3525  -20.5850   22.3479 H   0  0  0  0  0  0
  -30.4538  -20.0485   19.7047 H   0  0  0  0  0  0
  -28.7412  -19.8455   19.7053 H   0  0  0  0  0  0
  -28.4450  -25.5368   22.0054 H   0  0  0  0  0  0
  -27.0201  -25.0892   21.0987 H   0  0  0  0  0  0
  -28.7037  -19.4370   21.8873 H   0  0  0  0  0  0
  1 25  1  0  0  0
  1 30  2  0  0  0
  1 84  1  0  0  0
  2  3  1  0  0  0
  2 25  1  0  0  0
  2 86  1  0  0  0
  2 87  1  0  0  0
  3  4  1  0  0  0
  3 88  1  0  0  0
  3 89  1  0  0  0
  4  5  1  0  0  0
  4 90  1  0  0  0
  4 91  1  0  0  0
  5  6  1  0  0  0
  5 26  1  0  0  0
  5 92  1  0  0  0
  6 25  1  0  0  0
  6 93  1  0  0  0
  6 94  1  0  0  0
  7  8  2  0  0  0
  7 26  1  0  0  0
  7 29  1  0  0  0
  8  9  1  0  0  0
  8 22  1  0  0  0
  9 10  1  0  0  0
  9 27  2  0  0  0
 10 11  2  0  0  0
 10 15  1  0  0  0
 11 12  1  0  0  0
 11 95  1  0  0  0
 12 13  2  0  0  0
 12 96  1  0  0  0
 13 14  1  0  0  0
 13 31  1  0  0  0
 14 15  2  0  0  0
 14 97  1  0  0  0
 15 98  1  0  0  0
 16 17  2  0  0  0
 16 21  1  0  0  0
 16 31  1  0  0  0
 17 18  1  0  0  0
 17 99  1  0  0  0
 18 19  2  0  0  0
 18100  1  0  0  0
 19 20  1  0  0  0
 19 24  1  0  0  0
 20 21  2  0  0  0
 20101  1  0  0  0
 21 23  1  0  0  0
 22 28  1  0  0  0
 22 32  2  0  0  0
 26 27  1  0  0  0
 28102  1  0  0  0
 28103  1  0  0  0
 29104  1  0  0  0
 29105  1  0  0  0
 33 34  1  0  0  0
 33 66  1  0  0  0
 33 70  2  0  0  0
 34 36  1  0  0  0
 34 59  1  0  0  0
 34106  1  0  0  0
 35 44  2  0  0  0
 35 45  1  0  0  0
 35 68  1  0  0  0
 36 56  1  0  0  0
 36107  1  0  0  0
 37 39  1  0  0  0
 37 47  1  0  0  0
 37 66  1  0  0  0
 37108  1  0  0  0
 38 43  2  0  0  0
 38 46  1  0  0  0
 38 47  1  0  0  0
 39 64  1  0  0  0
 39 67  2  0  0  0
 40 52  1  0  0  0
 40 53  2  0  0  0
 40 58  1  0  0  0
 41109  1  0  0  0
 41110  1  0  0  0
 41111  1  0  0  0
 41 48  1  0  0  0
 42 43  1  0  0  0
 42 66  1  0  0  0
 42112  1  0  0  0
 42113  1  0  0  0
 43 44  1  0  0  0
 44114  1  0  0  0
 45 46  2  0  0  0
 45115  1  0  0  0
 46116  1  0  0  0
 47117  1  0  0  0
 47118  1  0  0  0
 48 56  1  0  0  0
 48 65  1  0  0  0
 48119  1  0  0  0
 49 50  1  0  0  0
 49 53  1  0  0  0
 49 64  1  0  0  0
 49120  1  0  0  0
 50 51  1  0  0  0
 50121  1  0  0  0
 50122  1  0  0  0
 51 52  1  0  0  0
 51123  1  0  0  0
 51124  1  0  0  0
 52125  1  0  0  0
 52126  1  0  0  0
 53 54  1  0  0  0
 54 55  2  0  0  0
 54127  1  0  0  0
 55 57  1  0  0  0
 55128  1  0  0  0
 56 69  2  0  0  0
 57 58  2  0  0  0
 57129  1  0  0  0
 58130  1  0  0  0
 59 60  1  0  0  0
 59 61  1  0  0  0
 59 62  1  0  0  0
 60131  1  0  0  0
 60132  1  0  0  0
 60133  1  0  0  0
 61134  1  0  0  0
 61135  1  0  0  0
 61136  1  0  0  0
 62137  1  0  0  0
 62138  1  0  0  0
 62139  1  0  0  0
 63 65  1  0  0  0
 63140  1  0  0  0
 63141  1  0  0  0
 63142  1  0  0  0
 64143  1  0  0  0
 65144  1  0  0  0
 68 81  1  0  0  0
 71 72  1  0  0  0
 71 82  2  0  0  0
 71145  1  0  0  0
 72 73  2  0  0  0
 72 80  1  0  0  0
 73 78  1  0  0  0
 73 83  1  0  0  0
 74 75  1  0  0  0
 74146  1  0  0  0
 74147  1  0  0  0
 74 77  1  0  0  0
 75 84  1  0  0  0
 75148  1  0  0  0
 75149  1  0  0  0
 76 77  1  0  0  0
 76 84  1  0  0  0
 76150  1  0  0  0
 76151  1  0  0  0
 77 85  1  0  0  0
 77152  1  0  0  0
 78153  1  0  0  0
 78154  1  0  0  0
 78155  1  0  0  0
 79156  1  0  0  0
 79157  1  0  0  0
 79158  1  0  0  0
 79 85  1  0  0  0
 80 85  1  0  0  0
 80159  1  0  0  0
 80160  1  0  0  0
 81 83  1  0  0  0
 81161  1  0  0  0
 81162  1  0  0  0
 82 83  1  0  0  0
 85163  1  0  0  0
M  CHG  1  85   1
M  ISO  4   1 100  68 101  81 101  84 100
M  END
> <chiral flag>
0

> <version>
0

> <s_m_source_file>
/data/baiqing/PycharmProjects/Reinvent-master-3.2/result/LINK_invent/BTK/process_docking_weight1_custom_sum_contain_oxygen_bond_distance_aromatic_linkinvent_7_9_3/rearranged_h_0185.sdf

> <i_m_source_file_index>
44

> <r_mmod_Potential_Energy-OPLS-2005>
104.701370239258

> <r_mmod_Stretch_Energy-OPLS-2005>
75.5155792236328

> <r_mmod_Bend_Energy-OPLS-2005>
163.514358520508

> <r_mmod_Torsional_Energy-OPLS-2005>
359.885406494141

> <r_mmod_Improper_Torsional_Energy-OPLS-2005>
7.31910037994385

> <r_mmod_Van_der_Waal_Energy-OPLS-2005>
117.701240539551

> <r_mmod_Electrostatic_Energy-OPLS-2005>
-189.313446044922

> <r_mmod_Solvation_Energy-OPLS-2005>
-468.743377685547

> <b_mmod_Minimization_Converged-OPLS-2005>
0

> <r_mmod_RMS_Derivative-OPLS-2005>
1.50396001338959

$$$$
44
                    3D
 Structure written by MMmdl.
145153  0  0  1  0            999 V2000
  -30.4081  -15.4958   20.3484 C   0  0  0  0  0  0
  -30.4148  -12.9925   19.5146 C   0  0  0  0  0  0
  -29.5309  -12.6169   18.2980 C   0  0  0  0  0  0
  -28.1001  -12.2907   18.7490 C   0  0  0  0  0  0
  -27.5931  -13.2992   19.8068 C   0  0  2  0  0  0
  -28.6195  -13.6078   20.9198 C   0  0  0  0  0  0
  -25.2333  -13.8287   20.5807 C   0  0  0  0  0  0
  -24.1708  -13.0443   20.9286 C   0  0  0  0  0  0
  -24.6396  -11.6949   20.8772 C   0  0  0  0  0  0
  -23.9102  -10.4297   21.0404 C   0  0  0  0  0  0
  -24.3644   -9.4209   21.9182 C   0  0  0  0  0  0
  -23.6310   -8.2247   22.0753 C   0  0  0  0  0  0
  -22.4291   -8.0286   21.3544 C   0  0  0  0  0  0
  -21.9934   -9.0261   20.4644 C   0  0  0  0  0  0
  -22.7272  -10.2136   20.3053 C   0  0  0  0  0  0
  -21.6858   -6.0740   22.5279 C   0  0  0  0  0  0
  -21.4018   -6.5642   23.8212 C   0  0  0  0  0  0
  -21.3661   -5.6794   24.9174 C   0  0  0  0  0  0
  -21.6044   -4.3057   24.7224 C   0  0  0  0  0  0
  -21.8818   -3.8149   23.4345 C   0  0  0  0  0  0
  -21.9194   -4.6967   22.3401 C   0  0  0  0  0  0
  -22.7723  -13.5177   21.1921 C   0  0  0  0  0  0
  -22.1662   -4.2152   21.0979 F   0  0  0  0  0  0
  -21.5627   -3.4540   25.7736 F   0  0  0  0  0  0
  -29.8025  -14.1842   20.2468 N   0  0  0  0  0  0
  -26.2760  -12.9598   20.3238 N   0  0  0  0  0  0
  -25.9338  -11.6678   20.5718 N   0  0  0  0  0  0
  -22.0388  -12.8151   22.0471 N   0  0  0  0  0  0
  -25.3974  -15.2027   20.4279 N   0  0  0  0  0  0
  -31.6423  -15.3626   20.2655 O   0  0  0  0  0  0
  -21.6648   -6.8886   21.4242 O   0  0  0  0  0  0
  -22.3398  -14.5475   20.6757 O   0  0  0  0  0  0
  -24.6772  -31.8083   23.1581 C   0  0  0  0  0  0
  -25.9386  -32.4509   23.8100 C   0  0  1  0  0  0
  -27.2161  -26.7758   20.2085 C   0  0  0  0  0  0
  -25.5993  -33.8331   24.1993 N   0  0  0  0  0  0
  -23.4989  -30.4144   21.5113 C   0  0  2  0  0  0
  -24.9529  -28.7697   20.1201 C   0  0  0  0  0  0
  -22.7734  -29.4364   22.4740 C   0  0  0  0  0  0
  -18.0334  -28.1417   22.8459 C   0  0  0  0  0  0
  -24.1495  -36.7172   23.2652 C   0  0  0  0  0  0
  -26.0767  -30.5661   21.4105 C   0  0  0  0  0  0
  -26.1425  -29.1386   20.7603 C   0  0  0  0  0  0
  -27.2659  -28.1689   20.7701 C   0  0  0  0  0  0
  -25.9936  -26.5968   19.5178 C   0  0  0  0  0  0
  -24.9128  -27.5227   19.4757 C   0  0  0  0  0  0
  -23.7479  -29.7180   20.1440 C   0  0  0  0  0  0
  -25.4143  -36.2920   24.0287 C   0  0  1  0  0  0
  -20.5966  -28.3773   23.1158 C   0  0  2  0  0  0
  -20.6804  -26.9440   22.5401 C   0  0  0  0  0  0
  -19.5779  -26.6374   21.5215 C   0  0  0  0  0  0
  -18.1961  -26.7947   22.1621 C   0  0  0  0  0  0
  -19.1598  -28.8918   23.2791 C   0  0  0  0  0  0
  -18.9505  -30.1504   23.8834 C   0  0  0  0  0  0
  -17.6495  -30.6602   24.0552 C   0  0  0  0  0  0
  -25.9117  -34.9308   23.4971 C   0  0  0  0  0  0
  -16.5386  -29.9085   23.6348 C   0  0  0  0  0  0
  -16.7314  -28.6507   23.0365 C   0  0  0  0  0  0
  -26.4585  -31.6513   25.0692 C   0  0  0  0  0  0
  -25.3669  -31.3808   26.1318 C   0  0  0  0  0  0
  -27.0507  -30.2861   24.6536 C   0  0  0  0  0  0
  -27.6045  -32.4359   25.7508 C   0  0  0  0  0  0
  -27.5564  -37.1747   24.8469 C   0  0  0  0  0  0
  -21.4389  -29.3037   22.3490 N   0  0  0  0  0  0
  -26.4277  -37.3671   23.9403 N   0  0  0  0  0  0
  -24.7739  -30.9604   22.0795 N   0  0  0  0  0  0
  -23.4213  -28.7951   23.3047 O   0  0  0  0  0  0
  -28.1915  -25.5938   20.2380 O   0  0  0  0  0  0
  -26.5747  -34.8870   22.4581 O   0  0  0  0  0  0
  -23.5808  -32.1122   23.6583 O   0  0  0  0  0  0
  -28.8724  -22.3900   20.0682 C   0  0  0  0  0  0
  -30.4264  -18.3487   20.7615 C   0  0  0  0  0  0
  -28.5625  -17.8356   20.1691 C   0  0  0  0  0  0
  -29.3289  -19.3203   19.9885 C   0  0  0  0  0  0
  -27.8948  -23.9033   20.3923 C   0  0  0  0  0  0
  -29.8304  -16.9279   20.3992 N   0  0  0  0  0  0
  -28.7271  -20.9046   20.4218 N   0  0  0  0  0  0
  -29.8567  -22.6216   19.3620 O   0  0  0  0  0  0
  -31.4170  -13.2216   19.1504 H   0  0  0  0  0  0
  -30.5422  -12.1391   20.1828 H   0  0  0  0  0  0
  -29.9593  -11.7711   17.7583 H   0  0  0  0  0  0
  -29.5102  -13.4520   17.5962 H   0  0  0  0  0  0
  -28.1096  -11.2880   19.1781 H   0  0  0  0  0  0
  -27.4250  -12.2531   17.8931 H   0  0  0  0  0  0
  -27.4628  -14.2275   19.2486 H   0  0  0  0  0  0
  -28.8579  -12.7229   21.5118 H   0  0  0  0  0  0
  -28.2124  -14.3462   21.6125 H   0  0  0  0  0  0
  -25.2783   -9.5685   22.4766 H   0  0  0  0  0  0
  -24.0013   -7.4639   22.7476 H   0  0  0  0  0  0
  -21.0864   -8.8786   19.8950 H   0  0  0  0  0  0
  -22.3728  -10.9678   19.6166 H   0  0  0  0  0  0
  -21.2013   -7.6151   23.9716 H   0  0  0  0  0  0
  -21.1482   -6.0524   25.9077 H   0  0  0  0  0  0
  -22.0596   -2.7611   23.2844 H   0  0  0  0  0  0
  -22.4032  -11.9827   22.4864 H   0  0  0  0  0  0
  -21.0994  -13.1144   22.2671 H   0  0  0  0  0  0
  -24.6328  -15.8572   20.5531 H   0  0  0  0  0  0
  -26.2545  -15.6455   20.1235 H   0  0  0  0  0  0
  -26.7464  -32.5003   23.0813 H   0  0  0  0  0  0
  -25.0063  -33.9382   25.0093 H   0  0  0  0  0  0
  -22.8202  -31.2501   21.3280 H   0  0  0  0  0  0
  -23.3770  -35.9489   23.3279 H   0  0  0  0  0  0
  -24.3563  -36.8864   22.2073 H   0  0  0  0  0  0
  -23.7244  -37.6341   23.6745 H   0  0  0  0  0  0
  -26.2719  -31.2960   20.6239 H   0  0  0  0  0  0
  -26.9307  -30.6305   22.0725 H   0  0  0  0  0  0
  -28.1671  -28.4579   21.2922 H   0  0  0  0  0  0
  -25.8390  -25.6523   19.0165 H   0  0  0  0  0  0
  -24.0134  -27.2330   18.9497 H   0  0  0  0  0  0
  -23.9193  -30.4805   19.3834 H   0  0  0  0  0  0
  -22.8535  -29.1824   19.8208 H   0  0  0  0  0  0
  -25.1351  -36.1696   25.0778 H   0  0  0  0  0  0
  -21.0049  -28.3391   24.1283 H   0  0  0  0  0  0
  -20.5675  -26.2395   23.3656 H   0  0  0  0  0  0
  -21.6666  -26.7395   22.1215 H   0  0  0  0  0  0
  -19.6936  -25.6268   21.1287 H   0  0  0  0  0  0
  -19.6719  -27.3148   20.6717 H   0  0  0  0  0  0
  -17.4230  -26.6688   21.4025 H   0  0  0  0  0  0
  -18.0353  -26.0105   22.9032 H   0  0  0  0  0  0
  -19.7980  -30.7337   24.2175 H   0  0  0  0  0  0
  -17.5046  -31.6275   24.5167 H   0  0  0  0  0  0
  -15.5383  -30.2966   23.7708 H   0  0  0  0  0  0
  -15.8715  -28.0803   22.7117 H   0  0  0  0  0  0
  -24.5875  -30.7134   25.7619 H   0  0  0  0  0  0
  -24.8833  -32.3022   26.4570 H   0  0  0  0  0  0
  -25.7862  -30.9085   27.0211 H   0  0  0  0  0  0
  -26.3209  -29.6494   24.1525 H   0  0  0  0  0  0
  -27.3961  -29.7282   25.5251 H   0  0  0  0  0  0
  -27.9180  -30.4005   24.0031 H   0  0  0  0  0  0
  -27.2591  -33.3721   26.1906 H   0  0  0  0  0  0
  -28.3950  -32.6823   25.0406 H   0  0  0  0  0  0
  -28.0610  -31.8608   26.5574 H   0  0  0  0  0  0
  -28.2565  -38.0057   24.7499 H   0  0  0  0  0  0
  -28.1077  -36.2579   24.6320 H   0  0  0  0  0  0
  -27.2275  -37.1414   25.8870 H   0  0  0  0  0  0
  -20.9676  -29.8706   21.6577 H   0  0  0  0  0  0
  -26.0112  -38.2725   24.1403 H   0  0  0  0  0  0
  -30.4374  -18.5281   21.8382 H   0  0  0  0  0  0
  -31.4380  -18.4990   20.3820 H   0  0  0  0  0  0
  -27.9925  -17.5619   19.2804 H   0  0  0  0  0  0
  -27.8876  -17.8267   21.0270 H   0  0  0  0  0  0
  -29.6536  -19.3703   18.9483 H   0  0  0  0  0  0
  -27.5723  -23.7876   21.4269 H   0  0  0  0  0  0
  -26.9858  -23.7380   19.8150 H   0  0  0  0  0  0
  -27.9386  -20.8067   21.0489 H   0  0  0  0  0  0
  1 25  1  0  0  0
  1 30  2  0  0  0
  1 76  1  0  0  0
  2  3  1  0  0  0
  2 25  1  0  0  0
  2 79  1  0  0  0
  2 80  1  0  0  0
  3  4  1  0  0  0
  3 81  1  0  0  0
  3 82  1  0  0  0
  4  5  1  0  0  0
  4 83  1  0  0  0
  4 84  1  0  0  0
  5  6  1  0  0  0
  5 26  1  0  0  0
  5 85  1  0  0  0
  6 25  1  0  0  0
  6 86  1  0  0  0
  6 87  1  0  0  0
  7  8  2  0  0  0
  7 26  1  0  0  0
  7 29  1  0  0  0
  8  9  1  0  0  0
  8 22  1  0  0  0
  9 10  1  0  0  0
  9 27  2  0  0  0
 10 11  2  0  0  0
 10 15  1  0  0  0
 11 12  1  0  0  0
 11 88  1  0  0  0
 12 13  2  0  0  0
 12 89  1  0  0  0
 13 14  1  0  0  0
 13 31  1  0  0  0
 14 15  2  0  0  0
 14 90  1  0  0  0
 15 91  1  0  0  0
 16 17  2  0  0  0
 16 21  1  0  0  0
 16 31  1  0  0  0
 17 18  1  0  0  0
 17 92  1  0  0  0
 18 19  2  0  0  0
 18 93  1  0  0  0
 19 20  1  0  0  0
 19 24  1  0  0  0
 20 21  2  0  0  0
 20 94  1  0  0  0
 21 23  1  0  0  0
 22 28  1  0  0  0
 22 32  2  0  0  0
 26 27  1  0  0  0
 28 95  1  0  0  0
 28 96  1  0  0  0
 29 97  1  0  0  0
 29 98  1  0  0  0
 33 34  1  0  0  0
 33 66  1  0  0  0
 33 70  2  0  0  0
 34 36  1  0  0  0
 34 59  1  0  0  0
 34 99  1  0  0  0
 35 44  2  0  0  0
 35 45  1  0  0  0
 35 68  1  0  0  0
 36 56  1  0  0  0
 36100  1  0  0  0
 37 39  1  0  0  0
 37 47  1  0  0  0
 37 66  1  0  0  0
 37101  1  0  0  0
 38 43  2  0  0  0
 38 46  1  0  0  0
 38 47  1  0  0  0
 39 64  1  0  0  0
 39 67  2  0  0  0
 40 52  1  0  0  0
 40 53  2  0  0  0
 40 58  1  0  0  0
 41102  1  0  0  0
 41103  1  0  0  0
 41104  1  0  0  0
 41 48  1  0  0  0
 42 43  1  0  0  0
 42 66  1  0  0  0
 42105  1  0  0  0
 42106  1  0  0  0
 43 44  1  0  0  0
 44107  1  0  0  0
 45 46  2  0  0  0
 45108  1  0  0  0
 46109  1  0  0  0
 47110  1  0  0  0
 47111  1  0  0  0
 48 56  1  0  0  0
 48 65  1  0  0  0
 48112  1  0  0  0
 49 50  1  0  0  0
 49 53  1  0  0  0
 49 64  1  0  0  0
 49113  1  0  0  0
 50 51  1  0  0  0
 50114  1  0  0  0
 50115  1  0  0  0
 51 52  1  0  0  0
 51116  1  0  0  0
 51117  1  0  0  0
 52118  1  0  0  0
 52119  1  0  0  0
 53 54  1  0  0  0
 54 55  2  0  0  0
 54120  1  0  0  0
 55 57  1  0  0  0
 55121  1  0  0  0
 56 69  2  0  0  0
 57 58  2  0  0  0
 57122  1  0  0  0
 58123  1  0  0  0
 59 60  1  0  0  0
 59 61  1  0  0  0
 59 62  1  0  0  0
 60124  1  0  0  0
 60125  1  0  0  0
 60126  1  0  0  0
 61127  1  0  0  0
 61128  1  0  0  0
 61129  1  0  0  0
 62130  1  0  0  0
 62131  1  0  0  0
 62132  1  0  0  0
 63 65  1  0  0  0
 63133  1  0  0  0
 63134  1  0  0  0
 63135  1  0  0  0
 64136  1  0  0  0
 65137  1  0  0  0
 68 75  1  0  0  0
 71 75  1  0  0  0
 71 77  1  0  0  0
 71 78  2  0  0  0
 72 74  1  0  0  0
 72 76  1  0  0  0
 72138  1  0  0  0
 72139  1  0  0  0
 73 74  1  0  0  0
 73 76  1  0  0  0
 73140  1  0  0  0
 73141  1  0  0  0
 74 77  1  0  0  0
 74142  1  0  0  0
 75143  1  0  0  0
 75144  1  0  0  0
 77145  1  0  0  0
M  ISO  4   1 100  68 101  75 101  76 100
M  END
> <chiral flag>
0

> <version>
0

> <s_m_source_file>
/data/baiqing/PycharmProjects/Reinvent-master-3.2/result/LINK_invent/BTK/process_docking_weight1_custom_sum_contain_oxygen_bond_distance_aromatic_linkinvent_7_9_3/rearranged_h_0185.sdf

> <i_m_source_file_index>
45

> <r_mmod_Potential_Energy-OPLS-2005>
1916.150390625

> <r_mmod_Stretch_Energy-OPLS-2005>
813.717529296875

> <r_mmod_Bend_Energy-OPLS-2005>
614.75732421875

> <r_mmod_Torsional_Energy-OPLS-2005>
263.680816650391

> <r_mmod_Improper_Torsional_Energy-OPLS-2005>
3.26704788208008

> <r_mmod_Van_der_Waal_Energy-OPLS-2005>
107.196647644043

> <r_mmod_Electrostatic_Energy-OPLS-2005>
-342.6494140625

> <r_mmod_Solvation_Energy-OPLS-2005>
-265.666809082031

> <b_mmod_Minimization_Converged-OPLS-2005>
1

> <r_mmod_RMS_Derivative-OPLS-2005>
0.0463055744767189

$$$$
45
                    3D
 Structure written by MMmdl.
153161  0  0  1  0            999 V2000
  -30.4057  -15.3223   20.3538 C   0  0  0  0  0  0
  -30.4374  -12.8443   19.5408 C   0  0  0  0  0  0
  -29.5430  -12.5933   18.2983 C   0  0  0  0  0  0
  -28.0937  -12.3005   18.7222 C   0  0  0  0  0  0
  -27.6101  -13.2795   19.8209 C   0  0  2  0  0  0
  -28.6362  -13.4765   20.9591 C   0  0  0  0  0  0
  -25.2390  -13.8250   20.5742 C   0  0  0  0  0  0
  -24.1745  -13.0438   20.9255 C   0  0  0  0  0  0
  -24.6400  -11.6936   20.8756 C   0  0  0  0  0  0
  -23.9091  -10.4296   21.0402 C   0  0  0  0  0  0
  -24.3635   -9.4214   21.9184 C   0  0  0  0  0  0
  -23.6305   -8.2252   22.0751 C   0  0  0  0  0  0
  -22.4286   -8.0294   21.3550 C   0  0  0  0  0  0
  -21.9930   -9.0264   20.4647 C   0  0  0  0  0  0
  -22.7264  -10.2138   20.3052 C   0  0  0  0  0  0
  -21.6859   -6.0749   22.5283 C   0  0  0  0  0  0
  -21.4023   -6.5644   23.8223 C   0  0  0  0  0  0
  -21.3650   -5.6791   24.9177 C   0  0  0  0  0  0
  -21.6042   -4.3054   24.7223 C   0  0  0  0  0  0
  -21.8817   -3.8153   23.4339 C   0  0  0  0  0  0
  -21.9192   -4.6974   22.3403 C   0  0  0  0  0  0
  -22.7760  -13.5204   21.1892 C   0  0  0  0  0  0
  -22.1664   -4.2162   21.0979 F   0  0  0  0  0  0
  -21.5616   -3.4534   25.7729 F   0  0  0  0  0  0
  -29.8664  -13.9970   20.3395 N   0  0  0  0  0  0
  -26.2808  -12.9529   20.3186 N   0  0  0  0  0  0
  -25.9337  -11.6627   20.5696 N   0  0  0  0  0  0
  -22.0403  -12.8201   22.0440 N   0  0  0  0  0  0
  -25.4019  -15.1988   20.4176 N   0  0  0  0  0  0
  -31.6181  -15.3290   20.0925 O   0  0  0  0  0  0
  -21.6645   -6.8893   21.4248 O   0  0  0  0  0  0
  -22.3449  -14.5501   20.6719 O   0  0  0  0  0  0
  -24.6656  -31.8190   23.1669 C   0  0  0  0  0  0
  -25.9328  -32.4554   23.8140 C   0  0  1  0  0  0
  -27.2222  -26.8945   20.1872 C   0  0  0  0  0  0
  -25.5979  -33.8372   24.2044 N   0  0  0  0  0  0
  -23.4814  -30.4300   21.5157 C   0  0  2  0  0  0
  -24.9368  -28.8089   20.1076 C   0  0  0  0  0  0
  -22.7671  -29.4426   22.4761 C   0  0  0  0  0  0
  -18.0320  -28.1412   22.8465 C   0  0  0  0  0  0
  -24.1499  -36.7200   23.2647 C   0  0  0  0  0  0
  -26.0517  -30.6140   21.4027 C   0  0  0  0  0  0
  -26.1183  -29.2006   20.7482 C   0  0  0  0  0  0
  -27.2497  -28.2629   20.7665 C   0  0  0  0  0  0
  -26.0156  -26.6669   19.4857 C   0  0  0  0  0  0
  -24.9130  -27.5641   19.4560 C   0  0  0  0  0  0
  -23.7225  -29.7401   20.1429 C   0  0  0  0  0  0
  -25.4138  -36.2950   24.0296 C   0  0  1  0  0  0
  -20.5949  -28.3755   23.1180 C   0  0  2  0  0  0
  -20.6798  -26.9433   22.5401 C   0  0  0  0  0  0
  -19.5773  -26.6375   21.5212 C   0  0  0  0  0  0
  -18.1951  -26.7943   22.1619 C   0  0  0  0  0  0
  -19.1582  -28.8901   23.2811 C   0  0  0  0  0  0
  -18.9493  -30.1490   23.8847 C   0  0  0  0  0  0
  -17.6486  -30.6604   24.0546 C   0  0  0  0  0  0
  -25.9103  -34.9333   23.4997 C   0  0  0  0  0  0
  -16.5373  -29.9087   23.6346 C   0  0  0  0  0  0
  -16.7301  -28.6507   23.0362 C   0  0  0  0  0  0
  -26.4575  -31.6515   25.0683 C   0  0  0  0  0  0
  -25.3696  -31.3779   26.1334 C   0  0  0  0  0  0
  -27.0475  -30.2869   24.6452 C   0  0  0  0  0  0
  -27.6053  -32.4338   25.7491 C   0  0  0  0  0  0
  -27.5577  -37.1751   24.8462 C   0  0  0  0  0  0
  -21.4337  -29.3043   22.3517 N   0  0  0  0  0  0
  -26.4278  -37.3693   23.9408 N   0  0  0  0  0  0
  -24.7544  -30.9830   22.0817 N   0  0  0  0  0  0
  -23.4206  -28.7995   23.3009 O   0  0  0  0  0  0
  -28.2244  -25.7834   20.3191 O   0  0  0  0  0  0
  -26.5724  -34.8884   22.4597 O   0  0  0  0  0  0
  -23.5721  -32.1176   23.6747 O   0  0  0  0  0  0
  -28.8140  -18.7831   18.9137 C   0  0  0  0  0  0
  -28.4041  -20.3509   19.0110 C   0  0  0  0  0  0
  -29.6996  -18.2496   20.1043 C   0  0  1  0  0  0
  -29.3523  -19.6902   21.0003 C   0  0  1  0  0  0
  -30.4075  -19.9288   22.0857 C   0  0  0  0  0  0
  -28.6004  -22.5670   20.6908 C   0  0  0  0  0  0
  -28.2076  -24.1630   19.8954 C   0  0  0  0  0  0
  -29.6203  -16.5914   20.4673 N   0  0  0  0  0  0
  -29.0999  -21.0423   20.1392 N   0  3  2  0  0  0
  -31.4570  -13.0504   19.2126 H   0  0  0  0  0  0
  -30.5091  -11.9441   20.1539 H   0  0  0  0  0  0
  -29.9384  -11.7685   17.7037 H   0  0  0  0  0  0
  -29.5644  -13.4729   17.6534 H   0  0  0  0  0  0
  -28.0616  -11.2797   19.1042 H   0  0  0  0  0  0
  -27.4272  -12.3257   17.8586 H   0  0  0  0  0  0
  -27.5198  -14.2407   19.3122 H   0  0  0  0  0  0
  -28.8116  -12.5506   21.5087 H   0  0  0  0  0  0
  -28.2608  -14.2016   21.6835 H   0  0  0  0  0  0
  -25.2779   -9.5690   22.4761 H   0  0  0  0  0  0
  -24.0011   -7.4641   22.7477 H   0  0  0  0  0  0
  -21.0857   -8.8783   19.8960 H   0  0  0  0  0  0
  -22.3719  -10.9673   19.6157 H   0  0  0  0  0  0
  -21.2031   -7.6155   23.9736 H   0  0  0  0  0  0
  -21.1467   -6.0516   25.9081 H   0  0  0  0  0  0
  -22.0604   -2.7616   23.2834 H   0  0  0  0  0  0
  -22.4003  -11.9876   22.4867 H   0  0  0  0  0  0
  -21.1014  -13.1229   22.2615 H   0  0  0  0  0  0
  -24.6281  -15.8455   20.5249 H   0  0  0  0  0  0
  -26.2363  -15.6363   20.0494 H   0  0  0  0  0  0
  -26.7390  -32.5085   23.0845 H   0  0  0  0  0  0
  -25.0060  -33.9431   25.0148 H   0  0  0  0  0  0
  -22.7973  -31.2629   21.3415 H   0  0  0  0  0  0
  -23.3773  -35.9520   23.3266 H   0  0  0  0  0  0
  -24.3579  -36.8889   22.2072 H   0  0  0  0  0  0
  -23.7247  -37.6370   23.6733 H   0  0  0  0  0  0
  -26.2378  -31.3533   20.6223 H   0  0  0  0  0  0
  -26.9095  -30.6710   22.0608 H   0  0  0  0  0  0
  -28.1375  -28.5587   21.3083 H   0  0  0  0  0  0
  -25.8804  -25.7197   18.9868 H   0  0  0  0  0  0
  -24.0175  -27.2594   18.9327 H   0  0  0  0  0  0
  -23.8764  -30.5061   19.3822 H   0  0  0  0  0  0
  -22.8318  -29.1938   19.8269 H   0  0  0  0  0  0
  -25.1341  -36.1739   25.0787 H   0  0  0  0  0  0
  -21.0042  -28.3372   24.1302 H   0  0  0  0  0  0
  -20.5673  -26.2374   23.3645 H   0  0  0  0  0  0
  -21.6661  -26.7402   22.1211 H   0  0  0  0  0  0
  -19.6930  -25.6271   21.1275 H   0  0  0  0  0  0
  -19.6719  -27.3154   20.6718 H   0  0  0  0  0  0
  -17.4226  -26.6683   21.4021 H   0  0  0  0  0  0
  -18.0345  -26.0099   22.9028 H   0  0  0  0  0  0
  -19.7965  -30.7315   24.2203 H   0  0  0  0  0  0
  -17.5036  -31.6279   24.5151 H   0  0  0  0  0  0
  -15.5370  -30.2966   23.7706 H   0  0  0  0  0  0
  -15.8701  -28.0803   22.7112 H   0  0  0  0  0  0
  -24.5873  -30.7139   25.7641 H   0  0  0  0  0  0
  -24.8894  -32.2986   26.4656 H   0  0  0  0  0  0
  -25.7920  -30.9002   27.0180 H   0  0  0  0  0  0
  -26.3146  -29.6523   24.1453 H   0  0  0  0  0  0
  -27.3974  -29.7266   25.5135 H   0  0  0  0  0  0
  -27.9107  -30.4027   23.9893 H   0  0  0  0  0  0
  -27.2597  -33.3672   26.1950 H   0  0  0  0  0  0
  -28.3926  -32.6844   25.0369 H   0  0  0  0  0  0
  -28.0653  -31.8542   26.5505 H   0  0  0  0  0  0
  -28.2560  -38.0080   24.7525 H   0  0  0  0  0  0
  -28.1104  -36.2602   24.6267 H   0  0  0  0  0  0
  -27.2293  -37.1369   25.8864 H   0  0  0  0  0  0
  -20.9593  -29.8725   21.6637 H   0  0  0  0  0  0
  -26.0125  -38.2751   24.1409 H   0  0  0  0  0  0
  -29.3301  -18.6012   17.9702 H   0  0  0  0  0  0
  -27.8952  -18.1980   18.8597 H   0  0  0  0  0  0
  -27.3300  -20.4232   19.1809 H   0  0  0  0  0  0
  -28.6034  -20.8705   18.0734 H   0  0  0  0  0  0
  -30.7370  -18.3703   19.7890 H   0  0  0  0  0  0
  -28.4087  -19.5085   21.5189 H   0  0  0  0  0  0
  -31.3846  -20.1387   21.6506 H   0  0  0  0  0  0
  -30.5078  -19.0530   22.7264 H   0  0  0  0  0  0
  -30.1358  -20.7704   22.7233 H   0  0  0  0  0  0
  -27.7422  -22.3549   21.3279 H   0  0  0  0  0  0
  -29.3905  -22.8236   21.3955 H   0  0  0  0  0  0
  -27.2243  -24.0055   19.4572 H   0  0  0  0  0  0
  -28.8667  -24.1735   19.0281 H   0  0  0  0  0  0
  -28.6798  -16.3540   20.7456 H   0  0  0  0  0  0
  -30.0103  -21.2420   19.7515 H   0  0  0  0  0  0
  1 25  1  0  0  0
  1 30  2  0  0  0
  1 78  1  0  0  0
  2  3  1  0  0  0
  2 25  1  0  0  0
  2 80  1  0  0  0
  2 81  1  0  0  0
  3  4  1  0  0  0
  3 82  1  0  0  0
  3 83  1  0  0  0
  4  5  1  0  0  0
  4 84  1  0  0  0
  4 85  1  0  0  0
  5  6  1  0  0  0
  5 26  1  0  0  0
  5 86  1  0  0  0
  6 25  1  0  0  0
  6 87  1  0  0  0
  6 88  1  0  0  0
  7  8  2  0  0  0
  7 26  1  0  0  0
  7 29  1  0  0  0
  8  9  1  0  0  0
  8 22  1  0  0  0
  9 10  1  0  0  0
  9 27  2  0  0  0
 10 11  2  0  0  0
 10 15  1  0  0  0
 11 12  1  0  0  0
 11 89  1  0  0  0
 12 13  2  0  0  0
 12 90  1  0  0  0
 13 14  1  0  0  0
 13 31  1  0  0  0
 14 15  2  0  0  0
 14 91  1  0  0  0
 15 92  1  0  0  0
 16 17  2  0  0  0
 16 21  1  0  0  0
 16 31  1  0  0  0
 17 18  1  0  0  0
 17 93  1  0  0  0
 18 19  2  0  0  0
 18 94  1  0  0  0
 19 20  1  0  0  0
 19 24  1  0  0  0
 20 21  2  0  0  0
 20 95  1  0  0  0
 21 23  1  0  0  0
 22 28  1  0  0  0
 22 32  2  0  0  0
 26 27  1  0  0  0
 28 96  1  0  0  0
 28 97  1  0  0  0
 29 98  1  0  0  0
 29 99  1  0  0  0
 33 34  1  0  0  0
 33 66  1  0  0  0
 33 70  2  0  0  0
 34 36  1  0  0  0
 34 59  1  0  0  0
 34100  1  0  0  0
 35 44  2  0  0  0
 35 45  1  0  0  0
 35 68  1  0  0  0
 36 56  1  0  0  0
 36101  1  0  0  0
 37 39  1  0  0  0
 37 47  1  0  0  0
 37 66  1  0  0  0
 37102  1  0  0  0
 38 43  2  0  0  0
 38 46  1  0  0  0
 38 47  1  0  0  0
 39 64  1  0  0  0
 39 67  2  0  0  0
 40 52  1  0  0  0
 40 53  2  0  0  0
 40 58  1  0  0  0
 41103  1  0  0  0
 41104  1  0  0  0
 41105  1  0  0  0
 41 48  1  0  0  0
 42 43  1  0  0  0
 42 66  1  0  0  0
 42106  1  0  0  0
 42107  1  0  0  0
 43 44  1  0  0  0
 44108  1  0  0  0
 45 46  2  0  0  0
 45109  1  0  0  0
 46110  1  0  0  0
 47111  1  0  0  0
 47112  1  0  0  0
 48 56  1  0  0  0
 48 65  1  0  0  0
 48113  1  0  0  0
 49 50  1  0  0  0
 49 53  1  0  0  0
 49 64  1  0  0  0
 49114  1  0  0  0
 50 51  1  0  0  0
 50115  1  0  0  0
 50116  1  0  0  0
 51 52  1  0  0  0
 51117  1  0  0  0
 51118  1  0  0  0
 52119  1  0  0  0
 52120  1  0  0  0
 53 54  1  0  0  0
 54 55  2  0  0  0
 54121  1  0  0  0
 55 57  1  0  0  0
 55122  1  0  0  0
 56 69  2  0  0  0
 57 58  2  0  0  0
 57123  1  0  0  0
 58124  1  0  0  0
 59 60  1  0  0  0
 59 61  1  0  0  0
 59 62  1  0  0  0
 60125  1  0  0  0
 60126  1  0  0  0
 60127  1  0  0  0
 61128  1  0  0  0
 61129  1  0  0  0
 61130  1  0  0  0
 62131  1  0  0  0
 62132  1  0  0  0
 62133  1  0  0  0
 63 65  1  0  0  0
 63134  1  0  0  0
 63135  1  0  0  0
 63136  1  0  0  0
 64137  1  0  0  0
 65138  1  0  0  0
 68 77  1  0  0  0
 71 72  1  0  0  0
 71 73  1  0  0  0
 71139  1  0  0  0
 71140  1  0  0  0
 72 79  1  0  0  0
 72141  1  0  0  0
 72142  1  0  0  0
 73 74  1  0  0  0
 73 78  1  0  0  0
 73143  1  0  0  0
 74 75  1  0  0  0
 74 79  1  0  0  0
 74144  1  0  0  0
 75145  1  0  0  0
 75146  1  0  0  0
 75147  1  0  0  0
 76 77  1  0  0  0
 76148  1  0  0  0
 76149  1  0  0  0
 76 79  1  0  0  0
 77150  1  0  0  0
 77151  1  0  0  0
 78152  1  0  0  0
 79153  1  0  0  0
M  CHG  1  79   1
M  ISO  4   1 100  68 101  77 101  78 100
M  END
> <chiral flag>
0

> <version>
0

> <s_m_source_file>
/data/baiqing/PycharmProjects/Reinvent-master-3.2/result/LINK_invent/BTK/process_docking_weight1_custom_sum_contain_oxygen_bond_distance_aromatic_linkinvent_7_9_3/rearranged_h_0185.sdf

> <i_m_source_file_index>
46

> <r_mmod_Potential_Energy-OPLS-2005>
1354.01721191406

> <r_mmod_Stretch_Energy-OPLS-2005>
630.499572753906

> <r_mmod_Bend_Energy-OPLS-2005>
528.396728515625

> <r_mmod_Torsional_Energy-OPLS-2005>
277.656494140625

> <r_mmod_Improper_Torsional_Energy-OPLS-2005>
4.26094818115234

> <r_mmod_Van_der_Waal_Energy-OPLS-2005>
103.072845458984

> <r_mmod_Electrostatic_Energy-OPLS-2005>
-253.855117797852

> <r_mmod_Solvation_Energy-OPLS-2005>
-453.209991455078

> <b_mmod_Minimization_Converged-OPLS-2005>
0

> <r_mmod_RMS_Derivative-OPLS-2005>
1.34073114395142

$$$$
46
                    3D
 Structure written by MMmdl.
157166  0  0  1  0            999 V2000
  -30.4700  -15.2498   20.3625 C   0  0  0  0  0  0
  -30.4337  -12.7928   19.5282 C   0  0  0  0  0  0
  -29.5395  -12.5786   18.2802 C   0  0  0  0  0  0
  -28.0901  -12.2977   18.7112 C   0  0  0  0  0  0
  -27.6150  -13.2749   19.8171 C   0  0  2  0  0  0
  -28.6453  -13.4604   20.9535 C   0  0  0  0  0  0
  -25.2424  -13.8236   20.5752 C   0  0  0  0  0  0
  -24.1744  -13.0447   20.9239 C   0  0  0  0  0  0
  -24.6368  -11.6942   20.8689 C   0  0  0  0  0  0
  -23.9052  -10.4319   21.0385 C   0  0  0  0  0  0
  -24.3594   -9.4239   21.9179 C   0  0  0  0  0  0
  -23.6282   -8.2266   22.0751 C   0  0  0  0  0  0
  -22.4273   -8.0275   21.3543 C   0  0  0  0  0  0
  -21.9902   -9.0253   20.4658 C   0  0  0  0  0  0
  -22.7214  -10.2142   20.3045 C   0  0  0  0  0  0
  -21.6866   -6.0703   22.5273 C   0  0  0  0  0  0
  -21.4039   -6.5608   23.8203 C   0  0  0  0  0  0
  -21.3667   -5.6753   24.9158 C   0  0  0  0  0  0
  -21.6047   -4.3015   24.7217 C   0  0  0  0  0  0
  -21.8830   -3.8117   23.4332 C   0  0  0  0  0  0
  -21.9199   -4.6931   22.3384 C   0  0  0  0  0  0
  -22.7769  -13.5253   21.1835 C   0  0  0  0  0  0
  -22.1670   -4.2102   21.0970 F   0  0  0  0  0  0
  -21.5637   -3.4520   25.7747 F   0  0  0  0  0  0
  -29.8856  -13.9514   20.3286 N   0  0  0  0  0  0
  -26.2835  -12.9510   20.3185 N   0  0  0  0  0  0
  -25.9300  -11.6612   20.5642 N   0  0  0  0  0  0
  -22.0334  -12.8328   22.0372 N   0  0  0  0  0  0
  -25.4156  -15.1949   20.4200 N   0  0  0  0  0  0
  -31.6773  -15.2249   20.0706 O   0  0  0  0  0  0
  -21.6645   -6.8854   21.4240 O   0  0  0  0  0  0
  -22.3513  -14.5545   20.6627 O   0  0  0  0  0  0
  -24.6626  -31.8259   23.1712 C   0  0  0  0  0  0
  -25.9344  -32.4593   23.8156 C   0  0  1  0  0  0
  -27.2335  -26.9548   20.1775 C   0  0  0  0  0  0
  -25.6039  -33.8397   24.2089 N   0  0  0  0  0  0
  -23.4740  -30.4345   21.5204 C   0  0  2  0  0  0
  -24.9288  -28.8195   20.1149 C   0  0  0  0  0  0
  -22.7664  -29.4450   22.4819 C   0  0  0  0  0  0
  -18.0340  -28.1353   22.8453 C   0  0  0  0  0  0
  -24.1505  -36.7214   23.2625 C   0  0  0  0  0  0
  -26.0399  -30.6388   21.3973 C   0  0  0  0  0  0
  -26.1100  -29.2312   20.7394 C   0  0  0  0  0  0
  -27.2572  -28.3183   20.7488 C   0  0  0  0  0  0
  -26.0201  -26.6884   19.5074 C   0  0  0  0  0  0
  -24.9043  -27.5659   19.4809 C   0  0  0  0  0  0
  -23.7086  -29.7380   20.1504 C   0  0  0  0  0  0
  -25.4130  -36.2950   24.0289 C   0  0  1  0  0  0
  -20.5947  -28.3713   23.1180 C   0  0  2  0  0  0
  -20.6808  -26.9390   22.5384 C   0  0  0  0  0  0
  -19.5785  -26.6339   21.5187 C   0  0  0  0  0  0
  -18.1971  -26.7889   22.1604 C   0  0  0  0  0  0
  -19.1594  -28.8866   23.2790 C   0  0  0  0  0  0
  -18.9498  -30.1485   23.8787 C   0  0  0  0  0  0
  -17.6480  -30.6549   24.0530 C   0  0  0  0  0  0
  -25.9105  -34.9346   23.4981 C   0  0  0  0  0  0
  -16.5372  -29.9014   23.6358 C   0  0  0  0  0  0
  -16.7319  -28.6440   23.0361 C   0  0  0  0  0  0
  -26.4563  -31.6539   25.0712 C   0  0  0  0  0  0
  -25.3720  -31.3852   26.1420 C   0  0  0  0  0  0
  -27.0442  -30.2886   24.6502 C   0  0  0  0  0  0
  -27.6023  -32.4370   25.7536 C   0  0  0  0  0  0
  -27.5566  -37.1750   24.8437 C   0  0  0  0  0  0
  -21.4349  -29.3025   22.3573 N   0  0  0  0  0  0
  -26.4263  -37.3700   23.9395 N   0  0  0  0  0  0
  -24.7453  -30.9922   22.0842 N   0  0  0  0  0  0
  -23.4254  -28.8078   23.3072 O   0  0  0  0  0  0
  -28.2578  -25.8737   20.2421 O   0  0  0  0  0  0
  -26.5663  -34.8874   22.4561 O   0  0  0  0  0  0
  -23.5711  -32.1241   23.6831 O   0  0  0  0  0  0
  -29.2922  -18.8055   21.7616 C   0  0  0  0  0  0
  -30.0264  -22.9981   19.0479 C   0  0  0  0  0  0
  -29.8791  -17.3104   21.8195 C   0  0  0  0  0  0
  -29.5527  -17.9038   19.6720 C   0  0  0  0  0  0
  -29.3639  -22.2372   17.8972 C   0  0  0  0  0  0
  -29.5753  -19.4762   20.3930 C   0  0  1  0  0  0
  -29.0668  -22.7911   20.2207 C   0  0  2  0  0  0
  -28.7598  -21.0385   19.9414 C   0  0  1  0  0  0
  -28.0140  -24.2494   20.1673 C   0  0  0  0  0  0
  -29.7686  -16.5584   20.5383 N   0  0  0  0  0  0
  -28.7321  -21.0212   18.4602 N   0  3  0  0  0  0
  -31.4612  -12.9658   19.2060 H   0  0  0  0  0  0
  -30.4688  -11.8863   20.1349 H   0  0  0  0  0  0
  -29.9229  -11.7541   17.6748 H   0  0  0  0  0  0
  -29.5681  -13.4658   17.6451 H   0  0  0  0  0  0
  -28.0574  -11.2781   19.0977 H   0  0  0  0  0  0
  -27.4193  -12.3228   17.8509 H   0  0  0  0  0  0
  -27.5307  -14.2412   19.3154 H   0  0  0  0  0  0
  -28.8016  -12.5388   21.5186 H   0  0  0  0  0  0
  -28.2857  -14.2075   21.6620 H   0  0  0  0  0  0
  -25.2717   -9.5752   22.4768 H   0  0  0  0  0  0
  -23.9972   -7.4692   22.7512 H   0  0  0  0  0  0
  -21.0812   -8.8777   19.9004 H   0  0  0  0  0  0
  -22.3636  -10.9670   19.6173 H   0  0  0  0  0  0
  -21.2039   -7.6119   23.9698 H   0  0  0  0  0  0
  -21.1490   -6.0477   25.9054 H   0  0  0  0  0  0
  -22.0597   -2.7578   23.2837 H   0  0  0  0  0  0
  -22.3871  -12.0035   22.4907 H   0  0  0  0  0  0
  -21.0965  -13.1471   22.2463 H   0  0  0  0  0  0
  -24.6603  -15.8582   20.5485 H   0  0  0  0  0  0
  -26.2815  -15.6295   20.1235 H   0  0  0  0  0  0
  -26.7432  -32.5136   23.0869 H   0  0  0  0  0  0
  -25.0231  -33.9451   25.0271 H   0  0  0  0  0  0
  -22.7849  -31.2646   21.3460 H   0  0  0  0  0  0
  -23.3778  -35.9529   23.3231 H   0  0  0  0  0  0
  -24.3570  -36.8940   22.2049 H   0  0  0  0  0  0
  -23.7291  -37.6393   23.6729 H   0  0  0  0  0  0
  -26.2104  -31.3900   20.6244 H   0  0  0  0  0  0
  -26.8974  -30.6887   22.0557 H   0  0  0  0  0  0
  -28.1466  -28.6309   21.2753 H   0  0  0  0  0  0
  -25.8982  -25.7295   19.0242 H   0  0  0  0  0  0
  -24.0039  -27.2400   18.9780 H   0  0  0  0  0  0
  -23.8454  -30.4948   19.3782 H   0  0  0  0  0  0
  -22.8223  -29.1770   19.8513 H   0  0  0  0  0  0
  -25.1330  -36.1685   25.0779 H   0  0  0  0  0  0
  -21.0011  -28.3280   24.1309 H   0  0  0  0  0  0
  -20.5662  -26.2313   23.3618 H   0  0  0  0  0  0
  -21.6679  -26.7355   22.1203 H   0  0  0  0  0  0
  -19.6933  -25.6236   21.1254 H   0  0  0  0  0  0
  -19.6720  -27.3116   20.6691 H   0  0  0  0  0  0
  -17.4247  -26.6657   21.4003 H   0  0  0  0  0  0
  -18.0351  -26.0009   22.8985 H   0  0  0  0  0  0
  -19.7982  -30.7358   24.2050 H   0  0  0  0  0  0
  -17.5026  -31.6221   24.5170 H   0  0  0  0  0  0
  -15.5360  -30.2866   23.7750 H   0  0  0  0  0  0
  -15.8731  -28.0745   22.7081 H   0  0  0  0  0  0
  -24.5786  -30.7317   25.7800 H   0  0  0  0  0  0
  -24.9051  -32.3097   26.4820 H   0  0  0  0  0  0
  -25.7964  -30.9031   27.0239 H   0  0  0  0  0  0
  -26.3120  -29.6575   24.1468 H   0  0  0  0  0  0
  -27.3874  -29.7249   25.5190 H   0  0  0  0  0  0
  -27.9097  -30.4028   23.9976 H   0  0  0  0  0  0
  -27.2507  -33.3635   26.2075 H   0  0  0  0  0  0
  -28.3848  -32.7030   25.0425 H   0  0  0  0  0  0
  -28.0685  -31.8586   26.5516 H   0  0  0  0  0  0
  -28.2543  -38.0087   24.7494 H   0  0  0  0  0  0
  -28.1103  -36.2612   24.6221 H   0  0  0  0  0  0
  -27.2273  -37.1348   25.8837 H   0  0  0  0  0  0
  -20.9602  -29.8758   21.6723 H   0  0  0  0  0  0
  -26.0100  -38.2749   24.1424 H   0  0  0  0  0  0
  -29.6773  -19.4096   22.5862 H   0  0  0  0  0  0
  -28.2121  -18.7582   21.9047 H   0  0  0  0  0  0
  -30.1752  -24.0494   18.7946 H   0  0  0  0  0  0
  -31.0089  -22.5732   19.2592 H   0  0  0  0  0  0
  -29.4184  -16.7476   22.6324 H   0  0  0  0  0  0
  -30.9445  -17.3632   22.0543 H   0  0  0  0  0  0
  -30.2465  -17.8749   18.8320 H   0  0  0  0  0  0
  -28.5652  -17.7816   19.2238 H   0  0  0  0  0  0
  -30.0768  -21.9901   17.1102 H   0  0  0  0  0  0
  -28.5898  -22.8569   17.4407 H   0  0  0  0  0  0
  -30.6347  -19.7412   20.3979 H   0  0  0  0  0  0
  -29.6263  -22.8691   21.1559 H   0  0  0  0  0  0
  -27.7291  -20.8963   20.2613 H   0  0  0  0  0  0
  -27.2888  -24.0781   20.9629 H   0  0  0  0  0  0
  -27.4363  -24.1192   19.2534 H   0  0  0  0  0  0
  -29.2084  -20.2042   18.1172 H   0  0  0  0  0  0
  -27.7791  -20.9773   18.1369 H   0  0  0  0  0  0
  1 25  1  0  0  0
  1 30  2  0  0  0
  1 80  1  0  0  0
  2  3  1  0  0  0
  2 25  1  0  0  0
  2 82  1  0  0  0
  2 83  1  0  0  0
  3  4  1  0  0  0
  3 84  1  0  0  0
  3 85  1  0  0  0
  4  5  1  0  0  0
  4 86  1  0  0  0
  4 87  1  0  0  0
  5  6  1  0  0  0
  5 26  1  0  0  0
  5 88  1  0  0  0
  6 25  1  0  0  0
  6 89  1  0  0  0
  6 90  1  0  0  0
  7  8  2  0  0  0
  7 26  1  0  0  0
  7 29  1  0  0  0
  8  9  1  0  0  0
  8 22  1  0  0  0
  9 10  1  0  0  0
  9 27  2  0  0  0
 10 11  2  0  0  0
 10 15  1  0  0  0
 11 12  1  0  0  0
 11 91  1  0  0  0
 12 13  2  0  0  0
 12 92  1  0  0  0
 13 14  1  0  0  0
 13 31  1  0  0  0
 14 15  2  0  0  0
 14 93  1  0  0  0
 15 94  1  0  0  0
 16 17  2  0  0  0
 16 21  1  0  0  0
 16 31  1  0  0  0
 17 18  1  0  0  0
 17 95  1  0  0  0
 18 19  2  0  0  0
 18 96  1  0  0  0
 19 20  1  0  0  0
 19 24  1  0  0  0
 20 21  2  0  0  0
 20 97  1  0  0  0
 21 23  1  0  0  0
 22 28  1  0  0  0
 22 32  2  0  0  0
 26 27  1  0  0  0
 28 98  1  0  0  0
 28 99  1  0  0  0
 29100  1  0  0  0
 29101  1  0  0  0
 33 34  1  0  0  0
 33 66  1  0  0  0
 33 70  2  0  0  0
 34 36  1  0  0  0
 34 59  1  0  0  0
 34102  1  0  0  0
 35 44  2  0  0  0
 35 45  1  0  0  0
 35 68  1  0  0  0
 36 56  1  0  0  0
 36103  1  0  0  0
 37 39  1  0  0  0
 37 47  1  0  0  0
 37 66  1  0  0  0
 37104  1  0  0  0
 38 43  2  0  0  0
 38 46  1  0  0  0
 38 47  1  0  0  0
 39 64  1  0  0  0
 39 67  2  0  0  0
 40 52  1  0  0  0
 40 53  2  0  0  0
 40 58  1  0  0  0
 41105  1  0  0  0
 41106  1  0  0  0
 41107  1  0  0  0
 41 48  1  0  0  0
 42 43  1  0  0  0
 42 66  1  0  0  0
 42108  1  0  0  0
 42109  1  0  0  0
 43 44  1  0  0  0
 44110  1  0  0  0
 45 46  2  0  0  0
 45111  1  0  0  0
 46112  1  0  0  0
 47113  1  0  0  0
 47114  1  0  0  0
 48 56  1  0  0  0
 48 65  1  0  0  0
 48115  1  0  0  0
 49 50  1  0  0  0
 49 53  1  0  0  0
 49 64  1  0  0  0
 49116  1  0  0  0
 50 51  1  0  0  0
 50117  1  0  0  0
 50118  1  0  0  0
 51 52  1  0  0  0
 51119  1  0  0  0
 51120  1  0  0  0
 52121  1  0  0  0
 52122  1  0  0  0
 53 54  1  0  0  0
 54 55  2  0  0  0
 54123  1  0  0  0
 55 57  1  0  0  0
 55124  1  0  0  0
 56 69  2  0  0  0
 57 58  2  0  0  0
 57125  1  0  0  0
 58126  1  0  0  0
 59 60  1  0  0  0
 59 61  1  0  0  0
 59 62  1  0  0  0
 60127  1  0  0  0
 60128  1  0  0  0
 60129  1  0  0  0
 61130  1  0  0  0
 61131  1  0  0  0
 61132  1  0  0  0
 62133  1  0  0  0
 62134  1  0  0  0
 62135  1  0  0  0
 63 65  1  0  0  0
 63136  1  0  0  0
 63137  1  0  0  0
 63138  1  0  0  0
 64139  1  0  0  0
 65140  1  0  0  0
 68 79  1  0  0  0
 71 73  1  0  0  0
 71141  1  0  0  0
 71142  1  0  0  0
 71 76  1  0  0  0
 72 75  1  0  0  0
 72 77  1  0  0  0
 72143  1  0  0  0
 72144  1  0  0  0
 73 80  1  0  0  0
 73145  1  0  0  0
 73146  1  0  0  0
 74 76  1  0  0  0
 74 80  1  0  0  0
 74147  1  0  0  0
 74148  1  0  0  0
 75 81  1  0  0  0
 75149  1  0  0  0
 75150  1  0  0  0
 76 78  1  0  0  0
 76151  1  0  0  0
 77 78  1  0  0  0
 77 79  1  0  0  0
 77152  1  0  0  0
 78 81  1  0  0  0
 78153  1  0  0  0
 79154  1  0  0  0
 79155  1  0  0  0
 81156  1  0  0  0
 81157  1  0  0  0
M  CHG  1  81   1
M  ISO  4   1 100  68 101  79 101  80 100
M  END
> <chiral flag>
0

> <version>
0

> <s_m_source_file>
/data/baiqing/PycharmProjects/Reinvent-master-3.2/result/LINK_invent/BTK/process_docking_weight1_custom_sum_contain_oxygen_bond_distance_aromatic_linkinvent_7_9_3/rearranged_h_0185.sdf

> <i_m_source_file_index>
47

> <r_mmod_Potential_Energy-OPLS-2005>
1414.85766601562

> <r_mmod_Stretch_Energy-OPLS-2005>
588.885864257812

> <r_mmod_Bend_Energy-OPLS-2005>
514.327392578125

> <r_mmod_Torsional_Energy-OPLS-2005>
421.894012451172

> <r_mmod_Improper_Torsional_Energy-OPLS-2005>
7.28707408905029

> <r_mmod_Van_der_Waal_Energy-OPLS-2005>
99.6001586914062

> <r_mmod_Electrostatic_Energy-OPLS-2005>
-174.832962036133

> <r_mmod_Solvation_Energy-OPLS-2005>
-469.837127685547

> <b_mmod_Minimization_Converged-OPLS-2005>
0

> <r_mmod_RMS_Derivative-OPLS-2005>
4.58600378036499

$$$$
47
                    3D
 Structure written by MMmdl.
154164  0  0  1  0            999 V2000
  -30.6268  -14.7273   20.5065 C   0  0  0  0  0  0
  -30.4321  -12.4555   19.4677 C   0  0  0  0  0  0
  -29.5089  -12.5190   18.2321 C   0  0  0  0  0  0
  -28.0344  -12.3433   18.6436 C   0  0  0  0  0  0
  -27.6446  -13.2318   19.8547 C   0  0  2  0  0  0
  -28.6875  -13.1422   20.9880 C   0  0  0  0  0  0
  -25.2527  -13.8199   20.5708 C   0  0  0  0  0  0
  -24.1810  -13.0444   20.9190 C   0  0  0  0  0  0
  -24.6399  -11.6920   20.8732 C   0  0  0  0  0  0
  -23.9074  -10.4297   21.0396 C   0  0  0  0  0  0
  -24.3630   -9.4212   21.9174 C   0  0  0  0  0  0
  -23.6308   -8.2247   22.0749 C   0  0  0  0  0  0
  -22.4288   -8.0280   21.3540 C   0  0  0  0  0  0
  -21.9920   -9.0249   20.4640 C   0  0  0  0  0  0
  -22.7244  -10.2131   20.3047 C   0  0  0  0  0  0
  -21.6859   -6.0741   22.5282 C   0  0  0  0  0  0
  -21.4016   -6.5641   23.8215 C   0  0  0  0  0  0
  -21.3663   -5.6789   24.9175 C   0  0  0  0  0  0
  -21.6047   -4.3053   24.7223 C   0  0  0  0  0  0
  -21.8823   -3.8148   23.4341 C   0  0  0  0  0  0
  -21.9200   -4.6969   22.3401 C   0  0  0  0  0  0
  -22.7831  -13.5221   21.1857 C   0  0  0  0  0  0
  -22.1665   -4.2156   21.0978 F   0  0  0  0  0  0
  -21.5628   -3.4534   25.7733 F   0  0  0  0  0  0
  -29.9887  -13.5079   20.4127 N   0  0  0  0  0  0
  -26.2954  -12.9407   20.3297 N   0  0  0  0  0  0
  -25.9330  -11.6545   20.5738 N   0  0  0  0  0  0
  -22.0484  -12.8203   22.0414 N   0  0  0  0  0  0
  -25.4253  -15.1923   20.4168 N   0  0  0  0  0  0
  -31.7831  -14.8394   20.0871 O   0  0  0  0  0  0
  -21.6646   -6.8881   21.4243 O   0  0  0  0  0  0
  -22.3505  -14.5526   20.6707 O   0  0  0  0  0  0
  -24.6310  -31.8538   23.1983 C   0  0  0  0  0  0
  -25.9133  -32.4748   23.8328 C   0  0  1  0  0  0
  -27.2206  -27.2622   20.1299 C   0  0  0  0  0  0
  -25.5926  -33.8552   24.2246 N   0  0  0  0  0  0
  -23.4275  -30.4762   21.5411 C   0  0  2  0  0  0
  -24.8751  -28.9223   20.1085 C   0  0  0  0  0  0
  -22.7497  -29.4594   22.4910 C   0  0  0  0  0  0
  -18.0286  -28.1389   22.8482 C   0  0  0  0  0  0
  -24.1489  -36.7291   23.2642 C   0  0  0  0  0  0
  -25.9724  -30.7676   21.3772 C   0  0  0  0  0  0
  -26.0457  -29.3901   20.7191 C   0  0  0  0  0  0
  -27.2206  -28.5725   20.7178 C   0  0  0  0  0  0
  -26.0303  -26.8642   19.4820 C   0  0  0  0  0  0
  -24.8732  -27.6683   19.4776 C   0  0  0  0  0  0
  -23.6454  -29.8087   20.1573 C   0  0  0  0  0  0
  -25.4116  -36.3067   24.0324 C   0  0  1  0  0  0
  -20.5888  -28.3695   23.1271 C   0  0  2  0  0  0
  -20.6771  -26.9414   22.5409 C   0  0  0  0  0  0
  -19.5748  -26.6383   21.5211 C   0  0  0  0  0  0
  -18.1929  -26.7928   22.1624 C   0  0  0  0  0  0
  -19.1540  -28.8859   23.2869 C   0  0  0  0  0  0
  -18.9462  -30.1461   23.8887 C   0  0  0  0  0  0
  -17.6463  -30.6588   24.0564 C   0  0  0  0  0  0
  -25.9055  -34.9437   23.5090 C   0  0  0  0  0  0
  -16.5352  -29.9085   23.6338 C   0  0  0  0  0  0
  -16.7274  -28.6506   23.0355 C   0  0  0  0  0  0
  -26.4500  -31.6582   25.0725 C   0  0  0  0  0  0
  -25.3727  -31.3732   26.1449 C   0  0  0  0  0  0
  -27.0355  -30.3000   24.6224 C   0  0  0  0  0  0
  -27.6045  -32.4332   25.7501 C   0  0  0  0  0  0
  -27.5577  -37.1803   24.8464 C   0  0  0  0  0  0
  -21.4203  -29.3042   22.3664 N   0  0  0  0  0  0
  -26.4290  -37.3767   23.9405 N   0  0  0  0  0  0
  -24.6959  -31.0504   22.0954 N   0  0  0  0  0  0
  -23.4198  -28.8135   23.3011 O   0  0  0  0  0  0
  -28.3192  -26.3749   20.2012 O   0  0  0  0  0  0
  -26.5632  -34.8911   22.4661 O   0  0  0  0  0  0
  -23.5463  -32.1357   23.7287 O   0  0  0  0  0  0
  -28.6608  -21.1024   20.5434 C   0  0  0  0  0  0
  -29.4011  -22.2134   20.1294 C   0  0  0  0  0  0
  -30.6831  -17.2838   22.1755 C   0  0  0  0  0  0
  -28.8041  -24.4229   18.8228 C   0  0  0  0  0  0
  -29.7021  -16.1204   22.3107 C   0  0  0  0  0  0
  -29.2890  -23.8061   20.1201 C   0  0  1  0  0  0
  -28.1092  -24.8855   20.0732 C   0  0  1  0  0  0
  -30.2573  -17.3596   20.7166 C   0  0  2  0  0  0
  -29.1040  -18.4322   20.3471 C   0  0  0  0  0  0
  -30.5718  -21.6448   19.6002 N   0  0  0  0  0  0
  -30.5719  -20.3358   19.6719 N   0  0  0  0  0  0
  -29.4239  -19.9285   20.2626 N   0  0  0  0  0  0
  -29.8983  -15.8622   20.8750 N   0  0  0  0  0  0
  -31.4724  -12.5806   19.1633 H   0  0  0  0  0  0
  -30.3795  -11.4732   19.9401 H   0  0  0  0  0  0
  -29.7899  -11.7526   17.5084 H   0  0  0  0  0  0
  -29.6379  -13.4786   17.7288 H   0  0  0  0  0  0
  -27.8862  -11.2924   18.8939 H   0  0  0  0  0  0
  -27.3784  -12.5483   17.7970 H   0  0  0  0  0  0
  -27.6472  -14.2598   19.4914 H   0  0  0  0  0  0
  -28.7231  -12.1353   21.4057 H   0  0  0  0  0  0
  -28.4121  -13.8014   21.8104 H   0  0  0  0  0  0
  -25.2777   -9.5692   22.4744 H   0  0  0  0  0  0
  -24.0025   -7.4639   22.7467 H   0  0  0  0  0  0
  -21.0854   -8.8760   19.8943 H   0  0  0  0  0  0
  -22.3699  -10.9668   19.6153 H   0  0  0  0  0  0
  -21.2003   -7.6148   23.9720 H   0  0  0  0  0  0
  -21.1481   -6.0516   25.9078 H   0  0  0  0  0  0
  -22.0602   -2.7613   23.2837 H   0  0  0  0  0  0
  -22.4114  -11.9871   22.4808 H   0  0  0  0  0  0
  -21.1092  -13.1202   22.2613 H   0  0  0  0  0  0
  -24.6660  -15.8533   20.5386 H   0  0  0  0  0  0
  -26.2907  -15.6305   20.1267 H   0  0  0  0  0  0
  -26.7198  -32.5396   23.1068 H   0  0  0  0  0  0
  -25.0058  -33.9681   25.0382 H   0  0  0  0  0  0
  -22.7242  -31.2984   21.3949 H   0  0  0  0  0  0
  -23.3744  -35.9632   23.3302 H   0  0  0  0  0  0
  -24.3577  -36.8922   22.2057 H   0  0  0  0  0  0
  -23.7254  -37.6495   23.6673 H   0  0  0  0  0  0
  -26.1094  -31.5279   20.6069 H   0  0  0  0  0  0
  -26.8503  -30.8175   22.0096 H   0  0  0  0  0  0
  -28.1151  -28.9241   21.2127 H   0  0  0  0  0  0
  -25.9698  -25.9091   18.9816 H   0  0  0  0  0  0
  -23.9795  -27.3076   18.9876 H   0  0  0  0  0  0
  -23.7682  -30.5838   19.4001 H   0  0  0  0  0  0
  -22.7640  -29.2406   19.8548 H   0  0  0  0  0  0
  -25.1301  -36.1911   25.0819 H   0  0  0  0  0  0
  -20.9978  -28.3272   24.1392 H   0  0  0  0  0  0
  -20.5662  -26.2308   23.3613 H   0  0  0  0  0  0
  -21.6640  -26.7431   22.1210 H   0  0  0  0  0  0
  -19.6910  -25.6292   21.1246 H   0  0  0  0  0  0
  -19.6687  -27.3187   20.6735 H   0  0  0  0  0  0
  -17.4199  -26.6671   21.4029 H   0  0  0  0  0  0
  -18.0332  -26.0071   22.9021 H   0  0  0  0  0  0
  -19.7939  -30.7280   24.2250 H   0  0  0  0  0  0
  -17.5018  -31.6266   24.5168 H   0  0  0  0  0  0
  -15.5355  -30.2984   23.7668 H   0  0  0  0  0  0
  -15.8672  -28.0824   22.7073 H   0  0  0  0  0  0
  -24.5901  -30.7079   25.7783 H   0  0  0  0  0  0
  -24.8920  -32.2901   26.4869 H   0  0  0  0  0  0
  -25.8048  -30.8916   27.0231 H   0  0  0  0  0  0
  -26.2946  -29.6737   24.1242 H   0  0  0  0  0  0
  -27.4024  -29.7272   25.4752 H   0  0  0  0  0  0
  -27.8825  -30.4269   23.9478 H   0  0  0  0  0  0
  -27.2644  -33.3636   26.2059 H   0  0  0  0  0  0
  -28.3866  -32.6889   25.0340 H   0  0  0  0  0  0
  -28.0705  -31.8477   26.5437 H   0  0  0  0  0  0
  -28.2592  -38.0100   24.7503 H   0  0  0  0  0  0
  -28.1073  -36.2630   24.6297 H   0  0  0  0  0  0
  -27.2294  -37.1462   25.8866 H   0  0  0  0  0  0
  -20.9390  -29.8773   21.6874 H   0  0  0  0  0  0
  -26.0165  -38.2841   24.1403 H   0  0  0  0  0  0
  -27.6772  -21.0441   20.9931 H   0  0  0  0  0  0
  -31.7259  -16.9883   22.3072 H   0  0  0  0  0  0
  -30.4369  -18.1617   22.7738 H   0  0  0  0  0  0
  -28.2267  -23.7911   18.1512 H   0  0  0  0  0  0
  -29.4881  -25.1083   18.3272 H   0  0  0  0  0  0
  -28.6849  -16.4237   22.5653 H   0  0  0  0  0  0
  -30.0546  -15.3417   22.9907 H   0  0  0  0  0  0
  -30.2092  -24.2104   20.5364 H   0  0  0  0  0  0
  -27.1095  -24.5304   20.3160 H   0  0  0  0  0  0
  -31.1335  -17.4981   20.0811 H   0  0  0  0  0  0
  -28.2810  -18.3338   21.0544 H   0  0  0  0  0  0
  -28.6739  -18.1604   19.3835 H   0  0  0  0  0  0
  1 25  1  0  0  0
  1 30  2  0  0  0
  1 83  1  0  0  0
  2  3  1  0  0  0
  2 25  1  0  0  0
  2 84  1  0  0  0
  2 85  1  0  0  0
  3  4  1  0  0  0
  3 86  1  0  0  0
  3 87  1  0  0  0
  4  5  1  0  0  0
  4 88  1  0  0  0
  4 89  1  0  0  0
  5  6  1  0  0  0
  5 26  1  0  0  0
  5 90  1  0  0  0
  6 25  1  0  0  0
  6 91  1  0  0  0
  6 92  1  0  0  0
  7  8  2  0  0  0
  7 26  1  0  0  0
  7 29  1  0  0  0
  8  9  1  0  0  0
  8 22  1  0  0  0
  9 10  1  0  0  0
  9 27  2  0  0  0
 10 11  2  0  0  0
 10 15  1  0  0  0
 11 12  1  0  0  0
 11 93  1  0  0  0
 12 13  2  0  0  0
 12 94  1  0  0  0
 13 14  1  0  0  0
 13 31  1  0  0  0
 14 15  2  0  0  0
 14 95  1  0  0  0
 15 96  1  0  0  0
 16 17  2  0  0  0
 16 21  1  0  0  0
 16 31  1  0  0  0
 17 18  1  0  0  0
 17 97  1  0  0  0
 18 19  2  0  0  0
 18 98  1  0  0  0
 19 20  1  0  0  0
 19 24  1  0  0  0
 20 21  2  0  0  0
 20 99  1  0  0  0
 21 23  1  0  0  0
 22 28  1  0  0  0
 22 32  2  0  0  0
 26 27  1  0  0  0
 28100  1  0  0  0
 28101  1  0  0  0
 29102  1  0  0  0
 29103  1  0  0  0
 33 34  1  0  0  0
 33 66  1  0  0  0
 33 70  2  0  0  0
 34 36  1  0  0  0
 34 59  1  0  0  0
 34104  1  0  0  0
 35 44  2  0  0  0
 35 45  1  0  0  0
 35 68  1  0  0  0
 36 56  1  0  0  0
 36105  1  0  0  0
 37 39  1  0  0  0
 37 47  1  0  0  0
 37 66  1  0  0  0
 37106  1  0  0  0
 38 43  2  0  0  0
 38 46  1  0  0  0
 38 47  1  0  0  0
 39 64  1  0  0  0
 39 67  2  0  0  0
 40 52  1  0  0  0
 40 53  2  0  0  0
 40 58  1  0  0  0
 41107  1  0  0  0
 41108  1  0  0  0
 41109  1  0  0  0
 41 48  1  0  0  0
 42 43  1  0  0  0
 42 66  1  0  0  0
 42110  1  0  0  0
 42111  1  0  0  0
 43 44  1  0  0  0
 44112  1  0  0  0
 45 46  2  0  0  0
 45113  1  0  0  0
 46114  1  0  0  0
 47115  1  0  0  0
 47116  1  0  0  0
 48 56  1  0  0  0
 48 65  1  0  0  0
 48117  1  0  0  0
 49 50  1  0  0  0
 49 53  1  0  0  0
 49 64  1  0  0  0
 49118  1  0  0  0
 50 51  1  0  0  0
 50119  1  0  0  0
 50120  1  0  0  0
 51 52  1  0  0  0
 51121  1  0  0  0
 51122  1  0  0  0
 52123  1  0  0  0
 52124  1  0  0  0
 53 54  1  0  0  0
 54 55  2  0  0  0
 54125  1  0  0  0
 55 57  1  0  0  0
 55126  1  0  0  0
 56 69  2  0  0  0
 57 58  2  0  0  0
 57127  1  0  0  0
 58128  1  0  0  0
 59 60  1  0  0  0
 59 61  1  0  0  0
 59 62  1  0  0  0
 60129  1  0  0  0
 60130  1  0  0  0
 60131  1  0  0  0
 61132  1  0  0  0
 61133  1  0  0  0
 61134  1  0  0  0
 62135  1  0  0  0
 62136  1  0  0  0
 62137  1  0  0  0
 63 65  1  0  0  0
 63138  1  0  0  0
 63139  1  0  0  0
 63140  1  0  0  0
 64141  1  0  0  0
 65142  1  0  0  0
 68 77  1  0  0  0
 71 72  2  0  0  0
 71 82  1  0  0  0
 71143  1  0  0  0
 72 80  1  0  0  0
 72 76  1  0  0  0
 73 75  1  0  0  0
 73 78  1  0  0  0
 73144  1  0  0  0
 73145  1  0  0  0
 74 76  1  0  0  0
 74 77  1  0  0  0
 74146  1  0  0  0
 74147  1  0  0  0
 75 83  1  0  0  0
 75148  1  0  0  0
 75149  1  0  0  0
 76 77  1  0  0  0
 76150  1  0  0  0
 77151  1  0  0  0
 78 79  1  0  0  0
 78 83  1  0  0  0
 78152  1  0  0  0
 79 82  1  0  0  0
 79153  1  0  0  0
 79154  1  0  0  0
 80 81  2  0  0  0
 81 82  1  0  0  0
M  ISO  4   1 100  68 101  77 101  83 100
M  END
> <chiral flag>
0

> <version>
0

> <s_m_source_file>
/data/baiqing/PycharmProjects/Reinvent-master-3.2/result/LINK_invent/BTK/process_docking_weight1_custom_sum_contain_oxygen_bond_distance_aromatic_linkinvent_7_9_3/rearranged_h_0185.sdf

> <i_m_source_file_index>
48

> <r_mmod_Potential_Energy-OPLS-2005>
287.681488037109

> <r_mmod_Stretch_Energy-OPLS-2005>
128.823654174805

> <r_mmod_Bend_Energy-OPLS-2005>
197.168685913086

> <r_mmod_Torsional_Energy-OPLS-2005>
283.989685058594

> <r_mmod_Improper_Torsional_Energy-OPLS-2005>
11.930027961731

> <r_mmod_Van_der_Waal_Energy-OPLS-2005>
116.340553283691

> <r_mmod_Electrostatic_Energy-OPLS-2005>
-304.140716552734

> <r_mmod_Solvation_Energy-OPLS-2005>
-225.403442382812

> <b_mmod_Minimization_Converged-OPLS-2005>
0

> <r_mmod_RMS_Derivative-OPLS-2005>
0.700405657291412

$$$$
48
                    3D
 Structure written by MMmdl.
154163  0  0  1  0            999 V2000
  -30.6549  -14.7403   20.4659 C   0  0  0  0  0  0
  -30.4278  -12.4675   19.4507 C   0  0  0  0  0  0
  -29.4952  -12.4962   18.2216 C   0  0  0  0  0  0
  -28.0281  -12.2956   18.6491 C   0  0  0  0  0  0
  -27.6351  -13.1969   19.8468 C   0  0  2  0  0  0
  -28.6953  -13.1406   20.9727 C   0  0  0  0  0  0
  -25.2499  -13.8088   20.5685 C   0  0  0  0  0  0
  -24.1776  -13.0380   20.9225 C   0  0  0  0  0  0
  -24.6343  -11.6854   20.8791 C   0  0  0  0  0  0
  -23.9020  -10.4255   21.0442 C   0  0  0  0  0  0
  -24.3586   -9.4172   21.9208 C   0  0  0  0  0  0
  -23.6271   -8.2206   22.0760 C   0  0  0  0  0  0
  -22.4256   -8.0254   21.3544 C   0  0  0  0  0  0
  -21.9887   -9.0228   20.4650 C   0  0  0  0  0  0
  -22.7206  -10.2109   20.3073 C   0  0  0  0  0  0
  -21.6839   -6.0720   22.5278 C   0  0  0  0  0  0
  -21.4004   -6.5629   23.8211 C   0  0  0  0  0  0
  -21.3659   -5.6787   24.9177 C   0  0  0  0  0  0
  -21.6046   -4.3049   24.7230 C   0  0  0  0  0  0
  -21.8820   -3.8138   23.4353 C   0  0  0  0  0  0
  -21.9189   -4.6950   22.3405 C   0  0  0  0  0  0
  -22.7809  -13.5200   21.1874 C   0  0  0  0  0  0
  -22.1659   -4.2136   21.0983 F   0  0  0  0  0  0
  -21.5634   -3.4536   25.7745 F   0  0  0  0  0  0
  -29.9754  -13.5389   20.3725 N   0  0  0  0  0  0
  -26.2899  -12.9228   20.3316 N   0  0  0  0  0  0
  -25.9261  -11.6413   20.5814 N   0  0  0  0  0  0
  -22.0440  -12.8210   22.0433 N   0  0  0  0  0  0
  -25.4152  -15.1805   20.4033 N   0  0  0  0  0  0
  -31.8610  -14.7493   20.2004 O   0  0  0  0  0  0
  -21.6620   -6.8855   21.4237 O   0  0  0  0  0  0
  -22.3512  -14.5512   20.6716 O   0  0  0  0  0  0
  -24.6285  -31.8576   23.2002 C   0  0  0  0  0  0
  -25.9122  -32.4766   23.8340 C   0  0  1  0  0  0
  -27.2290  -27.2978   20.1061 C   0  0  0  0  0  0
  -25.5928  -33.8568   24.2267 N   0  0  0  0  0  0
  -23.4228  -30.4812   21.5435 C   0  0  2  0  0  0
  -24.8689  -28.9335   20.1088 C   0  0  0  0  0  0
  -22.7484  -29.4615   22.4923 C   0  0  0  0  0  0
  -18.0289  -28.1386   22.8485 C   0  0  0  0  0  0
  -24.1490  -36.7288   23.2639 C   0  0  0  0  0  0
  -25.9662  -30.7808   21.3743 C   0  0  0  0  0  0
  -26.0385  -29.4068   20.7142 C   0  0  0  0  0  0
  -27.2162  -28.5989   20.7065 C   0  0  0  0  0  0
  -26.0234  -26.8733   19.4983 C   0  0  0  0  0  0
  -24.8642  -27.6725   19.4953 C   0  0  0  0  0  0
  -23.6380  -29.8160   20.1587 C   0  0  0  0  0  0
  -25.4115  -36.3077   24.0329 C   0  0  1  0  0  0
  -20.5890  -28.3692   23.1278 C   0  0  2  0  0  0
  -20.6774  -26.9412   22.5410 C   0  0  0  0  0  0
  -19.5752  -26.6385   21.5210 C   0  0  0  0  0  0
  -18.1932  -26.7930   22.1620 C   0  0  0  0  0  0
  -19.1541  -28.8855   23.2878 C   0  0  0  0  0  0
  -18.9463  -30.1456   23.8895 C   0  0  0  0  0  0
  -17.6462  -30.6587   24.0562 C   0  0  0  0  0  0
  -25.9052  -34.9446   23.5099 C   0  0  0  0  0  0
  -16.5354  -29.9085   23.6330 C   0  0  0  0  0  0
  -16.7275  -28.6502   23.0351 C   0  0  0  0  0  0
  -26.4498  -31.6584   25.0721 C   0  0  0  0  0  0
  -25.3726  -31.3729   26.1447 C   0  0  0  0  0  0
  -27.0340  -30.3004   24.6190 C   0  0  0  0  0  0
  -27.6056  -32.4321   25.7493 C   0  0  0  0  0  0
  -27.5581  -37.1800   24.8464 C   0  0  0  0  0  0
  -21.4195  -29.3044   22.3669 N   0  0  0  0  0  0
  -26.4291  -37.3773   23.9409 N   0  0  0  0  0  0
  -24.6916  -31.0571   22.0960 N   0  0  0  0  0  0
  -23.4200  -28.8153   23.3008 O   0  0  0  0  0  0
  -28.3579  -26.4566   20.1846 O   0  0  0  0  0  0
  -26.5621  -34.8917   22.4666 O   0  0  0  0  0  0
  -23.5443  -32.1384   23.7318 O   0  0  0  0  0  0
  -29.6496  -23.5836   21.1156 C   0  0  0  0  0  0
  -30.0241  -22.2492   21.4563 C   0  0  0  0  0  0
  -28.8060  -23.7954   20.0005 C   0  0  0  0  0  0
  -29.5639  -21.1509   20.6802 C   0  0  0  0  0  0
  -28.4396  -17.8345   20.9793 C   0  0  0  0  0  0
  -28.5826  -16.3267   20.6657 C   0  0  0  0  0  0
  -30.7070  -17.3135   20.5863 C   0  0  0  0  0  0
  -29.6706  -18.4953   20.3753 C   0  0  2  0  0  0
  -28.5060  -25.2208   19.3684 C   0  0  0  0  0  0
  -28.3725  -22.6878   19.3090 N   0  0  0  0  0  0
  -28.7295  -21.4137   19.6336 N   0  0  0  0  0  0
  -30.0117  -15.9763   20.6321 N   0  0  0  0  0  0
  -30.0099  -19.8196   20.9925 N   0  0  0  0  0  0
  -31.4625  -12.5956   19.1286 H   0  0  0  0  0  0
  -30.3929  -11.4936   19.9417 H   0  0  0  0  0  0
  -29.7853  -11.7239   17.5079 H   0  0  0  0  0  0
  -29.6000  -13.4496   17.7012 H   0  0  0  0  0  0
  -27.9034  -11.2469   18.9214 H   0  0  0  0  0  0
  -27.3597  -12.4719   17.8054 H   0  0  0  0  0  0
  -27.6083  -14.1928   19.4253 H   0  0  0  0  0  0
  -28.7626  -12.1283   21.3740 H   0  0  0  0  0  0
  -28.4377  -13.7606   21.8284 H   0  0  0  0  0  0
  -25.2731   -9.5649   22.4784 H   0  0  0  0  0  0
  -23.9981   -7.4590   22.7472 H   0  0  0  0  0  0
  -21.0821   -8.8743   19.8952 H   0  0  0  0  0  0
  -22.3670  -10.9654   19.6185 H   0  0  0  0  0  0
  -21.1988   -7.6136   23.9709 H   0  0  0  0  0  0
  -21.1484   -6.0519   25.9079 H   0  0  0  0  0  0
  -22.0603   -2.7601   23.2856 H   0  0  0  0  0  0
  -22.4041  -11.9867   22.4828 H   0  0  0  0  0  0
  -21.1064  -13.1254   22.2637 H   0  0  0  0  0  0
  -24.6460  -15.8313   20.5178 H   0  0  0  0  0  0
  -26.2654  -15.6245   20.0847 H   0  0  0  0  0  0
  -26.7189  -32.5424   23.1085 H   0  0  0  0  0  0
  -25.0073  -33.9709   25.0411 H   0  0  0  0  0  0
  -22.7178  -31.3027   21.3998 H   0  0  0  0  0  0
  -23.3752  -35.9621   23.3302 H   0  0  0  0  0  0
  -24.3582  -36.8907   22.2054 H   0  0  0  0  0  0
  -23.7243  -37.6491   23.6661 H   0  0  0  0  0  0
  -26.1021  -31.5441   20.6069 H   0  0  0  0  0  0
  -26.8452  -30.8280   22.0057 H   0  0  0  0  0  0
  -28.1129  -28.9593   21.1912 H   0  0  0  0  0  0
  -25.9166  -25.8972   19.0540 H   0  0  0  0  0  0
  -23.9614  -27.2966   19.0334 H   0  0  0  0  0  0
  -23.7586  -30.5926   19.4027 H   0  0  0  0  0  0
  -22.7572  -29.2470   19.8558 H   0  0  0  0  0  0
  -25.1296  -36.1926   25.0822 H   0  0  0  0  0  0
  -20.9986  -28.3269   24.1397 H   0  0  0  0  0  0
  -20.5668  -26.2302   23.3612 H   0  0  0  0  0  0
  -21.6644  -26.7436   22.1209 H   0  0  0  0  0  0
  -19.6912  -25.6295   21.1241 H   0  0  0  0  0  0
  -19.6692  -27.3193   20.6737 H   0  0  0  0  0  0
  -17.4203  -26.6679   21.4022 H   0  0  0  0  0  0
  -18.0332  -26.0073   22.9018 H   0  0  0  0  0  0
  -19.7939  -30.7270   24.2269 H   0  0  0  0  0  0
  -17.5017  -31.6268   24.5162 H   0  0  0  0  0  0
  -15.5354  -30.2984   23.7656 H   0  0  0  0  0  0
  -15.8676  -28.0818   22.7069 H   0  0  0  0  0  0
  -24.5907  -30.7068   25.7780 H   0  0  0  0  0  0
  -24.8908  -32.2895   26.4859 H   0  0  0  0  0  0
  -25.8051  -30.8922   27.0230 H   0  0  0  0  0  0
  -26.2917  -29.6754   24.1210 H   0  0  0  0  0  0
  -27.4024  -29.7263   25.4702 H   0  0  0  0  0  0
  -27.8794  -30.4282   23.9425 H   0  0  0  0  0  0
  -27.2667  -33.3625   26.2064 H   0  0  0  0  0  0
  -28.3868  -32.6877   25.0322 H   0  0  0  0  0  0
  -28.0721  -31.8449   26.5413 H   0  0  0  0  0  0
  -28.2598  -38.0097   24.7511 H   0  0  0  0  0  0
  -28.1077  -36.2629   24.6288 H   0  0  0  0  0  0
  -27.2302  -37.1449   25.8868 H   0  0  0  0  0  0
  -20.9372  -29.8768   21.6880 H   0  0  0  0  0  0
  -26.0171  -38.2849   24.1406 H   0  0  0  0  0  0
  -30.0387  -24.4249   21.6697 H   0  0  0  0  0  0
  -30.6879  -22.0839   22.2918 H   0  0  0  0  0  0
  -28.4321  -17.9722   22.0618 H   0  0  0  0  0  0
  -27.5093  -18.2532   20.5923 H   0  0  0  0  0  0
  -28.1785  -16.1691   19.6679 H   0  0  0  0  0  0
  -28.0070  -15.7560   21.3886 H   0  0  0  0  0  0
  -31.2323  -17.4341   21.5348 H   0  0  0  0  0  0
  -31.4657  -17.3326   19.8021 H   0  0  0  0  0  0
  -29.5074  -18.6333   19.3046 H   0  0  0  0  0  0
  -27.7279  -25.1017   18.6204 H   0  0  0  0  0  0
  -29.3861  -25.4236   18.7582 H   0  0  0  0  0  0
  -30.6464  -19.7733   21.7808 H   0  0  0  0  0  0
  1 25  1  0  0  0
  1 30  2  0  0  0
  1 82  1  0  0  0
  2  3  1  0  0  0
  2 25  1  0  0  0
  2 84  1  0  0  0
  2 85  1  0  0  0
  3  4  1  0  0  0
  3 86  1  0  0  0
  3 87  1  0  0  0
  4  5  1  0  0  0
  4 88  1  0  0  0
  4 89  1  0  0  0
  5  6  1  0  0  0
  5 26  1  0  0  0
  5 90  1  0  0  0
  6 25  1  0  0  0
  6 91  1  0  0  0
  6 92  1  0  0  0
  7  8  2  0  0  0
  7 26  1  0  0  0
  7 29  1  0  0  0
  8  9  1  0  0  0
  8 22  1  0  0  0
  9 10  1  0  0  0
  9 27  2  0  0  0
 10 11  2  0  0  0
 10 15  1  0  0  0
 11 12  1  0  0  0
 11 93  1  0  0  0
 12 13  2  0  0  0
 12 94  1  0  0  0
 13 14  1  0  0  0
 13 31  1  0  0  0
 14 15  2  0  0  0
 14 95  1  0  0  0
 15 96  1  0  0  0
 16 17  2  0  0  0
 16 21  1  0  0  0
 16 31  1  0  0  0
 17 18  1  0  0  0
 17 97  1  0  0  0
 18 19  2  0  0  0
 18 98  1  0  0  0
 19 20  1  0  0  0
 19 24  1  0  0  0
 20 21  2  0  0  0
 20 99  1  0  0  0
 21 23  1  0  0  0
 22 28  1  0  0  0
 22 32  2  0  0  0
 26 27  1  0  0  0
 28100  1  0  0  0
 28101  1  0  0  0
 29102  1  0  0  0
 29103  1  0  0  0
 33 34  1  0  0  0
 33 66  1  0  0  0
 33 70  2  0  0  0
 34 36  1  0  0  0
 34 59  1  0  0  0
 34104  1  0  0  0
 35 44  2  0  0  0
 35 45  1  0  0  0
 35 68  1  0  0  0
 36 56  1  0  0  0
 36105  1  0  0  0
 37 39  1  0  0  0
 37 47  1  0  0  0
 37 66  1  0  0  0
 37106  1  0  0  0
 38 43  2  0  0  0
 38 46  1  0  0  0
 38 47  1  0  0  0
 39 64  1  0  0  0
 39 67  2  0  0  0
 40 52  1  0  0  0
 40 53  2  0  0  0
 40 58  1  0  0  0
 41107  1  0  0  0
 41108  1  0  0  0
 41109  1  0  0  0
 41 48  1  0  0  0
 42 43  1  0  0  0
 42 66  1  0  0  0
 42110  1  0  0  0
 42111  1  0  0  0
 43 44  1  0  0  0
 44112  1  0  0  0
 45 46  2  0  0  0
 45113  1  0  0  0
 46114  1  0  0  0
 47115  1  0  0  0
 47116  1  0  0  0
 48 56  1  0  0  0
 48 65  1  0  0  0
 48117  1  0  0  0
 49 50  1  0  0  0
 49 53  1  0  0  0
 49 64  1  0  0  0
 49118  1  0  0  0
 50 51  1  0  0  0
 50119  1  0  0  0
 50120  1  0  0  0
 51 52  1  0  0  0
 51121  1  0  0  0
 51122  1  0  0  0
 52123  1  0  0  0
 52124  1  0  0  0
 53 54  1  0  0  0
 54 55  2  0  0  0
 54125  1  0  0  0
 55 57  1  0  0  0
 55126  1  0  0  0
 56 69  2  0  0  0
 57 58  2  0  0  0
 57127  1  0  0  0
 58128  1  0  0  0
 59 60  1  0  0  0
 59 61  1  0  0  0
 59 62  1  0  0  0
 60129  1  0  0  0
 60130  1  0  0  0
 60131  1  0  0  0
 61132  1  0  0  0
 61133  1  0  0  0
 61134  1  0  0  0
 62135  1  0  0  0
 62136  1  0  0  0
 62137  1  0  0  0
 63 65  1  0  0  0
 63138  1  0  0  0
 63139  1  0  0  0
 63140  1  0  0  0
 64141  1  0  0  0
 65142  1  0  0  0
 68 79  1  0  0  0
 71 72  2  0  0  0
 71 73  1  0  0  0
 71143  1  0  0  0
 72 74  1  0  0  0
 72144  1  0  0  0
 73 79  1  0  0  0
 73 80  2  0  0  0
 74 81  2  0  0  0
 74 83  1  0  0  0
 75 76  1  0  0  0
 75 78  1  0  0  0
 75145  1  0  0  0
 75146  1  0  0  0
 76 82  1  0  0  0
 76147  1  0  0  0
 76148  1  0  0  0
 77 78  1  0  0  0
 77 82  1  0  0  0
 77149  1  0  0  0
 77150  1  0  0  0
 78 83  1  0  0  0
 78151  1  0  0  0
 79152  1  0  0  0
 79153  1  0  0  0
 80 81  1  0  0  0
 83154  1  0  0  0
M  ISO  4   1 100  68 101  79 101  82 100
M  END
> <chiral flag>
0

> <version>
0

> <s_m_source_file>
/data/baiqing/PycharmProjects/Reinvent-master-3.2/result/LINK_invent/BTK/process_docking_weight1_custom_sum_contain_oxygen_bond_distance_aromatic_linkinvent_7_9_3/rearranged_h_0185.sdf

> <i_m_source_file_index>
49

> <r_mmod_Potential_Energy-OPLS-2005>
272.721466064453

> <r_mmod_Stretch_Energy-OPLS-2005>
96.1524658203125

> <r_mmod_Bend_Energy-OPLS-2005>
227.364212036133

> <r_mmod_Torsional_Energy-OPLS-2005>
298.427703857422

> <r_mmod_Improper_Torsional_Energy-OPLS-2005>
5.70825386047363

> <r_mmod_Van_der_Waal_Energy-OPLS-2005>
145.203094482422

> <r_mmod_Electrostatic_Energy-OPLS-2005>
-337.105773925781

> <r_mmod_Solvation_Energy-OPLS-2005>
-237.738693237305

> <b_mmod_Minimization_Converged-OPLS-2005>
0

> <r_mmod_RMS_Derivative-OPLS-2005>
0.2861667573452

$$$$
49
                    3D
 Structure written by MMmdl.
160170  0  0  1  0            999 V2000
  -30.6628  -14.7609   20.4749 C   0  0  0  0  0  0
  -30.4128  -12.4750   19.4862 C   0  0  0  0  0  0
  -29.5045  -12.5366   18.2410 C   0  0  0  0  0  0
  -28.0345  -12.3463   18.6523 C   0  0  0  0  0  0
  -27.6363  -13.2470   19.8523 C   0  0  2  0  0  0
  -28.6799  -13.2192   20.9908 C   0  0  0  0  0  0
  -25.2471  -13.8223   20.5720 C   0  0  0  0  0  0
  -24.1780  -13.0442   20.9195 C   0  0  0  0  0  0
  -24.6401  -11.6923   20.8736 C   0  0  0  0  0  0
  -23.9090  -10.4289   21.0387 C   0  0  0  0  0  0
  -24.3628   -9.4207   21.9175 C   0  0  0  0  0  0
  -23.6298   -8.2247   22.0756 C   0  0  0  0  0  0
  -22.4281   -8.0281   21.3538 C   0  0  0  0  0  0
  -21.9925   -9.0250   20.4635 C   0  0  0  0  0  0
  -22.7261  -10.2126   20.3039 C   0  0  0  0  0  0
  -21.6856   -6.0733   22.5275 C   0  0  0  0  0  0
  -21.4006   -6.5633   23.8202 C   0  0  0  0  0  0
  -21.3655   -5.6790   24.9160 C   0  0  0  0  0  0
  -21.6044   -4.3050   24.7216 C   0  0  0  0  0  0
  -21.8824   -3.8144   23.4334 C   0  0  0  0  0  0
  -21.9191   -4.6963   22.3391 C   0  0  0  0  0  0
  -22.7798  -13.5204   21.1847 C   0  0  0  0  0  0
  -22.1666   -4.2149   21.0972 F   0  0  0  0  0  0
  -21.5630   -3.4536   25.7733 F   0  0  0  0  0  0
  -29.9820  -13.5596   20.4057 N   0  0  0  0  0  0
  -26.2917  -12.9460   20.3314 N   0  0  0  0  0  0
  -25.9340  -11.6589   20.5761 N   0  0  0  0  0  0
  -22.0458  -12.8172   22.0392 N   0  0  0  0  0  0
  -25.4145  -15.1954   20.4171 N   0  0  0  0  0  0
  -31.8447  -14.7860   20.1234 O   0  0  0  0  0  0
  -21.6640   -6.8879   21.4238 O   0  0  0  0  0  0
  -22.3477  -14.5510   20.6699 O   0  0  0  0  0  0
  -24.6367  -31.8532   23.1996 C   0  0  0  0  0  0
  -25.9173  -32.4743   23.8333 C   0  0  1  0  0  0
  -27.2009  -27.2127   20.1280 C   0  0  0  0  0  0
  -25.5941  -33.8536   24.2260 N   0  0  0  0  0  0
  -23.4334  -30.4801   21.5455 C   0  0  2  0  0  0
  -24.8780  -28.9332   20.1055 C   0  0  0  0  0  0
  -22.7524  -29.4597   22.4904 C   0  0  0  0  0  0
  -18.0290  -28.1401   22.8482 C   0  0  0  0  0  0
  -24.1447  -36.7218   23.2654 C   0  0  0  0  0  0
  -25.9869  -30.7501   21.3884 C   0  0  0  0  0  0
  -26.0555  -29.3718   20.7253 C   0  0  0  0  0  0
  -27.2180  -28.5239   20.7305 C   0  0  0  0  0  0
  -26.0012  -26.8787   19.4497 C   0  0  0  0  0  0
  -24.8593  -27.6967   19.4553 C   0  0  0  0  0  0
  -23.6518  -29.8250   20.1588 C   0  0  0  0  0  0
  -25.4092  -36.3039   24.0337 C   0  0  1  0  0  0
  -20.5903  -28.3716   23.1246 C   0  0  2  0  0  0
  -20.6772  -26.9428   22.5401 C   0  0  0  0  0  0
  -19.5744  -26.6400   21.5207 C   0  0  0  0  0  0
  -18.1920  -26.7953   22.1609 C   0  0  0  0  0  0
  -19.1548  -28.8876   23.2859 C   0  0  0  0  0  0
  -18.9479  -30.1472   23.8889 C   0  0  0  0  0  0
  -17.6481  -30.6605   24.0578 C   0  0  0  0  0  0
  -25.9060  -34.9425   23.5105 C   0  0  0  0  0  0
  -16.5367  -29.9107   23.6361 C   0  0  0  0  0  0
  -16.7280  -28.6522   23.0384 C   0  0  0  0  0  0
  -26.4538  -31.6576   25.0729 C   0  0  0  0  0  0
  -25.3745  -31.3640   26.1413 C   0  0  0  0  0  0
  -27.0453  -30.3018   24.6218 C   0  0  0  0  0  0
  -27.6057  -32.4353   25.7520 C   0  0  0  0  0  0
  -27.5550  -37.1763   24.8481 C   0  0  0  0  0  0
  -21.4233  -29.3047   22.3628 N   0  0  0  0  0  0
  -26.4247  -37.3767   23.9450 N   0  0  0  0  0  0
  -24.7055  -31.0461   22.1001 N   0  0  0  0  0  0
  -23.4204  -28.8122   23.3003 O   0  0  0  0  0  0
  -28.2406  -26.2344   20.2244 O   0  0  0  0  0  0
  -26.5644  -34.8914   22.4675 O   0  0  0  0  0  0
  -23.5508  -32.1371   23.7265 O   0  0  0  0  0  0
  -28.8183  -21.6495   21.8550 C   0  0  0  0  0  0
  -29.0021  -22.4186   19.3007 C   0  0  0  0  0  0
  -28.6269  -23.4182   20.2767 C   0  0  0  0  0  0
  -29.1415  -20.6524   20.8751 C   0  0  0  0  0  0
  -27.6618  -20.3497   23.8096 C   0  0  0  0  0  0
  -27.6120  -21.8066   24.1870 C   0  0  0  0  0  0
  -30.7875  -17.2096   21.2730 C   0  0  0  0  0  0
  -28.9334  -16.7776   20.4037 C   0  0  0  0  0  0
  -28.7355  -21.2940   23.3093 C   0  0  0  0  0  0
  -29.7831  -18.1005   20.4775 C   0  0  0  0  0  0
  -29.0663  -22.7661   17.8266 C   0  0  0  0  0  0
  -27.8625  -24.7935   19.9011 C   0  0  0  0  0  0
  -28.5757  -22.9797   21.5693 N   0  0  0  0  0  0
  -29.2632  -21.0819   19.5856 N   0  0  0  0  0  0
  -30.0678  -15.9476   20.9130 N   0  0  0  0  0  0
  -29.2730  -19.2723   21.2543 O   0  0  0  0  0  0
  -31.4597  -12.5631   19.1906 H   0  0  0  0  0  0
  -30.3282  -11.5032   19.9768 H   0  0  0  0  0  0
  -29.7964  -11.7807   17.5108 H   0  0  0  0  0  0
  -29.6230  -13.5036   17.7479 H   0  0  0  0  0  0
  -27.8966  -11.2964   18.9136 H   0  0  0  0  0  0
  -27.3762  -12.5383   17.8037 H   0  0  0  0  0  0
  -27.6168  -14.2638   19.4617 H   0  0  0  0  0  0
  -28.7167  -12.2376   21.4657 H   0  0  0  0  0  0
  -28.4125  -13.9322   21.7720 H   0  0  0  0  0  0
  -25.2771   -9.5677   22.4752 H   0  0  0  0  0  0
  -24.0004   -7.4637   22.7485 H   0  0  0  0  0  0
  -21.0864   -8.8761   19.8933 H   0  0  0  0  0  0
  -22.3727  -10.9654   19.6136 H   0  0  0  0  0  0
  -21.1993   -7.6141   23.9704 H   0  0  0  0  0  0
  -21.1472   -6.0514   25.9067 H   0  0  0  0  0  0
  -22.0604   -2.7611   23.2835 H   0  0  0  0  0  0
  -22.4110  -11.9847   22.4766 H   0  0  0  0  0  0
  -21.1059  -13.1145   22.2580 H   0  0  0  0  0  0
  -24.6449  -15.8473   20.5255 H   0  0  0  0  0  0
  -26.2728  -15.6401   20.1203 H   0  0  0  0  0  0
  -26.7222  -32.5383   23.1054 H   0  0  0  0  0  0
  -25.0066  -33.9669   25.0388 H   0  0  0  0  0  0
  -22.7308  -31.3041   21.4037 H   0  0  0  0  0  0
  -23.3749  -35.9506   23.3309 H   0  0  0  0  0  0
  -24.3516  -36.8861   22.2065 H   0  0  0  0  0  0
  -23.7146  -37.6385   23.6700 H   0  0  0  0  0  0
  -26.1342  -31.5102   20.6197 H   0  0  0  0  0  0
  -26.8614  -30.7955   22.0259 H   0  0  0  0  0  0
  -28.1083  -28.8461   21.2515 H   0  0  0  0  0  0
  -25.8828  -25.9467   18.9188 H   0  0  0  0  0  0
  -23.9606  -27.3594   18.9576 H   0  0  0  0  0  0
  -23.7774  -30.6080   19.4099 H   0  0  0  0  0  0
  -22.7671  -29.2652   19.8504 H   0  0  0  0  0  0
  -25.1269  -36.1875   25.0827 H   0  0  0  0  0  0
  -20.9990  -28.3307   24.1373 H   0  0  0  0  0  0
  -20.5683  -26.2325   23.3612 H   0  0  0  0  0  0
  -21.6635  -26.7453   22.1186 H   0  0  0  0  0  0
  -19.6910  -25.6319   21.1223 H   0  0  0  0  0  0
  -19.6693  -27.3220   20.6742 H   0  0  0  0  0  0
  -17.4202  -26.6725   21.3996 H   0  0  0  0  0  0
  -18.0295  -26.0094   22.8995 H   0  0  0  0  0  0
  -19.7964  -30.7277   24.2260 H   0  0  0  0  0  0
  -17.5053  -31.6287   24.5177 H   0  0  0  0  0  0
  -15.5376  -30.3010   23.7716 H   0  0  0  0  0  0
  -15.8664  -28.0849   22.7131 H   0  0  0  0  0  0
  -24.6065  -30.6832   25.7725 H   0  0  0  0  0  0
  -24.8754  -32.2741   26.4745 H   0  0  0  0  0  0
  -25.8075  -30.8933   27.0250 H   0  0  0  0  0  0
  -26.3083  -29.6699   24.1248 H   0  0  0  0  0  0
  -27.4192  -29.7327   25.4740 H   0  0  0  0  0  0
  -27.8909  -30.4345   23.9460 H   0  0  0  0  0  0
  -27.2680  -33.3727   26.1951 H   0  0  0  0  0  0
  -28.3934  -32.6790   25.0379 H   0  0  0  0  0  0
  -28.0633  -31.8564   26.5554 H   0  0  0  0  0  0
  -28.2549  -38.0082   24.7584 H   0  0  0  0  0  0
  -28.1064  -36.2614   24.6249 H   0  0  0  0  0  0
  -27.2271  -37.1339   25.8885 H   0  0  0  0  0  0
  -20.9439  -29.8768   21.6819 H   0  0  0  0  0  0
  -26.0105  -38.2813   24.1542 H   0  0  0  0  0  0
  -26.9241  -19.9935   23.0930 H   0  0  0  0  0  0
  -27.9301  -19.6467   24.5953 H   0  0  0  0  0  0
  -27.8565  -22.0630   25.2159 H   0  0  0  0  0  0
  -26.8428  -22.4201   23.7211 H   0  0  0  0  0  0
  -30.7791  -17.4104   22.3456 H   0  0  0  0  0  0
  -31.8062  -17.2836   20.8893 H   0  0  0  0  0  0
  -28.6188  -16.5328   19.3885 H   0  0  0  0  0  0
  -28.0772  -16.7883   21.0800 H   0  0  0  0  0  0
  -29.7295  -21.1940   23.7423 H   0  0  0  0  0  0
  -30.1844  -18.3811   19.5025 H   0  0  0  0  0  0
  -28.0652  -22.7896   17.3966 H   0  0  0  0  0  0
  -29.6586  -22.0406   17.2686 H   0  0  0  0  0  0
  -29.5263  -23.7440   17.6851 H   0  0  0  0  0  0
  -26.8893  -24.6225   20.3647 H   0  0  0  0  0  0
  -27.6837  -24.7599   18.8276 H   0  0  0  0  0  0
  1 25  1  0  0  0
  1 30  2  0  0  0
  1 85  1  0  0  0
  2  3  1  0  0  0
  2 25  1  0  0  0
  2 87  1  0  0  0
  2 88  1  0  0  0
  3  4  1  0  0  0
  3 89  1  0  0  0
  3 90  1  0  0  0
  4  5  1  0  0  0
  4 91  1  0  0  0
  4 92  1  0  0  0
  5  6  1  0  0  0
  5 26  1  0  0  0
  5 93  1  0  0  0
  6 25  1  0  0  0
  6 94  1  0  0  0
  6 95  1  0  0  0
  7  8  2  0  0  0
  7 26  1  0  0  0
  7 29  1  0  0  0
  8  9  1  0  0  0
  8 22  1  0  0  0
  9 10  1  0  0  0
  9 27  2  0  0  0
 10 11  2  0  0  0
 10 15  1  0  0  0
 11 12  1  0  0  0
 11 96  1  0  0  0
 12 13  2  0  0  0
 12 97  1  0  0  0
 13 14  1  0  0  0
 13 31  1  0  0  0
 14 15  2  0  0  0
 14 98  1  0  0  0
 15 99  1  0  0  0
 16 17  2  0  0  0
 16 21  1  0  0  0
 16 31  1  0  0  0
 17 18  1  0  0  0
 17100  1  0  0  0
 18 19  2  0  0  0
 18101  1  0  0  0
 19 20  1  0  0  0
 19 24  1  0  0  0
 20 21  2  0  0  0
 20102  1  0  0  0
 21 23  1  0  0  0
 22 28  1  0  0  0
 22 32  2  0  0  0
 26 27  1  0  0  0
 28103  1  0  0  0
 28104  1  0  0  0
 29105  1  0  0  0
 29106  1  0  0  0
 33 34  1  0  0  0
 33 66  1  0  0  0
 33 70  2  0  0  0
 34 36  1  0  0  0
 34 59  1  0  0  0
 34107  1  0  0  0
 35 44  2  0  0  0
 35 45  1  0  0  0
 35 68  1  0  0  0
 36 56  1  0  0  0
 36108  1  0  0  0
 37 39  1  0  0  0
 37 47  1  0  0  0
 37 66  1  0  0  0
 37109  1  0  0  0
 38 43  2  0  0  0
 38 46  1  0  0  0
 38 47  1  0  0  0
 39 64  1  0  0  0
 39 67  2  0  0  0
 40 52  1  0  0  0
 40 53  2  0  0  0
 40 58  1  0  0  0
 41110  1  0  0  0
 41111  1  0  0  0
 41112  1  0  0  0
 41 48  1  0  0  0
 42 43  1  0  0  0
 42 66  1  0  0  0
 42113  1  0  0  0
 42114  1  0  0  0
 43 44  1  0  0  0
 44115  1  0  0  0
 45 46  2  0  0  0
 45116  1  0  0  0
 46117  1  0  0  0
 47118  1  0  0  0
 47119  1  0  0  0
 48 56  1  0  0  0
 48 65  1  0  0  0
 48120  1  0  0  0
 49 50  1  0  0  0
 49 53  1  0  0  0
 49 64  1  0  0  0
 49121  1  0  0  0
 50 51  1  0  0  0
 50122  1  0  0  0
 50123  1  0  0  0
 51 52  1  0  0  0
 51124  1  0  0  0
 51125  1  0  0  0
 52126  1  0  0  0
 52127  1  0  0  0
 53 54  1  0  0  0
 54 55  2  0  0  0
 54128  1  0  0  0
 55 57  1  0  0  0
 55129  1  0  0  0
 56 69  2  0  0  0
 57 58  2  0  0  0
 57130  1  0  0  0
 58131  1  0  0  0
 59 60  1  0  0  0
 59 61  1  0  0  0
 59 62  1  0  0  0
 60132  1  0  0  0
 60133  1  0  0  0
 60134  1  0  0  0
 61135  1  0  0  0
 61136  1  0  0  0
 61137  1  0  0  0
 62138  1  0  0  0
 62139  1  0  0  0
 62140  1  0  0  0
 63 65  1  0  0  0
 63141  1  0  0  0
 63142  1  0  0  0
 63143  1  0  0  0
 64144  1  0  0  0
 65145  1  0  0  0
 68 82  1  0  0  0
 71 74  1  0  0  0
 71 83  2  0  0  0
 71 79  1  0  0  0
 72 73  2  0  0  0
 72 81  1  0  0  0
 72 84  1  0  0  0
 73 82  1  0  0  0
 73 83  1  0  0  0
 74 84  2  0  0  0
 74 86  1  0  0  0
 75 76  1  0  0  0
 75 79  1  0  0  0
 75146  1  0  0  0
 75147  1  0  0  0
 76 79  1  0  0  0
 76148  1  0  0  0
 76149  1  0  0  0
 77 80  1  0  0  0
 77 85  1  0  0  0
 77150  1  0  0  0
 77151  1  0  0  0
 78 80  1  0  0  0
 78 85  1  0  0  0
 78152  1  0  0  0
 78153  1  0  0  0
 79154  1  0  0  0
 80 86  1  0  0  0
 80155  1  0  0  0
 81156  1  0  0  0
 81157  1  0  0  0
 81158  1  0  0  0
 82159  1  0  0  0
 82160  1  0  0  0
M  ISO  4   1 100  68 101  82 101  85 100
M  END
> <chiral flag>
0

> <version>
0

> <s_m_source_file>
/data/baiqing/PycharmProjects/Reinvent-master-3.2/result/LINK_invent/BTK/process_docking_weight1_custom_sum_contain_oxygen_bond_distance_aromatic_linkinvent_7_9_3/rearranged_h_0185.sdf

> <i_m_source_file_index>
50

> <r_mmod_Potential_Energy-OPLS-2005>
432.992553710938

> <r_mmod_Stretch_Energy-OPLS-2005>
139.490539550781

> <r_mmod_Bend_Energy-OPLS-2005>
238.623489379883

> <r_mmod_Torsional_Energy-OPLS-2005>
294.073852539062

> <r_mmod_Improper_Torsional_Energy-OPLS-2005>
9.93298721313477

> <r_mmod_Van_der_Waal_Energy-OPLS-2005>
142.962432861328

> <r_mmod_Electrostatic_Energy-OPLS-2005>
-280.774810791016

> <r_mmod_Solvation_Energy-OPLS-2005>
-222.94792175293

> <b_mmod_Minimization_Converged-OPLS-2005>
0

> <r_mmod_RMS_Derivative-OPLS-2005>
1.82729721069336

$$$$
50
                    3D
 Structure written by MMmdl.
156164  0  0  1  0            999 V2000
  -30.4337  -15.2695   20.3602 C   0  0  0  0  0  0
  -30.4431  -12.8177   19.5148 C   0  0  0  0  0  0
  -29.5272  -12.5689   18.2906 C   0  0  0  0  0  0
  -28.0898  -12.2688   18.7456 C   0  0  0  0  0  0
  -27.6127  -13.2671   19.8279 C   0  0  2  0  0  0
  -28.6496  -13.4554   20.9552 C   0  0  0  0  0  0
  -25.2405  -13.8241   20.5777 C   0  0  0  0  0  0
  -24.1749  -13.0444   20.9295 C   0  0  0  0  0  0
  -24.6382  -11.6936   20.8807 C   0  0  0  0  0  0
  -23.9070  -10.4294   21.0447 C   0  0  0  0  0  0
  -24.3627   -9.4202   21.9200 C   0  0  0  0  0  0
  -23.6296   -8.2243   22.0762 C   0  0  0  0  0  0
  -22.4287   -8.0282   21.3548 C   0  0  0  0  0  0
  -21.9922   -9.0263   20.4657 C   0  0  0  0  0  0
  -22.7253  -10.2137   20.3073 C   0  0  0  0  0  0
  -21.6857   -6.0738   22.5272 C   0  0  0  0  0  0
  -21.4005   -6.5639   23.8202 C   0  0  0  0  0  0
  -21.3658   -5.6800   24.9163 C   0  0  0  0  0  0
  -21.6052   -4.3059   24.7220 C   0  0  0  0  0  0
  -21.8825   -3.8151   23.4340 C   0  0  0  0  0  0
  -21.9187   -4.6967   22.3388 C   0  0  0  0  0  0
  -22.7768  -13.5225   21.1901 C   0  0  0  0  0  0
  -22.1672   -4.2151   21.0972 F   0  0  0  0  0  0
  -21.5626   -3.4536   25.7730 F   0  0  0  0  0  0
  -29.8748  -13.9630   20.3152 N   0  0  0  0  0  0
  -26.2825  -12.9498   20.3284 N   0  0  0  0  0  0
  -25.9319  -11.6610   20.5793 N   0  0  0  0  0  0
  -22.0396  -12.8216   22.0445 N   0  0  0  0  0  0
  -25.4061  -15.1963   20.4127 N   0  0  0  0  0  0
  -31.6588  -15.2752   20.1743 O   0  0  0  0  0  0
  -21.6650   -6.8882   21.4236 O   0  0  0  0  0  0
  -22.3463  -14.5529   20.6722 O   0  0  0  0  0  0
  -24.6639  -31.8233   23.1696 C   0  0  0  0  0  0
  -25.9317  -32.4581   23.8166 C   0  0  1  0  0  0
  -27.2138  -26.9216   20.1718 C   0  0  0  0  0  0
  -25.5984  -33.8403   24.2068 N   0  0  0  0  0  0
  -23.4782  -30.4341   21.5200 C   0  0  2  0  0  0
  -24.9307  -28.8229   20.1066 C   0  0  0  0  0  0
  -22.7675  -29.4431   22.4786 C   0  0  0  0  0  0
  -18.0325  -28.1400   22.8464 C   0  0  0  0  0  0
  -24.1500  -36.7199   23.2643 C   0  0  0  0  0  0
  -26.0478  -30.6247   21.4041 C   0  0  0  0  0  0
  -26.1146  -29.2159   20.7445 C   0  0  0  0  0  0
  -27.2475  -28.2839   20.7562 C   0  0  0  0  0  0
  -26.0062  -26.6889   19.4758 C   0  0  0  0  0  0
  -24.9016  -27.5808   19.4542 C   0  0  0  0  0  0
  -23.7171  -29.7501   20.1456 C   0  0  0  0  0  0
  -25.4143  -36.2959   24.0296 C   0  0  1  0  0  0
  -20.5951  -28.3744   23.1187 C   0  0  2  0  0  0
  -20.6795  -26.9426   22.5403 C   0  0  0  0  0  0
  -19.5775  -26.6375   21.5211 C   0  0  0  0  0  0
  -18.1960  -26.7932   22.1613 C   0  0  0  0  0  0
  -19.1591  -28.8896   23.2808 C   0  0  0  0  0  0
  -18.9493  -30.1488   23.8852 C   0  0  0  0  0  0
  -17.6489  -30.6592   24.0550 C   0  0  0  0  0  0
  -25.9106  -34.9342   23.5004 C   0  0  0  0  0  0
  -16.5377  -29.9080   23.6338 C   0  0  0  0  0  0
  -16.7313  -28.6491   23.0367 C   0  0  0  0  0  0
  -26.4554  -31.6541   25.0707 C   0  0  0  0  0  0
  -25.3678  -31.3820   26.1362 C   0  0  0  0  0  0
  -27.0462  -30.2905   24.6478 C   0  0  0  0  0  0
  -27.6053  -32.4358   25.7506 C   0  0  0  0  0  0
  -27.5571  -37.1760   24.8464 C   0  0  0  0  0  0
  -21.4338  -29.3031   22.3527 N   0  0  0  0  0  0
  -26.4285  -37.3694   23.9401 N   0  0  0  0  0  0
  -24.7515  -30.9887   22.0836 N   0  0  0  0  0  0
  -23.4211  -28.8012   23.3033 O   0  0  0  0  0  0
  -28.2056  -25.8095   20.2746 O   0  0  0  0  0  0
  -26.5713  -34.8877   22.4596 O   0  0  0  0  0  0
  -23.5716  -32.1214   23.6779 O   0  0  0  0  0  0
  -29.5529  -21.3414   19.9647 C   0  0  0  0  0  0
  -27.3696  -21.5005   20.6330 C   0  0  0  0  0  0
  -29.0476  -19.7067   20.1000 C   0  0  2  0  0  0
  -28.5325  -22.5826   20.5613 C   0  0  2  0  0  0
  -28.9702  -22.8920   22.0034 C   0  0  0  0  0  0
  -26.7184  -19.0837   20.7176 C   0  0  0  0  0  0
  -29.9728  -18.1817   20.4462 C   0  0  0  0  0  0
  -28.0113  -24.2028   19.9238 C   0  0  0  0  0  0
  -29.6619  -16.5372   20.4125 N   0  0  0  0  0  0
  -27.8260  -20.0501   20.8958 N   0  3  1  0  0  0
  -31.4545  -13.0360   19.1681 H   0  0  0  0  0  0
  -30.5329  -11.9218   20.1315 H   0  0  0  0  0  0
  -29.9136  -11.7475   17.6872 H   0  0  0  0  0  0
  -29.5242  -13.4511   17.6483 H   0  0  0  0  0  0
  -28.0842  -11.2593   19.1608 H   0  0  0  0  0  0
  -27.4059  -12.2539   17.8975 H   0  0  0  0  0  0
  -27.5231  -14.2225   19.3086 H   0  0  0  0  0  0
  -28.8287  -12.5256   21.4967 H   0  0  0  0  0  0
  -28.2953  -14.1797   21.6900 H   0  0  0  0  0  0
  -25.2754   -9.5676   22.4790 H   0  0  0  0  0  0
  -24.0000   -7.4630   22.7479 H   0  0  0  0  0  0
  -21.0851   -8.8793   19.8949 H   0  0  0  0  0  0
  -22.3715  -10.9694   19.6197 H   0  0  0  0  0  0
  -21.2001   -7.6144   23.9702 H   0  0  0  0  0  0
  -21.1478   -6.0524   25.9070 H   0  0  0  0  0  0
  -22.0602   -2.7606   23.2832 H   0  0  0  0  0  0
  -22.4035  -11.9894   22.4846 H   0  0  0  0  0  0
  -21.0996  -13.1224   22.2629 H   0  0  0  0  0  0
  -24.6200  -15.8330   20.4847 H   0  0  0  0  0  0
  -26.2179  -15.6092   19.9751 H   0  0  0  0  0  0
  -26.7387  -32.5113   23.0881 H   0  0  0  0  0  0
  -25.0083  -33.9471   25.0187 H   0  0  0  0  0  0
  -22.7922  -31.2672   21.3497 H   0  0  0  0  0  0
  -23.3773  -35.9517   23.3278 H   0  0  0  0  0  0
  -24.3577  -36.8871   22.2059 H   0  0  0  0  0  0
  -23.7246  -37.6381   23.6715 H   0  0  0  0  0  0
  -26.2338  -31.3659   20.6263 H   0  0  0  0  0  0
  -26.9052  -30.6764   22.0631 H   0  0  0  0  0  0
  -28.1409  -28.5778   21.2891 H   0  0  0  0  0  0
  -25.8741  -25.7459   18.9663 H   0  0  0  0  0  0
  -24.0032  -27.2788   18.9327 H   0  0  0  0  0  0
  -23.8665  -30.5180   19.3856 H   0  0  0  0  0  0
  -22.8270  -29.2019   19.8323 H   0  0  0  0  0  0
  -25.1340  -36.1758   25.0791 H   0  0  0  0  0  0
  -21.0042  -28.3352   24.1308 H   0  0  0  0  0  0
  -20.5665  -26.2371   23.3645 H   0  0  0  0  0  0
  -21.6660  -26.7392   22.1223 H   0  0  0  0  0  0
  -19.6930  -25.6276   21.1274 H   0  0  0  0  0  0
  -19.6714  -27.3154   20.6721 H   0  0  0  0  0  0
  -17.4227  -26.6689   21.4016 H   0  0  0  0  0  0
  -18.0341  -26.0088   22.9021 H   0  0  0  0  0  0
  -19.7979  -30.7313   24.2204 H   0  0  0  0  0  0
  -17.5042  -31.6270   24.5155 H   0  0  0  0  0  0
  -15.5376  -30.2961   23.7691 H   0  0  0  0  0  0
  -15.8711  -28.0789   22.7118 H   0  0  0  0  0  0
  -24.5875  -30.7139   25.7675 H   0  0  0  0  0  0
  -24.8840  -32.3037   26.4622 H   0  0  0  0  0  0
  -25.7896  -30.9104   27.0249 H   0  0  0  0  0  0
  -26.3139  -29.6569   24.1459 H   0  0  0  0  0  0
  -27.3944  -29.7283   25.5152 H   0  0  0  0  0  0
  -27.9097  -30.4068   23.9926 H   0  0  0  0  0  0
  -27.2623  -33.3708   26.1950 H   0  0  0  0  0  0
  -28.3930  -32.6848   25.0378 H   0  0  0  0  0  0
  -28.0653  -31.8583   26.5536 H   0  0  0  0  0  0
  -28.2576  -38.0063   24.7500 H   0  0  0  0  0  0
  -28.1079  -36.2595   24.6312 H   0  0  0  0  0  0
  -27.2285  -37.1419   25.8862 H   0  0  0  0  0  0
  -20.9606  -29.8705   21.6634 H   0  0  0  0  0  0
  -26.0136  -38.2759   24.1397 H   0  0  0  0  0  0
  -30.5322  -21.4409   20.4324 H   0  0  0  0  0  0
  -29.7409  -21.5401   18.9090 H   0  0  0  0  0  0
  -26.8553  -21.5131   19.6692 H   0  0  0  0  0  0
  -26.6203  -21.7939   21.3678 H   0  0  0  0  0  0
  -28.6651  -19.5074   19.0981 H   0  0  0  0  0  0
  -28.1907  -23.4424   22.5310 H   0  0  0  0  0  0
  -29.8672  -23.5102   22.0145 H   0  0  0  0  0  0
  -29.1828  -21.9914   22.5762 H   0  0  0  0  0  0
  -25.8750  -19.3430   21.3580 H   0  0  0  0  0  0
  -27.0306  -18.0724   20.9755 H   0  0  0  0  0  0
  -26.3630  -19.0783   19.6855 H   0  0  0  0  0  0
  -30.3728  -18.3344   21.4482 H   0  0  0  0  0  0
  -30.8520  -18.2624   19.8084 H   0  0  0  0  0  0
  -26.9317  -24.1149   20.0427 H   0  0  0  0  0  0
  -28.1449  -24.1430   18.8426 H   0  0  0  0  0  0
  -28.6765  -16.3364   20.4886 H   0  0  0  0  0  0
  -28.0941  -20.0031   21.8677 H   0  0  0  0  0  0
  1 25  1  0  0  0
  1 30  2  0  0  0
  1 79  1  0  0  0
  2  3  1  0  0  0
  2 25  1  0  0  0
  2 81  1  0  0  0
  2 82  1  0  0  0
  3  4  1  0  0  0
  3 83  1  0  0  0
  3 84  1  0  0  0
  4  5  1  0  0  0
  4 85  1  0  0  0
  4 86  1  0  0  0
  5  6  1  0  0  0
  5 26  1  0  0  0
  5 87  1  0  0  0
  6 25  1  0  0  0
  6 88  1  0  0  0
  6 89  1  0  0  0
  7  8  2  0  0  0
  7 26  1  0  0  0
  7 29  1  0  0  0
  8  9  1  0  0  0
  8 22  1  0  0  0
  9 10  1  0  0  0
  9 27  2  0  0  0
 10 11  2  0  0  0
 10 15  1  0  0  0
 11 12  1  0  0  0
 11 90  1  0  0  0
 12 13  2  0  0  0
 12 91  1  0  0  0
 13 14  1  0  0  0
 13 31  1  0  0  0
 14 15  2  0  0  0
 14 92  1  0  0  0
 15 93  1  0  0  0
 16 17  2  0  0  0
 16 21  1  0  0  0
 16 31  1  0  0  0
 17 18  1  0  0  0
 17 94  1  0  0  0
 18 19  2  0  0  0
 18 95  1  0  0  0
 19 20  1  0  0  0
 19 24  1  0  0  0
 20 21  2  0  0  0
 20 96  1  0  0  0
 21 23  1  0  0  0
 22 28  1  0  0  0
 22 32  2  0  0  0
 26 27  1  0  0  0
 28 97  1  0  0  0
 28 98  1  0  0  0
 29 99  1  0  0  0
 29100  1  0  0  0
 33 34  1  0  0  0
 33 66  1  0  0  0
 33 70  2  0  0  0
 34 36  1  0  0  0
 34 59  1  0  0  0
 34101  1  0  0  0
 35 44  2  0  0  0
 35 45  1  0  0  0
 35 68  1  0  0  0
 36 56  1  0  0  0
 36102  1  0  0  0
 37 39  1  0  0  0
 37 47  1  0  0  0
 37 66  1  0  0  0
 37103  1  0  0  0
 38 43  2  0  0  0
 38 46  1  0  0  0
 38 47  1  0  0  0
 39 64  1  0  0  0
 39 67  2  0  0  0
 40 52  1  0  0  0
 40 53  2  0  0  0
 40 58  1  0  0  0
 41104  1  0  0  0
 41105  1  0  0  0
 41106  1  0  0  0
 41 48  1  0  0  0
 42 43  1  0  0  0
 42 66  1  0  0  0
 42107  1  0  0  0
 42108  1  0  0  0
 43 44  1  0  0  0
 44109  1  0  0  0
 45 46  2  0  0  0
 45110  1  0  0  0
 46111  1  0  0  0
 47112  1  0  0  0
 47113  1  0  0  0
 48 56  1  0  0  0
 48 65  1  0  0  0
 48114  1  0  0  0
 49 50  1  0  0  0
 49 53  1  0  0  0
 49 64  1  0  0  0
 49115  1  0  0  0
 50 51  1  0  0  0
 50116  1  0  0  0
 50117  1  0  0  0
 51 52  1  0  0  0
 51118  1  0  0  0
 51119  1  0  0  0
 52120  1  0  0  0
 52121  1  0  0  0
 53 54  1  0  0  0
 54 55  2  0  0  0
 54122  1  0  0  0
 55 57  1  0  0  0
 55123  1  0  0  0
 56 69  2  0  0  0
 57 58  2  0  0  0
 57124  1  0  0  0
 58125  1  0  0  0
 59 60  1  0  0  0
 59 61  1  0  0  0
 59 62  1  0  0  0
 60126  1  0  0  0
 60127  1  0  0  0
 60128  1  0  0  0
 61129  1  0  0  0
 61130  1  0  0  0
 61131  1  0  0  0
 62132  1  0  0  0
 62133  1  0  0  0
 62134  1  0  0  0
 63 65  1  0  0  0
 63135  1  0  0  0
 63136  1  0  0  0
 63137  1  0  0  0
 64138  1  0  0  0
 65139  1  0  0  0
 68 78  1  0  0  0
 71 73  1  0  0  0
 71 74  1  0  0  0
 71140  1  0  0  0
 71141  1  0  0  0
 72 74  1  0  0  0
 72 80  1  0  0  0
 72142  1  0  0  0
 72143  1  0  0  0
 73 77  1  0  0  0
 73 80  1  0  0  0
 73144  1  0  0  0
 74 75  1  0  0  0
 74 78  1  0  0  0
 75145  1  0  0  0
 75146  1  0  0  0
 75147  1  0  0  0
 76148  1  0  0  0
 76149  1  0  0  0
 76150  1  0  0  0
 76 80  1  0  0  0
 77 79  1  0  0  0
 77151  1  0  0  0
 77152  1  0  0  0
 78153  1  0  0  0
 78154  1  0  0  0
 79155  1  0  0  0
 80156  1  0  0  0
M  CHG  1  80   1
M  ISO  4   1 100  68 101  78 101  79 100
M  END
> <chiral flag>
0

> <version>
0

> <s_m_source_file>
/data/baiqing/PycharmProjects/Reinvent-master-3.2/result/LINK_invent/BTK/process_docking_weight1_custom_sum_contain_oxygen_bond_distance_aromatic_linkinvent_7_9_3/rearranged_h_0185.sdf

> <i_m_source_file_index>
51

> <r_mmod_Potential_Energy-OPLS-2005>
1262.15148925781

> <r_mmod_Stretch_Energy-OPLS-2005>
586.447204589844

> <r_mmod_Bend_Energy-OPLS-2005>
510.892791748047

> <r_mmod_Torsional_Energy-OPLS-2005>
323.410705566406

> <r_mmod_Improper_Torsional_Energy-OPLS-2005>
4.61527109146118

> <r_mmod_Van_der_Waal_Energy-OPLS-2005>
105.687828063965

> <r_mmod_Electrostatic_Energy-OPLS-2005>
-261.583923339844

> <r_mmod_Solvation_Energy-OPLS-2005>
-478.224761962891

> <b_mmod_Minimization_Converged-OPLS-2005>
0

> <r_mmod_RMS_Derivative-OPLS-2005>
3.33683228492737

$$$$
51
                    3D
 Structure written by MMmdl.
166175  0  0  1  0            999 V2000
  -30.6514  -14.5456   20.5714 C   0  0  0  0  0  0
  -30.4442  -12.3560   19.4241 C   0  0  0  0  0  0
  -29.5050  -12.5072   18.2074 C   0  0  0  0  0  0
  -28.0267  -12.3523   18.6207 C   0  0  0  0  0  0
  -27.6603  -13.2027   19.8661 C   0  0  2  0  0  0
  -28.7043  -12.9973   20.9863 C   0  0  0  0  0  0
  -25.2596  -13.8146   20.5649 C   0  0  0  0  0  0
  -24.1850  -13.0428   20.9164 C   0  0  0  0  0  0
  -24.6399  -11.6890   20.8720 C   0  0  0  0  0  0
  -23.9066  -10.4279   21.0399 C   0  0  0  0  0  0
  -24.3623   -9.4197   21.9176 C   0  0  0  0  0  0
  -23.6290   -8.2241   22.0758 C   0  0  0  0  0  0
  -22.4268   -8.0285   21.3556 C   0  0  0  0  0  0
  -21.9909   -9.0258   20.4654 C   0  0  0  0  0  0
  -22.7243  -10.2127   20.3050 C   0  0  0  0  0  0
  -21.6845   -6.0736   22.5276 C   0  0  0  0  0  0
  -21.4014   -6.5638   23.8212 C   0  0  0  0  0  0
  -21.3662   -5.6791   24.9174 C   0  0  0  0  0  0
  -21.6038   -4.3053   24.7218 C   0  0  0  0  0  0
  -21.8825   -3.8147   23.4340 C   0  0  0  0  0  0
  -21.9194   -4.6965   22.3398 C   0  0  0  0  0  0
  -22.7875  -13.5231   21.1827 C   0  0  0  0  0  0
  -22.1658   -4.2154   21.0974 F   0  0  0  0  0  0
  -21.5628   -3.4536   25.7732 F   0  0  0  0  0  0
  -30.0262  -13.3417   20.4332 N   0  0  0  0  0  0
  -26.3020  -12.9298   20.3301 N   0  0  0  0  0  0
  -25.9321  -11.6462   20.5735 N   0  0  0  0  0  0
  -22.0509  -12.8232   22.0378 N   0  0  0  0  0  0
  -25.4311  -15.1872   20.4072 N   0  0  0  0  0  0
  -31.7929  -14.7697   20.1556 O   0  0  0  0  0  0
  -21.6637   -6.8880   21.4241 O   0  0  0  0  0  0
  -22.3563  -14.5535   20.6667 O   0  0  0  0  0  0
  -24.6225  -31.8611   23.2020 C   0  0  0  0  0  0
  -25.9085  -32.4786   23.8329 C   0  0  1  0  0  0
  -27.2365  -27.3799   20.0800 C   0  0  0  0  0  0
  -25.5911  -33.8576   24.2272 N   0  0  0  0  0  0
  -23.4127  -30.4847   21.5450 C   0  0  2  0  0  0
  -24.8566  -28.9447   20.1099 C   0  0  0  0  0  0
  -22.7451  -29.4621   22.4947 C   0  0  0  0  0  0
  -18.0285  -28.1395   22.8498 C   0  0  0  0  0  0
  -24.1478  -36.7276   23.2639 C   0  0  0  0  0  0
  -25.9476  -30.8094   21.3612 C   0  0  0  0  0  0
  -26.0227  -29.4416   20.7031 C   0  0  0  0  0  0
  -27.2139  -28.6679   20.6817 C   0  0  0  0  0  0
  -26.0363  -26.9054   19.4984 C   0  0  0  0  0  0
  -24.8607  -27.6778   19.5040 C   0  0  0  0  0  0
  -23.6220  -29.8168   20.1599 C   0  0  0  0  0  0
  -25.4102  -36.3083   24.0341 C   0  0  1  0  0  0
  -20.5884  -28.3673   23.1308 C   0  0  2  0  0  0
  -20.6768  -26.9403   22.5419 C   0  0  0  0  0  0
  -19.5742  -26.6397   21.5215 C   0  0  0  0  0  0
  -18.1925  -26.7942   22.1629 C   0  0  0  0  0  0
  -19.1540  -28.8851   23.2901 C   0  0  0  0  0  0
  -18.9460  -30.1458   23.8921 C   0  0  0  0  0  0
  -17.6462  -30.6605   24.0567 C   0  0  0  0  0  0
  -25.9044  -34.9456   23.5108 C   0  0  0  0  0  0
  -16.5352  -29.9112   23.6333 C   0  0  0  0  0  0
  -16.7273  -28.6525   23.0360 C   0  0  0  0  0  0
  -26.4486  -31.6593   25.0681 C   0  0  0  0  0  0
  -25.3748  -31.3717   26.1428 C   0  0  0  0  0  0
  -27.0296  -30.3027   24.6067 C   0  0  0  0  0  0
  -27.6048  -32.4315   25.7453 C   0  0  0  0  0  0
  -27.5573  -37.1793   24.8479 C   0  0  0  0  0  0
  -21.4167  -29.3024   22.3694 N   0  0  0  0  0  0
  -26.4281  -37.3782   23.9422 N   0  0  0  0  0  0
  -24.6800  -31.0667   22.0949 N   0  0  0  0  0  0
  -23.4193  -28.8164   23.3009 O   0  0  0  0  0  0
  -28.3914  -26.5984   20.1237 O   0  0  0  0  0  0
  -26.5611  -34.8935   22.4674 O   0  0  0  0  0  0
  -23.5403  -32.1361   23.7402 O   0  0  0  0  0  0
  -28.3918  -25.3439   18.0223 C   0  0  0  0  0  0
  -28.9335  -23.0629   19.4569 C   0  0  0  0  0  0
  -28.7615  -23.0454   18.0327 C   0  0  0  0  0  0
  -28.5019  -25.3933   19.4279 C   0  0  0  0  0  0
  -31.3031  -17.1015   22.4440 C   0  0  0  0  0  0
  -32.5126  -17.8533   21.8543 C   0  0  0  0  0  0
  -31.5879  -17.9372   19.5492 C   0  0  0  0  0  0
  -30.1228  -16.9528   21.4460 C   0  0  1  0  0  0
  -30.2027  -17.9952   20.2653 C   0  0  1  0  0  0
  -29.2150  -21.8191   20.3701 C   0  0  0  0  0  0
  -29.6402  -20.4190   19.7755 C   0  0  0  0  0  0
  -28.7753  -21.7895   17.1611 C   0  0  0  0  0  0
  -28.5072  -24.1863   17.3364 N   0  0  0  0  0  0
  -28.8011  -24.2562   20.1351 N   0  0  0  0  0  0
  -29.8706  -15.5316   21.0776 N   0  0  0  0  0  0
  -29.9068  -19.3604   20.7832 N   0  0  0  0  0  0
  -32.6957  -17.5064   20.4324 N   0  3  0  0  0  0
  -28.7769  -22.0831   15.8581 F   0  0  0  0  0  0
  -27.7003  -21.0405   17.4104 F   0  0  0  0  0  0
  -31.4851  -12.4940   19.1258 H   0  0  0  0  0  0
  -30.3828  -11.3471   19.8336 H   0  0  0  0  0  0
  -29.7571  -11.7697   17.4441 H   0  0  0  0  0  0
  -29.6569  -13.4849   17.7495 H   0  0  0  0  0  0
  -27.8520  -11.2965   18.8297 H   0  0  0  0  0  0
  -27.3742  -12.6080   17.7850 H   0  0  0  0  0  0
  -27.6960  -14.2469   19.5539 H   0  0  0  0  0  0
  -28.7026  -11.9577   21.3168 H   0  0  0  0  0  0
  -28.4525  -13.5816   21.8732 H   0  0  0  0  0  0
  -25.2779   -9.5658   22.4736 H   0  0  0  0  0  0
  -23.9991   -7.4634   22.7484 H   0  0  0  0  0  0
  -21.0838   -8.8789   19.8963 H   0  0  0  0  0  0
  -22.3719  -10.9670   19.6152 H   0  0  0  0  0  0
  -21.2006   -7.6147   23.9713 H   0  0  0  0  0  0
  -21.1473   -6.0521   25.9078 H   0  0  0  0  0  0
  -22.0600   -2.7608   23.2836 H   0  0  0  0  0  0
  -22.4123  -11.9896   22.4776 H   0  0  0  0  0  0
  -21.1131  -13.1273   22.2573 H   0  0  0  0  0  0
  -24.6609  -15.8381   20.5182 H   0  0  0  0  0  0
  -26.2731  -15.6297   20.0616 H   0  0  0  0  0  0
  -26.7149  -32.5470   23.1076 H   0  0  0  0  0  0
  -25.0105  -33.9702   25.0450 H   0  0  0  0  0  0
  -22.7055  -31.3043   21.4018 H   0  0  0  0  0  0
  -23.3750  -35.9600   23.3320 H   0  0  0  0  0  0
  -24.3582  -36.8862   22.2051 H   0  0  0  0  0  0
  -23.7226  -37.6486   23.6634 H   0  0  0  0  0  0
  -26.0659  -31.5749   20.5934 H   0  0  0  0  0  0
  -26.8352  -30.8606   21.9798 H   0  0  0  0  0  0
  -28.1151  -29.0455   21.1444 H   0  0  0  0  0  0
  -25.9803  -25.9256   19.0483 H   0  0  0  0  0  0
  -23.9604  -27.2823   19.0525 H   0  0  0  0  0  0
  -23.7361  -30.5891   19.3987 H   0  0  0  0  0  0
  -22.7443  -29.2393   19.8632 H   0  0  0  0  0  0
  -25.1285  -36.1924   25.0835 H   0  0  0  0  0  0
  -20.9974  -28.3233   24.1426 H   0  0  0  0  0  0
  -20.5664  -26.2275   23.3606 H   0  0  0  0  0  0
  -21.6639  -26.7450   22.1200 H   0  0  0  0  0  0
  -19.6898  -25.6313   21.1234 H   0  0  0  0  0  0
  -19.6683  -27.3222   20.6757 H   0  0  0  0  0  0
  -17.4186  -26.6696   21.4036 H   0  0  0  0  0  0
  -18.0320  -26.0088   22.9031 H   0  0  0  0  0  0
  -19.7940  -30.7263   24.2295 H   0  0  0  0  0  0
  -17.5030  -31.6291   24.5160 H   0  0  0  0  0  0
  -15.5356  -30.3023   23.7663 H   0  0  0  0  0  0
  -15.8667  -28.0862   22.7069 H   0  0  0  0  0  0
  -24.5934  -30.7043   25.7784 H   0  0  0  0  0  0
  -24.8925  -32.2876   26.4856 H   0  0  0  0  0  0
  -25.8114  -30.8924   27.0201 H   0  0  0  0  0  0
  -26.2823  -29.6798   24.1133 H   0  0  0  0  0  0
  -27.4074  -29.7258   25.4518 H   0  0  0  0  0  0
  -27.8668  -30.4340   23.9204 H   0  0  0  0  0  0
  -27.2662  -33.3612   26.2041 H   0  0  0  0  0  0
  -28.3859  -32.6878   25.0285 H   0  0  0  0  0  0
  -28.0707  -31.8429   26.5364 H   0  0  0  0  0  0
  -28.2621  -38.0065   24.7514 H   0  0  0  0  0  0
  -28.1042  -36.2602   24.6320 H   0  0  0  0  0  0
  -27.2293  -37.1464   25.8886 H   0  0  0  0  0  0
  -20.9325  -29.8756   21.6924 H   0  0  0  0  0  0
  -26.0161  -38.2854   24.1437 H   0  0  0  0  0  0
  -28.1954  -26.2384   17.4497 H   0  0  0  0  0  0
  -30.9638  -17.6445   23.3282 H   0  0  0  0  0  0
  -31.6211  -16.1283   22.8205 H   0  0  0  0  0  0
  -33.4136  -17.6078   22.4176 H   0  0  0  0  0  0
  -32.3767  -18.9322   21.9439 H   0  0  0  0  0  0
  -31.8550  -18.8900   19.0976 H   0  0  0  0  0  0
  -31.5435  -17.2279   18.7224 H   0  0  0  0  0  0
  -29.2172  -17.1935   22.0055 H   0  0  0  0  0  0
  -29.4201  -17.7557   19.5425 H   0  0  0  0  0  0
  -28.3230  -21.6775   20.9804 H   0  0  0  0  0  0
  -29.9968  -22.1243   21.0667 H   0  0  0  0  0  0
  -30.5349  -20.5650   19.1732 H   0  0  0  0  0  0
  -28.8545  -20.0382   19.1263 H   0  0  0  0  0  0
  -29.6758  -21.1978   17.3053 H   0  0  0  0  0  0
  -28.9450  -15.2090   21.3176 H   0  0  0  0  0  0
  -29.0886  -19.2866   21.3827 H   0  0  0  0  0  0
  -32.7485  -16.4967   20.3639 H   0  0  0  0  0  0
  -33.5619  -17.8923   20.0915 H   0  0  0  0  0  0
  1 25  1  0  0  0
  1 30  2  0  0  0
  1 85  1  0  0  0
  2  3  1  0  0  0
  2 25  1  0  0  0
  2 90  1  0  0  0
  2 91  1  0  0  0
  3  4  1  0  0  0
  3 92  1  0  0  0
  3 93  1  0  0  0
  4  5  1  0  0  0
  4 94  1  0  0  0
  4 95  1  0  0  0
  5  6  1  0  0  0
  5 26  1  0  0  0
  5 96  1  0  0  0
  6 25  1  0  0  0
  6 97  1  0  0  0
  6 98  1  0  0  0
  7  8  2  0  0  0
  7 26  1  0  0  0
  7 29  1  0  0  0
  8  9  1  0  0  0
  8 22  1  0  0  0
  9 10  1  0  0  0
  9 27  2  0  0  0
 10 11  2  0  0  0
 10 15  1  0  0  0
 11 12  1  0  0  0
 11 99  1  0  0  0
 12 13  2  0  0  0
 12100  1  0  0  0
 13 14  1  0  0  0
 13 31  1  0  0  0
 14 15  2  0  0  0
 14101  1  0  0  0
 15102  1  0  0  0
 16 17  2  0  0  0
 16 21  1  0  0  0
 16 31  1  0  0  0
 17 18  1  0  0  0
 17103  1  0  0  0
 18 19  2  0  0  0
 18104  1  0  0  0
 19 20  1  0  0  0
 19 24  1  0  0  0
 20 21  2  0  0  0
 20105  1  0  0  0
 21 23  1  0  0  0
 22 28  1  0  0  0
 22 32  2  0  0  0
 26 27  1  0  0  0
 28106  1  0  0  0
 28107  1  0  0  0
 29108  1  0  0  0
 29109  1  0  0  0
 33 34  1  0  0  0
 33 66  1  0  0  0
 33 70  2  0  0  0
 34 36  1  0  0  0
 34 59  1  0  0  0
 34110  1  0  0  0
 35 44  2  0  0  0
 35 45  1  0  0  0
 35 68  1  0  0  0
 36 56  1  0  0  0
 36111  1  0  0  0
 37 39  1  0  0  0
 37 47  1  0  0  0
 37 66  1  0  0  0
 37112  1  0  0  0
 38 43  2  0  0  0
 38 46  1  0  0  0
 38 47  1  0  0  0
 39 64  1  0  0  0
 39 67  2  0  0  0
 40 52  1  0  0  0
 40 53  2  0  0  0
 40 58  1  0  0  0
 41113  1  0  0  0
 41114  1  0  0  0
 41115  1  0  0  0
 41 48  1  0  0  0
 42 43  1  0  0  0
 42 66  1  0  0  0
 42116  1  0  0  0
 42117  1  0  0  0
 43 44  1  0  0  0
 44118  1  0  0  0
 45 46  2  0  0  0
 45119  1  0  0  0
 46120  1  0  0  0
 47121  1  0  0  0
 47122  1  0  0  0
 48 56  1  0  0  0
 48 65  1  0  0  0
 48123  1  0  0  0
 49 50  1  0  0  0
 49 53  1  0  0  0
 49 64  1  0  0  0
 49124  1  0  0  0
 50 51  1  0  0  0
 50125  1  0  0  0
 50126  1  0  0  0
 51 52  1  0  0  0
 51127  1  0  0  0
 51128  1  0  0  0
 52129  1  0  0  0
 52130  1  0  0  0
 53 54  1  0  0  0
 54 55  2  0  0  0
 54131  1  0  0  0
 55 57  1  0  0  0
 55132  1  0  0  0
 56 69  2  0  0  0
 57 58  2  0  0  0
 57133  1  0  0  0
 58134  1  0  0  0
 59 60  1  0  0  0
 59 61  1  0  0  0
 59 62  1  0  0  0
 60135  1  0  0  0
 60136  1  0  0  0
 60137  1  0  0  0
 61138  1  0  0  0
 61139  1  0  0  0
 61140  1  0  0  0
 62141  1  0  0  0
 62142  1  0  0  0
 62143  1  0  0  0
 63 65  1  0  0  0
 63144  1  0  0  0
 63145  1  0  0  0
 63146  1  0  0  0
 64147  1  0  0  0
 65148  1  0  0  0
 68 74  1  0  0  0
 71 74  2  0  0  0
 71 83  1  0  0  0
 71149  1  0  0  0
 72 73  1  0  0  0
 72 80  1  0  0  0
 72 84  2  0  0  0
 73 82  1  0  0  0
 73 83  2  0  0  0
 74 84  1  0  0  0
 75 76  1  0  0  0
 75 78  1  0  0  0
 75150  1  0  0  0
 75151  1  0  0  0
 76 87  1  0  0  0
 76152  1  0  0  0
 76153  1  0  0  0
 77 79  1  0  0  0
 77 87  1  0  0  0
 77154  1  0  0  0
 77155  1  0  0  0
 78 79  1  0  0  0
 78 85  1  0  0  0
 78156  1  0  0  0
 79 86  1  0  0  0
 79157  1  0  0  0
 80 81  1  0  0  0
 80158  1  0  0  0
 80159  1  0  0  0
 81 86  1  0  0  0
 81160  1  0  0  0
 81161  1  0  0  0
 82 88  1  0  0  0
 82 89  1  0  0  0
 82162  1  0  0  0
 85163  1  0  0  0
 86164  1  0  0  0
 87165  1  0  0  0
 87166  1  0  0  0
M  CHG  1  87   1
M  ISO  4   1 100  68 101  74 101  85 100
M  END
> <chiral flag>
0

> <version>
0

> <s_m_source_file>
/data/baiqing/PycharmProjects/Reinvent-master-3.2/result/LINK_invent/BTK/process_docking_weight1_custom_sum_contain_oxygen_bond_distance_aromatic_linkinvent_7_9_3/rearranged_h_0185.sdf

> <i_m_source_file_index>
52

> <r_mmod_Potential_Energy-OPLS-2005>
-42.6107864379883

> <r_mmod_Stretch_Energy-OPLS-2005>
65.3645248413086

> <r_mmod_Bend_Energy-OPLS-2005>
142.611129760742

> <r_mmod_Torsional_Energy-OPLS-2005>
246.247451782227

> <r_mmod_Improper_Torsional_Energy-OPLS-2005>
3.45431184768677

> <r_mmod_Van_der_Waal_Energy-OPLS-2005>
170.175537109375

> <r_mmod_Electrostatic_Energy-OPLS-2005>
-254.673492431641

> <r_mmod_Solvation_Energy-OPLS-2005>
-441.164794921875

> <b_mmod_Minimization_Converged-OPLS-2005>
0

> <r_mmod_RMS_Derivative-OPLS-2005>
2.03897333145142

$$$$
52
                    3D
 Structure written by MMmdl.
152160  0  0  1  0            999 V2000
  -30.6027  -14.7793   20.4462 C   0  0  0  0  0  0
  -30.4346  -12.4762   19.4779 C   0  0  0  0  0  0
  -29.5118  -12.5085   18.2393 C   0  0  0  0  0  0
  -28.0385  -12.3288   18.6532 C   0  0  0  0  0  0
  -27.6404  -13.2350   19.8483 C   0  0  2  0  0  0
  -28.6861  -13.1888   20.9835 C   0  0  0  0  0  0
  -25.2508  -13.8202   20.5708 C   0  0  0  0  0  0
  -24.1804  -13.0444   20.9212 C   0  0  0  0  0  0
  -24.6399  -11.6922   20.8751 C   0  0  0  0  0  0
  -23.9081  -10.4295   21.0407 C   0  0  0  0  0  0
  -24.3628   -9.4209   21.9185 C   0  0  0  0  0  0
  -23.6299   -8.2249   22.0755 C   0  0  0  0  0  0
  -22.4280   -8.0288   21.3545 C   0  0  0  0  0  0
  -21.9921   -9.0262   20.4649 C   0  0  0  0  0  0
  -22.7254  -10.2137   20.3058 C   0  0  0  0  0  0
  -21.6856   -6.0743   22.5279 C   0  0  0  0  0  0
  -21.4015   -6.5645   23.8213 C   0  0  0  0  0  0
  -21.3657   -5.6795   24.9175 C   0  0  0  0  0  0
  -21.6045   -4.3058   24.7223 C   0  0  0  0  0  0
  -21.8819   -3.8151   23.4343 C   0  0  0  0  0  0
  -21.9193   -4.6969   22.3401 C   0  0  0  0  0  0
  -22.7825  -13.5221   21.1866 C   0  0  0  0  0  0
  -22.1663   -4.2158   21.0979 F   0  0  0  0  0  0
  -21.5625   -3.4540   25.7734 F   0  0  0  0  0  0
  -29.9819  -13.5483   20.3965 N   0  0  0  0  0  0
  -26.2935  -12.9416   20.3283 N   0  0  0  0  0  0
  -25.9332  -11.6556   20.5758 N   0  0  0  0  0  0
  -22.0474  -12.8211   22.0418 N   0  0  0  0  0  0
  -25.4192  -15.1934   20.4132 N   0  0  0  0  0  0
  -31.7953  -14.8692   20.1428 O   0  0  0  0  0  0
  -21.6644   -6.8885   21.4241 O   0  0  0  0  0  0
  -22.3512  -14.5525   20.6711 O   0  0  0  0  0  0
  -24.6346  -31.8526   23.1956 C   0  0  0  0  0  0
  -25.9157  -32.4740   23.8315 C   0  0  1  0  0  0
  -27.2205  -27.2321   20.1315 C   0  0  0  0  0  0
  -25.5940  -33.8544   24.2238 N   0  0  0  0  0  0
  -23.4328  -30.4746   21.5404 C   0  0  2  0  0  0
  -24.8799  -28.9162   20.1122 C   0  0  0  0  0  0
  -22.7517  -29.4592   22.4903 C   0  0  0  0  0  0
  -18.0296  -28.1389   22.8482 C   0  0  0  0  0  0
  -24.1491  -36.7276   23.2641 C   0  0  0  0  0  0
  -25.9817  -30.7571   21.3793 C   0  0  0  0  0  0
  -26.0544  -29.3774   20.7196 C   0  0  0  0  0  0
  -27.2278  -28.5505   20.7126 C   0  0  0  0  0  0
  -26.0178  -26.8451   19.4988 C   0  0  0  0  0  0
  -24.8687  -27.6598   19.4897 C   0  0  0  0  0  0
  -23.6528  -29.8074   20.1575 C   0  0  0  0  0  0
  -25.4119  -36.3060   24.0322 C   0  0  1  0  0  0
  -20.5902  -28.3705   23.1260 C   0  0  2  0  0  0
  -20.6783  -26.9420   22.5405 C   0  0  0  0  0  0
  -19.5757  -26.6383   21.5211 C   0  0  0  0  0  0
  -18.1939  -26.7930   22.1624 C   0  0  0  0  0  0
  -19.1550  -28.8865   23.2865 C   0  0  0  0  0  0
  -18.9469  -30.1463   23.8886 C   0  0  0  0  0  0
  -17.6467  -30.6588   24.0562 C   0  0  0  0  0  0
  -25.9063  -34.9432   23.5084 C   0  0  0  0  0  0
  -16.5359  -29.9084   23.6332 C   0  0  0  0  0  0
  -16.7282  -28.6502   23.0354 C   0  0  0  0  0  0
  -26.4511  -31.6576   25.0720 C   0  0  0  0  0  0
  -25.3720  -31.3738   26.1430 C   0  0  0  0  0  0
  -27.0366  -30.2986   24.6236 C   0  0  0  0  0  0
  -27.6054  -32.4328   25.7501 C   0  0  0  0  0  0
  -27.5578  -37.1796   24.8467 C   0  0  0  0  0  0
  -21.4222  -29.3046   22.3644 N   0  0  0  0  0  0
  -26.4292  -37.3761   23.9407 N   0  0  0  0  0  0
  -24.7024  -31.0468   22.0945 N   0  0  0  0  0  0
  -23.4202  -28.8133   23.3015 O   0  0  0  0  0  0
  -28.3143  -26.3244   20.1791 O   0  0  0  0  0  0
  -26.5638  -34.8912   22.4656 O   0  0  0  0  0  0
  -23.5490  -32.1360   23.7235 O   0  0  0  0  0  0
  -29.6156  -22.4872   20.2625 C   0  0  0  0  0  0
  -28.7632  -21.2614   20.3468 C   0  0  0  0  0  0
  -29.3415  -23.8619   20.1838 C   0  0  0  0  0  0
  -31.0434  -21.9889   20.2527 C   0  0  0  0  0  0
  -30.9660  -20.4494   20.3136 C   0  0  0  0  0  0
  -28.0795  -24.8237   20.1088 C   0  0  0  0  0  0
  -29.1414  -18.6207   20.4990 C   0  0  0  0  0  0
  -30.2459  -17.4099   20.4763 C   0  0  0  0  0  0
  -29.5491  -20.1079   20.3852 N   0  0  0  0  0  0
  -29.8331  -15.9291   20.6182 N   0  0  0  0  0  0
  -27.5312  -21.2452   20.3846 O   0  0  0  0  0  0
  -31.4746  -12.6056   19.1740 H   0  0  0  0  0  0
  -30.3866  -11.5050   19.9736 H   0  0  0  0  0  0
  -29.7994  -11.7296   17.5318 H   0  0  0  0  0  0
  -29.6318  -13.4581   17.7155 H   0  0  0  0  0  0
  -27.8985  -11.2808   18.9205 H   0  0  0  0  0  0
  -27.3808  -12.5138   17.8031 H   0  0  0  0  0  0
  -27.6278  -14.2523   19.4565 H   0  0  0  0  0  0
  -28.7310  -12.1973   21.4360 H   0  0  0  0  0  0
  -28.4181  -13.8798   21.7840 H   0  0  0  0  0  0
  -25.2771   -9.5685   22.4762 H   0  0  0  0  0  0
  -24.0009   -7.4641   22.7474 H   0  0  0  0  0  0
  -21.0854   -8.8782   19.8956 H   0  0  0  0  0  0
  -22.3712  -10.9678   19.6169 H   0  0  0  0  0  0
  -21.2011   -7.6153   23.9719 H   0  0  0  0  0  0
  -21.1478   -6.0525   25.9078 H   0  0  0  0  0  0
  -22.0599   -2.7616   23.2840 H   0  0  0  0  0  0
  -22.4099  -11.9874   22.4803 H   0  0  0  0  0  0
  -21.1091  -13.1232   22.2628 H   0  0  0  0  0  0
  -24.6483  -15.8437   20.5249 H   0  0  0  0  0  0
  -26.2607  -15.6352   20.0660 H   0  0  0  0  0  0
  -26.7224  -32.5378   23.1054 H   0  0  0  0  0  0
  -25.0078  -33.9674   25.0378 H   0  0  0  0  0  0
  -22.7309  -31.2979   21.3918 H   0  0  0  0  0  0
  -23.3754  -35.9607   23.3300 H   0  0  0  0  0  0
  -24.3578  -36.8905   22.2056 H   0  0  0  0  0  0
  -23.7245  -37.6474   23.6672 H   0  0  0  0  0  0
  -26.1258  -31.5177   20.6108 H   0  0  0  0  0  0
  -26.8567  -30.8045   22.0159 H   0  0  0  0  0  0
  -28.1277  -28.9011   21.1982 H   0  0  0  0  0  0
  -25.9307  -25.8871   19.0111 H   0  0  0  0  0  0
  -23.9696  -27.3005   19.0079 H   0  0  0  0  0  0
  -23.7814  -30.5830   19.4014 H   0  0  0  0  0  0
  -22.7699  -29.2436   19.8507 H   0  0  0  0  0  0
  -25.1305  -36.1901   25.0815 H   0  0  0  0  0  0
  -20.9996  -28.3287   24.1381 H   0  0  0  0  0  0
  -20.5682  -26.2318   23.3613 H   0  0  0  0  0  0
  -21.6650  -26.7439   22.1199 H   0  0  0  0  0  0
  -19.6918  -25.6291   21.1248 H   0  0  0  0  0  0
  -19.6691  -27.3187   20.6736 H   0  0  0  0  0  0
  -17.4207  -26.6674   21.4031 H   0  0  0  0  0  0
  -18.0341  -26.0075   22.9024 H   0  0  0  0  0  0
  -19.7945  -30.7283   24.2249 H   0  0  0  0  0  0
  -17.5022  -31.6268   24.5165 H   0  0  0  0  0  0
  -15.5359  -30.2983   23.7663 H   0  0  0  0  0  0
  -15.8682  -28.0818   22.7075 H   0  0  0  0  0  0
  -24.5904  -30.7080   25.7757 H   0  0  0  0  0  0
  -24.8902  -32.2910   26.4825 H   0  0  0  0  0  0
  -25.8023  -30.8937   27.0226 H   0  0  0  0  0  0
  -26.2963  -29.6723   24.1244 H   0  0  0  0  0  0
  -27.4015  -29.7264   25.4777 H   0  0  0  0  0  0
  -27.8855  -30.4249   23.9512 H   0  0  0  0  0  0
  -27.2652  -33.3635   26.2052 H   0  0  0  0  0  0
  -28.3878  -32.6875   25.0341 H   0  0  0  0  0  0
  -28.0705  -31.8470   26.5439 H   0  0  0  0  0  0
  -28.2596  -38.0092   24.7504 H   0  0  0  0  0  0
  -28.1072  -36.2621   24.6305 H   0  0  0  0  0  0
  -27.2292  -37.1460   25.8869 H   0  0  0  0  0  0
  -20.9415  -29.8767   21.6841 H   0  0  0  0  0  0
  -26.0166  -38.2835   24.1399 H   0  0  0  0  0  0
  -30.2367  -24.4624   20.1150 H   0  0  0  0  0  0
  -31.5866  -22.3893   21.1094 H   0  0  0  0  0  0
  -31.5508  -22.3207   19.3456 H   0  0  0  0  0  0
  -31.4940  -20.0643   21.1870 H   0  0  0  0  0  0
  -31.4133  -20.0017   19.4251 H   0  0  0  0  0  0
  -27.3784  -24.5315   20.8912 H   0  0  0  0  0  0
  -27.6054  -24.5859   19.1578 H   0  0  0  0  0  0
  -28.5720  -18.5334   21.4246 H   0  0  0  0  0  0
  -28.4211  -18.4371   19.7011 H   0  0  0  0  0  0
  -30.8075  -17.4908   19.5448 H   0  0  0  0  0  0
  -30.9752  -17.6021   21.2644 H   0  0  0  0  0  0
  -28.8587  -15.7607   20.8218 H   0  0  0  0  0  0
  1 25  1  0  0  0
  1 30  2  0  0  0
  1 80  1  0  0  0
  2  3  1  0  0  0
  2 25  1  0  0  0
  2 82  1  0  0  0
  2 83  1  0  0  0
  3  4  1  0  0  0
  3 84  1  0  0  0
  3 85  1  0  0  0
  4  5  1  0  0  0
  4 86  1  0  0  0
  4 87  1  0  0  0
  5  6  1  0  0  0
  5 26  1  0  0  0
  5 88  1  0  0  0
  6 25  1  0  0  0
  6 89  1  0  0  0
  6 90  1  0  0  0
  7  8  2  0  0  0
  7 26  1  0  0  0
  7 29  1  0  0  0
  8  9  1  0  0  0
  8 22  1  0  0  0
  9 10  1  0  0  0
  9 27  2  0  0  0
 10 11  2  0  0  0
 10 15  1  0  0  0
 11 12  1  0  0  0
 11 91  1  0  0  0
 12 13  2  0  0  0
 12 92  1  0  0  0
 13 14  1  0  0  0
 13 31  1  0  0  0
 14 15  2  0  0  0
 14 93  1  0  0  0
 15 94  1  0  0  0
 16 17  2  0  0  0
 16 21  1  0  0  0
 16 31  1  0  0  0
 17 18  1  0  0  0
 17 95  1  0  0  0
 18 19  2  0  0  0
 18 96  1  0  0  0
 19 20  1  0  0  0
 19 24  1  0  0  0
 20 21  2  0  0  0
 20 97  1  0  0  0
 21 23  1  0  0  0
 22 28  1  0  0  0
 22 32  2  0  0  0
 26 27  1  0  0  0
 28 98  1  0  0  0
 28 99  1  0  0  0
 29100  1  0  0  0
 29101  1  0  0  0
 33 34  1  0  0  0
 33 66  1  0  0  0
 33 70  2  0  0  0
 34 36  1  0  0  0
 34 59  1  0  0  0
 34102  1  0  0  0
 35 44  2  0  0  0
 35 45  1  0  0  0
 35 68  1  0  0  0
 36 56  1  0  0  0
 36103  1  0  0  0
 37 39  1  0  0  0
 37 47  1  0  0  0
 37 66  1  0  0  0
 37104  1  0  0  0
 38 43  2  0  0  0
 38 46  1  0  0  0
 38 47  1  0  0  0
 39 64  1  0  0  0
 39 67  2  0  0  0
 40 52  1  0  0  0
 40 53  2  0  0  0
 40 58  1  0  0  0
 41105  1  0  0  0
 41106  1  0  0  0
 41107  1  0  0  0
 41 48  1  0  0  0
 42 43  1  0  0  0
 42 66  1  0  0  0
 42108  1  0  0  0
 42109  1  0  0  0
 43 44  1  0  0  0
 44110  1  0  0  0
 45 46  2  0  0  0
 45111  1  0  0  0
 46112  1  0  0  0
 47113  1  0  0  0
 47114  1  0  0  0
 48 56  1  0  0  0
 48 65  1  0  0  0
 48115  1  0  0  0
 49 50  1  0  0  0
 49 53  1  0  0  0
 49 64  1  0  0  0
 49116  1  0  0  0
 50 51  1  0  0  0
 50117  1  0  0  0
 50118  1  0  0  0
 51 52  1  0  0  0
 51119  1  0  0  0
 51120  1  0  0  0
 52121  1  0  0  0
 52122  1  0  0  0
 53 54  1  0  0  0
 54 55  2  0  0  0
 54123  1  0  0  0
 55 57  1  0  0  0
 55124  1  0  0  0
 56 69  2  0  0  0
 57 58  2  0  0  0
 57125  1  0  0  0
 58126  1  0  0  0
 59 60  1  0  0  0
 59 61  1  0  0  0
 59 62  1  0  0  0
 60127  1  0  0  0
 60128  1  0  0  0
 60129  1  0  0  0
 61130  1  0  0  0
 61131  1  0  0  0
 61132  1  0  0  0
 62133  1  0  0  0
 62134  1  0  0  0
 62135  1  0  0  0
 63 65  1  0  0  0
 63136  1  0  0  0
 63137  1  0  0  0
 63138  1  0  0  0
 64139  1  0  0  0
 65140  1  0  0  0
 68 76  1  0  0  0
 71 72  1  0  0  0
 71 73  2  0  0  0
 71 74  1  0  0  0
 72 79  1  0  0  0
 72 81  2  0  0  0
 73 76  1  0  0  0
 73141  1  0  0  0
 74 75  1  0  0  0
 74142  1  0  0  0
 74143  1  0  0  0
 75 79  1  0  0  0
 75144  1  0  0  0
 75145  1  0  0  0
 76146  1  0  0  0
 76147  1  0  0  0
 77 78  1  0  0  0
 77 79  1  0  0  0
 77148  1  0  0  0
 77149  1  0  0  0
 78 80  1  0  0  0
 78150  1  0  0  0
 78151  1  0  0  0
 80152  1  0  0  0
M  ISO  4   1 100  68 101  76 101  80 100
M  END
> <chiral flag>
0

> <version>
0

> <s_m_source_file>
/data/baiqing/PycharmProjects/Reinvent-master-3.2/result/LINK_invent/BTK/process_docking_weight1_custom_sum_contain_oxygen_bond_distance_aromatic_linkinvent_7_9_3/rearranged_h_0185.sdf

> <i_m_source_file_index>
53

> <r_mmod_Potential_Energy-OPLS-2005>
208.792419433594

> <r_mmod_Stretch_Energy-OPLS-2005>
139.714370727539

> <r_mmod_Bend_Energy-OPLS-2005>
219.125305175781

> <r_mmod_Torsional_Energy-OPLS-2005>
247.753753662109

> <r_mmod_Improper_Torsional_Energy-OPLS-2005>
4.83686637878418

> <r_mmod_Van_der_Waal_Energy-OPLS-2005>
114.136207580566

> <r_mmod_Electrostatic_Energy-OPLS-2005>
-379.826385498047

> <r_mmod_Solvation_Energy-OPLS-2005>
-238.675033569336

> <b_mmod_Minimization_Converged-OPLS-2005>
0

> <r_mmod_RMS_Derivative-OPLS-2005>
0.737833619117737

$$$$
53
                    3D
 Structure written by MMmdl.
168177  0  0  1  0            999 V2000
  -30.7493  -14.4514   20.6080 C   0  0  0  0  0  0
  -30.4233  -12.3134   19.4190 C   0  0  0  0  0  0
  -29.4931  -12.5134   18.2063 C   0  0  0  0  0  0
  -28.0147  -12.3743   18.6209 C   0  0  0  0  0  0
  -27.6643  -13.2141   19.8795 C   0  0  2  0  0  0
  -28.7099  -13.0033   20.9998 C   0  0  0  0  0  0
  -25.2591  -13.8186   20.5723 C   0  0  0  0  0  0
  -24.1842  -13.0447   20.9213 C   0  0  0  0  0  0
  -24.6408  -11.6911   20.8756 C   0  0  0  0  0  0
  -23.9083  -10.4288   21.0401 C   0  0  0  0  0  0
  -24.3636   -9.4205   21.9189 C   0  0  0  0  0  0
  -23.6325   -8.2232   22.0754 C   0  0  0  0  0  0
  -22.4301   -8.0268   21.3543 C   0  0  0  0  0  0
  -21.9944   -9.0228   20.4641 C   0  0  0  0  0  0
  -22.7262  -10.2116   20.3049 C   0  0  0  0  0  0
  -21.6851   -6.0754   22.5294 C   0  0  0  0  0  0
  -21.3995   -6.5644   23.8224 C   0  0  0  0  0  0
  -21.3654   -5.6793   24.9185 C   0  0  0  0  0  0
  -21.6048   -4.3068   24.7227 C   0  0  0  0  0  0
  -21.8827   -3.8160   23.4349 C   0  0  0  0  0  0
  -21.9198   -4.6984   22.3417 C   0  0  0  0  0  0
  -22.7851  -13.5219   21.1858 C   0  0  0  0  0  0
  -22.1660   -4.2182   21.0992 F   0  0  0  0  0  0
  -21.5643   -3.4543   25.7733 F   0  0  0  0  0  0
  -30.0478  -13.2964   20.4486 N   0  0  0  0  0  0
  -26.3042  -12.9381   20.3415 N   0  0  0  0  0  0
  -25.9344  -11.6529   20.5810 N   0  0  0  0  0  0
  -22.0470  -12.8215   22.0401 N   0  0  0  0  0  0
  -25.4298  -15.1904   20.4124 N   0  0  0  0  0  0
  -31.8341  -14.6616   20.0589 O   0  0  0  0  0  0
  -21.6643   -6.8880   21.4244 O   0  0  0  0  0  0
  -22.3527  -14.5508   20.6682 O   0  0  0  0  0  0
  -24.6133  -31.8679   23.2096 C   0  0  0  0  0  0
  -25.9031  -32.4815   23.8399 C   0  0  1  0  0  0
  -27.2669  -27.4478   20.0924 C   0  0  0  0  0  0
  -25.5895  -33.8616   24.2332 N   0  0  0  0  0  0
  -23.4045  -30.4865   21.5480 C   0  0  2  0  0  0
  -24.8611  -28.9507   20.1140 C   0  0  0  0  0  0
  -22.7410  -29.4653   22.4992 C   0  0  0  0  0  0
  -18.0261  -28.1387   22.8490 C   0  0  0  0  0  0
  -24.1471  -36.7294   23.2640 C   0  0  0  0  0  0
  -25.9310  -30.8330   21.3657 C   0  0  0  0  0  0
  -26.0143  -29.4656   20.7183 C   0  0  0  0  0  0
  -27.2116  -28.7150   20.7194 C   0  0  0  0  0  0
  -26.0931  -26.9437   19.4874 C   0  0  0  0  0  0
  -24.8952  -27.6880   19.4983 C   0  0  0  0  0  0
  -23.6165  -29.8107   20.1650 C   0  0  0  0  0  0
  -25.4097  -36.3106   24.0341 C   0  0  1  0  0  0
  -20.5859  -28.3665   23.1325 C   0  0  2  0  0  0
  -20.6756  -26.9398   22.5422 C   0  0  0  0  0  0
  -19.5737  -26.6382   21.5215 C   0  0  0  0  0  0
  -18.1912  -26.7935   22.1620 C   0  0  0  0  0  0
  -19.1517  -28.8842   23.2911 C   0  0  0  0  0  0
  -18.9446  -30.1442   23.8921 C   0  0  0  0  0  0
  -17.6450  -30.6587   24.0574 C   0  0  0  0  0  0
  -25.9033  -34.9471   23.5138 C   0  0  0  0  0  0
  -16.5337  -29.9090   23.6340 C   0  0  0  0  0  0
  -16.7251  -28.6513   23.0342 C   0  0  0  0  0  0
  -26.4458  -31.6594   25.0727 C   0  0  0  0  0  0
  -25.3719  -31.3672   26.1464 C   0  0  0  0  0  0
  -27.0301  -30.3048   24.6094 C   0  0  0  0  0  0
  -27.6033  -32.4307   25.7506 C   0  0  0  0  0  0
  -27.5568  -37.1806   24.8470 C   0  0  0  0  0  0
  -21.4138  -29.3029   22.3734 N   0  0  0  0  0  0
  -26.4279  -37.3793   23.9414 N   0  0  0  0  0  0
  -24.6669  -31.0770   22.0998 N   0  0  0  0  0  0
  -23.4170  -28.8203   23.3053 O   0  0  0  0  0  0
  -28.4416  -26.7199   20.1378 O   0  0  0  0  0  0
  -26.5590  -34.8921   22.4694 O   0  0  0  0  0  0
  -23.5333  -32.1427   23.7486 O   0  0  0  0  0  0
  -31.7552  -22.3966   20.7256 C   0  0  0  0  0  0
  -31.4276  -23.6952   20.2955 C   0  0  0  0  0  0
  -30.3312  -23.9131   19.4670 C   0  0  0  0  0  0
  -30.9392  -21.3350   20.2822 C   0  0  0  0  0  0
  -29.5815  -22.7919   19.0394 C   0  0  0  0  0  0
  -32.2081  -24.9556   20.5510 C   0  0  0  0  0  0
  -31.3155  -26.0672   19.9498 C   0  0  0  0  0  0
  -30.2734  -25.3796   19.0226 C   0  0  2  0  0  0
  -27.0776  -22.8733   18.6745 C   0  0  0  0  0  0
  -28.4632  -22.8694   18.0176 C   0  0  0  0  0  0
  -31.2161  -19.8807   20.6669 C   0  0  0  0  0  0
  -28.9029  -26.1299   18.9201 C   0  0  0  0  0  0
  -30.6098  -16.8031   21.5148 C   0  0  0  0  0  0
  -29.7501  -17.7936   20.6825 C   0  0  0  0  0  0
  -29.8612  -21.5379   19.4796 N   0  0  0  0  0  0
  -30.1573  -15.4088   21.3380 N   0  0  0  0  0  0
  -29.9345  -19.2353   21.0001 N   0  3  0  0  0  0
  -31.4668  -12.4082   19.1132 H   0  0  0  0  0  0
  -30.3221  -11.3018   19.8154 H   0  0  0  0  0  0
  -29.7346  -11.7861   17.4307 H   0  0  0  0  0  0
  -29.6649  -13.4969   17.7661 H   0  0  0  0  0  0
  -27.8254  -11.3172   18.8137 H   0  0  0  0  0  0
  -27.3627  -12.6523   17.7916 H   0  0  0  0  0  0
  -27.7039  -14.2629   19.5833 H   0  0  0  0  0  0
  -28.6805  -11.9701   21.3546 H   0  0  0  0  0  0
  -28.4644  -13.6144   21.8698 H   0  0  0  0  0  0
  -25.2767   -9.5719   22.4777 H   0  0  0  0  0  0
  -24.0063   -7.4634   22.7464 H   0  0  0  0  0  0
  -21.0904   -8.8721   19.8927 H   0  0  0  0  0  0
  -22.3709  -10.9649   19.6171 H   0  0  0  0  0  0
  -21.1940   -7.6140   23.9753 H   0  0  0  0  0  0
  -21.1469   -6.0503   25.9098 H   0  0  0  0  0  0
  -22.0610   -2.7625   23.2836 H   0  0  0  0  0  0
  -22.4042  -11.9893   22.4858 H   0  0  0  0  0  0
  -21.1064  -13.1218   22.2492 H   0  0  0  0  0  0
  -24.6648  -15.8492   20.5158 H   0  0  0  0  0  0
  -26.2874  -15.6282   20.1021 H   0  0  0  0  0  0
  -26.7110  -32.5544   23.1178 H   0  0  0  0  0  0
  -25.0058  -33.9782   25.0490 H   0  0  0  0  0  0
  -22.6933  -31.3028   21.4031 H   0  0  0  0  0  0
  -23.3744  -35.9616   23.3317 H   0  0  0  0  0  0
  -24.3561  -36.8897   22.2051 H   0  0  0  0  0  0
  -23.7202  -37.6496   23.6646 H   0  0  0  0  0  0
  -26.0394  -31.5961   20.5944 H   0  0  0  0  0  0
  -26.8192  -30.8937   21.9815 H   0  0  0  0  0  0
  -28.0985  -29.1079   21.1977 H   0  0  0  0  0  0
  -26.0843  -25.9686   19.0249 H   0  0  0  0  0  0
  -24.0073  -27.2813   19.0318 H   0  0  0  0  0  0
  -23.7136  -30.5796   19.3977 H   0  0  0  0  0  0
  -22.7456  -29.2191   19.8766 H   0  0  0  0  0  0
  -25.1275  -36.1971   25.0839 H   0  0  0  0  0  0
  -20.9940  -28.3220   24.1453 H   0  0  0  0  0  0
  -20.5657  -26.2266   23.3605 H   0  0  0  0  0  0
  -21.6631  -26.7447   22.1216 H   0  0  0  0  0  0
  -19.6898  -25.6292   21.1246 H   0  0  0  0  0  0
  -19.6690  -27.3198   20.6749 H   0  0  0  0  0  0
  -17.4185  -26.6675   21.4019 H   0  0  0  0  0  0
  -18.0315  -26.0073   22.9016 H   0  0  0  0  0  0
  -19.7922  -30.7247   24.2312 H   0  0  0  0  0  0
  -17.5005  -31.6274   24.5164 H   0  0  0  0  0  0
  -15.5341  -30.2991   23.7676 H   0  0  0  0  0  0
  -15.8648  -28.0845   22.7047 H   0  0  0  0  0  0
  -24.5906  -30.7014   25.7778 H   0  0  0  0  0  0
  -24.8892  -32.2816   26.4937 H   0  0  0  0  0  0
  -25.8069  -30.8814   27.0209 H   0  0  0  0  0  0
  -26.2848  -29.6800   24.1157 H   0  0  0  0  0  0
  -27.4098  -29.7285   25.4543 H   0  0  0  0  0  0
  -27.8670  -30.4382   23.9229 H   0  0  0  0  0  0
  -27.2657  -33.3601   26.2108 H   0  0  0  0  0  0
  -28.3852  -32.6870   25.0343 H   0  0  0  0  0  0
  -28.0690  -31.8406   26.5414 H   0  0  0  0  0  0
  -28.2599  -38.0090   24.7529 H   0  0  0  0  0  0
  -28.1050  -36.2633   24.6290 H   0  0  0  0  0  0
  -27.2288  -37.1443   25.8871 H   0  0  0  0  0  0
  -20.9289  -29.8730   21.6937 H   0  0  0  0  0  0
  -26.0172  -38.2872   24.1420 H   0  0  0  0  0  0
  -32.6217  -22.2151   21.3476 H   0  0  0  0  0  0
  -33.1652  -24.8959   20.0321 H   0  0  0  0  0  0
  -32.4054  -25.0982   21.6135 H   0  0  0  0  0  0
  -31.8874  -26.8519   19.4545 H   0  0  0  0  0  0
  -30.8021  -26.5393   20.7887 H   0  0  0  0  0  0
  -30.6949  -25.3658   18.0158 H   0  0  0  0  0  0
  -26.2918  -22.9469   17.9229 H   0  0  0  0  0  0
  -26.9642  -23.7079   19.3639 H   0  0  0  0  0  0
  -26.9129  -21.9577   19.2397 H   0  0  0  0  0  0
  -28.5416  -22.0085   17.3555 H   0  0  0  0  0  0
  -28.6018  -23.7284   17.3632 H   0  0  0  0  0  0
  -31.9025  -19.8241   21.5121 H   0  0  0  0  0  0
  -31.6913  -19.3838   19.8210 H   0  0  0  0  0  0
  -28.1412  -25.4942   18.4867 H   0  0  0  0  0  0
  -29.0315  -26.9514   18.2137 H   0  0  0  0  0  0
  -30.5535  -17.0444   22.5772 H   0  0  0  0  0  0
  -31.6622  -16.9065   21.2382 H   0  0  0  0  0  0
  -28.6965  -17.5720   20.8557 H   0  0  0  0  0  0
  -29.9190  -17.6376   19.6177 H   0  0  0  0  0  0
  -29.2815  -15.1572   21.7719 H   0  0  0  0  0  0
  -29.3052  -19.7727   20.4169 H   0  0  0  0  0  0
  -29.6971  -19.4438   21.9547 H   0  0  0  0  0  0
  1 25  1  0  0  0
  1 30  2  0  0  0
  1 86  1  0  0  0
  2  3  1  0  0  0
  2 25  1  0  0  0
  2 88  1  0  0  0
  2 89  1  0  0  0
  3  4  1  0  0  0
  3 90  1  0  0  0
  3 91  1  0  0  0
  4  5  1  0  0  0
  4 92  1  0  0  0
  4 93  1  0  0  0
  5  6  1  0  0  0
  5 26  1  0  0  0
  5 94  1  0  0  0
  6 25  1  0  0  0
  6 95  1  0  0  0
  6 96  1  0  0  0
  7  8  2  0  0  0
  7 26  1  0  0  0
  7 29  1  0  0  0
  8  9  1  0  0  0
  8 22  1  0  0  0
  9 10  1  0  0  0
  9 27  2  0  0  0
 10 11  2  0  0  0
 10 15  1  0  0  0
 11 12  1  0  0  0
 11 97  1  0  0  0
 12 13  2  0  0  0
 12 98  1  0  0  0
 13 14  1  0  0  0
 13 31  1  0  0  0
 14 15  2  0  0  0
 14 99  1  0  0  0
 15100  1  0  0  0
 16 17  2  0  0  0
 16 21  1  0  0  0
 16 31  1  0  0  0
 17 18  1  0  0  0
 17101  1  0  0  0
 18 19  2  0  0  0
 18102  1  0  0  0
 19 20  1  0  0  0
 19 24  1  0  0  0
 20 21  2  0  0  0
 20103  1  0  0  0
 21 23  1  0  0  0
 22 28  1  0  0  0
 22 32  2  0  0  0
 26 27  1  0  0  0
 28104  1  0  0  0
 28105  1  0  0  0
 29106  1  0  0  0
 29107  1  0  0  0
 33 34  1  0  0  0
 33 66  1  0  0  0
 33 70  2  0  0  0
 34 36  1  0  0  0
 34 59  1  0  0  0
 34108  1  0  0  0
 35 44  2  0  0  0
 35 45  1  0  0  0
 35 68  1  0  0  0
 36 56  1  0  0  0
 36109  1  0  0  0
 37 39  1  0  0  0
 37 47  1  0  0  0
 37 66  1  0  0  0
 37110  1  0  0  0
 38 43  2  0  0  0
 38 46  1  0  0  0
 38 47  1  0  0  0
 39 64  1  0  0  0
 39 67  2  0  0  0
 40 52  1  0  0  0
 40 53  2  0  0  0
 40 58  1  0  0  0
 41111  1  0  0  0
 41112  1  0  0  0
 41113  1  0  0  0
 41 48  1  0  0  0
 42 43  1  0  0  0
 42 66  1  0  0  0
 42114  1  0  0  0
 42115  1  0  0  0
 43 44  1  0  0  0
 44116  1  0  0  0
 45 46  2  0  0  0
 45117  1  0  0  0
 46118  1  0  0  0
 47119  1  0  0  0
 47120  1  0  0  0
 48 56  1  0  0  0
 48 65  1  0  0  0
 48121  1  0  0  0
 49 50  1  0  0  0
 49 53  1  0  0  0
 49 64  1  0  0  0
 49122  1  0  0  0
 50 51  1  0  0  0
 50123  1  0  0  0
 50124  1  0  0  0
 51 52  1  0  0  0
 51125  1  0  0  0
 51126  1  0  0  0
 52127  1  0  0  0
 52128  1  0  0  0
 53 54  1  0  0  0
 54 55  2  0  0  0
 54129  1  0  0  0
 55 57  1  0  0  0
 55130  1  0  0  0
 56 69  2  0  0  0
 57 58  2  0  0  0
 57131  1  0  0  0
 58132  1  0  0  0
 59 60  1  0  0  0
 59 61  1  0  0  0
 59 62  1  0  0  0
 60133  1  0  0  0
 60134  1  0  0  0
 60135  1  0  0  0
 61136  1  0  0  0
 61137  1  0  0  0
 61138  1  0  0  0
 62139  1  0  0  0
 62140  1  0  0  0
 62141  1  0  0  0
 63 65  1  0  0  0
 63142  1  0  0  0
 63143  1  0  0  0
 63144  1  0  0  0
 64145  1  0  0  0
 65146  1  0  0  0
 68 82  1  0  0  0
 71 72  2  0  0  0
 71 74  1  0  0  0
 71147  1  0  0  0
 72 73  1  0  0  0
 72 76  1  0  0  0
 73 75  2  0  0  0
 73 78  1  0  0  0
 74 81  1  0  0  0
 74 85  2  0  0  0
 75 80  1  0  0  0
 75 85  1  0  0  0
 76 77  1  0  0  0
 76148  1  0  0  0
 76149  1  0  0  0
 77 78  1  0  0  0
 77150  1  0  0  0
 77151  1  0  0  0
 78 82  1  0  0  0
 78152  1  0  0  0
 79 80  1  0  0  0
 79153  1  0  0  0
 79154  1  0  0  0
 79155  1  0  0  0
 80156  1  0  0  0
 80157  1  0  0  0
 81 87  1  0  0  0
 81158  1  0  0  0
 81159  1  0  0  0
 82160  1  0  0  0
 82161  1  0  0  0
 83 84  1  0  0  0
 83 86  1  0  0  0
 83162  1  0  0  0
 83163  1  0  0  0
 84 87  1  0  0  0
 84164  1  0  0  0
 84165  1  0  0  0
 86166  1  0  0  0
 87167  1  0  0  0
 87168  1  0  0  0
M  CHG  1  87   1
M  ISO  4   1 100  68 101  82 101  86 100
M  END
> <chiral flag>
0

> <version>
0

> <s_m_source_file>
/data/baiqing/PycharmProjects/Reinvent-master-3.2/result/LINK_invent/BTK/process_docking_weight1_custom_sum_contain_oxygen_bond_distance_aromatic_linkinvent_7_9_3/rearranged_h_0185.sdf

> <i_m_source_file_index>
54

> <r_mmod_Potential_Energy-OPLS-2005>
-522.668151855469

> <r_mmod_Stretch_Energy-OPLS-2005>
39.9509658813477

> <r_mmod_Bend_Energy-OPLS-2005>
159.618057250977

> <r_mmod_Torsional_Energy-OPLS-2005>
222.865264892578

> <r_mmod_Improper_Torsional_Energy-OPLS-2005>
3.40663552284241

> <r_mmod_Van_der_Waal_Energy-OPLS-2005>
147.56135559082

> <r_mmod_Electrostatic_Energy-OPLS-2005>
-641.806091308594

> <r_mmod_Solvation_Energy-OPLS-2005>
-465.690612792969

> <b_mmod_Minimization_Converged-OPLS-2005>
0

> <r_mmod_RMS_Derivative-OPLS-2005>
3.09665465354919

$$$$
54
                    3D
 Structure written by MMmdl.
152161  0  0  1  0            999 V2000
  -28.2015  -16.7023   20.7340 C   0  0  0  0  0  0
  -29.7649  -14.2482   19.7191 C   0  0  0  0  0  0
  -29.4256  -13.1187   18.6076 C   0  0  0  0  0  0
  -28.1816  -12.3097   18.9701 C   0  0  0  0  0  0
  -27.3661  -13.2668   19.8256 C   0  0  2  0  0  0
  -28.0616  -13.8767   21.0487 C   0  0  0  0  0  0
  -25.1060  -13.7848   20.5478 C   0  0  0  0  0  0
  -24.0771  -13.0061   20.9401 C   0  0  0  0  0  0
  -24.5582  -11.6604   20.8906 C   0  0  0  0  0  0
  -23.8556  -10.4047   21.0583 C   0  0  0  0  0  0
  -24.3322   -9.4047   21.9298 C   0  0  0  0  0  0
  -23.6109   -8.2046   22.0778 C   0  0  0  0  0  0
  -22.4115   -8.0078   21.3537 C   0  0  0  0  0  0
  -21.9651   -8.9994   20.4653 C   0  0  0  0  0  0
  -22.6850  -10.1902   20.3122 C   0  0  0  0  0  0
  -21.6799   -6.0622   22.5299 C   0  0  0  0  0  0
  -21.3949   -6.5570   23.8211 C   0  0  0  0  0  0
  -21.3630   -5.6750   24.9191 C   0  0  0  0  0  0
  -21.6049   -4.3016   24.7264 C   0  0  0  0  0  0
  -21.8828   -3.8077   23.4398 C   0  0  0  0  0  0
  -21.9160   -4.6864   22.3436 C   0  0  0  0  0  0
  -22.6988  -13.4963   21.2146 C   0  0  0  0  0  0
  -22.1665   -4.2053   21.1020 F   0  0  0  0  0  0
  -21.5637   -3.4523   25.7791 F   0  0  0  0  0  0
  -28.5566  -15.1295   20.4660 N   0  0  0  0  0  0
  -26.1049  -12.8871   20.2618 N   0  0  0  0  0  0
  -25.8316  -11.6104   20.5510 N   0  0  0  0  0  0
  -21.9711  -12.8044   22.0771 N   0  0  0  0  0  0
  -25.2682  -15.1609   20.3785 N   0  0  0  0  0  0
  -29.5103  -16.8223   20.6023 O   0  0  0  0  0  0
  -21.6527   -6.8687   21.4235 O   0  0  0  0  0  0
  -22.2837  -14.5335   20.6991 O   0  0  0  0  0  0
  -24.6583  -31.9617   23.1910 C   0  0  0  0  0  0
  -25.9554  -32.5086   23.8407 C   0  0  1  0  0  0
  -25.1344  -27.1907   20.7997 C   0  0  0  0  0  0
  -25.6449  -33.8823   24.2454 N   0  0  0  0  0  0
  -23.4312  -30.6390   21.5218 C   0  0  2  0  0  0
  -24.8412  -29.3699   19.6849 C   0  0  0  0  0  0
  -23.0325  -29.5756   22.5724 C   0  0  0  0  0  0
  -19.7046  -26.6886   22.1487 C   0  0  0  0  0  0
  -24.1509  -36.7333   23.2590 C   0  0  0  0  0  0
  -25.9641  -30.8054   21.3958 C   0  0  0  0  0  0
  -25.8161  -29.4813   20.6725 C   0  0  0  0  0  0
  -26.1113  -28.2177   21.2250 C   0  0  0  0  0  0
  -25.5017  -27.0538   19.4551 C   0  0  0  0  0  0
  -24.8323  -28.1641   18.9006 C   0  0  0  0  0  0
  -23.5722  -30.1414   20.0189 C   0  0  0  0  0  0
  -25.4149  -36.3196   24.0300 C   0  0  1  0  0  0
  -21.5176  -27.9708   23.5765 C   0  0  2  0  0  0
  -22.7662  -26.6488   23.4887 C   0  0  0  0  0  0
  -23.4227  -25.4425   22.0952 C   0  0  0  0  0  0
  -22.2478  -25.0648   20.5762 C   0  0  0  0  0  0
  -20.0235  -27.8346   23.1675 C   0  0  0  0  0  0
  -19.3111  -29.0441   23.7363 C   0  0  0  0  0  0
  -17.9856  -29.4244   23.5338 C   0  0  0  0  0  0
  -25.9210  -34.9636   23.5087 C   0  0  0  0  0  0
  -17.4108  -28.4295   22.7269 C   0  0  0  0  0  0
  -18.1910  -27.2576   22.1010 C   0  0  0  0  0  0
  -26.4580  -31.6700   25.0819 C   0  0  0  0  0  0
  -25.3636  -31.3870   26.1379 C   0  0  0  0  0  0
  -27.0408  -30.3086   24.6415 C   0  0  0  0  0  0
  -27.6106  -32.4298   25.7785 C   0  0  0  0  0  0
  -27.5617  -37.1863   24.8440 C   0  0  0  0  0  0
  -21.7959  -29.1883   22.7534 N   0  0  0  0  0  0
  -26.4284  -37.3921   23.9466 N   0  0  0  0  0  0
  -24.7009  -31.2280   22.0402 N   0  0  0  0  0  0
  -23.8821  -29.1067   23.3175 O   0  0  0  0  0  0
  -23.5420  -27.4070   20.8471 O   0  0  0  0  0  0
  -26.5572  -34.9078   22.4529 O   0  0  0  0  0  0
  -23.5797  -32.2344   23.7443 O   0  0  0  0  0  0
  -20.6516  -26.5844   20.0431 C   0  0  0  0  0  0
  -20.3156  -23.7151   20.9678 C   0  0  0  0  0  0
  -21.5805  -23.3203   21.9880 C   0  0  0  0  0  0
  -21.7768  -26.9630   21.3201 C   0  0  0  0  0  0
  -25.9574  -19.9593   20.0270 C   0  0  0  0  0  0
  -27.2886  -19.4362   20.7284 C   0  0  0  0  0  0
  -24.9950  -19.5535   21.1445 C   0  0  2  0  0  0
  -19.5965  -22.5317   20.3619 C   0  0  0  0  0  0
  -23.4779  -21.7112   21.7784 C   0  0  0  0  0  0
  -19.9390  -25.0993   20.1643 N   0  0  0  0  0  0
  -21.2465  -25.0524   22.4797 N   0  0  0  0  0  0
  -26.7852  -18.0679   20.9646 N   0  0  0  0  0  0
  -30.3889  -14.9739   19.1952 H   0  0  0  0  0  0
  -30.4572  -13.8480   20.4629 H   0  0  0  0  0  0
  -30.2834  -12.4637   18.4403 H   0  0  0  0  0  0
  -29.2387  -13.6196   17.6574 H   0  0  0  0  0  0
  -28.4594  -11.4301   19.5531 H   0  0  0  0  0  0
  -27.6378  -11.9634   18.0882 H   0  0  0  0  0  0
  -27.1227  -14.0352   19.0838 H   0  0  0  0  0  0
  -28.7671  -13.2037   21.5404 H   0  0  0  0  0  0
  -27.3757  -14.1609   21.8487 H   0  0  0  0  0  0
  -25.2440   -9.5630   22.4898 H   0  0  0  0  0  0
  -23.9859   -7.4430   22.7465 H   0  0  0  0  0  0
  -21.0600   -8.8421   19.8966 H   0  0  0  0  0  0
  -22.3265  -10.9452   19.6270 H   0  0  0  0  0  0
  -21.1932   -7.6082   23.9680 H   0  0  0  0  0  0
  -21.1453   -6.0502   25.9085 H   0  0  0  0  0  0
  -22.0638   -2.7544   23.2932 H   0  0  0  0  0  0
  -22.3271  -11.9658   22.5103 H   0  0  0  0  0  0
  -21.0377  -13.1153   22.3036 H   0  0  0  0  0  0
  -24.4545  -15.7619   20.4459 H   0  0  0  0  0  0
  -25.9556  -15.5182   19.7326 H   0  0  0  0  0  0
  -26.7669  -32.5521   23.1145 H   0  0  0  0  0  0
  -25.0766  -33.9934   25.0726 H   0  0  0  0  0  0
  -22.6503  -31.4021   21.5262 H   0  0  0  0  0  0
  -23.3859  -35.9569   23.3177 H   0  0  0  0  0  0
  -24.3622  -36.9050   22.2023 H   0  0  0  0  0  0
  -23.7170  -37.6465   23.6668 H   0  0  0  0  0  0
  -26.2705  -31.5704   20.6791 H   0  0  0  0  0  0
  -26.7919  -30.6870   22.0812 H   0  0  0  0  0  0
  -26.5704  -28.1686   22.1997 H   0  0  0  0  0  0
  -26.5672  -27.0288   19.2536 H   0  0  0  0  0  0
  -23.9741  -27.9740   18.2743 H   0  0  0  0  0  0
  -23.5635  -31.0143   19.3666 H   0  0  0  0  0  0
  -22.6967  -29.5590   19.7337 H   0  0  0  0  0  0
  -25.1321  -36.2002   25.0781 H   0  0  0  0  0  0
  -21.5347  -28.2800   24.6259 H   0  0  0  0  0  0
  -22.4654  -25.9961   24.3111 H   0  0  0  0  0  0
  -23.6861  -26.9728   23.9662 H   0  0  0  0  0  0
  -23.5407  -24.5297   22.6797 H   0  0  0  0  0  0
  -24.4849  -25.3530   21.9190 H   0  0  0  0  0  0
  -22.3584  -24.1126   20.0255 H   0  0  0  0  0  0
  -22.7258  -25.5549   19.7098 H   0  0  0  0  0  0
  -19.8640  -29.7070   24.3891 H   0  0  0  0  0  0
  -17.4819  -30.2845   23.9552 H   0  0  0  0  0  0
  -16.3646  -28.5340   22.4720 H   0  0  0  0  0  0
  -17.5826  -26.7122   21.3934 H   0  0  0  0  0  0
  -24.5772  -30.7379   25.7506 H   0  0  0  0  0  0
  -24.8914  -32.3067   26.4837 H   0  0  0  0  0  0
  -25.7775  -30.8896   27.0158 H   0  0  0  0  0  0
  -26.3001  -29.6854   24.1428 H   0  0  0  0  0  0
  -27.3945  -29.7387   25.5013 H   0  0  0  0  0  0
  -27.8979  -30.4279   23.9790 H   0  0  0  0  0  0
  -27.2715  -33.3551   26.2450 H   0  0  0  0  0  0
  -28.4017  -32.6904   25.0744 H   0  0  0  0  0  0
  -28.0643  -31.8316   26.5694 H   0  0  0  0  0  0
  -28.2528  -38.0262   24.7738 H   0  0  0  0  0  0
  -28.1239  -36.2856   24.5981 H   0  0  0  0  0  0
  -27.2381  -37.1155   25.8827 H   0  0  0  0  0  0
  -21.0303  -29.6106   22.2429 H   0  0  0  0  0  0
  -26.0153  -38.2951   24.1607 H   0  0  0  0  0  0
  -20.5211  -27.1769   19.1462 H   0  0  0  0  0  0
  -25.7417  -19.4505   19.0858 H   0  0  0  0  0  0
  -25.9679  -21.0348   19.8584 H   0  0  0  0  0  0
  -27.5226  -19.9737   21.6500 H   0  0  0  0  0  0
  -28.1470  -19.4837   20.0591 H   0  0  0  0  0  0
  -24.1978  -18.9202   20.7534 H   0  0  0  0  0  0
  -20.3066  -21.7316   20.1531 H   0  0  0  0  0  0
  -19.1012  -22.7948   19.4270 H   0  0  0  0  0  0
  -18.8477  -22.1543   21.0572 H   0  0  0  0  0  0
  -23.6972  -21.7488   22.8445 H   0  0  0  0  0  0
  -24.1273  -22.4741   21.3510 H   0  0  0  0  0  0
  1 25  1  0  0  0
  1 30  2  0  0  0
  1 82  1  0  0  0
  2  3  1  0  0  0
  2 25  1  0  0  0
  2 83  1  0  0  0
  2 84  1  0  0  0
  3  4  1  0  0  0
  3 85  1  0  0  0
  3 86  1  0  0  0
  4  5  1  0  0  0
  4 87  1  0  0  0
  4 88  1  0  0  0
  5  6  1  0  0  0
  5 26  1  0  0  0
  5 89  1  0  0  0
  6 25  1  0  0  0
  6 90  1  0  0  0
  6 91  1  0  0  0
  7  8  2  0  0  0
  7 26  1  0  0  0
  7 29  1  0  0  0
  8  9  1  0  0  0
  8 22  1  0  0  0
  9 10  1  0  0  0
  9 27  2  0  0  0
 10 11  2  0  0  0
 10 15  1  0  0  0
 11 12  1  0  0  0
 11 92  1  0  0  0
 12 13  2  0  0  0
 12 93  1  0  0  0
 13 14  1  0  0  0
 13 31  1  0  0  0
 14 15  2  0  0  0
 14 94  1  0  0  0
 15 95  1  0  0  0
 16 17  2  0  0  0
 16 21  1  0  0  0
 16 31  1  0  0  0
 17 18  1  0  0  0
 17 96  1  0  0  0
 18 19  2  0  0  0
 18 97  1  0  0  0
 19 20  1  0  0  0
 19 24  1  0  0  0
 20 21  2  0  0  0
 20 98  1  0  0  0
 21 23  1  0  0  0
 22 28  1  0  0  0
 22 32  2  0  0  0
 26 27  1  0  0  0
 28 99  1  0  0  0
 28100  1  0  0  0
 29101  1  0  0  0
 29102  1  0  0  0
 33 34  1  0  0  0
 33 66  1  0  0  0
 33 70  2  0  0  0
 34 36  1  0  0  0
 34 59  1  0  0  0
 34103  1  0  0  0
 35 44  2  0  0  0
 35 45  1  0  0  0
 35 68  1  0  0  0
 36 56  1  0  0  0
 36104  1  0  0  0
 37 39  1  0  0  0
 37 47  1  0  0  0
 37 66  1  0  0  0
 37105  1  0  0  0
 38 43  2  0  0  0
 38 46  1  0  0  0
 38 47  1  0  0  0
 39 64  1  0  0  0
 39 67  2  0  0  0
 40 52  1  0  0  0
 40 53  2  0  0  0
 40 58  1  0  0  0
 41106  1  0  0  0
 41107  1  0  0  0
 41108  1  0  0  0
 41 48  1  0  0  0
 42 43  1  0  0  0
 42 66  1  0  0  0
 42109  1  0  0  0
 42110  1  0  0  0
 43 44  1  0  0  0
 44111  1  0  0  0
 45 46  2  0  0  0
 45112  1  0  0  0
 46113  1  0  0  0
 47114  1  0  0  0
 47115  1  0  0  0
 48 56  1  0  0  0
 48 65  1  0  0  0
 48116  1  0  0  0
 49 50  1  0  0  0
 49 53  1  0  0  0
 49 64  1  0  0  0
 49117  1  0  0  0
 50 51  1  0  0  0
 50118  1  0  0  0
 50119  1  0  0  0
 51 52  1  0  0  0
 51120  1  0  0  0
 51121  1  0  0  0
 52122  1  0  0  0
 52123  1  0  0  0
 53 54  1  0  0  0
 54 55  2  0  0  0
 54124  1  0  0  0
 55 57  1  0  0  0
 55125  1  0  0  0
 56 69  2  0  0  0
 57 58  2  0  0  0
 57126  1  0  0  0
 58127  1  0  0  0
 59 60  1  0  0  0
 59 61  1  0  0  0
 59 62  1  0  0  0
 60128  1  0  0  0
 60129  1  0  0  0
 60130  1  0  0  0
 61131  1  0  0  0
 61132  1  0  0  0
 61133  1  0  0  0
 62134  1  0  0  0
 62135  1  0  0  0
 62136  1  0  0  0
 63 65  1  0  0  0
 63137  1  0  0  0
 63138  1  0  0  0
 63139  1  0  0  0
 64140  1  0  0  0
 65141  1  0  0  0
 68 74  1  0  0  0
 71 74  2  0  0  0
 71 80  1  0  0  0
 71142  1  0  0  0
 72 73  1  0  0  0
 72 78  1  0  0  0
 72 80  2  0  0  0
 73 79  1  0  0  0
 73 81  2  0  0  0
 74 81  1  0  0  0
 75 76  1  0  0  0
 75 77  1  0  0  0
 75143  1  0  0  0
 75144  1  0  0  0
 76 82  1  0  0  0
 76145  1  0  0  0
 76146  1  0  0  0
 77 79  1  0  0  0
 77 82  1  0  0  0
 77147  1  0  0  0
 78148  1  0  0  0
 78149  1  0  0  0
 78150  1  0  0  0
 79151  1  0  0  0
 79152  1  0  0  0
M  ISO  4   1 100  68 101  74 101  82 100
M  END
> <chiral flag>
0

> <version>
0

> <s_m_source_file>
/data/baiqing/PycharmProjects/Reinvent-master-3.2/result/LINK_invent/BTK/process_docking_weight1_custom_sum_contain_oxygen_bond_distance_aromatic_linkinvent_7_9_3/rearranged_h_0185.sdf

> <i_m_source_file_index>
55

> <r_mmod_Potential_Energy-OPLS-2005>
34085.265625

> <r_mmod_Stretch_Energy-OPLS-2005>
14329.6328125

> <r_mmod_Bend_Energy-OPLS-2005>
2573.07788085938

> <r_mmod_Torsional_Energy-OPLS-2005>
858.684448242188

> <r_mmod_Improper_Torsional_Energy-OPLS-2005>
109.77758026123

> <r_mmod_Van_der_Waal_Energy-OPLS-2005>
3345.23974609375

> <r_mmod_Electrostatic_Energy-OPLS-2005>
-247.497848510742

> <r_mmod_Solvation_Energy-OPLS-2005>
-218.991363525391

> <b_mmod_Minimization_Converged-OPLS-2005>
0

> <r_mmod_RMS_Derivative-OPLS-2005>
6.91106700897217

$$$$
55
                    3D
 Structure written by MMmdl.
150158  0  0  1  0            999 V2000
  -30.3788  -15.2979   20.4511 C   0  0  0  0  0  0
  -30.4622  -12.8495   19.5168 C   0  0  0  0  0  0
  -29.5337  -12.5810   18.3001 C   0  0  0  0  0  0
  -28.0730  -12.3279   18.7320 C   0  0  0  0  0  0
  -27.6260  -13.2700   19.8766 C   0  0  2  0  0  0
  -28.6865  -13.3253   20.9887 C   0  0  0  0  0  0
  -25.2351  -13.8241   20.6058 C   0  0  0  0  0  0
  -24.1704  -13.0369   20.9391 C   0  0  0  0  0  0
  -24.6380  -11.6907   20.8838 C   0  0  0  0  0  0
  -23.9091  -10.4236   21.0390 C   0  0  0  0  0  0
  -24.3638   -9.4158   21.9157 C   0  0  0  0  0  0
  -23.6329   -8.2188   22.0730 C   0  0  0  0  0  0
  -22.4287   -8.0249   21.3512 C   0  0  0  0  0  0
  -21.9931   -9.0213   20.4623 C   0  0  0  0  0  0
  -22.7262  -10.2090   20.3026 C   0  0  0  0  0  0
  -21.6871   -6.0726   22.5271 C   0  0  0  0  0  0
  -21.4029   -6.5645   23.8202 C   0  0  0  0  0  0
  -21.3676   -5.6775   24.9164 C   0  0  0  0  0  0
  -21.6049   -4.3045   24.7214 C   0  0  0  0  0  0
  -21.8832   -3.8137   23.4333 C   0  0  0  0  0  0
  -21.9182   -4.6959   22.3390 C   0  0  0  0  0  0
  -22.7724  -13.5111   21.1958 C   0  0  0  0  0  0
  -22.1656   -4.2143   21.0969 F   0  0  0  0  0  0
  -21.5605   -3.4531   25.7725 F   0  0  0  0  0  0
  -29.8675  -13.9579   20.3619 N   0  0  0  0  0  0
  -26.2872  -12.9565   20.3625 N   0  0  0  0  0  0
  -25.9348  -11.6627   20.5942 N   0  0  0  0  0  0
  -22.0413  -12.8047   22.0485 N   0  0  0  0  0  0
  -25.3610  -15.2031   20.4641 N   0  0  0  0  0  0
  -31.6049  -15.3187   20.2412 O   0  0  0  0  0  0
  -21.6644   -6.8854   21.4228 O   0  0  0  0  0  0
  -22.3421  -14.5440   20.6815 O   0  0  0  0  0  0
  -24.6596  -31.8276   23.1701 C   0  0  0  0  0  0
  -25.9263  -32.4624   23.8187 C   0  0  1  0  0  0
  -27.2399  -26.9608   20.1975 C   0  0  0  0  0  0
  -25.5923  -33.8435   24.2089 N   0  0  0  0  0  0
  -23.4759  -30.4370   21.5173 C   0  0  2  0  0  0
  -24.9301  -28.8177   20.1260 C   0  0  0  0  0  0
  -22.7650  -29.4454   22.4769 C   0  0  0  0  0  0
  -18.0317  -28.1416   22.8436 C   0  0  0  0  0  0
  -24.1496  -36.7274   23.2657 C   0  0  0  0  0  0
  -26.0412  -30.6474   21.3910 C   0  0  0  0  0  0
  -26.1146  -29.2348   20.7484 C   0  0  0  0  0  0
  -27.2645  -28.3293   20.7534 C   0  0  0  0  0  0
  -26.0195  -26.6797   19.5428 C   0  0  0  0  0  0
  -24.9051  -27.5584   19.5039 C   0  0  0  0  0  0
  -23.7177  -29.7476   20.1456 C   0  0  0  0  0  0
  -25.4130  -36.3012   24.0303 C   0  0  1  0  0  0
  -20.5930  -28.3768   23.1173 C   0  0  2  0  0  0
  -20.6795  -26.9455   22.5389 C   0  0  0  0  0  0
  -19.5783  -26.6368   21.5192 C   0  0  0  0  0  0
  -18.1965  -26.7933   22.1608 C   0  0  0  0  0  0
  -19.1577  -28.8916   23.2793 C   0  0  0  0  0  0
  -18.9497  -30.1487   23.8847 C   0  0  0  0  0  0
  -17.6499  -30.6602   24.0555 C   0  0  0  0  0  0
  -25.9074  -34.9377   23.5016 C   0  0  0  0  0  0
  -16.5386  -29.9102   23.6327 C   0  0  0  0  0  0
  -16.7303  -28.6527   23.0340 C   0  0  0  0  0  0
  -26.4476  -31.6572   25.0728 C   0  0  0  0  0  0
  -25.3597  -31.3850   26.1391 C   0  0  0  0  0  0
  -27.0363  -30.2945   24.6452 C   0  0  0  0  0  0
  -27.5973  -32.4370   25.7545 C   0  0  0  0  0  0
  -27.5547  -37.1848   24.8480 C   0  0  0  0  0  0
  -21.4320  -29.3066   22.3537 N   0  0  0  0  0  0
  -26.4309  -37.3709   23.9344 N   0  0  0  0  0  0
  -24.7461  -30.9966   22.0813 N   0  0  0  0  0  0
  -23.4216  -28.8028   23.2981 O   0  0  0  0  0  0
  -28.2865  -25.9068   20.1980 O   0  0  0  0  0  0
  -26.5690  -34.8902   22.4631 O   0  0  0  0  0  0
  -23.5659  -32.1199   23.6826 O   0  0  0  0  0  0
  -28.6284  -17.8711   21.9489 C   0  0  0  0  0  0
  -28.2199  -16.6665   21.0947 C   0  0  0  0  0  0
  -29.6681  -18.2296   20.9031 C   0  0  2  0  0  0
  -29.2667  -19.7467   20.0206 C   0  0  0  0  0  0
  -28.8986  -22.7790   19.9592 C   0  0  0  0  0  0
  -28.1376  -24.3034   20.5382 C   0  0  0  0  0  0
  -29.5877  -16.5808   20.5455 N   0  0  0  0  0  0
  -28.9514  -21.2627   20.6602 N   0  3  0  0  0  0
  -31.4500  -13.1296   19.1499 H   0  0  0  0  0  0
  -30.6372  -11.9358   20.0898 H   0  0  0  0  0  0
  -29.9071  -11.7351   17.7201 H   0  0  0  0  0  0
  -29.5650  -13.4461   17.6381 H   0  0  0  0  0  0
  -28.0001  -11.2880   19.0615 H   0  0  0  0  0  0
  -27.3964  -12.4433   17.8854 H   0  0  0  0  0  0
  -27.5679  -14.2680   19.4467 H   0  0  0  0  0  0
  -28.8903  -12.3137   21.3461 H   0  0  0  0  0  0
  -28.3613  -13.8578   21.8761 H   0  0  0  0  0  0
  -25.2776   -9.5662   22.4743 H   0  0  0  0  0  0
  -24.0040   -7.4608   22.7478 H   0  0  0  0  0  0
  -21.0835   -8.8757   19.8972 H   0  0  0  0  0  0
  -22.3710  -10.9640   19.6150 H   0  0  0  0  0  0
  -21.2058   -7.6147   23.9714 H   0  0  0  0  0  0
  -21.1482   -6.0494   25.9057 H   0  0  0  0  0  0
  -22.0605   -2.7607   23.2821 H   0  0  0  0  0  0
  -22.4133  -11.9746   22.4869 H   0  0  0  0  0  0
  -21.1019  -13.1027   22.2759 H   0  0  0  0  0  0
  -24.5482  -15.8036   20.5782 H   0  0  0  0  0  0
  -26.1669  -15.7066   20.1233 H   0  0  0  0  0  0
  -26.7362  -32.5172   23.0937 H   0  0  0  0  0  0
  -24.9982  -33.9496   25.0175 H   0  0  0  0  0  0
  -22.7890  -31.2668   21.3428 H   0  0  0  0  0  0
  -23.3688  -35.9690   23.3437 H   0  0  0  0  0  0
  -24.3537  -36.8800   22.2047 H   0  0  0  0  0  0
  -23.7367  -37.6557   23.6628 H   0  0  0  0  0  0
  -26.2041  -31.3844   20.6032 H   0  0  0  0  0  0
  -26.9077  -30.7180   22.0372 H   0  0  0  0  0  0
  -28.1687  -28.6575   21.2498 H   0  0  0  0  0  0
  -25.9124  -25.7183   19.0629 H   0  0  0  0  0  0
  -24.0064  -27.2284   19.0023 H   0  0  0  0  0  0
  -23.8884  -30.5149   19.3878 H   0  0  0  0  0  0
  -22.8292  -29.2079   19.8164 H   0  0  0  0  0  0
  -25.1353  -36.1840   25.0801 H   0  0  0  0  0  0
  -21.0015  -28.3376   24.1297 H   0  0  0  0  0  0
  -20.5657  -26.2396   23.3627 H   0  0  0  0  0  0
  -21.6666  -26.7422   22.1221 H   0  0  0  0  0  0
  -19.6948  -25.6252   21.1304 H   0  0  0  0  0  0
  -19.6722  -27.3098   20.6660 H   0  0  0  0  0  0
  -17.4212  -26.6604   21.4046 H   0  0  0  0  0  0
  -18.0427  -26.0117   22.9062 H   0  0  0  0  0  0
  -19.7984  -30.7294   24.2212 H   0  0  0  0  0  0
  -17.5070  -31.6272   24.5180 H   0  0  0  0  0  0
  -15.5395  -30.3014   23.7683 H   0  0  0  0  0  0
  -15.8692  -28.0853   22.7079 H   0  0  0  0  0  0
  -24.5682  -30.7321   25.7680 H   0  0  0  0  0  0
  -24.8874  -32.3079   26.4788 H   0  0  0  0  0  0
  -25.7772  -30.8979   27.0213 H   0  0  0  0  0  0
  -26.2998  -29.6626   24.1473 H   0  0  0  0  0  0
  -27.3903  -29.7321   25.5102 H   0  0  0  0  0  0
  -27.8939  -30.4137   23.9831 H   0  0  0  0  0  0
  -27.2505  -33.3651   26.2110 H   0  0  0  0  0  0
  -28.3793  -32.6982   25.0405 H   0  0  0  0  0  0
  -28.0636  -31.8525   26.5489 H   0  0  0  0  0  0
  -28.2682  -38.0017   24.7310 H   0  0  0  0  0  0
  -28.0921  -36.2542   24.6592 H   0  0  0  0  0  0
  -27.2235  -37.1856   25.8880 H   0  0  0  0  0  0
  -20.9574  -29.8804   21.6704 H   0  0  0  0  0  0
  -26.0180  -38.2819   24.1176 H   0  0  0  0  0  0
  -29.0475  -17.5946   22.9194 H   0  0  0  0  0  0
  -27.8404  -18.6198   22.0694 H   0  0  0  0  0  0
  -27.4644  -16.9342   20.3538 H   0  0  0  0  0  0
  -27.8878  -15.8566   21.7387 H   0  0  0  0  0  0
  -30.6031  -18.4058   21.4342 H   0  0  0  0  0  0
  -28.4333  -19.5499   19.3432 H   0  0  0  0  0  0
  -30.1065  -19.9185   19.3485 H   0  0  0  0  0  0
  -29.9461  -23.0321   19.7954 H   0  0  0  0  0  0
  -28.5079  -22.6267   18.9547 H   0  0  0  0  0  0
  -28.3833  -24.3105   21.5989 H   0  0  0  0  0  0
  -27.0650  -24.1184   20.5276 H   0  0  0  0  0  0
  -29.6126  -21.3577   21.4140 H   0  0  0  0  0  0
  -28.0539  -21.1638   21.1061 H   0  0  0  0  0  0
  1 25  1  0  0  0
  1 30  2  0  0  0
  1 77  1  0  0  0
  2  3  1  0  0  0
  2 25  1  0  0  0
  2 79  1  0  0  0
  2 80  1  0  0  0
  3  4  1  0  0  0
  3 81  1  0  0  0
  3 82  1  0  0  0
  4  5  1  0  0  0
  4 83  1  0  0  0
  4 84  1  0  0  0
  5  6  1  0  0  0
  5 26  1  0  0  0
  5 85  1  0  0  0
  6 25  1  0  0  0
  6 86  1  0  0  0
  6 87  1  0  0  0
  7  8  2  0  0  0
  7 26  1  0  0  0
  7 29  1  0  0  0
  8  9  1  0  0  0
  8 22  1  0  0  0
  9 10  1  0  0  0
  9 27  2  0  0  0
 10 11  2  0  0  0
 10 15  1  0  0  0
 11 12  1  0  0  0
 11 88  1  0  0  0
 12 13  2  0  0  0
 12 89  1  0  0  0
 13 14  1  0  0  0
 13 31  1  0  0  0
 14 15  2  0  0  0
 14 90  1  0  0  0
 15 91  1  0  0  0
 16 17  2  0  0  0
 16 21  1  0  0  0
 16 31  1  0  0  0
 17 18  1  0  0  0
 17 92  1  0  0  0
 18 19  2  0  0  0
 18 93  1  0  0  0
 19 20  1  0  0  0
 19 24  1  0  0  0
 20 21  2  0  0  0
 20 94  1  0  0  0
 21 23  1  0  0  0
 22 28  1  0  0  0
 22 32  2  0  0  0
 26 27  1  0  0  0
 28 95  1  0  0  0
 28 96  1  0  0  0
 29 97  1  0  0  0
 29 98  1  0  0  0
 33 34  1  0  0  0
 33 66  1  0  0  0
 33 70  2  0  0  0
 34 36  1  0  0  0
 34 59  1  0  0  0
 34 99  1  0  0  0
 35 44  2  0  0  0
 35 45  1  0  0  0
 35 68  1  0  0  0
 36 56  1  0  0  0
 36100  1  0  0  0
 37 39  1  0  0  0
 37 47  1  0  0  0
 37 66  1  0  0  0
 37101  1  0  0  0
 38 43  2  0  0  0
 38 46  1  0  0  0
 38 47  1  0  0  0
 39 64  1  0  0  0
 39 67  2  0  0  0
 40 52  1  0  0  0
 40 53  2  0  0  0
 40 58  1  0  0  0
 41102  1  0  0  0
 41103  1  0  0  0
 41104  1  0  0  0
 41 48  1  0  0  0
 42 43  1  0  0  0
 42 66  1  0  0  0
 42105  1  0  0  0
 42106  1  0  0  0
 43 44  1  0  0  0
 44107  1  0  0  0
 45 46  2  0  0  0
 45108  1  0  0  0
 46109  1  0  0  0
 47110  1  0  0  0
 47111  1  0  0  0
 48 56  1  0  0  0
 48 65  1  0  0  0
 48112  1  0  0  0
 49 50  1  0  0  0
 49 53  1  0  0  0
 49 64  1  0  0  0
 49113  1  0  0  0
 50 51  1  0  0  0
 50114  1  0  0  0
 50115  1  0  0  0
 51 52  1  0  0  0
 51116  1  0  0  0
 51117  1  0  0  0
 52118  1  0  0  0
 52119  1  0  0  0
 53 54  1  0  0  0
 54 55  2  0  0  0
 54120  1  0  0  0
 55 57  1  0  0  0
 55121  1  0  0  0
 56 69  2  0  0  0
 57 58  2  0  0  0
 57122  1  0  0  0
 58123  1  0  0  0
 59 60  1  0  0  0
 59 61  1  0  0  0
 59 62  1  0  0  0
 60124  1  0  0  0
 60125  1  0  0  0
 60126  1  0  0  0
 61127  1  0  0  0
 61128  1  0  0  0
 61129  1  0  0  0
 62130  1  0  0  0
 62131  1  0  0  0
 62132  1  0  0  0
 63 65  1  0  0  0
 63133  1  0  0  0
 63134  1  0  0  0
 63135  1  0  0  0
 64136  1  0  0  0
 65137  1  0  0  0
 68 76  1  0  0  0
 71 72  1  0  0  0
 71 73  1  0  0  0
 71138  1  0  0  0
 71139  1  0  0  0
 72 77  1  0  0  0
 72140  1  0  0  0
 72141  1  0  0  0
 73 74  1  0  0  0
 73 77  1  0  0  0
 73142  1  0  0  0
 74 78  1  0  0  0
 74143  1  0  0  0
 74144  1  0  0  0
 75 76  1  0  0  0
 75 78  1  0  0  0
 75145  1  0  0  0
 75146  1  0  0  0
 76147  1  0  0  0
 76148  1  0  0  0
 78149  1  0  0  0
 78150  1  0  0  0
M  CHG  1  78   1
M  ISO  4   1 100  68 101  76 101  77 100
M  END
> <chiral flag>
0

> <version>
0

> <s_m_source_file>
/data/baiqing/PycharmProjects/Reinvent-master-3.2/result/LINK_invent/BTK/process_docking_weight1_custom_sum_contain_oxygen_bond_distance_aromatic_linkinvent_7_9_3/rearranged_h_0185.sdf

> <i_m_source_file_index>
56

> <r_mmod_Potential_Energy-OPLS-2005>
1275.87414550781

> <r_mmod_Stretch_Energy-OPLS-2005>
625.808715820312

> <r_mmod_Bend_Energy-OPLS-2005>
482.016174316406

> <r_mmod_Torsional_Energy-OPLS-2005>
297.924072265625

> <r_mmod_Improper_Torsional_Energy-OPLS-2005>
8.11533355712891

> <r_mmod_Van_der_Waal_Energy-OPLS-2005>
110.904258728027

> <r_mmod_Electrostatic_Energy-OPLS-2005>
-213.600143432617

> <r_mmod_Solvation_Energy-OPLS-2005>
-475.466217041016

> <b_mmod_Minimization_Converged-OPLS-2005>
0

> <r_mmod_RMS_Derivative-OPLS-2005>
6.84322452545166

$$$$
56
                    3D
 Structure written by MMmdl.
148157  0  0  1  0            999 V2000
  -30.4322  -15.4271   20.3651 C   0  0  0  0  0  0
  -30.4160  -12.9411   19.5225 C   0  0  0  0  0  0
  -29.5333  -12.6094   18.2948 C   0  0  0  0  0  0
  -28.0930  -12.3036   18.7318 C   0  0  0  0  0  0
  -27.5948  -13.2995   19.8072 C   0  0  2  0  0  0
  -28.6226  -13.5737   20.9262 C   0  0  0  0  0  0
  -25.2327  -13.8294   20.5798 C   0  0  0  0  0  0
  -24.1707  -13.0450   20.9306 C   0  0  0  0  0  0
  -24.6401  -11.6962   20.8778 C   0  0  0  0  0  0
  -23.9104  -10.4307   21.0410 C   0  0  0  0  0  0
  -24.3647   -9.4214   21.9177 C   0  0  0  0  0  0
  -23.6322   -8.2247   22.0738 C   0  0  0  0  0  0
  -22.4297   -8.0290   21.3540 C   0  0  0  0  0  0
  -21.9945   -9.0266   20.4637 C   0  0  0  0  0  0
  -22.7282  -10.2144   20.3056 C   0  0  0  0  0  0
  -21.6860   -6.0750   22.5283 C   0  0  0  0  0  0
  -21.4026   -6.5645   23.8221 C   0  0  0  0  0  0
  -21.3672   -5.6786   24.9172 C   0  0  0  0  0  0
  -21.6054   -4.3055   24.7221 C   0  0  0  0  0  0
  -21.8815   -3.8153   23.4339 C   0  0  0  0  0  0
  -21.9191   -4.6976   22.3401 C   0  0  0  0  0  0
  -22.7714  -13.5182   21.1933 C   0  0  0  0  0  0
  -22.1653   -4.2162   21.0978 F   0  0  0  0  0  0
  -21.5623   -3.4532   25.7732 F   0  0  0  0  0  0
  -29.8173  -14.1285   20.2625 N   0  0  0  0  0  0
  -26.2754  -12.9614   20.3206 N   0  0  0  0  0  0
  -25.9341  -11.6693   20.5708 N   0  0  0  0  0  0
  -22.0359  -12.8166   22.0478 N   0  0  0  0  0  0
  -25.3949  -15.2033   20.4256 N   0  0  0  0  0  0
  -31.6636  -15.3067   20.2485 O   0  0  0  0  0  0
  -21.6650   -6.8895   21.4247 O   0  0  0  0  0  0
  -22.3400  -14.5474   20.6746 O   0  0  0  0  0  0
  -24.6715  -31.8119   23.1626 C   0  0  0  0  0  0
  -25.9355  -32.4523   23.8119 C   0  0  1  0  0  0
  -27.2108  -26.8208   20.2051 C   0  0  0  0  0  0
  -25.5983  -33.8345   24.2007 N   0  0  0  0  0  0
  -23.4913  -30.4202   21.5132 C   0  0  2  0  0  0
  -24.9426  -28.7834   20.1175 C   0  0  0  0  0  0
  -22.7706  -29.4377   22.4744 C   0  0  0  0  0  0
  -18.0325  -28.1399   22.8452 C   0  0  0  0  0  0
  -24.1500  -36.7201   23.2649 C   0  0  0  0  0  0
  -26.0651  -30.5848   21.4062 C   0  0  0  0  0  0
  -26.1301  -29.1622   20.7557 C   0  0  0  0  0  0
  -27.2571  -28.2061   20.7672 C   0  0  0  0  0  0
  -25.9932  -26.6179   19.5176 C   0  0  0  0  0  0
  -24.9054  -27.5337   19.4754 C   0  0  0  0  0  0
  -23.7369  -29.7274   20.1427 C   0  0  0  0  0  0
  -25.4145  -36.2936   24.0282 C   0  0  1  0  0  0
  -20.5952  -28.3749   23.1161 C   0  0  2  0  0  0
  -20.6796  -26.9417   22.5399 C   0  0  0  0  0  0
  -19.5779  -26.6357   21.5204 C   0  0  0  0  0  0
  -18.1960  -26.7928   22.1611 C   0  0  0  0  0  0
  -19.1587  -28.8897   23.2792 C   0  0  0  0  0  0
  -18.9497  -30.1490   23.8826 C   0  0  0  0  0  0
  -17.6489  -30.6588   24.0546 C   0  0  0  0  0  0
  -25.9110  -34.9317   23.4978 C   0  0  0  0  0  0
  -16.5379  -29.9074   23.6338 C   0  0  0  0  0  0
  -16.7309  -28.6495   23.0355 C   0  0  0  0  0  0
  -26.4569  -31.6509   25.0693 C   0  0  0  0  0  0
  -25.3677  -31.3802   26.1342 C   0  0  0  0  0  0
  -27.0471  -30.2853   24.6509 C   0  0  0  0  0  0
  -27.6030  -32.4350   25.7520 C   0  0  0  0  0  0
  -27.5562  -37.1772   24.8466 C   0  0  0  0  0  0
  -21.4369  -29.3030   22.3507 N   0  0  0  0  0  0
  -26.4287  -37.3676   23.9383 N   0  0  0  0  0  0
  -24.7652  -30.9690   22.0801 N   0  0  0  0  0  0
  -23.4209  -28.7950   23.3025 O   0  0  0  0  0  0
  -28.2023  -25.6700   20.2537 O   0  0  0  0  0  0
  -26.5737  -34.8872   22.4584 O   0  0  0  0  0  0
  -23.5766  -32.1138   23.6656 O   0  0  0  0  0  0
  -29.0231  -23.3586   21.2145 C   0  0  0  0  0  0
  -30.5085  -18.2713   20.5218 C   0  0  0  0  0  0
  -28.5661  -17.7192   20.5392 C   0  0  0  0  0  0
  -28.8687  -22.3813   20.0553 C   0  0  2  0  0  0
  -29.2126  -19.1916   20.0840 C   0  0  0  0  0  0
  -27.9706  -23.9802   20.3186 C   0  0  2  0  0  0
  -29.8538  -16.8457   20.3448 N   0  0  0  0  0  0
  -28.7168  -20.7608   20.6077 N   0  3  0  0  0  0
  -31.4265  -13.1540   19.1727 H   0  0  0  0  0  0
  -30.5155  -12.0750   20.1785 H   0  0  0  0  0  0
  -29.9499  -11.7655   17.7424 H   0  0  0  0  0  0
  -29.5341  -13.4575   17.6079 H   0  0  0  0  0  0
  -28.0786  -11.2920   19.1373 H   0  0  0  0  0  0
  -27.4241  -12.3009   17.8698 H   0  0  0  0  0  0
  -27.4756  -14.2397   19.2660 H   0  0  0  0  0  0
  -28.8369  -12.6777   21.5112 H   0  0  0  0  0  0
  -28.2285  -14.3164   21.6212 H   0  0  0  0  0  0
  -25.2787   -9.5688   22.4753 H   0  0  0  0  0  0
  -24.0030   -7.4643   22.7460 H   0  0  0  0  0  0
  -21.0874   -8.8806   19.8949 H   0  0  0  0  0  0
  -22.3746  -10.9684   19.6164 H   0  0  0  0  0  0
  -21.2024   -7.6150   23.9738 H   0  0  0  0  0  0
  -21.1495   -6.0503   25.9078 H   0  0  0  0  0  0
  -22.0581   -2.7616   23.2828 H   0  0  0  0  0  0
  -22.3988  -11.9864   22.4930 H   0  0  0  0  0  0
  -21.0958  -13.1163   22.2636 H   0  0  0  0  0  0
  -24.6260  -15.8538   20.5453 H   0  0  0  0  0  0
  -26.2420  -15.6445   20.0931 H   0  0  0  0  0  0
  -26.7432  -32.5025   23.0834 H   0  0  0  0  0  0
  -25.0062  -33.9394   25.0111 H   0  0  0  0  0  0
  -22.8105  -31.2548   21.3339 H   0  0  0  0  0  0
  -23.3747  -35.9551   23.3317 H   0  0  0  0  0  0
  -24.3556  -36.8853   22.2064 H   0  0  0  0  0  0
  -23.7290  -37.6399   23.6719 H   0  0  0  0  0  0
  -26.2526  -31.3160   20.6191 H   0  0  0  0  0  0
  -26.9230  -30.6482   22.0635 H   0  0  0  0  0  0
  -28.1563  -28.4985   21.2909 H   0  0  0  0  0  0
  -25.8511  -25.6668   19.0242 H   0  0  0  0  0  0
  -24.0056  -27.2372   18.9538 H   0  0  0  0  0  0
  -23.9066  -30.4918   19.3830 H   0  0  0  0  0  0
  -22.8430  -29.1909   19.8195 H   0  0  0  0  0  0
  -25.1362  -36.1726   25.0775 H   0  0  0  0  0  0
  -21.0036  -28.3365   24.1286 H   0  0  0  0  0  0
  -20.5640  -26.2379   23.3655 H   0  0  0  0  0  0
  -21.6668  -26.7364   22.1232 H   0  0  0  0  0  0
  -19.6936  -25.6251   21.1282 H   0  0  0  0  0  0
  -19.6719  -27.3128   20.6706 H   0  0  0  0  0  0
  -17.4228  -26.6648   21.4021 H   0  0  0  0  0  0
  -18.0362  -26.0084   22.9023 H   0  0  0  0  0  0
  -19.7975  -30.7320   24.2155 H   0  0  0  0  0  0
  -17.5044  -31.6257   24.5172 H   0  0  0  0  0  0
  -15.5379  -30.2957   23.7701 H   0  0  0  0  0  0
  -15.8709  -28.0803   22.7098 H   0  0  0  0  0  0
  -24.5869  -30.7129   25.7667 H   0  0  0  0  0  0
  -24.8854  -32.3020   26.4606 H   0  0  0  0  0  0
  -25.7895  -30.9082   27.0224 H   0  0  0  0  0  0
  -26.3144  -29.6501   24.1511 H   0  0  0  0  0  0
  -27.3939  -29.7258   25.5209 H   0  0  0  0  0  0
  -27.9126  -30.3987   23.9979 H   0  0  0  0  0  0
  -27.2553  -33.3695   26.1945 H   0  0  0  0  0  0
  -28.3933  -32.6838   25.0425 H   0  0  0  0  0  0
  -28.0601  -31.8580   26.5570 H   0  0  0  0  0  0
  -28.2590  -38.0051   24.7447 H   0  0  0  0  0  0
  -28.1046  -36.2569   24.6390 H   0  0  0  0  0  0
  -27.2263  -37.1544   25.8865 H   0  0  0  0  0  0
  -20.9631  -29.8742   21.6641 H   0  0  0  0  0  0
  -26.0129  -38.2743   24.1337 H   0  0  0  0  0  0
  -29.9828  -23.8689   21.2688 H   0  0  0  0  0  0
  -28.6590  -23.0429   22.1908 H   0  0  0  0  0  0
  -30.8221  -18.4594   21.5509 H   0  0  0  0  0  0
  -31.3642  -18.4387   19.8666 H   0  0  0  0  0  0
  -27.7362  -17.4217   19.8968 H   0  0  0  0  0  0
  -28.2186  -17.7215   21.5745 H   0  0  0  0  0  0
  -29.6318  -22.4015   19.2813 H   0  0  0  0  0  0
  -29.1766  -19.2317   18.9951 H   0  0  0  0  0  0
  -26.9281  -23.8359   20.5966 H   0  0  0  0  0  0
  -27.7164  -20.6587   20.6339 H   0  0  0  0  0  0
  -28.9813  -20.7946   21.5763 H   0  0  0  0  0  0
  1 25  1  0  0  0
  1 30  2  0  0  0
  1 77  1  0  0  0
  2  3  1  0  0  0
  2 25  1  0  0  0
  2 79  1  0  0  0
  2 80  1  0  0  0
  3  4  1  0  0  0
  3 81  1  0  0  0
  3 82  1  0  0  0
  4  5  1  0  0  0
  4 83  1  0  0  0
  4 84  1  0  0  0
  5  6  1  0  0  0
  5 26  1  0  0  0
  5 85  1  0  0  0
  6 25  1  0  0  0
  6 86  1  0  0  0
  6 87  1  0  0  0
  7  8  2  0  0  0
  7 26  1  0  0  0
  7 29  1  0  0  0
  8  9  1  0  0  0
  8 22  1  0  0  0
  9 10  1  0  0  0
  9 27  2  0  0  0
 10 11  2  0  0  0
 10 15  1  0  0  0
 11 12  1  0  0  0
 11 88  1  0  0  0
 12 13  2  0  0  0
 12 89  1  0  0  0
 13 14  1  0  0  0
 13 31  1  0  0  0
 14 15  2  0  0  0
 14 90  1  0  0  0
 15 91  1  0  0  0
 16 17  2  0  0  0
 16 21  1  0  0  0
 16 31  1  0  0  0
 17 18  1  0  0  0
 17 92  1  0  0  0
 18 19  2  0  0  0
 18 93  1  0  0  0
 19 20  1  0  0  0
 19 24  1  0  0  0
 20 21  2  0  0  0
 20 94  1  0  0  0
 21 23  1  0  0  0
 22 28  1  0  0  0
 22 32  2  0  0  0
 26 27  1  0  0  0
 28 95  1  0  0  0
 28 96  1  0  0  0
 29 97  1  0  0  0
 29 98  1  0  0  0
 33 34  1  0  0  0
 33 66  1  0  0  0
 33 70  2  0  0  0
 34 36  1  0  0  0
 34 59  1  0  0  0
 34 99  1  0  0  0
 35 44  2  0  0  0
 35 45  1  0  0  0
 35 68  1  0  0  0
 36 56  1  0  0  0
 36100  1  0  0  0
 37 39  1  0  0  0
 37 47  1  0  0  0
 37 66  1  0  0  0
 37101  1  0  0  0
 38 43  2  0  0  0
 38 46  1  0  0  0
 38 47  1  0  0  0
 39 64  1  0  0  0
 39 67  2  0  0  0
 40 52  1  0  0  0
 40 53  2  0  0  0
 40 58  1  0  0  0
 41102  1  0  0  0
 41103  1  0  0  0
 41104  1  0  0  0
 41 48  1  0  0  0
 42 43  1  0  0  0
 42 66  1  0  0  0
 42105  1  0  0  0
 42106  1  0  0  0
 43 44  1  0  0  0
 44107  1  0  0  0
 45 46  2  0  0  0
 45108  1  0  0  0
 46109  1  0  0  0
 47110  1  0  0  0
 47111  1  0  0  0
 48 56  1  0  0  0
 48 65  1  0  0  0
 48112  1  0  0  0
 49 50  1  0  0  0
 49 53  1  0  0  0
 49 64  1  0  0  0
 49113  1  0  0  0
 50 51  1  0  0  0
 50114  1  0  0  0
 50115  1  0  0  0
 51 52  1  0  0  0
 51116  1  0  0  0
 51117  1  0  0  0
 52118  1  0  0  0
 52119  1  0  0  0
 53 54  1  0  0  0
 54 55  2  0  0  0
 54120  1  0  0  0
 55 57  1  0  0  0
 55121  1  0  0  0
 56 69  2  0  0  0
 57 58  2  0  0  0
 57122  1  0  0  0
 58123  1  0  0  0
 59 60  1  0  0  0
 59 61  1  0  0  0
 59 62  1  0  0  0
 60124  1  0  0  0
 60125  1  0  0  0
 60126  1  0  0  0
 61127  1  0  0  0
 61128  1  0  0  0
 61129  1  0  0  0
 62130  1  0  0  0
 62131  1  0  0  0
 62132  1  0  0  0
 63 65  1  0  0  0
 63133  1  0  0  0
 63134  1  0  0  0
 63135  1  0  0  0
 64136  1  0  0  0
 65137  1  0  0  0
 68 76  1  0  0  0
 71 74  1  0  0  0
 71 76  1  0  0  0
 71138  1  0  0  0
 71139  1  0  0  0
 72 75  1  0  0  0
 72 77  1  0  0  0
 72140  1  0  0  0
 72141  1  0  0  0
 73 75  1  0  0  0
 73 77  1  0  0  0
 73142  1  0  0  0
 73143  1  0  0  0
 74 76  1  0  0  0
 74 78  1  0  0  0
 74144  1  0  0  0
 75 78  1  0  0  0
 75145  1  0  0  0
 76146  1  0  0  0
 78147  1  0  0  0
 78148  1  0  0  0
M  CHG  1  78   1
M  ISO  4   1 100  68 101  76 101  77 100
M  END
> <chiral flag>
0

> <version>
0

> <s_m_source_file>
/data/baiqing/PycharmProjects/Reinvent-master-3.2/result/LINK_invent/BTK/process_docking_weight1_custom_sum_contain_oxygen_bond_distance_aromatic_linkinvent_7_9_3/rearranged_h_0185.sdf

> <i_m_source_file_index>
57

> <r_mmod_Potential_Energy-OPLS-2005>
1625.40026855469

> <r_mmod_Stretch_Energy-OPLS-2005>
749.706298828125

> <r_mmod_Bend_Energy-OPLS-2005>
614.911560058594

> <r_mmod_Torsional_Energy-OPLS-2005>
317.393737792969

> <r_mmod_Improper_Torsional_Energy-OPLS-2005>
7.07074975967407

> <r_mmod_Van_der_Waal_Energy-OPLS-2005>
107.862144470215

> <r_mmod_Electrostatic_Energy-OPLS-2005>
-266.479187011719

> <r_mmod_Solvation_Energy-OPLS-2005>
-540.506225585938

> <b_mmod_Minimization_Converged-OPLS-2005>
0

> <r_mmod_RMS_Derivative-OPLS-2005>
1.74528384208679

$$$$
57
                    3D
 Structure written by MMmdl.
157166  0  0  1  0            999 V2000
  -30.5915  -14.9563   20.4008 C   0  0  0  0  0  0
  -30.4313  -12.5895   19.4997 C   0  0  0  0  0  0
  -29.5150  -12.5182   18.2579 C   0  0  0  0  0  0
  -28.0573  -12.2927   18.6948 C   0  0  0  0  0  0
  -27.6299  -13.2521   19.8377 C   0  0  2  0  0  0
  -28.6733  -13.3291   20.9731 C   0  0  0  0  0  0
  -25.2479  -13.8250   20.5703 C   0  0  0  0  0  0
  -24.1808  -13.0448   20.9246 C   0  0  0  0  0  0
  -24.6432  -11.6933   20.8784 C   0  0  0  0  0  0
  -23.9107  -10.4291   21.0438 C   0  0  0  0  0  0
  -24.3634   -9.4187   21.9214 C   0  0  0  0  0  0
  -23.6293   -8.2227   22.0756 C   0  0  0  0  0  0
  -22.4286   -8.0286   21.3536 C   0  0  0  0  0  0
  -21.9940   -9.0281   20.4653 C   0  0  0  0  0  0
  -22.7277  -10.2155   20.3076 C   0  0  0  0  0  0
  -21.6853   -6.0741   22.5281 C   0  0  0  0  0  0
  -21.4024   -6.5646   23.8217 C   0  0  0  0  0  0
  -21.3647   -5.6799   24.9180 C   0  0  0  0  0  0
  -21.6026   -4.3060   24.7220 C   0  0  0  0  0  0
  -21.8819   -3.8152   23.4350 C   0  0  0  0  0  0
  -21.9191   -4.6969   22.3410 C   0  0  0  0  0  0
  -22.7832  -13.5213   21.1879 C   0  0  0  0  0  0
  -22.1667   -4.2150   21.0984 F   0  0  0  0  0  0
  -21.5622   -3.4546   25.7744 F   0  0  0  0  0  0
  -29.9462  -13.7187   20.3553 N   0  0  0  0  0  0
  -26.2923  -12.9478   20.3292 N   0  0  0  0  0  0
  -25.9365  -11.6602   20.5812 N   0  0  0  0  0  0
  -22.0500  -12.8201   22.0446 N   0  0  0  0  0  0
  -25.4109  -15.1966   20.3972 N   0  0  0  0  0  0
  -31.7928  -14.9393   20.1107 O   0  0  0  0  0  0
  -21.6634   -6.8895   21.4240 O   0  0  0  0  0  0
  -22.3497  -14.5491   20.6690 O   0  0  0  0  0  0
  -24.6410  -31.8458   23.1901 C   0  0  0  0  0  0
  -25.9187  -32.4710   23.8284 C   0  0  1  0  0  0
  -27.2032  -27.1087   20.1600 C   0  0  0  0  0  0
  -25.5958  -33.8517   24.2213 N   0  0  0  0  0  0
  -23.4471  -30.4655   21.5365 C   0  0  2  0  0  0
  -24.8997  -28.9014   20.1062 C   0  0  0  0  0  0
  -22.7558  -29.4539   22.4855 C   0  0  0  0  0  0
  -18.0315  -28.1382   22.8471 C   0  0  0  0  0  0
  -24.1495  -36.7245   23.2644 C   0  0  0  0  0  0
  -26.0063  -30.7060   21.4032 C   0  0  0  0  0  0
  -26.0713  -29.3153   20.7528 C   0  0  0  0  0  0
  -27.2173  -28.4281   20.7815 C   0  0  0  0  0  0
  -26.0374  -26.8609   19.3949 C   0  0  0  0  0  0
  -24.8976  -27.6876   19.4105 C   0  0  0  0  0  0
  -23.6736  -29.8005   20.1533 C   0  0  0  0  0  0
  -25.4128  -36.3035   24.0320 C   0  0  1  0  0  0
  -20.5913  -28.3735   23.1248 C   0  0  2  0  0  0
  -20.6803  -26.9445   22.5445 C   0  0  0  0  0  0
  -19.5782  -26.6365   21.5222 C   0  0  0  0  0  0
  -18.1967  -26.7914   22.1650 C   0  0  0  0  0  0
  -19.1560  -28.8867   23.2867 C   0  0  0  0  0  0
  -18.9452  -30.1448   23.8901 C   0  0  0  0  0  0
  -17.6453  -30.6584   24.0547 C   0  0  0  0  0  0
  -25.9067  -34.9410   23.5082 C   0  0  0  0  0  0
  -16.5359  -29.9069   23.6305 C   0  0  0  0  0  0
  -16.7293  -28.6483   23.0349 C   0  0  0  0  0  0
  -26.4515  -31.6564   25.0717 C   0  0  0  0  0  0
  -25.3687  -31.3773   26.1405 C   0  0  0  0  0  0
  -27.0396  -30.2951   24.6325 C   0  0  0  0  0  0
  -27.6052  -32.4324   25.7501 C   0  0  0  0  0  0
  -27.5571  -37.1784   24.8478 C   0  0  0  0  0  0
  -21.4248  -29.3081   22.3633 N   0  0  0  0  0  0
  -26.4298  -37.3745   23.9392 N   0  0  0  0  0  0
  -24.7186  -31.0282   22.0974 N   0  0  0  0  0  0
  -23.4218  -28.8052   23.2976 O   0  0  0  0  0  0
  -28.2380  -26.0816   20.2371 O   0  0  0  0  0  0
  -26.5679  -34.8920   22.4665 O   0  0  0  0  0  0
  -23.5521  -32.1381   23.7090 O   0  0  0  0  0  0
  -26.4721  -22.9682   20.3777 C   0  0  0  0  0  0
  -28.6145  -22.3268   20.4201 C   0  0  0  0  0  0
  -27.9830  -24.6508   20.3438 C   0  0  0  0  0  0
  -29.1068  -16.9569   21.3583 C   0  0  0  0  0  0
  -30.0970  -17.2007   19.1881 C   0  0  0  0  0  0
  -29.2555  -18.5773   21.5544 C   0  0  0  0  0  0
  -30.3163  -18.7769   19.4660 C   0  0  0  0  0  0
  -25.0112  -22.5793   20.3139 C   0  0  0  0  0  0
  -29.6437  -21.0544   20.6059 C   0  0  0  0  0  0
  -27.3407  -21.9615   20.3824 N   0  0  0  0  0  0
  -26.7118  -24.2749   20.4070 N   0  0  0  0  0  0
  -28.9894  -23.6817   20.3771 N   0  0  0  0  0  0
  -29.8960  -16.2107   20.3126 N   0  0  0  0  0  0
  -29.3319  -19.5078   20.3527 N   0  3  0  0  0  0
  -31.4687  -12.7099   19.1791 H   0  0  0  0  0  0
  -30.4070  -11.6474   20.0497 H   0  0  0  0  0  0
  -29.8329  -11.7193   17.5869 H   0  0  0  0  0  0
  -29.5885  -13.4472   17.6899 H   0  0  0  0  0  0
  -27.9758  -11.2610   19.0391 H   0  0  0  0  0  0
  -27.3814  -12.3806   17.8434 H   0  0  0  0  0  0
  -27.5870  -14.2445   19.3868 H   0  0  0  0  0  0
  -28.7651  -12.3826   21.5058 H   0  0  0  0  0  0
  -28.3765  -14.0779   21.7094 H   0  0  0  0  0  0
  -25.2775   -9.5645   22.4788 H   0  0  0  0  0  0
  -23.9978   -7.4621   22.7487 H   0  0  0  0  0  0
  -21.0853   -8.8836   19.8972 H   0  0  0  0  0  0
  -22.3755  -10.9696   19.6188 H   0  0  0  0  0  0
  -21.2047   -7.6169   23.9719 H   0  0  0  0  0  0
  -21.1441   -6.0546   25.9079 H   0  0  0  0  0  0
  -22.0595   -2.7608   23.2867 H   0  0  0  0  0  0
  -22.4125  -11.9850   22.4775 H   0  0  0  0  0  0
  -21.1124  -13.1236   22.2632 H   0  0  0  0  0  0
  -24.6255  -15.8360   20.4683 H   0  0  0  0  0  0
  -26.2296  -15.6188   19.9767 H   0  0  0  0  0  0
  -26.7253  -32.5316   23.1003 H   0  0  0  0  0  0
  -25.0051  -33.9647   25.0330 H   0  0  0  0  0  0
  -22.7504  -31.2914   21.3814 H   0  0  0  0  0  0
  -23.3756  -35.9579   23.3324 H   0  0  0  0  0  0
  -24.3574  -36.8852   22.2058 H   0  0  0  0  0  0
  -23.7252  -37.6452   23.6657 H   0  0  0  0  0  0
  -26.1705  -31.4556   20.6274 H   0  0  0  0  0  0
  -26.8743  -30.7555   22.0510 H   0  0  0  0  0  0
  -28.0974  -28.7273   21.3348 H   0  0  0  0  0  0
  -25.9662  -25.9621   18.8007 H   0  0  0  0  0  0
  -24.0187  -27.3857   18.8560 H   0  0  0  0  0  0
  -23.8010  -30.5743   19.3964 H   0  0  0  0  0  0
  -22.7911  -29.2358   19.8473 H   0  0  0  0  0  0
  -25.1299  -36.1870   25.0812 H   0  0  0  0  0  0
  -20.9986  -28.3324   24.1380 H   0  0  0  0  0  0
  -20.5691  -26.2353   23.3663 H   0  0  0  0  0  0
  -21.6664  -26.7435   22.1260 H   0  0  0  0  0  0
  -19.7021  -25.6275   21.1298 H   0  0  0  0  0  0
  -19.6738  -27.3171   20.6760 H   0  0  0  0  0  0
  -17.4204  -26.6606   21.4105 H   0  0  0  0  0  0
  -18.0373  -26.0096   22.9081 H   0  0  0  0  0  0
  -19.7920  -30.7261   24.2314 H   0  0  0  0  0  0
  -17.5014  -31.6252   24.5128 H   0  0  0  0  0  0
  -15.5355  -30.2973   23.7642 H   0  0  0  0  0  0
  -15.8700  -28.0774   22.7120 H   0  0  0  0  0  0
  -24.5879  -30.7111   25.7714 H   0  0  0  0  0  0
  -24.8861  -32.2969   26.4717 H   0  0  0  0  0  0
  -25.7942  -30.9011   27.0250 H   0  0  0  0  0  0
  -26.3040  -29.6671   24.1300 H   0  0  0  0  0  0
  -27.3973  -29.7240   25.4906 H   0  0  0  0  0  0
  -27.8955  -30.4186   23.9687 H   0  0  0  0  0  0
  -27.2653  -33.3635   26.2043 H   0  0  0  0  0  0
  -28.3877  -32.6874   25.0340 H   0  0  0  0  0  0
  -28.0715  -31.8484   26.5450 H   0  0  0  0  0  0
  -28.2601  -38.0066   24.7480 H   0  0  0  0  0  0
  -28.1051  -36.2593   24.6344 H   0  0  0  0  0  0
  -27.2295  -37.1479   25.8890 H   0  0  0  0  0  0
  -20.9456  -29.8854   21.6865 H   0  0  0  0  0  0
  -26.0162  -38.2819   24.1369 H   0  0  0  0  0  0
  -28.0583  -16.7401   21.1524 H   0  0  0  0  0  0
  -29.3002  -16.4793   22.3192 H   0  0  0  0  0  0
  -30.9166  -16.8596   18.5563 H   0  0  0  0  0  0
  -29.2090  -17.1149   18.5569 H   0  0  0  0  0  0
  -30.1758  -18.7326   22.1177 H   0  0  0  0  0  0
  -28.4581  -18.9325   22.2093 H   0  0  0  0  0  0
  -30.3657  -19.3064   18.5130 H   0  0  0  0  0  0
  -31.3073  -18.8922   19.9048 H   0  0  0  0  0  0
  -24.8890  -21.5685   19.9253 H   0  0  0  0  0  0
  -24.4630  -23.2566   19.6579 H   0  0  0  0  0  0
  -24.5659  -22.6222   21.3072 H   0  0  0  0  0  0
  -29.9873  -21.1303   21.6380 H   0  0  0  0  0  0
  -30.5263  -21.3082   20.0172 H   0  0  0  0  0  0
  -28.4322  -19.5150   19.8924 H   0  0  0  0  0  0
  1 25  1  0  0  0
  1 30  2  0  0  0
  1 83  1  0  0  0
  2  3  1  0  0  0
  2 25  1  0  0  0
  2 85  1  0  0  0
  2 86  1  0  0  0
  3  4  1  0  0  0
  3 87  1  0  0  0
  3 88  1  0  0  0
  4  5  1  0  0  0
  4 89  1  0  0  0
  4 90  1  0  0  0
  5  6  1  0  0  0
  5 26  1  0  0  0
  5 91  1  0  0  0
  6 25  1  0  0  0
  6 92  1  0  0  0
  6 93  1  0  0  0
  7  8  2  0  0  0
  7 26  1  0  0  0
  7 29  1  0  0  0
  8  9  1  0  0  0
  8 22  1  0  0  0
  9 10  1  0  0  0
  9 27  2  0  0  0
 10 11  2  0  0  0
 10 15  1  0  0  0
 11 12  1  0  0  0
 11 94  1  0  0  0
 12 13  2  0  0  0
 12 95  1  0  0  0
 13 14  1  0  0  0
 13 31  1  0  0  0
 14 15  2  0  0  0
 14 96  1  0  0  0
 15 97  1  0  0  0
 16 17  2  0  0  0
 16 21  1  0  0  0
 16 31  1  0  0  0
 17 18  1  0  0  0
 17 98  1  0  0  0
 18 19  2  0  0  0
 18 99  1  0  0  0
 19 20  1  0  0  0
 19 24  1  0  0  0
 20 21  2  0  0  0
 20100  1  0  0  0
 21 23  1  0  0  0
 22 28  1  0  0  0
 22 32  2  0  0  0
 26 27  1  0  0  0
 28101  1  0  0  0
 28102  1  0  0  0
 29103  1  0  0  0
 29104  1  0  0  0
 33 34  1  0  0  0
 33 66  1  0  0  0
 33 70  2  0  0  0
 34 36  1  0  0  0
 34 59  1  0  0  0
 34105  1  0  0  0
 35 44  2  0  0  0
 35 45  1  0  0  0
 35 68  1  0  0  0
 36 56  1  0  0  0
 36106  1  0  0  0
 37 39  1  0  0  0
 37 47  1  0  0  0
 37 66  1  0  0  0
 37107  1  0  0  0
 38 43  2  0  0  0
 38 46  1  0  0  0
 38 47  1  0  0  0
 39 64  1  0  0  0
 39 67  2  0  0  0
 40 52  1  0  0  0
 40 53  2  0  0  0
 40 58  1  0  0  0
 41108  1  0  0  0
 41109  1  0  0  0
 41110  1  0  0  0
 41 48  1  0  0  0
 42 43  1  0  0  0
 42 66  1  0  0  0
 42111  1  0  0  0
 42112  1  0  0  0
 43 44  1  0  0  0
 44113  1  0  0  0
 45 46  2  0  0  0
 45114  1  0  0  0
 46115  1  0  0  0
 47116  1  0  0  0
 47117  1  0  0  0
 48 56  1  0  0  0
 48 65  1  0  0  0
 48118  1  0  0  0
 49 50  1  0  0  0
 49 53  1  0  0  0
 49 64  1  0  0  0
 49119  1  0  0  0
 50 51  1  0  0  0
 50120  1  0  0  0
 50121  1  0  0  0
 51 52  1  0  0  0
 51122  1  0  0  0
 51123  1  0  0  0
 52124  1  0  0  0
 52125  1  0  0  0
 53 54  1  0  0  0
 54 55  2  0  0  0
 54126  1  0  0  0
 55 57  1  0  0  0
 55127  1  0  0  0
 56 69  2  0  0  0
 57 58  2  0  0  0
 57128  1  0  0  0
 58129  1  0  0  0
 59 60  1  0  0  0
 59 61  1  0  0  0
 59 62  1  0  0  0
 60130  1  0  0  0
 60131  1  0  0  0
 60132  1  0  0  0
 61133  1  0  0  0
 61134  1  0  0  0
 61135  1  0  0  0
 62136  1  0  0  0
 62137  1  0  0  0
 62138  1  0  0  0
 63 65  1  0  0  0
 63139  1  0  0  0
 63140  1  0  0  0
 63141  1  0  0  0
 64142  1  0  0  0
 65143  1  0  0  0
 68 73  1  0  0  0
 71 78  1  0  0  0
 71 80  2  0  0  0
 71 81  1  0  0  0
 72 79  1  0  0  0
 72 80  1  0  0  0
 72 82  2  0  0  0
 73 81  2  0  0  0
 73 82  1  0  0  0
 74 76  1  0  0  0
 74 83  1  0  0  0
 74144  1  0  0  0
 74145  1  0  0  0
 75 77  1  0  0  0
 75 83  1  0  0  0
 75146  1  0  0  0
 75147  1  0  0  0
 76 84  1  0  0  0
 76148  1  0  0  0
 76149  1  0  0  0
 77 84  1  0  0  0
 77150  1  0  0  0
 77151  1  0  0  0
 78152  1  0  0  0
 78153  1  0  0  0
 78154  1  0  0  0
 79155  1  0  0  0
 79156  1  0  0  0
 79 84  1  0  0  0
 84157  1  0  0  0
M  CHG  1  84   1
M  ISO  4   1 100  68 101  73 101  83 100
M  END
> <chiral flag>
0

> <version>
0

> <s_m_source_file>
/data/baiqing/PycharmProjects/Reinvent-master-3.2/result/LINK_invent/BTK/process_docking_weight1_custom_sum_contain_oxygen_bond_distance_aromatic_linkinvent_7_9_3/rearranged_h_0185.sdf

> <i_m_source_file_index>
58

> <r_mmod_Potential_Energy-OPLS-2005>
-129.259552001953

> <r_mmod_Stretch_Energy-OPLS-2005>
234.499618530273

> <r_mmod_Bend_Energy-OPLS-2005>
280.988983154297

> <r_mmod_Torsional_Energy-OPLS-2005>
388.982574462891

> <r_mmod_Improper_Torsional_Energy-OPLS-2005>
14.8923311233521

> <r_mmod_Van_der_Waal_Energy-OPLS-2005>
161.908721923828

> <r_mmod_Electrostatic_Energy-OPLS-2005>
-958.337341308594

> <r_mmod_Solvation_Energy-OPLS-2005>
-463.759490966797

> <b_mmod_Minimization_Converged-OPLS-2005>
0

> <r_mmod_RMS_Derivative-OPLS-2005>
4.18156480789185

$$$$
58
                    3D
 Structure written by MMmdl.
159169  0  0  1  0            999 V2000
  -30.6744  -14.6143   20.4268 C   0  0  0  0  0  0
  -30.4288  -12.3507   19.4364 C   0  0  0  0  0  0
  -29.4882  -12.4663   18.2145 C   0  0  0  0  0  0
  -28.0096  -12.3358   18.6450 C   0  0  0  0  0  0
  -27.6507  -13.2044   19.8800 C   0  0  2  0  0  0
  -28.7252  -13.0973   20.9940 C   0  0  0  0  0  0
  -25.2499  -13.8162   20.5841 C   0  0  0  0  0  0
  -24.1741  -13.0415   20.9304 C   0  0  0  0  0  0
  -24.6360  -11.6878   20.8861 C   0  0  0  0  0  0
  -23.9040  -10.4267   21.0462 C   0  0  0  0  0  0
  -24.3588   -9.4163   21.9221 C   0  0  0  0  0  0
  -23.6282   -8.2182   22.0741 C   0  0  0  0  0  0
  -22.4284   -8.0241   21.3520 C   0  0  0  0  0  0
  -21.9911   -9.0212   20.4635 C   0  0  0  0  0  0
  -22.7219  -10.2125   20.3105 C   0  0  0  0  0  0
  -21.6789   -6.0717   22.5302 C   0  0  0  0  0  0
  -21.3965   -6.5626   23.8226 C   0  0  0  0  0  0
  -21.3671   -5.6797   24.9214 C   0  0  0  0  0  0
  -21.6080   -4.3077   24.7271 C   0  0  0  0  0  0
  -21.8791   -3.8135   23.4388 C   0  0  0  0  0  0
  -21.9190   -4.6922   22.3441 C   0  0  0  0  0  0
  -22.7768  -13.5195   21.1945 C   0  0  0  0  0  0
  -22.1638   -4.2114   21.1016 F   0  0  0  0  0  0
  -21.5685   -3.4583   25.7788 F   0  0  0  0  0  0
  -30.0374  -13.3995   20.3926 N   0  0  0  0  0  0
  -26.2992  -12.9302   20.3569 N   0  0  0  0  0  0
  -25.9322  -11.6495   20.5999 N   0  0  0  0  0  0
  -22.0423  -12.8142   22.0471 N   0  0  0  0  0  0
  -25.4193  -15.1845   20.4278 N   0  0  0  0  0  0
  -31.8847  -14.7430   20.2343 O   0  0  0  0  0  0
  -21.6625   -6.8842   21.4241 O   0  0  0  0  0  0
  -22.3478  -14.5523   20.6814 O   0  0  0  0  0  0
  -24.6234  -31.8581   23.2048 C   0  0  0  0  0  0
  -25.9078  -32.4786   23.8370 C   0  0  1  0  0  0
  -27.2500  -27.3430   20.0970 C   0  0  0  0  0  0
  -25.5901  -33.8585   24.2278 N   0  0  0  0  0  0
  -23.4202  -30.4783   21.5478 C   0  0  2  0  0  0
  -24.8682  -28.9283   20.1106 C   0  0  0  0  0  0
  -22.7495  -29.4633   22.5007 C   0  0  0  0  0  0
  -18.0229  -28.1390   22.8528 C   0  0  0  0  0  0
  -24.1491  -36.7281   23.2646 C   0  0  0  0  0  0
  -25.9563  -30.7890   21.3764 C   0  0  0  0  0  0
  -26.0315  -29.4195   20.7144 C   0  0  0  0  0  0
  -27.2122  -28.6281   20.7153 C   0  0  0  0  0  0
  -26.0626  -26.8850   19.4856 C   0  0  0  0  0  0
  -24.8820  -27.6627   19.4974 C   0  0  0  0  0  0
  -23.6305  -29.8040   20.1652 C   0  0  0  0  0  0
  -25.4113  -36.3079   24.0333 C   0  0  1  0  0  0
  -20.5859  -28.3694   23.1322 C   0  0  2  0  0  0
  -20.6756  -26.9435   22.5434 C   0  0  0  0  0  0
  -19.5714  -26.6382   21.5286 C   0  0  0  0  0  0
  -18.1913  -26.7930   22.1712 C   0  0  0  0  0  0
  -19.1498  -28.8856   23.2910 C   0  0  0  0  0  0
  -18.9419  -30.1483   23.8911 C   0  0  0  0  0  0
  -17.6433  -30.6635   24.0550 C   0  0  0  0  0  0
  -25.9048  -34.9458   23.5108 C   0  0  0  0  0  0
  -16.5320  -29.9133   23.6380 C   0  0  0  0  0  0
  -16.7235  -28.6535   23.0406 C   0  0  0  0  0  0
  -26.4465  -31.6585   25.0724 C   0  0  0  0  0  0
  -25.3704  -31.3710   26.1464 C   0  0  0  0  0  0
  -27.0330  -30.3022   24.6168 C   0  0  0  0  0  0
  -27.6050  -32.4321   25.7495 C   0  0  0  0  0  0
  -27.5571  -37.1795   24.8462 C   0  0  0  0  0  0
  -21.4194  -29.3067   22.3754 N   0  0  0  0  0  0
  -26.4280  -37.3764   23.9419 N   0  0  0  0  0  0
  -24.6868  -31.0599   22.0993 N   0  0  0  0  0  0
  -23.4200  -28.8148   23.3093 O   0  0  0  0  0  0
  -28.4172  -26.5724   20.1756 O   0  0  0  0  0  0
  -26.5654  -34.8910   22.4689 O   0  0  0  0  0  0
  -23.5412  -32.1381   23.7380 O   0  0  0  0  0  0
  -29.4750  -22.8962   20.0392 C   0  0  0  0  0  0
  -27.2935  -23.4641   20.2213 C   0  0  0  0  0  0
  -28.5164  -23.9804   19.8915 C   0  0  0  0  0  0
  -28.7957  -21.7339   20.4315 C   0  0  0  0  0  0
  -26.8345  -19.9568   21.1464 C   0  0  0  0  0  0
  -26.4507  -21.2257   20.8364 C   0  0  0  0  0  0
  -29.0715  -20.3156   20.7118 C   0  0  0  0  0  0
  -28.5611  -17.0720   19.5553 C   0  0  0  0  0  0
  -29.4826  -16.0898   18.8608 C   0  0  0  0  0  0
  -29.6092  -17.0953   20.6684 C   0  0  2  0  0  0
  -28.7008  -25.4121   19.3246 C   0  0  0  0  0  0
  -30.7147  -18.2128   20.5028 C   0  0  0  0  0  0
  -28.1330  -19.5348   21.1413 N   0  0  0  0  0  0
  -27.4240  -22.1140   20.5286 N   0  0  0  0  0  0
  -29.8355  -15.6706   20.2144 N   0  0  0  0  0  0
  -30.3286  -19.6751   20.4994 N   0  0  0  0  0  0
  -31.4710  -12.4368   19.1234 H   0  0  0  0  0  0
  -30.3244  -11.3657   19.8940 H   0  0  0  0  0  0
  -29.7272  -11.7008   17.4738 H   0  0  0  0  0  0
  -29.6469  -13.4139   17.7004 H   0  0  0  0  0  0
  -27.8369  -11.2827   18.8708 H   0  0  0  0  0  0
  -27.3442  -12.5854   17.8158 H   0  0  0  0  0  0
  -27.6373  -14.2301   19.5324 H   0  0  0  0  0  0
  -28.7417  -12.0965   21.4347 H   0  0  0  0  0  0
  -28.5076  -13.7930   21.8095 H   0  0  0  0  0  0
  -25.2696   -9.5670   22.4852 H   0  0  0  0  0  0
  -24.0011   -7.4560   22.7423 H   0  0  0  0  0  0
  -21.0868   -8.8731   19.8906 H   0  0  0  0  0  0
  -22.3633  -10.9692   19.6280 H   0  0  0  0  0  0
  -21.1868   -7.6130   23.9718 H   0  0  0  0  0  0
  -21.1554   -6.0553   25.9124 H   0  0  0  0  0  0
  -22.0563   -2.7598   23.2930 H   0  0  0  0  0  0
  -22.4078  -11.9739   22.4750 H   0  0  0  0  0  0
  -21.1068  -13.1160   22.2771 H   0  0  0  0  0  0
  -24.6728  -15.8591   20.5786 H   0  0  0  0  0  0
  -26.2934  -15.6073   20.1443 H   0  0  0  0  0  0
  -26.7139  -32.5441   23.1135 H   0  0  0  0  0  0
  -25.0005  -33.9731   25.0393 H   0  0  0  0  0  0
  -22.7116  -31.2966   21.4065 H   0  0  0  0  0  0
  -23.3758  -35.9605   23.3317 H   0  0  0  0  0  0
  -24.3561  -36.8886   22.2049 H   0  0  0  0  0  0
  -23.7236  -37.6477   23.6666 H   0  0  0  0  0  0
  -26.0901  -31.5572   20.6165 H   0  0  0  0  0  0
  -26.8338  -30.8322   22.0091 H   0  0  0  0  0  0
  -28.1057  -29.0023   21.1948 H   0  0  0  0  0  0
  -26.0225  -25.9133   19.0184 H   0  0  0  0  0  0
  -23.9822  -27.2774   19.0349 H   0  0  0  0  0  0
  -23.7402  -30.5805   19.4074 H   0  0  0  0  0  0
  -22.7488  -29.2303   19.8712 H   0  0  0  0  0  0
  -25.1303  -36.1938   25.0818 H   0  0  0  0  0  0
  -20.9930  -28.3289   24.1456 H   0  0  0  0  0  0
  -20.5853  -26.2348   23.3673 H   0  0  0  0  0  0
  -21.6600  -26.7573   22.1153 H   0  0  0  0  0  0
  -19.6646  -27.3180   20.6824 H   0  0  0  0  0  0
  -19.6965  -25.6313   21.1302 H   0  0  0  0  0  0
  -17.4163  -26.6641   21.4155 H   0  0  0  0  0  0
  -18.0338  -26.0108   22.9143 H   0  0  0  0  0  0
  -19.7870  -30.7374   24.2228 H   0  0  0  0  0  0
  -17.4959  -31.6316   24.5168 H   0  0  0  0  0  0
  -15.5310  -30.3030   23.7729 H   0  0  0  0  0  0
  -15.8626  -28.0846   22.7169 H   0  0  0  0  0  0
  -24.5897  -30.7057   25.7783 H   0  0  0  0  0  0
  -24.8887  -32.2864   26.4902 H   0  0  0  0  0  0
  -25.8021  -30.8873   27.0236 H   0  0  0  0  0  0
  -26.2905  -29.6800   24.1186 H   0  0  0  0  0  0
  -27.4026  -29.7255   25.4652 H   0  0  0  0  0  0
  -27.8768  -30.4326   23.9396 H   0  0  0  0  0  0
  -27.2685  -33.3639   26.2083 H   0  0  0  0  0  0
  -28.3874  -32.6870   25.0318 H   0  0  0  0  0  0
  -28.0746  -31.8444   26.5412 H   0  0  0  0  0  0
  -28.2610  -38.0073   24.7518 H   0  0  0  0  0  0
  -28.1053  -36.2617   24.6308 H   0  0  0  0  0  0
  -27.2291  -37.1456   25.8858 H   0  0  0  0  0  0
  -20.9374  -29.8836   21.6995 H   0  0  0  0  0  0
  -26.0184  -38.2842   24.1398 H   0  0  0  0  0  0
  -30.5366  -22.9702   19.8457 H   0  0  0  0  0  0
  -26.3084  -23.9049   20.2150 H   0  0  0  0  0  0
  -26.1006  -19.1910   21.3825 H   0  0  0  0  0  0
  -25.4209  -21.5611   20.8107 H   0  0  0  0  0  0
  -27.6112  -16.6483   19.8717 H   0  0  0  0  0  0
  -28.4276  -18.0048   19.0129 H   0  0  0  0  0  0
  -28.9602  -15.3667   18.2523 H   0  0  0  0  0  0
  -30.3098  -16.5317   18.3039 H   0  0  0  0  0  0
  -29.1584  -17.1197   21.6637 H   0  0  0  0  0  0
  -28.1488  -25.5026   18.3873 H   0  0  0  0  0  0
  -29.7405  -25.5336   19.0182 H   0  0  0  0  0  0
  -31.1907  -18.0749   19.5312 H   0  0  0  0  0  0
  -31.5237  -18.0565   21.2185 H   0  0  0  0  0  0
  -30.9734  -20.2838   20.0037 H   0  0  0  0  0  0
  1 25  1  0  0  0
  1 30  2  0  0  0
  1 85  1  0  0  0
  2  3  1  0  0  0
  2 25  1  0  0  0
  2 87  1  0  0  0
  2 88  1  0  0  0
  3  4  1  0  0  0
  3 89  1  0  0  0
  3 90  1  0  0  0
  4  5  1  0  0  0
  4 91  1  0  0  0
  4 92  1  0  0  0
  5  6  1  0  0  0
  5 26  1  0  0  0
  5 93  1  0  0  0
  6 25  1  0  0  0
  6 94  1  0  0  0
  6 95  1  0  0  0
  7  8  2  0  0  0
  7 26  1  0  0  0
  7 29  1  0  0  0
  8  9  1  0  0  0
  8 22  1  0  0  0
  9 10  1  0  0  0
  9 27  2  0  0  0
 10 11  2  0  0  0
 10 15  1  0  0  0
 11 12  1  0  0  0
 11 96  1  0  0  0
 12 13  2  0  0  0
 12 97  1  0  0  0
 13 14  1  0  0  0
 13 31  1  0  0  0
 14 15  2  0  0  0
 14 98  1  0  0  0
 15 99  1  0  0  0
 16 17  2  0  0  0
 16 21  1  0  0  0
 16 31  1  0  0  0
 17 18  1  0  0  0
 17100  1  0  0  0
 18 19  2  0  0  0
 18101  1  0  0  0
 19 20  1  0  0  0
 19 24  1  0  0  0
 20 21  2  0  0  0
 20102  1  0  0  0
 21 23  1  0  0  0
 22 28  1  0  0  0
 22 32  2  0  0  0
 26 27  1  0  0  0
 28103  1  0  0  0
 28104  1  0  0  0
 29105  1  0  0  0
 29106  1  0  0  0
 33 34  1  0  0  0
 33 66  1  0  0  0
 33 70  2  0  0  0
 34 36  1  0  0  0
 34 59  1  0  0  0
 34107  1  0  0  0
 35 44  2  0  0  0
 35 45  1  0  0  0
 35 68  1  0  0  0
 36 56  1  0  0  0
 36108  1  0  0  0
 37 39  1  0  0  0
 37 47  1  0  0  0
 37 66  1  0  0  0
 37109  1  0  0  0
 38 43  2  0  0  0
 38 46  1  0  0  0
 38 47  1  0  0  0
 39 64  1  0  0  0
 39 67  2  0  0  0
 40 52  1  0  0  0
 40 53  2  0  0  0
 40 58  1  0  0  0
 41110  1  0  0  0
 41111  1  0  0  0
 41112  1  0  0  0
 41 48  1  0  0  0
 42 43  1  0  0  0
 42 66  1  0  0  0
 42113  1  0  0  0
 42114  1  0  0  0
 43 44  1  0  0  0
 44115  1  0  0  0
 45 46  2  0  0  0
 45116  1  0  0  0
 46117  1  0  0  0
 47118  1  0  0  0
 47119  1  0  0  0
 48 56  1  0  0  0
 48 65  1  0  0  0
 48120  1  0  0  0
 49 50  1  0  0  0
 49 53  1  0  0  0
 49 64  1  0  0  0
 49121  1  0  0  0
 50 51  1  0  0  0
 50122  1  0  0  0
 50123  1  0  0  0
 51 52  1  0  0  0
 51124  1  0  0  0
 51125  1  0  0  0
 52126  1  0  0  0
 52127  1  0  0  0
 53 54  1  0  0  0
 54 55  2  0  0  0
 54128  1  0  0  0
 55 57  1  0  0  0
 55129  1  0  0  0
 56 69  2  0  0  0
 57 58  2  0  0  0
 57130  1  0  0  0
 58131  1  0  0  0
 59 60  1  0  0  0
 59 61  1  0  0  0
 59 62  1  0  0  0
 60132  1  0  0  0
 60133  1  0  0  0
 60134  1  0  0  0
 61135  1  0  0  0
 61136  1  0  0  0
 61137  1  0  0  0
 62138  1  0  0  0
 62139  1  0  0  0
 62140  1  0  0  0
 63 65  1  0  0  0
 63141  1  0  0  0
 63142  1  0  0  0
 63143  1  0  0  0
 64144  1  0  0  0
 65145  1  0  0  0
 68 81  1  0  0  0
 71 73  1  0  0  0
 71 74  2  0  0  0
 71146  1  0  0  0
 72 73  2  0  0  0
 72 84  1  0  0  0
 72147  1  0  0  0
 73 81  1  0  0  0
 74 77  1  0  0  0
 74 84  1  0  0  0
 75 76  2  0  0  0
 75 83  1  0  0  0
 75148  1  0  0  0
 76 84  1  0  0  0
 76149  1  0  0  0
 77 83  2  0  0  0
 77 86  1  0  0  0
 78 79  1  0  0  0
 78 80  1  0  0  0
 78150  1  0  0  0
 78151  1  0  0  0
 79 85  1  0  0  0
 79152  1  0  0  0
 79153  1  0  0  0
 80 82  1  0  0  0
 80 85  1  0  0  0
 80154  1  0  0  0
 81155  1  0  0  0
 81156  1  0  0  0
 82 86  1  0  0  0
 82157  1  0  0  0
 82158  1  0  0  0
 86159  1  0  0  0
M  ISO  4   1 100  68 101  81 101  85 100
M  END
> <chiral flag>
0

> <version>
0

> <s_m_source_file>
/data/baiqing/PycharmProjects/Reinvent-master-3.2/result/LINK_invent/BTK/process_docking_weight1_custom_sum_contain_oxygen_bond_distance_aromatic_linkinvent_7_9_3/rearranged_h_0185.sdf

> <i_m_source_file_index>
59

> <r_mmod_Potential_Energy-OPLS-2005>
-9.67284297943115

> <r_mmod_Stretch_Energy-OPLS-2005>
78.0018157958984

> <r_mmod_Bend_Energy-OPLS-2005>
218.673080444336

> <r_mmod_Torsional_Energy-OPLS-2005>
310.493133544922

> <r_mmod_Improper_Torsional_Energy-OPLS-2005>
19.8433399200439

> <r_mmod_Van_der_Waal_Energy-OPLS-2005>
149.600830078125

> <r_mmod_Electrostatic_Energy-OPLS-2005>
-599.994384765625

> <r_mmod_Solvation_Energy-OPLS-2005>
-231.941909790039

> <b_mmod_Minimization_Converged-OPLS-2005>
0

> <r_mmod_RMS_Derivative-OPLS-2005>
9.05875205993652

$$$$
59
                    3D
 Structure written by MMmdl.
149158  0  0  1  0            999 V2000
  -30.5003  -15.1483   20.3801 C   0  0  0  0  0  0
  -30.4352  -12.7242   19.5144 C   0  0  0  0  0  0
  -29.5281  -12.5512   18.2738 C   0  0  0  0  0  0
  -28.0689  -12.3063   18.6972 C   0  0  0  0  0  0
  -27.6174  -13.2681   19.8254 C   0  0  2  0  0  0
  -28.6568  -13.4068   20.9576 C   0  0  0  0  0  0
  -25.2434  -13.8251   20.5744 C   0  0  0  0  0  0
  -24.1769  -13.0448   20.9237 C   0  0  0  0  0  0
  -24.6405  -11.6939   20.8752 C   0  0  0  0  0  0
  -23.9094  -10.4306   21.0396 C   0  0  0  0  0  0
  -24.3642   -9.4222   21.9178 C   0  0  0  0  0  0
  -23.6325   -8.2252   22.0746 C   0  0  0  0  0  0
  -22.4298   -8.0286   21.3544 C   0  0  0  0  0  0
  -21.9940   -9.0257   20.4645 C   0  0  0  0  0  0
  -22.7263  -10.2141   20.3056 C   0  0  0  0  0  0
  -21.6863   -6.0740   22.5270 C   0  0  0  0  0  0
  -21.4021   -6.5637   23.8206 C   0  0  0  0  0  0
  -21.3669   -5.6791   24.9171 C   0  0  0  0  0  0
  -21.6048   -4.3056   24.7218 C   0  0  0  0  0  0
  -21.8823   -3.8145   23.4341 C   0  0  0  0  0  0
  -21.9205   -4.6966   22.3399 C   0  0  0  0  0  0
  -22.7786  -13.5194   21.1904 C   0  0  0  0  0  0
  -22.1667   -4.2149   21.0977 F   0  0  0  0  0  0
  -21.5641   -3.4545   25.7728 F   0  0  0  0  0  0
  -29.9009  -13.8697   20.3265 N   0  0  0  0  0  0
  -26.2854  -12.9510   20.3244 N   0  0  0  0  0  0
  -25.9340  -11.6617   20.5725 N   0  0  0  0  0  0
  -22.0463  -12.8166   22.0457 N   0  0  0  0  0  0
  -25.4135  -15.1991   20.4199 N   0  0  0  0  0  0
  -31.7210  -15.1383   20.1702 O   0  0  0  0  0  0
  -21.6658   -6.8881   21.4226 O   0  0  0  0  0  0
  -22.3455  -14.5500   20.6756 O   0  0  0  0  0  0
  -24.6566  -31.8309   23.1761 C   0  0  0  0  0  0
  -25.9271  -32.4626   23.8219 C   0  0  1  0  0  0
  -27.2187  -26.9969   20.1677 C   0  0  0  0  0  0
  -25.5963  -33.8439   24.2126 N   0  0  0  0  0  0
  -23.4683  -30.4431   21.5260 C   0  0  2  0  0  0
  -24.9212  -28.8450   20.1104 C   0  0  0  0  0  0
  -22.7635  -29.4458   22.4823 C   0  0  0  0  0  0
  -18.0315  -28.1392   22.8466 C   0  0  0  0  0  0
  -24.1496  -36.7224   23.2652 C   0  0  0  0  0  0
  -26.0336  -30.6579   21.3967 C   0  0  0  0  0  0
  -26.1036  -29.2556   20.7379 C   0  0  0  0  0  0
  -27.2499  -28.3510   20.7447 C   0  0  0  0  0  0
  -26.0072  -26.7220   19.4951 C   0  0  0  0  0  0
  -24.8940  -27.5962   19.4707 C   0  0  0  0  0  0
  -23.7038  -29.7632   20.1501 C   0  0  0  0  0  0
  -25.4128  -36.3001   24.0319 C   0  0  1  0  0  0
  -20.5935  -28.3731   23.1221 C   0  0  2  0  0  0
  -20.6796  -26.9423   22.5413 C   0  0  0  0  0  0
  -19.5772  -26.6368   21.5223 C   0  0  0  0  0  0
  -18.1952  -26.7924   22.1624 C   0  0  0  0  0  0
  -19.1572  -28.8879   23.2822 C   0  0  0  0  0  0
  -18.9487  -30.1474   23.8851 C   0  0  0  0  0  0
  -17.6486  -30.6585   24.0556 C   0  0  0  0  0  0
  -25.9083  -34.9371   23.5041 C   0  0  0  0  0  0
  -16.5376  -29.9075   23.6342 C   0  0  0  0  0  0
  -16.7301  -28.6495   23.0359 C   0  0  0  0  0  0
  -26.4536  -31.6541   25.0712 C   0  0  0  0  0  0
  -25.3680  -31.3762   26.1380 C   0  0  0  0  0  0
  -27.0434  -30.2928   24.6385 C   0  0  0  0  0  0
  -27.6045  -32.4332   25.7495 C   0  0  0  0  0  0
  -27.5576  -37.1764   24.8470 C   0  0  0  0  0  0
  -21.4314  -29.3026   22.3571 N   0  0  0  0  0  0
  -26.4291  -37.3724   23.9410 N   0  0  0  0  0  0
  -24.7402  -31.0018   22.0871 N   0  0  0  0  0  0
  -23.4213  -28.8035   23.3046 O   0  0  0  0  0  0
  -28.2297  -25.9253   20.2508 O   0  0  0  0  0  0
  -26.5697  -34.8901   22.4637 O   0  0  0  0  0  0
  -23.5647  -32.1262   23.6878 O   0  0  0  0  0  0
  -30.7141  -20.9044   20.9805 C   0  0  0  0  0  0
  -30.9643  -22.2792   21.1604 C   0  0  0  0  0  0
  -29.4921  -20.4537   20.4642 C   0  0  0  0  0  0
  -28.9009  -22.9652   20.3532 C   0  0  0  0  0  0
  -30.0140  -17.6279   19.4213 C   0  0  0  0  0  0
  -29.7502  -17.5728   21.3835 C   0  0  0  0  0  0
  -29.3033  -18.7414   20.3516 C   0  0  0  0  0  0
  -27.9306  -24.3458   20.0300 C   0  0  0  0  0  0
  -30.0916  -23.2673   20.8595 N   0  0  0  0  0  0
  -28.6021  -21.5667   20.1552 N   0  0  0  0  0  0
  -29.7643  -16.4210   20.3585 N   0  0  0  0  0  0
  -31.4619  -12.9009   19.1890 H   0  0  0  0  0  0
  -30.4668  -11.8084   20.1074 H   0  0  0  0  0  0
  -29.8834  -11.7256   17.6557 H   0  0  0  0  0  0
  -29.5840  -13.4470   17.6535 H   0  0  0  0  0  0
  -27.9958  -11.2734   19.0395 H   0  0  0  0  0  0
  -27.4034  -12.3866   17.8370 H   0  0  0  0  0  0
  -27.5458  -14.2461   19.3471 H   0  0  0  0  0  0
  -28.7965  -12.4667   21.4934 H   0  0  0  0  0  0
  -28.3230  -14.1402   21.6929 H   0  0  0  0  0  0
  -25.2785   -9.5701   22.4741 H   0  0  0  0  0  0
  -24.0039   -7.4645   22.7455 H   0  0  0  0  0  0
  -21.0878   -8.8769   19.8945 H   0  0  0  0  0  0
  -22.3710  -10.9676   19.6162 H   0  0  0  0  0  0
  -21.1992   -7.6143   23.9702 H   0  0  0  0  0  0
  -21.1498   -6.0523   25.9070 H   0  0  0  0  0  0
  -22.0596   -2.7605   23.2836 H   0  0  0  0  0  0
  -22.4118  -11.9838   22.4823 H   0  0  0  0  0  0
  -21.1064  -13.1131   22.2665 H   0  0  0  0  0  0
  -24.6548  -15.8604   20.5476 H   0  0  0  0  0  0
  -26.2778  -15.6375   20.1256 H   0  0  0  0  0  0
  -26.7338  -32.5173   23.0937 H   0  0  0  0  0  0
  -25.0065  -33.9541   25.0248 H   0  0  0  0  0  0
  -22.7765  -31.2713   21.3588 H   0  0  0  0  0  0
  -23.3776  -35.9541   23.3313 H   0  0  0  0  0  0
  -24.3585  -36.8865   22.2070 H   0  0  0  0  0  0
  -23.7238  -37.6413   23.6691 H   0  0  0  0  0  0
  -26.2047  -31.4031   20.6192 H   0  0  0  0  0  0
  -26.8973  -30.7118   22.0473 H   0  0  0  0  0  0
  -28.1458  -28.6590   21.2656 H   0  0  0  0  0  0
  -25.8810  -25.7672   19.0067 H   0  0  0  0  0  0
  -23.9919  -27.2727   18.9688 H   0  0  0  0  0  0
  -23.8527  -30.5345   19.3944 H   0  0  0  0  0  0
  -22.8133  -29.2145   19.8368 H   0  0  0  0  0  0
  -25.1316  -36.1828   25.0815 H   0  0  0  0  0  0
  -21.0006  -28.3334   24.1353 H   0  0  0  0  0  0
  -20.5699  -26.2345   23.3641 H   0  0  0  0  0  0
  -21.6660  -26.7418   22.1204 H   0  0  0  0  0  0
  -19.6941  -25.6266   21.1275 H   0  0  0  0  0  0
  -19.6720  -27.3162   20.6740 H   0  0  0  0  0  0
  -17.4224  -26.6683   21.4024 H   0  0  0  0  0  0
  -18.0335  -26.0070   22.9022 H   0  0  0  0  0  0
  -19.7966  -30.7292   24.2208 H   0  0  0  0  0  0
  -17.5042  -31.6269   24.5152 H   0  0  0  0  0  0
  -15.5369  -30.2965   23.7684 H   0  0  0  0  0  0
  -15.8706  -28.0801   22.7097 H   0  0  0  0  0  0
  -24.5876  -30.7092   25.7698 H   0  0  0  0  0  0
  -24.8835  -32.2940   26.4710 H   0  0  0  0  0  0
  -25.7921  -30.8999   27.0228 H   0  0  0  0  0  0
  -26.3097  -29.6604   24.1370 H   0  0  0  0  0  0
  -27.4000  -29.7276   25.5008 H   0  0  0  0  0  0
  -27.9016  -30.4169   23.9782 H   0  0  0  0  0  0
  -27.2646  -33.3684   26.1964 H   0  0  0  0  0  0
  -28.3894  -32.6813   25.0334 H   0  0  0  0  0  0
  -28.0670  -31.8526   26.5492 H   0  0  0  0  0  0
  -28.2570  -38.0084   24.7511 H   0  0  0  0  0  0
  -28.1092  -36.2599   24.6289 H   0  0  0  0  0  0
  -27.2291  -37.1397   25.8877 H   0  0  0  0  0  0
  -20.9560  -29.8731   21.6719 H   0  0  0  0  0  0
  -26.0154  -38.2797   24.1408 H   0  0  0  0  0  0
  -31.4810  -20.1944   21.2590 H   0  0  0  0  0  0
  -31.9075  -22.6019   21.5755 H   0  0  0  0  0  0
  -29.5355  -17.5405   18.4441 H   0  0  0  0  0  0
  -31.0770  -17.8318   19.2700 H   0  0  0  0  0  0
  -30.7351  -17.7625   21.8180 H   0  0  0  0  0  0
  -29.0341  -17.4404   22.1951 H   0  0  0  0  0  0
  -28.2303  -18.6253   20.1952 H   0  0  0  0  0  0
  -26.9906  -24.1475   20.5464 H   0  0  0  0  0  0
  -27.6866  -24.2555   18.9704 H   0  0  0  0  0  0
  1 25  1  0  0  0
  1 30  2  0  0  0
  1 81  1  0  0  0
  2  3  1  0  0  0
  2 25  1  0  0  0
  2 82  1  0  0  0
  2 83  1  0  0  0
  3  4  1  0  0  0
  3 84  1  0  0  0
  3 85  1  0  0  0
  4  5  1  0  0  0
  4 86  1  0  0  0
  4 87  1  0  0  0
  5  6  1  0  0  0
  5 26  1  0  0  0
  5 88  1  0  0  0
  6 25  1  0  0  0
  6 89  1  0  0  0
  6 90  1  0  0  0
  7  8  2  0  0  0
  7 26  1  0  0  0
  7 29  1  0  0  0
  8  9  1  0  0  0
  8 22  1  0  0  0
  9 10  1  0  0  0
  9 27  2  0  0  0
 10 11  2  0  0  0
 10 15  1  0  0  0
 11 12  1  0  0  0
 11 91  1  0  0  0
 12 13  2  0  0  0
 12 92  1  0  0  0
 13 14  1  0  0  0
 13 31  1  0  0  0
 14 15  2  0  0  0
 14 93  1  0  0  0
 15 94  1  0  0  0
 16 17  2  0  0  0
 16 21  1  0  0  0
 16 31  1  0  0  0
 17 18  1  0  0  0
 17 95  1  0  0  0
 18 19  2  0  0  0
 18 96  1  0  0  0
 19 20  1  0  0  0
 19 24  1  0  0  0
 20 21  2  0  0  0
 20 97  1  0  0  0
 21 23  1  0  0  0
 22 28  1  0  0  0
 22 32  2  0  0  0
 26 27  1  0  0  0
 28 98  1  0  0  0
 28 99  1  0  0  0
 29100  1  0  0  0
 29101  1  0  0  0
 33 34  1  0  0  0
 33 66  1  0  0  0
 33 70  2  0  0  0
 34 36  1  0  0  0
 34 59  1  0  0  0
 34102  1  0  0  0
 35 44  2  0  0  0
 35 45  1  0  0  0
 35 68  1  0  0  0
 36 56  1  0  0  0
 36103  1  0  0  0
 37 39  1  0  0  0
 37 47  1  0  0  0
 37 66  1  0  0  0
 37104  1  0  0  0
 38 43  2  0  0  0
 38 46  1  0  0  0
 38 47  1  0  0  0
 39 64  1  0  0  0
 39 67  2  0  0  0
 40 52  1  0  0  0
 40 53  2  0  0  0
 40 58  1  0  0  0
 41105  1  0  0  0
 41106  1  0  0  0
 41107  1  0  0  0
 41 48  1  0  0  0
 42 43  1  0  0  0
 42 66  1  0  0  0
 42108  1  0  0  0
 42109  1  0  0  0
 43 44  1  0  0  0
 44110  1  0  0  0
 45 46  2  0  0  0
 45111  1  0  0  0
 46112  1  0  0  0
 47113  1  0  0  0
 47114  1  0  0  0
 48 56  1  0  0  0
 48 65  1  0  0  0
 48115  1  0  0  0
 49 50  1  0  0  0
 49 53  1  0  0  0
 49 64  1  0  0  0
 49116  1  0  0  0
 50 51  1  0  0  0
 50117  1  0  0  0
 50118  1  0  0  0
 51 52  1  0  0  0
 51119  1  0  0  0
 51120  1  0  0  0
 52121  1  0  0  0
 52122  1  0  0  0
 53 54  1  0  0  0
 54 55  2  0  0  0
 54123  1  0  0  0
 55 57  1  0  0  0
 55124  1  0  0  0
 56 69  2  0  0  0
 57 58  2  0  0  0
 57125  1  0  0  0
 58126  1  0  0  0
 59 60  1  0  0  0
 59 61  1  0  0  0
 59 62  1  0  0  0
 60127  1  0  0  0
 60128  1  0  0  0
 60129  1  0  0  0
 61130  1  0  0  0
 61131  1  0  0  0
 61132  1  0  0  0
 62133  1  0  0  0
 62134  1  0  0  0
 62135  1  0  0  0
 63 65  1  0  0  0
 63136  1  0  0  0
 63137  1  0  0  0
 63138  1  0  0  0
 64139  1  0  0  0
 65140  1  0  0  0
 68 78  1  0  0  0
 71 72  2  0  0  0
 71 73  1  0  0  0
 71141  1  0  0  0
 72 79  1  0  0  0
 72142  1  0  0  0
 73 80  2  0  0  0
 73 77  1  0  0  0
 74 78  1  0  0  0
 74 79  2  0  0  0
 74 80  1  0  0  0
 75 77  1  0  0  0
 75 81  1  0  0  0
 75143  1  0  0  0
 75144  1  0  0  0
 76 77  1  0  0  0
 76 81  1  0  0  0
 76145  1  0  0  0
 76146  1  0  0  0
 77147  1  0  0  0
 78148  1  0  0  0
 78149  1  0  0  0
M  ISO  4   1 100  68 101  78 101  81 100
M  END
> <chiral flag>
0

> <version>
0

> <s_m_source_file>
/data/baiqing/PycharmProjects/Reinvent-master-3.2/result/LINK_invent/BTK/process_docking_weight1_custom_sum_contain_oxygen_bond_distance_aromatic_linkinvent_7_9_3/rearranged_h_0185.sdf

> <i_m_source_file_index>
60

> <r_mmod_Potential_Energy-OPLS-2005>
603.646118164062

> <r_mmod_Stretch_Energy-OPLS-2005>
412.617462158203

> <r_mmod_Bend_Energy-OPLS-2005>
356.086944580078

> <r_mmod_Torsional_Energy-OPLS-2005>
260.675842285156

> <r_mmod_Improper_Torsional_Energy-OPLS-2005>
14.6308641433716

> <r_mmod_Van_der_Waal_Energy-OPLS-2005>
130.250503540039

> <r_mmod_Electrostatic_Energy-OPLS-2005>
-679.556823730469

> <r_mmod_Solvation_Energy-OPLS-2005>
-242.560974121094

> <b_mmod_Minimization_Converged-OPLS-2005>
0

> <r_mmod_RMS_Derivative-OPLS-2005>
2.02899599075317

$$$$
60
                    3D
 Structure written by MMmdl.
148157  0  0  1  0            999 V2000
  -30.4090  -15.3043   20.3452 C   0  0  0  0  0  0
  -30.4424  -12.8248   19.5414 C   0  0  0  0  0  0
  -29.5445  -12.5842   18.2992 C   0  0  0  0  0  0
  -28.0911  -12.3018   18.7179 C   0  0  0  0  0  0
  -27.6097  -13.2813   19.8156 C   0  0  2  0  0  0
  -28.6363  -13.4715   20.9499 C   0  0  0  0  0  0
  -25.2388  -13.8259   20.5736 C   0  0  0  0  0  0
  -24.1742  -13.0439   20.9241 C   0  0  0  0  0  0
  -24.6404  -11.6938   20.8741 C   0  0  0  0  0  0
  -23.9101  -10.4292   21.0397 C   0  0  0  0  0  0
  -24.3643   -9.4205   21.9178 C   0  0  0  0  0  0
  -23.6307   -8.2246   22.0752 C   0  0  0  0  0  0
  -22.4288   -8.0284   21.3543 C   0  0  0  0  0  0
  -21.9930   -9.0258   20.4643 C   0  0  0  0  0  0
  -22.7269  -10.2131   20.3049 C   0  0  0  0  0  0
  -21.6858   -6.0739   22.5277 C   0  0  0  0  0  0
  -21.4020   -6.5642   23.8211 C   0  0  0  0  0  0
  -21.3659   -5.6794   24.9172 C   0  0  0  0  0  0
  -21.6044   -4.3057   24.7224 C   0  0  0  0  0  0
  -21.8819   -3.8148   23.4344 C   0  0  0  0  0  0
  -21.9193   -4.6965   22.3400 C   0  0  0  0  0  0
  -22.7760  -13.5187   21.1900 C   0  0  0  0  0  0
  -22.1660   -4.2149   21.0978 F   0  0  0  0  0  0
  -21.5626   -3.4540   25.7736 F   0  0  0  0  0  0
  -29.8773  -13.9771   20.3405 N   0  0  0  0  0  0
  -26.2811  -12.9543   20.3172 N   0  0  0  0  0  0
  -25.9341  -11.6642   20.5682 N   0  0  0  0  0  0
  -22.0429  -12.8160   22.0457 N   0  0  0  0  0  0
  -25.4037  -15.1996   20.4212 N   0  0  0  0  0  0
  -31.6373  -15.2840   20.1651 O   0  0  0  0  0  0
  -21.6647   -6.8884   21.4240 O   0  0  0  0  0  0
  -22.3429  -14.5487   20.6746 O   0  0  0  0  0  0
  -24.6662  -31.8216   23.1688 C   0  0  0  0  0  0
  -25.9332  -32.4578   23.8160 C   0  0  1  0  0  0
  -27.2146  -26.8988   20.1916 C   0  0  0  0  0  0
  -25.5989  -33.8392   24.2066 N   0  0  0  0  0  0
  -23.4816  -30.4335   21.5192 C   0  0  2  0  0  0
  -24.9349  -28.8159   20.1171 C   0  0  0  0  0  0
  -22.7682  -29.4435   22.4774 C   0  0  0  0  0  0
  -18.0327  -28.1410   22.8467 C   0  0  0  0  0  0
  -24.1494  -36.7201   23.2646 C   0  0  0  0  0  0
  -26.0535  -30.6195   21.4036 C   0  0  0  0  0  0
  -26.1213  -29.2053   20.7516 C   0  0  0  0  0  0
  -27.2575  -28.2704   20.7609 C   0  0  0  0  0  0
  -25.9996  -26.6755   19.5028 C   0  0  0  0  0  0
  -24.9013  -27.5717   19.4711 C   0  0  0  0  0  0
  -23.7236  -29.7482   20.1469 C   0  0  0  0  0  0
  -25.4136  -36.2959   24.0296 C   0  0  1  0  0  0
  -20.5953  -28.3760   23.1180 C   0  0  2  0  0  0
  -20.6801  -26.9438   22.5400 C   0  0  0  0  0  0
  -19.5774  -26.6379   21.5213 C   0  0  0  0  0  0
  -18.1958  -26.7942   22.1623 C   0  0  0  0  0  0
  -19.1589  -28.8906   23.2811 C   0  0  0  0  0  0
  -18.9497  -30.1494   23.8849 C   0  0  0  0  0  0
  -17.6489  -30.6598   24.0555 C   0  0  0  0  0  0
  -25.9104  -34.9343   23.5002 C   0  0  0  0  0  0
  -16.5380  -29.9085   23.6342 C   0  0  0  0  0  0
  -16.7308  -28.6504   23.0364 C   0  0  0  0  0  0
  -26.4570  -31.6528   25.0697 C   0  0  0  0  0  0
  -25.3689  -31.3789   26.1348 C   0  0  0  0  0  0
  -27.0468  -30.2890   24.6449 C   0  0  0  0  0  0
  -27.6053  -32.4343   25.7507 C   0  0  0  0  0  0
  -27.5569  -37.1760   24.8466 C   0  0  0  0  0  0
  -21.4348  -29.3047   22.3525 N   0  0  0  0  0  0
  -26.4278  -37.3699   23.9407 N   0  0  0  0  0  0
  -24.7555  -30.9857   22.0838 N   0  0  0  0  0  0
  -23.4218  -28.8004   23.3024 O   0  0  0  0  0  0
  -28.2027  -25.7682   20.2265 O   0  0  0  0  0  0
  -26.5712  -34.8881   22.4597 O   0  0  0  0  0  0
  -23.5726  -32.1197   23.6766 O   0  0  0  0  0  0
  -28.6289  -22.5855   20.2373 C   0  0  0  0  0  0
  -28.6730  -21.3075   20.9618 C   0  0  0  0  0  0
  -30.0312  -17.8098   19.2908 C   0  0  0  0  0  0
  -29.5346  -16.8293   20.3263 C   0  0  1  0  0  0
  -29.8871  -18.5815   20.5879 C   0  0  2  0  0  0
  -28.1680  -21.0830   22.3485 C   0  0  0  0  0  0
  -27.8282  -24.1604   20.4171 C   0  0  0  0  0  0
  -29.2323  -22.0980   19.0502 N   0  0  0  0  0  0
  -29.6158  -20.8006   19.0781 N   0  0  0  0  0  0
  -29.2706  -20.1350   20.2398 N   0  0  0  0  0  0
  -31.4622  -13.0276   19.2126 H   0  0  0  0  0  0
  -30.5085  -11.9234   20.1531 H   0  0  0  0  0  0
  -29.9321  -11.7570   17.7030 H   0  0  0  0  0  0
  -29.5733  -13.4660   17.6575 H   0  0  0  0  0  0
  -28.0489  -11.2793   19.0955 H   0  0  0  0  0  0
  -27.4277  -12.3368   17.8529 H   0  0  0  0  0  0
  -27.5214  -14.2442   19.3112 H   0  0  0  0  0  0
  -28.8010  -12.5439   21.5001 H   0  0  0  0  0  0
  -28.2664  -14.1999   21.6731 H   0  0  0  0  0  0
  -25.2784   -9.5678   22.4758 H   0  0  0  0  0  0
  -24.0005   -7.4639   22.7480 H   0  0  0  0  0  0
  -21.0857   -8.8785   19.8952 H   0  0  0  0  0  0
  -22.3726  -10.9670   19.6160 H   0  0  0  0  0  0
  -21.2020   -7.6151   23.9713 H   0  0  0  0  0  0
  -21.1480   -6.0526   25.9075 H   0  0  0  0  0  0
  -22.0599   -2.7610   23.2846 H   0  0  0  0  0  0
  -22.4069  -11.9829   22.4839 H   0  0  0  0  0  0
  -21.1042  -13.1158   22.2674 H   0  0  0  0  0  0
  -24.6388  -15.8538   20.5464 H   0  0  0  0  0  0
  -26.2556  -15.6437   20.1035 H   0  0  0  0  0  0
  -26.7404  -32.5109   23.0876 H   0  0  0  0  0  0
  -25.0090  -33.9466   25.0186 H   0  0  0  0  0  0
  -22.7963  -31.2660   21.3466 H   0  0  0  0  0  0
  -23.3764  -35.9522   23.3278 H   0  0  0  0  0  0
  -24.3571  -36.8879   22.2066 H   0  0  0  0  0  0
  -23.7243  -37.6378   23.6722 H   0  0  0  0  0  0
  -26.2360  -31.3574   20.6211 H   0  0  0  0  0  0
  -26.9128  -30.6792   22.0593 H   0  0  0  0  0  0
  -28.1567  -28.5710   21.2799 H   0  0  0  0  0  0
  -25.8622  -25.7376   18.9866 H   0  0  0  0  0  0
  -24.0040  -27.2696   18.9486 H   0  0  0  0  0  0
  -23.8841  -30.5156   19.3889 H   0  0  0  0  0  0
  -22.8322  -29.2062   19.8263 H   0  0  0  0  0  0
  -25.1336  -36.1748   25.0788 H   0  0  0  0  0  0
  -21.0044  -28.3366   24.1303 H   0  0  0  0  0  0
  -20.5679  -26.2379   23.3643 H   0  0  0  0  0  0
  -21.6664  -26.7408   22.1208 H   0  0  0  0  0  0
  -19.6930  -25.6278   21.1274 H   0  0  0  0  0  0
  -19.6709  -27.3162   20.6720 H   0  0  0  0  0  0
  -17.4225  -26.6687   21.4027 H   0  0  0  0  0  0
  -18.0352  -26.0097   22.9032 H   0  0  0  0  0  0
  -19.7972  -30.7324   24.2196 H   0  0  0  0  0  0
  -17.5040  -31.6272   24.5168 H   0  0  0  0  0  0
  -15.5378  -30.2972   23.7691 H   0  0  0  0  0  0
  -15.8709  -28.0805   22.7109 H   0  0  0  0  0  0
  -24.5894  -30.7110   25.7661 H   0  0  0  0  0  0
  -24.8853  -32.2993   26.4630 H   0  0  0  0  0  0
  -25.7919  -30.9057   27.0218 H   0  0  0  0  0  0
  -26.3142  -29.6562   24.1430 H   0  0  0  0  0  0
  -27.3960  -29.7260   25.5115 H   0  0  0  0  0  0
  -27.9099  -30.4060   23.9893 H   0  0  0  0  0  0
  -27.2614  -33.3692   26.1944 H   0  0  0  0  0  0
  -28.3940  -32.6828   25.0392 H   0  0  0  0  0  0
  -28.0634  -31.8563   26.5542 H   0  0  0  0  0  0
  -28.2565  -38.0074   24.7512 H   0  0  0  0  0  0
  -28.1085  -36.2600   24.6295 H   0  0  0  0  0  0
  -27.2285  -37.1402   25.8868 H   0  0  0  0  0  0
  -20.9606  -29.8740   21.6654 H   0  0  0  0  0  0
  -26.0120  -38.2754   24.1418 H   0  0  0  0  0  0
  -29.3237  -18.0316   18.4944 H   0  0  0  0  0  0
  -31.0489  -17.6835   18.9266 H   0  0  0  0  0  0
  -28.4636  -16.6441   20.3603 H   0  0  0  0  0  0
  -30.7928  -18.7450   21.1680 H   0  0  0  0  0  0
  -27.6798  -21.9741   22.7433 H   0  0  0  0  0  0
  -28.9856  -20.8240   23.0216 H   0  0  0  0  0  0
  -27.4433  -20.2686   22.3707 H   0  0  0  0  0  0
  -27.4408  -24.1560   21.4358 H   0  0  0  0  0  0
  -26.9243  -24.0498   19.8224 H   0  0  0  0  0  0
  1 25  1  0  0  0
  1 30  2  0  0  0
  1 74  1  0  0  0
  2  3  1  0  0  0
  2 25  1  0  0  0
  2 81  1  0  0  0
  2 82  1  0  0  0
  3  4  1  0  0  0
  3 83  1  0  0  0
  3 84  1  0  0  0
  4  5  1  0  0  0
  4 85  1  0  0  0
  4 86  1  0  0  0
  5  6  1  0  0  0
  5 26  1  0  0  0
  5 87  1  0  0  0
  6 25  1  0  0  0
  6 88  1  0  0  0
  6 89  1  0  0  0
  7  8  2  0  0  0
  7 26  1  0  0  0
  7 29  1  0  0  0
  8  9  1  0  0  0
  8 22  1  0  0  0
  9 10  1  0  0  0
  9 27  2  0  0  0
 10 11  2  0  0  0
 10 15  1  0  0  0
 11 12  1  0  0  0
 11 90  1  0  0  0
 12 13  2  0  0  0
 12 91  1  0  0  0
 13 14  1  0  0  0
 13 31  1  0  0  0
 14 15  2  0  0  0
 14 92  1  0  0  0
 15 93  1  0  0  0
 16 17  2  0  0  0
 16 21  1  0  0  0
 16 31  1  0  0  0
 17 18  1  0  0  0
 17 94  1  0  0  0
 18 19  2  0  0  0
 18 95  1  0  0  0
 19 20  1  0  0  0
 19 24  1  0  0  0
 20 21  2  0  0  0
 20 96  1  0  0  0
 21 23  1  0  0  0
 22 28  1  0  0  0
 22 32  2  0  0  0
 26 27  1  0  0  0
 28 97  1  0  0  0
 28 98  1  0  0  0
 29 99  1  0  0  0
 29100  1  0  0  0
 33 34  1  0  0  0
 33 66  1  0  0  0
 33 70  2  0  0  0
 34 36  1  0  0  0
 34 59  1  0  0  0
 34101  1  0  0  0
 35 44  2  0  0  0
 35 45  1  0  0  0
 35 68  1  0  0  0
 36 56  1  0  0  0
 36102  1  0  0  0
 37 39  1  0  0  0
 37 47  1  0  0  0
 37 66  1  0  0  0
 37103  1  0  0  0
 38 43  2  0  0  0
 38 46  1  0  0  0
 38 47  1  0  0  0
 39 64  1  0  0  0
 39 67  2  0  0  0
 40 52  1  0  0  0
 40 53  2  0  0  0
 40 58  1  0  0  0
 41104  1  0  0  0
 41105  1  0  0  0
 41106  1  0  0  0
 41 48  1  0  0  0
 42 43  1  0  0  0
 42 66  1  0  0  0
 42107  1  0  0  0
 42108  1  0  0  0
 43 44  1  0  0  0
 44109  1  0  0  0
 45 46  2  0  0  0
 45110  1  0  0  0
 46111  1  0  0  0
 47112  1  0  0  0
 47113  1  0  0  0
 48 56  1  0  0  0
 48 65  1  0  0  0
 48114  1  0  0  0
 49 50  1  0  0  0
 49 53  1  0  0  0
 49 64  1  0  0  0
 49115  1  0  0  0
 50 51  1  0  0  0
 50116  1  0  0  0
 50117  1  0  0  0
 51 52  1  0  0  0
 51118  1  0  0  0
 51119  1  0  0  0
 52120  1  0  0  0
 52121  1  0  0  0
 53 54  1  0  0  0
 54 55  2  0  0  0
 54122  1  0  0  0
 55 57  1  0  0  0
 55123  1  0  0  0
 56 69  2  0  0  0
 57 58  2  0  0  0
 57124  1  0  0  0
 58125  1  0  0  0
 59 60  1  0  0  0
 59 61  1  0  0  0
 59 62  1  0  0  0
 60126  1  0  0  0
 60127  1  0  0  0
 60128  1  0  0  0
 61129  1  0  0  0
 61130  1  0  0  0
 61131  1  0  0  0
 62132  1  0  0  0
 62133  1  0  0  0
 62134  1  0  0  0
 63 65  1  0  0  0
 63135  1  0  0  0
 63136  1  0  0  0
 63137  1  0  0  0
 64138  1  0  0  0
 65139  1  0  0  0
 68 77  1  0  0  0
 71 72  2  0  0  0
 71 77  1  0  0  0
 71 78  1  0  0  0
 72 76  1  0  0  0
 72 80  1  0  0  0
 73 74  1  0  0  0
 73 75  1  0  0  0
 73140  1  0  0  0
 73141  1  0  0  0
 74 75  1  0  0  0
 74142  1  0  0  0
 75 80  1  0  0  0
 75143  1  0  0  0
 76144  1  0  0  0
 76145  1  0  0  0
 76146  1  0  0  0
 77147  1  0  0  0
 77148  1  0  0  0
 78 79  2  0  0  0
 79 80  1  0  0  0
M  ISO  4   1 100  68 101  74 100  77 101
M  END
> <chiral flag>
0

> <version>
0

> <s_m_source_file>
/data/baiqing/PycharmProjects/Reinvent-master-3.2/result/LINK_invent/BTK/process_docking_weight1_custom_sum_contain_oxygen_bond_distance_aromatic_linkinvent_7_9_3/rearranged_h_0185.sdf

> <i_m_source_file_index>
61

> <r_mmod_Potential_Energy-OPLS-2005>
1464.0751953125

> <r_mmod_Stretch_Energy-OPLS-2005>
645.765686035156

> <r_mmod_Bend_Energy-OPLS-2005>
481.125244140625

> <r_mmod_Torsional_Energy-OPLS-2005>
235.46533203125

> <r_mmod_Improper_Torsional_Energy-OPLS-2005>
7.68791198730469

> <r_mmod_Van_der_Waal_Energy-OPLS-2005>
106.400169372559

> <r_mmod_Electrostatic_Energy-OPLS-2005>
-299.14697265625

> <r_mmod_Solvation_Energy-OPLS-2005>
-211.877136230469

> <b_mmod_Minimization_Converged-OPLS-2005>
0

> <r_mmod_RMS_Derivative-OPLS-2005>
0.367716640233994

$$$$
61
                    3D
 Structure written by MMmdl.
153162  0  0  1  0            999 V2000
  -30.6491  -14.7502   20.4625 C   0  0  0  0  0  0
  -30.4285  -12.4727   19.4517 C   0  0  0  0  0  0
  -29.4969  -12.4979   18.2217 C   0  0  0  0  0  0
  -28.0293  -12.2962   18.6477 C   0  0  0  0  0  0
  -27.6348  -13.1971   19.8454 C   0  0  2  0  0  0
  -28.6945  -13.1430   20.9712 C   0  0  0  0  0  0
  -25.2500  -13.8083   20.5684 C   0  0  0  0  0  0
  -24.1779  -13.0376   20.9225 C   0  0  0  0  0  0
  -24.6343  -11.6849   20.8791 C   0  0  0  0  0  0
  -23.9020  -10.4251   21.0445 C   0  0  0  0  0  0
  -24.3586   -9.4166   21.9210 C   0  0  0  0  0  0
  -23.6269   -8.2200   22.0762 C   0  0  0  0  0  0
  -22.4253   -8.0249   21.3546 C   0  0  0  0  0  0
  -21.9886   -9.0224   20.4653 C   0  0  0  0  0  0
  -22.7206  -10.2105   20.3076 C   0  0  0  0  0  0
  -21.6836   -6.0715   22.5279 C   0  0  0  0  0  0
  -21.4003   -6.5625   23.8209 C   0  0  0  0  0  0
  -21.3661   -5.6786   24.9178 C   0  0  0  0  0  0
  -21.6047   -4.3049   24.7234 C   0  0  0  0  0  0
  -21.8819   -3.8135   23.4354 C   0  0  0  0  0  0
  -21.9189   -4.6947   22.3406 C   0  0  0  0  0  0
  -22.7808  -13.5197   21.1875 C   0  0  0  0  0  0
  -22.1658   -4.2132   21.0983 F   0  0  0  0  0  0
  -21.5639   -3.4534   25.7749 F   0  0  0  0  0  0
  -29.9733  -13.5454   20.3711 N   0  0  0  0  0  0
  -26.2898  -12.9222   20.3306 N   0  0  0  0  0  0
  -25.9262  -11.6410   20.5809 N   0  0  0  0  0  0
  -22.0438  -12.8204   22.0432 N   0  0  0  0  0  0
  -25.4161  -15.1799   20.4040 N   0  0  0  0  0  0
  -31.8560  -14.7598   20.1990 O   0  0  0  0  0  0
  -21.6616   -6.8851   21.4238 O   0  0  0  0  0  0
  -22.3511  -14.5506   20.6718 O   0  0  0  0  0  0
  -24.6291  -31.8568   23.1997 C   0  0  0  0  0  0
  -25.9125  -32.4762   23.8337 C   0  0  1  0  0  0
  -27.2278  -27.2911   20.1070 C   0  0  0  0  0  0
  -25.5929  -33.8564   24.2265 N   0  0  0  0  0  0
  -23.4237  -30.4805   21.5431 C   0  0  2  0  0  0
  -24.8694  -28.9318   20.1086 C   0  0  0  0  0  0
  -22.7485  -29.4613   22.4922 C   0  0  0  0  0  0
  -18.0288  -28.1390   22.8480 C   0  0  0  0  0  0
  -24.1487  -36.7286   23.2638 C   0  0  0  0  0  0
  -25.9674  -30.7785   21.3740 C   0  0  0  0  0  0
  -26.0397  -29.4039   20.7140 C   0  0  0  0  0  0
  -27.2166  -28.5935   20.7064 C   0  0  0  0  0  0
  -26.0219  -26.8700   19.4975 C   0  0  0  0  0  0
  -24.8640  -27.6713   19.4942 C   0  0  0  0  0  0
  -23.6389  -29.8150   20.1585 C   0  0  0  0  0  0
  -25.4113  -36.3074   24.0329 C   0  0  1  0  0  0
  -20.5889  -28.3695   23.1276 C   0  0  2  0  0  0
  -20.6771  -26.9413   22.5413 C   0  0  0  0  0  0
  -19.5753  -26.6387   21.5205 C   0  0  0  0  0  0
  -18.1932  -26.7937   22.1613 C   0  0  0  0  0  0
  -19.1541  -28.8859   23.2877 C   0  0  0  0  0  0
  -18.9464  -30.1459   23.8899 C   0  0  0  0  0  0
  -17.6462  -30.6588   24.0563 C   0  0  0  0  0  0
  -25.9051  -34.9444   23.5100 C   0  0  0  0  0  0
  -16.5353  -29.9084   23.6331 C   0  0  0  0  0  0
  -16.7274  -28.6504   23.0351 C   0  0  0  0  0  0
  -26.4498  -31.6585   25.0722 C   0  0  0  0  0  0
  -25.3726  -31.3738   26.1449 C   0  0  0  0  0  0
  -27.0333  -30.3001   24.6198 C   0  0  0  0  0  0
  -27.6063  -32.4318   25.7490 C   0  0  0  0  0  0
  -27.5584  -37.1794   24.8460 C   0  0  0  0  0  0
  -21.4193  -29.3044   22.3666 N   0  0  0  0  0  0
  -26.4289  -37.3774   23.9412 N   0  0  0  0  0  0
  -24.6925  -31.0559   22.0957 N   0  0  0  0  0  0
  -23.4198  -28.8146   23.3004 O   0  0  0  0  0  0
  -28.3537  -26.4446   20.1857 O   0  0  0  0  0  0
  -26.5619  -34.8918   22.4665 O   0  0  0  0  0  0
  -23.5449  -32.1376   23.7309 O   0  0  0  0  0  0
  -29.9738  -22.3170   21.3247 C   0  0  0  0  0  0
  -29.5087  -21.1708   20.6101 C   0  0  0  0  0  0
  -28.7524  -23.7571   19.9838 C   0  0  0  0  0  0
  -28.4322  -17.8452   20.9912 C   0  0  0  0  0  0
  -28.5726  -16.3342   20.6873 C   0  0  0  0  0  0
  -30.6875  -17.3304   20.5368 C   0  0  0  0  0  0
  -29.6387  -18.5069   20.3412 C   0  0  2  0  0  0
  -28.4972  -25.2045   19.3671 C   0  0  0  0  0  0
  -29.6068  -23.5998   21.0099 N   0  0  0  0  0  0
  -28.6214  -21.4123   19.6037 N   0  0  0  0  0  0
  -28.2554  -22.6897   19.2963 N   0  0  0  0  0  0
  -30.0020  -15.9879   20.6134 N   0  0  0  0  0  0
  -29.9843  -19.8463   20.9271 N   0  0  0  0  0  0
  -31.4635  -12.6020   19.1309 H   0  0  0  0  0  0
  -30.3951  -11.4989   19.9433 H   0  0  0  0  0  0
  -29.7896  -11.7266   17.5080 H   0  0  0  0  0  0
  -29.6006  -13.4516   17.7021 H   0  0  0  0  0  0
  -27.9052  -11.2473   18.9195 H   0  0  0  0  0  0
  -27.3616  -12.4726   17.8034 H   0  0  0  0  0  0
  -27.6079  -14.1926   19.4230 H   0  0  0  0  0  0
  -28.7638  -12.1306   21.3719 H   0  0  0  0  0  0
  -28.4341  -13.7609   21.8271 H   0  0  0  0  0  0
  -25.2731   -9.5641   22.4786 H   0  0  0  0  0  0
  -23.9982   -7.4583   22.7471 H   0  0  0  0  0  0
  -21.0821   -8.8740   19.8953 H   0  0  0  0  0  0
  -22.3671  -10.9650   19.6188 H   0  0  0  0  0  0
  -21.1983   -7.6132   23.9702 H   0  0  0  0  0  0
  -21.1491   -6.0522   25.9081 H   0  0  0  0  0  0
  -22.0602   -2.7599   23.2856 H   0  0  0  0  0  0
  -22.4032  -11.9862   22.4830 H   0  0  0  0  0  0
  -21.1064  -13.1260   22.2635 H   0  0  0  0  0  0
  -24.6485  -15.8322   20.5195 H   0  0  0  0  0  0
  -26.2681  -15.6227   20.0883 H   0  0  0  0  0  0
  -26.7192  -32.5415   23.1081 H   0  0  0  0  0  0
  -25.0077  -33.9704   25.0412 H   0  0  0  0  0  0
  -22.7194  -31.3024   21.3990 H   0  0  0  0  0  0
  -23.3754  -35.9613   23.3291 H   0  0  0  0  0  0
  -24.3584  -36.8914   22.2056 H   0  0  0  0  0  0
  -23.7234  -37.6483   23.6665 H   0  0  0  0  0  0
  -26.1039  -31.5417   20.6064 H   0  0  0  0  0  0
  -26.8463  -30.8257   22.0057 H   0  0  0  0  0  0
  -28.1139  -28.9529   21.1907 H   0  0  0  0  0  0
  -25.9145  -25.8944   19.0518 H   0  0  0  0  0  0
  -23.9612  -27.2969   19.0313 H   0  0  0  0  0  0
  -23.7599  -30.5909   19.4018 H   0  0  0  0  0  0
  -22.7577  -29.2461   19.8558 H   0  0  0  0  0  0
  -25.1292  -36.1921   25.0821 H   0  0  0  0  0  0
  -20.9990  -28.3272   24.1393 H   0  0  0  0  0  0
  -20.5649  -26.2302   23.3615 H   0  0  0  0  0  0
  -21.6644  -26.7425   22.1223 H   0  0  0  0  0  0
  -19.6910  -25.6293   21.1242 H   0  0  0  0  0  0
  -19.6700  -27.3189   20.6730 H   0  0  0  0  0  0
  -17.4203  -26.6691   21.4012 H   0  0  0  0  0  0
  -18.0328  -26.0079   22.9009 H   0  0  0  0  0  0
  -19.7939  -30.7274   24.2272 H   0  0  0  0  0  0
  -17.5016  -31.6267   24.5163 H   0  0  0  0  0  0
  -15.5354  -30.2985   23.7657 H   0  0  0  0  0  0
  -15.8675  -28.0818   22.7071 H   0  0  0  0  0  0
  -24.5915  -30.7063   25.7793 H   0  0  0  0  0  0
  -24.8896  -32.2903   26.4846 H   0  0  0  0  0  0
  -25.8054  -30.8953   27.0243 H   0  0  0  0  0  0
  -26.2906  -29.6759   24.1215 H   0  0  0  0  0  0
  -27.4003  -29.7258   25.4714 H   0  0  0  0  0  0
  -27.8790  -30.4271   23.9437 H   0  0  0  0  0  0
  -27.2684  -33.3624   26.2062 H   0  0  0  0  0  0
  -28.3875  -32.6868   25.0316 H   0  0  0  0  0  0
  -28.0727  -31.8443   26.5409 H   0  0  0  0  0  0
  -28.2592  -38.0099   24.7517 H   0  0  0  0  0  0
  -28.1088  -36.2631   24.6265 H   0  0  0  0  0  0
  -27.2309  -37.1424   25.8865 H   0  0  0  0  0  0
  -20.9368  -29.8774   21.6883 H   0  0  0  0  0  0
  -26.0167  -38.2846   24.1421 H   0  0  0  0  0  0
  -30.6732  -22.2068   22.1402 H   0  0  0  0  0  0
  -28.4601  -17.9945   22.0720 H   0  0  0  0  0  0
  -27.4876  -18.2554   20.6301 H   0  0  0  0  0  0
  -28.1401  -16.1691   19.7031 H   0  0  0  0  0  0
  -28.0195  -15.7665   21.4303 H   0  0  0  0  0  0
  -31.2371  -17.4641   21.4699 H   0  0  0  0  0  0
  -31.4253  -17.3432   19.7326 H   0  0  0  0  0  0
  -29.4423  -18.6262   19.2734 H   0  0  0  0  0  0
  -27.7376  -25.1159   18.5957 H   0  0  0  0  0  0
  -29.3968  -25.3940   18.7816 H   0  0  0  0  0  0
  -30.6617  -19.8214   21.6835 H   0  0  0  0  0  0
  1 25  1  0  0  0
  1 30  2  0  0  0
  1 82  1  0  0  0
  2  3  1  0  0  0
  2 25  1  0  0  0
  2 84  1  0  0  0
  2 85  1  0  0  0
  3  4  1  0  0  0
  3 86  1  0  0  0
  3 87  1  0  0  0
  4  5  1  0  0  0
  4 88  1  0  0  0
  4 89  1  0  0  0
  5  6  1  0  0  0
  5 26  1  0  0  0
  5 90  1  0  0  0
  6 25  1  0  0  0
  6 91  1  0  0  0
  6 92  1  0  0  0
  7  8  2  0  0  0
  7 26  1  0  0  0
  7 29  1  0  0  0
  8  9  1  0  0  0
  8 22  1  0  0  0
  9 10  1  0  0  0
  9 27  2  0  0  0
 10 11  2  0  0  0
 10 15  1  0  0  0
 11 12  1  0  0  0
 11 93  1  0  0  0
 12 13  2  0  0  0
 12 94  1  0  0  0
 13 14  1  0  0  0
 13 31  1  0  0  0
 14 15  2  0  0  0
 14 95  1  0  0  0
 15 96  1  0  0  0
 16 17  2  0  0  0
 16 21  1  0  0  0
 16 31  1  0  0  0
 17 18  1  0  0  0
 17 97  1  0  0  0
 18 19  2  0  0  0
 18 98  1  0  0  0
 19 20  1  0  0  0
 19 24  1  0  0  0
 20 21  2  0  0  0
 20 99  1  0  0  0
 21 23  1  0  0  0
 22 28  1  0  0  0
 22 32  2  0  0  0
 26 27  1  0  0  0
 28100  1  0  0  0
 28101  1  0  0  0
 29102  1  0  0  0
 29103  1  0  0  0
 33 34  1  0  0  0
 33 66  1  0  0  0
 33 70  2  0  0  0
 34 36  1  0  0  0
 34 59  1  0  0  0
 34104  1  0  0  0
 35 44  2  0  0  0
 35 45  1  0  0  0
 35 68  1  0  0  0
 36 56  1  0  0  0
 36105  1  0  0  0
 37 39  1  0  0  0
 37 47  1  0  0  0
 37 66  1  0  0  0
 37106  1  0  0  0
 38 43  2  0  0  0
 38 46  1  0  0  0
 38 47  1  0  0  0
 39 64  1  0  0  0
 39 67  2  0  0  0
 40 52  1  0  0  0
 40 53  2  0  0  0
 40 58  1  0  0  0
 41107  1  0  0  0
 41108  1  0  0  0
 41109  1  0  0  0
 41 48  1  0  0  0
 42 43  1  0  0  0
 42 66  1  0  0  0
 42110  1  0  0  0
 42111  1  0  0  0
 43 44  1  0  0  0
 44112  1  0  0  0
 45 46  2  0  0  0
 45113  1  0  0  0
 46114  1  0  0  0
 47115  1  0  0  0
 47116  1  0  0  0
 48 56  1  0  0  0
 48 65  1  0  0  0
 48117  1  0  0  0
 49 50  1  0  0  0
 49 53  1  0  0  0
 49 64  1  0  0  0
 49118  1  0  0  0
 50 51  1  0  0  0
 50119  1  0  0  0
 50120  1  0  0  0
 51 52  1  0  0  0
 51121  1  0  0  0
 51122  1  0  0  0
 52123  1  0  0  0
 52124  1  0  0  0
 53 54  1  0  0  0
 54 55  2  0  0  0
 54125  1  0  0  0
 55 57  1  0  0  0
 55126  1  0  0  0
 56 69  2  0  0  0
 57 58  2  0  0  0
 57127  1  0  0  0
 58128  1  0  0  0
 59 60  1  0  0  0
 59 61  1  0  0  0
 59 62  1  0  0  0
 60129  1  0  0  0
 60130  1  0  0  0
 60131  1  0  0  0
 61132  1  0  0  0
 61133  1  0  0  0
 61134  1  0  0  0
 62135  1  0  0  0
 62136  1  0  0  0
 62137  1  0  0  0
 63 65  1  0  0  0
 63138  1  0  0  0
 63139  1  0  0  0
 63140  1  0  0  0
 64141  1  0  0  0
 65142  1  0  0  0
 68 78  1  0  0  0
 71 72  2  0  0  0
 71 79  1  0  0  0
 71143  1  0  0  0
 72 80  1  0  0  0
 72 83  1  0  0  0
 73 78  1  0  0  0
 73 79  2  0  0  0
 73 81  1  0  0  0
 74 75  1  0  0  0
 74 77  1  0  0  0
 74144  1  0  0  0
 74145  1  0  0  0
 75 82  1  0  0  0
 75146  1  0  0  0
 75147  1  0  0  0
 76 77  1  0  0  0
 76 82  1  0  0  0
 76148  1  0  0  0
 76149  1  0  0  0
 77 83  1  0  0  0
 77150  1  0  0  0
 78151  1  0  0  0
 78152  1  0  0  0
 80 81  2  0  0  0
 83153  1  0  0  0
M  ISO  4   1 100  68 101  78 101  82 100
M  END
> <chiral flag>
0

> <version>
0

> <s_m_source_file>
/data/baiqing/PycharmProjects/Reinvent-master-3.2/result/LINK_invent/BTK/process_docking_weight1_custom_sum_contain_oxygen_bond_distance_aromatic_linkinvent_7_9_3/rearranged_h_0185.sdf

> <i_m_source_file_index>
62

> <r_mmod_Potential_Energy-OPLS-2005>
316.693115234375

> <r_mmod_Stretch_Energy-OPLS-2005>
103.904197692871

> <r_mmod_Bend_Energy-OPLS-2005>
235.061431884766

> <r_mmod_Torsional_Energy-OPLS-2005>
292.157501220703

> <r_mmod_Improper_Torsional_Energy-OPLS-2005>
6.24986886978149

> <r_mmod_Van_der_Waal_Energy-OPLS-2005>
150.605819702148

> <r_mmod_Electrostatic_Energy-OPLS-2005>
-303.874359130859

> <r_mmod_Solvation_Energy-OPLS-2005>
-245.606246948242

> <b_mmod_Minimization_Converged-OPLS-2005>
0

> <r_mmod_RMS_Derivative-OPLS-2005>
0.703112363815308

$$$$
62
                    3D
 Structure written by MMmdl.
150159  0  0  1  0            999 V2000
  -30.5355  -14.9949   20.3739 C   0  0  0  0  0  0
  -30.4400  -12.6142   19.4998 C   0  0  0  0  0  0
  -29.5235  -12.5305   18.2566 C   0  0  0  0  0  0
  -28.0559  -12.3162   18.6753 C   0  0  0  0  0  0
  -27.6259  -13.2555   19.8318 C   0  0  2  0  0  0
  -28.6712  -13.3132   20.9661 C   0  0  0  0  0  0
  -25.2435  -13.8220   20.5700 C   0  0  0  0  0  0
  -24.1764  -13.0445   20.9261 C   0  0  0  0  0  0
  -24.6396  -11.6940   20.8770 C   0  0  0  0  0  0
  -23.9087  -10.4300   21.0426 C   0  0  0  0  0  0
  -24.3630   -9.4200   21.9194 C   0  0  0  0  0  0
  -23.6309   -8.2232   22.0750 C   0  0  0  0  0  0
  -22.4291   -8.0277   21.3538 C   0  0  0  0  0  0
  -21.9931   -9.0265   20.4651 C   0  0  0  0  0  0
  -22.7264  -10.2140   20.3070 C   0  0  0  0  0  0
  -21.6853   -6.0736   22.5271 C   0  0  0  0  0  0
  -21.4034   -6.5642   23.8211 C   0  0  0  0  0  0
  -21.3661   -5.6782   24.9165 C   0  0  0  0  0  0
  -21.6051   -4.3053   24.7213 C   0  0  0  0  0  0
  -21.8819   -3.8144   23.4338 C   0  0  0  0  0  0
  -21.9189   -4.6964   22.3392 C   0  0  0  0  0  0
  -22.7772  -13.5212   21.1908 C   0  0  0  0  0  0
  -22.1651   -4.2156   21.0971 F   0  0  0  0  0  0
  -21.5621   -3.4526   25.7715 F   0  0  0  0  0  0
  -29.9415  -13.7295   20.3549 N   0  0  0  0  0  0
  -26.2870  -12.9476   20.3212 N   0  0  0  0  0  0
  -25.9328  -11.6602   20.5734 N   0  0  0  0  0  0
  -22.0416  -12.8188   22.0448 N   0  0  0  0  0  0
  -25.4093  -15.1941   20.4041 N   0  0  0  0  0  0
  -31.7483  -15.0402   20.1350 O   0  0  0  0  0  0
  -21.6651   -6.8876   21.4227 O   0  0  0  0  0  0
  -22.3453  -14.5511   20.6744 O   0  0  0  0  0  0
  -24.6481  -31.8385   23.1847 C   0  0  0  0  0  0
  -25.9235  -32.4659   23.8250 C   0  0  1  0  0  0
  -27.2209  -27.0958   20.1477 C   0  0  0  0  0  0
  -25.5981  -33.8469   24.2176 N   0  0  0  0  0  0
  -23.4548  -30.4553   21.5305 C   0  0  2  0  0  0
  -24.9075  -28.8803   20.1055 C   0  0  0  0  0  0
  -22.7602  -29.4489   22.4840 C   0  0  0  0  0  0
  -18.0307  -28.1393   22.8461 C   0  0  0  0  0  0
  -24.1507  -36.7248   23.2637 C   0  0  0  0  0  0
  -26.0131  -30.6987   21.3902 C   0  0  0  0  0  0
  -26.0852  -29.3062   20.7326 C   0  0  0  0  0  0
  -27.2417  -28.4315   20.7343 C   0  0  0  0  0  0
  -26.0123  -26.7832   19.4841 C   0  0  0  0  0  0
  -24.8887  -27.6371   19.4584 C   0  0  0  0  0  0
  -23.6849  -29.7836   20.1499 C   0  0  0  0  0  0
  -25.4130  -36.3003   24.0306 C   0  0  1  0  0  0
  -20.5923  -28.3713   23.1229 C   0  0  2  0  0  0
  -20.6800  -26.9420   22.5392 C   0  0  0  0  0  0
  -19.5772  -26.6378   21.5203 C   0  0  0  0  0  0
  -18.1955  -26.7926   22.1620 C   0  0  0  0  0  0
  -19.1566  -28.8876   23.2835 C   0  0  0  0  0  0
  -18.9473  -30.1473   23.8855 C   0  0  0  0  0  0
  -17.6468  -30.6588   24.0547 C   0  0  0  0  0  0
  -25.9073  -34.9379   23.5045 C   0  0  0  0  0  0
  -16.5360  -29.9071   23.6334 C   0  0  0  0  0  0
  -16.7290  -28.6498   23.0339 C   0  0  0  0  0  0
  -26.4555  -31.6529   25.0700 C   0  0  0  0  0  0
  -25.3748  -31.3730   26.1402 C   0  0  0  0  0  0
  -27.0411  -30.2916   24.6293 C   0  0  0  0  0  0
  -27.6083  -32.4293   25.7490 C   0  0  0  0  0  0
  -27.5568  -37.1786   24.8461 C   0  0  0  0  0  0
  -21.4281  -29.3035   22.3607 N   0  0  0  0  0  0
  -26.4288  -37.3720   23.9393 N   0  0  0  0  0  0
  -24.7256  -31.0191   22.0911 N   0  0  0  0  0  0
  -23.4223  -28.8033   23.3012 O   0  0  0  0  0  0
  -28.2627  -26.0848   20.2042 O   0  0  0  0  0  0
  -26.5639  -34.8877   22.4612 O   0  0  0  0  0  0
  -23.5585  -32.1283   23.7030 O   0  0  0  0  0  0
  -31.3170  -22.4963   20.1756 C   0  0  0  0  0  0
  -30.9163  -21.1422   20.2080 C   0  0  0  0  0  0
  -30.3711  -23.5429   20.1640 C   0  0  0  0  0  0
  -29.5575  -20.7801   20.2419 C   0  0  0  0  0  0
  -28.9935  -23.2654   20.1703 C   0  0  0  0  0  0
  -29.2411  -18.3428   19.0545 C   0  0  0  0  0  0
  -29.1906  -19.1520   20.3187 C   0  0  1  0  0  0
  -30.0789  -17.7099   20.1569 C   0  0  1  0  0  0
  -27.9394  -24.5483   20.0627 C   0  0  0  0  0  0
  -28.6292  -21.8738   20.2047 N   0  0  0  0  0  0
  -29.7522  -16.1914   20.4167 N   0  0  0  0  0  0
  -31.4734  -12.7713   19.1889 H   0  0  0  0  0  0
  -30.4346  -11.6745   20.0555 H   0  0  0  0  0  0
  -29.8511  -11.7228   17.6014 H   0  0  0  0  0  0
  -29.6084  -13.4484   17.6735 H   0  0  0  0  0  0
  -27.9542  -11.2771   18.9888 H   0  0  0  0  0  0
  -27.3931  -12.4405   17.8190 H   0  0  0  0  0  0
  -27.5801  -14.2522   19.3918 H   0  0  0  0  0  0
  -28.7657  -12.3486   21.4670 H   0  0  0  0  0  0
  -28.3678  -14.0299   21.7309 H   0  0  0  0  0  0
  -25.2764   -9.5672   22.4785 H   0  0  0  0  0  0
  -24.0019   -7.4612   22.7464 H   0  0  0  0  0  0
  -21.0859   -8.8796   19.8959 H   0  0  0  0  0  0
  -22.3724  -10.9688   19.6189 H   0  0  0  0  0  0
  -21.2062   -7.6157   23.9717 H   0  0  0  0  0  0
  -21.1478   -6.0514   25.9062 H   0  0  0  0  0  0
  -22.0608   -2.7614   23.2822 H   0  0  0  0  0  0
  -22.4035  -11.9862   22.4867 H   0  0  0  0  0  0
  -21.1037  -13.1222   22.2673 H   0  0  0  0  0  0
  -24.6442  -15.8499   20.5207 H   0  0  0  0  0  0
  -26.2293  -15.6150   19.9889 H   0  0  0  0  0  0
  -26.7294  -32.5265   23.0961 H   0  0  0  0  0  0
  -25.0177  -33.9597   25.0358 H   0  0  0  0  0  0
  -22.7580  -31.2815   21.3729 H   0  0  0  0  0  0
  -23.3750  -35.9602   23.3293 H   0  0  0  0  0  0
  -24.3595  -36.8890   22.2054 H   0  0  0  0  0  0
  -23.7297  -37.6455   23.6684 H   0  0  0  0  0  0
  -26.1650  -31.4487   20.6128 H   0  0  0  0  0  0
  -26.8850  -30.7577   22.0302 H   0  0  0  0  0  0
  -28.1368  -28.7511   21.2482 H   0  0  0  0  0  0
  -25.8931  -25.8340   18.9870 H   0  0  0  0  0  0
  -23.9972  -27.3162   18.9364 H   0  0  0  0  0  0
  -23.8182  -30.5561   19.3917 H   0  0  0  0  0  0
  -22.8031  -29.2190   19.8417 H   0  0  0  0  0  0
  -25.1326  -36.1811   25.0800 H   0  0  0  0  0  0
  -20.9996  -28.3295   24.1359 H   0  0  0  0  0  0
  -20.5709  -26.2320   23.3604 H   0  0  0  0  0  0
  -21.6663  -26.7443   22.1182 H   0  0  0  0  0  0
  -19.6941  -25.6281   21.1260 H   0  0  0  0  0  0
  -19.6717  -27.3167   20.6716 H   0  0  0  0  0  0
  -17.4223  -26.6636   21.4032 H   0  0  0  0  0  0
  -18.0379  -26.0088   22.9044 H   0  0  0  0  0  0
  -19.7948  -30.7304   24.2207 H   0  0  0  0  0  0
  -17.5015  -31.6264   24.5152 H   0  0  0  0  0  0
  -15.5355  -30.2949   23.7692 H   0  0  0  0  0  0
  -15.8692  -28.0809   22.7054 H   0  0  0  0  0  0
  -24.5894  -30.7125   25.7706 H   0  0  0  0  0  0
  -24.8992  -32.2931   26.4810 H   0  0  0  0  0  0
  -25.8039  -30.8882   27.0184 H   0  0  0  0  0  0
  -26.3024  -29.6625   24.1313 H   0  0  0  0  0  0
  -27.4022  -29.7222   25.4865 H   0  0  0  0  0  0
  -27.8941  -30.4121   23.9612 H   0  0  0  0  0  0
  -27.2676  -33.3614   26.2005 H   0  0  0  0  0  0
  -28.3935  -32.6813   25.0351 H   0  0  0  0  0  0
  -28.0706  -31.8457   26.5459 H   0  0  0  0  0  0
  -28.2567  -38.0094   24.7475 H   0  0  0  0  0  0
  -28.1082  -36.2613   24.6329 H   0  0  0  0  0  0
  -27.2282  -37.1478   25.8865 H   0  0  0  0  0  0
  -20.9499  -29.8748   21.6780 H   0  0  0  0  0  0
  -26.0137  -38.2787   24.1375 H   0  0  0  0  0  0
  -32.3725  -22.7337   20.1568 H   0  0  0  0  0  0
  -31.6747  -20.3716   20.2076 H   0  0  0  0  0  0
  -30.7090  -24.5703   20.1304 H   0  0  0  0  0  0
  -29.7923  -18.7713   18.2206 H   0  0  0  0  0  0
  -28.3165  -17.8482   18.7602 H   0  0  0  0  0  0
  -28.2869  -19.0595   20.9158 H   0  0  0  0  0  0
  -31.1507  -17.8993   20.1011 H   0  0  0  0  0  0
  -27.1364  -24.3317   20.7682 H   0  0  0  0  0  0
  -27.5035  -24.4217   19.0732 H   0  0  0  0  0  0
  -28.7720  -16.0111   20.5782 H   0  0  0  0  0  0
  1 25  1  0  0  0
  1 30  2  0  0  0
  1 81  1  0  0  0
  2  3  1  0  0  0
  2 25  1  0  0  0
  2 82  1  0  0  0
  2 83  1  0  0  0
  3  4  1  0  0  0
  3 84  1  0  0  0
  3 85  1  0  0  0
  4  5  1  0  0  0
  4 86  1  0  0  0
  4 87  1  0  0  0
  5  6  1  0  0  0
  5 26  1  0  0  0
  5 88  1  0  0  0
  6 25  1  0  0  0
  6 89  1  0  0  0
  6 90  1  0  0  0
  7  8  2  0  0  0
  7 26  1  0  0  0
  7 29  1  0  0  0
  8  9  1  0  0  0
  8 22  1  0  0  0
  9 10  1  0  0  0
  9 27  2  0  0  0
 10 11  2  0  0  0
 10 15  1  0  0  0
 11 12  1  0  0  0
 11 91  1  0  0  0
 12 13  2  0  0  0
 12 92  1  0  0  0
 13 14  1  0  0  0
 13 31  1  0  0  0
 14 15  2  0  0  0
 14 93  1  0  0  0
 15 94  1  0  0  0
 16 17  2  0  0  0
 16 21  1  0  0  0
 16 31  1  0  0  0
 17 18  1  0  0  0
 17 95  1  0  0  0
 18 19  2  0  0  0
 18 96  1  0  0  0
 19 20  1  0  0  0
 19 24  1  0  0  0
 20 21  2  0  0  0
 20 97  1  0  0  0
 21 23  1  0  0  0
 22 28  1  0  0  0
 22 32  2  0  0  0
 26 27  1  0  0  0
 28 98  1  0  0  0
 28 99  1  0  0  0
 29100  1  0  0  0
 29101  1  0  0  0
 33 34  1  0  0  0
 33 66  1  0  0  0
 33 70  2  0  0  0
 34 36  1  0  0  0
 34 59  1  0  0  0
 34102  1  0  0  0
 35 44  2  0  0  0
 35 45  1  0  0  0
 35 68  1  0  0  0
 36 56  1  0  0  0
 36103  1  0  0  0
 37 39  1  0  0  0
 37 47  1  0  0  0
 37 66  1  0  0  0
 37104  1  0  0  0
 38 43  2  0  0  0
 38 46  1  0  0  0
 38 47  1  0  0  0
 39 64  1  0  0  0
 39 67  2  0  0  0
 40 52  1  0  0  0
 40 53  2  0  0  0
 40 58  1  0  0  0
 41105  1  0  0  0
 41106  1  0  0  0
 41107  1  0  0  0
 41 48  1  0  0  0
 42 43  1  0  0  0
 42 66  1  0  0  0
 42108  1  0  0  0
 42109  1  0  0  0
 43 44  1  0  0  0
 44110  1  0  0  0
 45 46  2  0  0  0
 45111  1  0  0  0
 46112  1  0  0  0
 47113  1  0  0  0
 47114  1  0  0  0
 48 56  1  0  0  0
 48 65  1  0  0  0
 48115  1  0  0  0
 49 50  1  0  0  0
 49 53  1  0  0  0
 49 64  1  0  0  0
 49116  1  0  0  0
 50 51  1  0  0  0
 50117  1  0  0  0
 50118  1  0  0  0
 51 52  1  0  0  0
 51119  1  0  0  0
 51120  1  0  0  0
 52121  1  0  0  0
 52122  1  0  0  0
 53 54  1  0  0  0
 54 55  2  0  0  0
 54123  1  0  0  0
 55 57  1  0  0  0
 55124  1  0  0  0
 56 69  2  0  0  0
 57 58  2  0  0  0
 57125  1  0  0  0
 58126  1  0  0  0
 59 60  1  0  0  0
 59 61  1  0  0  0
 59 62  1  0  0  0
 60127  1  0  0  0
 60128  1  0  0  0
 60129  1  0  0  0
 61130  1  0  0  0
 61131  1  0  0  0
 61132  1  0  0  0
 62133  1  0  0  0
 62134  1  0  0  0
 62135  1  0  0  0
 63 65  1  0  0  0
 63136  1  0  0  0
 63137  1  0  0  0
 63138  1  0  0  0
 64139  1  0  0  0
 65140  1  0  0  0
 68 79  1  0  0  0
 71 72  2  0  0  0
 71 73  1  0  0  0
 71141  1  0  0  0
 72 74  1  0  0  0
 72142  1  0  0  0
 73 75  2  0  0  0
 73143  1  0  0  0
 74 80  2  0  0  0
 74 77  1  0  0  0
 75 79  1  0  0  0
 75 80  1  0  0  0
 76 77  1  0  0  0
 76 78  1  0  0  0
 76144  1  0  0  0
 76145  1  0  0  0
 77 78  1  0  0  0
 77146  1  0  0  0
 78 81  1  0  0  0
 78147  1  0  0  0
 79148  1  0  0  0
 79149  1  0  0  0
 81150  1  0  0  0
M  ISO  4   1 100  68 101  79 101  81 100
M  END
> <chiral flag>
0

> <version>
0

> <s_m_source_file>
/data/baiqing/PycharmProjects/Reinvent-master-3.2/result/LINK_invent/BTK/process_docking_weight1_custom_sum_contain_oxygen_bond_distance_aromatic_linkinvent_7_9_3/rearranged_h_0185.sdf

> <i_m_source_file_index>
63

> <r_mmod_Potential_Energy-OPLS-2005>
492.235137939453

> <r_mmod_Stretch_Energy-OPLS-2005>
308.283508300781

> <r_mmod_Bend_Energy-OPLS-2005>
254.165115356445

> <r_mmod_Torsional_Energy-OPLS-2005>
259.151641845703

> <r_mmod_Improper_Torsional_Energy-OPLS-2005>
5.67354440689087

> <r_mmod_Van_der_Waal_Energy-OPLS-2005>
127.737274169922

> <r_mmod_Electrostatic_Energy-OPLS-2005>
-461.479888916016

> <r_mmod_Solvation_Energy-OPLS-2005>
-230.717239379883

> <b_mmod_Minimization_Converged-OPLS-2005>
0

> <r_mmod_RMS_Derivative-OPLS-2005>
2.47404026985168

$$$$
63
                    3D
 Structure written by MMmdl.
160169  0  0  1  0            999 V2000
  -30.7044  -14.5172   20.5424 C   0  0  0  0  0  0
  -30.4273  -12.3396   19.4104 C   0  0  0  0  0  0
  -29.4972  -12.5019   18.1900 C   0  0  0  0  0  0
  -28.0136  -12.3742   18.5989 C   0  0  0  0  0  0
  -27.6567  -13.2065   19.8587 C   0  0  2  0  0  0
  -28.7040  -13.0200   20.9762 C   0  0  0  0  0  0
  -25.2601  -13.8122   20.5635 C   0  0  0  0  0  0
  -24.1883  -13.0441   20.9251 C   0  0  0  0  0  0
  -24.6445  -11.6880   20.8832 C   0  0  0  0  0  0
  -23.9090  -10.4289   21.0442 C   0  0  0  0  0  0
  -24.3656   -9.4212   21.9204 C   0  0  0  0  0  0
  -23.6333   -8.2252   22.0767 C   0  0  0  0  0  0
  -22.4315   -8.0279   21.3580 C   0  0  0  0  0  0
  -21.9965   -9.0237   20.4669 C   0  0  0  0  0  0
  -22.7266  -10.2121   20.3058 C   0  0  0  0  0  0
  -21.6855   -6.0735   22.5310 C   0  0  0  0  0  0
  -21.3997   -6.5625   23.8237 C   0  0  0  0  0  0
  -21.3668   -5.6781   24.9212 C   0  0  0  0  0  0
  -21.6062   -4.3044   24.7237 C   0  0  0  0  0  0
  -21.8812   -3.8135   23.4344 C   0  0  0  0  0  0
  -21.9186   -4.6968   22.3417 C   0  0  0  0  0  0
  -22.7882  -13.5237   21.1824 C   0  0  0  0  0  0
  -22.1629   -4.2162   21.0989 F   0  0  0  0  0  0
  -21.5635   -3.4496   25.7730 F   0  0  0  0  0  0
  -30.0238  -13.3396   20.4134 N   0  0  0  0  0  0
  -26.3038  -12.9275   20.3319 N   0  0  0  0  0  0
  -25.9380  -11.6448   20.5827 N   0  0  0  0  0  0
  -22.0427  -12.8321   22.0376 N   0  0  0  0  0  0
  -25.4330  -15.1825   20.3824 N   0  0  0  0  0  0
  -31.8409  -14.6632   20.0788 O   0  0  0  0  0  0
  -21.6645   -6.8890   21.4295 O   0  0  0  0  0  0
  -22.3631  -14.5512   20.6584 O   0  0  0  0  0  0
  -24.6233  -31.8666   23.2030 C   0  0  0  0  0  0
  -25.9087  -32.4807   23.8372 C   0  0  1  0  0  0
  -27.2196  -27.3644   20.0589 C   0  0  0  0  0  0
  -25.5915  -33.8623   24.2320 N   0  0  0  0  0  0
  -23.4107  -30.4877   21.5520 C   0  0  2  0  0  0
  -24.8442  -28.9434   20.1087 C   0  0  0  0  0  0
  -22.7470  -29.4628   22.5023 C   0  0  0  0  0  0
  -18.0303  -28.1367   22.8523 C   0  0  0  0  0  0
  -24.1475  -36.7280   23.2662 C   0  0  0  0  0  0
  -25.9486  -30.8027   21.3635 C   0  0  0  0  0  0
  -26.0120  -29.4318   20.7034 C   0  0  0  0  0  0
  -27.1975  -28.6533   20.6682 C   0  0  0  0  0  0
  -26.0232  -26.9027   19.4647 C   0  0  0  0  0  0
  -24.8469  -27.6823   19.4890 C   0  0  0  0  0  0
  -23.6133  -29.8250   20.1648 C   0  0  0  0  0  0
  -25.4102  -36.3114   24.0373 C   0  0  1  0  0  0
  -20.5904  -28.3647   23.1337 C   0  0  2  0  0  0
  -20.6781  -26.9380   22.5440 C   0  0  0  0  0  0
  -19.5745  -26.6371   21.5256 C   0  0  0  0  0  0
  -18.1929  -26.7928   22.1656 C   0  0  0  0  0  0
  -19.1551  -28.8837   23.2935 C   0  0  0  0  0  0
  -18.9469  -30.1446   23.8928 C   0  0  0  0  0  0
  -17.6450  -30.6571   24.0559 C   0  0  0  0  0  0
  -25.9051  -34.9481   23.5151 C   0  0  0  0  0  0
  -16.5351  -29.9077   23.6306 C   0  0  0  0  0  0
  -16.7293  -28.6494   23.0351 C   0  0  0  0  0  0
  -26.4497  -31.6593   25.0722 C   0  0  0  0  0  0
  -25.3756  -31.3687   26.1464 C   0  0  0  0  0  0
  -27.0336  -30.3036   24.6101 C   0  0  0  0  0  0
  -27.6077  -32.4337   25.7445 C   0  0  0  0  0  0
  -27.5579  -37.1791   24.8489 C   0  0  0  0  0  0
  -21.4183  -29.3003   22.3743 N   0  0  0  0  0  0
  -26.4286  -37.3787   23.9442 N   0  0  0  0  0  0
  -24.6812  -31.0716   22.0937 N   0  0  0  0  0  0
  -23.4231  -28.8210   23.3088 O   0  0  0  0  0  0
  -28.4001  -26.6178   20.0660 O   0  0  0  0  0  0
  -26.5624  -34.8936   22.4722 O   0  0  0  0  0  0
  -23.5400  -32.1463   23.7355 O   0  0  0  0  0  0
  -29.4239  -24.1034   17.9261 C   0  0  0  0  0  0
  -28.6212  -23.1339   19.7572 C   0  0  0  0  0  0
  -28.4828  -25.3690   19.5048 C   0  0  0  0  0  0
  -30.7240  -17.0367   22.2932 C   0  0  0  0  0  0
  -29.8219  -15.8167   22.4185 C   0  0  0  0  0  0
  -30.4015  -17.0372   20.8040 C   0  0  2  0  0  0
  -30.1831  -23.9626   16.6232 C   0  0  0  0  0  0
  -28.4768  -21.8426   20.5894 C   0  0  0  0  0  0
  -29.3129  -18.0073   20.2208 C   0  0  0  0  0  0
  -29.4805  -19.5069   20.6941 C   0  0  0  0  0  0
  -29.2276  -22.9688   18.5844 N   0  0  0  0  0  0
  -29.0860  -25.3300   18.3202 N   0  0  0  0  0  0
  -28.2228  -24.3073   20.2817 N   0  0  0  0  0  0
  -29.9990  -15.5986   20.9782 N   0  0  0  0  0  0
  -28.8555  -20.5903   19.8586 N   0  3  0  0  0  0
  -31.4632  -12.4625   19.0932 H   0  0  0  0  0  0
  -30.3555  -11.3331   19.8277 H   0  0  0  0  0  0
  -29.7439  -11.7631   17.4247 H   0  0  0  0  0  0
  -29.6724  -13.4756   17.7272 H   0  0  0  0  0  0
  -27.8069  -11.3170   18.7736 H   0  0  0  0  0  0
  -27.3766  -12.6649   17.7622 H   0  0  0  0  0  0
  -27.6862  -14.2546   19.5657 H   0  0  0  0  0  0
  -28.6978  -11.9925   21.3361 H   0  0  0  0  0  0
  -28.4531  -13.6347   21.8410 H   0  0  0  0  0  0
  -25.2791   -9.5664   22.4790 H   0  0  0  0  0  0
  -24.0038   -7.4664   22.7518 H   0  0  0  0  0  0
  -21.0857   -8.8719   19.9020 H   0  0  0  0  0  0
  -22.3696  -10.9651   19.6159 H   0  0  0  0  0  0
  -21.1935   -7.6142   23.9705 H   0  0  0  0  0  0
  -21.1560   -6.0541   25.9114 H   0  0  0  0  0  0
  -22.0624   -2.7599   23.2859 H   0  0  0  0  0  0
  -22.3880  -11.9991   22.4921 H   0  0  0  0  0  0
  -21.1073  -13.1487   22.2435 H   0  0  0  0  0  0
  -24.6362  -15.8074   20.3469 H   0  0  0  0  0  0
  -26.2539  -15.5655   19.9310 H   0  0  0  0  0  0
  -26.7155  -32.5446   23.1114 H   0  0  0  0  0  0
  -25.0041  -33.9781   25.0448 H   0  0  0  0  0  0
  -22.7025  -31.3078   21.4197 H   0  0  0  0  0  0
  -23.3757  -35.9579   23.3326 H   0  0  0  0  0  0
  -24.3565  -36.8886   22.2069 H   0  0  0  0  0  0
  -23.7176  -37.6483   23.6648 H   0  0  0  0  0  0
  -26.0861  -31.5694   20.5987 H   0  0  0  0  0  0
  -26.8290  -30.8428   21.9918 H   0  0  0  0  0  0
  -28.1033  -29.0427   21.1078 H   0  0  0  0  0  0
  -25.9725  -25.9427   18.9715 H   0  0  0  0  0  0
  -23.9455  -27.3083   19.0252 H   0  0  0  0  0  0
  -23.7231  -30.6097   19.4160 H   0  0  0  0  0  0
  -22.7286  -29.2613   19.8648 H   0  0  0  0  0  0
  -25.1251  -36.1996   25.0859 H   0  0  0  0  0  0
  -21.0019  -28.3203   24.1450 H   0  0  0  0  0  0
  -20.5697  -26.2274   23.3647 H   0  0  0  0  0  0
  -21.6641  -26.7389   22.1209 H   0  0  0  0  0  0
  -19.6884  -25.6290   21.1290 H   0  0  0  0  0  0
  -19.6686  -27.3194   20.6800 H   0  0  0  0  0  0
  -17.4214  -26.6747   21.4034 H   0  0  0  0  0  0
  -18.0234  -26.0055   22.9020 H   0  0  0  0  0  0
  -19.7932  -30.7273   24.2307 H   0  0  0  0  0  0
  -17.4990  -31.6253   24.5146 H   0  0  0  0  0  0
  -15.5346  -30.2960   23.7593 H   0  0  0  0  0  0
  -15.8711  -28.0790   22.7036 H   0  0  0  0  0  0
  -24.5891  -30.7099   25.7762 H   0  0  0  0  0  0
  -24.8995  -32.2843   26.4982 H   0  0  0  0  0  0
  -25.8093  -30.8777   27.0186 H   0  0  0  0  0  0
  -26.2861  -29.6774   24.1214 H   0  0  0  0  0  0
  -27.4204  -29.7284   25.4526 H   0  0  0  0  0  0
  -27.8654  -30.4387   23.9181 H   0  0  0  0  0  0
  -27.2711  -33.3651   26.1993 H   0  0  0  0  0  0
  -28.3830  -32.6901   25.0216 H   0  0  0  0  0  0
  -28.0801  -31.8517   26.5363 H   0  0  0  0  0  0
  -28.2614  -38.0074   24.7520 H   0  0  0  0  0  0
  -28.1075  -36.2619   24.6313 H   0  0  0  0  0  0
  -27.2332  -37.1417   25.8908 H   0  0  0  0  0  0
  -20.9368  -29.8760   21.6970 H   0  0  0  0  0  0
  -26.0206  -38.2886   24.1407 H   0  0  0  0  0  0
  -31.7738  -16.8100   22.4805 H   0  0  0  0  0  0
  -30.3985  -17.9191   22.8449 H   0  0  0  0  0  0
  -28.7976  -16.0610   22.7043 H   0  0  0  0  0  0
  -30.2344  -15.0348   23.0574 H   0  0  0  0  0  0
  -31.3448  -17.1547   20.2667 H   0  0  0  0  0  0
  -31.2078  -23.6537   16.8312 H   0  0  0  0  0  0
  -30.2109  -24.8884   16.0507 H   0  0  0  0  0  0
  -29.7269  -23.1967   15.9974 H   0  0  0  0  0  0
  -27.4506  -21.7555   20.9469 H   0  0  0  0  0  0
  -29.1313  -21.9641   21.4510 H   0  0  0  0  0  0
  -28.3123  -17.6754   20.5006 H   0  0  0  0  0  0
  -29.3425  -17.9528   19.1274 H   0  0  0  0  0  0
  -30.5395  -19.7522   20.7756 H   0  0  0  0  0  0
  -29.0915  -19.5877   21.7100 H   0  0  0  0  0  0
  -29.4965  -20.9372   19.1554 H   0  0  0  0  0  0
  -28.0464  -20.2630   19.3631 H   0  0  0  0  0  0
  1 25  1  0  0  0
  1 30  2  0  0  0
  1 84  1  0  0  0
  2  3  1  0  0  0
  2 25  1  0  0  0
  2 86  1  0  0  0
  2 87  1  0  0  0
  3  4  1  0  0  0
  3 88  1  0  0  0
  3 89  1  0  0  0
  4  5  1  0  0  0
  4 90  1  0  0  0
  4 91  1  0  0  0
  5  6  1  0  0  0
  5 26  1  0  0  0
  5 92  1  0  0  0
  6 25  1  0  0  0
  6 93  1  0  0  0
  6 94  1  0  0  0
  7  8  2  0  0  0
  7 26  1  0  0  0
  7 29  1  0  0  0
  8  9  1  0  0  0
  8 22  1  0  0  0
  9 10  1  0  0  0
  9 27  2  0  0  0
 10 11  2  0  0  0
 10 15  1  0  0  0
 11 12  1  0  0  0
 11 95  1  0  0  0
 12 13  2  0  0  0
 12 96  1  0  0  0
 13 14  1  0  0  0
 13 31  1  0  0  0
 14 15  2  0  0  0
 14 97  1  0  0  0
 15 98  1  0  0  0
 16 17  2  0  0  0
 16 21  1  0  0  0
 16 31  1  0  0  0
 17 18  1  0  0  0
 17 99  1  0  0  0
 18 19  2  0  0  0
 18100  1  0  0  0
 19 20  1  0  0  0
 19 24  1  0  0  0
 20 21  2  0  0  0
 20101  1  0  0  0
 21 23  1  0  0  0
 22 28  1  0  0  0
 22 32  2  0  0  0
 26 27  1  0  0  0
 28102  1  0  0  0
 28103  1  0  0  0
 29104  1  0  0  0
 29105  1  0  0  0
 33 34  1  0  0  0
 33 66  1  0  0  0
 33 70  2  0  0  0
 34 36  1  0  0  0
 34 59  1  0  0  0
 34106  1  0  0  0
 35 44  2  0  0  0
 35 45  1  0  0  0
 35 68  1  0  0  0
 36 56  1  0  0  0
 36107  1  0  0  0
 37 39  1  0  0  0
 37 47  1  0  0  0
 37 66  1  0  0  0
 37108  1  0  0  0
 38 43  2  0  0  0
 38 46  1  0  0  0
 38 47  1  0  0  0
 39 64  1  0  0  0
 39 67  2  0  0  0
 40 52  1  0  0  0
 40 53  2  0  0  0
 40 58  1  0  0  0
 41109  1  0  0  0
 41110  1  0  0  0
 41111  1  0  0  0
 41 48  1  0  0  0
 42 43  1  0  0  0
 42 66  1  0  0  0
 42112  1  0  0  0
 42113  1  0  0  0
 43 44  1  0  0  0
 44114  1  0  0  0
 45 46  2  0  0  0
 45115  1  0  0  0
 46116  1  0  0  0
 47117  1  0  0  0
 47118  1  0  0  0
 48 56  1  0  0  0
 48 65  1  0  0  0
 48119  1  0  0  0
 49 50  1  0  0  0
 49 53  1  0  0  0
 49 64  1  0  0  0
 49120  1  0  0  0
 50 51  1  0  0  0
 50121  1  0  0  0
 50122  1  0  0  0
 51 52  1  0  0  0
 51123  1  0  0  0
 51124  1  0  0  0
 52125  1  0  0  0
 52126  1  0  0  0
 53 54  1  0  0  0
 54 55  2  0  0  0
 54127  1  0  0  0
 55 57  1  0  0  0
 55128  1  0  0  0
 56 69  2  0  0  0
 57 58  2  0  0  0
 57129  1  0  0  0
 58130  1  0  0  0
 59 60  1  0  0  0
 59 61  1  0  0  0
 59 62  1  0  0  0
 60131  1  0  0  0
 60132  1  0  0  0
 60133  1  0  0  0
 61134  1  0  0  0
 61135  1  0  0  0
 61136  1  0  0  0
 62137  1  0  0  0
 62138  1  0  0  0
 62139  1  0  0  0
 63 65  1  0  0  0
 63140  1  0  0  0
 63141  1  0  0  0
 63142  1  0  0  0
 64143  1  0  0  0
 65144  1  0  0  0
 68 73  1  0  0  0
 71 77  1  0  0  0
 71 81  2  0  0  0
 71 82  1  0  0  0
 72 78  1  0  0  0
 72 81  1  0  0  0
 72 83  2  0  0  0
 73 82  2  0  0  0
 73 83  1  0  0  0
 74 75  1  0  0  0
 74 76  1  0  0  0
 74145  1  0  0  0
 74146  1  0  0  0
 75 84  1  0  0  0
 75147  1  0  0  0
 75148  1  0  0  0
 76 79  1  0  0  0
 76 84  1  0  0  0
 76149  1  0  0  0
 77150  1  0  0  0
 77151  1  0  0  0
 77152  1  0  0  0
 78 85  1  0  0  0
 78153  1  0  0  0
 78154  1  0  0  0
 79 80  1  0  0  0
 79155  1  0  0  0
 79156  1  0  0  0
 80 85  1  0  0  0
 80157  1  0  0  0
 80158  1  0  0  0
 85159  1  0  0  0
 85160  1  0  0  0
M  CHG  1  85   1
M  ISO  4   1 100  68 101  73 101  84 100
M  END
> <chiral flag>
0

> <version>
0

> <s_m_source_file>
/data/baiqing/PycharmProjects/Reinvent-master-3.2/result/LINK_invent/BTK/process_docking_weight1_custom_sum_contain_oxygen_bond_distance_aromatic_linkinvent_7_9_3/rearranged_h_0185.sdf

> <i_m_source_file_index>
64

> <r_mmod_Potential_Energy-OPLS-2005>
-817.016662597656

> <r_mmod_Stretch_Energy-OPLS-2005>
55.3813133239746

> <r_mmod_Bend_Energy-OPLS-2005>
126.133079528809

> <r_mmod_Torsional_Energy-OPLS-2005>
305.272766113281

> <r_mmod_Improper_Torsional_Energy-OPLS-2005>
16.3840389251709

> <r_mmod_Van_der_Waal_Energy-OPLS-2005>
171.034942626953

> <r_mmod_Electrostatic_Energy-OPLS-2005>
-1035.7861328125

> <r_mmod_Solvation_Energy-OPLS-2005>
-478.361633300781

> <b_mmod_Minimization_Converged-OPLS-2005>
0

> <r_mmod_RMS_Derivative-OPLS-2005>
7.10673189163208

$$$$
64
                    3D
 Structure written by MMmdl.
158167  0  0  1  0            999 V2000
  -30.5966  -14.6924   20.4658 C   0  0  0  0  0  0
  -30.4355  -12.4176   19.4594 C   0  0  0  0  0  0
  -29.5067  -12.5245   18.2299 C   0  0  0  0  0  0
  -28.0326  -12.3456   18.6423 C   0  0  0  0  0  0
  -27.6494  -13.2215   19.8640 C   0  0  2  0  0  0
  -28.6960  -13.1002   20.9952 C   0  0  0  0  0  0
  -25.2548  -13.8191   20.5704 C   0  0  0  0  0  0
  -24.1814  -13.0429   20.9188 C   0  0  0  0  0  0
  -24.6406  -11.6916   20.8760 C   0  0  0  0  0  0
  -23.9075  -10.4290   21.0427 C   0  0  0  0  0  0
  -24.3622   -9.4207   21.9203 C   0  0  0  0  0  0
  -23.6303   -8.2244   22.0771 C   0  0  0  0  0  0
  -22.4288   -8.0286   21.3551 C   0  0  0  0  0  0
  -21.9929   -9.0258   20.4643 C   0  0  0  0  0  0
  -22.7256  -10.2144   20.3064 C   0  0  0  0  0  0
  -21.6858   -6.0752   22.5288 C   0  0  0  0  0  0
  -21.4013   -6.5654   23.8220 C   0  0  0  0  0  0
  -21.3656   -5.6806   24.9180 C   0  0  0  0  0  0
  -21.6053   -4.3068   24.7230 C   0  0  0  0  0  0
  -21.8815   -3.8156   23.4348 C   0  0  0  0  0  0
  -21.9191   -4.6977   22.3408 C   0  0  0  0  0  0
  -22.7833  -13.5224   21.1831 C   0  0  0  0  0  0
  -22.1657   -4.2169   21.0988 F   0  0  0  0  0  0
  -21.5620   -3.4549   25.7736 F   0  0  0  0  0  0
  -30.0069  -13.4506   20.4263 N   0  0  0  0  0  0
  -26.2969  -12.9372   20.3338 N   0  0  0  0  0  0
  -25.9340  -11.6522   20.5773 N   0  0  0  0  0  0
  -22.0458  -12.8219   22.0383 N   0  0  0  0  0  0
  -25.4260  -15.1920   20.4179 N   0  0  0  0  0  0
  -31.7730  -14.8288   20.1095 O   0  0  0  0  0  0
  -21.6627   -6.8905   21.4257 O   0  0  0  0  0  0
  -22.3541  -14.5535   20.6682 O   0  0  0  0  0  0
  -24.6254  -31.8576   23.1985 C   0  0  0  0  0  0
  -25.9119  -32.4752   23.8318 C   0  0  1  0  0  0
  -27.2171  -27.2938   20.1416 C   0  0  0  0  0  0
  -25.5972  -33.8556   24.2295 N   0  0  0  0  0  0
  -23.4181  -30.4761   21.5435 C   0  0  2  0  0  0
  -24.8648  -28.9213   20.1183 C   0  0  0  0  0  0
  -22.7464  -29.4586   22.4957 C   0  0  0  0  0  0
  -18.0296  -28.1325   22.8482 C   0  0  0  0  0  0
  -24.1527  -36.7290   23.2623 C   0  0  0  0  0  0
  -25.9572  -30.7817   21.3709 C   0  0  0  0  0  0
  -26.0308  -29.4007   20.7283 C   0  0  0  0  0  0
  -27.2105  -28.5973   20.7316 C   0  0  0  0  0  0
  -26.0417  -26.8805   19.4833 C   0  0  0  0  0  0
  -24.8719  -27.6670   19.4859 C   0  0  0  0  0  0
  -23.6316  -29.8010   20.1627 C   0  0  0  0  0  0
  -25.4141  -36.3068   24.0331 C   0  0  1  0  0  0
  -20.5893  -28.3630   23.1297 C   0  0  2  0  0  0
  -20.6792  -26.9359   22.5395 C   0  0  0  0  0  0
  -19.5769  -26.6342   21.5183 C   0  0  0  0  0  0
  -18.1946  -26.7880   22.1591 C   0  0  0  0  0  0
  -19.1541  -28.8801   23.2882 C   0  0  0  0  0  0
  -18.9449  -30.1415   23.8869 C   0  0  0  0  0  0
  -17.6449  -30.6532   24.0536 C   0  0  0  0  0  0
  -25.9069  -34.9432   23.5113 C   0  0  0  0  0  0
  -16.5347  -29.9024   23.6308 C   0  0  0  0  0  0
  -16.7284  -28.6440   23.0338 C   0  0  0  0  0  0
  -26.4504  -31.6508   25.0657 C   0  0  0  0  0  0
  -25.3720  -31.3627   26.1359 C   0  0  0  0  0  0
  -27.0290  -30.2923   24.6038 C   0  0  0  0  0  0
  -27.6061  -32.4180   25.7474 C   0  0  0  0  0  0
  -27.5615  -37.1801   24.8456 C   0  0  0  0  0  0
  -21.4182  -29.2995   22.3697 N   0  0  0  0  0  0
  -26.4321  -37.3759   23.9401 N   0  0  0  0  0  0
  -24.6855  -31.0565   22.0947 N   0  0  0  0  0  0
  -23.4187  -28.8142   23.3045 O   0  0  0  0  0  0
  -28.3536  -26.4733   20.0996 O   0  0  0  0  0  0
  -26.5595  -34.8897   22.4656 O   0  0  0  0  0  0
  -23.5423  -32.1401   23.7313 O   0  0  0  0  0  0
  -28.3417  -19.0502   20.6835 C   0  0  0  0  0  0
  -29.2938  -19.8947   20.0736 C   0  0  0  0  0  0
  -30.4983  -19.1985   19.7531 C   0  0  0  0  0  0
  -29.6972  -17.1419   20.5614 C   0  0  0  0  0  0
  -27.1437  -24.2831   21.0623 C   0  0  0  0  0  0
  -27.6175  -22.8020   21.2244 C   0  0  0  0  0  0
  -29.0866  -23.9510   19.7684 C   0  0  0  0  0  0
  -28.3929  -25.0716   20.6274 C   0  0  1  0  0  0
  -28.9401  -21.3627   19.5519 C   0  0  0  0  0  0
  -31.6528  -19.9044   19.0458 C   0  0  0  0  0  0
  -28.5466  -17.7210   20.9177 N   0  0  0  0  0  0
  -30.6769  -17.8570   19.9983 N   0  0  0  0  0  0
  -29.7564  -15.7411   20.7748 N   0  0  0  0  0  0
  -28.8715  -22.6088   20.4439 N   0  3  2  0  0  0
  -32.7494  -19.1466   18.9751 F   0  0  0  0  0  0
  -31.9599  -21.0411   19.6740 F   0  0  0  0  0  0
  -31.4781  -12.5422   19.1634 H   0  0  0  0  0  0
  -30.3679  -11.4262   19.9105 H   0  0  0  0  0  0
  -29.7784  -11.7883   17.4724 H   0  0  0  0  0  0
  -29.6365  -13.5039   17.7665 H   0  0  0  0  0  0
  -27.8740  -11.2912   18.8749 H   0  0  0  0  0  0
  -27.3802  -12.5716   17.7983 H   0  0  0  0  0  0
  -27.6555  -14.2512   19.5094 H   0  0  0  0  0  0
  -28.7141  -12.0831   21.3893 H   0  0  0  0  0  0
  -28.4398  -13.7395   21.8418 H   0  0  0  0  0  0
  -25.2767   -9.5689   22.4768 H   0  0  0  0  0  0
  -24.0004   -7.4651   22.7499 H   0  0  0  0  0  0
  -21.0865   -8.8798   19.8934 H   0  0  0  0  0  0
  -22.3736  -10.9693   19.6166 H   0  0  0  0  0  0
  -21.2007   -7.6162   23.9732 H   0  0  0  0  0  0
  -21.1475   -6.0534   25.9092 H   0  0  0  0  0  0
  -22.0597   -2.7617   23.2846 H   0  0  0  0  0  0
  -22.4036  -11.9856   22.4743 H   0  0  0  0  0  0
  -21.1077  -13.1265   22.2549 H   0  0  0  0  0  0
  -24.6608  -15.8468   20.5323 H   0  0  0  0  0  0
  -26.2863  -15.6431   20.1325 H   0  0  0  0  0  0
  -26.7171  -32.5428   23.1043 H   0  0  0  0  0  0
  -25.0207  -33.9689   25.0506 H   0  0  0  0  0  0
  -22.7123  -31.2964   21.3972 H   0  0  0  0  0  0
  -23.3789  -35.9615   23.3232 H   0  0  0  0  0  0
  -24.3653  -36.8947   22.2045 H   0  0  0  0  0  0
  -23.7258  -37.6478   23.6668 H   0  0  0  0  0  0
  -26.0823  -31.5360   20.5940 H   0  0  0  0  0  0
  -26.8417  -30.8427   21.9942 H   0  0  0  0  0  0
  -28.1111  -28.9629   21.2065 H   0  0  0  0  0  0
  -26.0234  -25.9439   18.9471 H   0  0  0  0  0  0
  -23.9858  -27.3031   18.9845 H   0  0  0  0  0  0
  -23.7445  -30.5703   19.3981 H   0  0  0  0  0  0
  -22.7525  -29.2226   19.8703 H   0  0  0  0  0  0
  -25.1311  -36.1929   25.0820 H   0  0  0  0  0  0
  -20.9981  -28.3176   24.1419 H   0  0  0  0  0  0
  -20.5687  -26.2222   23.3565 H   0  0  0  0  0  0
  -21.6667  -26.7388   22.1189 H   0  0  0  0  0  0
  -19.6945  -25.6257   21.1195 H   0  0  0  0  0  0
  -19.6717  -27.3162   20.6715 H   0  0  0  0  0  0
  -17.4230  -26.6634   21.3980 H   0  0  0  0  0  0
  -18.0343  -25.9996   22.8957 H   0  0  0  0  0  0
  -19.7925  -30.7238   24.2220 H   0  0  0  0  0  0
  -17.4995  -31.6212   24.5124 H   0  0  0  0  0  0
  -15.5346  -30.2899   23.7629 H   0  0  0  0  0  0
  -15.8701  -28.0736   22.7063 H   0  0  0  0  0  0
  -24.5962  -30.6903   25.7685 H   0  0  0  0  0  0
  -24.8822  -32.2763   26.4717 H   0  0  0  0  0  0
  -25.8043  -30.8861   27.0159 H   0  0  0  0  0  0
  -26.2804  -29.6694   24.1115 H   0  0  0  0  0  0
  -27.4057  -29.7153   25.4491 H   0  0  0  0  0  0
  -27.8675  -30.4199   23.9184 H   0  0  0  0  0  0
  -27.2707  -33.3493   26.2049 H   0  0  0  0  0  0
  -28.3938  -32.6664   25.0353 H   0  0  0  0  0  0
  -28.0638  -31.8241   26.5395 H   0  0  0  0  0  0
  -28.2574  -38.0153   24.7561 H   0  0  0  0  0  0
  -28.1173  -36.2677   24.6229 H   0  0  0  0  0  0
  -27.2330  -37.1385   25.8855 H   0  0  0  0  0  0
  -20.9349  -29.8728   21.6928 H   0  0  0  0  0  0
  -26.0203  -38.2844   24.1361 H   0  0  0  0  0  0
  -27.3625  -19.4267   20.9408 H   0  0  0  0  0  0
  -26.7011  -24.6752   21.9791 H   0  0  0  0  0  0
  -26.3727  -24.3060   20.2962 H   0  0  0  0  0  0
  -26.8364  -22.1095   20.9057 H   0  0  0  0  0  0
  -27.8315  -22.5807   22.2700 H   0  0  0  0  0  0
  -30.1497  -24.1545   19.6342 H   0  0  0  0  0  0
  -28.6268  -23.9360   18.7794 H   0  0  0  0  0  0
  -29.0014  -25.1713   21.5266 H   0  0  0  0  0  0
  -28.0003  -21.2870   19.0030 H   0  0  0  0  0  0
  -29.6588  -21.6010   18.7689 H   0  0  0  0  0  0
  -31.3750  -20.1484   18.0215 H   0  0  0  0  0  0
  -28.8856  -15.3992   21.1422 H   0  0  0  0  0  0
  -29.6146  -22.5302   21.1236 H   0  0  0  0  0  0
  1 25  1  0  0  0
  1 30  2  0  0  0
  1 83  1  0  0  0
  2  3  1  0  0  0
  2 25  1  0  0  0
  2 87  1  0  0  0
  2 88  1  0  0  0
  3  4  1  0  0  0
  3 89  1  0  0  0
  3 90  1  0  0  0
  4  5  1  0  0  0
  4 91  1  0  0  0
  4 92  1  0  0  0
  5  6  1  0  0  0
  5 26  1  0  0  0
  5 93  1  0  0  0
  6 25  1  0  0  0
  6 94  1  0  0  0
  6 95  1  0  0  0
  7  8  2  0  0  0
  7 26  1  0  0  0
  7 29  1  0  0  0
  8  9  1  0  0  0
  8 22  1  0  0  0
  9 10  1  0  0  0
  9 27  2  0  0  0
 10 11  2  0  0  0
 10 15  1  0  0  0
 11 12  1  0  0  0
 11 96  1  0  0  0
 12 13  2  0  0  0
 12 97  1  0  0  0
 13 14  1  0  0  0
 13 31  1  0  0  0
 14 15  2  0  0  0
 14 98  1  0  0  0
 15 99  1  0  0  0
 16 17  2  0  0  0
 16 21  1  0  0  0
 16 31  1  0  0  0
 17 18  1  0  0  0
 17100  1  0  0  0
 18 19  2  0  0  0
 18101  1  0  0  0
 19 20  1  0  0  0
 19 24  1  0  0  0
 20 21  2  0  0  0
 20102  1  0  0  0
 21 23  1  0  0  0
 22 28  1  0  0  0
 22 32  2  0  0  0
 26 27  1  0  0  0
 28103  1  0  0  0
 28104  1  0  0  0
 29105  1  0  0  0
 29106  1  0  0  0
 33 34  1  0  0  0
 33 66  1  0  0  0
 33 70  2  0  0  0
 34 36  1  0  0  0
 34 59  1  0  0  0
 34107  1  0  0  0
 35 44  2  0  0  0
 35 45  1  0  0  0
 35 68  1  0  0  0
 36 56  1  0  0  0
 36108  1  0  0  0
 37 39  1  0  0  0
 37 47  1  0  0  0
 37 66  1  0  0  0
 37109  1  0  0  0
 38 43  2  0  0  0
 38 46  1  0  0  0
 38 47  1  0  0  0
 39 64  1  0  0  0
 39 67  2  0  0  0
 40 52  1  0  0  0
 40 53  2  0  0  0
 40 58  1  0  0  0
 41110  1  0  0  0
 41111  1  0  0  0
 41112  1  0  0  0
 41 48  1  0  0  0
 42 43  1  0  0  0
 42 66  1  0  0  0
 42113  1  0  0  0
 42114  1  0  0  0
 43 44  1  0  0  0
 44115  1  0  0  0
 45 46  2  0  0  0
 45116  1  0  0  0
 46117  1  0  0  0
 47118  1  0  0  0
 47119  1  0  0  0
 48 56  1  0  0  0
 48 65  1  0  0  0
 48120  1  0  0  0
 49 50  1  0  0  0
 49 53  1  0  0  0
 49 64  1  0  0  0
 49121  1  0  0  0
 50 51  1  0  0  0
 50122  1  0  0  0
 50123  1  0  0  0
 51 52  1  0  0  0
 51124  1  0  0  0
 51125  1  0  0  0
 52126  1  0  0  0
 52127  1  0  0  0
 53 54  1  0  0  0
 54 55  2  0  0  0
 54128  1  0  0  0
 55 57  1  0  0  0
 55129  1  0  0  0
 56 69  2  0  0  0
 57 58  2  0  0  0
 57130  1  0  0  0
 58131  1  0  0  0
 59 60  1  0  0  0
 59 61  1  0  0  0
 59 62  1  0  0  0
 60132  1  0  0  0
 60133  1  0  0  0
 60134  1  0  0  0
 61135  1  0  0  0
 61136  1  0  0  0
 61137  1  0  0  0
 62138  1  0  0  0
 62139  1  0  0  0
 62140  1  0  0  0
 63 65  1  0  0  0
 63141  1  0  0  0
 63142  1  0  0  0
 63143  1  0  0  0
 64144  1  0  0  0
 65145  1  0  0  0
 68 78  1  0  0  0
 71 72  2  0  0  0
 71 81  1  0  0  0
 71146  1  0  0  0
 72 73  1  0  0  0
 72 79  1  0  0  0
 73 80  1  0  0  0
 73 82  2  0  0  0
 74 81  2  0  0  0
 74 82  1  0  0  0
 74 83  1  0  0  0
 75 76  1  0  0  0
 75 78  1  0  0  0
 75147  1  0  0  0
 75148  1  0  0  0
 76 84  1  0  0  0
 76149  1  0  0  0
 76150  1  0  0  0
 77 78  1  0  0  0
 77 84  1  0  0  0
 77151  1  0  0  0
 77152  1  0  0  0
 78153  1  0  0  0
 79154  1  0  0  0
 79155  1  0  0  0
 79 84  1  0  0  0
 80 85  1  0  0  0
 80 86  1  0  0  0
 80156  1  0  0  0
 83157  1  0  0  0
 84158  1  0  0  0
M  CHG  1  84   1
M  ISO  4   1 100  68 101  78 101  83 100
M  END
> <chiral flag>
0

> <version>
0

> <s_m_source_file>
/data/baiqing/PycharmProjects/Reinvent-master-3.2/result/LINK_invent/BTK/process_docking_weight1_custom_sum_contain_oxygen_bond_distance_aromatic_linkinvent_7_9_3/rearranged_h_0185.sdf

> <i_m_source_file_index>
65

> <r_mmod_Potential_Energy-OPLS-2005>
-305.527282714844

> <r_mmod_Stretch_Energy-OPLS-2005>
88.8600845336914

> <r_mmod_Bend_Energy-OPLS-2005>
218.391662597656

> <r_mmod_Torsional_Energy-OPLS-2005>
281.302154541016

> <r_mmod_Improper_Torsional_Energy-OPLS-2005>
5.73190212249756

> <r_mmod_Van_der_Waal_Energy-OPLS-2005>
139.94807434082

> <r_mmod_Electrostatic_Energy-OPLS-2005>
-625.643859863281

> <r_mmod_Solvation_Energy-OPLS-2005>
-472.482360839844

> <b_mmod_Minimization_Converged-OPLS-2005>
0

> <r_mmod_RMS_Derivative-OPLS-2005>
2.80317616462708

$$$$
65
                    3D
 Structure written by MMmdl.
153161  0  0  1  0            999 V2000
  -30.3002  -15.7215   20.3248 C   0  0  0  0  0  0
  -30.4084  -13.1497   19.5346 C   0  0  0  0  0  0
  -29.5461  -12.6742   18.3294 C   0  0  0  0  0  0
  -28.1285  -12.3006   18.7817 C   0  0  0  0  0  0
  -27.5885  -13.3191   19.8093 C   0  0  2  0  0  0
  -28.5996  -13.7038   20.9181 C   0  0  0  0  0  0
  -25.2292  -13.8302   20.5826 C   0  0  0  0  0  0
  -24.1696  -13.0434   20.9308 C   0  0  0  0  0  0
  -24.6414  -11.6951   20.8774 C   0  0  0  0  0  0
  -23.9125  -10.4292   21.0399 C   0  0  0  0  0  0
  -24.3658   -9.4205   21.9181 C   0  0  0  0  0  0
  -23.6317   -8.2246   22.0753 C   0  0  0  0  0  0
  -22.4298   -8.0289   21.3544 C   0  0  0  0  0  0
  -21.9946   -9.0265   20.4643 C   0  0  0  0  0  0
  -22.7291  -10.2136   20.3050 C   0  0  0  0  0  0
  -21.6860   -6.0743   22.5279 C   0  0  0  0  0  0
  -21.4018   -6.5644   23.8213 C   0  0  0  0  0  0
  -21.3659   -5.6797   24.9173 C   0  0  0  0  0  0
  -21.6043   -4.3058   24.7224 C   0  0  0  0  0  0
  -21.8819   -3.8152   23.4345 C   0  0  0  0  0  0
  -21.9194   -4.6970   22.3401 C   0  0  0  0  0  0
  -22.7706  -13.5157   21.1932 C   0  0  0  0  0  0
  -22.1662   -4.2155   21.0979 F   0  0  0  0  0  0
  -21.5626   -3.4541   25.7736 F   0  0  0  0  0  0
  -29.7544  -14.3524   20.2455 N   0  0  0  0  0  0
  -26.2749  -12.9656   20.3261 N   0  0  0  0  0  0
  -25.9365  -11.6714   20.5710 N   0  0  0  0  0  0
  -22.0375  -12.8127   22.0480 N   0  0  0  0  0  0
  -25.3874  -15.2042   20.4267 N   0  0  0  0  0  0
  -31.5357  -15.5910   20.1893 O   0  0  0  0  0  0
  -21.6650   -6.8892   21.4243 O   0  0  0  0  0  0
  -22.3379  -14.5454   20.6766 O   0  0  0  0  0  0
  -24.6903  -31.7918   23.1453 C   0  0  0  0  0  0
  -25.9454  -32.4425   23.8027 C   0  0  1  0  0  0
  -27.2265  -26.6322   20.2206 C   0  0  0  0  0  0
  -25.6006  -33.8254   24.1911 N   0  0  0  0  0  0
  -23.5192  -30.3908   21.5005 C   0  0  2  0  0  0
  -24.9768  -28.7164   20.1185 C   0  0  0  0  0  0
  -22.7792  -29.4274   22.4686 C   0  0  0  0  0  0
  -18.0341  -28.1427   22.8453 C   0  0  0  0  0  0
  -24.1493  -36.7128   23.2655 C   0  0  0  0  0  0
  -26.1026  -30.5017   21.4199 C   0  0  0  0  0  0
  -26.1666  -29.0586   20.7712 C   0  0  0  0  0  0
  -27.2724  -28.0463   20.7875 C   0  0  0  0  0  0
  -26.0038  -26.5175   19.5069 C   0  0  0  0  0  0
  -24.9387  -27.4729   19.4624 C   0  0  0  0  0  0
  -23.7769  -29.6809   20.1387 C   0  0  0  0  0  0
  -25.4147  -36.2868   24.0277 C   0  0  1  0  0  0
  -20.5979  -28.3790   23.1130 C   0  0  2  0  0  0
  -20.6799  -26.9443   22.5406 C   0  0  0  0  0  0
  -19.5779  -26.6373   21.5215 C   0  0  0  0  0  0
  -18.1963  -26.7954   22.1618 C   0  0  0  0  0  0
  -19.1609  -28.8934   23.2770 C   0  0  0  0  0  0
  -18.9513  -30.1515   23.8821 C   0  0  0  0  0  0
  -17.6503  -30.6608   24.0550 C   0  0  0  0  0  0
  -25.9133  -34.9262   23.4935 C   0  0  0  0  0  0
  -16.5392  -29.9089   23.6353 C   0  0  0  0  0  0
  -16.7321  -28.6511   23.0372 C   0  0  0  0  0  0
  -26.4610  -31.6490   25.0680 C   0  0  0  0  0  0
  -25.3659  -31.3830   26.1285 C   0  0  0  0  0  0
  -27.0553  -30.2820   24.6633 C   0  0  0  0  0  0
  -27.6045  -32.4365   25.7505 C   0  0  0  0  0  0
  -27.5557  -37.1723   24.8468 C   0  0  0  0  0  0
  -21.4433  -29.3022   22.3437 N   0  0  0  0  0  0
  -26.4265  -37.3638   23.9409 N   0  0  0  0  0  0
  -24.7949  -30.9298   22.0741 N   0  0  0  0  0  0
  -23.4205  -28.7886   23.3061 O   0  0  0  0  0  0
  -28.1847  -25.3867   20.3097 O   0  0  0  0  0  0
  -26.5783  -34.8854   22.4560 O   0  0  0  0  0  0
  -23.5908  -32.1025   23.6367 O   0  0  0  0  0  0
  -28.2007  -17.5891   20.5673 C   0  0  0  0  0  0
  -27.8939  -19.2093   20.7692 C   0  0  0  0  0  0
  -30.0220  -18.8301   20.1992 C   0  0  0  0  0  0
  -30.9455  -19.1215   21.3972 C   0  0  0  0  0  0
  -30.8735  -18.9417   18.9243 C   0  0  0  0  0  0
  -29.0095  -21.8910   20.4687 C   0  0  0  0  0  0
  -28.0588  -23.5982   20.1191 C   0  0  0  0  0  0
  -29.6313  -17.1679   20.3335 N   0  0  0  0  0  0
  -28.9162  -20.1177   20.1349 N   0  3  2  0  0  0
  -31.3961  -13.4126   19.1546 H   0  0  0  0  0  0
  -30.5884  -12.3279   20.2300 H   0  0  0  0  0  0
  -30.0184  -11.8278   17.8291 H   0  0  0  0  0  0
  -29.4910  -13.4760   17.5916 H   0  0  0  0  0  0
  -28.1733  -11.3119   19.2399 H   0  0  0  0  0  0
  -27.4581  -12.2156   17.9254 H   0  0  0  0  0  0
  -27.4338  -14.2241   19.2198 H   0  0  0  0  0  0
  -28.8845  -12.8445   21.5273 H   0  0  0  0  0  0
  -28.1476  -14.4250   21.6006 H   0  0  0  0  0  0
  -25.2797   -9.5677   22.4766 H   0  0  0  0  0  0
  -24.0017   -7.4639   22.7478 H   0  0  0  0  0  0
  -21.0876   -8.8795   19.8949 H   0  0  0  0  0  0
  -22.3752  -10.9677   19.6161 H   0  0  0  0  0  0
  -21.2014   -7.6153   23.9718 H   0  0  0  0  0  0
  -21.1479   -6.0526   25.9077 H   0  0  0  0  0  0
  -22.0597   -2.7614   23.2844 H   0  0  0  0  0  0
  -22.4024  -11.9804   22.4869 H   0  0  0  0  0  0
  -21.0977  -13.1109   22.2676 H   0  0  0  0  0  0
  -24.6121  -15.8493   20.5347 H   0  0  0  0  0  0
  -26.2262  -15.6426   20.0730 H   0  0  0  0  0  0
  -26.7546  -32.4882   23.0745 H   0  0  0  0  0  0
  -25.0053  -33.9277   24.9998 H   0  0  0  0  0  0
  -22.8482  -31.2299   21.3046 H   0  0  0  0  0  0
  -23.3776  -35.9435   23.3265 H   0  0  0  0  0  0
  -24.3554  -36.8844   22.2078 H   0  0  0  0  0  0
  -23.7234  -37.6283   23.6770 H   0  0  0  0  0  0
  -26.3138  -31.2219   20.6283 H   0  0  0  0  0  0
  -26.9505  -30.5717   22.0887 H   0  0  0  0  0  0
  -28.1655  -28.3162   21.3331 H   0  0  0  0  0  0
  -25.8245  -25.5809   18.9987 H   0  0  0  0  0  0
  -24.0422  -27.2017   18.9216 H   0  0  0  0  0  0
  -23.9579  -30.4379   19.3746 H   0  0  0  0  0  0
  -22.8800  -29.1515   19.8129 H   0  0  0  0  0  0
  -25.1360  -36.1616   25.0766 H   0  0  0  0  0  0
  -21.0062  -28.3423   24.1256 H   0  0  0  0  0  0
  -20.5646  -26.2418   23.3675 H   0  0  0  0  0  0
  -21.6662  -26.7367   22.1236 H   0  0  0  0  0  0
  -19.6930  -25.6263   21.1298 H   0  0  0  0  0  0
  -19.6724  -27.3136   20.6708 H   0  0  0  0  0  0
  -17.4230  -26.6695   21.4024 H   0  0  0  0  0  0
  -18.0352  -26.0114   22.9032 H   0  0  0  0  0  0
  -19.7989  -30.7349   24.2159 H   0  0  0  0  0  0
  -17.5055  -31.6280   24.5169 H   0  0  0  0  0  0
  -15.5391  -30.2971   23.7721 H   0  0  0  0  0  0
  -15.8718  -28.0804   22.7140 H   0  0  0  0  0  0
  -24.5877  -30.7140   25.7593 H   0  0  0  0  0  0
  -24.8813  -32.3058   26.4483 H   0  0  0  0  0  0
  -25.7827  -30.9149   27.0213 H   0  0  0  0  0  0
  -26.3285  -29.6415   24.1630 H   0  0  0  0  0  0
  -27.3954  -29.7294   25.5403 H   0  0  0  0  0  0
  -27.9276  -30.3927   24.0189 H   0  0  0  0  0  0
  -27.2579  -33.3746   26.1854 H   0  0  0  0  0  0
  -28.3979  -32.6799   25.0424 H   0  0  0  0  0  0
  -28.0582  -31.8649   26.5612 H   0  0  0  0  0  0
  -28.2546  -38.0044   24.7512 H   0  0  0  0  0  0
  -28.1083  -36.2567   24.6302 H   0  0  0  0  0  0
  -27.2272  -37.1365   25.8869 H   0  0  0  0  0  0
  -20.9752  -29.8666   21.6483 H   0  0  0  0  0  0
  -26.0084  -38.2682   24.1425 H   0  0  0  0  0  0
  -27.6429  -17.2482   19.6946 H   0  0  0  0  0  0
  -27.7963  -17.0318   21.4130 H   0  0  0  0  0  0
  -27.8947  -19.4271   21.8380 H   0  0  0  0  0  0
  -26.8949  -19.4628   20.4135 H   0  0  0  0  0  0
  -31.7709  -18.4112   21.4480 H   0  0  0  0  0  0
  -30.4011  -19.0573   22.3391 H   0  0  0  0  0  0
  -31.3770  -20.1208   21.3355 H   0  0  0  0  0  0
  -31.7123  -18.2453   18.9407 H   0  0  0  0  0  0
  -31.2853  -19.9443   18.8039 H   0  0  0  0  0  0
  -30.2815  -18.7178   18.0369 H   0  0  0  0  0  0
  -29.1701  -21.9092   21.5462 H   0  0  0  0  0  0
  -29.9956  -22.1080   20.0594 H   0  0  0  0  0  0
  -27.0838  -23.4157   20.5703 H   0  0  0  0  0  0
  -27.8563  -23.5314   19.0503 H   0  0  0  0  0  0
  -28.6509  -20.1180   19.1608 H   0  0  0  0  0  0
  1 25  1  0  0  0
  1 30  2  0  0  0
  1 78  1  0  0  0
  2  3  1  0  0  0
  2 25  1  0  0  0
  2 80  1  0  0  0
  2 81  1  0  0  0
  3  4  1  0  0  0
  3 82  1  0  0  0
  3 83  1  0  0  0
  4  5  1  0  0  0
  4 84  1  0  0  0
  4 85  1  0  0  0
  5  6  1  0  0  0
  5 26  1  0  0  0
  5 86  1  0  0  0
  6 25  1  0  0  0
  6 87  1  0  0  0
  6 88  1  0  0  0
  7  8  2  0  0  0
  7 26  1  0  0  0
  7 29  1  0  0  0
  8  9  1  0  0  0
  8 22  1  0  0  0
  9 10  1  0  0  0
  9 27  2  0  0  0
 10 11  2  0  0  0
 10 15  1  0  0  0
 11 12  1  0  0  0
 11 89  1  0  0  0
 12 13  2  0  0  0
 12 90  1  0  0  0
 13 14  1  0  0  0
 13 31  1  0  0  0
 14 15  2  0  0  0
 14 91  1  0  0  0
 15 92  1  0  0  0
 16 17  2  0  0  0
 16 21  1  0  0  0
 16 31  1  0  0  0
 17 18  1  0  0  0
 17 93  1  0  0  0
 18 19  2  0  0  0
 18 94  1  0  0  0
 19 20  1  0  0  0
 19 24  1  0  0  0
 20 21  2  0  0  0
 20 95  1  0  0  0
 21 23  1  0  0  0
 22 28  1  0  0  0
 22 32  2  0  0  0
 26 27  1  0  0  0
 28 96  1  0  0  0
 28 97  1  0  0  0
 29 98  1  0  0  0
 29 99  1  0  0  0
 33 34  1  0  0  0
 33 66  1  0  0  0
 33 70  2  0  0  0
 34 36  1  0  0  0
 34 59  1  0  0  0
 34100  1  0  0  0
 35 44  2  0  0  0
 35 45  1  0  0  0
 35 68  1  0  0  0
 36 56  1  0  0  0
 36101  1  0  0  0
 37 39  1  0  0  0
 37 47  1  0  0  0
 37 66  1  0  0  0
 37102  1  0  0  0
 38 43  2  0  0  0
 38 46  1  0  0  0
 38 47  1  0  0  0
 39 64  1  0  0  0
 39 67  2  0  0  0
 40 52  1  0  0  0
 40 53  2  0  0  0
 40 58  1  0  0  0
 41103  1  0  0  0
 41104  1  0  0  0
 41105  1  0  0  0
 41 48  1  0  0  0
 42 43  1  0  0  0
 42 66  1  0  0  0
 42106  1  0  0  0
 42107  1  0  0  0
 43 44  1  0  0  0
 44108  1  0  0  0
 45 46  2  0  0  0
 45109  1  0  0  0
 46110  1  0  0  0
 47111  1  0  0  0
 47112  1  0  0  0
 48 56  1  0  0  0
 48 65  1  0  0  0
 48113  1  0  0  0
 49 50  1  0  0  0
 49 53  1  0  0  0
 49 64  1  0  0  0
 49114  1  0  0  0
 50 51  1  0  0  0
 50115  1  0  0  0
 50116  1  0  0  0
 51 52  1  0  0  0
 51117  1  0  0  0
 51118  1  0  0  0
 52119  1  0  0  0
 52120  1  0  0  0
 53 54  1  0  0  0
 54 55  2  0  0  0
 54121  1  0  0  0
 55 57  1  0  0  0
 55122  1  0  0  0
 56 69  2  0  0  0
 57 58  2  0  0  0
 57123  1  0  0  0
 58124  1  0  0  0
 59 60  1  0  0  0
 59 61  1  0  0  0
 59 62  1  0  0  0
 60125  1  0  0  0
 60126  1  0  0  0
 60127  1  0  0  0
 61128  1  0  0  0
 61129  1  0  0  0
 61130  1  0  0  0
 62131  1  0  0  0
 62132  1  0  0  0
 62133  1  0  0  0
 63 65  1  0  0  0
 63134  1  0  0  0
 63135  1  0  0  0
 63136  1  0  0  0
 64137  1  0  0  0
 65138  1  0  0  0
 68 77  1  0  0  0
 71 72  1  0  0  0
 71 78  1  0  0  0
 71139  1  0  0  0
 71140  1  0  0  0
 72 79  1  0  0  0
 72141  1  0  0  0
 72142  1  0  0  0
 73 74  1  0  0  0
 73 75  1  0  0  0
 73 78  1  0  0  0
 73 79  1  0  0  0
 74143  1  0  0  0
 74144  1  0  0  0
 74145  1  0  0  0
 75146  1  0  0  0
 75147  1  0  0  0
 75148  1  0  0  0
 76 77  1  0  0  0
 76149  1  0  0  0
 76150  1  0  0  0
 76 79  1  0  0  0
 77151  1  0  0  0
 77152  1  0  0  0
 79153  1  0  0  0
M  CHG  1  79   1
M  ISO  4   1 100  68 101  77 101  78 100
M  END
> <chiral flag>
0

> <version>
0

> <s_m_source_file>
/data/baiqing/PycharmProjects/Reinvent-master-3.2/result/LINK_invent/BTK/process_docking_weight1_custom_sum_contain_oxygen_bond_distance_aromatic_linkinvent_7_9_3/rearranged_h_0185.sdf

> <i_m_source_file_index>
66

> <r_mmod_Potential_Energy-OPLS-2005>
2760.77563476562

> <r_mmod_Stretch_Energy-OPLS-2005>
1191.17639160156

> <r_mmod_Bend_Energy-OPLS-2005>
749.574951171875

> <r_mmod_Torsional_Energy-OPLS-2005>
328.663940429688

> <r_mmod_Improper_Torsional_Energy-OPLS-2005>
4.97433090209961

> <r_mmod_Van_der_Waal_Energy-OPLS-2005>
99.1843490600586

> <r_mmod_Electrostatic_Energy-OPLS-2005>
-213.090896606445

> <r_mmod_Solvation_Energy-OPLS-2005>
-435.658416748047

> <b_mmod_Minimization_Converged-OPLS-2005>
0

> <r_mmod_RMS_Derivative-OPLS-2005>
0.414884746074677

$$$$
66
                    3D
 Structure written by MMmdl.
154163  0  0  1  0            999 V2000
  -30.4532  -15.2460   20.3991 C   0  0  0  0  0  0
  -30.4339  -12.7969   19.5313 C   0  0  0  0  0  0
  -29.5340  -12.5779   18.2898 C   0  0  0  0  0  0
  -28.0847  -12.2984   18.7203 C   0  0  0  0  0  0
  -27.6134  -13.2739   19.8278 C   0  0  2  0  0  0
  -28.6436  -13.4443   20.9648 C   0  0  0  0  0  0
  -25.2403  -13.8254   20.5763 C   0  0  0  0  0  0
  -24.1741  -13.0445   20.9241 C   0  0  0  0  0  0
  -24.6389  -11.6940   20.8744 C   0  0  0  0  0  0
  -23.9087  -10.4301   21.0396 C   0  0  0  0  0  0
  -24.3637   -9.4217   21.9174 C   0  0  0  0  0  0
  -23.6309   -8.2252   22.0749 C   0  0  0  0  0  0
  -22.4288   -8.0291   21.3546 C   0  0  0  0  0  0
  -21.9926   -9.0263   20.4644 C   0  0  0  0  0  0
  -22.7256  -10.2140   20.3048 C   0  0  0  0  0  0
  -21.6858   -6.0740   22.5280 C   0  0  0  0  0  0
  -21.4021   -6.5639   23.8215 C   0  0  0  0  0  0
  -21.3661   -5.6791   24.9173 C   0  0  0  0  0  0
  -21.6045   -4.3053   24.7223 C   0  0  0  0  0  0
  -21.8818   -3.8148   23.4343 C   0  0  0  0  0  0
  -21.9189   -4.6968   22.3400 C   0  0  0  0  0  0
  -22.7760  -13.5204   21.1885 C   0  0  0  0  0  0
  -22.1660   -4.2152   21.0977 F   0  0  0  0  0  0
  -21.5624   -3.4540   25.7734 F   0  0  0  0  0  0
  -29.8793  -13.9441   20.3432 N   0  0  0  0  0  0
  -26.2824  -12.9521   20.3243 N   0  0  0  0  0  0
  -25.9328  -11.6627   20.5723 N   0  0  0  0  0  0
  -22.0412  -12.8201   22.0445 N   0  0  0  0  0  0
  -25.4078  -15.1989   20.4249 N   0  0  0  0  0  0
  -31.6563  -15.2427   20.0979 O   0  0  0  0  0  0
  -21.6646   -6.8894   21.4246 O   0  0  0  0  0  0
  -22.3447  -14.5501   20.6715 O   0  0  0  0  0  0
  -24.6607  -31.8234   23.1702 C   0  0  0  0  0  0
  -25.9299  -32.4581   23.8160 C   0  0  1  0  0  0
  -27.2174  -26.9333   20.1815 C   0  0  0  0  0  0
  -25.5967  -33.8397   24.2061 N   0  0  0  0  0  0
  -23.4744  -30.4345   21.5189 C   0  0  2  0  0  0
  -24.9281  -28.8228   20.1065 C   0  0  0  0  0  0
  -22.7649  -29.4437   22.4780 C   0  0  0  0  0  0
  -18.0317  -28.1409   22.8463 C   0  0  0  0  0  0
  -24.1497  -36.7213   23.2646 C   0  0  0  0  0  0
  -26.0416  -30.6309   21.3995 C   0  0  0  0  0  0
  -26.1086  -29.2214   20.7437 C   0  0  0  0  0  0
  -27.2437  -28.2956   20.7607 C   0  0  0  0  0  0
  -26.0119  -26.6877   19.4848 C   0  0  0  0  0  0
  -24.9052  -27.5768   19.4576 C   0  0  0  0  0  0
  -23.7128  -29.7496   20.1440 C   0  0  0  0  0  0
  -25.4137  -36.2962   24.0292 C   0  0  1  0  0  0
  -20.5941  -28.3750   23.1193 C   0  0  2  0  0  0
  -20.6796  -26.9433   22.5404 C   0  0  0  0  0  0
  -19.5772  -26.6377   21.5212 C   0  0  0  0  0  0
  -18.1953  -26.7940   22.1621 C   0  0  0  0  0  0
  -19.1580  -28.8901   23.2813 C   0  0  0  0  0  0
  -18.9491  -30.1493   23.8844 C   0  0  0  0  0  0
  -17.6486  -30.6598   24.0556 C   0  0  0  0  0  0
  -25.9100  -34.9345   23.4998 C   0  0  0  0  0  0
  -16.5375  -29.9085   23.6347 C   0  0  0  0  0  0
  -16.7301  -28.6509   23.0358 C   0  0  0  0  0  0
  -26.4555  -31.6530   25.0688 C   0  0  0  0  0  0
  -25.3681  -31.3794   26.1346 C   0  0  0  0  0  0
  -27.0454  -30.2893   24.6430 C   0  0  0  0  0  0
  -27.6035  -32.4351   25.7497 C   0  0  0  0  0  0
  -27.5569  -37.1762   24.8465 C   0  0  0  0  0  0
  -21.4325  -29.3037   22.3536 N   0  0  0  0  0  0
  -26.4282  -37.3695   23.9401 N   0  0  0  0  0  0
  -24.7467  -30.9903   22.0829 N   0  0  0  0  0  0
  -23.4205  -28.8012   23.3022 O   0  0  0  0  0  0
  -28.2280  -25.8449   20.3200 O   0  0  0  0  0  0
  -26.5715  -34.8882   22.4600 O   0  0  0  0  0  0
  -23.5684  -32.1207   23.6798 O   0  0  0  0  0  0
  -30.6726  -17.9924   21.7885 C   0  0  0  0  0  0
  -29.6675  -22.5987   21.6538 C   0  0  0  0  0  0
  -29.6514  -16.8761   22.0574 C   0  0  0  0  0  0
  -30.4356  -21.7000   20.6724 C   0  0  0  0  0  0
  -29.9880  -18.1863   20.4435 C   0  0  2  0  0  0
  -28.5124  -22.6608   20.6602 C   0  0  1  0  0  0
  -28.8783  -19.6120   20.4578 C   0  0  0  0  0  0
  -28.2425  -24.2555   19.8606 C   0  0  0  0  0  0
  -29.7248  -16.5306   20.6296 N   0  0  0  0  0  0
  -29.1786  -21.2200   20.1020 N   0  3  2  0  0  0
  -31.4570  -12.9867   19.2041 H   0  0  0  0  0  0
  -30.4881  -11.8886   20.1339 H   0  0  0  0  0  0
  -29.9151  -11.7554   17.6830 H   0  0  0  0  0  0
  -29.5623  -13.4665   17.6565 H   0  0  0  0  0  0
  -28.0459  -11.2759   19.0971 H   0  0  0  0  0  0
  -27.4145  -12.3322   17.8610 H   0  0  0  0  0  0
  -27.5334  -14.2425   19.3327 H   0  0  0  0  0  0
  -28.8049  -12.5100   21.5045 H   0  0  0  0  0  0
  -28.2808  -14.1691   21.6953 H   0  0  0  0  0  0
  -25.2781   -9.5695   22.4751 H   0  0  0  0  0  0
  -24.0012   -7.4648   22.7476 H   0  0  0  0  0  0
  -21.0851   -8.8785   19.8960 H   0  0  0  0  0  0
  -22.3707  -10.9679   19.6157 H   0  0  0  0  0  0
  -21.2026   -7.6147   23.9723 H   0  0  0  0  0  0
  -21.1480   -6.0515   25.9077 H   0  0  0  0  0  0
  -22.0595   -2.7609   23.2834 H   0  0  0  0  0  0
  -22.4043  -11.9876   22.4852 H   0  0  0  0  0  0
  -21.1021  -13.1213   22.2629 H   0  0  0  0  0  0
  -24.6446  -15.8546   20.5531 H   0  0  0  0  0  0
  -26.2701  -15.6437   20.1345 H   0  0  0  0  0  0
  -26.7362  -32.5118   23.0866 H   0  0  0  0  0  0
  -25.0045  -33.9477   25.0165 H   0  0  0  0  0  0
  -22.7868  -31.2659   21.3492 H   0  0  0  0  0  0
  -23.3755  -35.9547   23.3282 H   0  0  0  0  0  0
  -24.3572  -36.8889   22.2066 H   0  0  0  0  0  0
  -23.7266  -37.6398   23.6727 H   0  0  0  0  0  0
  -26.2215  -31.3722   20.6200 H   0  0  0  0  0  0
  -26.9018  -30.6870   22.0546 H   0  0  0  0  0  0
  -28.1335  -28.5948   21.2964 H   0  0  0  0  0  0
  -25.8793  -25.7380   18.9905 H   0  0  0  0  0  0
  -24.0076  -27.2666   18.9396 H   0  0  0  0  0  0
  -23.8648  -30.5187   19.3854 H   0  0  0  0  0  0
  -22.8216  -29.2034   19.8289 H   0  0  0  0  0  0
  -25.1339  -36.1749   25.0782 H   0  0  0  0  0  0
  -21.0030  -28.3359   24.1318 H   0  0  0  0  0  0
  -20.5680  -26.2368   23.3643 H   0  0  0  0  0  0
  -21.6659  -26.7415   22.1211 H   0  0  0  0  0  0
  -19.6934  -25.6274   21.1278 H   0  0  0  0  0  0
  -19.6713  -27.3159   20.6718 H   0  0  0  0  0  0
  -17.4223  -26.6677   21.4025 H   0  0  0  0  0  0
  -18.0350  -26.0097   22.9033 H   0  0  0  0  0  0
  -19.7968  -30.7324   24.2186 H   0  0  0  0  0  0
  -17.5038  -31.6273   24.5170 H   0  0  0  0  0  0
  -15.5374  -30.2970   23.7705 H   0  0  0  0  0  0
  -15.8700  -28.0816   22.7095 H   0  0  0  0  0  0
  -24.5858  -30.7150   25.7659 H   0  0  0  0  0  0
  -24.8876  -32.3005   26.4653 H   0  0  0  0  0  0
  -25.7902  -30.9033   27.0204 H   0  0  0  0  0  0
  -26.3121  -29.6559   24.1425 H   0  0  0  0  0  0
  -27.3968  -29.7270   25.5093 H   0  0  0  0  0  0
  -27.9069  -30.4067   23.9853 H   0  0  0  0  0  0
  -27.2580  -33.3682   26.1960 H   0  0  0  0  0  0
  -28.3905  -32.6868   25.0375 H   0  0  0  0  0  0
  -28.0640  -31.8561   26.5513 H   0  0  0  0  0  0
  -28.2569  -38.0071   24.7492 H   0  0  0  0  0  0
  -28.1078  -36.2593   24.6313 H   0  0  0  0  0  0
  -27.2280  -37.1428   25.8866 H   0  0  0  0  0  0
  -20.9574  -29.8717   21.6659 H   0  0  0  0  0  0
  -26.0123  -38.2753   24.1397 H   0  0  0  0  0  0
  -31.7040  -17.6394   21.7153 H   0  0  0  0  0  0
  -30.5966  -18.8369   22.4745 H   0  0  0  0  0  0
  -30.1465  -23.5572   21.8550 H   0  0  0  0  0  0
  -29.4025  -22.0861   22.5798 H   0  0  0  0  0  0
  -28.6697  -17.2333   22.3750 H   0  0  0  0  0  0
  -30.0200  -16.1234   22.7585 H   0  0  0  0  0  0
  -31.0506  -20.9369   21.1487 H   0  0  0  0  0  0
  -31.0130  -22.2680   19.9417 H   0  0  0  0  0  0
  -30.7438  -18.3430   19.6726 H   0  0  0  0  0  0
  -27.5987  -22.3842   21.1869 H   0  0  0  0  0  0
  -28.4340  -19.6531   21.4523 H   0  0  0  0  0  0
  -28.0336  -19.3625   19.8166 H   0  0  0  0  0  0
  -27.3219  -24.1328   19.2934 H   0  0  0  0  0  0
  -28.9964  -24.2900   19.0747 H   0  0  0  0  0  0
  -29.2475  -21.2749   19.0970 H   0  0  0  0  0  0
  1 25  1  0  0  0
  1 30  2  0  0  0
  1 79  1  0  0  0
  2  3  1  0  0  0
  2 25  1  0  0  0
  2 81  1  0  0  0
  2 82  1  0  0  0
  3  4  1  0  0  0
  3 83  1  0  0  0
  3 84  1  0  0  0
  4  5  1  0  0  0
  4 85  1  0  0  0
  4 86  1  0  0  0
  5  6  1  0  0  0
  5 26  1  0  0  0
  5 87  1  0  0  0
  6 25  1  0  0  0
  6 88  1  0  0  0
  6 89  1  0  0  0
  7  8  2  0  0  0
  7 26  1  0  0  0
  7 29  1  0  0  0
  8  9  1  0  0  0
  8 22  1  0  0  0
  9 10  1  0  0  0
  9 27  2  0  0  0
 10 11  2  0  0  0
 10 15  1  0  0  0
 11 12  1  0  0  0
 11 90  1  0  0  0
 12 13  2  0  0  0
 12 91  1  0  0  0
 13 14  1  0  0  0
 13 31  1  0  0  0
 14 15  2  0  0  0
 14 92  1  0  0  0
 15 93  1  0  0  0
 16 17  2  0  0  0
 16 21  1  0  0  0
 16 31  1  0  0  0
 17 18  1  0  0  0
 17 94  1  0  0  0
 18 19  2  0  0  0
 18 95  1  0  0  0
 19 20  1  0  0  0
 19 24  1  0  0  0
 20 21  2  0  0  0
 20 96  1  0  0  0
 21 23  1  0  0  0
 22 28  1  0  0  0
 22 32  2  0  0  0
 26 27  1  0  0  0
 28 97  1  0  0  0
 28 98  1  0  0  0
 29 99  1  0  0  0
 29100  1  0  0  0
 33 34  1  0  0  0
 33 66  1  0  0  0
 33 70  2  0  0  0
 34 36  1  0  0  0
 34 59  1  0  0  0
 34101  1  0  0  0
 35 44  2  0  0  0
 35 45  1  0  0  0
 35 68  1  0  0  0
 36 56  1  0  0  0
 36102  1  0  0  0
 37 39  1  0  0  0
 37 47  1  0  0  0
 37 66  1  0  0  0
 37103  1  0  0  0
 38 43  2  0  0  0
 38 46  1  0  0  0
 38 47  1  0  0  0
 39 64  1  0  0  0
 39 67  2  0  0  0
 40 52  1  0  0  0
 40 53  2  0  0  0
 40 58  1  0  0  0
 41104  1  0  0  0
 41105  1  0  0  0
 41106  1  0  0  0
 41 48  1  0  0  0
 42 43  1  0  0  0
 42 66  1  0  0  0
 42107  1  0  0  0
 42108  1  0  0  0
 43 44  1  0  0  0
 44109  1  0  0  0
 45 46  2  0  0  0
 45110  1  0  0  0
 46111  1  0  0  0
 47112  1  0  0  0
 47113  1  0  0  0
 48 56  1  0  0  0
 48 65  1  0  0  0
 48114  1  0  0  0
 49 50  1  0  0  0
 49 53  1  0  0  0
 49 64  1  0  0  0
 49115  1  0  0  0
 50 51  1  0  0  0
 50116  1  0  0  0
 50117  1  0  0  0
 51 52  1  0  0  0
 51118  1  0  0  0
 51119  1  0  0  0
 52120  1  0  0  0
 52121  1  0  0  0
 53 54  1  0  0  0
 54 55  2  0  0  0
 54122  1  0  0  0
 55 57  1  0  0  0
 55123  1  0  0  0
 56 69  2  0  0  0
 57 58  2  0  0  0
 57124  1  0  0  0
 58125  1  0  0  0
 59 60  1  0  0  0
 59 61  1  0  0  0
 59 62  1  0  0  0
 60126  1  0  0  0
 60127  1  0  0  0
 60128  1  0  0  0
 61129  1  0  0  0
 61130  1  0  0  0
 61131  1  0  0  0
 62132  1  0  0  0
 62133  1  0  0  0
 62134  1  0  0  0
 63 65  1  0  0  0
 63135  1  0  0  0
 63136  1  0  0  0
 63137  1  0  0  0
 64138  1  0  0  0
 65139  1  0  0  0
 68 78  1  0  0  0
 71 73  1  0  0  0
 71 75  1  0  0  0
 71140  1  0  0  0
 71141  1  0  0  0
 72 74  1  0  0  0
 72 76  1  0  0  0
 72142  1  0  0  0
 72143  1  0  0  0
 73 79  1  0  0  0
 73144  1  0  0  0
 73145  1  0  0  0
 74 80  1  0  0  0
 74146  1  0  0  0
 74147  1  0  0  0
 75 77  1  0  0  0
 75 79  1  0  0  0
 75148  1  0  0  0
 76 78  1  0  0  0
 76 80  1  0  0  0
 76149  1  0  0  0
 77150  1  0  0  0
 77151  1  0  0  0
 77 80  1  0  0  0
 78152  1  0  0  0
 78153  1  0  0  0
 80154  1  0  0  0
M  CHG  1  80   1
M  ISO  4   1 100  68 101  78 101  79 100
M  END
> <chiral flag>
0

> <version>
0

> <s_m_source_file>
/data/baiqing/PycharmProjects/Reinvent-master-3.2/result/LINK_invent/BTK/process_docking_weight1_custom_sum_contain_oxygen_bond_distance_aromatic_linkinvent_7_9_3/rearranged_h_0185.sdf

> <i_m_source_file_index>
67

> <r_mmod_Potential_Energy-OPLS-2005>
1299.32592773438

> <r_mmod_Stretch_Energy-OPLS-2005>
636.850708007812

> <r_mmod_Bend_Energy-OPLS-2005>
489.128112792969

> <r_mmod_Torsional_Energy-OPLS-2005>
312.829284667969

> <r_mmod_Improper_Torsional_Energy-OPLS-2005>
10.6071405410767

> <r_mmod_Van_der_Waal_Energy-OPLS-2005>
111.178573608398

> <r_mmod_Electrostatic_Energy-OPLS-2005>
-227.761138916016

> <r_mmod_Solvation_Energy-OPLS-2005>
-475.268951416016

> <b_mmod_Minimization_Converged-OPLS-2005>
0

> <r_mmod_RMS_Derivative-OPLS-2005>
1.0607818365097

$$$$
67
                    3D
 Structure written by MMmdl.
152161  0  0  1  0            999 V2000
  -30.0289  -16.3957   20.4936 C   0  0  0  0  0  0
  -30.3946  -13.6220   19.6505 C   0  0  0  0  0  0
  -29.6259  -12.9313   18.4449 C   0  0  0  0  0  0
  -28.2600  -12.3717   18.8573 C   0  0  0  0  0  0
  -27.6128  -13.3770   19.8097 C   0  0  2  0  0  0
  -28.5582  -13.8963   20.9300 C   0  0  0  0  0  0
  -25.2359  -13.8324   20.5689 C   0  0  0  0  0  0
  -24.1802  -13.0414   20.9183 C   0  0  0  0  0  0
  -24.6583  -11.6959   20.8618 C   0  0  0  0  0  0
  -23.9264  -10.4300   21.0320 C   0  0  0  0  0  0
  -24.3743   -9.4211   21.9135 C   0  0  0  0  0  0
  -23.6355   -8.2273   22.0743 C   0  0  0  0  0  0
  -22.4323   -8.0324   21.3552 C   0  0  0  0  0  0
  -22.0005   -9.0312   20.4638 C   0  0  0  0  0  0
  -22.7400  -10.2158   20.3008 C   0  0  0  0  0  0
  -21.6880   -6.0753   22.5273 C   0  0  0  0  0  0
  -21.4025   -6.5647   23.8202 C   0  0  0  0  0  0
  -21.3661   -5.6802   24.9166 C   0  0  0  0  0  0
  -21.6047   -4.3065   24.7223 C   0  0  0  0  0  0
  -21.8815   -3.8155   23.4342 C   0  0  0  0  0  0
  -21.9197   -4.6973   22.3395 C   0  0  0  0  0  0
  -22.7807  -13.5112   21.1893 C   0  0  0  0  0  0
  -22.1664   -4.2157   21.0970 F   0  0  0  0  0  0
  -21.5633   -3.4540   25.7731 F   0  0  0  0  0  0
  -29.6717  -14.8307   20.4103 N   0  0  0  0  0  0
  -26.2910  -12.9795   20.3070 N   0  0  0  0  0  0
  -25.9561  -11.6806   20.5471 N   0  0  0  0  0  0
  -22.0496  -12.8080   22.0448 N   0  0  0  0  0  0
  -25.3870  -15.2078   20.4185 N   0  0  0  0  0  0
  -31.1063  -16.2219   19.8202 O   0  0  0  0  0  0
  -21.6665   -6.8925   21.4252 O   0  0  0  0  0  0
  -22.3445  -14.5415   20.6771 O   0  0  0  0  0  0
  -24.7354  -31.7445   23.1077 C   0  0  0  0  0  0
  -25.9691  -32.4185   23.7817 C   0  0  1  0  0  0
  -27.2895  -26.2403   20.2813 C   0  0  0  0  0  0
  -25.6043  -33.8040   24.1640 N   0  0  0  0  0  0
  -23.5840  -30.3212   21.4714 C   0  0  2  0  0  0
  -25.0529  -28.5529   20.1438 C   0  0  0  0  0  0
  -22.7995  -29.4053   22.4548 C   0  0  0  0  0  0
  -18.0402  -28.1479   22.8420 C   0  0  0  0  0  0
  -24.1505  -36.7055   23.2649 C   0  0  0  0  0  0
  -26.1812  -30.3225   21.4453 C   0  0  0  0  0  0
  -26.2471  -28.8340   20.8122 C   0  0  0  0  0  0
  -27.3288  -27.7263   20.8252 C   0  0  0  0  0  0
  -26.0490  -26.2858   19.5492 C   0  0  0  0  0  0
  -25.0187  -27.3050   19.4849 C   0  0  0  0  0  0
  -23.8688  -29.5612   20.1367 C   0  0  0  0  0  0
  -25.4170  -36.2739   24.0237 C   0  0  1  0  0  0
  -20.6055  -28.3877   23.1027 C   0  0  2  0  0  0
  -20.6831  -26.9484   22.5385 C   0  0  0  0  0  0
  -19.5809  -26.6377   21.5205 C   0  0  0  0  0  0
  -18.2006  -26.7997   22.1603 C   0  0  0  0  0  0
  -19.1673  -28.9012   23.2690 C   0  0  0  0  0  0
  -18.9565  -30.1578   23.8762 C   0  0  0  0  0  0
  -17.6537  -30.6631   24.0562 C   0  0  0  0  0  0
  -25.9183  -34.9143   23.4818 C   0  0  0  0  0  0
  -16.5433  -29.9110   23.6356 C   0  0  0  0  0  0
  -16.7371  -28.6548   23.0353 C   0  0  0  0  0  0
  -26.4695  -31.6443   25.0641 C   0  0  0  0  0  0
  -25.3577  -31.3934   26.1098 C   0  0  0  0  0  0
  -27.0729  -30.2747   24.6921 C   0  0  0  0  0  0
  -27.6067  -32.4400   25.7476 C   0  0  0  0  0  0
  -27.5575  -37.1653   24.8445 C   0  0  0  0  0  0
  -21.4608  -29.3021   22.3269 N   0  0  0  0  0  0
  -26.4252  -37.3565   23.9414 N   0  0  0  0  0  0
  -24.8617  -30.8420   22.0583 N   0  0  0  0  0  0
  -23.4171  -28.7716   23.3134 O   0  0  0  0  0  0
  -28.2480  -24.8390   20.2616 O   0  0  0  0  0  0
  -26.5894  -34.8830   22.4473 O   0  0  0  0  0  0
  -23.6261  -32.0719   23.5697 O   0  0  0  0  0  0
  -28.8334  -16.3304   22.4811 C   0  0  0  0  0  0
  -30.8567  -16.5921   22.6066 C   0  0  0  0  0  0
  -28.1160  -17.5308   21.2300 C   0  0  0  0  0  0
  -31.2539  -18.1045   21.5021 C   0  0  0  0  0  0
  -30.1577  -19.8458   22.6253 C   0  0  0  0  0  0
  -30.4869  -18.6090   23.8833 C   0  0  0  0  0  0
  -31.4097  -19.0494   22.7110 C   0  0  0  0  0  0
  -29.0375  -20.7674   20.0168 C   0  0  0  0  0  0
  -28.3601  -22.8414   20.5302 C   0  0  0  0  0  0
  -29.4888  -18.8189   20.5140 N   0  0  0  0  0  0
  -29.5807  -18.3726   22.6415 N   0  0  0  0  0  0
  -31.3508  -13.9567   19.2559 H   0  0  0  0  0  0
  -30.7000  -12.8619   20.3708 H   0  0  0  0  0  0
  -30.2405  -12.1403   18.0146 H   0  0  0  0  0  0
  -29.4876  -13.6711   17.6539 H   0  0  0  0  0  0
  -28.4150  -11.4261   19.3767 H   0  0  0  0  0  0
  -27.6367  -12.1611   17.9894 H   0  0  0  0  0  0
  -27.4265  -14.2407   19.1711 H   0  0  0  0  0  0
  -28.9337  -13.0855   21.5567 H   0  0  0  0  0  0
  -27.8584  -14.4113   21.5652 H   0  0  0  0  0  0
  -25.2888   -9.5655   22.4712 H   0  0  0  0  0  0
  -24.0037   -7.4661   22.7475 H   0  0  0  0  0  0
  -21.0916   -8.8858   19.8948 H   0  0  0  0  0  0
  -22.3866  -10.9690   19.6096 H   0  0  0  0  0  0
  -21.2017   -7.6151   23.9706 H   0  0  0  0  0  0
  -21.1493   -6.0530   25.9069 H   0  0  0  0  0  0
  -22.0595   -2.7613   23.2838 H   0  0  0  0  0  0
  -22.4194  -11.9798   22.4874 H   0  0  0  0  0  0
  -21.1090  -13.1057   22.2601 H   0  0  0  0  0  0
  -24.6199  -15.8623   20.5345 H   0  0  0  0  0  0
  -26.2434  -15.6466   20.1062 H   0  0  0  0  0  0
  -26.7818  -32.4585   23.0546 H   0  0  0  0  0  0
  -24.9990  -33.8963   24.9666 H   0  0  0  0  0  0
  -22.9380  -31.1690   21.2288 H   0  0  0  0  0  0
  -23.3817  -35.9333   23.3176 H   0  0  0  0  0  0
  -24.3548  -36.8901   22.2088 H   0  0  0  0  0  0
  -23.7197  -37.6141   23.6875 H   0  0  0  0  0  0
  -26.4385  -31.0157   20.6422 H   0  0  0  0  0  0
  -27.0075  -30.4049   22.1373 H   0  0  0  0  0  0
  -28.2319  -27.9876   21.3566 H   0  0  0  0  0  0
  -25.8281  -25.3910   18.9903 H   0  0  0  0  0  0
  -24.1350  -27.0627   18.9118 H   0  0  0  0  0  0
  -24.0922  -30.2884   19.3571 H   0  0  0  0  0  0
  -22.9683  -29.0478   19.8028 H   0  0  0  0  0  0
  -25.1393  -36.1420   25.0729 H   0  0  0  0  0  0
  -21.0130  -28.3568   24.1158 H   0  0  0  0  0  0
  -20.5658  -26.2538   23.3706 H   0  0  0  0  0  0
  -21.6698  -26.7343   22.1233 H   0  0  0  0  0  0
  -19.6946  -25.6249   21.1350 H   0  0  0  0  0  0
  -19.6772  -27.3092   20.6667 H   0  0  0  0  0  0
  -17.4267  -26.6748   21.4014 H   0  0  0  0  0  0
  -18.0380  -26.0190   22.9052 H   0  0  0  0  0  0
  -19.8043  -30.7448   24.2061 H   0  0  0  0  0  0
  -17.5095  -31.6295   24.5206 H   0  0  0  0  0  0
  -15.5427  -30.2961   23.7778 H   0  0  0  0  0  0
  -15.8787  -28.0830   22.7095 H   0  0  0  0  0  0
  -24.5777  -30.7324   25.7277 H   0  0  0  0  0  0
  -24.8746  -32.3236   26.4144 H   0  0  0  0  0  0
  -25.7517  -30.9239   27.0122 H   0  0  0  0  0  0
  -26.3566  -29.6152   24.2010 H   0  0  0  0  0  0
  -27.4077  -29.7432   25.5844 H   0  0  0  0  0  0
  -27.9562  -30.3785   24.0605 H   0  0  0  0  0  0
  -27.2592  -33.3839   26.1703 H   0  0  0  0  0  0
  -28.4051  -32.6748   25.0415 H   0  0  0  0  0  0
  -28.0574  -31.8759   26.5657 H   0  0  0  0  0  0
  -28.2474  -38.0059   24.7603 H   0  0  0  0  0  0
  -28.1194  -36.2586   24.6153 H   0  0  0  0  0  0
  -27.2308  -37.1123   25.8843 H   0  0  0  0  0  0
  -21.0035  -29.8601   21.6196 H   0  0  0  0  0  0
  -26.0052  -38.2602   24.1453 H   0  0  0  0  0  0
  -28.2523  -15.6694   23.1120 H   0  0  0  0  0  0
  -31.5590  -16.0996   23.2680 H   0  0  0  0  0  0
  -27.0777  -17.7247   21.0049 H   0  0  0  0  0  0
  -29.8186  -20.6112   23.3482 H   0  0  0  0  0  0
  -30.4645  -20.4478   21.7806 H   0  0  0  0  0  0
  -30.8632  -17.7919   24.5017 H   0  0  0  0  0  0
  -30.1487  -19.2687   24.7068 H   0  0  0  0  0  0
  -32.3493  -19.5659   22.9162 H   0  0  0  0  0  0
  -29.9724  -21.0447   19.5313 H   0  0  0  0  0  0
  -28.3811  -20.5786   19.1689 H   0  0  0  0  0  0
  -28.8738  -22.9098   21.4898 H   0  0  0  0  0  0
  -27.3298  -22.6378   20.8185 H   0  0  0  0  0  0
  1 25  1  0  0  0
  1 30  2  0  0  0
  1 81  1  0  0  0
  2  3  1  0  0  0
  2 25  1  0  0  0
  2 82  1  0  0  0
  2 83  1  0  0  0
  3  4  1  0  0  0
  3 84  1  0  0  0
  3 85  1  0  0  0
  4  5  1  0  0  0
  4 86  1  0  0  0
  4 87  1  0  0  0
  5  6  1  0  0  0
  5 26  1  0  0  0
  5 88  1  0  0  0
  6 25  1  0  0  0
  6 89  1  0  0  0
  6 90  1  0  0  0
  7  8  2  0  0  0
  7 26  1  0  0  0
  7 29  1  0  0  0
  8  9  1  0  0  0
  8 22  1  0  0  0
  9 10  1  0  0  0
  9 27  2  0  0  0
 10 11  2  0  0  0
 10 15  1  0  0  0
 11 12  1  0  0  0
 11 91  1  0  0  0
 12 13  2  0  0  0
 12 92  1  0  0  0
 13 14  1  0  0  0
 13 31  1  0  0  0
 14 15  2  0  0  0
 14 93  1  0  0  0
 15 94  1  0  0  0
 16 17  2  0  0  0
 16 21  1  0  0  0
 16 31  1  0  0  0
 17 18  1  0  0  0
 17 95  1  0  0  0
 18 19  2  0  0  0
 18 96  1  0  0  0
 19 20  1  0  0  0
 19 24  1  0  0  0
 20 21  2  0  0  0
 20 97  1  0  0  0
 21 23  1  0  0  0
 22 28  1  0  0  0
 22 32  2  0  0  0
 26 27  1  0  0  0
 28 98  1  0  0  0
 28 99  1  0  0  0
 29100  1  0  0  0
 29101  1  0  0  0
 33 34  1  0  0  0
 33 66  1  0  0  0
 33 70  2  0  0  0
 34 36  1  0  0  0
 34 59  1  0  0  0
 34102  1  0  0  0
 35 44  2  0  0  0
 35 45  1  0  0  0
 35 68  1  0  0  0
 36 56  1  0  0  0
 36103  1  0  0  0
 37 39  1  0  0  0
 37 47  1  0  0  0
 37 66  1  0  0  0
 37104  1  0  0  0
 38 43  2  0  0  0
 38 46  1  0  0  0
 38 47  1  0  0  0
 39 64  1  0  0  0
 39 67  2  0  0  0
 40 52  1  0  0  0
 40 53  2  0  0  0
 40 58  1  0  0  0
 41105  1  0  0  0
 41106  1  0  0  0
 41107  1  0  0  0
 41 48  1  0  0  0
 42 43  1  0  0  0
 42 66  1  0  0  0
 42108  1  0  0  0
 42109  1  0  0  0
 43 44  1  0  0  0
 44110  1  0  0  0
 45 46  2  0  0  0
 45111  1  0  0  0
 46112  1  0  0  0
 47113  1  0  0  0
 47114  1  0  0  0
 48 56  1  0  0  0
 48 65  1  0  0  0
 48115  1  0  0  0
 49 50  1  0  0  0
 49 53  1  0  0  0
 49 64  1  0  0  0
 49116  1  0  0  0
 50 51  1  0  0  0
 50117  1  0  0  0
 50118  1  0  0  0
 51 52  1  0  0  0
 51119  1  0  0  0
 51120  1  0  0  0
 52121  1  0  0  0
 52122  1  0  0  0
 53 54  1  0  0  0
 54 55  2  0  0  0
 54123  1  0  0  0
 55 57  1  0  0  0
 55124  1  0  0  0
 56 69  2  0  0  0
 57 58  2  0  0  0
 57125  1  0  0  0
 58126  1  0  0  0
 59 60  1  0  0  0
 59 61  1  0  0  0
 59 62  1  0  0  0
 60127  1  0  0  0
 60128  1  0  0  0
 60129  1  0  0  0
 61130  1  0  0  0
 61131  1  0  0  0
 61132  1  0  0  0
 62133  1  0  0  0
 62134  1  0  0  0
 62135  1  0  0  0
 63 65  1  0  0  0
 63136  1  0  0  0
 63137  1  0  0  0
 63138  1  0  0  0
 64139  1  0  0  0
 65140  1  0  0  0
 68 79  1  0  0  0
 71 72  1  0  0  0
 71 73  2  0  0  0
 71141  1  0  0  0
 72 74  2  0  0  0
 72142  1  0  0  0
 73 80  1  0  0  0
 73143  1  0  0  0
 74 80  1  0  0  0
 74 77  1  0  0  0
 75 77  1  0  0  0
 75 81  1  0  0  0
 75144  1  0  0  0
 75145  1  0  0  0
 76 77  1  0  0  0
 76 81  1  0  0  0
 76146  1  0  0  0
 76147  1  0  0  0
 77148  1  0  0  0
 78 79  1  0  0  0
 78 80  1  0  0  0
 78149  1  0  0  0
 78150  1  0  0  0
 79151  1  0  0  0
 79152  1  0  0  0
M  ISO  4   1 100  68 101  79 101  81 100
M  END
> <chiral flag>
0

> <version>
0

> <s_m_source_file>
/data/baiqing/PycharmProjects/Reinvent-master-3.2/result/LINK_invent/BTK/process_docking_weight1_custom_sum_contain_oxygen_bond_distance_aromatic_linkinvent_7_9_3/rearranged_h_0185.sdf

> <i_m_source_file_index>
68

> <r_mmod_Potential_Energy-OPLS-2005>
18280.21484375

> <r_mmod_Stretch_Energy-OPLS-2005>
11385.634765625

> <r_mmod_Bend_Energy-OPLS-2005>
1256.33251953125

> <r_mmod_Torsional_Energy-OPLS-2005>
421.046447753906

> <r_mmod_Improper_Torsional_Energy-OPLS-2005>
98.3839645385742

> <r_mmod_Van_der_Waal_Energy-OPLS-2005>
3418.75732421875

> <r_mmod_Electrostatic_Energy-OPLS-2005>
-319.281066894531

> <r_mmod_Solvation_Energy-OPLS-2005>
-223.154846191406

> <b_mmod_Minimization_Converged-OPLS-2005>
0

> <r_mmod_RMS_Derivative-OPLS-2005>
9.08246803283691

$$$$
68
                    3D
 Structure written by MMmdl.
159168  0  0  1  0            999 V2000
  -30.6833  -14.6246   20.4763 C   0  0  0  0  0  0
  -30.4164  -12.3822   19.4555 C   0  0  0  0  0  0
  -29.4982  -12.4914   18.2212 C   0  0  0  0  0  0
  -28.0226  -12.3411   18.6363 C   0  0  0  0  0  0
  -27.6446  -13.2290   19.8533 C   0  0  2  0  0  0
  -28.6913  -13.1381   20.9845 C   0  0  0  0  0  0
  -25.2531  -13.8209   20.5709 C   0  0  0  0  0  0
  -24.1809  -13.0454   20.9193 C   0  0  0  0  0  0
  -24.6397  -11.6928   20.8748 C   0  0  0  0  0  0
  -23.9073  -10.4301   21.0407 C   0  0  0  0  0  0
  -24.3623   -9.4211   21.9184 C   0  0  0  0  0  0
  -23.6293   -8.2249   22.0757 C   0  0  0  0  0  0
  -22.4278   -8.0287   21.3544 C   0  0  0  0  0  0
  -21.9916   -9.0262   20.4646 C   0  0  0  0  0  0
  -22.7245  -10.2140   20.3055 C   0  0  0  0  0  0
  -21.6858   -6.0739   22.5281 C   0  0  0  0  0  0
  -21.4018   -6.5644   23.8213 C   0  0  0  0  0  0
  -21.3656   -5.6796   24.9178 C   0  0  0  0  0  0
  -21.6046   -4.3059   24.7228 C   0  0  0  0  0  0
  -21.8822   -3.8149   23.4350 C   0  0  0  0  0  0
  -21.9193   -4.6966   22.3404 C   0  0  0  0  0  0
  -22.7829  -13.5230   21.1851 C   0  0  0  0  0  0
  -22.1662   -4.2147   21.0981 F   0  0  0  0  0  0
  -21.5622   -3.4544   25.7742 F   0  0  0  0  0  0
  -30.0008  -13.4401   20.3973 N   0  0  0  0  0  0
  -26.2957  -12.9407   20.3316 N   0  0  0  0  0  0
  -25.9328  -11.6552   20.5772 N   0  0  0  0  0  0
  -22.0480  -12.8212   22.0408 N   0  0  0  0  0  0
  -25.4260  -15.1932   20.4159 N   0  0  0  0  0  0
  -31.8803  -14.6802   20.1774 O   0  0  0  0  0  0
  -21.6642   -6.8882   21.4241 O   0  0  0  0  0  0
  -22.3505  -14.5534   20.6700 O   0  0  0  0  0  0
  -24.6266  -31.8625   23.2063 C   0  0  0  0  0  0
  -25.9119  -32.4795   23.8378 C   0  0  1  0  0  0
  -27.2089  -27.3173   20.1065 C   0  0  0  0  0  0
  -25.5941  -33.8596   24.2303 N   0  0  0  0  0  0
  -23.4187  -30.4909   21.5503 C   0  0  2  0  0  0
  -24.8609  -28.9567   20.1093 C   0  0  0  0  0  0
  -22.7473  -29.4647   22.4944 C   0  0  0  0  0  0
  -18.0285  -28.1382   22.8493 C   0  0  0  0  0  0
  -24.1487  -36.7295   23.2631 C   0  0  0  0  0  0
  -25.9629  -30.7919   21.3801 C   0  0  0  0  0  0
  -26.0340  -29.4225   20.7166 C   0  0  0  0  0  0
  -27.2116  -28.6144   20.7092 C   0  0  0  0  0  0
  -26.0093  -26.9196   19.4631 C   0  0  0  0  0  0
  -24.8508  -27.7101   19.4746 C   0  0  0  0  0  0
  -23.6313  -29.8364   20.1628 C   0  0  0  0  0  0
  -25.4112  -36.3094   24.0332 C   0  0  1  0  0  0
  -20.5889  -28.3697   23.1281 C   0  0  2  0  0  0
  -20.6781  -26.9421   22.5408 C   0  0  0  0  0  0
  -19.5755  -26.6384   21.5210 C   0  0  0  0  0  0
  -18.1933  -26.7924   22.1626 C   0  0  0  0  0  0
  -19.1539  -28.8854   23.2880 C   0  0  0  0  0  0
  -18.9461  -30.1455   23.8900 C   0  0  0  0  0  0
  -17.6463  -30.6589   24.0565 C   0  0  0  0  0  0
  -25.9056  -34.9462   23.5113 C   0  0  0  0  0  0
  -16.5354  -29.9090   23.6329 C   0  0  0  0  0  0
  -16.7272  -28.6500   23.0360 C   0  0  0  0  0  0
  -26.4497  -31.6594   25.0739 C   0  0  0  0  0  0
  -25.3728  -31.3726   26.1464 C   0  0  0  0  0  0
  -27.0343  -30.3020   24.6189 C   0  0  0  0  0  0
  -27.6058  -32.4322   25.7514 C   0  0  0  0  0  0
  -27.5590  -37.1792   24.8453 C   0  0  0  0  0  0
  -21.4187  -29.3057   22.3678 N   0  0  0  0  0  0
  -26.4286  -37.3797   23.9423 N   0  0  0  0  0  0
  -24.6884  -31.0638   22.1023 N   0  0  0  0  0  0
  -23.4198  -28.8167   23.3006 O   0  0  0  0  0  0
  -28.3010  -26.4313   20.1715 O   0  0  0  0  0  0
  -26.5617  -34.8927   22.4675 O   0  0  0  0  0  0
  -23.5429  -32.1429   23.7384 O   0  0  0  0  0  0
  -30.3621  -24.0846   20.4165 C   0  0  0  0  0  0
  -28.9879  -23.8501   20.2697 C   0  0  0  0  0  0
  -31.1773  -22.9616   20.5827 C   0  0  0  0  0  0
  -29.3930  -21.5431   20.4672 C   0  0  0  0  0  0
  -29.0099  -17.9184   19.4180 C   0  0  0  0  0  0
  -29.6444  -18.1262   21.7537 C   0  0  0  0  0  0
  -29.7757  -16.5552   19.3307 C   0  0  0  0  0  0
  -30.4035  -16.7521   21.6668 C   0  0  0  0  0  0
  -29.6235  -18.9224   20.4244 C   0  0  0  0  0  0
  -27.9725  -24.9971   19.9669 C   0  0  0  0  0  0
  -28.5231  -22.5542   20.3025 N   0  0  0  0  0  0
  -30.7027  -21.7051   20.6076 N   0  0  0  0  0  0
  -29.9705  -15.8031   20.6021 N   0  0  0  0  0  0
  -32.5466  -23.0961   20.7304 N   0  0  0  0  0  0
  -28.8883  -20.2261   20.4829 N   0  0  0  0  0  0
  -31.4614  -12.4734   19.1544 H   0  0  0  0  0  0
  -30.3241  -11.4006   19.9232 H   0  0  0  0  0  0
  -29.7584  -11.7282   17.4867 H   0  0  0  0  0  0
  -29.6480  -13.4540   17.7296 H   0  0  0  0  0  0
  -27.8562  -11.2909   18.8786 H   0  0  0  0  0  0
  -27.3695  -12.5623   17.7912 H   0  0  0  0  0  0
  -27.6466  -14.2565   19.4897 H   0  0  0  0  0  0
  -28.6971  -12.1448   21.4349 H   0  0  0  0  0  0
  -28.4522  -13.8410   21.7843 H   0  0  0  0  0  0
  -25.2772   -9.5690   22.4753 H   0  0  0  0  0  0
  -24.0004   -7.4647   22.7484 H   0  0  0  0  0  0
  -21.0848   -8.8784   19.8949 H   0  0  0  0  0  0
  -22.3707  -10.9681   19.6162 H   0  0  0  0  0  0
  -21.2019   -7.6154   23.9714 H   0  0  0  0  0  0
  -21.1469   -6.0531   25.9078 H   0  0  0  0  0  0
  -22.0603   -2.7610   23.2855 H   0  0  0  0  0  0
  -22.4106  -11.9869   22.4782 H   0  0  0  0  0  0
  -21.1098  -13.1229   22.2625 H   0  0  0  0  0  0
  -24.6687  -15.8561   20.5409 H   0  0  0  0  0  0
  -26.2967  -15.6311   20.1411 H   0  0  0  0  0  0
  -26.7184  -32.5462   23.1122 H   0  0  0  0  0  0
  -25.0093  -33.9754   25.0451 H   0  0  0  0  0  0
  -22.7126  -31.3124   21.4136 H   0  0  0  0  0  0
  -23.3772  -35.9601   23.3257 H   0  0  0  0  0  0
  -24.3590  -36.8955   22.2056 H   0  0  0  0  0  0
  -23.7208  -37.6470   23.6680 H   0  0  0  0  0  0
  -26.0973  -31.5571   20.6142 H   0  0  0  0  0  0
  -26.8435  -30.8364   22.0095 H   0  0  0  0  0  0
  -28.1071  -28.9642   21.2040 H   0  0  0  0  0  0
  -25.9118  -25.9763   18.9489 H   0  0  0  0  0  0
  -23.9534  -27.3500   18.9900 H   0  0  0  0  0  0
  -23.7519  -30.6177   19.4118 H   0  0  0  0  0  0
  -22.7501  -29.2693   19.8578 H   0  0  0  0  0  0
  -25.1276  -36.1947   25.0827 H   0  0  0  0  0  0
  -20.9980  -28.3274   24.1402 H   0  0  0  0  0  0
  -20.5692  -26.2304   23.3607 H   0  0  0  0  0  0
  -21.6651  -26.7463   22.1201 H   0  0  0  0  0  0
  -19.6924  -25.6294   21.1237 H   0  0  0  0  0  0
  -19.6683  -27.3191   20.6734 H   0  0  0  0  0  0
  -17.4204  -26.6682   21.4023 H   0  0  0  0  0  0
  -18.0328  -26.0062   22.9016 H   0  0  0  0  0  0
  -19.7939  -30.7265   24.2279 H   0  0  0  0  0  0
  -17.5022  -31.6272   24.5160 H   0  0  0  0  0  0
  -15.5356  -30.2997   23.7645 H   0  0  0  0  0  0
  -15.8671  -28.0810   22.7091 H   0  0  0  0  0  0
  -24.5907  -30.7071   25.7789 H   0  0  0  0  0  0
  -24.8909  -32.2887   26.4885 H   0  0  0  0  0  0
  -25.8052  -30.8905   27.0242 H   0  0  0  0  0  0
  -26.2925  -29.6770   24.1203 H   0  0  0  0  0  0
  -27.4034  -29.7270   25.4690 H   0  0  0  0  0  0
  -27.8796  -30.4306   23.9426 H   0  0  0  0  0  0
  -27.2674  -33.3623   26.2095 H   0  0  0  0  0  0
  -28.3874  -32.6881   25.0346 H   0  0  0  0  0  0
  -28.0723  -31.8442   26.5429 H   0  0  0  0  0  0
  -28.2560  -38.0138   24.7586 H   0  0  0  0  0  0
  -28.1139  -36.2676   24.6171 H   0  0  0  0  0  0
  -27.2323  -37.1310   25.8857 H   0  0  0  0  0  0
  -20.9353  -29.8796   21.6911 H   0  0  0  0  0  0
  -26.0163  -38.2859   24.1478 H   0  0  0  0  0  0
  -30.7535  -25.0925   20.3809 H   0  0  0  0  0  0
  -27.9689  -17.7212   19.6799 H   0  0  0  0  0  0
  -28.9866  -18.3704   18.4249 H   0  0  0  0  0  0
  -30.1046  -18.7364   22.5321 H   0  0  0  0  0  0
  -28.6213  -17.9431   22.0861 H   0  0  0  0  0  0
  -30.7545  -16.7469   18.8852 H   0  0  0  0  0  0
  -29.2538  -15.9106   18.6214 H   0  0  0  0  0  0
  -30.3218  -16.2463   22.6305 H   0  0  0  0  0  0
  -31.4667  -16.9617   21.5336 H   0  0  0  0  0  0
  -30.6515  -19.1307   20.1230 H   0  0  0  0  0  0
  -27.0832  -24.7573   20.5523 H   0  0  0  0  0  0
  -27.7184  -24.8580   18.9160 H   0  0  0  0  0  0
  -32.9840  -23.9660   20.4533 H   0  0  0  0  0  0
  -33.1261  -22.2775   20.5936 H   0  0  0  0  0  0
  -27.8830  -20.1729   20.3763 H   0  0  0  0  0  0
  1 25  1  0  0  0
  1 30  2  0  0  0
  1 83  1  0  0  0
  2  3  1  0  0  0
  2 25  1  0  0  0
  2 86  1  0  0  0
  2 87  1  0  0  0
  3  4  1  0  0  0
  3 88  1  0  0  0
  3 89  1  0  0  0
  4  5  1  0  0  0
  4 90  1  0  0  0
  4 91  1  0  0  0
  5  6  1  0  0  0
  5 26  1  0  0  0
  5 92  1  0  0  0
  6 25  1  0  0  0
  6 93  1  0  0  0
  6 94  1  0  0  0
  7  8  2  0  0  0
  7 26  1  0  0  0
  7 29  1  0  0  0
  8  9  1  0  0  0
  8 22  1  0  0  0
  9 10  1  0  0  0
  9 27  2  0  0  0
 10 11  2  0  0  0
 10 15  1  0  0  0
 11 12  1  0  0  0
 11 95  1  0  0  0
 12 13  2  0  0  0
 12 96  1  0  0  0
 13 14  1  0  0  0
 13 31  1  0  0  0
 14 15  2  0  0  0
 14 97  1  0  0  0
 15 98  1  0  0  0
 16 17  2  0  0  0
 16 21  1  0  0  0
 16 31  1  0  0  0
 17 18  1  0  0  0
 17 99  1  0  0  0
 18 19  2  0  0  0
 18100  1  0  0  0
 19 20  1  0  0  0
 19 24  1  0  0  0
 20 21  2  0  0  0
 20101  1  0  0  0
 21 23  1  0  0  0
 22 28  1  0  0  0
 22 32  2  0  0  0
 26 27  1  0  0  0
 28102  1  0  0  0
 28103  1  0  0  0
 29104  1  0  0  0
 29105  1  0  0  0
 33 34  1  0  0  0
 33 66  1  0  0  0
 33 70  2  0  0  0
 34 36  1  0  0  0
 34 59  1  0  0  0
 34106  1  0  0  0
 35 44  2  0  0  0
 35 45  1  0  0  0
 35 68  1  0  0  0
 36 56  1  0  0  0
 36107  1  0  0  0
 37 39  1  0  0  0
 37 47  1  0  0  0
 37 66  1  0  0  0
 37108  1  0  0  0
 38 43  2  0  0  0
 38 46  1  0  0  0
 38 47  1  0  0  0
 39 64  1  0  0  0
 39 67  2  0  0  0
 40 52  1  0  0  0
 40 53  2  0  0  0
 40 58  1  0  0  0
 41109  1  0  0  0
 41110  1  0  0  0
 41111  1  0  0  0
 41 48  1  0  0  0
 42 43  1  0  0  0
 42 66  1  0  0  0
 42112  1  0  0  0
 42113  1  0  0  0
 43 44  1  0  0  0
 44114  1  0  0  0
 45 46  2  0  0  0
 45115  1  0  0  0
 46116  1  0  0  0
 47117  1  0  0  0
 47118  1  0  0  0
 48 56  1  0  0  0
 48 65  1  0  0  0
 48119  1  0  0  0
 49 50  1  0  0  0
 49 53  1  0  0  0
 49 64  1  0  0  0
 49120  1  0  0  0
 50 51  1  0  0  0
 50121  1  0  0  0
 50122  1  0  0  0
 51 52  1  0  0  0
 51123  1  0  0  0
 51124  1  0  0  0
 52125  1  0  0  0
 52126  1  0  0  0
 53 54  1  0  0  0
 54 55  2  0  0  0
 54127  1  0  0  0
 55 57  1  0  0  0
 55128  1  0  0  0
 56 69  2  0  0  0
 57 58  2  0  0  0
 57129  1  0  0  0
 58130  1  0  0  0
 59 60  1  0  0  0
 59 61  1  0  0  0
 59 62  1  0  0  0
 60131  1  0  0  0
 60132  1  0  0  0
 60133  1  0  0  0
 61134  1  0  0  0
 61135  1  0  0  0
 61136  1  0  0  0
 62137  1  0  0  0
 62138  1  0  0  0
 62139  1  0  0  0
 63 65  1  0  0  0
 63140  1  0  0  0
 63141  1  0  0  0
 63142  1  0  0  0
 64143  1  0  0  0
 65144  1  0  0  0
 68 80  1  0  0  0
 71 72  2  0  0  0
 71 73  1  0  0  0
 71145  1  0  0  0
 72 80  1  0  0  0
 72 81  1  0  0  0
 73 82  2  0  0  0
 73 84  1  0  0  0
 74 81  2  0  0  0
 74 82  1  0  0  0
 74 85  1  0  0  0
 75 77  1  0  0  0
 75 79  1  0  0  0
 75146  1  0  0  0
 75147  1  0  0  0
 76 78  1  0  0  0
 76 79  1  0  0  0
 76148  1  0  0  0
 76149  1  0  0  0
 77 83  1  0  0  0
 77150  1  0  0  0
 77151  1  0  0  0
 78 83  1  0  0  0
 78152  1  0  0  0
 78153  1  0  0  0
 79 85  1  0  0  0
 79154  1  0  0  0
 80155  1  0  0  0
 80156  1  0  0  0
 84157  1  0  0  0
 84158  1  0  0  0
 85159  1  0  0  0
M  ISO  4   1 100  68 101  80 101  83 100
M  END
> <chiral flag>
0

> <version>
0

> <s_m_source_file>
/data/baiqing/PycharmProjects/Reinvent-master-3.2/result/LINK_invent/BTK/process_docking_weight1_custom_sum_contain_oxygen_bond_distance_aromatic_linkinvent_7_9_3/rearranged_h_0185.sdf

> <i_m_source_file_index>
69

> <r_mmod_Potential_Energy-OPLS-2005>
-349.970855712891

> <r_mmod_Stretch_Energy-OPLS-2005>
72.9851837158203

> <r_mmod_Bend_Energy-OPLS-2005>
158.147720336914

> <r_mmod_Torsional_Energy-OPLS-2005>
323.870025634766

> <r_mmod_Improper_Torsional_Energy-OPLS-2005>
14.7240200042725

> <r_mmod_Van_der_Waal_Energy-OPLS-2005>
159.909942626953

> <r_mmod_Electrostatic_Energy-OPLS-2005>
-898.607055664062

> <r_mmod_Solvation_Energy-OPLS-2005>
-235.806838989258

> <b_mmod_Minimization_Converged-OPLS-2005>
0

> <r_mmod_RMS_Derivative-OPLS-2005>
0.798382580280304

$$$$
69
                    3D
 Structure written by MMmdl.
161170  0  0  1  0            999 V2000
  -30.6968  -14.6163   20.4914 C   0  0  0  0  0  0
  -30.4136  -12.3810   19.4567 C   0  0  0  0  0  0
  -29.4969  -12.4926   18.2216 C   0  0  0  0  0  0
  -28.0219  -12.3403   18.6372 C   0  0  0  0  0  0
  -27.6444  -13.2296   19.8532 C   0  0  2  0  0  0
  -28.6903  -13.1362   20.9854 C   0  0  0  0  0  0
  -25.2521  -13.8206   20.5703 C   0  0  0  0  0  0
  -24.1806  -13.0449   20.9206 C   0  0  0  0  0  0
  -24.6396  -11.6926   20.8752 C   0  0  0  0  0  0
  -23.9076  -10.4298   21.0412 C   0  0  0  0  0  0
  -24.3628   -9.4209   21.9185 C   0  0  0  0  0  0
  -23.6300   -8.2244   22.0754 C   0  0  0  0  0  0
  -22.4280   -8.0284   21.3547 C   0  0  0  0  0  0
  -21.9919   -9.0260   20.4647 C   0  0  0  0  0  0
  -22.7249  -10.2139   20.3059 C   0  0  0  0  0  0
  -21.6853   -6.0739   22.5281 C   0  0  0  0  0  0
  -21.4016   -6.5643   23.8215 C   0  0  0  0  0  0
  -21.3661   -5.6795   24.9178 C   0  0  0  0  0  0
  -21.6045   -4.3059   24.7227 C   0  0  0  0  0  0
  -21.8822   -3.8150   23.4348 C   0  0  0  0  0  0
  -21.9192   -4.6965   22.3404 C   0  0  0  0  0  0
  -22.7827  -13.5226   21.1867 C   0  0  0  0  0  0
  -22.1661   -4.2150   21.0980 F   0  0  0  0  0  0
  -21.5630   -3.4542   25.7741 F   0  0  0  0  0  0
  -30.0006  -13.4403   20.4002 N   0  0  0  0  0  0
  -26.2950  -12.9413   20.3305 N   0  0  0  0  0  0
  -25.9327  -11.6556   20.5769 N   0  0  0  0  0  0
  -22.0476  -12.8209   22.0423 N   0  0  0  0  0  0
  -25.4238  -15.1925   20.4116 N   0  0  0  0  0  0
  -31.8869  -14.6587   20.1675 O   0  0  0  0  0  0
  -21.6643   -6.8882   21.4242 O   0  0  0  0  0  0
  -22.3507  -14.5530   20.6716 O   0  0  0  0  0  0
  -24.6268  -31.8622   23.2070 C   0  0  0  0  0  0
  -25.9120  -32.4792   23.8385 C   0  0  1  0  0  0
  -27.2059  -27.3178   20.1067 C   0  0  0  0  0  0
  -25.5937  -33.8594   24.2303 N   0  0  0  0  0  0
  -23.4188  -30.4918   21.5506 C   0  0  2  0  0  0
  -24.8612  -28.9594   20.1086 C   0  0  0  0  0  0
  -22.7479  -29.4642   22.4937 C   0  0  0  0  0  0
  -18.0288  -28.1385   22.8487 C   0  0  0  0  0  0
  -24.1490  -36.7296   23.2636 C   0  0  0  0  0  0
  -25.9639  -30.7922   21.3815 C   0  0  0  0  0  0
  -26.0343  -29.4234   20.7174 C   0  0  0  0  0  0
  -27.2111  -28.6138   20.7111 C   0  0  0  0  0  0
  -26.0087  -26.9262   19.4553 C   0  0  0  0  0  0
  -24.8506  -27.7157   19.4697 C   0  0  0  0  0  0
  -23.6320  -29.8396   20.1623 C   0  0  0  0  0  0
  -25.4114  -36.3091   24.0331 C   0  0  1  0  0  0
  -20.5890  -28.3692   23.1279 C   0  0  2  0  0  0
  -20.6778  -26.9415   22.5405 C   0  0  0  0  0  0
  -19.5750  -26.6386   21.5210 C   0  0  0  0  0  0
  -18.1931  -26.7928   22.1626 C   0  0  0  0  0  0
  -19.1542  -28.8855   23.2880 C   0  0  0  0  0  0
  -18.9463  -30.1458   23.8897 C   0  0  0  0  0  0
  -17.6463  -30.6587   24.0563 C   0  0  0  0  0  0
  -25.9054  -34.9460   23.5113 C   0  0  0  0  0  0
  -16.5354  -29.9086   23.6330 C   0  0  0  0  0  0
  -16.7275  -28.6504   23.0352 C   0  0  0  0  0  0
  -26.4500  -31.6597   25.0751 C   0  0  0  0  0  0
  -25.3731  -31.3735   26.1476 C   0  0  0  0  0  0
  -27.0340  -30.3017   24.6210 C   0  0  0  0  0  0
  -27.6060  -32.4330   25.7518 C   0  0  0  0  0  0
  -27.5585  -37.1801   24.8461 C   0  0  0  0  0  0
  -21.4191  -29.3051   22.3676 N   0  0  0  0  0  0
  -26.4290  -37.3786   23.9414 N   0  0  0  0  0  0
  -24.6889  -31.0642   22.1026 N   0  0  0  0  0  0
  -23.4210  -28.8159   23.2994 O   0  0  0  0  0  0
  -28.2914  -26.4242   20.1813 O   0  0  0  0  0  0
  -26.5616  -34.8918   22.4677 O   0  0  0  0  0  0
  -23.5431  -32.1418   23.7398 O   0  0  0  0  0  0
  -30.5464  -21.6626   20.7993 C   0  0  0  0  0  0
  -31.0201  -22.9923   20.7154 C   0  0  0  0  0  0
  -29.1647  -21.4731   20.6273 C   0  0  0  0  0  0
  -28.9040  -23.8081   20.3343 C   0  0  0  0  0  0
  -30.3159  -16.8096   19.5024 C   0  0  0  0  0  0
  -29.8808  -16.5108   21.8475 C   0  0  0  0  0  0
  -29.4326  -18.0993   19.4715 C   0  0  0  0  0  0
  -29.0256  -17.8320   21.8402 C   0  0  0  0  0  0
  -32.4902  -23.3146   20.8792 C   0  0  0  0  0  0
  -28.4991  -20.0648   20.7633 C   0  0  0  0  0  0
  -27.9460  -24.9937   19.9705 C   0  0  0  0  0  0
  -30.2045  -24.0501   20.4860 N   0  0  0  0  0  0
  -28.3667  -22.5651   20.3954 N   0  0  0  0  0  0
  -29.9908  -15.8031   20.5513 N   0  0  0  0  0  0
  -29.3779  -18.8225   20.7725 N   0  3  0  0  0  0
  -31.3763  -20.6172   21.0452 F   0  0  0  0  0  0
  -31.4595  -12.4639   19.1562 H   0  0  0  0  0  0
  -30.3152  -11.3991   19.9230 H   0  0  0  0  0  0
  -29.7576  -11.7300   17.4862 H   0  0  0  0  0  0
  -29.6458  -13.4562   17.7312 H   0  0  0  0  0  0
  -27.8589  -11.2901   18.8829 H   0  0  0  0  0  0
  -27.3670  -12.5588   17.7930 H   0  0  0  0  0  0
  -27.6506  -14.2575   19.4898 H   0  0  0  0  0  0
  -28.6953  -12.1400   21.4305 H   0  0  0  0  0  0
  -28.4457  -13.8314   21.7890 H   0  0  0  0  0  0
  -25.2777   -9.5682   22.4755 H   0  0  0  0  0  0
  -24.0012   -7.4636   22.7471 H   0  0  0  0  0  0
  -21.0852   -8.8782   19.8950 H   0  0  0  0  0  0
  -22.3713  -10.9679   19.6167 H   0  0  0  0  0  0
  -21.2008   -7.6152   23.9718 H   0  0  0  0  0  0
  -21.1480   -6.0527   25.9081 H   0  0  0  0  0  0
  -22.0596   -2.7610   23.2850 H   0  0  0  0  0  0
  -22.4098  -11.9870   22.4807 H   0  0  0  0  0  0
  -21.1089  -13.1219   22.2633 H   0  0  0  0  0  0
  -24.6560  -15.8474   20.5129 H   0  0  0  0  0  0
  -26.2743  -15.6241   20.0750 H   0  0  0  0  0  0
  -26.7186  -32.5458   23.1132 H   0  0  0  0  0  0
  -25.0086  -33.9746   25.0448 H   0  0  0  0  0  0
  -22.7122  -31.3134   21.4143 H   0  0  0  0  0  0
  -23.3758  -35.9622   23.3288 H   0  0  0  0  0  0
  -24.3585  -36.8927   22.2053 H   0  0  0  0  0  0
  -23.7233  -37.6491   23.6663 H   0  0  0  0  0  0
  -26.1007  -31.5593   20.6178 H   0  0  0  0  0  0
  -26.8429  -30.8338   22.0131 H   0  0  0  0  0  0
  -28.1062  -28.9604   21.2086 H   0  0  0  0  0  0
  -25.9117  -25.9871   18.9334 H   0  0  0  0  0  0
  -23.9535  -27.3578   18.9829 H   0  0  0  0  0  0
  -23.7544  -30.6221   19.4126 H   0  0  0  0  0  0
  -22.7503  -29.2744   19.8545 H   0  0  0  0  0  0
  -25.1289  -36.1946   25.0823 H   0  0  0  0  0  0
  -20.9985  -28.3264   24.1399 H   0  0  0  0  0  0
  -20.5684  -26.2300   23.3605 H   0  0  0  0  0  0
  -21.6645  -26.7446   22.1195 H   0  0  0  0  0  0
  -19.6910  -25.6298   21.1239 H   0  0  0  0  0  0
  -19.6683  -27.3197   20.6741 H   0  0  0  0  0  0
  -17.4198  -26.6675   21.4032 H   0  0  0  0  0  0
  -18.0333  -26.0071   22.9025 H   0  0  0  0  0  0
  -19.7938  -30.7274   24.2265 H   0  0  0  0  0  0
  -17.5017  -31.6266   24.5168 H   0  0  0  0  0  0
  -15.5354  -30.2990   23.7653 H   0  0  0  0  0  0
  -15.8676  -28.0824   22.7066 H   0  0  0  0  0  0
  -24.5906  -30.7084   25.7805 H   0  0  0  0  0  0
  -24.8922  -32.2903   26.4899 H   0  0  0  0  0  0
  -25.8056  -30.8915   27.0252 H   0  0  0  0  0  0
  -26.2916  -29.6774   24.1222 H   0  0  0  0  0  0
  -27.4015  -29.7270   25.4722 H   0  0  0  0  0  0
  -27.8801  -30.4297   23.9454 H   0  0  0  0  0  0
  -27.2671  -33.3628   26.2100 H   0  0  0  0  0  0
  -28.3867  -32.6896   25.0343 H   0  0  0  0  0  0
  -28.0733  -31.8453   26.5430 H   0  0  0  0  0  0
  -28.2587  -38.0114   24.7536 H   0  0  0  0  0  0
  -28.1098  -36.2648   24.6252 H   0  0  0  0  0  0
  -27.2307  -37.1405   25.8863 H   0  0  0  0  0  0
  -20.9362  -29.8799   21.6912 H   0  0  0  0  0  0
  -26.0172  -38.2858   24.1435 H   0  0  0  0  0  0
  -31.3583  -17.1165   19.6145 H   0  0  0  0  0  0
  -30.2546  -16.3300   18.5231 H   0  0  0  0  0  0
  -29.4682  -15.8313   22.5947 H   0  0  0  0  0  0
  -30.8894  -16.7473   22.1929 H   0  0  0  0  0  0
  -28.4201  -17.8218   19.1731 H   0  0  0  0  0  0
  -29.8029  -18.7763   18.7003 H   0  0  0  0  0  0
  -29.1078  -18.3131   22.8164 H   0  0  0  0  0  0
  -27.9745  -17.5611   21.7257 H   0  0  0  0  0  0
  -33.0945  -22.4087   20.9175 H   0  0  0  0  0  0
  -32.6540  -23.8715   21.8010 H   0  0  0  0  0  0
  -32.8432  -23.9178   20.0431 H   0  0  0  0  0  0
  -27.7364  -19.9684   19.9906 H   0  0  0  0  0  0
  -27.9461  -20.1029   21.7019 H   0  0  0  0  0  0
  -27.0263  -24.7760   20.5167 H   0  0  0  0  0  0
  -27.7329  -24.8557   18.9102 H   0  0  0  0  0  0
  -30.3025  -19.1931   20.9707 H   0  0  0  0  0  0
  1 25  1  0  0  0
  1 30  2  0  0  0
  1 84  1  0  0  0
  2  3  1  0  0  0
  2 25  1  0  0  0
  2 87  1  0  0  0
  2 88  1  0  0  0
  3  4  1  0  0  0
  3 89  1  0  0  0
  3 90  1  0  0  0
  4  5  1  0  0  0
  4 91  1  0  0  0
  4 92  1  0  0  0
  5  6  1  0  0  0
  5 26  1  0  0  0
  5 93  1  0  0  0
  6 25  1  0  0  0
  6 94  1  0  0  0
  6 95  1  0  0  0
  7  8  2  0  0  0
  7 26  1  0  0  0
  7 29  1  0  0  0
  8  9  1  0  0  0
  8 22  1  0  0  0
  9 10  1  0  0  0
  9 27  2  0  0  0
 10 11  2  0  0  0
 10 15  1  0  0  0
 11 12  1  0  0  0
 11 96  1  0  0  0
 12 13  2  0  0  0
 12 97  1  0  0  0
 13 14  1  0  0  0
 13 31  1  0  0  0
 14 15  2  0  0  0
 14 98  1  0  0  0
 15 99  1  0  0  0
 16 17  2  0  0  0
 16 21  1  0  0  0
 16 31  1  0  0  0
 17 18  1  0  0  0
 17100  1  0  0  0
 18 19  2  0  0  0
 18101  1  0  0  0
 19 20  1  0  0  0
 19 24  1  0  0  0
 20 21  2  0  0  0
 20102  1  0  0  0
 21 23  1  0  0  0
 22 28  1  0  0  0
 22 32  2  0  0  0
 26 27  1  0  0  0
 28103  1  0  0  0
 28104  1  0  0  0
 29105  1  0  0  0
 29106  1  0  0  0
 33 34  1  0  0  0
 33 66  1  0  0  0
 33 70  2  0  0  0
 34 36  1  0  0  0
 34 59  1  0  0  0
 34107  1  0  0  0
 35 44  2  0  0  0
 35 45  1  0  0  0
 35 68  1  0  0  0
 36 56  1  0  0  0
 36108  1  0  0  0
 37 39  1  0  0  0
 37 47  1  0  0  0
 37 66  1  0  0  0
 37109  1  0  0  0
 38 43  2  0  0  0
 38 46  1  0  0  0
 38 47  1  0  0  0
 39 64  1  0  0  0
 39 67  2  0  0  0
 40 52  1  0  0  0
 40 53  2  0  0  0
 40 58  1  0  0  0
 41110  1  0  0  0
 41111  1  0  0  0
 41112  1  0  0  0
 41 48  1  0  0  0
 42 43  1  0  0  0
 42 66  1  0  0  0
 42113  1  0  0  0
 42114  1  0  0  0
 43 44  1  0  0  0
 44115  1  0  0  0
 45 46  2  0  0  0
 45116  1  0  0  0
 46117  1  0  0  0
 47118  1  0  0  0
 47119  1  0  0  0
 48 56  1  0  0  0
 48 65  1  0  0  0
 48120  1  0  0  0
 49 50  1  0  0  0
 49 53  1  0  0  0
 49 64  1  0  0  0
 49121  1  0  0  0
 50 51  1  0  0  0
 50122  1  0  0  0
 50123  1  0  0  0
 51 52  1  0  0  0
 51124  1  0  0  0
 51125  1  0  0  0
 52126  1  0  0  0
 52127  1  0  0  0
 53 54  1  0  0  0
 54 55  2  0  0  0
 54128  1  0  0  0
 55 57  1  0  0  0
 55129  1  0  0  0
 56 69  2  0  0  0
 57 58  2  0  0  0
 57130  1  0  0  0
 58131  1  0  0  0
 59 60  1  0  0  0
 59 61  1  0  0  0
 59 62  1  0  0  0
 60132  1  0  0  0
 60133  1  0  0  0
 60134  1  0  0  0
 61135  1  0  0  0
 61136  1  0  0  0
 61137  1  0  0  0
 62138  1  0  0  0
 62139  1  0  0  0
 62140  1  0  0  0
 63 65  1  0  0  0
 63141  1  0  0  0
 63142  1  0  0  0
 63143  1  0  0  0
 64144  1  0  0  0
 65145  1  0  0  0
 68 81  1  0  0  0
 71 72  2  0  0  0
 71 73  1  0  0  0
 71 86  1  0  0  0
 72 79  1  0  0  0
 72 82  1  0  0  0
 73 80  1  0  0  0
 73 83  2  0  0  0
 74 81  1  0  0  0
 74 82  2  0  0  0
 74 83  1  0  0  0
 75 77  1  0  0  0
 75 84  1  0  0  0
 75146  1  0  0  0
 75147  1  0  0  0
 76 78  1  0  0  0
 76 84  1  0  0  0
 76148  1  0  0  0
 76149  1  0  0  0
 77 85  1  0  0  0
 77150  1  0  0  0
 77151  1  0  0  0
 78 85  1  0  0  0
 78152  1  0  0  0
 78153  1  0  0  0
 79154  1  0  0  0
 79155  1  0  0  0
 79156  1  0  0  0
 80157  1  0  0  0
 80158  1  0  0  0
 80 85  1  0  0  0
 81159  1  0  0  0
 81160  1  0  0  0
 85161  1  0  0  0
M  CHG  1  85   1
M  ISO  4   1 100  68 101  81 101  84 100
M  END
> <chiral flag>
0

> <version>
0

> <s_m_source_file>
/data/baiqing/PycharmProjects/Reinvent-master-3.2/result/LINK_invent/BTK/process_docking_weight1_custom_sum_contain_oxygen_bond_distance_aromatic_linkinvent_7_9_3/rearranged_h_0185.sdf

> <i_m_source_file_index>
70

> <r_mmod_Potential_Energy-OPLS-2005>
-210.752517700195

> <r_mmod_Stretch_Energy-OPLS-2005>
76.7186508178711

> <r_mmod_Bend_Energy-OPLS-2005>
149.544311523438

> <r_mmod_Torsional_Energy-OPLS-2005>
376.787811279297

> <r_mmod_Improper_Torsional_Energy-OPLS-2005>
15.8951435089111

> <r_mmod_Van_der_Waal_Energy-OPLS-2005>
166.55924987793

> <r_mmod_Electrostatic_Energy-OPLS-2005>
-590.945068359375

> <r_mmod_Solvation_Energy-OPLS-2005>
-459.872955322266

> <b_mmod_Minimization_Converged-OPLS-2005>
0

> <r_mmod_RMS_Derivative-OPLS-2005>
0.464734673500061

$$$$
70
                    3D
 Structure written by MMmdl.
155164  0  0  1  0            999 V2000
  -30.5968  -14.8466   20.4112 C   0  0  0  0  0  0
  -30.4366  -12.5224   19.4766 C   0  0  0  0  0  0
  -29.5112  -12.5100   18.2413 C   0  0  0  0  0  0
  -28.0439  -12.3041   18.6673 C   0  0  0  0  0  0
  -27.6302  -13.2261   19.8463 C   0  0  2  0  0  0
  -28.6837  -13.2469   20.9724 C   0  0  0  0  0  0
  -25.2494  -13.8160   20.5782 C   0  0  0  0  0  0
  -24.1777  -13.0406   20.9249 C   0  0  0  0  0  0
  -24.6359  -11.6883   20.8765 C   0  0  0  0  0  0
  -23.9042  -10.4274   21.0422 C   0  0  0  0  0  0
  -24.3596   -9.4196   21.9192 C   0  0  0  0  0  0
  -23.6299   -8.2213   22.0743 C   0  0  0  0  0  0
  -22.4279   -8.0242   21.3526 C   0  0  0  0  0  0
  -21.9913   -9.0217   20.4636 C   0  0  0  0  0  0
  -22.7217  -10.2110   20.3063 C   0  0  0  0  0  0
  -21.6838   -6.0728   22.5291 C   0  0  0  0  0  0
  -21.4003   -6.5637   23.8223 C   0  0  0  0  0  0
  -21.3665   -5.6794   24.9190 C   0  0  0  0  0  0
  -21.6046   -4.3057   24.7234 C   0  0  0  0  0  0
  -21.8818   -3.8141   23.4359 C   0  0  0  0  0  0
  -21.9193   -4.6954   22.3412 C   0  0  0  0  0  0
  -22.7797  -13.5186   21.1892 C   0  0  0  0  0  0
  -22.1648   -4.2145   21.0986 F   0  0  0  0  0  0
  -21.5641   -3.4543   25.7746 F   0  0  0  0  0  0
  -29.9643  -13.6152   20.3611 N   0  0  0  0  0  0
  -26.2898  -12.9340   20.3361 N   0  0  0  0  0  0
  -25.9296  -11.6495   20.5817 N   0  0  0  0  0  0
  -22.0424  -12.8214   22.0456 N   0  0  0  0  0  0
  -25.4238  -15.1878   20.4220 N   0  0  0  0  0  0
  -31.8170  -14.8866   20.2286 O   0  0  0  0  0  0
  -21.6624   -6.8860   21.4248 O   0  0  0  0  0  0
  -22.3510  -14.5506   20.6743 O   0  0  0  0  0  0
  -24.6365  -31.8507   23.1957 C   0  0  0  0  0  0
  -25.9176  -32.4729   23.8327 C   0  0  1  0  0  0
  -27.2186  -27.2222   20.1142 C   0  0  0  0  0  0
  -25.5949  -33.8542   24.2239 N   0  0  0  0  0  0
  -23.4347  -30.4736   21.5410 C   0  0  2  0  0  0
  -24.8827  -28.9207   20.1055 C   0  0  0  0  0  0
  -22.7528  -29.4583   22.4895 C   0  0  0  0  0  0
  -18.0289  -28.1389   22.8475 C   0  0  0  0  0  0
  -24.1486  -36.7277   23.2638 C   0  0  0  0  0  0
  -25.9848  -30.7491   21.3845 C   0  0  0  0  0  0
  -26.0568  -29.3695   20.7239 C   0  0  0  0  0  0
  -27.2264  -28.5328   20.7199 C   0  0  0  0  0  0
  -26.0215  -26.8655   19.4509 C   0  0  0  0  0  0
  -24.8739  -27.6790   19.4560 C   0  0  0  0  0  0
  -23.6552  -29.8110   20.1561 C   0  0  0  0  0  0
  -25.4111  -36.3055   24.0319 C   0  0  1  0  0  0
  -20.5898  -28.3710   23.1241 C   0  0  2  0  0  0
  -20.6775  -26.9419   22.5396 C   0  0  0  0  0  0
  -19.5756  -26.6380   21.5204 C   0  0  0  0  0  0
  -18.1936  -26.7927   22.1618 C   0  0  0  0  0  0
  -19.1544  -28.8866   23.2855 C   0  0  0  0  0  0
  -18.9469  -30.1465   23.8883 C   0  0  0  0  0  0
  -17.6470  -30.6587   24.0560 C   0  0  0  0  0  0
  -25.9061  -34.9426   23.5089 C   0  0  0  0  0  0
  -16.5358  -29.9089   23.6330 C   0  0  0  0  0  0
  -16.7279  -28.6506   23.0344 C   0  0  0  0  0  0
  -26.4522  -31.6561   25.0733 C   0  0  0  0  0  0
  -25.3738  -31.3723   26.1451 C   0  0  0  0  0  0
  -27.0366  -30.2965   24.6248 C   0  0  0  0  0  0
  -27.6071  -32.4308   25.7518 C   0  0  0  0  0  0
  -27.5576  -37.1791   24.8458 C   0  0  0  0  0  0
  -21.4227  -29.3058   22.3643 N   0  0  0  0  0  0
  -26.4279  -37.3759   23.9413 N   0  0  0  0  0  0
  -24.7044  -31.0433   22.0960 N   0  0  0  0  0  0
  -23.4205  -28.8121   23.3011 O   0  0  0  0  0  0
  -28.2908  -26.2824   20.1813 O   0  0  0  0  0  0
  -26.5643  -34.8905   22.4659 O   0  0  0  0  0  0
  -23.5501  -32.1367   23.7213 O   0  0  0  0  0  0
  -29.0288  -20.0048   20.9011 C   0  0  0  0  0  0
  -28.7512  -17.9660   19.2930 C   0  0  0  0  0  0
  -29.3236  -16.5355   19.1091 C   0  0  0  0  0  0
  -30.1508  -17.3824   21.0862 C   0  0  0  0  0  0
  -28.8495  -22.1412   19.3882 C   0  0  0  0  0  0
  -28.8234  -22.5365   21.3774 C   0  0  0  0  0  0
  -29.7124  -18.6949   20.2298 C   0  0  2  0  0  0
  -28.9846  -23.5222   20.1659 C   0  0  0  0  0  0
  -28.0237  -24.8155   19.8669 C   0  0  0  0  0  0
  -29.3503  -21.3959   20.5710 N   0  0  0  0  0  0
  -29.8431  -16.0425   20.4004 N   0  0  0  0  0  0
  -28.2491  -19.8016   21.8328 O   0  0  0  0  0  0
  -31.4739  -12.6644   19.1665 H   0  0  0  0  0  0
  -30.4077  -11.5646   19.9983 H   0  0  0  0  0  0
  -29.8162  -11.7208   17.5541 H   0  0  0  0  0  0
  -29.6149  -13.4519   17.6992 H   0  0  0  0  0  0
  -27.9345  -11.2599   18.9629 H   0  0  0  0  0  0
  -27.3749  -12.4478   17.8188 H   0  0  0  0  0  0
  -27.5815  -14.2274   19.4340 H   0  0  0  0  0  0
  -28.7533  -12.2768   21.4665 H   0  0  0  0  0  0
  -28.4056  -13.9721   21.7401 H   0  0  0  0  0  0
  -25.2735   -9.5677   22.4786 H   0  0  0  0  0  0
  -24.0006   -7.4598   22.7447 H   0  0  0  0  0  0
  -21.0842   -8.8728   19.8950 H   0  0  0  0  0  0
  -22.3655  -10.9655   19.6184 H   0  0  0  0  0  0
  -21.1984   -7.6146   23.9744 H   0  0  0  0  0  0
  -21.1492   -6.0512   25.9103 H   0  0  0  0  0  0
  -22.0596   -2.7607   23.2853 H   0  0  0  0  0  0
  -22.4006  -11.9868   22.4886 H   0  0  0  0  0  0
  -21.1036  -13.1229   22.2626 H   0  0  0  0  0  0
  -24.6697  -15.8501   20.5652 H   0  0  0  0  0  0
  -26.2952  -15.6303   20.1543 H   0  0  0  0  0  0
  -26.7239  -32.5352   23.1063 H   0  0  0  0  0  0
  -25.0087  -33.9672   25.0382 H   0  0  0  0  0  0
  -22.7350  -31.2984   21.3928 H   0  0  0  0  0  0
  -23.3750  -35.9609   23.3278 H   0  0  0  0  0  0
  -24.3582  -36.8928   22.2059 H   0  0  0  0  0  0
  -23.7240  -37.6468   23.6682 H   0  0  0  0  0  0
  -26.1261  -31.5062   20.6122 H   0  0  0  0  0  0
  -26.8631  -30.8001   22.0168 H   0  0  0  0  0  0
  -28.1224  -28.8679   21.2234 H   0  0  0  0  0  0
  -25.9326  -25.9268   18.9239 H   0  0  0  0  0  0
  -23.9826  -27.3366   18.9485 H   0  0  0  0  0  0
  -23.7806  -30.5895   19.4020 H   0  0  0  0  0  0
  -22.7732  -29.2452   19.8492 H   0  0  0  0  0  0
  -25.1297  -36.1889   25.0811 H   0  0  0  0  0  0
  -20.9984  -28.3280   24.1365 H   0  0  0  0  0  0
  -20.5643  -26.2330   23.3614 H   0  0  0  0  0  0
  -21.6638  -26.7417   22.1201 H   0  0  0  0  0  0
  -19.6909  -25.6284   21.1248 H   0  0  0  0  0  0
  -19.6688  -27.3173   20.6719 H   0  0  0  0  0  0
  -17.4199  -26.6658   21.4031 H   0  0  0  0  0  0
  -18.0349  -26.0076   22.9021 H   0  0  0  0  0  0
  -19.7947  -30.7277   24.2242 H   0  0  0  0  0  0
  -17.5024  -31.6264   24.5161 H   0  0  0  0  0  0
  -15.5356  -30.2988   23.7663 H   0  0  0  0  0  0
  -15.8679  -28.0821   22.7076 H   0  0  0  0  0  0
  -24.5914  -30.7075   25.7772 H   0  0  0  0  0  0
  -24.8940  -32.2895   26.4871 H   0  0  0  0  0  0
  -25.8052  -30.8898   27.0229 H   0  0  0  0  0  0
  -26.2953  -29.6709   24.1259 H   0  0  0  0  0  0
  -27.4008  -29.7236   25.4784 H   0  0  0  0  0  0
  -27.8850  -30.4215   23.9519 H   0  0  0  0  0  0
  -27.2673  -33.3618   26.2067 H   0  0  0  0  0  0
  -28.3907  -32.6846   25.0368 H   0  0  0  0  0  0
  -28.0707  -31.8448   26.5465 H   0  0  0  0  0  0
  -28.2561  -38.0117   24.7526 H   0  0  0  0  0  0
  -28.1104  -36.2649   24.6248 H   0  0  0  0  0  0
  -27.2303  -37.1383   25.8861 H   0  0  0  0  0  0
  -20.9424  -29.8812   21.6866 H   0  0  0  0  0  0
  -26.0147  -38.2820   24.1444 H   0  0  0  0  0  0
  -27.7635  -17.9065   19.7553 H   0  0  0  0  0  0
  -28.6260  -18.4877   18.3452 H   0  0  0  0  0  0
  -30.1575  -16.5837   18.4034 H   0  0  0  0  0  0
  -28.5810  -15.8831   18.6602 H   0  0  0  0  0  0
  -29.6474  -17.3889   22.0538 H   0  0  0  0  0  0
  -31.2180  -17.4373   21.3048 H   0  0  0  0  0  0
  -29.4956  -22.0594   18.5126 H   0  0  0  0  0  0
  -27.8170  -21.8898   19.1333 H   0  0  0  0  0  0
  -27.7756  -22.4060   21.6609 H   0  0  0  0  0  0
  -29.4273  -22.8003   22.2460 H   0  0  0  0  0  0
  -30.5701  -19.0309   19.6463 H   0  0  0  0  0  0
  -30.0289  -23.8303   20.0959 H   0  0  0  0  0  0
  -27.0547  -24.5721   20.3014 H   0  0  0  0  0  0
  -27.8538  -24.8082   18.7894 H   0  0  0  0  0  0
  1 25  1  0  0  0
  1 30  2  0  0  0
  1 81  1  0  0  0
  2  3  1  0  0  0
  2 25  1  0  0  0
  2 83  1  0  0  0
  2 84  1  0  0  0
  3  4  1  0  0  0
  3 85  1  0  0  0
  3 86  1  0  0  0
  4  5  1  0  0  0
  4 87  1  0  0  0
  4 88  1  0  0  0
  5  6  1  0  0  0
  5 26  1  0  0  0
  5 89  1  0  0  0
  6 25  1  0  0  0
  6 90  1  0  0  0
  6 91  1  0  0  0
  7  8  2  0  0  0
  7 26  1  0  0  0
  7 29  1  0  0  0
  8  9  1  0  0  0
  8 22  1  0  0  0
  9 10  1  0  0  0
  9 27  2  0  0  0
 10 11  2  0  0  0
 10 15  1  0  0  0
 11 12  1  0  0  0
 11 92  1  0  0  0
 12 13  2  0  0  0
 12 93  1  0  0  0
 13 14  1  0  0  0
 13 31  1  0  0  0
 14 15  2  0  0  0
 14 94  1  0  0  0
 15 95  1  0  0  0
 16 17  2  0  0  0
 16 21  1  0  0  0
 16 31  1  0  0  0
 17 18  1  0  0  0
 17 96  1  0  0  0
 18 19  2  0  0  0
 18 97  1  0  0  0
 19 20  1  0  0  0
 19 24  1  0  0  0
 20 21  2  0  0  0
 20 98  1  0  0  0
 21 23  1  0  0  0
 22 28  1  0  0  0
 22 32  2  0  0  0
 26 27  1  0  0  0
 28 99  1  0  0  0
 28100  1  0  0  0
 29101  1  0  0  0
 29102  1  0  0  0
 33 34  1  0  0  0
 33 66  1  0  0  0
 33 70  2  0  0  0
 34 36  1  0  0  0
 34 59  1  0  0  0
 34103  1  0  0  0
 35 44  2  0  0  0
 35 45  1  0  0  0
 35 68  1  0  0  0
 36 56  1  0  0  0
 36104  1  0  0  0
 37 39  1  0  0  0
 37 47  1  0  0  0
 37 66  1  0  0  0
 37105  1  0  0  0
 38 43  2  0  0  0
 38 46  1  0  0  0
 38 47  1  0  0  0
 39 64  1  0  0  0
 39 67  2  0  0  0
 40 52  1  0  0  0
 40 53  2  0  0  0
 40 58  1  0  0  0
 41106  1  0  0  0
 41107  1  0  0  0
 41108  1  0  0  0
 41 48  1  0  0  0
 42 43  1  0  0  0
 42 66  1  0  0  0
 42109  1  0  0  0
 42110  1  0  0  0
 43 44  1  0  0  0
 44111  1  0  0  0
 45 46  2  0  0  0
 45112  1  0  0  0
 46113  1  0  0  0
 47114  1  0  0  0
 47115  1  0  0  0
 48 56  1  0  0  0
 48 65  1  0  0  0
 48116  1  0  0  0
 49 50  1  0  0  0
 49 53  1  0  0  0
 49 64  1  0  0  0
 49117  1  0  0  0
 50 51  1  0  0  0
 50118  1  0  0  0
 50119  1  0  0  0
 51 52  1  0  0  0
 51120  1  0  0  0
 51121  1  0  0  0
 52122  1  0  0  0
 52123  1  0  0  0
 53 54  1  0  0  0
 54 55  2  0  0  0
 54124  1  0  0  0
 55 57  1  0  0  0
 55125  1  0  0  0
 56 69  2  0  0  0
 57 58  2  0  0  0
 57126  1  0  0  0
 58127  1  0  0  0
 59 60  1  0  0  0
 59 61  1  0  0  0
 59 62  1  0  0  0
 60128  1  0  0  0
 60129  1  0  0  0
 60130  1  0  0  0
 61131  1  0  0  0
 61132  1  0  0  0
 61133  1  0  0  0
 62134  1  0  0  0
 62135  1  0  0  0
 62136  1  0  0  0
 63 65  1  0  0  0
 63137  1  0  0  0
 63138  1  0  0  0
 63139  1  0  0  0
 64140  1  0  0  0
 65141  1  0  0  0
 68 79  1  0  0  0
 71 80  1  0  0  0
 71 82  2  0  0  0
 71 77  1  0  0  0
 72 73  1  0  0  0
 72 77  1  0  0  0
 72142  1  0  0  0
 72143  1  0  0  0
 73 81  1  0  0  0
 73144  1  0  0  0
 73145  1  0  0  0
 74 77  1  0  0  0
 74 81  1  0  0  0
 74146  1  0  0  0
 74147  1  0  0  0
 75 78  1  0  0  0
 75 80  1  0  0  0
 75148  1  0  0  0
 75149  1  0  0  0
 76 78  1  0  0  0
 76 80  1  0  0  0
 76150  1  0  0  0
 76151  1  0  0  0
 77152  1  0  0  0
 78 79  1  0  0  0
 78153  1  0  0  0
 79154  1  0  0  0
 79155  1  0  0  0
M  ISO  4   1 100  68 101  79 101  81 100
M  END
> <chiral flag>
0

> <version>
0

> <s_m_source_file>
/data/baiqing/PycharmProjects/Reinvent-master-3.2/result/LINK_invent/BTK/process_docking_weight1_custom_sum_contain_oxygen_bond_distance_aromatic_linkinvent_7_9_3/rearranged_h_0185.sdf

> <i_m_source_file_index>
71

> <r_mmod_Potential_Energy-OPLS-2005>
513.306945800781

> <r_mmod_Stretch_Energy-OPLS-2005>
155.096786499023

> <r_mmod_Bend_Energy-OPLS-2005>
251.501754760742

> <r_mmod_Torsional_Energy-OPLS-2005>
356.754699707031

> <r_mmod_Improper_Torsional_Energy-OPLS-2005>
18.3804702758789

> <r_mmod_Van_der_Waal_Energy-OPLS-2005>
118.117774963379

> <r_mmod_Electrostatic_Energy-OPLS-2005>
-284.303070068359

> <r_mmod_Solvation_Energy-OPLS-2005>
-233.226913452148

> <b_mmod_Minimization_Converged-OPLS-2005>
0

> <r_mmod_RMS_Derivative-OPLS-2005>
2.86335396766663

$$$$
71
                    3D
 Structure written by MMmdl.
153161  0  0  1  0            999 V2000
  -30.5361  -15.1379   20.4155 C   0  0  0  0  0  0
  -30.4201  -12.7345   19.5076 C   0  0  0  0  0  0
  -29.5138  -12.5424   18.2714 C   0  0  0  0  0  0
  -28.0622  -12.2917   18.7076 C   0  0  0  0  0  0
  -27.6074  -13.2696   19.8209 C   0  0  2  0  0  0
  -28.6447  -13.4284   20.9528 C   0  0  0  0  0  0
  -25.2344  -13.8247   20.5739 C   0  0  0  0  0  0
  -24.1697  -13.0432   20.9277 C   0  0  0  0  0  0
  -24.6375  -11.6953   20.8813 C   0  0  0  0  0  0
  -23.9085  -10.4294   21.0428 C   0  0  0  0  0  0
  -24.3635   -9.4213   21.9192 C   0  0  0  0  0  0
  -23.6299   -8.2246   22.0766 C   0  0  0  0  0  0
  -22.4284   -8.0292   21.3558 C   0  0  0  0  0  0
  -21.9927   -9.0268   20.4655 C   0  0  0  0  0  0
  -22.7266  -10.2142   20.3065 C   0  0  0  0  0  0
  -21.6833   -6.0744   22.5281 C   0  0  0  0  0  0
  -21.4001   -6.5644   23.8222 C   0  0  0  0  0  0
  -21.3658   -5.6799   24.9175 C   0  0  0  0  0  0
  -21.6038   -4.3052   24.7217 C   0  0  0  0  0  0
  -21.8814   -3.8163   23.4337 C   0  0  0  0  0  0
  -21.9194   -4.6987   22.3402 C   0  0  0  0  0  0
  -22.7733  -13.5178   21.1920 C   0  0  0  0  0  0
  -22.1652   -4.2170   21.0973 F   0  0  0  0  0  0
  -21.5634   -3.4545   25.7725 F   0  0  0  0  0  0
  -29.8879  -13.8854   20.3214 N   0  0  0  0  0  0
  -26.2787  -12.9527   20.3232 N   0  0  0  0  0  0
  -25.9300  -11.6643   20.5765 N   0  0  0  0  0  0
  -22.0371  -12.8168   22.0487 N   0  0  0  0  0  0
  -25.3908  -15.1969   20.4115 N   0  0  0  0  0  0
  -31.7625  -15.0566   20.2452 O   0  0  0  0  0  0
  -21.6638   -6.8905   21.4251 O   0  0  0  0  0  0
  -22.3418  -14.5488   20.6787 O   0  0  0  0  0  0
  -24.6550  -31.8330   23.1794 C   0  0  0  0  0  0
  -25.9289  -32.4610   23.8204 C   0  0  1  0  0  0
  -27.1986  -27.0142   20.1847 C   0  0  0  0  0  0
  -25.6014  -33.8421   24.2137 N   0  0  0  0  0  0
  -23.4621  -30.4506   21.5264 C   0  0  2  0  0  0
  -24.9118  -28.8595   20.1090 C   0  0  0  0  0  0
  -22.7604  -29.4470   22.4796 C   0  0  0  0  0  0
  -18.0311  -28.1385   22.8428 C   0  0  0  0  0  0
  -24.1487  -36.7199   23.2646 C   0  0  0  0  0  0
  -26.0262  -30.6686   21.3958 C   0  0  0  0  0  0
  -26.0928  -29.2687   20.7403 C   0  0  0  0  0  0
  -27.2372  -28.3664   20.7549 C   0  0  0  0  0  0
  -25.9952  -26.7424   19.4967 C   0  0  0  0  0  0
  -24.8838  -27.6143   19.4657 C   0  0  0  0  0  0
  -23.6985  -29.7809   20.1459 C   0  0  0  0  0  0
  -25.4104  -36.2955   24.0321 C   0  0  1  0  0  0
  -20.5938  -28.3710   23.1190 C   0  0  2  0  0  0
  -20.6794  -26.9402   22.5396 C   0  0  0  0  0  0
  -19.5777  -26.6370   21.5199 C   0  0  0  0  0  0
  -18.1950  -26.7917   22.1602 C   0  0  0  0  0  0
  -19.1579  -28.8865   23.2787 C   0  0  0  0  0  0
  -18.9506  -30.1453   23.8830 C   0  0  0  0  0  0
  -17.6510  -30.6582   24.0544 C   0  0  0  0  0  0
  -25.9098  -34.9353   23.5033 C   0  0  0  0  0  0
  -16.5388  -29.9074   23.6360 C   0  0  0  0  0  0
  -16.7299  -28.6508   23.0342 C   0  0  0  0  0  0
  -26.4598  -31.6510   25.0685 C   0  0  0  0  0  0
  -25.3767  -31.3757   26.1373 C   0  0  0  0  0  0
  -27.0483  -30.2895   24.6329 C   0  0  0  0  0  0
  -27.6091  -32.4331   25.7494 C   0  0  0  0  0  0
  -27.5532  -37.1737   24.8462 C   0  0  0  0  0  0
  -21.4296  -29.3021   22.3567 N   0  0  0  0  0  0
  -26.4234  -37.3693   23.9424 N   0  0  0  0  0  0
  -24.7352  -31.0074   22.0895 N   0  0  0  0  0  0
  -23.4212  -28.8022   23.2985 O   0  0  0  0  0  0
  -28.2110  -25.9520   20.2468 O   0  0  0  0  0  0
  -26.5644  -34.8878   22.4589 O   0  0  0  0  0  0
  -23.5646  -32.1267   23.6957 O   0  0  0  0  0  0
  -28.1455  -18.6308   20.2747 C   0  0  0  0  0  0
  -30.1988  -19.2360   21.1600 C   0  0  0  0  0  0
  -28.6657  -17.0781   19.9773 C   0  0  0  0  0  0
  -30.7906  -17.7364   20.7888 C   0  0  0  0  0  0
  -29.0944  -19.9454   20.2437 C   0  0  0  0  0  0
  -28.8702  -22.9267   20.2455 C   0  0  0  0  0  0
  -27.8917  -24.3756   20.3976 C   0  0  0  0  0  0
  -29.9340  -16.4791   20.5728 N   0  0  0  0  0  0
  -28.4317  -21.4000   20.6266 N   0  3  0  0  0  0
  -31.4425  -12.9040   19.1704 H   0  0  0  0  0  0
  -30.4580  -11.8222   20.1049 H   0  0  0  0  0  0
  -29.8676  -11.7083   17.6655 H   0  0  0  0  0  0
  -29.5608  -13.4256   17.6343 H   0  0  0  0  0  0
  -28.0082  -11.2689   19.0817 H   0  0  0  0  0  0
  -27.3864  -12.3374   17.8534 H   0  0  0  0  0  0
  -27.5276  -14.2365   19.3239 H   0  0  0  0  0  0
  -28.7878  -12.4960   21.5028 H   0  0  0  0  0  0
  -28.3054  -14.1742   21.6749 H   0  0  0  0  0  0
  -25.2764   -9.5674   22.4795 H   0  0  0  0  0  0
  -23.9995   -7.4628   22.7484 H   0  0  0  0  0  0
  -21.0860   -8.8802   19.8949 H   0  0  0  0  0  0
  -22.3730  -10.9695   19.6192 H   0  0  0  0  0  0
  -21.1983   -7.6150   23.9729 H   0  0  0  0  0  0
  -21.1473   -6.0518   25.9076 H   0  0  0  0  0  0
  -22.0598   -2.7628   23.2826 H   0  0  0  0  0  0
  -22.3963  -11.9784   22.4808 H   0  0  0  0  0  0
  -21.1025  -13.1228   22.2738 H   0  0  0  0  0  0
  -24.6118  -15.8392   20.5089 H   0  0  0  0  0  0
  -26.2237  -15.6420   20.0526 H   0  0  0  0  0  0
  -26.7343  -32.5197   23.0914 H   0  0  0  0  0  0
  -25.0225  -33.9536   25.0322 H   0  0  0  0  0  0
  -22.7700  -31.2790   21.3643 H   0  0  0  0  0  0
  -23.3759  -35.9520   23.3295 H   0  0  0  0  0  0
  -24.3568  -36.8836   22.2061 H   0  0  0  0  0  0
  -23.7266  -37.6393   23.6707 H   0  0  0  0  0  0
  -26.1946  -31.4179   20.6189 H   0  0  0  0  0  0
  -26.8916  -30.7204   22.0451 H   0  0  0  0  0  0
  -28.1308  -28.6764   21.2802 H   0  0  0  0  0  0
  -25.8714  -25.8021   18.9840 H   0  0  0  0  0  0
  -23.9901  -27.3016   18.9436 H   0  0  0  0  0  0
  -23.8518  -30.5575   19.3953 H   0  0  0  0  0  0
  -22.8109  -29.2361   19.8233 H   0  0  0  0  0  0
  -25.1306  -36.1733   25.0812 H   0  0  0  0  0  0
  -20.9999  -28.3316   24.1325 H   0  0  0  0  0  0
  -20.5690  -26.2318   23.3625 H   0  0  0  0  0  0
  -21.6649  -26.7397   22.1192 H   0  0  0  0  0  0
  -19.6951  -25.6283   21.1239 H   0  0  0  0  0  0
  -19.6742  -27.3166   20.6717 H   0  0  0  0  0  0
  -17.4223  -26.6657   21.3997 H   0  0  0  0  0  0
  -18.0322  -26.0067   22.9013 H   0  0  0  0  0  0
  -19.7988  -30.7266   24.2162 H   0  0  0  0  0  0
  -17.5079  -31.6264   24.5142 H   0  0  0  0  0  0
  -15.5390  -30.2954   23.7738 H   0  0  0  0  0  0
  -15.8693  -28.0827   22.7078 H   0  0  0  0  0  0
  -24.5979  -30.7065   25.7740 H   0  0  0  0  0  0
  -24.8938  -32.2957   26.4686 H   0  0  0  0  0  0
  -25.8048  -30.9049   27.0234 H   0  0  0  0  0  0
  -26.3127  -29.6593   24.1339 H   0  0  0  0  0  0
  -27.4081  -29.7241   25.4939 H   0  0  0  0  0  0
  -27.9040  -30.4134   23.9689 H   0  0  0  0  0  0
  -27.2664  -33.3711   26.1887 H   0  0  0  0  0  0
  -28.3993  -32.6758   25.0378 H   0  0  0  0  0  0
  -28.0639  -31.8572   26.5559 H   0  0  0  0  0  0
  -28.2526  -38.0054   24.7489 H   0  0  0  0  0  0
  -28.1068  -36.2584   24.6323 H   0  0  0  0  0  0
  -27.2264  -37.1388   25.8871 H   0  0  0  0  0  0
  -20.9540  -29.8765   21.6754 H   0  0  0  0  0  0
  -26.0090  -38.2743   24.1483 H   0  0  0  0  0  0
  -27.6792  -18.6093   21.2622 H   0  0  0  0  0  0
  -27.3066  -18.8127   19.6044 H   0  0  0  0  0  0
  -31.0451  -19.9172   21.2439 H   0  0  0  0  0  0
  -29.8096  -19.1822   22.1775 H   0  0  0  0  0  0
  -28.7705  -16.9673   18.8982 H   0  0  0  0  0  0
  -27.8523  -16.4100   20.2500 H   0  0  0  0  0  0
  -31.5225  -17.4920   21.5602 H   0  0  0  0  0  0
  -31.3870  -17.8473   19.8820 H   0  0  0  0  0  0
  -29.4908  -20.0492   19.2339 H   0  0  0  0  0  0
  -29.7798  -23.1141   20.8174 H   0  0  0  0  0  0
  -29.1944  -22.8891   19.2063 H   0  0  0  0  0  0
  -27.4568  -24.3155   21.3942 H   0  0  0  0  0  0
  -27.0473  -24.1830   19.7385 H   0  0  0  0  0  0
  -28.2723  -21.3902   21.6217 H   0  0  0  0  0  0
  -27.5097  -21.3345   20.2234 H   0  0  0  0  0  0
  1 25  1  0  0  0
  1 30  2  0  0  0
  1 78  1  0  0  0
  2  3  1  0  0  0
  2 25  1  0  0  0
  2 80  1  0  0  0
  2 81  1  0  0  0
  3  4  1  0  0  0
  3 82  1  0  0  0
  3 83  1  0  0  0
  4  5  1  0  0  0
  4 84  1  0  0  0
  4 85  1  0  0  0
  5  6  1  0  0  0
  5 26  1  0  0  0
  5 86  1  0  0  0
  6 25  1  0  0  0
  6 87  1  0  0  0
  6 88  1  0  0  0
  7  8  2  0  0  0
  7 26  1  0  0  0
  7 29  1  0  0  0
  8  9  1  0  0  0
  8 22  1  0  0  0
  9 10  1  0  0  0
  9 27  2  0  0  0
 10 11  2  0  0  0
 10 15  1  0  0  0
 11 12  1  0  0  0
 11 89  1  0  0  0
 12 13  2  0  0  0
 12 90  1  0  0  0
 13 14  1  0  0  0
 13 31  1  0  0  0
 14 15  2  0  0  0
 14 91  1  0  0  0
 15 92  1  0  0  0
 16 17  2  0  0  0
 16 21  1  0  0  0
 16 31  1  0  0  0
 17 18  1  0  0  0
 17 93  1  0  0  0
 18 19  2  0  0  0
 18 94  1  0  0  0
 19 20  1  0  0  0
 19 24  1  0  0  0
 20 21  2  0  0  0
 20 95  1  0  0  0
 21 23  1  0  0  0
 22 28  1  0  0  0
 22 32  2  0  0  0
 26 27  1  0  0  0
 28 96  1  0  0  0
 28 97  1  0  0  0
 29 98  1  0  0  0
 29 99  1  0  0  0
 33 34  1  0  0  0
 33 66  1  0  0  0
 33 70  2  0  0  0
 34 36  1  0  0  0
 34 59  1  0  0  0
 34100  1  0  0  0
 35 44  2  0  0  0
 35 45  1  0  0  0
 35 68  1  0  0  0
 36 56  1  0  0  0
 36101  1  0  0  0
 37 39  1  0  0  0
 37 47  1  0  0  0
 37 66  1  0  0  0
 37102  1  0  0  0
 38 43  2  0  0  0
 38 46  1  0  0  0
 38 47  1  0  0  0
 39 64  1  0  0  0
 39 67  2  0  0  0
 40 52  1  0  0  0
 40 53  2  0  0  0
 40 58  1  0  0  0
 41103  1  0  0  0
 41104  1  0  0  0
 41105  1  0  0  0
 41 48  1  0  0  0
 42 43  1  0  0  0
 42 66  1  0  0  0
 42106  1  0  0  0
 42107  1  0  0  0
 43 44  1  0  0  0
 44108  1  0  0  0
 45 46  2  0  0  0
 45109  1  0  0  0
 46110  1  0  0  0
 47111  1  0  0  0
 47112  1  0  0  0
 48 56  1  0  0  0
 48 65  1  0  0  0
 48113  1  0  0  0
 49 50  1  0  0  0
 49 53  1  0  0  0
 49 64  1  0  0  0
 49114  1  0  0  0
 50 51  1  0  0  0
 50115  1  0  0  0
 50116  1  0  0  0
 51 52  1  0  0  0
 51117  1  0  0  0
 51118  1  0  0  0
 52119  1  0  0  0
 52120  1  0  0  0
 53 54  1  0  0  0
 54 55  2  0  0  0
 54121  1  0  0  0
 55 57  1  0  0  0
 55122  1  0  0  0
 56 69  2  0  0  0
 57 58  2  0  0  0
 57123  1  0  0  0
 58124  1  0  0  0
 59 60  1  0  0  0
 59 61  1  0  0  0
 59 62  1  0  0  0
 60125  1  0  0  0
 60126  1  0  0  0
 60127  1  0  0  0
 61128  1  0  0  0
 61129  1  0  0  0
 61130  1  0  0  0
 62131  1  0  0  0
 62132  1  0  0  0
 62133  1  0  0  0
 63 65  1  0  0  0
 63134  1  0  0  0
 63135  1  0  0  0
 63136  1  0  0  0
 64137  1  0  0  0
 65138  1  0  0  0
 68 77  1  0  0  0
 71 73  1  0  0  0
 71 75  1  0  0  0
 71139  1  0  0  0
 71140  1  0  0  0
 72 74  1  0  0  0
 72 75  1  0  0  0
 72141  1  0  0  0
 72142  1  0  0  0
 73 78  1  0  0  0
 73143  1  0  0  0
 73144  1  0  0  0
 74 78  1  0  0  0
 74145  1  0  0  0
 74146  1  0  0  0
 75 79  1  0  0  0
 75147  1  0  0  0
 76 77  1  0  0  0
 76 79  1  0  0  0
 76148  1  0  0  0
 76149  1  0  0  0
 77150  1  0  0  0
 77151  1  0  0  0
 79152  1  0  0  0
 79153  1  0  0  0
M  CHG  1  79   1
M  ISO  4   1 100  68 101  77 101  78 100
M  END
> <chiral flag>
0

> <version>
0

> <s_m_source_file>
/data/baiqing/PycharmProjects/Reinvent-master-3.2/result/LINK_invent/BTK/process_docking_weight1_custom_sum_contain_oxygen_bond_distance_aromatic_linkinvent_7_9_3/rearranged_h_0185.sdf

> <i_m_source_file_index>
72

> <r_mmod_Potential_Energy-OPLS-2005>
977.980041503906

> <r_mmod_Stretch_Energy-OPLS-2005>
400.638122558594

> <r_mmod_Bend_Energy-OPLS-2005>
415.401885986328

> <r_mmod_Torsional_Energy-OPLS-2005>
319.482574462891

> <r_mmod_Improper_Torsional_Energy-OPLS-2005>
4.68411684036255

> <r_mmod_Van_der_Waal_Energy-OPLS-2005>
116.299957275391

> <r_mmod_Electrostatic_Energy-OPLS-2005>
-155.999862670898

> <r_mmod_Solvation_Energy-OPLS-2005>
-459.860900878906

> <b_mmod_Minimization_Converged-OPLS-2005>
0

> <r_mmod_RMS_Derivative-OPLS-2005>
4.21771001815796

$$$$
72
                    3D
 Structure written by MMmdl.
150158  0  0  1  0            999 V2000
  -30.4148  -15.4922   20.3454 C   0  0  0  0  0  0
  -30.4110  -12.9824   19.5307 C   0  0  0  0  0  0
  -29.5316  -12.6171   18.3075 C   0  0  0  0  0  0
  -28.0998  -12.2931   18.7540 C   0  0  0  0  0  0
  -27.5933  -13.3012   19.8128 C   0  0  2  0  0  0
  -28.6164  -13.6083   20.9311 C   0  0  0  0  0  0
  -25.2318  -13.8297   20.5816 C   0  0  0  0  0  0
  -24.1698  -13.0448   20.9295 C   0  0  0  0  0  0
  -24.6389  -11.6955   20.8780 C   0  0  0  0  0  0
  -23.9103  -10.4296   21.0409 C   0  0  0  0  0  0
  -24.3645   -9.4206   21.9185 C   0  0  0  0  0  0
  -23.6310   -8.2245   22.0753 C   0  0  0  0  0  0
  -22.4288   -8.0288   21.3547 C   0  0  0  0  0  0
  -21.9934   -9.0264   20.4647 C   0  0  0  0  0  0
  -22.7274  -10.2138   20.3057 C   0  0  0  0  0  0
  -21.6857   -6.0739   22.5278 C   0  0  0  0  0  0
  -21.4020   -6.5642   23.8212 C   0  0  0  0  0  0
  -21.3661   -5.6795   24.9175 C   0  0  0  0  0  0
  -21.6045   -4.3057   24.7224 C   0  0  0  0  0  0
  -21.8818   -3.8148   23.4345 C   0  0  0  0  0  0
  -21.9193   -4.6965   22.3401 C   0  0  0  0  0  0
  -22.7712  -13.5178   21.1930 C   0  0  0  0  0  0
  -22.1660   -4.2152   21.0978 F   0  0  0  0  0  0
  -21.5625   -3.4541   25.7736 F   0  0  0  0  0  0
  -29.8063  -14.1788   20.2668 N   0  0  0  0  0  0
  -26.2749  -12.9614   20.3259 N   0  0  0  0  0  0
  -25.9332  -11.6691   20.5733 N   0  0  0  0  0  0
  -22.0377  -12.8149   22.0478 N   0  0  0  0  0  0
  -25.3945  -15.2037   20.4269 N   0  0  0  0  0  0
  -31.6422  -15.3537   20.1831 O   0  0  0  0  0  0
  -21.6648   -6.8887   21.4242 O   0  0  0  0  0  0
  -22.3392  -14.5479   20.6769 O   0  0  0  0  0  0
  -24.6761  -31.8082   23.1573 C   0  0  0  0  0  0
  -25.9378  -32.4506   23.8095 C   0  0  1  0  0  0
  -27.2183  -26.7801   20.2035 C   0  0  0  0  0  0
  -25.5988  -33.8328   24.1988 N   0  0  0  0  0  0
  -23.4981  -30.4133   21.5094 C   0  0  2  0  0  0
  -24.9534  -28.7703   20.1125 C   0  0  0  0  0  0
  -22.7733  -29.4356   22.4730 C   0  0  0  0  0  0
  -18.0336  -28.1414   22.8464 C   0  0  0  0  0  0
  -24.1495  -36.7174   23.2652 C   0  0  0  0  0  0
  -26.0742  -30.5659   21.4102 C   0  0  0  0  0  0
  -26.1392  -29.1397   20.7580 C   0  0  0  0  0  0
  -27.2594  -28.1690   20.7749 C   0  0  0  0  0  0
  -26.0047  -26.6016   19.4972 C   0  0  0  0  0  0
  -24.9207  -27.5264   19.4589 C   0  0  0  0  0  0
  -23.7467  -29.7168   20.1409 C   0  0  0  0  0  0
  -25.4141  -36.2918   24.0287 C   0  0  1  0  0  0
  -20.5967  -28.3770   23.1160 C   0  0  2  0  0  0
  -20.6802  -26.9438   22.5404 C   0  0  0  0  0  0
  -19.5774  -26.6372   21.5219 C   0  0  0  0  0  0
  -18.1959  -26.7944   22.1626 C   0  0  0  0  0  0
  -19.1600  -28.8916   23.2795 C   0  0  0  0  0  0
  -18.9506  -30.1501   23.8837 C   0  0  0  0  0  0
  -17.6496  -30.6599   24.0554 C   0  0  0  0  0  0
  -25.9116  -34.9307   23.4971 C   0  0  0  0  0  0
  -16.5387  -29.9082   23.6346 C   0  0  0  0  0  0
  -16.7317  -28.6504   23.0366 C   0  0  0  0  0  0
  -26.4578  -31.6511   25.0687 C   0  0  0  0  0  0
  -25.3662  -31.3808   26.1315 C   0  0  0  0  0  0
  -27.0500  -30.2857   24.6532 C   0  0  0  0  0  0
  -27.6035  -32.4360   25.7504 C   0  0  0  0  0  0
  -27.5564  -37.1745   24.8468 C   0  0  0  0  0  0
  -21.4386  -29.3035   22.3489 N   0  0  0  0  0  0
  -26.4274  -37.3670   23.9406 N   0  0  0  0  0  0
  -24.7720  -30.9605   22.0785 N   0  0  0  0  0  0
  -23.4217  -28.7949   23.3039 O   0  0  0  0  0  0
  -28.1927  -25.6027   20.3084 O   0  0  0  0  0  0
  -26.5749  -34.8871   22.4582 O   0  0  0  0  0  0
  -23.5798  -32.1121   23.6578 O   0  0  0  0  0  0
  -28.5071  -17.7105   20.5805 C   0  0  0  0  0  0
  -30.5849  -18.1983   19.7660 C   0  0  0  0  0  0
  -28.2678  -19.4130   20.8770 C   0  0  0  0  0  0
  -30.3409  -19.8585   20.1141 C   0  0  0  0  0  0
  -28.9045  -22.2980   20.5810 C   0  0  0  0  0  0
  -28.0493  -23.9000   20.0444 C   0  0  0  0  0  0
  -29.8418  -16.9299   20.3046 N   0  0  0  0  0  0
  -28.9707  -20.6109   20.1293 N   0  3  0  0  0  0
  -31.4189  -13.1938   19.1716 H   0  0  0  0  0  0
  -30.5243  -12.1258   20.1973 H   0  0  0  0  0  0
  -29.9583  -11.7722   17.7652 H   0  0  0  0  0  0
  -29.5159  -13.4558   17.6099 H   0  0  0  0  0  0
  -28.1069  -11.2901   19.1826 H   0  0  0  0  0  0
  -27.4261  -12.2575   17.8971 H   0  0  0  0  0  0
  -27.4652  -14.2308   19.2561 H   0  0  0  0  0  0
  -28.8479  -12.7237   21.5263 H   0  0  0  0  0  0
  -28.2077  -14.3485   21.6208 H   0  0  0  0  0  0
  -25.2783   -9.5681   22.4771 H   0  0  0  0  0  0
  -24.0011   -7.4637   22.7477 H   0  0  0  0  0  0
  -21.0860   -8.8794   19.8954 H   0  0  0  0  0  0
  -22.3731  -10.9682   19.6172 H   0  0  0  0  0  0
  -21.2019   -7.6152   23.9718 H   0  0  0  0  0  0
  -21.1482   -6.0523   25.9079 H   0  0  0  0  0  0
  -22.0594   -2.7609   23.2843 H   0  0  0  0  0  0
  -22.4019  -11.9822   22.4865 H   0  0  0  0  0  0
  -21.0990  -13.1150   22.2692 H   0  0  0  0  0  0
  -24.6241  -15.8535   20.5418 H   0  0  0  0  0  0
  -26.2417  -15.6450   20.0948 H   0  0  0  0  0  0
  -26.7457  -32.4999   23.0809 H   0  0  0  0  0  0
  -25.0055  -33.9378   25.0086 H   0  0  0  0  0  0
  -22.8191  -31.2487   21.3262 H   0  0  0  0  0  0
  -23.3767  -35.9493   23.3276 H   0  0  0  0  0  0
  -24.3564  -36.8867   22.2074 H   0  0  0  0  0  0
  -23.7247  -37.6343   23.6746 H   0  0  0  0  0  0
  -26.2712  -31.2963   20.6245 H   0  0  0  0  0  0
  -26.9279  -30.6288   22.0728 H   0  0  0  0  0  0
  -28.1513  -28.4530   21.3153 H   0  0  0  0  0  0
  -25.8532  -25.6561   18.9966 H   0  0  0  0  0  0
  -24.0243  -27.2375   18.9273 H   0  0  0  0  0  0
  -23.9164  -30.4800   19.3805 H   0  0  0  0  0  0
  -22.8527  -29.1803   19.8184 H   0  0  0  0  0  0
  -25.1347  -36.1692   25.0778 H   0  0  0  0  0  0
  -21.0056  -28.3389   24.1284 H   0  0  0  0  0  0
  -20.5670  -26.2395   23.3660 H   0  0  0  0  0  0
  -21.6663  -26.7387   22.1219 H   0  0  0  0  0  0
  -19.6928  -25.6266   21.1289 H   0  0  0  0  0  0
  -19.6709  -27.3149   20.6721 H   0  0  0  0  0  0
  -17.4227  -26.6693   21.4029 H   0  0  0  0  0  0
  -18.0345  -26.0097   22.9033 H   0  0  0  0  0  0
  -19.7980  -30.7335   24.2177 H   0  0  0  0  0  0
  -17.5045  -31.6270   24.5172 H   0  0  0  0  0  0
  -15.5383  -30.2966   23.7696 H   0  0  0  0  0  0
  -15.8720  -28.0798   22.7115 H   0  0  0  0  0  0
  -24.5867  -30.7134   25.7620 H   0  0  0  0  0  0
  -24.8828  -32.3024   26.4565 H   0  0  0  0  0  0
  -25.7857  -30.9089   27.0209 H   0  0  0  0  0  0
  -26.3195  -29.6485   24.1536 H   0  0  0  0  0  0
  -27.3968  -29.7285   25.5243 H   0  0  0  0  0  0
  -27.9162  -30.3998   24.0013 H   0  0  0  0  0  0
  -27.2573  -33.3718   26.1904 H   0  0  0  0  0  0
  -28.3938  -32.6831   25.0404 H   0  0  0  0  0  0
  -28.0602  -31.8612   26.5570 H   0  0  0  0  0  0
  -28.2558  -38.0061   24.7505 H   0  0  0  0  0  0
  -28.1083  -36.2584   24.6306 H   0  0  0  0  0  0
  -27.2279  -37.1398   25.8870 H   0  0  0  0  0  0
  -20.9672  -29.8709   21.6583 H   0  0  0  0  0  0
  -26.0107  -38.2723   24.1408 H   0  0  0  0  0  0
  -27.8886  -17.4764   19.7135 H   0  0  0  0  0  0
  -28.0223  -17.1782   21.3995 H   0  0  0  0  0  0
  -31.6441  -18.0140   19.9484 H   0  0  0  0  0  0
  -30.4908  -18.1107   18.6828 H   0  0  0  0  0  0
  -28.4967  -19.5651   21.9330 H   0  0  0  0  0  0
  -27.1964  -19.6045   20.8119 H   0  0  0  0  0  0
  -30.9825  -20.4214   19.4362 H   0  0  0  0  0  0
  -30.7806  -20.0318   21.0978 H   0  0  0  0  0  0
  -28.7760  -22.2650   21.6623 H   0  0  0  0  0  0
  -29.9520  -22.5739   20.4635 H   0  0  0  0  0  0
  -26.9983  -23.7157   20.2660 H   0  0  0  0  0  0
  -28.0914  -23.8508   18.9566 H   0  0  0  0  0  0
  -28.6395  -20.5811   19.1761 H   0  0  0  0  0  0
  1 25  1  0  0  0
  1 30  2  0  0  0
  1 77  1  0  0  0
  2  3  1  0  0  0
  2 25  1  0  0  0
  2 79  1  0  0  0
  2 80  1  0  0  0
  3  4  1  0  0  0
  3 81  1  0  0  0
  3 82  1  0  0  0
  4  5  1  0  0  0
  4 83  1  0  0  0
  4 84  1  0  0  0
  5  6  1  0  0  0
  5 26  1  0  0  0
  5 85  1  0  0  0
  6 25  1  0  0  0
  6 86  1  0  0  0
  6 87  1  0  0  0
  7  8  2  0  0  0
  7 26  1  0  0  0
  7 29  1  0  0  0
  8  9  1  0  0  0
  8 22  1  0  0  0
  9 10  1  0  0  0
  9 27  2  0  0  0
 10 11  2  0  0  0
 10 15  1  0  0  0
 11 12  1  0  0  0
 11 88  1  0  0  0
 12 13  2  0  0  0
 12 89  1  0  0  0
 13 14  1  0  0  0
 13 31  1  0  0  0
 14 15  2  0  0  0
 14 90  1  0  0  0
 15 91  1  0  0  0
 16 17  2  0  0  0
 16 21  1  0  0  0
 16 31  1  0  0  0
 17 18  1  0  0  0
 17 92  1  0  0  0
 18 19  2  0  0  0
 18 93  1  0  0  0
 19 20  1  0  0  0
 19 24  1  0  0  0
 20 21  2  0  0  0
 20 94  1  0  0  0
 21 23  1  0  0  0
 22 28  1  0  0  0
 22 32  2  0  0  0
 26 27  1  0  0  0
 28 95  1  0  0  0
 28 96  1  0  0  0
 29 97  1  0  0  0
 29 98  1  0  0  0
 33 34  1  0  0  0
 33 66  1  0  0  0
 33 70  2  0  0  0
 34 36  1  0  0  0
 34 59  1  0  0  0
 34 99  1  0  0  0
 35 44  2  0  0  0
 35 45  1  0  0  0
 35 68  1  0  0  0
 36 56  1  0  0  0
 36100  1  0  0  0
 37 39  1  0  0  0
 37 47  1  0  0  0
 37 66  1  0  0  0
 37101  1  0  0  0
 38 43  2  0  0  0
 38 46  1  0  0  0
 38 47  1  0  0  0
 39 64  1  0  0  0
 39 67  2  0  0  0
 40 52  1  0  0  0
 40 53  2  0  0  0
 40 58  1  0  0  0
 41102  1  0  0  0
 41103  1  0  0  0
 41104  1  0  0  0
 41 48  1  0  0  0
 42 43  1  0  0  0
 42 66  1  0  0  0
 42105  1  0  0  0
 42106  1  0  0  0
 43 44  1  0  0  0
 44107  1  0  0  0
 45 46  2  0  0  0
 45108  1  0  0  0
 46109  1  0  0  0
 47110  1  0  0  0
 47111  1  0  0  0
 48 56  1  0  0  0
 48 65  1  0  0  0
 48112  1  0  0  0
 49 50  1  0  0  0
 49 53  1  0  0  0
 49 64  1  0  0  0
 49113  1  0  0  0
 50 51  1  0  0  0
 50114  1  0  0  0
 50115  1  0  0  0
 51 52  1  0  0  0
 51116  1  0  0  0
 51117  1  0  0  0
 52118  1  0  0  0
 52119  1  0  0  0
 53 54  1  0  0  0
 54 55  2  0  0  0
 54120  1  0  0  0
 55 57  1  0  0  0
 55121  1  0  0  0
 56 69  2  0  0  0
 57 58  2  0  0  0
 57122  1  0  0  0
 58123  1  0  0  0
 59 60  1  0  0  0
 59 61  1  0  0  0
 59 62  1  0  0  0
 60124  1  0  0  0
 60125  1  0  0  0
 60126  1  0  0  0
 61127  1  0  0  0
 61128  1  0  0  0
 61129  1  0  0  0
 62130  1  0  0  0
 62131  1  0  0  0
 62132  1  0  0  0
 63 65  1  0  0  0
 63133  1  0  0  0
 63134  1  0  0  0
 63135  1  0  0  0
 64136  1  0  0  0
 65137  1  0  0  0
 68 76  1  0  0  0
 71 73  1  0  0  0
 71 77  1  0  0  0
 71138  1  0  0  0
 71139  1  0  0  0
 72 74  1  0  0  0
 72 77  1  0  0  0
 72140  1  0  0  0
 72141  1  0  0  0
 73 78  1  0  0  0
 73142  1  0  0  0
 73143  1  0  0  0
 74 78  1  0  0  0
 74144  1  0  0  0
 74145  1  0  0  0
 75 76  1  0  0  0
 75146  1  0  0  0
 75147  1  0  0  0
 75 78  1  0  0  0
 76148  1  0  0  0
 76149  1  0  0  0
 78150  1  0  0  0
M  CHG  1  78   1
M  ISO  4   1 100  68 101  76 101  77 100
M  END
> <chiral flag>
0

> <version>
0

> <s_m_source_file>
/data/baiqing/PycharmProjects/Reinvent-master-3.2/result/LINK_invent/BTK/process_docking_weight1_custom_sum_contain_oxygen_bond_distance_aromatic_linkinvent_7_9_3/rearranged_h_0185.sdf

> <i_m_source_file_index>
73

> <r_mmod_Potential_Energy-OPLS-2005>
2069.70849609375

> <r_mmod_Stretch_Energy-OPLS-2005>
822.303466796875

> <r_mmod_Bend_Energy-OPLS-2005>
682.106689453125

> <r_mmod_Torsional_Energy-OPLS-2005>
364.669525146484

> <r_mmod_Improper_Torsional_Energy-OPLS-2005>
7.53518962860107

> <r_mmod_Van_der_Waal_Energy-OPLS-2005>
115.253486633301

> <r_mmod_Electrostatic_Energy-OPLS-2005>
-187.556671142578

> <r_mmod_Solvation_Energy-OPLS-2005>
-448.615417480469

> <b_mmod_Minimization_Converged-OPLS-2005>
0

> <r_mmod_RMS_Derivative-OPLS-2005>
0.569041132926941

$$$$
73
                    3D
 Structure written by MMmdl.
154163  0  0  1  0            999 V2000
  -30.4671  -15.3433   20.3679 C   0  0  0  0  0  0
  -30.4123  -12.8714   19.5302 C   0  0  0  0  0  0
  -29.5303  -12.6016   18.2888 C   0  0  0  0  0  0
  -28.0786  -12.3182   18.7082 C   0  0  0  0  0  0
  -27.5947  -13.2971   19.8088 C   0  0  2  0  0  0
  -28.6238  -13.5270   20.9371 C   0  0  0  0  0  0
  -25.2306  -13.8289   20.5752 C   0  0  0  0  0  0
  -24.1686  -13.0444   20.9261 C   0  0  0  0  0  0
  -24.6385  -11.6955   20.8756 C   0  0  0  0  0  0
  -23.9102  -10.4295   21.0393 C   0  0  0  0  0  0
  -24.3645   -9.4202   21.9166 C   0  0  0  0  0  0
  -23.6310   -8.2239   22.0746 C   0  0  0  0  0  0
  -22.4293   -8.0272   21.3543 C   0  0  0  0  0  0
  -21.9939   -9.0244   20.4647 C   0  0  0  0  0  0
  -22.7275  -10.2117   20.3047 C   0  0  0  0  0  0
  -21.6857   -6.0748   22.5281 C   0  0  0  0  0  0
  -21.4025   -6.5642   23.8222 C   0  0  0  0  0  0
  -21.3676   -5.6783   24.9175 C   0  0  0  0  0  0
  -21.6055   -4.3049   24.7223 C   0  0  0  0  0  0
  -21.8807   -3.8151   23.4336 C   0  0  0  0  0  0
  -21.9181   -4.6973   22.3395 C   0  0  0  0  0  0
  -22.7690  -13.5169   21.1899 C   0  0  0  0  0  0
  -22.1636   -4.2165   21.0964 F   0  0  0  0  0  0
  -21.5628   -3.4519   25.7734 F   0  0  0  0  0  0
  -29.8373  -14.0569   20.2912 N   0  0  0  0  0  0
  -26.2735  -12.9607   20.3158 N   0  0  0  0  0  0
  -25.9323  -11.6690   20.5681 N   0  0  0  0  0  0
  -22.0342  -12.8180   22.0478 N   0  0  0  0  0  0
  -25.3912  -15.2038   20.4239 N   0  0  0  0  0  0
  -31.6947  -15.2060   20.2239 O   0  0  0  0  0  0
  -21.6636   -6.8893   21.4250 O   0  0  0  0  0  0
  -22.3362  -14.5444   20.6688 O   0  0  0  0  0  0
  -24.6702  -31.8149   23.1648 C   0  0  0  0  0  0
  -25.9360  -32.4528   23.8142 C   0  0  1  0  0  0
  -27.2054  -26.8520   20.2063 C   0  0  0  0  0  0
  -25.5997  -33.8346   24.2031 N   0  0  0  0  0  0
  -23.4885  -30.4257   21.5133 C   0  0  2  0  0  0
  -24.9409  -28.7971   20.1170 C   0  0  0  0  0  0
  -22.7691  -29.4394   22.4723 C   0  0  0  0  0  0
  -18.0328  -28.1406   22.8442 C   0  0  0  0  0  0
  -24.1505  -36.7191   23.2649 C   0  0  0  0  0  0
  -26.0618  -30.5995   21.4066 C   0  0  0  0  0  0
  -26.1272  -29.1807   20.7551 C   0  0  0  0  0  0
  -27.2566  -28.2329   20.7655 C   0  0  0  0  0  0
  -25.9884  -26.6356   19.5242 C   0  0  0  0  0  0
  -24.9012  -27.5477   19.4775 C   0  0  0  0  0  0
  -23.7362  -29.7383   20.1413 C   0  0  0  0  0  0
  -25.4143  -36.2925   24.0284 C   0  0  1  0  0  0
  -20.5951  -28.3759   23.1150 C   0  0  2  0  0  0
  -20.6800  -26.9427   22.5389 C   0  0  0  0  0  0
  -19.5787  -26.6357   21.5195 C   0  0  0  0  0  0
  -18.1963  -26.7928   22.1600 C   0  0  0  0  0  0
  -19.1592  -28.8899   23.2782 C   0  0  0  0  0  0
  -18.9503  -30.1481   23.8820 C   0  0  0  0  0  0
  -17.6497  -30.6583   24.0539 C   0  0  0  0  0  0
  -25.9112  -34.9310   23.4982 C   0  0  0  0  0  0
  -16.5384  -29.9073   23.6334 C   0  0  0  0  0  0
  -16.7308  -28.6502   23.0343 C   0  0  0  0  0  0
  -26.4579  -31.6505   25.0706 C   0  0  0  0  0  0
  -25.3691  -31.3792   26.1357 C   0  0  0  0  0  0
  -27.0500  -30.2853   24.6528 C   0  0  0  0  0  0
  -27.6039  -32.4340   25.7535 C   0  0  0  0  0  0
  -27.5565  -37.1755   24.8450 C   0  0  0  0  0  0
  -21.4351  -29.3042   22.3496 N   0  0  0  0  0  0
  -26.4272  -37.3672   23.9394 N   0  0  0  0  0  0
  -24.7617  -30.9759   22.0810 N   0  0  0  0  0  0
  -23.4208  -28.7948   23.2974 O   0  0  0  0  0  0
  -28.2027  -25.7203   20.2230 O   0  0  0  0  0  0
  -26.5717  -34.8861   22.4574 O   0  0  0  0  0  0
  -23.5756  -32.1151   23.6703 O   0  0  0  0  0  0
  -30.7963  -17.8734   21.1328 C   0  0  0  0  0  0
  -28.7867  -17.7885   20.0912 C   0  0  0  0  0  0
  -29.4885  -20.4045   21.6595 C   0  0  0  0  0  0
  -30.3681  -19.4086   20.7991 C   0  0  2  0  0  0
  -29.2251  -19.4412   19.8584 C   0  0  2  0  0  0
  -30.3104  -22.7978   19.7893 C   0  0  0  0  0  0
  -27.9884  -24.0612   20.4678 C   0  0  0  0  0  0
  -28.8158  -22.4877   19.9700 C   0  0  2  0  0  0
  -29.9288  -16.7554   20.5540 N   0  0  0  0  0  0
  -28.6558  -20.8719   20.5029 N   0  3  2  0  0  0
  -31.4364  -13.0519   19.2010 H   0  0  0  0  0  0
  -30.4735  -11.9840   20.1622 H   0  0  0  0  0  0
  -29.9270  -11.7723   17.7014 H   0  0  0  0  0  0
  -29.5555  -13.4777   17.6414 H   0  0  0  0  0  0
  -28.0298  -11.2943   19.0777 H   0  0  0  0  0  0
  -27.4214  -12.3623   17.8387 H   0  0  0  0  0  0
  -27.4908  -14.2524   19.2932 H   0  0  0  0  0  0
  -28.8146  -12.6098   21.4975 H   0  0  0  0  0  0
  -28.2489  -14.2581   21.6534 H   0  0  0  0  0  0
  -25.2787   -9.5657   22.4750 H   0  0  0  0  0  0
  -24.0008   -7.4638   22.7470 H   0  0  0  0  0  0
  -21.0871   -8.8771   19.8967 H   0  0  0  0  0  0
  -22.3733  -10.9645   19.6157 H   0  0  0  0  0  0
  -21.2026   -7.6153   23.9737 H   0  0  0  0  0  0
  -21.1514   -6.0506   25.9082 H   0  0  0  0  0  0
  -22.0579   -2.7615   23.2812 H   0  0  0  0  0  0
  -22.3943  -11.9884   22.4962 H   0  0  0  0  0  0
  -21.0945  -13.1200   22.2626 H   0  0  0  0  0  0
  -24.6222  -15.8539   20.5472 H   0  0  0  0  0  0
  -26.2426  -15.6514   20.1094 H   0  0  0  0  0  0
  -26.7425  -32.5044   23.0855 H   0  0  0  0  0  0
  -25.0109  -33.9404   25.0159 H   0  0  0  0  0  0
  -22.8066  -31.2586   21.3336 H   0  0  0  0  0  0
  -23.3767  -35.9519   23.3260 H   0  0  0  0  0  0
  -24.3596  -36.8898   22.2074 H   0  0  0  0  0  0
  -23.7266  -37.6362   23.6753 H   0  0  0  0  0  0
  -26.2530  -31.3349   20.6240 H   0  0  0  0  0  0
  -26.9174  -30.6576   22.0678 H   0  0  0  0  0  0
  -28.1610  -28.5305   21.2777 H   0  0  0  0  0  0
  -25.8507  -25.6839   19.0321 H   0  0  0  0  0  0
  -24.0034  -27.2492   18.9538 H   0  0  0  0  0  0
  -23.9093  -30.5035   19.3828 H   0  0  0  0  0  0
  -22.8446  -29.2007   19.8144 H   0  0  0  0  0  0
  -25.1353  -36.1699   25.0770 H   0  0  0  0  0  0
  -21.0049  -28.3381   24.1274 H   0  0  0  0  0  0
  -20.5650  -26.2382   23.3647 H   0  0  0  0  0  0
  -21.6666  -26.7365   22.1222 H   0  0  0  0  0  0
  -19.6944  -25.6250   21.1277 H   0  0  0  0  0  0
  -19.6735  -27.3117   20.6691 H   0  0  0  0  0  0
  -17.4230  -26.6639   21.4009 H   0  0  0  0  0  0
  -18.0372  -26.0088   22.9021 H   0  0  0  0  0  0
  -19.7980  -30.7302   24.2166 H   0  0  0  0  0  0
  -17.5054  -31.6256   24.5162 H   0  0  0  0  0  0
  -15.5387  -30.2953   23.7703 H   0  0  0  0  0  0
  -15.8707  -28.0803   22.7092 H   0  0  0  0  0  0
  -24.5861  -30.7155   25.7674 H   0  0  0  0  0  0
  -24.8906  -32.3013   26.4660 H   0  0  0  0  0  0
  -25.7911  -30.9029   27.0214 H   0  0  0  0  0  0
  -26.3193  -29.6476   24.1538 H   0  0  0  0  0  0
  -27.3981  -29.7281   25.5237 H   0  0  0  0  0  0
  -27.9151  -30.3987   23.9995 H   0  0  0  0  0  0
  -27.2556  -33.3659   26.2000 H   0  0  0  0  0  0
  -28.3925  -32.6870   25.0439 H   0  0  0  0  0  0
  -28.0628  -31.8552   26.5561 H   0  0  0  0  0  0
  -28.2528  -38.0101   24.7508 H   0  0  0  0  0  0
  -28.1112  -36.2617   24.6258 H   0  0  0  0  0  0
  -27.2282  -37.1367   25.8853 H   0  0  0  0  0  0
  -20.9626  -29.8776   21.6646 H   0  0  0  0  0  0
  -26.0103  -38.2716   24.1425 H   0  0  0  0  0  0
  -30.8589  -17.7259   22.2118 H   0  0  0  0  0  0
  -31.8129  -17.7217   20.7673 H   0  0  0  0  0  0
  -28.3350  -17.3987   19.1787 H   0  0  0  0  0  0
  -27.9948  -17.7310   20.8398 H   0  0  0  0  0  0
  -30.0576  -21.1928   22.1508 H   0  0  0  0  0  0
  -28.8741  -19.8818   22.3944 H   0  0  0  0  0  0
  -31.2095  -19.9752   20.3957 H   0  0  0  0  0  0
  -29.5705  -19.6187   18.8385 H   0  0  0  0  0  0
  -30.4452  -23.7261   19.2344 H   0  0  0  0  0  0
  -30.8121  -22.0123   19.2233 H   0  0  0  0  0  0
  -30.8205  -22.9069   20.7455 H   0  0  0  0  0  0
  -28.0246  -24.0136   21.5564 H   0  0  0  0  0  0
  -26.9340  -23.8977   20.2460 H   0  0  0  0  0  0
  -28.4407  -22.3781   18.9527 H   0  0  0  0  0  0
  -27.6767  -20.7370   20.7142 H   0  0  0  0  0  0
  1 25  1  0  0  0
  1 30  2  0  0  0
  1 79  1  0  0  0
  2  3  1  0  0  0
  2 25  1  0  0  0
  2 81  1  0  0  0
  2 82  1  0  0  0
  3  4  1  0  0  0
  3 83  1  0  0  0
  3 84  1  0  0  0
  4  5  1  0  0  0
  4 85  1  0  0  0
  4 86  1  0  0  0
  5  6  1  0  0  0
  5 26  1  0  0  0
  5 87  1  0  0  0
  6 25  1  0  0  0
  6 88  1  0  0  0
  6 89  1  0  0  0
  7  8  2  0  0  0
  7 26  1  0  0  0
  7 29  1  0  0  0
  8  9  1  0  0  0
  8 22  1  0  0  0
  9 10  1  0  0  0
  9 27  2  0  0  0
 10 11  2  0  0  0
 10 15  1  0  0  0
 11 12  1  0  0  0
 11 90  1  0  0  0
 12 13  2  0  0  0
 12 91  1  0  0  0
 13 14  1  0  0  0
 13 31  1  0  0  0
 14 15  2  0  0  0
 14 92  1  0  0  0
 15 93  1  0  0  0
 16 17  2  0  0  0
 16 21  1  0  0  0
 16 31  1  0  0  0
 17 18  1  0  0  0
 17 94  1  0  0  0
 18 19  2  0  0  0
 18 95  1  0  0  0
 19 20  1  0  0  0
 19 24  1  0  0  0
 20 21  2  0  0  0
 20 96  1  0  0  0
 21 23  1  0  0  0
 22 28  1  0  0  0
 22 32  2  0  0  0
 26 27  1  0  0  0
 28 97  1  0  0  0
 28 98  1  0  0  0
 29 99  1  0  0  0
 29100  1  0  0  0
 33 34  1  0  0  0
 33 66  1  0  0  0
 33 70  2  0  0  0
 34 36  1  0  0  0
 34 59  1  0  0  0
 34101  1  0  0  0
 35 44  2  0  0  0
 35 45  1  0  0  0
 35 68  1  0  0  0
 36 56  1  0  0  0
 36102  1  0  0  0
 37 39  1  0  0  0
 37 47  1  0  0  0
 37 66  1  0  0  0
 37103  1  0  0  0
 38 43  2  0  0  0
 38 46  1  0  0  0
 38 47  1  0  0  0
 39 64  1  0  0  0
 39 67  2  0  0  0
 40 52  1  0  0  0
 40 53  2  0  0  0
 40 58  1  0  0  0
 41104  1  0  0  0
 41105  1  0  0  0
 41106  1  0  0  0
 41 48  1  0  0  0
 42 43  1  0  0  0
 42 66  1  0  0  0
 42107  1  0  0  0
 42108  1  0  0  0
 43 44  1  0  0  0
 44109  1  0  0  0
 45 46  2  0  0  0
 45110  1  0  0  0
 46111  1  0  0  0
 47112  1  0  0  0
 47113  1  0  0  0
 48 56  1  0  0  0
 48 65  1  0  0  0
 48114  1  0  0  0
 49 50  1  0  0  0
 49 53  1  0  0  0
 49 64  1  0  0  0
 49115  1  0  0  0
 50 51  1  0  0  0
 50116  1  0  0  0
 50117  1  0  0  0
 51 52  1  0  0  0
 51118  1  0  0  0
 51119  1  0  0  0
 52120  1  0  0  0
 52121  1  0  0  0
 53 54  1  0  0  0
 54 55  2  0  0  0
 54122  1  0  0  0
 55 57  1  0  0  0
 55123  1  0  0  0
 56 69  2  0  0  0
 57 58  2  0  0  0
 57124  1  0  0  0
 58125  1  0  0  0
 59 60  1  0  0  0
 59 61  1  0  0  0
 59 62  1  0  0  0
 60126  1  0  0  0
 60127  1  0  0  0
 60128  1  0  0  0
 61129  1  0  0  0
 61130  1  0  0  0
 61131  1  0  0  0
 62132  1  0  0  0
 62133  1  0  0  0
 62134  1  0  0  0
 63 65  1  0  0  0
 63135  1  0  0  0
 63136  1  0  0  0
 63137  1  0  0  0
 64138  1  0  0  0
 65139  1  0  0  0
 68 77  1  0  0  0
 71 79  1  0  0  0
 71140  1  0  0  0
 71141  1  0  0  0
 71 74  1  0  0  0
 72 79  1  0  0  0
 72142  1  0  0  0
 72143  1  0  0  0
 72 75  1  0  0  0
 73 74  1  0  0  0
 73144  1  0  0  0
 73145  1  0  0  0
 73 80  1  0  0  0
 74 75  1  0  0  0
 74146  1  0  0  0
 75 80  1  0  0  0
 75147  1  0  0  0
 76148  1  0  0  0
 76149  1  0  0  0
 76150  1  0  0  0
 76 78  1  0  0  0
 77 78  1  0  0  0
 77151  1  0  0  0
 77152  1  0  0  0
 78 80  1  0  0  0
 78153  1  0  0  0
 80154  1  0  0  0
M  CHG  1  80   1
M  ISO  4   1 100  68 101  77 101  79 100
M  END
> <chiral flag>
0

> <version>
0

> <s_m_source_file>
/data/baiqing/PycharmProjects/Reinvent-master-3.2/result/LINK_invent/BTK/process_docking_weight1_custom_sum_contain_oxygen_bond_distance_aromatic_linkinvent_7_9_3/rearranged_h_0185.sdf

> <i_m_source_file_index>
74

> <r_mmod_Potential_Energy-OPLS-2005>
1758.89465332031

> <r_mmod_Stretch_Energy-OPLS-2005>
687.797119140625

> <r_mmod_Bend_Energy-OPLS-2005>
609.966430664062

> <r_mmod_Torsional_Energy-OPLS-2005>
408.962982177734

> <r_mmod_Improper_Torsional_Energy-OPLS-2005>
2.37917065620422

> <r_mmod_Van_der_Waal_Energy-OPLS-2005>
106.937164306641

> <r_mmod_Electrostatic_Energy-OPLS-2005>
-163.87028503418

> <r_mmod_Solvation_Energy-OPLS-2005>
-441.425018310547

> <b_mmod_Minimization_Converged-OPLS-2005>
0

> <r_mmod_RMS_Derivative-OPLS-2005>
2.75783061981201

$$$$
74
                    3D
 Structure written by MMmdl.
155164  0  0  1  0            999 V2000
  -30.3836  -15.4950   20.3781 C   0  0  0  0  0  0
  -30.4280  -12.9905   19.5382 C   0  0  0  0  0  0
  -29.5533  -12.6338   18.3064 C   0  0  0  0  0  0
  -28.1167  -12.2992   18.7384 C   0  0  0  0  0  0
  -27.5995  -13.2956   19.8045 C   0  0  2  0  0  0
  -28.6174  -13.5843   20.9301 C   0  0  0  0  0  0
  -25.2332  -13.8243   20.5677 C   0  0  0  0  0  0
  -24.1722  -13.0415   20.9247 C   0  0  0  0  0  0
  -24.6416  -11.6940   20.8728 C   0  0  0  0  0  0
  -23.9112  -10.4299   21.0386 C   0  0  0  0  0  0
  -24.3660   -9.4212   21.9159 C   0  0  0  0  0  0
  -23.6329   -8.2249   22.0723 C   0  0  0  0  0  0
  -22.4306   -8.0289   21.3520 C   0  0  0  0  0  0
  -21.9954   -9.0258   20.4615 C   0  0  0  0  0  0
  -22.7288  -10.2132   20.3028 C   0  0  0  0  0  0
  -21.6864   -6.0758   22.5280 C   0  0  0  0  0  0
  -21.4018   -6.5648   23.8223 C   0  0  0  0  0  0
  -21.3657   -5.6786   24.9167 C   0  0  0  0  0  0
  -21.6040   -4.3050   24.7209 C   0  0  0  0  0  0
  -21.8830   -3.8157   23.4323 C   0  0  0  0  0  0
  -21.9201   -4.6986   22.3395 C   0  0  0  0  0  0
  -22.7747  -13.5181   21.1881 C   0  0  0  0  0  0
  -22.1669   -4.2190   21.0967 F   0  0  0  0  0  0
  -21.5620   -3.4518   25.7708 F   0  0  0  0  0  0
  -29.8100  -14.1682   20.2819 N   0  0  0  0  0  0
  -26.2770  -12.9563   20.3139 N   0  0  0  0  0  0
  -25.9346  -11.6660   20.5646 N   0  0  0  0  0  0
  -22.0383  -12.8192   22.0431 N   0  0  0  0  0  0
  -25.3918  -15.1953   20.4033 N   0  0  0  0  0  0
  -31.6214  -15.4061   20.2853 O   0  0  0  0  0  0
  -21.6632   -6.8910   21.4243 O   0  0  0  0  0  0
  -22.3460  -14.5485   20.6698 O   0  0  0  0  0  0
  -24.6739  -31.8109   23.1619 C   0  0  0  0  0  0
  -25.9366  -32.4516   23.8112 C   0  0  1  0  0  0
  -27.2179  -26.7942   20.2253 C   0  0  0  0  0  0
  -25.5985  -33.8342   24.2009 N   0  0  0  0  0  0
  -23.4953  -30.4237   21.5080 C   0  0  2  0  0  0
  -24.9522  -28.7817   20.1222 C   0  0  0  0  0  0
  -22.7727  -29.4394   22.4668 C   0  0  0  0  0  0
  -18.0357  -28.1441   22.8454 C   0  0  0  0  0  0
  -24.1510  -36.7226   23.2644 C   0  0  0  0  0  0
  -26.0721  -30.5795   21.4076 C   0  0  0  0  0  0
  -26.1385  -29.1489   20.7697 C   0  0  0  0  0  0
  -27.2646  -28.1841   20.7902 C   0  0  0  0  0  0
  -26.0007  -26.6159   19.5247 C   0  0  0  0  0  0
  -24.9150  -27.5360   19.4770 C   0  0  0  0  0  0
  -23.7525  -29.7376   20.1359 C   0  0  0  0  0  0
  -25.4136  -36.2934   24.0291 C   0  0  1  0  0  0
  -20.5991  -28.3818   23.1135 C   0  0  2  0  0  0
  -20.6842  -26.9483   22.5388 C   0  0  0  0  0  0
  -19.5806  -26.6384   21.5228 C   0  0  0  0  0  0
  -18.1993  -26.7966   22.1630 C   0  0  0  0  0  0
  -19.1623  -28.8942   23.2796 C   0  0  0  0  0  0
  -18.9535  -30.1516   23.8863 C   0  0  0  0  0  0
  -17.6529  -30.6610   24.0581 C   0  0  0  0  0  0
  -25.9108  -34.9320   23.4976 C   0  0  0  0  0  0
  -16.5421  -29.9127   23.6318 C   0  0  0  0  0  0
  -16.7341  -28.6550   23.0331 C   0  0  0  0  0  0
  -26.4591  -31.6480   25.0672 C   0  0  0  0  0  0
  -25.3692  -31.3785   26.1321 C   0  0  0  0  0  0
  -27.0476  -30.2806   24.6475 C   0  0  0  0  0  0
  -27.6043  -32.4310   25.7496 C   0  0  0  0  0  0
  -27.5579  -37.1769   24.8454 C   0  0  0  0  0  0
  -21.4379  -29.3100   22.3472 N   0  0  0  0  0  0
  -26.4276  -37.3676   23.9414 N   0  0  0  0  0  0
  -24.7695  -30.9671   22.0813 N   0  0  0  0  0  0
  -23.4222  -28.7918   23.2925 O   0  0  0  0  0  0
  -28.2137  -25.6351   20.1462 O   0  0  0  0  0  0
  -26.5740  -34.8869   22.4588 O   0  0  0  0  0  0
  -23.5781  -32.1146   23.6646 O   0  0  0  0  0  0
  -27.7126  -22.9313   22.5339 C   0  0  0  0  0  0
  -28.2159  -21.6800   22.0767 C   0  0  0  0  0  0
  -28.6962  -21.5332   20.7414 C   0  0  0  0  0  0
  -28.1255  -24.1790   20.6298 C   0  0  0  0  0  0
  -27.8926  -18.7997   20.0607 C   0  0  0  0  0  0
  -28.3125  -17.2226   19.9947 C   0  0  0  0  0  0
  -30.0966  -18.4717   20.6653 C   0  0  0  0  0  0
  -29.0714  -19.8362   20.1629 C   0  0  2  0  0  0
  -26.9285  -20.3349   23.8835 C   0  0  0  0  0  0
  -28.2376  -20.5336   23.0949 C   0  0  0  0  0  0
  -27.6471  -24.0994   21.8561 N   0  0  0  0  0  0
  -28.6431  -22.8942   20.0811 N   0  0  0  0  0  0
  -29.7009  -16.8793   20.4156 N   0  0  0  0  0  0
  -31.4308  -13.2376   19.1917 H   0  0  0  0  0  0
  -30.5562  -12.1281   20.1971 H   0  0  0  0  0  0
  -29.9935  -11.8024   17.7559 H   0  0  0  0  0  0
  -29.5369  -13.4833   17.6222 H   0  0  0  0  0  0
  -28.1253  -11.2919   19.1554 H   0  0  0  0  0  0
  -27.4557  -12.2679   17.8717 H   0  0  0  0  0  0
  -27.4780  -14.2283   19.2556 H   0  0  0  0  0  0
  -28.8456  -12.6882   21.5087 H   0  0  0  0  0  0
  -28.2001  -14.3085   21.6299 H   0  0  0  0  0  0
  -25.2802   -9.5690   22.4750 H   0  0  0  0  0  0
  -24.0025   -7.4648   22.7458 H   0  0  0  0  0  0
  -21.0884   -8.8796   19.8923 H   0  0  0  0  0  0
  -22.3753  -10.9671   19.6144 H   0  0  0  0  0  0
  -21.2006   -7.6151   23.9750 H   0  0  0  0  0  0
  -21.1466   -6.0489   25.9079 H   0  0  0  0  0  0
  -22.0611   -2.7623   23.2798 H   0  0  0  0  0  0
  -22.3981  -11.9883   22.4883 H   0  0  0  0  0  0
  -21.0979  -13.1197   22.2534 H   0  0  0  0  0  0
  -24.6187  -15.8459   20.4937 H   0  0  0  0  0  0
  -26.2300  -15.6193   20.0295 H   0  0  0  0  0  0
  -26.7449  -32.5020   23.0837 H   0  0  0  0  0  0
  -25.0060  -33.9418   25.0114 H   0  0  0  0  0  0
  -22.8138  -31.2593   21.3277 H   0  0  0  0  0  0
  -23.3752  -35.9576   23.3231 H   0  0  0  0  0  0
  -24.3611  -36.8955   22.2072 H   0  0  0  0  0  0
  -23.7288  -37.6398   23.6763 H   0  0  0  0  0  0
  -26.2512  -31.3030   20.6117 H   0  0  0  0  0  0
  -26.9330  -30.6550   22.0593 H   0  0  0  0  0  0
  -28.1688  -28.4888   21.2970 H   0  0  0  0  0  0
  -25.8606  -25.6738   19.0153 H   0  0  0  0  0  0
  -24.0224  -27.2497   18.9376 H   0  0  0  0  0  0
  -23.9489  -30.5138   19.3947 H   0  0  0  0  0  0
  -22.8554  -29.2263   19.7819 H   0  0  0  0  0  0
  -25.1332  -36.1710   25.0777 H   0  0  0  0  0  0
  -21.0111  -28.3464   24.1240 H   0  0  0  0  0  0
  -20.5768  -26.2454   23.3653 H   0  0  0  0  0  0
  -21.6702  -26.7464   22.1181 H   0  0  0  0  0  0
  -19.6997  -25.6282   21.1295 H   0  0  0  0  0  0
  -19.6742  -27.3163   20.6728 H   0  0  0  0  0  0
  -17.4270  -26.6713   21.4019 H   0  0  0  0  0  0
  -18.0392  -26.0126   22.9035 H   0  0  0  0  0  0
  -19.8021  -30.7326   24.2220 H   0  0  0  0  0  0
  -17.5098  -31.6269   24.5224 H   0  0  0  0  0  0
  -15.5436  -30.3047   23.7617 H   0  0  0  0  0  0
  -15.8743  -28.0863   22.7040 H   0  0  0  0  0  0
  -24.5893  -30.7110   25.7649 H   0  0  0  0  0  0
  -24.8886  -32.3015   26.4564 H   0  0  0  0  0  0
  -25.7916  -30.9075   27.0210 H   0  0  0  0  0  0
  -26.3151  -29.6435   24.1507 H   0  0  0  0  0  0
  -27.3979  -29.7213   25.5167 H   0  0  0  0  0  0
  -27.9112  -30.3896   23.9905 H   0  0  0  0  0  0
  -27.2570  -33.3662   26.1899 H   0  0  0  0  0  0
  -28.3966  -32.6777   25.0412 H   0  0  0  0  0  0
  -28.0591  -31.8543   26.5570 H   0  0  0  0  0  0
  -28.2506  -38.0141   24.7507 H   0  0  0  0  0  0
  -28.1149  -36.2655   24.6240 H   0  0  0  0  0  0
  -27.2318  -37.1365   25.8861 H   0  0  0  0  0  0
  -20.9658  -29.8825   21.6613 H   0  0  0  0  0  0
  -26.0101  -38.2725   24.1428 H   0  0  0  0  0  0
  -27.3364  -23.0164   23.5424 H   0  0  0  0  0  0
  -27.2433  -19.0566   19.2216 H   0  0  0  0  0  0
  -27.2602  -18.9234   20.9391 H   0  0  0  0  0  0
  -28.1851  -16.8573   18.9755 H   0  0  0  0  0  0
  -27.6337  -16.6479   20.6219 H   0  0  0  0  0  0
  -30.2368  -18.5546   21.7423 H   0  0  0  0  0  0
  -31.0930  -18.6268   20.2511 H   0  0  0  0  0  0
  -29.3853  -20.0229   19.1348 H   0  0  0  0  0  0
  -26.6725  -21.1884   24.5133 H   0  0  0  0  0  0
  -27.0169  -19.4825   24.5551 H   0  0  0  0  0  0
  -26.0884  -20.1310   23.2197 H   0  0  0  0  0  0
  -29.0488  -20.7208   23.8014 H   0  0  0  0  0  0
  -28.4821  -19.5873   22.6300 H   0  0  0  0  0  0
  1 25  1  0  0  0
  1 30  2  0  0  0
  1 83  1  0  0  0
  2  3  1  0  0  0
  2 25  1  0  0  0
  2 84  1  0  0  0
  2 85  1  0  0  0
  3  4  1  0  0  0
  3 86  1  0  0  0
  3 87  1  0  0  0
  4  5  1  0  0  0
  4 88  1  0  0  0
  4 89  1  0  0  0
  5  6  1  0  0  0
  5 26  1  0  0  0
  5 90  1  0  0  0
  6 25  1  0  0  0
  6 91  1  0  0  0
  6 92  1  0  0  0
  7  8  2  0  0  0
  7 26  1  0  0  0
  7 29  1  0  0  0
  8  9  1  0  0  0
  8 22  1  0  0  0
  9 10  1  0  0  0
  9 27  2  0  0  0
 10 11  2  0  0  0
 10 15  1  0  0  0
 11 12  1  0  0  0
 11 93  1  0  0  0
 12 13  2  0  0  0
 12 94  1  0  0  0
 13 14  1  0  0  0
 13 31  1  0  0  0
 14 15  2  0  0  0
 14 95  1  0  0  0
 15 96  1  0  0  0
 16 17  2  0  0  0
 16 21  1  0  0  0
 16 31  1  0  0  0
 17 18  1  0  0  0
 17 97  1  0  0  0
 18 19  2  0  0  0
 18 98  1  0  0  0
 19 20  1  0  0  0
 19 24  1  0  0  0
 20 21  2  0  0  0
 20 99  1  0  0  0
 21 23  1  0  0  0
 22 28  1  0  0  0
 22 32  2  0  0  0
 26 27  1  0  0  0
 28100  1  0  0  0
 28101  1  0  0  0
 29102  1  0  0  0
 29103  1  0  0  0
 33 34  1  0  0  0
 33 66  1  0  0  0
 33 70  2  0  0  0
 34 36  1  0  0  0
 34 59  1  0  0  0
 34104  1  0  0  0
 35 44  2  0  0  0
 35 45  1  0  0  0
 35 68  1  0  0  0
 36 56  1  0  0  0
 36105  1  0  0  0
 37 39  1  0  0  0
 37 47  1  0  0  0
 37 66  1  0  0  0
 37106  1  0  0  0
 38 43  2  0  0  0
 38 46  1  0  0  0
 38 47  1  0  0  0
 39 64  1  0  0  0
 39 67  2  0  0  0
 40 52  1  0  0  0
 40 53  2  0  0  0
 40 58  1  0  0  0
 41107  1  0  0  0
 41108  1  0  0  0
 41109  1  0  0  0
 41 48  1  0  0  0
 42 43  1  0  0  0
 42 66  1  0  0  0
 42110  1  0  0  0
 42111  1  0  0  0
 43 44  1  0  0  0
 44112  1  0  0  0
 45 46  2  0  0  0
 45113  1  0  0  0
 46114  1  0  0  0
 47115  1  0  0  0
 47116  1  0  0  0
 48 56  1  0  0  0
 48 65  1  0  0  0
 48117  1  0  0  0
 49 50  1  0  0  0
 49 53  1  0  0  0
 49 64  1  0  0  0
 49118  1  0  0  0
 50 51  1  0  0  0
 50119  1  0  0  0
 50120  1  0  0  0
 51 52  1  0  0  0
 51121  1  0  0  0
 51122  1  0  0  0
 52123  1  0  0  0
 52124  1  0  0  0
 53 54  1  0  0  0
 54 55  2  0  0  0
 54125  1  0  0  0
 55 57  1  0  0  0
 55126  1  0  0  0
 56 69  2  0  0  0
 57 58  2  0  0  0
 57127  1  0  0  0
 58128  1  0  0  0
 59 60  1  0  0  0
 59 61  1  0  0  0
 59 62  1  0  0  0
 60129  1  0  0  0
 60130  1  0  0  0
 60131  1  0  0  0
 61132  1  0  0  0
 61133  1  0  0  0
 61134  1  0  0  0
 62135  1  0  0  0
 62136  1  0  0  0
 62137  1  0  0  0
 63 65  1  0  0  0
 63138  1  0  0  0
 63139  1  0  0  0
 63140  1  0  0  0
 64141  1  0  0  0
 65142  1  0  0  0
 68 74  1  0  0  0
 71 72  2  0  0  0
 71 81  1  0  0  0
 71143  1  0  0  0
 72 73  1  0  0  0
 72 80  1  0  0  0
 73 82  2  0  0  0
 73 78  1  0  0  0
 74 81  2  0  0  0
 74 82  1  0  0  0
 75 76  1  0  0  0
 75 78  1  0  0  0
 75144  1  0  0  0
 75145  1  0  0  0
 76 83  1  0  0  0
 76146  1  0  0  0
 76147  1  0  0  0
 77 78  1  0  0  0
 77 83  1  0  0  0
 77148  1  0  0  0
 77149  1  0  0  0
 78150  1  0  0  0
 79 80  1  0  0  0
 79151  1  0  0  0
 79152  1  0  0  0
 79153  1  0  0  0
 80154  1  0  0  0
 80155  1  0  0  0
M  ISO  4   1 100  68 101  74 101  83 100
M  END
> <chiral flag>
0

> <version>
0

> <s_m_source_file>
/data/baiqing/PycharmProjects/Reinvent-master-3.2/result/LINK_invent/BTK/process_docking_weight1_custom_sum_contain_oxygen_bond_distance_aromatic_linkinvent_7_9_3/rearranged_h_0185.sdf

> <i_m_source_file_index>
75

> <r_mmod_Potential_Energy-OPLS-2005>
1633.89147949219

> <r_mmod_Stretch_Energy-OPLS-2005>
740.878784179688

> <r_mmod_Bend_Energy-OPLS-2005>
585.469604492188

> <r_mmod_Torsional_Energy-OPLS-2005>
333.502563476562

> <r_mmod_Improper_Torsional_Energy-OPLS-2005>
5.69562959671021

> <r_mmod_Van_der_Waal_Energy-OPLS-2005>
125.657928466797

> <r_mmod_Electrostatic_Energy-OPLS-2005>
-621.759338378906

> <r_mmod_Solvation_Energy-OPLS-2005>
-235.282012939453

> <b_mmod_Minimization_Converged-OPLS-2005>
0

> <r_mmod_RMS_Derivative-OPLS-2005>
3.73795866966248

$$$$
75
                    3D
 Structure written by MMmdl.
150158  0  0  1  0            999 V2000
  -30.4148  -15.4922   20.3454 C   0  0  0  0  0  0
  -30.4110  -12.9824   19.5307 C   0  0  0  0  0  0
  -29.5316  -12.6171   18.3075 C   0  0  0  0  0  0
  -28.0998  -12.2931   18.7540 C   0  0  0  0  0  0
  -27.5933  -13.3012   19.8128 C   0  0  2  0  0  0
  -28.6164  -13.6083   20.9311 C   0  0  0  0  0  0
  -25.2318  -13.8297   20.5816 C   0  0  0  0  0  0
  -24.1698  -13.0448   20.9295 C   0  0  0  0  0  0
  -24.6389  -11.6955   20.8780 C   0  0  0  0  0  0
  -23.9103  -10.4296   21.0409 C   0  0  0  0  0  0
  -24.3645   -9.4206   21.9185 C   0  0  0  0  0  0
  -23.6310   -8.2245   22.0753 C   0  0  0  0  0  0
  -22.4288   -8.0288   21.3547 C   0  0  0  0  0  0
  -21.9934   -9.0264   20.4647 C   0  0  0  0  0  0
  -22.7274  -10.2138   20.3057 C   0  0  0  0  0  0
  -21.6857   -6.0739   22.5278 C   0  0  0  0  0  0
  -21.4020   -6.5642   23.8212 C   0  0  0  0  0  0
  -21.3661   -5.6795   24.9175 C   0  0  0  0  0  0
  -21.6045   -4.3057   24.7224 C   0  0  0  0  0  0
  -21.8818   -3.8148   23.4345 C   0  0  0  0  0  0
  -21.9193   -4.6965   22.3401 C   0  0  0  0  0  0
  -22.7712  -13.5178   21.1930 C   0  0  0  0  0  0
  -22.1660   -4.2152   21.0978 F   0  0  0  0  0  0
  -21.5625   -3.4541   25.7736 F   0  0  0  0  0  0
  -29.8063  -14.1788   20.2668 N   0  0  0  0  0  0
  -26.2749  -12.9614   20.3259 N   0  0  0  0  0  0
  -25.9332  -11.6691   20.5733 N   0  0  0  0  0  0
  -22.0377  -12.8149   22.0478 N   0  0  0  0  0  0
  -25.3945  -15.2037   20.4269 N   0  0  0  0  0  0
  -31.6422  -15.3537   20.1831 O   0  0  0  0  0  0
  -21.6648   -6.8887   21.4242 O   0  0  0  0  0  0
  -22.3392  -14.5479   20.6769 O   0  0  0  0  0  0
  -24.6761  -31.8082   23.1573 C   0  0  0  0  0  0
  -25.9378  -32.4506   23.8095 C   0  0  1  0  0  0
  -27.2183  -26.7801   20.2035 C   0  0  0  0  0  0
  -25.5988  -33.8328   24.1988 N   0  0  0  0  0  0
  -23.4981  -30.4133   21.5094 C   0  0  2  0  0  0
  -24.9534  -28.7703   20.1125 C   0  0  0  0  0  0
  -22.7733  -29.4356   22.4730 C   0  0  0  0  0  0
  -18.0336  -28.1414   22.8464 C   0  0  0  0  0  0
  -24.1495  -36.7174   23.2652 C   0  0  0  0  0  0
  -26.0742  -30.5659   21.4102 C   0  0  0  0  0  0
  -26.1392  -29.1397   20.7580 C   0  0  0  0  0  0
  -27.2594  -28.1690   20.7749 C   0  0  0  0  0  0
  -26.0047  -26.6016   19.4972 C   0  0  0  0  0  0
  -24.9207  -27.5264   19.4589 C   0  0  0  0  0  0
  -23.7467  -29.7168   20.1409 C   0  0  0  0  0  0
  -25.4141  -36.2918   24.0287 C   0  0  1  0  0  0
  -20.5967  -28.3770   23.1160 C   0  0  2  0  0  0
  -20.6802  -26.9438   22.5404 C   0  0  0  0  0  0
  -19.5774  -26.6372   21.5219 C   0  0  0  0  0  0
  -18.1959  -26.7944   22.1626 C   0  0  0  0  0  0
  -19.1600  -28.8916   23.2795 C   0  0  0  0  0  0
  -18.9506  -30.1501   23.8837 C   0  0  0  0  0  0
  -17.6496  -30.6599   24.0554 C   0  0  0  0  0  0
  -25.9116  -34.9307   23.4971 C   0  0  0  0  0  0
  -16.5387  -29.9082   23.6346 C   0  0  0  0  0  0
  -16.7317  -28.6504   23.0366 C   0  0  0  0  0  0
  -26.4578  -31.6511   25.0687 C   0  0  0  0  0  0
  -25.3662  -31.3808   26.1315 C   0  0  0  0  0  0
  -27.0500  -30.2857   24.6532 C   0  0  0  0  0  0
  -27.6035  -32.4360   25.7504 C   0  0  0  0  0  0
  -27.5564  -37.1745   24.8468 C   0  0  0  0  0  0
  -21.4386  -29.3035   22.3489 N   0  0  0  0  0  0
  -26.4274  -37.3670   23.9406 N   0  0  0  0  0  0
  -24.7720  -30.9605   22.0785 N   0  0  0  0  0  0
  -23.4217  -28.7949   23.3039 O   0  0  0  0  0  0
  -28.1927  -25.6027   20.3084 O   0  0  0  0  0  0
  -26.5749  -34.8871   22.4582 O   0  0  0  0  0  0
  -23.5798  -32.1121   23.6578 O   0  0  0  0  0  0
  -28.5071  -17.7105   20.5805 C   0  0  0  0  0  0
  -30.5849  -18.1983   19.7660 C   0  0  0  0  0  0
  -28.2678  -19.4130   20.8770 C   0  0  0  0  0  0
  -30.3409  -19.8585   20.1141 C   0  0  0  0  0  0
  -28.9045  -22.2980   20.5810 C   0  0  0  0  0  0
  -28.0493  -23.9000   20.0444 C   0  0  0  0  0  0
  -29.8418  -16.9299   20.3046 N   0  0  0  0  0  0
  -28.9707  -20.6109   20.1293 N   0  3  0  0  0  0
  -31.4189  -13.1938   19.1716 H   0  0  0  0  0  0
  -30.5243  -12.1258   20.1973 H   0  0  0  0  0  0
  -29.9583  -11.7722   17.7652 H   0  0  0  0  0  0
  -29.5159  -13.4558   17.6099 H   0  0  0  0  0  0
  -28.1069  -11.2901   19.1826 H   0  0  0  0  0  0
  -27.4261  -12.2575   17.8971 H   0  0  0  0  0  0
  -27.4652  -14.2308   19.2561 H   0  0  0  0  0  0
  -28.8479  -12.7237   21.5263 H   0  0  0  0  0  0
  -28.2077  -14.3485   21.6208 H   0  0  0  0  0  0
  -25.2783   -9.5681   22.4771 H   0  0  0  0  0  0
  -24.0011   -7.4637   22.7477 H   0  0  0  0  0  0
  -21.0860   -8.8794   19.8954 H   0  0  0  0  0  0
  -22.3731  -10.9682   19.6172 H   0  0  0  0  0  0
  -21.2019   -7.6152   23.9718 H   0  0  0  0  0  0
  -21.1482   -6.0523   25.9079 H   0  0  0  0  0  0
  -22.0594   -2.7609   23.2843 H   0  0  0  0  0  0
  -22.4019  -11.9822   22.4865 H   0  0  0  0  0  0
  -21.0990  -13.1150   22.2692 H   0  0  0  0  0  0
  -24.6241  -15.8535   20.5418 H   0  0  0  0  0  0
  -26.2417  -15.6450   20.0948 H   0  0  0  0  0  0
  -26.7457  -32.4999   23.0809 H   0  0  0  0  0  0
  -25.0055  -33.9378   25.0086 H   0  0  0  0  0  0
  -22.8191  -31.2487   21.3262 H   0  0  0  0  0  0
  -23.3767  -35.9493   23.3276 H   0  0  0  0  0  0
  -24.3564  -36.8867   22.2074 H   0  0  0  0  0  0
  -23.7247  -37.6343   23.6746 H   0  0  0  0  0  0
  -26.2712  -31.2963   20.6245 H   0  0  0  0  0  0
  -26.9279  -30.6288   22.0728 H   0  0  0  0  0  0
  -28.1513  -28.4530   21.3153 H   0  0  0  0  0  0
  -25.8532  -25.6561   18.9966 H   0  0  0  0  0  0
  -24.0243  -27.2375   18.9273 H   0  0  0  0  0  0
  -23.9164  -30.4800   19.3805 H   0  0  0  0  0  0
  -22.8527  -29.1803   19.8184 H   0  0  0  0  0  0
  -25.1347  -36.1692   25.0778 H   0  0  0  0  0  0
  -21.0056  -28.3389   24.1284 H   0  0  0  0  0  0
  -20.5670  -26.2395   23.3660 H   0  0  0  0  0  0
  -21.6663  -26.7387   22.1219 H   0  0  0  0  0  0
  -19.6928  -25.6266   21.1289 H   0  0  0  0  0  0
  -19.6709  -27.3149   20.6721 H   0  0  0  0  0  0
  -17.4227  -26.6693   21.4029 H   0  0  0  0  0  0
  -18.0345  -26.0097   22.9033 H   0  0  0  0  0  0
  -19.7980  -30.7335   24.2177 H   0  0  0  0  0  0
  -17.5045  -31.6270   24.5172 H   0  0  0  0  0  0
  -15.5383  -30.2966   23.7696 H   0  0  0  0  0  0
  -15.8720  -28.0798   22.7115 H   0  0  0  0  0  0
  -24.5867  -30.7134   25.7620 H   0  0  0  0  0  0
  -24.8828  -32.3024   26.4565 H   0  0  0  0  0  0
  -25.7857  -30.9089   27.0209 H   0  0  0  0  0  0
  -26.3195  -29.6485   24.1536 H   0  0  0  0  0  0
  -27.3968  -29.7285   25.5243 H   0  0  0  0  0  0
  -27.9162  -30.3998   24.0013 H   0  0  0  0  0  0
  -27.2573  -33.3718   26.1904 H   0  0  0  0  0  0
  -28.3938  -32.6831   25.0404 H   0  0  0  0  0  0
  -28.0602  -31.8612   26.5570 H   0  0  0  0  0  0
  -28.2558  -38.0061   24.7505 H   0  0  0  0  0  0
  -28.1083  -36.2584   24.6306 H   0  0  0  0  0  0
  -27.2279  -37.1398   25.8870 H   0  0  0  0  0  0
  -20.9672  -29.8709   21.6583 H   0  0  0  0  0  0
  -26.0107  -38.2723   24.1408 H   0  0  0  0  0  0
  -27.8886  -17.4764   19.7135 H   0  0  0  0  0  0
  -28.0223  -17.1782   21.3995 H   0  0  0  0  0  0
  -31.6441  -18.0140   19.9484 H   0  0  0  0  0  0
  -30.4908  -18.1107   18.6828 H   0  0  0  0  0  0
  -28.4967  -19.5651   21.9330 H   0  0  0  0  0  0
  -27.1964  -19.6045   20.8119 H   0  0  0  0  0  0
  -30.9825  -20.4214   19.4362 H   0  0  0  0  0  0
  -30.7806  -20.0318   21.0978 H   0  0  0  0  0  0
  -28.7760  -22.2650   21.6623 H   0  0  0  0  0  0
  -29.9520  -22.5739   20.4635 H   0  0  0  0  0  0
  -26.9983  -23.7157   20.2660 H   0  0  0  0  0  0
  -28.0914  -23.8508   18.9566 H   0  0  0  0  0  0
  -28.6395  -20.5811   19.1761 H   0  0  0  0  0  0
  1 25  1  0  0  0
  1 30  2  0  0  0
  1 77  1  0  0  0
  2  3  1  0  0  0
  2 25  1  0  0  0
  2 79  1  0  0  0
  2 80  1  0  0  0
  3  4  1  0  0  0
  3 81  1  0  0  0
  3 82  1  0  0  0
  4  5  1  0  0  0
  4 83  1  0  0  0
  4 84  1  0  0  0
  5  6  1  0  0  0
  5 26  1  0  0  0
  5 85  1  0  0  0
  6 25  1  0  0  0
  6 86  1  0  0  0
  6 87  1  0  0  0
  7  8  2  0  0  0
  7 26  1  0  0  0
  7 29  1  0  0  0
  8  9  1  0  0  0
  8 22  1  0  0  0
  9 10  1  0  0  0
  9 27  2  0  0  0
 10 11  2  0  0  0
 10 15  1  0  0  0
 11 12  1  0  0  0
 11 88  1  0  0  0
 12 13  2  0  0  0
 12 89  1  0  0  0
 13 14  1  0  0  0
 13 31  1  0  0  0
 14 15  2  0  0  0
 14 90  1  0  0  0
 15 91  1  0  0  0
 16 17  2  0  0  0
 16 21  1  0  0  0
 16 31  1  0  0  0
 17 18  1  0  0  0
 17 92  1  0  0  0
 18 19  2  0  0  0
 18 93  1  0  0  0
 19 20  1  0  0  0
 19 24  1  0  0  0
 20 21  2  0  0  0
 20 94  1  0  0  0
 21 23  1  0  0  0
 22 28  1  0  0  0
 22 32  2  0  0  0
 26 27  1  0  0  0
 28 95  1  0  0  0
 28 96  1  0  0  0
 29 97  1  0  0  0
 29 98  1  0  0  0
 33 34  1  0  0  0
 33 66  1  0  0  0
 33 70  2  0  0  0
 34 36  1  0  0  0
 34 59  1  0  0  0
 34 99  1  0  0  0
 35 44  2  0  0  0
 35 45  1  0  0  0
 35 68  1  0  0  0
 36 56  1  0  0  0
 36100  1  0  0  0
 37 39  1  0  0  0
 37 47  1  0  0  0
 37 66  1  0  0  0
 37101  1  0  0  0
 38 43  2  0  0  0
 38 46  1  0  0  0
 38 47  1  0  0  0
 39 64  1  0  0  0
 39 67  2  0  0  0
 40 52  1  0  0  0
 40 53  2  0  0  0
 40 58  1  0  0  0
 41102  1  0  0  0
 41103  1  0  0  0
 41104  1  0  0  0
 41 48  1  0  0  0
 42 43  1  0  0  0
 42 66  1  0  0  0
 42105  1  0  0  0
 42106  1  0  0  0
 43 44  1  0  0  0
 44107  1  0  0  0
 45 46  2  0  0  0
 45108  1  0  0  0
 46109  1  0  0  0
 47110  1  0  0  0
 47111  1  0  0  0
 48 56  1  0  0  0
 48 65  1  0  0  0
 48112  1  0  0  0
 49 50  1  0  0  0
 49 53  1  0  0  0
 49 64  1  0  0  0
 49113  1  0  0  0
 50 51  1  0  0  0
 50114  1  0  0  0
 50115  1  0  0  0
 51 52  1  0  0  0
 51116  1  0  0  0
 51117  1  0  0  0
 52118  1  0  0  0
 52119  1  0  0  0
 53 54  1  0  0  0
 54 55  2  0  0  0
 54120  1  0  0  0
 55 57  1  0  0  0
 55121  1  0  0  0
 56 69  2  0  0  0
 57 58  2  0  0  0
 57122  1  0  0  0
 58123  1  0  0  0
 59 60  1  0  0  0
 59 61  1  0  0  0
 59 62  1  0  0  0
 60124  1  0  0  0
 60125  1  0  0  0
 60126  1  0  0  0
 61127  1  0  0  0
 61128  1  0  0  0
 61129  1  0  0  0
 62130  1  0  0  0
 62131  1  0  0  0
 62132  1  0  0  0
 63 65  1  0  0  0
 63133  1  0  0  0
 63134  1  0  0  0
 63135  1  0  0  0
 64136  1  0  0  0
 65137  1  0  0  0
 68 76  1  0  0  0
 71 73  1  0  0  0
 71 77  1  0  0  0
 71138  1  0  0  0
 71139  1  0  0  0
 72 74  1  0  0  0
 72 77  1  0  0  0
 72140  1  0  0  0
 72141  1  0  0  0
 73 78  1  0  0  0
 73142  1  0  0  0
 73143  1  0  0  0
 74 78  1  0  0  0
 74144  1  0  0  0
 74145  1  0  0  0
 75 76  1  0  0  0
 75146  1  0  0  0
 75147  1  0  0  0
 75 78  1  0  0  0
 76148  1  0  0  0
 76149  1  0  0  0
 78150  1  0  0  0
M  CHG  1  78   1
M  ISO  4   1 100  68 101  76 101  77 100
M  END
> <chiral flag>
0

> <version>
0

> <s_m_source_file>
/data/baiqing/PycharmProjects/Reinvent-master-3.2/result/LINK_invent/BTK/process_docking_weight1_custom_sum_contain_oxygen_bond_distance_aromatic_linkinvent_7_9_3/rearranged_h_0185.sdf

> <i_m_source_file_index>
76

> <r_mmod_Potential_Energy-OPLS-2005>
2069.70849609375

> <r_mmod_Stretch_Energy-OPLS-2005>
822.303466796875

> <r_mmod_Bend_Energy-OPLS-2005>
682.106689453125

> <r_mmod_Torsional_Energy-OPLS-2005>
364.669525146484

> <r_mmod_Improper_Torsional_Energy-OPLS-2005>
7.53518962860107

> <r_mmod_Van_der_Waal_Energy-OPLS-2005>
115.253486633301

> <r_mmod_Electrostatic_Energy-OPLS-2005>
-187.556671142578

> <r_mmod_Solvation_Energy-OPLS-2005>
-448.615417480469

> <b_mmod_Minimization_Converged-OPLS-2005>
0

> <r_mmod_RMS_Derivative-OPLS-2005>
0.569041132926941

$$$$
76
                    3D
 Structure written by MMmdl.
152161  0  0  1  0            999 V2000
  -30.5098  -14.9781   20.4392 C   0  0  0  0  0  0
  -30.4426  -12.6055   19.5138 C   0  0  0  0  0  0
  -29.5276  -12.5446   18.2669 C   0  0  0  0  0  0
  -28.0587  -12.3269   18.6763 C   0  0  0  0  0  0
  -27.6312  -13.2500   19.8479 C   0  0  2  0  0  0
  -28.6694  -13.2699   20.9901 C   0  0  0  0  0  0
  -25.2454  -13.8222   20.5701 C   0  0  0  0  0  0
  -24.1769  -13.0439   20.9206 C   0  0  0  0  0  0
  -24.6381  -11.6918   20.8731 C   0  0  0  0  0  0
  -23.9075  -10.4290   21.0392 C   0  0  0  0  0  0
  -24.3624   -9.4206   21.9168 C   0  0  0  0  0  0
  -23.6282   -8.2257   22.0762 C   0  0  0  0  0  0
  -22.4271   -8.0278   21.3553 C   0  0  0  0  0  0
  -21.9910   -9.0248   20.4658 C   0  0  0  0  0  0
  -22.7243  -10.2128   20.3040 C   0  0  0  0  0  0
  -21.6849   -6.0717   22.5261 C   0  0  0  0  0  0
  -21.4023   -6.5628   23.8191 C   0  0  0  0  0  0
  -21.3668   -5.6788   24.9160 C   0  0  0  0  0  0
  -21.6045   -4.3046   24.7220 C   0  0  0  0  0  0
  -21.8826   -3.8135   23.4342 C   0  0  0  0  0  0
  -21.9198   -4.6948   22.3395 C   0  0  0  0  0  0
  -22.7796  -13.5211   21.1861 C   0  0  0  0  0  0
  -22.1664   -4.2125   21.0979 F   0  0  0  0  0  0
  -21.5638   -3.4535   25.7748 F   0  0  0  0  0  0
  -29.9436  -13.6998   20.4027 N   0  0  0  0  0  0
  -26.2883  -12.9452   20.3261 N   0  0  0  0  0  0
  -25.9327  -11.6583   20.5746 N   0  0  0  0  0  0
  -22.0472  -12.8179   22.0426 N   0  0  0  0  0  0
  -25.4126  -15.1959   20.4121 N   0  0  0  0  0  0
  -31.7018  -15.0653   20.1236 O   0  0  0  0  0  0
  -21.6647   -6.8859   21.4225 O   0  0  0  0  0  0
  -22.3478  -14.5517   20.6711 O   0  0  0  0  0  0
  -24.6478  -31.8407   23.1807 C   0  0  0  0  0  0
  -25.9220  -32.4676   23.8231 C   0  0  1  0  0  0
  -27.2176  -27.0825   20.1937 C   0  0  0  0  0  0
  -25.5957  -33.8486   24.2156 N   0  0  0  0  0  0
  -23.4526  -30.4576   21.5281 C   0  0  2  0  0  0
  -24.9016  -28.8569   20.1279 C   0  0  0  0  0  0
  -22.7568  -29.4562   22.4839 C   0  0  0  0  0  0
  -18.0315  -28.1405   22.8472 C   0  0  0  0  0  0
  -24.1506  -36.7251   23.2641 C   0  0  0  0  0  0
  -26.0119  -30.6973   21.3850 C   0  0  0  0  0  0
  -26.0807  -29.2976   20.7436 C   0  0  0  0  0  0
  -27.2413  -28.4302   20.7514 C   0  0  0  0  0  0
  -26.0133  -26.7432   19.5476 C   0  0  0  0  0  0
  -24.8808  -27.5910   19.5164 C   0  0  0  0  0  0
  -23.6839  -29.7703   20.1558 C   0  0  0  0  0  0
  -25.4131  -36.3018   24.0312 C   0  0  1  0  0  0
  -20.5919  -28.3738   23.1210 C   0  0  2  0  0  0
  -20.6792  -26.9437   22.5396 C   0  0  0  0  0  0
  -19.5777  -26.6388   21.5200 C   0  0  0  0  0  0
  -18.1957  -26.7947   22.1611 C   0  0  0  0  0  0
  -19.1566  -28.8887   23.2837 C   0  0  0  0  0  0
  -18.9483  -30.1475   23.8885 C   0  0  0  0  0  0
  -17.6480  -30.6594   24.0565 C   0  0  0  0  0  0
  -25.9084  -34.9400   23.5047 C   0  0  0  0  0  0
  -16.5367  -29.9089   23.6339 C   0  0  0  0  0  0
  -16.7300  -28.6501   23.0364 C   0  0  0  0  0  0
  -26.4513  -31.6557   25.0702 C   0  0  0  0  0  0
  -25.3688  -31.3760   26.1393 C   0  0  0  0  0  0
  -27.0372  -30.2944   24.6299 C   0  0  0  0  0  0
  -27.6037  -32.4329   25.7500 C   0  0  0  0  0  0
  -27.5573  -37.1782   24.8458 C   0  0  0  0  0  0
  -21.4254  -29.3067   22.3586 N   0  0  0  0  0  0
  -26.4275  -37.3734   23.9413 N   0  0  0  0  0  0
  -24.7251  -31.0225   22.0859 N   0  0  0  0  0  0
  -23.4192  -28.8123   23.3029 O   0  0  0  0  0  0
  -28.2842  -26.1031   20.1673 O   0  0  0  0  0  0
  -26.5684  -34.8892   22.4636 O   0  0  0  0  0  0
  -23.5584  -32.1317   23.6991 O   0  0  0  0  0  0
  -27.6457  -23.1212   18.8138 C   0  0  0  0  0  0
  -28.5020  -20.6335   19.9290 C   0  0  0  0  0  0
  -28.3046  -23.1745   20.0491 C   0  0  0  0  0  0
  -27.6486  -20.7807   18.7780 C   0  0  0  0  0  0
  -29.0129  -18.1208   19.2796 C   0  0  0  0  0  0
  -28.8225  -19.0458   20.4723 C   0  0  1  0  0  0
  -29.8929  -17.6829   20.3582 C   0  0  1  0  0  0
  -26.8564  -19.6465   18.1473 C   0  0  0  0  0  0
  -28.2427  -24.6597   20.8059 C   0  0  0  0  0  0
  -27.3153  -21.9648   18.2101 N   0  0  0  0  0  0
  -28.7657  -21.8997   20.5764 N   0  0  0  0  0  0
  -29.6933  -16.1414   20.6163 N   0  0  0  0  0  0
  -31.4769  -12.7681   19.2071 H   0  0  0  0  0  0
  -30.4403  -11.6487   20.0382 H   0  0  0  0  0  0
  -29.8495  -11.7526   17.5895 H   0  0  0  0  0  0
  -29.6165  -13.4777   17.7101 H   0  0  0  0  0  0
  -27.9450  -11.2826   18.9684 H   0  0  0  0  0  0
  -27.3977  -12.4732   17.8214 H   0  0  0  0  0  0
  -27.5973  -14.2541   19.4232 H   0  0  0  0  0  0
  -28.7589  -12.2884   21.4569 H   0  0  0  0  0  0
  -28.3646  -13.9526   21.7833 H   0  0  0  0  0  0
  -25.2772   -9.5691   22.4737 H   0  0  0  0  0  0
  -23.9987   -7.4660   22.7501 H   0  0  0  0  0  0
  -21.0846   -8.8761   19.8966 H   0  0  0  0  0  0
  -22.3684  -10.9654   19.6152 H   0  0  0  0  0  0
  -21.2008   -7.6134   23.9672 H   0  0  0  0  0  0
  -21.1494   -6.0532   25.9057 H   0  0  0  0  0  0
  -22.0600   -2.7592   23.2854 H   0  0  0  0  0  0
  -22.4123  -11.9826   22.4746 H   0  0  0  0  0  0
  -21.1105  -13.1190   22.2664 H   0  0  0  0  0  0
  -24.6428  -15.8468   20.5233 H   0  0  0  0  0  0
  -26.2451  -15.6318   20.0386 H   0  0  0  0  0  0
  -26.7301  -32.5275   23.0975 H   0  0  0  0  0  0
  -25.0086  -33.9600   25.0283 H   0  0  0  0  0  0
  -22.7572  -31.2836   21.3617 H   0  0  0  0  0  0
  -23.3760  -35.9585   23.3280 H   0  0  0  0  0  0
  -24.3586  -36.8914   22.2059 H   0  0  0  0  0  0
  -23.7258  -37.6438   23.6698 H   0  0  0  0  0  0
  -26.1680  -31.4350   20.5961 H   0  0  0  0  0  0
  -26.8852  -30.7620   22.0235 H   0  0  0  0  0  0
  -28.1455  -28.7722   21.2358 H   0  0  0  0  0  0
  -25.9359  -25.7753   19.0756 H   0  0  0  0  0  0
  -23.9760  -27.2393   19.0378 H   0  0  0  0  0  0
  -23.8296  -30.5355   19.3930 H   0  0  0  0  0  0
  -22.7975  -29.2133   19.8478 H   0  0  0  0  0  0
  -25.1318  -36.1833   25.0798 H   0  0  0  0  0  0
  -21.0021  -28.3367   24.1320 H   0  0  0  0  0  0
  -20.5657  -26.2385   23.3633 H   0  0  0  0  0  0
  -21.6670  -26.7442   22.1210 H   0  0  0  0  0  0
  -19.6942  -25.6288   21.1267 H   0  0  0  0  0  0
  -19.6709  -27.3167   20.6703 H   0  0  0  0  0  0
  -17.4218  -26.6678   21.4023 H   0  0  0  0  0  0
  -18.0367  -26.0094   22.9016 H   0  0  0  0  0  0
  -19.7949  -30.7294   24.2254 H   0  0  0  0  0  0
  -17.5027  -31.6280   24.5167 H   0  0  0  0  0  0
  -15.5364  -30.2988   23.7663 H   0  0  0  0  0  0
  -15.8696  -28.0814   22.7090 H   0  0  0  0  0  0
  -24.5867  -30.7104   25.7711 H   0  0  0  0  0  0
  -24.8872  -32.2954   26.4743 H   0  0  0  0  0  0
  -25.7963  -30.8984   27.0217 H   0  0  0  0  0  0
  -26.2985  -29.6673   24.1291 H   0  0  0  0  0  0
  -27.3954  -29.7236   25.4873 H   0  0  0  0  0  0
  -27.8911  -30.4166   23.9630 H   0  0  0  0  0  0
  -27.2608  -33.3637   26.2025 H   0  0  0  0  0  0
  -28.3874  -32.6880   25.0358 H   0  0  0  0  0  0
  -28.0675  -31.8497   26.5465 H   0  0  0  0  0  0
  -28.2572  -38.0099   24.7509 H   0  0  0  0  0  0
  -28.1099  -36.2628   24.6278 H   0  0  0  0  0  0
  -27.2306  -37.1415   25.8864 H   0  0  0  0  0  0
  -20.9460  -29.8797   21.6764 H   0  0  0  0  0  0
  -26.0149  -38.2803   24.1391 H   0  0  0  0  0  0
  -27.2656  -24.0193   18.3509 H   0  0  0  0  0  0
  -29.5356  -18.5117   18.4085 H   0  0  0  0  0  0
  -28.1761  -17.4719   19.0278 H   0  0  0  0  0  0
  -28.0098  -18.8353   21.1670 H   0  0  0  0  0  0
  -30.9396  -17.9793   20.3068 H   0  0  0  0  0  0
  -26.4678  -18.9822   18.9209 H   0  0  0  0  0  0
  -27.4657  -19.0910   17.4363 H   0  0  0  0  0  0
  -25.9890  -20.0083   17.5912 H   0  0  0  0  0  0
  -29.0732  -24.6430   21.5114 H   0  0  0  0  0  0
  -27.3593  -24.6269   21.4439 H   0  0  0  0  0  0
  -28.7532  -15.8996   20.8897 H   0  0  0  0  0  0
  1 25  1  0  0  0
  1 30  2  0  0  0
  1 82  1  0  0  0
  2  3  1  0  0  0
  2 25  1  0  0  0
  2 83  1  0  0  0
  2 84  1  0  0  0
  3  4  1  0  0  0
  3 85  1  0  0  0
  3 86  1  0  0  0
  4  5  1  0  0  0
  4 87  1  0  0  0
  4 88  1  0  0  0
  5  6  1  0  0  0
  5 26  1  0  0  0
  5 89  1  0  0  0
  6 25  1  0  0  0
  6 90  1  0  0  0
  6 91  1  0  0  0
  7  8  2  0  0  0
  7 26  1  0  0  0
  7 29  1  0  0  0
  8  9  1  0  0  0
  8 22  1  0  0  0
  9 10  1  0  0  0
  9 27  2  0  0  0
 10 11  2  0  0  0
 10 15  1  0  0  0
 11 12  1  0  0  0
 11 92  1  0  0  0
 12 13  2  0  0  0
 12 93  1  0  0  0
 13 14  1  0  0  0
 13 31  1  0  0  0
 14 15  2  0  0  0
 14 94  1  0  0  0
 15 95  1  0  0  0
 16 17  2  0  0  0
 16 21  1  0  0  0
 16 31  1  0  0  0
 17 18  1  0  0  0
 17 96  1  0  0  0
 18 19  2  0  0  0
 18 97  1  0  0  0
 19 20  1  0  0  0
 19 24  1  0  0  0
 20 21  2  0  0  0
 20 98  1  0  0  0
 21 23  1  0  0  0
 22 28  1  0  0  0
 22 32  2  0  0  0
 26 27  1  0  0  0
 28 99  1  0  0  0
 28100  1  0  0  0
 29101  1  0  0  0
 29102  1  0  0  0
 33 34  1  0  0  0
 33 66  1  0  0  0
 33 70  2  0  0  0
 34 36  1  0  0  0
 34 59  1  0  0  0
 34103  1  0  0  0
 35 44  2  0  0  0
 35 45  1  0  0  0
 35 68  1  0  0  0
 36 56  1  0  0  0
 36104  1  0  0  0
 37 39  1  0  0  0
 37 47  1  0  0  0
 37 66  1  0  0  0
 37105  1  0  0  0
 38 43  2  0  0  0
 38 46  1  0  0  0
 38 47  1  0  0  0
 39 64  1  0  0  0
 39 67  2  0  0  0
 40 52  1  0  0  0
 40 53  2  0  0  0
 40 58  1  0  0  0
 41106  1  0  0  0
 41107  1  0  0  0
 41108  1  0  0  0
 41 48  1  0  0  0
 42 43  1  0  0  0
 42 66  1  0  0  0
 42109  1  0  0  0
 42110  1  0  0  0
 43 44  1  0  0  0
 44111  1  0  0  0
 45 46  2  0  0  0
 45112  1  0  0  0
 46113  1  0  0  0
 47114  1  0  0  0
 47115  1  0  0  0
 48 56  1  0  0  0
 48 65  1  0  0  0
 48116  1  0  0  0
 49 50  1  0  0  0
 49 53  1  0  0  0
 49 64  1  0  0  0
 49117  1  0  0  0
 50 51  1  0  0  0
 50118  1  0  0  0
 50119  1  0  0  0
 51 52  1  0  0  0
 51120  1  0  0  0
 51121  1  0  0  0
 52122  1  0  0  0
 52123  1  0  0  0
 53 54  1  0  0  0
 54 55  2  0  0  0
 54124  1  0  0  0
 55 57  1  0  0  0
 55125  1  0  0  0
 56 69  2  0  0  0
 57 58  2  0  0  0
 57126  1  0  0  0
 58127  1  0  0  0
 59 60  1  0  0  0
 59 61  1  0  0  0
 59 62  1  0  0  0
 60128  1  0  0  0
 60129  1  0  0  0
 60130  1  0  0  0
 61131  1  0  0  0
 61132  1  0  0  0
 61133  1  0  0  0
 62134  1  0  0  0
 62135  1  0  0  0
 62136  1  0  0  0
 63 65  1  0  0  0
 63137  1  0  0  0
 63138  1  0  0  0
 63139  1  0  0  0
 64140  1  0  0  0
 65141  1  0  0  0
 68 79  1  0  0  0
 71 73  2  0  0  0
 71 80  1  0  0  0
 71142  1  0  0  0
 72 74  1  0  0  0
 72 81  2  0  0  0
 72 76  1  0  0  0
 73 79  1  0  0  0
 73 81  1  0  0  0
 74 78  1  0  0  0
 74 80  2  0  0  0
 75 76  1  0  0  0
 75 77  1  0  0  0
 75143  1  0  0  0
 75144  1  0  0  0
 76 77  1  0  0  0
 76145  1  0  0  0
 77 82  1  0  0  0
 77146  1  0  0  0
 78147  1  0  0  0
 78148  1  0  0  0
 78149  1  0  0  0
 79150  1  0  0  0
 79151  1  0  0  0
 82152  1  0  0  0
M  ISO  4   1 100  68 101  79 101  82 100
M  END
> <chiral flag>
0

> <version>
0

> <s_m_source_file>
/data/baiqing/PycharmProjects/Reinvent-master-3.2/result/LINK_invent/BTK/process_docking_weight1_custom_sum_contain_oxygen_bond_distance_aromatic_linkinvent_7_9_3/rearranged_h_0185.sdf

> <i_m_source_file_index>
77

> <r_mmod_Potential_Energy-OPLS-2005>
847.268371582031

> <r_mmod_Stretch_Energy-OPLS-2005>
362.009216308594

> <r_mmod_Bend_Energy-OPLS-2005>
343.343414306641

> <r_mmod_Torsional_Energy-OPLS-2005>
292.931427001953

> <r_mmod_Improper_Torsional_Energy-OPLS-2005>
8.10974025726318

> <r_mmod_Van_der_Waal_Energy-OPLS-2005>
137.763442993164

> <r_mmod_Electrostatic_Energy-OPLS-2005>
-282.781677246094

> <r_mmod_Solvation_Energy-OPLS-2005>
-234.391311645508

> <b_mmod_Minimization_Converged-OPLS-2005>
0

> <r_mmod_RMS_Derivative-OPLS-2005>
3.20458006858826

$$$$
77
                    3D
 Structure written by MMmdl.
154162  0  0  1  0            999 V2000
  -30.4500  -15.2255   20.3838 C   0  0  0  0  0  0
  -30.4286  -12.7869   19.5040 C   0  0  0  0  0  0
  -29.5195  -12.5641   18.2707 C   0  0  0  0  0  0
  -28.0755  -12.2802   18.7153 C   0  0  0  0  0  0
  -27.6062  -13.2645   19.8134 C   0  0  2  0  0  0
  -28.6399  -13.4356   20.9446 C   0  0  0  0  0  0
  -25.2386  -13.8230   20.5744 C   0  0  0  0  0  0
  -24.1730  -13.0431   20.9262 C   0  0  0  0  0  0
  -24.6368  -11.6925   20.8772 C   0  0  0  0  0  0
  -23.9062  -10.4288   21.0418 C   0  0  0  0  0  0
  -24.3616   -9.4208   21.9191 C   0  0  0  0  0  0
  -23.6298   -8.2237   22.0760 C   0  0  0  0  0  0
  -22.4282   -8.0273   21.3545 C   0  0  0  0  0  0
  -21.9919   -9.0240   20.4644 C   0  0  0  0  0  0
  -22.7241  -10.2117   20.3058 C   0  0  0  0  0  0
  -21.6860   -6.0729   22.5280 C   0  0  0  0  0  0
  -21.4014   -6.5625   23.8209 C   0  0  0  0  0  0
  -21.3665   -5.6784   24.9174 C   0  0  0  0  0  0
  -21.6052   -4.3049   24.7227 C   0  0  0  0  0  0
  -21.8818   -3.8136   23.4352 C   0  0  0  0  0  0
  -21.9198   -4.6959   22.3408 C   0  0  0  0  0  0
  -22.7757  -13.5186   21.1933 C   0  0  0  0  0  0
  -22.1668   -4.2129   21.0990 F   0  0  0  0  0  0
  -21.5647   -3.4544   25.7746 F   0  0  0  0  0  0
  -29.8713  -13.9312   20.3114 N   0  0  0  0  0  0
  -26.2778  -12.9465   20.3179 N   0  0  0  0  0  0
  -25.9285  -11.6585   20.5702 N   0  0  0  0  0  0
  -22.0433  -12.8138   22.0484 N   0  0  0  0  0  0
  -25.4081  -15.1955   20.4169 N   0  0  0  0  0  0
  -31.6791  -15.2056   20.2248 O   0  0  0  0  0  0
  -21.6646   -6.8874   21.4241 O   0  0  0  0  0  0
  -22.3438  -14.5501   20.6816 O   0  0  0  0  0  0
  -24.6561  -31.8285   23.1713 C   0  0  0  0  0  0
  -25.9268  -32.4612   23.8153 C   0  0  1  0  0  0
  -27.2155  -26.9612   20.1917 C   0  0  0  0  0  0
  -25.5959  -33.8426   24.2082 N   0  0  0  0  0  0
  -23.4663  -30.4402   21.5226 C   0  0  2  0  0  0
  -24.9163  -28.8250   20.1161 C   0  0  0  0  0  0
  -22.7618  -29.4472   22.4821 C   0  0  0  0  0  0
  -18.0314  -28.1393   22.8484 C   0  0  0  0  0  0
  -24.1501  -36.7213   23.2645 C   0  0  0  0  0  0
  -26.0312  -30.6449   21.3943 C   0  0  0  0  0  0
  -26.0968  -29.2357   20.7462 C   0  0  0  0  0  0
  -27.2388  -28.3236   20.7599 C   0  0  0  0  0  0
  -26.0105  -26.6909   19.5071 C   0  0  0  0  0  0
  -24.8952  -27.5711   19.4798 C   0  0  0  0  0  0
  -23.7003  -29.7517   20.1492 C   0  0  0  0  0  0
  -25.4148  -36.2993   24.0303 C   0  0  1  0  0  0
  -20.5936  -28.3739   23.1213 C   0  0  2  0  0  0
  -20.6800  -26.9432   22.5407 C   0  0  0  0  0  0
  -19.5778  -26.6381   21.5217 C   0  0  0  0  0  0
  -18.1956  -26.7936   22.1624 C   0  0  0  0  0  0
  -19.1575  -28.8888   23.2833 C   0  0  0  0  0  0
  -18.9490  -30.1481   23.8870 C   0  0  0  0  0  0
  -17.6491  -30.6597   24.0564 C   0  0  0  0  0  0
  -25.9110  -34.9371   23.5023 C   0  0  0  0  0  0
  -16.5376  -29.9093   23.6341 C   0  0  0  0  0  0
  -16.7297  -28.6501   23.0378 C   0  0  0  0  0  0
  -26.4540  -31.6526   25.0653 C   0  0  0  0  0  0
  -25.3686  -31.3745   26.1320 C   0  0  0  0  0  0
  -27.0431  -30.2909   24.6327 C   0  0  0  0  0  0
  -27.6055  -32.4307   25.7441 C   0  0  0  0  0  0
  -27.5585  -37.1767   24.8476 C   0  0  0  0  0  0
  -21.4301  -29.3035   22.3559 N   0  0  0  0  0  0
  -26.4305  -37.3721   23.9404 N   0  0  0  0  0  0
  -24.7391  -30.9983   22.0828 N   0  0  0  0  0  0
  -23.4185  -28.8052   23.3054 O   0  0  0  0  0  0
  -28.2841  -25.9360   20.2200 O   0  0  0  0  0  0
  -26.5731  -34.8900   22.4623 O   0  0  0  0  0  0
  -23.5653  -32.1235   23.6861 O   0  0  0  0  0  0
  -27.3401  -23.3457   20.3246 C   0  0  0  0  0  0
  -28.8298  -21.2949   20.2974 C   0  0  0  0  0  0
  -29.8288  -22.3672   20.2215 C   0  0  0  0  0  0
  -28.3403  -24.4036   20.2442 C   0  0  0  0  0  0
  -31.9245  -22.0926   21.5789 C   0  0  0  0  0  0
  -31.4036  -18.4603   20.3426 C   0  0  0  0  0  0
  -28.9182  -19.5436   20.1127 C   0  0  0  0  0  0
  -31.3056  -22.0416   20.1742 C   0  0  0  0  0  0
  -29.9283  -18.1460   20.6286 C   0  0  1  0  0  0
  -27.5750  -21.9316   20.3412 N   0  0  0  0  0  0
  -29.5890  -23.7763   20.2087 N   0  0  0  0  0  0
  -29.6874  -16.4977   20.4359 N   0  0  0  0  0  0
  -31.4449  -12.9925   19.1670 H   0  0  0  0  0  0
  -30.4963  -11.8796   20.1057 H   0  0  0  0  0  0
  -29.8914  -11.7373   17.6630 H   0  0  0  0  0  0
  -29.5372  -13.4508   17.6341 H   0  0  0  0  0  0
  -28.0506  -11.2619   19.1061 H   0  0  0  0  0  0
  -27.3945  -12.2969   17.8633 H   0  0  0  0  0  0
  -27.5224  -14.2266   19.3053 H   0  0  0  0  0  0
  -28.8029  -12.5016   21.4833 H   0  0  0  0  0  0
  -28.2812  -14.1604   21.6763 H   0  0  0  0  0  0
  -25.2762   -9.5681   22.4765 H   0  0  0  0  0  0
  -24.0023   -7.4613   22.7460 H   0  0  0  0  0  0
  -21.0877   -8.8735   19.8917 H   0  0  0  0  0  0
  -22.3709  -10.9653   19.6163 H   0  0  0  0  0  0
  -21.1976   -7.6125   23.9699 H   0  0  0  0  0  0
  -21.1516   -6.0520   25.9073 H   0  0  0  0  0  0
  -22.0593   -2.7600   23.2853 H   0  0  0  0  0  0
  -22.4086  -11.9783   22.4812 H   0  0  0  0  0  0
  -21.1044  -13.1104   22.2705 H   0  0  0  0  0  0
  -24.6425  -15.8514   20.5265 H   0  0  0  0  0  0
  -26.2480  -15.6287   20.0571 H   0  0  0  0  0  0
  -26.7322  -32.5156   23.0851 H   0  0  0  0  0  0
  -25.0045  -33.9507   25.0193 H   0  0  0  0  0  0
  -22.7759  -31.2706   21.3580 H   0  0  0  0  0  0
  -23.3788  -35.9517   23.3301 H   0  0  0  0  0  0
  -24.3573  -36.8860   22.2059 H   0  0  0  0  0  0
  -23.7231  -37.6390   23.6702 H   0  0  0  0  0  0
  -26.2058  -31.3850   20.6127 H   0  0  0  0  0  0
  -26.8930  -30.7034   22.0459 H   0  0  0  0  0  0
  -28.1394  -28.6455   21.2631 H   0  0  0  0  0  0
  -25.9071  -25.7380   19.0088 H   0  0  0  0  0  0
  -23.9968  -27.2512   18.9692 H   0  0  0  0  0  0
  -23.8441  -30.5204   19.3882 H   0  0  0  0  0  0
  -22.8082  -29.2037   19.8414 H   0  0  0  0  0  0
  -25.1346  -36.1807   25.0796 H   0  0  0  0  0  0
  -21.0023  -28.3352   24.1337 H   0  0  0  0  0  0
  -20.5707  -26.2357   23.3636 H   0  0  0  0  0  0
  -21.6663  -26.7432   22.1210 H   0  0  0  0  0  0
  -19.6948  -25.6291   21.1261 H   0  0  0  0  0  0
  -19.6717  -27.3189   20.6749 H   0  0  0  0  0  0
  -17.4228  -26.6688   21.4017 H   0  0  0  0  0  0
  -18.0345  -26.0068   22.9012 H   0  0  0  0  0  0
  -19.7963  -30.7300   24.2219 H   0  0  0  0  0  0
  -17.5043  -31.6274   24.5170 H   0  0  0  0  0  0
  -15.5380  -30.2995   23.7673 H   0  0  0  0  0  0
  -15.8692  -28.0805   22.7131 H   0  0  0  0  0  0
  -24.5900  -30.7061   25.7619 H   0  0  0  0  0  0
  -24.8831  -32.2933   26.4621 H   0  0  0  0  0  0
  -25.7934  -30.8988   27.0170 H   0  0  0  0  0  0
  -26.3076  -29.6590   24.1337 H   0  0  0  0  0  0
  -27.4015  -29.7250   25.4934 H   0  0  0  0  0  0
  -27.8992  -30.4117   23.9689 H   0  0  0  0  0  0
  -27.2658  -33.3661   26.1892 H   0  0  0  0  0  0
  -28.3922  -32.6766   25.0298 H   0  0  0  0  0  0
  -28.0654  -31.8499   26.5445 H   0  0  0  0  0  0
  -28.2607  -38.0062   24.7527 H   0  0  0  0  0  0
  -28.1081  -36.2591   24.6321 H   0  0  0  0  0  0
  -27.2291  -37.1432   25.8875 H   0  0  0  0  0  0
  -20.9544  -29.8677   21.6664 H   0  0  0  0  0  0
  -26.0169  -38.2788   24.1395 H   0  0  0  0  0  0
  -26.2985  -23.6312   20.3729 H   0  0  0  0  0  0
  -32.9960  -21.8938   21.5514 H   0  0  0  0  0  0
  -31.4626  -21.3591   22.2396 H   0  0  0  0  0  0
  -31.7807  -23.0735   22.0344 H   0  0  0  0  0  0
  -31.7336  -19.3112   20.9336 H   0  0  0  0  0  0
  -31.5659  -18.6831   19.2866 H   0  0  0  0  0  0
  -32.0737  -17.6487   20.6180 H   0  0  0  0  0  0
  -28.8855  -19.4475   19.0282 H   0  0  0  0  0  0
  -27.9203  -19.2420   20.4280 H   0  0  0  0  0  0
  -31.8088  -22.7628   19.5297 H   0  0  0  0  0  0
  -31.4567  -21.0779   19.6948 H   0  0  0  0  0  0
  -29.8544  -18.2074   21.7162 H   0  0  0  0  0  0
  -28.7003  -16.2850   20.4367 H   0  0  0  0  0  0
  1 25  1  0  0  0
  1 30  2  0  0  0
  1 82  1  0  0  0
  2  3  1  0  0  0
  2 25  1  0  0  0
  2 83  1  0  0  0
  2 84  1  0  0  0
  3  4  1  0  0  0
  3 85  1  0  0  0
  3 86  1  0  0  0
  4  5  1  0  0  0
  4 87  1  0  0  0
  4 88  1  0  0  0
  5  6  1  0  0  0
  5 26  1  0  0  0
  5 89  1  0  0  0
  6 25  1  0  0  0
  6 90  1  0  0  0
  6 91  1  0  0  0
  7  8  2  0  0  0
  7 26  1  0  0  0
  7 29  1  0  0  0
  8  9  1  0  0  0
  8 22  1  0  0  0
  9 10  1  0  0  0
  9 27  2  0  0  0
 10 11  2  0  0  0
 10 15  1  0  0  0
 11 12  1  0  0  0
 11 92  1  0  0  0
 12 13  2  0  0  0
 12 93  1  0  0  0
 13 14  1  0  0  0
 13 31  1  0  0  0
 14 15  2  0  0  0
 14 94  1  0  0  0
 15 95  1  0  0  0
 16 17  2  0  0  0
 16 21  1  0  0  0
 16 31  1  0  0  0
 17 18  1  0  0  0
 17 96  1  0  0  0
 18 19  2  0  0  0
 18 97  1  0  0  0
 19 20  1  0  0  0
 19 24  1  0  0  0
 20 21  2  0  0  0
 20 98  1  0  0  0
 21 23  1  0  0  0
 22 28  1  0  0  0
 22 32  2  0  0  0
 26 27  1  0  0  0
 28 99  1  0  0  0
 28100  1  0  0  0
 29101  1  0  0  0
 29102  1  0  0  0
 33 34  1  0  0  0
 33 66  1  0  0  0
 33 70  2  0  0  0
 34 36  1  0  0  0
 34 59  1  0  0  0
 34103  1  0  0  0
 35 44  2  0  0  0
 35 45  1  0  0  0
 35 68  1  0  0  0
 36 56  1  0  0  0
 36104  1  0  0  0
 37 39  1  0  0  0
 37 47  1  0  0  0
 37 66  1  0  0  0
 37105  1  0  0  0
 38 43  2  0  0  0
 38 46  1  0  0  0
 38 47  1  0  0  0
 39 64  1  0  0  0
 39 67  2  0  0  0
 40 52  1  0  0  0
 40 53  2  0  0  0
 40 58  1  0  0  0
 41106  1  0  0  0
 41107  1  0  0  0
 41108  1  0  0  0
 41 48  1  0  0  0
 42 43  1  0  0  0
 42 66  1  0  0  0
 42109  1  0  0  0
 42110  1  0  0  0
 43 44  1  0  0  0
 44111  1  0  0  0
 45 46  2  0  0  0
 45112  1  0  0  0
 46113  1  0  0  0
 47114  1  0  0  0
 47115  1  0  0  0
 48 56  1  0  0  0
 48 65  1  0  0  0
 48116  1  0  0  0
 49 50  1  0  0  0
 49 53  1  0  0  0
 49 64  1  0  0  0
 49117  1  0  0  0
 50 51  1  0  0  0
 50118  1  0  0  0
 50119  1  0  0  0
 51 52  1  0  0  0
 51120  1  0  0  0
 51121  1  0  0  0
 52122  1  0  0  0
 52123  1  0  0  0
 53 54  1  0  0  0
 54 55  2  0  0  0
 54124  1  0  0  0
 55 57  1  0  0  0
 55125  1  0  0  0
 56 69  2  0  0  0
 57 58  2  0  0  0
 57126  1  0  0  0
 58127  1  0  0  0
 59 60  1  0  0  0
 59 61  1  0  0  0
 59 62  1  0  0  0
 60128  1  0  0  0
 60129  1  0  0  0
 60130  1  0  0  0
 61131  1  0  0  0
 61132  1  0  0  0
 61133  1  0  0  0
 62134  1  0  0  0
 62135  1  0  0  0
 62136  1  0  0  0
 63 65  1  0  0  0
 63137  1  0  0  0
 63138  1  0  0  0
 63139  1  0  0  0
 64140  1  0  0  0
 65141  1  0  0  0
 68 74  1  0  0  0
 71 74  2  0  0  0
 71 80  1  0  0  0
 71142  1  0  0  0
 72 73  1  0  0  0
 72 77  1  0  0  0
 72 80  2  0  0  0
 73 78  1  0  0  0
 73 81  2  0  0  0
 74 81  1  0  0  0
 75 78  1  0  0  0
 75143  1  0  0  0
 75144  1  0  0  0
 75145  1  0  0  0
 76146  1  0  0  0
 76147  1  0  0  0
 76148  1  0  0  0
 76 79  1  0  0  0
 77 79  1  0  0  0
 77149  1  0  0  0
 77150  1  0  0  0
 78151  1  0  0  0
 78152  1  0  0  0
 79 82  1  0  0  0
 79153  1  0  0  0
 82154  1  0  0  0
M  ISO  4   1 100  68 101  74 101  82 100
M  END
> <chiral flag>
0

> <version>
0

> <s_m_source_file>
/data/baiqing/PycharmProjects/Reinvent-master-3.2/result/LINK_invent/BTK/process_docking_weight1_custom_sum_contain_oxygen_bond_distance_aromatic_linkinvent_7_9_3/rearranged_h_0185.sdf

> <i_m_source_file_index>
78

> <r_mmod_Potential_Energy-OPLS-2005>
1204.55444335938

> <r_mmod_Stretch_Energy-OPLS-2005>
506.139831542969

> <r_mmod_Bend_Energy-OPLS-2005>
457.559906005859

> <r_mmod_Torsional_Energy-OPLS-2005>
197.229125976562

> <r_mmod_Improper_Torsional_Energy-OPLS-2005>
4.81128597259521

> <r_mmod_Van_der_Waal_Energy-OPLS-2005>
128.285934448242

> <r_mmod_Electrostatic_Energy-OPLS-2005>
-267.158325195312

> <r_mmod_Solvation_Energy-OPLS-2005>
-224.373657226562

> <b_mmod_Minimization_Converged-OPLS-2005>
0

> <r_mmod_RMS_Derivative-OPLS-2005>
2.57447075843811

$$$$
78
                    3D
 Structure written by MMmdl.
152161  0  0  1  0            999 V2000
  -30.3940  -15.3764   20.3467 C   0  0  0  0  0  0
  -30.4341  -12.8828   19.5459 C   0  0  0  0  0  0
  -29.5425  -12.6020   18.3073 C   0  0  0  0  0  0
  -28.0961  -12.3031   18.7339 C   0  0  0  0  0  0
  -27.6077  -13.2866   19.8250 C   0  0  2  0  0  0
  -28.6335  -13.5068   20.9598 C   0  0  0  0  0  0
  -25.2364  -13.8264   20.5762 C   0  0  0  0  0  0
  -24.1731  -13.0438   20.9267 C   0  0  0  0  0  0
  -24.6403  -11.6940   20.8766 C   0  0  0  0  0  0
  -23.9104  -10.4295   21.0406 C   0  0  0  0  0  0
  -24.3646   -9.4207   21.9184 C   0  0  0  0  0  0
  -23.6311   -8.2247   22.0754 C   0  0  0  0  0  0
  -22.4290   -8.0288   21.3546 C   0  0  0  0  0  0
  -21.9934   -9.0264   20.4647 C   0  0  0  0  0  0
  -22.7274  -10.2139   20.3055 C   0  0  0  0  0  0
  -21.6858   -6.0746   22.5281 C   0  0  0  0  0  0
  -21.4018   -6.5646   23.8216 C   0  0  0  0  0  0
  -21.3656   -5.6796   24.9176 C   0  0  0  0  0  0
  -21.6042   -4.3060   24.7225 C   0  0  0  0  0  0
  -21.8818   -3.8154   23.4345 C   0  0  0  0  0  0
  -21.9194   -4.6973   22.3402 C   0  0  0  0  0  0
  -22.7747  -13.5183   21.1911 C   0  0  0  0  0  0
  -22.1663   -4.2158   21.0980 F   0  0  0  0  0  0
  -21.5624   -3.4541   25.7736 F   0  0  0  0  0  0
  -29.8545  -14.0446   20.3331 N   0  0  0  0  0  0
  -26.2801  -12.9560   20.3236 N   0  0  0  0  0  0
  -25.9344  -11.6652   20.5728 N   0  0  0  0  0  0
  -22.0410  -12.8161   22.0464 N   0  0  0  0  0  0
  -25.3977  -15.2002   20.4195 N   0  0  0  0  0  0
  -31.6085  -15.3651   20.0911 O   0  0  0  0  0  0
  -21.6646   -6.8890   21.4243 O   0  0  0  0  0  0
  -22.3426  -14.5484   20.6750 O   0  0  0  0  0  0
  -24.6689  -31.8153   23.1641 C   0  0  0  0  0  0
  -25.9340  -32.4543   23.8135 C   0  0  1  0  0  0
  -27.2202  -26.8517   20.1916 C   0  0  0  0  0  0
  -25.5982  -33.8364   24.2027 N   0  0  0  0  0  0
  -23.4883  -30.4236   21.5133 C   0  0  2  0  0  0
  -24.9450  -28.7983   20.1075 C   0  0  0  0  0  0
  -22.7701  -29.4395   22.4745 C   0  0  0  0  0  0
  -18.0330  -28.1417   22.8463 C   0  0  0  0  0  0
  -24.1491  -36.7180   23.2651 C   0  0  0  0  0  0
  -26.0612  -30.5953   21.4087 C   0  0  0  0  0  0
  -26.1271  -29.1777   20.7537 C   0  0  0  0  0  0
  -27.2526  -28.2249   20.7747 C   0  0  0  0  0  0
  -26.0144  -26.6503   19.4791 C   0  0  0  0  0  0
  -24.9189  -27.5576   19.4488 C   0  0  0  0  0  0
  -23.7332  -29.7343   20.1412 C   0  0  0  0  0  0
  -25.4135  -36.2937   24.0293 C   0  0  1  0  0  0
  -20.5959  -28.3765   23.1171 C   0  0  2  0  0  0
  -20.6802  -26.9438   22.5404 C   0  0  0  0  0  0
  -19.5777  -26.6377   21.5218 C   0  0  0  0  0  0
  -18.1957  -26.7949   22.1621 C   0  0  0  0  0  0
  -19.1594  -28.8913   23.2802 C   0  0  0  0  0  0
  -18.9504  -30.1502   23.8842 C   0  0  0  0  0  0
  -17.6497  -30.6605   24.0556 C   0  0  0  0  0  0
  -25.9109  -34.9325   23.4985 C   0  0  0  0  0  0
  -16.5386  -29.9089   23.6350 C   0  0  0  0  0  0
  -16.7311  -28.6512   23.0366 C   0  0  0  0  0  0
  -26.4571  -31.6526   25.0699 C   0  0  0  0  0  0
  -25.3675  -31.3804   26.1340 C   0  0  0  0  0  0
  -27.0490  -30.2883   24.6505 C   0  0  0  0  0  0
  -27.6047  -32.4361   25.7502 C   0  0  0  0  0  0
  -27.5560  -37.1746   24.8468 C   0  0  0  0  0  0
  -21.4362  -29.3036   22.3503 N   0  0  0  0  0  0
  -26.4269  -37.3684   23.9411 N   0  0  0  0  0  0
  -24.7612  -30.9742   22.0816 N   0  0  0  0  0  0
  -23.4214  -28.7978   23.3025 O   0  0  0  0  0  0
  -28.1929  -25.6998   20.3294 O   0  0  0  0  0  0
  -26.5734  -34.8877   22.4591 O   0  0  0  0  0  0
  -23.5741  -32.1164   23.6682 O   0  0  0  0  0  0
  -28.3655  -22.2813   21.9126 C   0  0  0  0  0  0
  -28.5172  -21.0194   22.5037 C   0  0  0  0  0  0
  -28.5690  -22.4991   20.5384 C   0  0  0  0  0  0
  -29.1477  -19.8737   20.5915 C   0  0  0  0  0  0
  -27.9033  -23.3039   22.9211 C   0  0  0  0  0  0
  -28.1834  -21.0614   23.9712 C   0  0  0  0  0  0
  -28.0156  -22.5680   24.2760 C   0  0  0  0  0  0
  -28.0907  -24.0833   19.8539 C   0  0  0  0  0  0
  -29.7854  -18.3119   20.0255 C   0  0  0  0  0  0
  -28.8818  -19.8622   21.8970 N   0  0  0  0  0  0
  -28.9748  -21.1867   19.9314 N   0  0  0  0  0  0
  -29.6297  -16.6685   20.4466 N   0  0  0  0  0  0
  -31.4503  -13.0938   19.2110 H   0  0  0  0  0  0
  -30.5184  -11.9923   20.1709 H   0  0  0  0  0  0
  -29.9438  -11.7696   17.7274 H   0  0  0  0  0  0
  -29.5556  -13.4715   17.6484 H   0  0  0  0  0  0
  -28.0703  -11.2843   19.1229 H   0  0  0  0  0  0
  -27.4288  -12.3194   17.8713 H   0  0  0  0  0  0
  -27.5087  -14.2417   19.3077 H   0  0  0  0  0  0
  -28.8241  -12.5871   21.5148 H   0  0  0  0  0  0
  -28.2493  -14.2298   21.6809 H   0  0  0  0  0  0
  -25.2786   -9.5683   22.4768 H   0  0  0  0  0  0
  -24.0014   -7.4639   22.7477 H   0  0  0  0  0  0
  -21.0861   -8.8795   19.8956 H   0  0  0  0  0  0
  -22.3732  -10.9683   19.6170 H   0  0  0  0  0  0
  -21.2013   -7.6155   23.9723 H   0  0  0  0  0  0
  -21.1475   -6.0526   25.9079 H   0  0  0  0  0  0
  -22.0598   -2.7615   23.2843 H   0  0  0  0  0  0
  -22.4047  -11.9827   22.4847 H   0  0  0  0  0  0
  -21.1025  -13.1172   22.2678 H   0  0  0  0  0  0
  -24.6227  -15.8460   20.5261 H   0  0  0  0  0  0
  -26.2345  -15.6426   20.0634 H   0  0  0  0  0  0
  -26.7411  -32.5057   23.0843 H   0  0  0  0  0  0
  -25.0069  -33.9437   25.0137 H   0  0  0  0  0  0
  -22.8052  -31.2571   21.3362 H   0  0  0  0  0  0
  -23.3767  -35.9497   23.3285 H   0  0  0  0  0  0
  -24.3561  -36.8861   22.2071 H   0  0  0  0  0  0
  -23.7237  -37.6350   23.6736 H   0  0  0  0  0  0
  -26.2524  -31.3318   20.6271 H   0  0  0  0  0  0
  -26.9167  -30.6537   22.0694 H   0  0  0  0  0  0
  -28.1381  -28.5097   21.3249 H   0  0  0  0  0  0
  -25.8685  -25.7085   18.9720 H   0  0  0  0  0  0
  -24.0240  -27.2628   18.9177 H   0  0  0  0  0  0
  -23.8926  -30.5012   19.3824 H   0  0  0  0  0  0
  -22.8419  -29.1917   19.8215 H   0  0  0  0  0  0
  -25.1336  -36.1714   25.0782 H   0  0  0  0  0  0
  -21.0050  -28.3383   24.1293 H   0  0  0  0  0  0
  -20.5679  -26.2388   23.3653 H   0  0  0  0  0  0
  -21.6664  -26.7403   22.1213 H   0  0  0  0  0  0
  -19.6937  -25.6273   21.1284 H   0  0  0  0  0  0
  -19.6717  -27.3159   20.6726 H   0  0  0  0  0  0
  -17.4226  -26.6698   21.4024 H   0  0  0  0  0  0
  -18.0345  -26.0105   22.9029 H   0  0  0  0  0  0
  -19.7982  -30.7333   24.2182 H   0  0  0  0  0  0
  -17.5050  -31.6279   24.5169 H   0  0  0  0  0  0
  -15.5385  -30.2975   23.7708 H   0  0  0  0  0  0
  -15.8712  -28.0813   22.7112 H   0  0  0  0  0  0
  -24.5876  -30.7134   25.7644 H   0  0  0  0  0  0
  -24.8842  -32.3014   26.4612 H   0  0  0  0  0  0
  -25.7884  -30.9068   27.0220 H   0  0  0  0  0  0
  -26.3181  -29.6527   24.1493 H   0  0  0  0  0  0
  -27.3970  -29.7285   25.5198 H   0  0  0  0  0  0
  -27.9143  -30.4044   23.9976 H   0  0  0  0  0  0
  -27.2606  -33.3719   26.1917 H   0  0  0  0  0  0
  -28.3938  -32.6831   25.0387 H   0  0  0  0  0  0
  -28.0630  -31.8597   26.5549 H   0  0  0  0  0  0
  -28.2556  -38.0060   24.7506 H   0  0  0  0  0  0
  -28.1072  -36.2581   24.6300 H   0  0  0  0  0  0
  -27.2277  -37.1391   25.8872 H   0  0  0  0  0  0
  -20.9632  -29.8706   21.6606 H   0  0  0  0  0  0
  -26.0105  -38.2735   24.1428 H   0  0  0  0  0  0
  -26.8696  -23.5832   22.7108 H   0  0  0  0  0  0
  -28.5160  -24.2065   22.8928 H   0  0  0  0  0  0
  -28.9644  -20.6015   24.5773 H   0  0  0  0  0  0
  -27.2515  -20.5214   24.1407 H   0  0  0  0  0  0
  -27.1833  -22.7763   24.9496 H   0  0  0  0  0  0
  -28.9211  -22.9132   24.7768 H   0  0  0  0  0  0
  -27.0293  -23.9333   19.6636 H   0  0  0  0  0  0
  -28.5360  -24.0804   18.8593 H   0  0  0  0  0  0
  -30.8633  -18.4710   20.0362 H   0  0  0  0  0  0
  -29.5376  -18.3200   18.9645 H   0  0  0  0  0  0
  -28.6781  -16.4905   20.7299 H   0  0  0  0  0  0
  1 25  1  0  0  0
  1 30  2  0  0  0
  1 82  1  0  0  0
  2  3  1  0  0  0
  2 25  1  0  0  0
  2 83  1  0  0  0
  2 84  1  0  0  0
  3  4  1  0  0  0
  3 85  1  0  0  0
  3 86  1  0  0  0
  4  5  1  0  0  0
  4 87  1  0  0  0
  4 88  1  0  0  0
  5  6  1  0  0  0
  5 26  1  0  0  0
  5 89  1  0  0  0
  6 25  1  0  0  0
  6 90  1  0  0  0
  6 91  1  0  0  0
  7  8  2  0  0  0
  7 26  1  0  0  0
  7 29  1  0  0  0
  8  9  1  0  0  0
  8 22  1  0  0  0
  9 10  1  0  0  0
  9 27  2  0  0  0
 10 11  2  0  0  0
 10 15  1  0  0  0
 11 12  1  0  0  0
 11 92  1  0  0  0
 12 13  2  0  0  0
 12 93  1  0  0  0
 13 14  1  0  0  0
 13 31  1  0  0  0
 14 15  2  0  0  0
 14 94  1  0  0  0
 15 95  1  0  0  0
 16 17  2  0  0  0
 16 21  1  0  0  0
 16 31  1  0  0  0
 17 18  1  0  0  0
 17 96  1  0  0  0
 18 19  2  0  0  0
 18 97  1  0  0  0
 19 20  1  0  0  0
 19 24  1  0  0  0
 20 21  2  0  0  0
 20 98  1  0  0  0
 21 23  1  0  0  0
 22 28  1  0  0  0
 22 32  2  0  0  0
 26 27  1  0  0  0
 28 99  1  0  0  0
 28100  1  0  0  0
 29101  1  0  0  0
 29102  1  0  0  0
 33 34  1  0  0  0
 33 66  1  0  0  0
 33 70  2  0  0  0
 34 36  1  0  0  0
 34 59  1  0  0  0
 34103  1  0  0  0
 35 44  2  0  0  0
 35 45  1  0  0  0
 35 68  1  0  0  0
 36 56  1  0  0  0
 36104  1  0  0  0
 37 39  1  0  0  0
 37 47  1  0  0  0
 37 66  1  0  0  0
 37105  1  0  0  0
 38 43  2  0  0  0
 38 46  1  0  0  0
 38 47  1  0  0  0
 39 64  1  0  0  0
 39 67  2  0  0  0
 40 52  1  0  0  0
 40 53  2  0  0  0
 40 58  1  0  0  0
 41106  1  0  0  0
 41107  1  0  0  0
 41108  1  0  0  0
 41 48  1  0  0  0
 42 43  1  0  0  0
 42 66  1  0  0  0
 42109  1  0  0  0
 42110  1  0  0  0
 43 44  1  0  0  0
 44111  1  0  0  0
 45 46  2  0  0  0
 45112  1  0  0  0
 46113  1  0  0  0
 47114  1  0  0  0
 47115  1  0  0  0
 48 56  1  0  0  0
 48 65  1  0  0  0
 48116  1  0  0  0
 49 50  1  0  0  0
 49 53  1  0  0  0
 49 64  1  0  0  0
 49117  1  0  0  0
 50 51  1  0  0  0
 50118  1  0  0  0
 50119  1  0  0  0
 51 52  1  0  0  0
 51120  1  0  0  0
 51121  1  0  0  0
 52122  1  0  0  0
 52123  1  0  0  0
 53 54  1  0  0  0
 54 55  2  0  0  0
 54124  1  0  0  0
 55 57  1  0  0  0
 55125  1  0  0  0
 56 69  2  0  0  0
 57 58  2  0  0  0
 57126  1  0  0  0
 58127  1  0  0  0
 59 60  1  0  0  0
 59 61  1  0  0  0
 59 62  1  0  0  0
 60128  1  0  0  0
 60129  1  0  0  0
 60130  1  0  0  0
 61131  1  0  0  0
 61132  1  0  0  0
 61133  1  0  0  0
 62134  1  0  0  0
 62135  1  0  0  0
 62136  1  0  0  0
 63 65  1  0  0  0
 63137  1  0  0  0
 63138  1  0  0  0
 63139  1  0  0  0
 64140  1  0  0  0
 65141  1  0  0  0
 68 78  1  0  0  0
 71 72  2  0  0  0
 71 73  1  0  0  0
 71 75  1  0  0  0
 72 76  1  0  0  0
 72 80  1  0  0  0
 73 78  1  0  0  0
 73 81  2  0  0  0
 74 79  1  0  0  0
 74 80  2  0  0  0
 74 81  1  0  0  0
 75 77  1  0  0  0
 75142  1  0  0  0
 75143  1  0  0  0
 76 77  1  0  0  0
 76144  1  0  0  0
 76145  1  0  0  0
 77146  1  0  0  0
 77147  1  0  0  0
 78148  1  0  0  0
 78149  1  0  0  0
 79 82  1  0  0  0
 79150  1  0  0  0
 79151  1  0  0  0
 82152  1  0  0  0
M  ISO  4   1 100  68 101  78 101  82 100
M  END
> <chiral flag>
0

> <version>
0

> <s_m_source_file>
/data/baiqing/PycharmProjects/Reinvent-master-3.2/result/LINK_invent/BTK/process_docking_weight1_custom_sum_contain_oxygen_bond_distance_aromatic_linkinvent_7_9_3/rearranged_h_0185.sdf

> <i_m_source_file_index>
79

> <r_mmod_Potential_Energy-OPLS-2005>
1072.39025878906

> <r_mmod_Stretch_Energy-OPLS-2005>
698.158630371094

> <r_mmod_Bend_Energy-OPLS-2005>
524.131225585938

> <r_mmod_Torsional_Energy-OPLS-2005>
230.888397216797

> <r_mmod_Improper_Torsional_Energy-OPLS-2005>
6.08095026016235

> <r_mmod_Van_der_Waal_Energy-OPLS-2005>
125.457893371582

> <r_mmod_Electrostatic_Energy-OPLS-2005>
-843.083618164062

> <r_mmod_Solvation_Energy-OPLS-2005>
-255.336563110352

> <b_mmod_Minimization_Converged-OPLS-2005>
0

> <r_mmod_RMS_Derivative-OPLS-2005>
0.570078551769257

$$$$
79
                    3D
 Structure written by MMmdl.
163172  0  0  1  0            999 V2000
  -30.6658  -14.5120   20.5616 C   0  0  0  0  0  0
  -30.4366  -12.3281   19.4245 C   0  0  0  0  0  0
  -29.5009  -12.5097   18.2093 C   0  0  0  0  0  0
  -28.0213  -12.3632   18.6206 C   0  0  0  0  0  0
  -27.6633  -13.2029   19.8757 C   0  0  2  0  0  0
  -28.7068  -12.9813   20.9950 C   0  0  0  0  0  0
  -25.2606  -13.8150   20.5682 C   0  0  0  0  0  0
  -24.1850  -13.0436   20.9183 C   0  0  0  0  0  0
  -24.6391  -11.6899   20.8734 C   0  0  0  0  0  0
  -23.9052  -10.4291   21.0403 C   0  0  0  0  0  0
  -24.3608   -9.4211   21.9184 C   0  0  0  0  0  0
  -23.6287   -8.2244   22.0754 C   0  0  0  0  0  0
  -22.4270   -8.0280   21.3545 C   0  0  0  0  0  0
  -21.9904   -9.0252   20.4647 C   0  0  0  0  0  0
  -22.7225  -10.2133   20.3056 C   0  0  0  0  0  0
  -21.6852   -6.0736   22.5279 C   0  0  0  0  0  0
  -21.4013   -6.5639   23.8213 C   0  0  0  0  0  0
  -21.3659   -5.6791   24.9175 C   0  0  0  0  0  0
  -21.6044   -4.3054   24.7225 C   0  0  0  0  0  0
  -21.8820   -3.8147   23.4345 C   0  0  0  0  0  0
  -21.9190   -4.6964   22.3401 C   0  0  0  0  0  0
  -22.7873  -13.5245   21.1842 C   0  0  0  0  0  0
  -22.1660   -4.2150   21.0978 F   0  0  0  0  0  0
  -21.5632   -3.4538   25.7738 F   0  0  0  0  0  0
  -30.0359  -13.3082   20.4466 N   0  0  0  0  0  0
  -26.3033  -12.9305   20.3362 N   0  0  0  0  0  0
  -25.9317  -11.6471   20.5761 N   0  0  0  0  0  0
  -22.0501  -12.8245   22.0394 N   0  0  0  0  0  0
  -25.4353  -15.1866   20.4074 N   0  0  0  0  0  0
  -31.7955  -14.7234   20.1112 O   0  0  0  0  0  0
  -21.6633   -6.8879   21.4241 O   0  0  0  0  0  0
  -22.3565  -14.5554   20.6692 O   0  0  0  0  0  0
  -24.6190  -31.8667   23.2102 C   0  0  0  0  0  0
  -25.9070  -32.4816   23.8401 C   0  0  1  0  0  0
  -27.2260  -27.3954   20.0936 C   0  0  0  0  0  0
  -25.5911  -33.8615   24.2326 N   0  0  0  0  0  0
  -23.4078  -30.4943   21.5523 C   0  0  2  0  0  0
  -24.8524  -28.9649   20.1124 C   0  0  0  0  0  0
  -22.7428  -29.4662   22.4973 C   0  0  0  0  0  0
  -18.0272  -28.1381   22.8495 C   0  0  0  0  0  0
  -24.1489  -36.7310   23.2639 C   0  0  0  0  0  0
  -25.9440  -30.8206   21.3715 C   0  0  0  0  0  0
  -26.0190  -29.4557   20.7116 C   0  0  0  0  0  0
  -27.2092  -28.6812   20.6969 C   0  0  0  0  0  0
  -26.0333  -26.9447   19.4728 C   0  0  0  0  0  0
  -24.8573  -27.7105   19.4887 C   0  0  0  0  0  0
  -23.6172  -29.8350   20.1653 C   0  0  0  0  0  0
  -25.4111  -36.3108   24.0336 C   0  0  1  0  0  0
  -20.5868  -28.3676   23.1304 C   0  0  2  0  0  0
  -20.6764  -26.9409   22.5411 C   0  0  0  0  0  0
  -19.5741  -26.6388   21.5210 C   0  0  0  0  0  0
  -18.1919  -26.7927   22.1624 C   0  0  0  0  0  0
  -19.1524  -28.8844   23.2896 C   0  0  0  0  0  0
  -18.9451  -30.1447   23.8911 C   0  0  0  0  0  0
  -17.6454  -30.6590   24.0563 C   0  0  0  0  0  0
  -25.9039  -34.9473   23.5128 C   0  0  0  0  0  0
  -16.5345  -29.9092   23.6327 C   0  0  0  0  0  0
  -16.7261  -28.6504   23.0360 C   0  0  0  0  0  0
  -26.4484  -31.6596   25.0736 C   0  0  0  0  0  0
  -25.3742  -31.3701   26.1476 C   0  0  0  0  0  0
  -27.0312  -30.3031   24.6136 C   0  0  0  0  0  0
  -27.6061  -32.4309   25.7495 C   0  0  0  0  0  0
  -27.5584  -37.1807   24.8464 C   0  0  0  0  0  0
  -21.4150  -29.3046   22.3711 N   0  0  0  0  0  0
  -26.4297  -37.3792   23.9409 N   0  0  0  0  0  0
  -24.6755  -31.0745   22.1023 N   0  0  0  0  0  0
  -23.4186  -28.8186   23.3012 O   0  0  0  0  0  0
  -28.3671  -26.5960   20.1358 O   0  0  0  0  0  0
  -26.5601  -34.8924   22.4690 O   0  0  0  0  0  0
  -23.5373  -32.1431   23.7476 O   0  0  0  0  0  0
  -31.1486  -17.7017   20.5363 C   0  0  0  0  0  0
  -29.0465  -17.8291   21.2124 C   0  0  0  0  0  0
  -30.0349  -16.9193   20.9550 C   0  0  0  0  0  0
  -28.0655  -20.6346   19.7232 C   0  0  0  0  0  0
  -27.9805  -22.1625   19.5233 C   0  0  0  0  0  0
  -29.6986  -21.7076   21.0693 C   0  0  0  0  0  0
  -28.8370  -20.4026   21.0395 C   0  0  1  0  0  0
  -28.4833  -20.1395   23.6299 C   0  0  0  0  0  0
  -27.8490  -20.3997   22.2499 C   0  0  0  0  0  0
  -29.2739  -24.1710   20.4018 C   0  0  0  0  0  0
  -28.1346  -25.1658   20.0103 C   0  0  0  0  0  0
  -30.8498  -19.0059   20.5391 N   0  0  0  0  0  0
  -29.5649  -19.1030   20.9834 N   0  0  0  0  0  0
  -29.8988  -15.4952   21.0821 N   0  0  0  0  0  0
  -28.7573  -22.7740   20.6259 N   0  3  1  0  0  0
  -31.4788  -12.4470   19.1223 H   0  0  0  0  0  0
  -30.3556  -11.3160   19.8241 H   0  0  0  0  0  0
  -29.7461  -11.7830   17.4334 H   0  0  0  0  0  0
  -29.6615  -13.4941   17.7666 H   0  0  0  0  0  0
  -27.8353  -11.3066   18.8180 H   0  0  0  0  0  0
  -27.3705  -12.6346   17.7884 H   0  0  0  0  0  0
  -27.7064  -14.2503   19.5763 H   0  0  0  0  0  0
  -28.6928  -11.9404   21.3221 H   0  0  0  0  0  0
  -28.4617  -13.5642   21.8839 H   0  0  0  0  0  0
  -25.2752   -9.5685   22.4759 H   0  0  0  0  0  0
  -23.9996   -7.4635   22.7472 H   0  0  0  0  0  0
  -21.0838   -8.8765   19.8951 H   0  0  0  0  0  0
  -22.3683  -10.9671   19.6166 H   0  0  0  0  0  0
  -21.2000   -7.6146   23.9716 H   0  0  0  0  0  0
  -21.1485   -6.0522   25.9078 H   0  0  0  0  0  0
  -22.0598   -2.7610   23.2845 H   0  0  0  0  0  0
  -22.4095  -11.9899   22.4784 H   0  0  0  0  0  0
  -21.1120  -13.1285   22.2592 H   0  0  0  0  0  0
  -24.6674  -15.8422   20.5028 H   0  0  0  0  0  0
  -26.2800  -15.6156   20.0523 H   0  0  0  0  0  0
  -26.7138  -32.5513   23.1159 H   0  0  0  0  0  0
  -25.0059  -33.9775   25.0469 H   0  0  0  0  0  0
  -22.6982  -31.3131   21.4156 H   0  0  0  0  0  0
  -23.3755  -35.9639   23.3297 H   0  0  0  0  0  0
  -24.3582  -36.8928   22.2053 H   0  0  0  0  0  0
  -23.7233  -37.6511   23.6656 H   0  0  0  0  0  0
  -26.0670  -31.5894   20.6072 H   0  0  0  0  0  0
  -26.8278  -30.8669   21.9959 H   0  0  0  0  0  0
  -28.1055  -29.0555   21.1720 H   0  0  0  0  0  0
  -25.9692  -25.9941   18.9662 H   0  0  0  0  0  0
  -23.9624  -27.3291   19.0164 H   0  0  0  0  0  0
  -23.7286  -30.6138   19.4098 H   0  0  0  0  0  0
  -22.7394  -29.2596   19.8658 H   0  0  0  0  0  0
  -25.1289  -36.1975   25.0830 H   0  0  0  0  0  0
  -20.9962  -28.3244   24.1424 H   0  0  0  0  0  0
  -20.5668  -26.2287   23.3601 H   0  0  0  0  0  0
  -21.6634  -26.7450   22.1203 H   0  0  0  0  0  0
  -19.6905  -25.6300   21.1235 H   0  0  0  0  0  0
  -19.6681  -27.3205   20.6746 H   0  0  0  0  0  0
  -17.4189  -26.6679   21.4024 H   0  0  0  0  0  0
  -18.0320  -26.0062   22.9013 H   0  0  0  0  0  0
  -19.7927  -30.7256   24.2293 H   0  0  0  0  0  0
  -17.5011  -31.6276   24.5154 H   0  0  0  0  0  0
  -15.5347  -30.3003   23.7642 H   0  0  0  0  0  0
  -15.8657  -28.0824   22.7084 H   0  0  0  0  0  0
  -24.5913  -30.7056   25.7801 H   0  0  0  0  0  0
  -24.8940  -32.2857   26.4938 H   0  0  0  0  0  0
  -25.8089  -30.8851   27.0226 H   0  0  0  0  0  0
  -26.2863  -29.6789   24.1188 H   0  0  0  0  0  0
  -27.4063  -29.7272   25.4607 H   0  0  0  0  0  0
  -27.8710  -30.4333   23.9305 H   0  0  0  0  0  0
  -27.2695  -33.3611   26.2084 H   0  0  0  0  0  0
  -28.3866  -32.6859   25.0314 H   0  0  0  0  0  0
  -28.0734  -31.8420   26.5398 H   0  0  0  0  0  0
  -28.2601  -38.0107   24.7520 H   0  0  0  0  0  0
  -28.1079  -36.2636   24.6282 H   0  0  0  0  0  0
  -27.2296  -37.1450   25.8865 H   0  0  0  0  0  0
  -20.9306  -29.8787   21.6951 H   0  0  0  0  0  0
  -26.0186  -38.2871   24.1411 H   0  0  0  0  0  0
  -32.1348  -17.3834   20.2284 H   0  0  0  0  0  0
  -28.0249  -17.6786   21.5311 H   0  0  0  0  0  0
  -28.6119  -20.2019   18.8834 H   0  0  0  0  0  0
  -27.0806  -20.1668   19.7274 H   0  0  0  0  0  0
  -26.9466  -22.5095   19.5425 H   0  0  0  0  0  0
  -28.4049  -22.4341   18.5552 H   0  0  0  0  0  0
  -30.5259  -21.6501   20.3601 H   0  0  0  0  0  0
  -30.1249  -21.9189   22.0491 H   0  0  0  0  0  0
  -27.7142  -20.1097   24.4025 H   0  0  0  0  0  0
  -29.1865  -20.9236   23.9092 H   0  0  0  0  0  0
  -29.0143  -19.1886   23.6706 H   0  0  0  0  0  0
  -27.0765  -19.6478   22.0867 H   0  0  0  0  0  0
  -27.2952  -21.3369   22.3021 H   0  0  0  0  0  0
  -29.7411  -24.5106   21.3266 H   0  0  0  0  0  0
  -30.0513  -24.1708   19.6372 H   0  0  0  0  0  0
  -27.2731  -24.9167   20.6332 H   0  0  0  0  0  0
  -27.8577  -24.9513   18.9776 H   0  0  0  0  0  0
  -29.0140  -15.1686   21.4400 H   0  0  0  0  0  0
  -28.1054  -22.8482   21.3946 H   0  0  0  0  0  0
  1 25  1  0  0  0
  1 30  2  0  0  0
  1 84  1  0  0  0
  2  3  1  0  0  0
  2 25  1  0  0  0
  2 86  1  0  0  0
  2 87  1  0  0  0
  3  4  1  0  0  0
  3 88  1  0  0  0
  3 89  1  0  0  0
  4  5  1  0  0  0
  4 90  1  0  0  0
  4 91  1  0  0  0
  5  6  1  0  0  0
  5 26  1  0  0  0
  5 92  1  0  0  0
  6 25  1  0  0  0
  6 93  1  0  0  0
  6 94  1  0  0  0
  7  8  2  0  0  0
  7 26  1  0  0  0
  7 29  1  0  0  0
  8  9  1  0  0  0
  8 22  1  0  0  0
  9 10  1  0  0  0
  9 27  2  0  0  0
 10 11  2  0  0  0
 10 15  1  0  0  0
 11 12  1  0  0  0
 11 95  1  0  0  0
 12 13  2  0  0  0
 12 96  1  0  0  0
 13 14  1  0  0  0
 13 31  1  0  0  0
 14 15  2  0  0  0
 14 97  1  0  0  0
 15 98  1  0  0  0
 16 17  2  0  0  0
 16 21  1  0  0  0
 16 31  1  0  0  0
 17 18  1  0  0  0
 17 99  1  0  0  0
 18 19  2  0  0  0
 18100  1  0  0  0
 19 20  1  0  0  0
 19 24  1  0  0  0
 20 21  2  0  0  0
 20101  1  0  0  0
 21 23  1  0  0  0
 22 28  1  0  0  0
 22 32  2  0  0  0
 26 27  1  0  0  0
 28102  1  0  0  0
 28103  1  0  0  0
 29104  1  0  0  0
 29105  1  0  0  0
 33 34  1  0  0  0
 33 66  1  0  0  0
 33 70  2  0  0  0
 34 36  1  0  0  0
 34 59  1  0  0  0
 34106  1  0  0  0
 35 44  2  0  0  0
 35 45  1  0  0  0
 35 68  1  0  0  0
 36 56  1  0  0  0
 36107  1  0  0  0
 37 39  1  0  0  0
 37 47  1  0  0  0
 37 66  1  0  0  0
 37108  1  0  0  0
 38 43  2  0  0  0
 38 46  1  0  0  0
 38 47  1  0  0  0
 39 64  1  0  0  0
 39 67  2  0  0  0
 40 52  1  0  0  0
 40 53  2  0  0  0
 40 58  1  0  0  0
 41109  1  0  0  0
 41110  1  0  0  0
 41111  1  0  0  0
 41 48  1  0  0  0
 42 43  1  0  0  0
 42 66  1  0  0  0
 42112  1  0  0  0
 42113  1  0  0  0
 43 44  1  0  0  0
 44114  1  0  0  0
 45 46  2  0  0  0
 45115  1  0  0  0
 46116  1  0  0  0
 47117  1  0  0  0
 47118  1  0  0  0
 48 56  1  0  0  0
 48 65  1  0  0  0
 48119  1  0  0  0
 49 50  1  0  0  0
 49 53  1  0  0  0
 49 64  1  0  0  0
 49120  1  0  0  0
 50 51  1  0  0  0
 50121  1  0  0  0
 50122  1  0  0  0
 51 52  1  0  0  0
 51123  1  0  0  0
 51124  1  0  0  0
 52125  1  0  0  0
 52126  1  0  0  0
 53 54  1  0  0  0
 54 55  2  0  0  0
 54127  1  0  0  0
 55 57  1  0  0  0
 55128  1  0  0  0
 56 69  2  0  0  0
 57 58  2  0  0  0
 57129  1  0  0  0
 58130  1  0  0  0
 59 60  1  0  0  0
 59 61  1  0  0  0
 59 62  1  0  0  0
 60131  1  0  0  0
 60132  1  0  0  0
 60133  1  0  0  0
 61134  1  0  0  0
 61135  1  0  0  0
 61136  1  0  0  0
 62137  1  0  0  0
 62138  1  0  0  0
 62139  1  0  0  0
 63 65  1  0  0  0
 63140  1  0  0  0
 63141  1  0  0  0
 63142  1  0  0  0
 64143  1  0  0  0
 65144  1  0  0  0
 68 81  1  0  0  0
 71 73  1  0  0  0
 71 82  2  0  0  0
 71145  1  0  0  0
 72 73  2  0  0  0
 72 83  1  0  0  0
 72146  1  0  0  0
 73 84  1  0  0  0
 74 75  1  0  0  0
 74 77  1  0  0  0
 74147  1  0  0  0
 74148  1  0  0  0
 75 85  1  0  0  0
 75149  1  0  0  0
 75150  1  0  0  0
 76 77  1  0  0  0
 76 85  1  0  0  0
 76151  1  0  0  0
 76152  1  0  0  0
 77 79  1  0  0  0
 77 83  1  0  0  0
 78 79  1  0  0  0
 78153  1  0  0  0
 78154  1  0  0  0
 78155  1  0  0  0
 79156  1  0  0  0
 79157  1  0  0  0
 80 81  1  0  0  0
 80158  1  0  0  0
 80159  1  0  0  0
 80 85  1  0  0  0
 81160  1  0  0  0
 81161  1  0  0  0
 82 83  1  0  0  0
 84162  1  0  0  0
 85163  1  0  0  0
M  CHG  1  85   1
M  ISO  4   1 100  68 101  81 101  84 100
M  END
> <chiral flag>
0

> <version>
0

> <s_m_source_file>
/data/baiqing/PycharmProjects/Reinvent-master-3.2/result/LINK_invent/BTK/process_docking_weight1_custom_sum_contain_oxygen_bond_distance_aromatic_linkinvent_7_9_3/rearranged_h_0185.sdf

> <i_m_source_file_index>
80

> <r_mmod_Potential_Energy-OPLS-2005>
-27.5349464416504

> <r_mmod_Stretch_Energy-OPLS-2005>
48.6941337585449

> <r_mmod_Bend_Energy-OPLS-2005>
156.652130126953

> <r_mmod_Torsional_Energy-OPLS-2005>
309.060211181641

> <r_mmod_Improper_Torsional_Energy-OPLS-2005>
4.28859376907349

> <r_mmod_Van_der_Waal_Energy-OPLS-2005>
135.705795288086

> <r_mmod_Electrostatic_Energy-OPLS-2005>
-258.8671875

> <r_mmod_Solvation_Energy-OPLS-2005>
-443.142456054688

> <b_mmod_Minimization_Converged-OPLS-2005>
0

> <r_mmod_RMS_Derivative-OPLS-2005>
0.550718069076538

$$$$
80
                    3D
 Structure written by MMmdl.
161170  0  0  1  0            999 V2000
  -30.6862  -14.6453   20.4803 C   0  0  0  0  0  0
  -30.4216  -12.4001   19.4533 C   0  0  0  0  0  0
  -29.5005  -12.4966   18.2183 C   0  0  0  0  0  0
  -28.0238  -12.3397   18.6350 C   0  0  0  0  0  0
  -27.6458  -13.2251   19.8531 C   0  0  2  0  0  0
  -28.6954  -13.1179   20.9805 C   0  0  0  0  0  0
  -25.2519  -13.8184   20.5680 C   0  0  0  0  0  0
  -24.1802  -13.0443   20.9219 C   0  0  0  0  0  0
  -24.6379  -11.6919   20.8763 C   0  0  0  0  0  0
  -23.9042  -10.4307   21.0424 C   0  0  0  0  0  0
  -24.3604   -9.4216   21.9188 C   0  0  0  0  0  0
  -23.6286   -8.2253   22.0761 C   0  0  0  0  0  0
  -22.4273   -8.0284   21.3553 C   0  0  0  0  0  0
  -21.9891   -9.0263   20.4661 C   0  0  0  0  0  0
  -22.7216  -10.2147   20.3063 C   0  0  0  0  0  0
  -21.6856   -6.0726   22.5257 C   0  0  0  0  0  0
  -21.4030   -6.5625   23.8193 C   0  0  0  0  0  0
  -21.3673   -5.6780   24.9154 C   0  0  0  0  0  0
  -21.6043   -4.3040   24.7210 C   0  0  0  0  0  0
  -21.8824   -3.8131   23.4337 C   0  0  0  0  0  0
  -21.9199   -4.6954   22.3391 C   0  0  0  0  0  0
  -22.7812  -13.5226   21.1868 C   0  0  0  0  0  0
  -22.1666   -4.2145   21.0971 F   0  0  0  0  0  0
  -21.5630   -3.4522   25.7729 F   0  0  0  0  0  0
  -29.9985  -13.4578   20.3956 N   0  0  0  0  0  0
  -26.2950  -12.9392   20.3292 N   0  0  0  0  0  0
  -25.9309  -11.6537   20.5762 N   0  0  0  0  0  0
  -22.0451  -12.8232   22.0437 N   0  0  0  0  0  0
  -25.4156  -15.1898   20.4035 N   0  0  0  0  0  0
  -31.8811  -14.6767   20.1762 O   0  0  0  0  0  0
  -21.6638   -6.8879   21.4236 O   0  0  0  0  0  0
  -22.3502  -14.5528   20.6702 O   0  0  0  0  0  0
  -24.6261  -31.8593   23.2045 C   0  0  0  0  0  0
  -25.9137  -32.4762   23.8350 C   0  0  1  0  0  0
  -27.2178  -27.3274   20.1156 C   0  0  0  0  0  0
  -25.5974  -33.8558   24.2309 N   0  0  0  0  0  0
  -23.4177  -30.4865   21.5427 C   0  0  2  0  0  0
  -24.8660  -28.9441   20.1075 C   0  0  0  0  0  0
  -22.7469  -29.4623   22.4887 C   0  0  0  0  0  0
  -18.0295  -28.1367   22.8448 C   0  0  0  0  0  0
  -24.1503  -36.7274   23.2626 C   0  0  0  0  0  0
  -25.9588  -30.7925   21.3773 C   0  0  0  0  0  0
  -26.0335  -29.4208   20.7183 C   0  0  0  0  0  0
  -27.2150  -28.6237   20.7127 C   0  0  0  0  0  0
  -26.0340  -26.9028   19.4752 C   0  0  0  0  0  0
  -24.8676  -27.6891   19.4775 C   0  0  0  0  0  0
  -23.6358  -29.8266   20.1548 C   0  0  0  0  0  0
  -25.4113  -36.3051   24.0330 C   0  0  1  0  0  0
  -20.5893  -28.3676   23.1245 C   0  0  2  0  0  0
  -20.6792  -26.9396   22.5368 C   0  0  0  0  0  0
  -19.5766  -26.6370   21.5164 C   0  0  0  0  0  0
  -18.1951  -26.7904   22.1597 C   0  0  0  0  0  0
  -19.1547  -28.8842   23.2845 C   0  0  0  0  0  0
  -18.9466  -30.1432   23.8864 C   0  0  0  0  0  0
  -17.6472  -30.6572   24.0545 C   0  0  0  0  0  0
  -25.9042  -34.9433   23.5110 C   0  0  0  0  0  0
  -16.5362  -29.9053   23.6329 C   0  0  0  0  0  0
  -16.7290  -28.6482   23.0330 C   0  0  0  0  0  0
  -26.4557  -31.6556   25.0705 C   0  0  0  0  0  0
  -25.3829  -31.3724   26.1466 C   0  0  0  0  0  0
  -27.0356  -30.2950   24.6165 C   0  0  0  0  0  0
  -27.6139  -32.4247   25.7471 C   0  0  0  0  0  0
  -27.5586  -37.1774   24.8457 C   0  0  0  0  0  0
  -21.4180  -29.3052   22.3655 N   0  0  0  0  0  0
  -26.4285  -37.3750   23.9428 N   0  0  0  0  0  0
  -24.6848  -31.0635   22.0986 N   0  0  0  0  0  0
  -23.4206  -28.8126   23.2929 O   0  0  0  0  0  0
  -28.3178  -26.4647   20.1258 O   0  0  0  0  0  0
  -26.5564  -34.8906   22.4637 O   0  0  0  0  0  0
  -23.5428  -32.1401   23.7394 O   0  0  0  0  0  0
  -29.5350  -21.5489   18.7809 C   0  0  0  0  0  0
  -29.3357  -22.7551   18.0886 C   0  0  0  0  0  0
  -29.3151  -21.5400   20.1683 C   0  0  0  0  0  0
  -28.6988  -23.8318   20.0196 C   0  0  0  0  0  0
  -29.0338  -16.3836   21.3862 C   0  0  0  0  0  0
  -30.2802  -16.8269   19.3235 C   0  0  0  0  0  0
  -29.1783  -17.9187   21.7421 C   0  0  0  0  0  0
  -30.5851  -18.2759   19.8234 C   0  0  0  0  0  0
  -29.6054  -22.8541   16.6004 C   0  0  0  0  0  0
  -29.6720  -20.3049   21.0790 C   0  0  0  0  0  0
  -28.0813  -25.1130   20.6957 C   0  0  0  0  0  0
  -28.9155  -23.8779   18.7076 N   0  0  0  0  0  0
  -28.8888  -22.7073   20.7596 N   0  0  0  0  0  0
  -29.9708  -15.8289   20.3817 N   0  0  0  0  0  0
  -29.4638  -18.8647   20.6109 N   0  3  0  0  0  0
  -31.4661  -12.4960   19.1499 H   0  0  0  0  0  0
  -30.3363  -11.4189   19.9221 H   0  0  0  0  0  0
  -29.7653  -11.7308   17.4875 H   0  0  0  0  0  0
  -29.6467  -13.4577   17.7229 H   0  0  0  0  0  0
  -27.8636  -11.2877   18.8742 H   0  0  0  0  0  0
  -27.3660  -12.5630   17.7937 H   0  0  0  0  0  0
  -27.6547  -14.2552   19.4941 H   0  0  0  0  0  0
  -28.7183  -12.1068   21.3903 H   0  0  0  0  0  0
  -28.4392  -13.7686   21.8147 H   0  0  0  0  0  0
  -25.2773   -9.5698   22.4731 H   0  0  0  0  0  0
  -24.0006   -7.4643   22.7474 H   0  0  0  0  0  0
  -21.0822   -8.8765   19.8968 H   0  0  0  0  0  0
  -22.3670  -10.9668   19.6143 H   0  0  0  0  0  0
  -21.2027   -7.6135   23.9684 H   0  0  0  0  0  0
  -21.1493   -6.0518   25.9052 H   0  0  0  0  0  0
  -22.0598   -2.7597   23.2822 H   0  0  0  0  0  0
  -22.4049  -11.9904   22.4839 H   0  0  0  0  0  0
  -21.1069  -13.1275   22.2647 H   0  0  0  0  0  0
  -24.6356  -15.8317   20.4970 H   0  0  0  0  0  0
  -26.2378  -15.6238   20.0067 H   0  0  0  0  0  0
  -26.7180  -32.5444   23.1062 H   0  0  0  0  0  0
  -25.0275  -33.9710   25.0562 H   0  0  0  0  0  0
  -22.7113  -31.3060   21.3996 H   0  0  0  0  0  0
  -23.3769  -35.9596   23.3255 H   0  0  0  0  0  0
  -24.3624  -36.8917   22.2048 H   0  0  0  0  0  0
  -23.7263  -37.6477   23.6653 H   0  0  0  0  0  0
  -26.0992  -31.5611   20.6156 H   0  0  0  0  0  0
  -26.8353  -30.8352   22.0113 H   0  0  0  0  0  0
  -28.1102  -28.9817   21.2023 H   0  0  0  0  0  0
  -26.0084  -25.9466   18.9721 H   0  0  0  0  0  0
  -23.9741  -27.3237   18.9898 H   0  0  0  0  0  0
  -23.7631  -30.6062   19.4012 H   0  0  0  0  0  0
  -22.7548  -29.2594   19.8476 H   0  0  0  0  0  0
  -25.1289  -36.1882   25.0816 H   0  0  0  0  0  0
  -20.9990  -28.3243   24.1358 H   0  0  0  0  0  0
  -20.5672  -26.2267   23.3557 H   0  0  0  0  0  0
  -21.6659  -26.7413   22.1170 H   0  0  0  0  0  0
  -19.6929  -25.6271   21.1205 H   0  0  0  0  0  0
  -19.6707  -27.3163   20.6673 H   0  0  0  0  0  0
  -17.4196  -26.6588   21.4032 H   0  0  0  0  0  0
  -18.0404  -26.0074   22.9035 H   0  0  0  0  0  0
  -19.7952  -30.7239   24.2216 H   0  0  0  0  0  0
  -17.5040  -31.6259   24.5127 H   0  0  0  0  0  0
  -15.5362  -30.2932   23.7697 H   0  0  0  0  0  0
  -15.8688  -28.0796   22.7048 H   0  0  0  0  0  0
  -24.5920  -30.7159   25.7844 H   0  0  0  0  0  0
  -24.9138  -32.2911   26.4987 H   0  0  0  0  0  0
  -25.8183  -30.8828   27.0183 H   0  0  0  0  0  0
  -26.2890  -29.6671   24.1286 H   0  0  0  0  0  0
  -27.4142  -29.7247   25.4666 H   0  0  0  0  0  0
  -27.8743  -30.4204   23.9310 H   0  0  0  0  0  0
  -27.2811  -33.3599   26.1985 H   0  0  0  0  0  0
  -28.4000  -32.6694   25.0315 H   0  0  0  0  0  0
  -28.0724  -31.8375   26.5445 H   0  0  0  0  0  0
  -28.2545  -38.0126   24.7549 H   0  0  0  0  0  0
  -28.1131  -36.2654   24.6199 H   0  0  0  0  0  0
  -27.2304  -37.1324   25.8856 H   0  0  0  0  0  0
  -20.9324  -29.8805   21.6916 H   0  0  0  0  0  0
  -26.0157  -38.2808   24.1462 H   0  0  0  0  0  0
  -29.8855  -20.6820   18.2403 H   0  0  0  0  0  0
  -28.0253  -16.2117   21.0144 H   0  0  0  0  0  0
  -29.1116  -15.8170   22.3170 H   0  0  0  0  0  0
  -31.1091  -16.5001   18.6913 H   0  0  0  0  0  0
  -29.4212  -16.8585   18.6510 H   0  0  0  0  0  0
  -29.9826  -18.0183   22.4739 H   0  0  0  0  0  0
  -28.2741  -18.2435   22.2585 H   0  0  0  0  0  0
  -30.8195  -18.9018   18.9655 H   0  0  0  0  0  0
  -31.4897  -18.2618   20.4355 H   0  0  0  0  0  0
  -30.4337  -22.2038   16.3138 H   0  0  0  0  0  0
  -29.8690  -23.8708   16.3085 H   0  0  0  0  0  0
  -28.7264  -22.5512   16.0318 H   0  0  0  0  0  0
  -29.0844  -20.4443   21.9874 H   0  0  0  0  0  0
  -30.7085  -20.4235   21.3975 H   0  0  0  0  0  0
  -28.4375  -25.1446   21.7257 H   0  0  0  0  0  0
  -27.0148  -24.9062   20.7878 H   0  0  0  0  0  0
  -28.6465  -18.8897   20.0219 H   0  0  0  0  0  0
  1 25  1  0  0  0
  1 30  2  0  0  0
  1 84  1  0  0  0
  2  3  1  0  0  0
  2 25  1  0  0  0
  2 86  1  0  0  0
  2 87  1  0  0  0
  3  4  1  0  0  0
  3 88  1  0  0  0
  3 89  1  0  0  0
  4  5  1  0  0  0
  4 90  1  0  0  0
  4 91  1  0  0  0
  5  6  1  0  0  0
  5 26  1  0  0  0
  5 92  1  0  0  0
  6 25  1  0  0  0
  6 93  1  0  0  0
  6 94  1  0  0  0
  7  8  2  0  0  0
  7 26  1  0  0  0
  7 29  1  0  0  0
  8  9  1  0  0  0
  8 22  1  0  0  0
  9 10  1  0  0  0
  9 27  2  0  0  0
 10 11  2  0  0  0
 10 15  1  0  0  0
 11 12  1  0  0  0
 11 95  1  0  0  0
 12 13  2  0  0  0
 12 96  1  0  0  0
 13 14  1  0  0  0
 13 31  1  0  0  0
 14 15  2  0  0  0
 14 97  1  0  0  0
 15 98  1  0  0  0
 16 17  2  0  0  0
 16 21  1  0  0  0
 16 31  1  0  0  0
 17 18  1  0  0  0
 17 99  1  0  0  0
 18 19  2  0  0  0
 18100  1  0  0  0
 19 20  1  0  0  0
 19 24  1  0  0  0
 20 21  2  0  0  0
 20101  1  0  0  0
 21 23  1  0  0  0
 22 28  1  0  0  0
 22 32  2  0  0  0
 26 27  1  0  0  0
 28102  1  0  0  0
 28103  1  0  0  0
 29104  1  0  0  0
 29105  1  0  0  0
 33 34  1  0  0  0
 33 66  1  0  0  0
 33 70  2  0  0  0
 34 36  1  0  0  0
 34 59  1  0  0  0
 34106  1  0  0  0
 35 44  2  0  0  0
 35 45  1  0  0  0
 35 68  1  0  0  0
 36 56  1  0  0  0
 36107  1  0  0  0
 37 39  1  0  0  0
 37 47  1  0  0  0
 37 66  1  0  0  0
 37108  1  0  0  0
 38 43  2  0  0  0
 38 46  1  0  0  0
 38 47  1  0  0  0
 39 64  1  0  0  0
 39 67  2  0  0  0
 40 52  1  0  0  0
 40 53  2  0  0  0
 40 58  1  0  0  0
 41109  1  0  0  0
 41110  1  0  0  0
 41111  1  0  0  0
 41 48  1  0  0  0
 42 43  1  0  0  0
 42 66  1  0  0  0
 42112  1  0  0  0
 42113  1  0  0  0
 43 44  1  0  0  0
 44114  1  0  0  0
 45 46  2  0  0  0
 45115  1  0  0  0
 46116  1  0  0  0
 47117  1  0  0  0
 47118  1  0  0  0
 48 56  1  0  0  0
 48 65  1  0  0  0
 48119  1  0  0  0
 49 50  1  0  0  0
 49 53  1  0  0  0
 49 64  1  0  0  0
 49120  1  0  0  0
 50 51  1  0  0  0
 50121  1  0  0  0
 50122  1  0  0  0
 51 52  1  0  0  0
 51123  1  0  0  0
 51124  1  0  0  0
 52125  1  0  0  0
 52126  1  0  0  0
 53 54  1  0  0  0
 54 55  2  0  0  0
 54127  1  0  0  0
 55 57  1  0  0  0
 55128  1  0  0  0
 56 69  2  0  0  0
 57 58  2  0  0  0
 57129  1  0  0  0
 58130  1  0  0  0
 59 60  1  0  0  0
 59 61  1  0  0  0
 59 62  1  0  0  0
 60131  1  0  0  0
 60132  1  0  0  0
 60133  1  0  0  0
 61134  1  0  0  0
 61135  1  0  0  0
 61136  1  0  0  0
 62137  1  0  0  0
 62138  1  0  0  0
 62139  1  0  0  0
 63 65  1  0  0  0
 63140  1  0  0  0
 63141  1  0  0  0
 63142  1  0  0  0
 64143  1  0  0  0
 65144  1  0  0  0
 68 81  1  0  0  0
 71 72  2  0  0  0
 71 73  1  0  0  0
 71145  1  0  0  0
 72 79  1  0  0  0
 72 82  1  0  0  0
 73 80  1  0  0  0
 73 83  2  0  0  0
 74 81  1  0  0  0
 74 82  2  0  0  0
 74 83  1  0  0  0
 75 77  1  0  0  0
 75 84  1  0  0  0
 75146  1  0  0  0
 75147  1  0  0  0
 76 78  1  0  0  0
 76 84  1  0  0  0
 76148  1  0  0  0
 76149  1  0  0  0
 77 85  1  0  0  0
 77150  1  0  0  0
 77151  1  0  0  0
 78 85  1  0  0  0
 78152  1  0  0  0
 78153  1  0  0  0
 79154  1  0  0  0
 79155  1  0  0  0
 79156  1  0  0  0
 80157  1  0  0  0
 80158  1  0  0  0
 80 85  1  0  0  0
 81159  1  0  0  0
 81160  1  0  0  0
 85161  1  0  0  0
M  CHG  1  85   1
M  ISO  4   1 100  68 101  81 101  84 100
M  END
> <chiral flag>
0

> <version>
0

> <s_m_source_file>
/data/baiqing/PycharmProjects/Reinvent-master-3.2/result/LINK_invent/BTK/process_docking_weight1_custom_sum_contain_oxygen_bond_distance_aromatic_linkinvent_7_9_3/rearranged_h_0185.sdf

> <i_m_source_file_index>
81

> <r_mmod_Potential_Energy-OPLS-2005>
-280.996185302734

> <r_mmod_Stretch_Energy-OPLS-2005>
82.0800323486328

> <r_mmod_Bend_Energy-OPLS-2005>
151.613983154297

> <r_mmod_Torsional_Energy-OPLS-2005>
393.549652099609

> <r_mmod_Improper_Torsional_Energy-OPLS-2005>
18.1635341644287

> <r_mmod_Van_der_Waal_Energy-OPLS-2005>
152.440719604492

> <r_mmod_Electrostatic_Energy-OPLS-2005>
-643.685913085938

> <r_mmod_Solvation_Energy-OPLS-2005>
-487.077331542969

> <b_mmod_Minimization_Converged-OPLS-2005>
0

> <r_mmod_RMS_Derivative-OPLS-2005>
3.41673898696899

$$$$
81
                    3D
 Structure written by MMmdl.
176185  0  0  1  0            999 V2000
  -30.7044  -14.6331   19.4095 C   0  0  0  0  0  0
  -31.1474  -12.4602   19.7712 C   0  0  0  0  0  0
  -30.4226  -11.9445   18.5618 C   0  0  0  0  0  0
  -29.0554  -11.9688   19.1015 C   0  0  0  0  0  0
  -28.1658  -13.3228   19.6815 C   0  0  2  0  0  0
  -29.1046  -13.5840   20.8736 C   0  0  0  0  0  0
  -25.6793  -14.9052   20.2172 C   0  0  0  0  0  0
  -23.9564  -14.1871   21.0802 C   0  0  0  0  0  0
  -23.9447  -12.4139   21.1754 C   0  0  0  0  0  0
  -23.3996  -10.9343   21.3138 C   0  0  0  0  0  0
  -24.0565   -9.8581   22.0499 C   0  0  0  0  0  0
  -23.5722   -8.5112   22.1038 C   0  0  0  0  0  0
  -22.4289   -8.1488   21.3623 C   0  0  0  0  0  0
  -21.9149   -9.1185   20.4773 C   0  0  0  0  0  0
  -22.4121  -10.4467   20.4287 C   0  0  0  0  0  0
  -21.7462   -6.1082   22.5113 C   0  0  0  0  0  0
  -21.4388   -6.5890   23.8053 C   0  0  0  0  0  0
  -21.3728   -5.7012   24.8987 C   0  0  0  0  0  0
  -21.6059   -4.3241   24.7093 C   0  0  0  0  0  0
  -21.8719   -3.8341   23.4195 C   0  0  0  0  0  0
  -21.9360   -4.7169   22.3282 C   0  0  0  0  0  0
  -22.5086  -14.3690   21.3434 C   0  0  0  0  0  0
  -22.1802   -4.2253   21.0888 F   0  0  0  0  0  0
  -21.5482   -3.4701   25.7580 F   0  0  0  0  0  0
  -30.4157  -13.6492   20.2363 N   0  0  0  0  0  0
  -26.6089  -13.4706   19.8603 N   0  0  0  0  0  0
  -25.0581  -11.9436   20.6314 N   0  0  0  0  0  0
  -21.9461  -13.5464   22.2580 N   0  0  0  0  0  0
  -26.4754  -15.8382   19.6344 N   0  0  0  0  0  0
  -31.6987  -15.2784   19.7276 O   0  0  0  0  0  0
  -21.7899   -6.9165   21.3982 O   0  0  0  0  0  0
  -21.8257  -15.0585   20.6392 O   0  0  0  0  0  0
  -24.7304  -31.7195   23.1063 C   0  0  0  0  0  0
  -25.9688  -32.3989   23.7711 C   0  0  1  0  0  0
  -26.4628  -25.7507   20.4934 C   0  0  0  0  0  0
  -25.6102  -33.7887   24.1562 N   0  0  0  0  0  0
  -23.5486  -30.3361   21.4806 C   0  0  2  0  0  0
  -24.8782  -28.5133   20.1071 C   0  0  0  0  0  0
  -22.7801  -29.4006   22.4550 C   0  0  0  0  0  0
  -18.0316  -28.1420   22.8420 C   0  0  0  0  0  0
  -24.1529  -36.6985   23.2663 C   0  0  0  0  0  0
  -26.1141  -30.1125   21.5117 C   0  0  0  0  0  0
  -26.0152  -28.5898   20.9035 C   0  0  0  0  0  0
  -26.7996  -27.2432   21.0552 C   0  0  0  0  0  0
  -25.5427  -26.1402   19.4744 C   0  0  0  0  0  0
  -24.7584  -27.3429   19.3416 C   0  0  0  0  0  0
  -23.7998  -29.6231   20.1115 C   0  0  0  0  0  0
  -25.4201  -36.2635   24.0219 C   0  0  1  0  0  0
  -20.5934  -28.3781   23.1087 C   0  0  2  0  0  0
  -20.6755  -26.9416   22.5417 C   0  0  0  0  0  0
  -19.5753  -26.6348   21.5212 C   0  0  0  0  0  0
  -18.1936  -26.7949   22.1603 C   0  0  0  0  0  0
  -19.1574  -28.8936   23.2729 C   0  0  0  0  0  0
  -18.9501  -30.1519   23.8788 C   0  0  0  0  0  0
  -17.6485  -30.6598   24.0547 C   0  0  0  0  0  0
  -25.9226  -34.9033   23.4781 C   0  0  0  0  0  0
  -16.5376  -29.9073   23.6337 C   0  0  0  0  0  0
  -16.7308  -28.6493   23.0362 C   0  0  0  0  0  0
  -26.4677  -31.6299   25.0580 C   0  0  0  0  0  0
  -25.3562  -31.3800   26.1066 C   0  0  0  0  0  0
  -27.0673  -30.2557   24.6958 C   0  0  0  0  0  0
  -27.6064  -32.4253   25.7421 C   0  0  0  0  0  0
  -27.5561  -37.1641   24.8463 C   0  0  0  0  0  0
  -21.4426  -29.2941   22.3313 N   0  0  0  0  0  0
  -26.4270  -37.3470   23.9392 N   0  0  0  0  0  0
  -24.8407  -30.7865   22.0774 N   0  0  0  0  0  0
  -23.4036  -28.7640   23.3086 O   0  0  0  0  0  0
  -26.7523  -24.0272   20.7592 O   0  0  0  0  0  0
  -26.5936  -34.8761   22.4452 O   0  0  0  0  0  0
  -23.6269  -32.0793   23.5637 O   0  0  0  0  0  0
  -25.2112  -12.2288   18.2483 C   0  0  0  0  0  0
  -24.5669  -13.4208   19.1070 C   0  0  0  0  0  0
  -25.9097  -13.5551   21.8892 C   0  0  0  0  0  0
  -26.4580  -11.3095   18.8182 C   0  0  0  0  0  0
  -24.1423  -16.8789   19.9760 C   0  0  0  0  0  0
  -23.9160  -15.2208   18.7028 C   0  0  1  0  0  0
  -25.7393  -15.8070   22.3566 C   0  0  1  0  0  0
  -24.4797  -15.5690   17.2976 C   0  0  0  0  0  0
  -24.6216  -19.8440   22.4186 C   0  0  0  0  0  0
  -26.6562  -16.6466   25.9876 C   0  0  0  0  0  0
  -25.6808  -16.0305   23.9104 C   0  0  0  0  0  0
  -27.7216  -12.9092   16.8783 C   0  0  0  0  0  0
  -29.0955  -13.9933   17.0031 C   0  0  0  0  0  0
  -26.0774  -21.9305   20.6610 C   0  0  0  0  0  0
  -25.7350  -19.5994   21.3854 C   0  0  2  0  0  0
  -26.9965  -12.2170   21.8369 N   0  0  0  0  0  0
  -27.1545  -11.1681   20.4687 N   0  0  0  0  0  0
  -27.1371  -11.5523   17.5016 N   0  0  0  0  0  0
  -30.0695  -14.7094   18.1134 N   0  0  0  0  0  0
  -25.3757  -17.4906   21.1889 N   0  3  2  0  0  0
  -26.8133  -16.6177   24.5565 O   0  0  0  0  0  0
  -32.1808  -12.6781   19.4893 H   0  0  0  0  0  0
  -31.2635  -11.7186   20.5682 H   0  0  0  0  0  0
  -30.7494  -10.9091   18.4219 H   0  0  0  0  0  0
  -30.6983  -12.3829   17.6115 H   0  0  0  0  0  0
  -29.2801  -11.4103   20.0143 H   0  0  0  0  0  0
  -28.7809  -10.9714   18.7819 H   0  0  0  0  0  0
  -28.1901  -14.2206   19.1354 H   0  0  0  0  0  0
  -29.2325  -12.8120   21.6286 H   0  0  0  0  0  0
  -28.8778  -14.5111   21.4016 H   0  0  0  0  0  0
  -24.9403  -10.1086   22.6147 H   0  0  0  0  0  0
  -24.0723   -7.7887   22.7312 H   0  0  0  0  0  0
  -21.0931   -8.8560   19.8278 H   0  0  0  0  0  0
  -21.9759  -11.1431   19.7235 H   0  0  0  0  0  0
  -21.2611   -7.6437   23.9591 H   0  0  0  0  0  0
  -21.1557   -6.0765   25.8888 H   0  0  0  0  0  0
  -22.0335   -2.7753   23.2737 H   0  0  0  0  0  0
  -22.5066  -12.9572   22.8570 H   0  0  0  0  0  0
  -20.9484  -13.5379   22.3868 H   0  0  0  0  0  0
  -25.9418  -16.3211   18.9184 H   0  0  0  0  0  0
  -27.2826  -15.4319   19.1686 H   0  0  0  0  0  0
  -26.7775  -32.4236   23.0398 H   0  0  0  0  0  0
  -25.0037  -33.8823   24.9569 H   0  0  0  0  0  0
  -22.9129  -31.2002   21.2788 H   0  0  0  0  0  0
  -23.3806  -35.9295   23.3217 H   0  0  0  0  0  0
  -24.3581  -36.8796   22.2100 H   0  0  0  0  0  0
  -23.7296  -37.6113   23.6870 H   0  0  0  0  0  0
  -26.4278  -30.7460   20.6800 H   0  0  0  0  0  0
  -26.9613  -30.1600   22.1798 H   0  0  0  0  0  0
  -27.5977  -27.2777   21.7863 H   0  0  0  0  0  0
  -25.2081  -25.3307   18.8387 H   0  0  0  0  0  0
  -23.9462  -27.3084   18.6265 H   0  0  0  0  0  0
  -24.0867  -30.3643   19.3654 H   0  0  0  0  0  0
  -22.8638  -29.1928   19.7491 H   0  0  0  0  0  0
  -25.1450  -36.1308   25.0701 H   0  0  0  0  0  0
  -21.0021  -28.3469   24.1218 H   0  0  0  0  0  0
  -20.5569  -26.2436   23.3710 H   0  0  0  0  0  0
  -21.6626  -26.7298   22.1276 H   0  0  0  0  0  0
  -19.6915  -25.6232   21.1304 H   0  0  0  0  0  0
  -19.6723  -27.3104   20.6698 H   0  0  0  0  0  0
  -17.4216  -26.6686   21.4005 H   0  0  0  0  0  0
  -18.0325  -26.0116   22.9017 H   0  0  0  0  0  0
  -19.7989  -30.7355   24.2122 H   0  0  0  0  0  0
  -17.5044  -31.6279   24.5174 H   0  0  0  0  0  0
  -15.5373  -30.2958   23.7734 H   0  0  0  0  0  0
  -15.8709  -28.0801   22.7137 H   0  0  0  0  0  0
  -24.5931  -30.6942   25.7352 H   0  0  0  0  0  0
  -24.8544  -32.3048   26.3929 H   0  0  0  0  0  0
  -25.7584  -30.9356   27.0186 H   0  0  0  0  0  0
  -26.3402  -29.5946   24.2230 H   0  0  0  0  0  0
  -27.4047  -29.7283   25.5896 H   0  0  0  0  0  0
  -27.9453  -30.3525   24.0561 H   0  0  0  0  0  0
  -27.2592  -33.3723   26.1601 H   0  0  0  0  0  0
  -28.4082  -32.6513   25.0353 H   0  0  0  0  0  0
  -28.0504  -31.8605   26.5656 H   0  0  0  0  0  0
  -28.2503  -38.0000   24.7502 H   0  0  0  0  0  0
  -28.1134  -36.2512   24.6312 H   0  0  0  0  0  0
  -27.2266  -37.1275   25.8859 H   0  0  0  0  0  0
  -20.9794  -29.8576   21.6310 H   0  0  0  0  0  0
  -26.0041  -38.2495   24.1377 H   0  0  0  0  0  0
  -24.9711  -12.2539   17.1943 H   0  0  0  0  0  0
  -23.2889  -16.8792   20.6422 H   0  0  0  0  0  0
  -23.9146  -17.7436   19.3564 H   0  0  0  0  0  0
  -22.8530  -15.1089   18.4818 H   0  0  0  0  0  0
  -24.6640  -15.8223   22.4500 H   0  0  0  0  0  0
  -25.5576  -15.4380   17.2184 H   0  0  0  0  0  0
  -24.2743  -16.5927   16.9968 H   0  0  0  0  0  0
  -24.0575  -14.9231   16.5289 H   0  0  0  0  0  0
  -24.8193  -20.6989   23.0629 H   0  0  0  0  0  0
  -24.4718  -18.9687   23.0586 H   0  0  0  0  0  0
  -23.6704  -20.0086   21.9063 H   0  0  0  0  0  0
  -27.2671  -17.4356   26.4446 H   0  0  0  0  0  0
  -26.9214  -15.6781   26.4281 H   0  0  0  0  0  0
  -25.6340  -16.8763   26.3114 H   0  0  0  0  0  0
  -25.4976  -15.0494   24.3511 H   0  0  0  0  0  0
  -24.7906  -16.6005   24.1994 H   0  0  0  0  0  0
  -28.4978  -12.1557   16.8794 H   0  0  0  0  0  0
  -27.1492  -13.4754   17.5753 H   0  0  0  0  0  0
  -28.6751  -14.8916   16.5435 H   0  0  0  0  0  0
  -29.7852  -13.6701   16.2172 H   0  0  0  0  0  0
  -25.0475  -22.1498   20.3751 H   0  0  0  0  0  0
  -26.5318  -21.7223   19.6916 H   0  0  0  0  0  0
  -26.6829  -19.4831   21.9067 H   0  0  0  0  0  0
  -26.6615  -11.0302   16.7653 H   0  0  0  0  0  0
  -30.5077  -15.4889   17.6426 H   0  0  0  0  0  0
  -26.1695  -17.2886   20.5840 H   0  0  0  0  0  0
  1 25  1  0  0  0
  1 30  2  0  0  0
  1 89  1  0  0  0
  2  3  1  0  0  0
  2 25  1  0  0  0
  2 92  1  0  0  0
  2 93  1  0  0  0
  3  4  1  0  0  0
  3 94  1  0  0  0
  3 95  1  0  0  0
  4  5  1  0  0  0
  4 96  1  0  0  0
  4 97  1  0  0  0
  5  6  1  0  0  0
  5 26  1  0  0  0
  5 98  1  0  0  0
  6 25  1  0  0  0
  6 99  1  0  0  0
  6100  1  0  0  0
  7  8  2  0  0  0
  7 26  1  0  0  0
  7 29  1  0  0  0
  8  9  1  0  0  0
  8 22  1  0  0  0
  9 10  1  0  0  0
  9 27  2  0  0  0
 10 11  2  0  0  0
 10 15  1  0  0  0
 11 12  1  0  0  0
 11101  1  0  0  0
 12 13  2  0  0  0
 12102  1  0  0  0
 13 14  1  0  0  0
 13 31  1  0  0  0
 14 15  2  0  0  0
 14103  1  0  0  0
 15104  1  0  0  0
 16 17  2  0  0  0
 16 21  1  0  0  0
 16 31  1  0  0  0
 17 18  1  0  0  0
 17105  1  0  0  0
 18 19  2  0  0  0
 18106  1  0  0  0
 19 20  1  0  0  0
 19 24  1  0  0  0
 20 21  2  0  0  0
 20107  1  0  0  0
 21 23  1  0  0  0
 22 28  1  0  0  0
 22 32  2  0  0  0
 26 27  1  0  0  0
 28108  1  0  0  0
 28109  1  0  0  0
 29110  1  0  0  0
 29111  1  0  0  0
 33 34  1  0  0  0
 33 66  1  0  0  0
 33 70  2  0  0  0
 34 36  1  0  0  0
 34 59  1  0  0  0
 34112  1  0  0  0
 35 44  2  0  0  0
 35 45  1  0  0  0
 35 68  1  0  0  0
 36 56  1  0  0  0
 36113  1  0  0  0
 37 39  1  0  0  0
 37 47  1  0  0  0
 37 66  1  0  0  0
 37114  1  0  0  0
 38 43  2  0  0  0
 38 46  1  0  0  0
 38 47  1  0  0  0
 39 64  1  0  0  0
 39 67  2  0  0  0
 40 52  1  0  0  0
 40 53  2  0  0  0
 40 58  1  0  0  0
 41115  1  0  0  0
 41116  1  0  0  0
 41117  1  0  0  0
 41 48  1  0  0  0
 42 43  1  0  0  0
 42 66  1  0  0  0
 42118  1  0  0  0
 42119  1  0  0  0
 43 44  1  0  0  0
 44120  1  0  0  0
 45 46  2  0  0  0
 45121  1  0  0  0
 46122  1  0  0  0
 47123  1  0  0  0
 47124  1  0  0  0
 48 56  1  0  0  0
 48 65  1  0  0  0
 48125  1  0  0  0
 49 50  1  0  0  0
 49 53  1  0  0  0
 49 64  1  0  0  0
 49126  1  0  0  0
 50 51  1  0  0  0
 50127  1  0  0  0
 50128  1  0  0  0
 51 52  1  0  0  0
 51129  1  0  0  0
 51130  1  0  0  0
 52131  1  0  0  0
 52132  1  0  0  0
 53 54  1  0  0  0
 54 55  2  0  0  0
 54133  1  0  0  0
 55 57  1  0  0  0
 55134  1  0  0  0
 56 69  2  0  0  0
 57 58  2  0  0  0
 57135  1  0  0  0
 58136  1  0  0  0
 59 60  1  0  0  0
 59 61  1  0  0  0
 59 62  1  0  0  0
 60137  1  0  0  0
 60138  1  0  0  0
 60139  1  0  0  0
 61140  1  0  0  0
 61141  1  0  0  0
 61142  1  0  0  0
 62143  1  0  0  0
 62144  1  0  0  0
 62145  1  0  0  0
 63 65  1  0  0  0
 63146  1  0  0  0
 63147  1  0  0  0
 63148  1  0  0  0
 64149  1  0  0  0
 65150  1  0  0  0
 68 84  1  0  0  0
 71 72  2  0  0  0
 71 74  1  0  0  0
 71151  1  0  0  0
 72 73  1  0  0  0
 72 76  1  0  0  0
 73 77  1  0  0  0
 73 86  2  0  0  0
 74 87  2  0  0  0
 74 88  1  0  0  0
 75 76  1  0  0  0
 75152  1  0  0  0
 75153  1  0  0  0
 75 90  1  0  0  0
 76 78  1  0  0  0
 76154  1  0  0  0
 77 81  1  0  0  0
 77 90  1  0  0  0
 77155  1  0  0  0
 78156  1  0  0  0
 78157  1  0  0  0
 78158  1  0  0  0
 79159  1  0  0  0
 79160  1  0  0  0
 79161  1  0  0  0
 79 85  1  0  0  0
 80 91  1  0  0  0
 80162  1  0  0  0
 80163  1  0  0  0
 80164  1  0  0  0
 81 91  1  0  0  0
 81165  1  0  0  0
 81166  1  0  0  0
 82 83  1  0  0  0
 82 88  1  0  0  0
 82167  1  0  0  0
 82168  1  0  0  0
 83 89  1  0  0  0
 83169  1  0  0  0
 83170  1  0  0  0
 84 85  1  0  0  0
 84171  1  0  0  0
 84172  1  0  0  0
 85 90  1  0  0  0
 85173  1  0  0  0
 86 87  1  0  0  0
 88174  1  0  0  0
 89175  1  0  0  0
 90176  1  0  0  0
M  CHG  1  90   1
M  ISO  4   1 100  68 101  84 101  89 100
M  END
> <chiral flag>
0

> <version>
0

> <s_m_source_file>
/data/baiqing/PycharmProjects/Reinvent-master-3.2/result/LINK_invent/BTK/process_docking_weight1_custom_sum_contain_oxygen_bond_distance_aromatic_linkinvent_7_9_3/rearranged_h_0185.sdf

> <i_m_source_file_index>
82

> <r_mmod_Potential_Energy-OPLS-2005>
27390.646484375

> <r_mmod_Stretch_Energy-OPLS-2005>
15649.4619140625

> <r_mmod_Bend_Energy-OPLS-2005>
2681.00366210938

> <r_mmod_Torsional_Energy-OPLS-2005>
596.581237792969

> <r_mmod_Improper_Torsional_Energy-OPLS-2005>
84.1816711425781

> <r_mmod_Van_der_Waal_Energy-OPLS-2005>
5394.61767578125

> <r_mmod_Electrostatic_Energy-OPLS-2005>
-363.2958984375

> <r_mmod_Solvation_Energy-OPLS-2005>
-479.994903564453

> <b_mmod_Minimization_Converged-OPLS-2005>
0

> <r_mmod_RMS_Derivative-OPLS-2005>
23.4705696105957

$$$$
82
                    3D
 Structure written by MMmdl.
164173  0  0  1  0            999 V2000
  -30.6178  -14.7275   20.3659 C   0  0  0  0  0  0
  -30.4371  -12.4158   19.4634 C   0  0  0  0  0  0
  -29.5079  -12.3794   18.2303 C   0  0  0  0  0  0
  -28.0254  -12.2622   18.6529 C   0  0  0  0  0  0
  -27.6265  -13.1859   19.8370 C   0  0  2  0  0  0
  -28.6871  -13.1820   20.9574 C   0  0  0  0  0  0
  -25.2517  -13.8064   20.5745 C   0  0  0  0  0  0
  -24.1764  -13.0375   20.9243 C   0  0  0  0  0  0
  -24.6301  -11.6837   20.8808 C   0  0  0  0  0  0
  -23.8976  -10.4246   21.0442 C   0  0  0  0  0  0
  -24.3553   -9.4165   21.9203 C   0  0  0  0  0  0
  -23.6244   -8.2200   22.0758 C   0  0  0  0  0  0
  -22.4232   -8.0245   21.3542 C   0  0  0  0  0  0
  -21.9849   -9.0219   20.4653 C   0  0  0  0  0  0
  -22.7163  -10.2102   20.3074 C   0  0  0  0  0  0
  -21.6834   -6.0708   22.5280 C   0  0  0  0  0  0
  -21.4001   -6.5619   23.8212 C   0  0  0  0  0  0
  -21.3656   -5.6779   24.9179 C   0  0  0  0  0  0
  -21.6043   -4.3041   24.7233 C   0  0  0  0  0  0
  -21.8821   -3.8125   23.4355 C   0  0  0  0  0  0
  -21.9186   -4.6939   22.3407 C   0  0  0  0  0  0
  -22.7798  -13.5214   21.1864 C   0  0  0  0  0  0
  -22.1653   -4.2125   21.0987 F   0  0  0  0  0  0
  -21.5632   -3.4533   25.7750 F   0  0  0  0  0  0
  -29.9799  -13.5100   20.3434 N   0  0  0  0  0  0
  -26.2866  -12.9146   20.3331 N   0  0  0  0  0  0
  -25.9214  -11.6353   20.5848 N   0  0  0  0  0  0
  -22.0400  -12.8255   22.0417 N   0  0  0  0  0  0
  -25.4277  -15.1789   20.4165 N   0  0  0  0  0  0
  -31.8466  -14.7824   20.2602 O   0  0  0  0  0  0
  -21.6603   -6.8840   21.4234 O   0  0  0  0  0  0
  -22.3526  -14.5525   20.6689 O   0  0  0  0  0  0
  -24.6233  -31.8603   23.2033 C   0  0  0  0  0  0
  -25.9092  -32.4783   23.8357 C   0  0  1  0  0  0
  -27.2293  -27.3289   20.1352 C   0  0  0  0  0  0
  -25.5917  -33.8584   24.2285 N   0  0  0  0  0  0
  -23.4173  -30.4812   21.5440 C   0  0  2  0  0  0
  -24.8672  -28.9327   20.1145 C   0  0  0  0  0  0
  -22.7462  -29.4611   22.4939 C   0  0  0  0  0  0
  -18.0285  -28.1376   22.8480 C   0  0  0  0  0  0
  -24.1487  -36.7291   23.2617 C   0  0  0  0  0  0
  -25.9546  -30.7945   21.3733 C   0  0  0  0  0  0
  -26.0306  -29.4182   20.7261 C   0  0  0  0  0  0
  -27.2124  -28.6243   20.7320 C   0  0  0  0  0  0
  -26.0511  -26.8939   19.4908 C   0  0  0  0  0  0
  -24.8774  -27.6741   19.4897 C   0  0  0  0  0  0
  -23.6343  -29.8119   20.1598 C   0  0  0  0  0  0
  -25.4094  -36.3079   24.0329 C   0  0  1  0  0  0
  -20.5882  -28.3674   23.1289 C   0  0  2  0  0  0
  -20.6773  -26.9400   22.5406 C   0  0  0  0  0  0
  -19.5751  -26.6381   21.5204 C   0  0  0  0  0  0
  -18.1932  -26.7920   22.1622 C   0  0  0  0  0  0
  -19.1534  -28.8843   23.2884 C   0  0  0  0  0  0
  -18.9460  -30.1441   23.8905 C   0  0  0  0  0  0
  -17.6456  -30.6583   24.0560 C   0  0  0  0  0  0
  -25.9049  -34.9455   23.5112 C   0  0  0  0  0  0
  -16.5350  -29.9080   23.6320 C   0  0  0  0  0  0
  -16.7269  -28.6497   23.0347 C   0  0  0  0  0  0
  -26.4491  -31.6585   25.0715 C   0  0  0  0  0  0
  -25.3737  -31.3724   26.1456 C   0  0  0  0  0  0
  -27.0318  -30.3010   24.6145 C   0  0  0  0  0  0
  -27.6072  -32.4298   25.7473 C   0  0  0  0  0  0
  -27.5616  -37.1730   24.8410 C   0  0  0  0  0  0
  -21.4180  -29.3030   22.3686 N   0  0  0  0  0  0
  -26.4246  -37.3806   23.9482 N   0  0  0  0  0  0
  -24.6833  -31.0626   22.0975 N   0  0  0  0  0  0
  -23.4193  -28.8150   23.3016 O   0  0  0  0  0  0
  -28.3751  -26.5245   20.1247 O   0  0  0  0  0  0
  -26.5621  -34.8929   22.4681 O   0  0  0  0  0  0
  -23.5400  -32.1396   23.7371 O   0  0  0  0  0  0
  -27.3763  -23.2149   21.2725 C   0  0  0  0  0  0
  -28.4141  -22.3484   20.7961 C   0  0  0  0  0  0
  -29.4171  -24.2625   19.8786 C   0  0  0  0  0  0
  -28.3748  -25.1243   20.3493 C   0  0  0  0  0  0
  -29.8563  -17.0811   18.0523 C   0  0  0  0  0  0
  -30.8555  -17.7136   19.0019 C   0  0  0  0  0  0
  -29.1610  -16.0060   18.8923 C   0  0  0  0  0  0
  -30.3223  -17.3215   20.3859 C   0  0  1  0  0  0
  -26.1777  -22.6814   22.0362 C   0  0  0  0  0  0
  -30.5780  -24.8219   19.0802 C   0  0  0  0  0  0
  -28.3257  -20.7855   21.0062 C   0  0  0  0  0  0
  -29.1957  -18.3711   20.8504 C   0  0  0  0  0  0
  -29.4426  -22.9022   20.0930 N   0  0  0  0  0  0
  -27.3622  -24.5677   21.0654 N   0  0  0  0  0  0
  -29.8521  -15.8848   20.1948 N   0  0  0  0  0  0
  -29.4995  -19.8644   20.7547 N   0  3  0  0  0  0
  -31.4736  -12.5478   19.1461 H   0  0  0  0  0  0
  -30.4024  -11.4650   19.9969 H   0  0  0  0  0  0
  -29.7684  -11.5229   17.6072 H   0  0  0  0  0  0
  -29.6755  -13.2387   17.5860 H   0  0  0  0  0  0
  -27.8701  -11.2239   18.9450 H   0  0  0  0  0  0
  -27.3712  -12.4291   17.7975 H   0  0  0  0  0  0
  -27.5601  -14.1788   19.4229 H   0  0  0  0  0  0
  -28.7327  -12.2075   21.4458 H   0  0  0  0  0  0
  -28.4311  -13.9088   21.7296 H   0  0  0  0  0  0
  -25.2696   -9.5648   22.4781 H   0  0  0  0  0  0
  -23.9954   -7.4582   22.7468 H   0  0  0  0  0  0
  -21.0781   -8.8733   19.8960 H   0  0  0  0  0  0
  -22.3615  -10.9649   19.6195 H   0  0  0  0  0  0
  -21.1986   -7.6128   23.9713 H   0  0  0  0  0  0
  -21.1476   -6.0507   25.9083 H   0  0  0  0  0  0
  -22.0604   -2.7585   23.2871 H   0  0  0  0  0  0
  -22.3960  -11.9917   22.4853 H   0  0  0  0  0  0
  -21.1027  -13.1342   22.2590 H   0  0  0  0  0  0
  -24.6638  -15.8375   20.5230 H   0  0  0  0  0  0
  -26.2903  -15.6157   20.1204 H   0  0  0  0  0  0
  -26.7154  -32.5469   23.1104 H   0  0  0  0  0  0
  -25.0071  -33.9734   25.0434 H   0  0  0  0  0  0
  -22.7103  -31.3005   21.3993 H   0  0  0  0  0  0
  -23.3804  -35.9557   23.3124 H   0  0  0  0  0  0
  -24.3637  -36.9071   22.2069 H   0  0  0  0  0  0
  -23.7147  -37.6405   23.6736 H   0  0  0  0  0  0
  -26.0800  -31.5533   20.5997 H   0  0  0  0  0  0
  -26.8374  -30.8521   21.9982 H   0  0  0  0  0  0
  -28.1090  -28.9933   21.2107 H   0  0  0  0  0  0
  -26.0348  -25.9311   19.0005 H   0  0  0  0  0  0
  -23.9871  -27.2991   19.0042 H   0  0  0  0  0  0
  -23.7536  -30.5862   19.4011 H   0  0  0  0  0  0
  -22.7557  -29.2390   19.8576 H   0  0  0  0  0  0
  -25.1237  -36.1899   25.0808 H   0  0  0  0  0  0
  -20.9972  -28.3246   24.1411 H   0  0  0  0  0  0
  -20.5672  -26.2275   23.3597 H   0  0  0  0  0  0
  -21.6647  -26.7435   22.1202 H   0  0  0  0  0  0
  -19.6915  -25.6296   21.1223 H   0  0  0  0  0  0
  -19.6683  -27.3195   20.6737 H   0  0  0  0  0  0
  -17.4192  -26.6646   21.4038 H   0  0  0  0  0  0
  -18.0351  -26.0070   22.9029 H   0  0  0  0  0  0
  -19.7935  -30.7253   24.2289 H   0  0  0  0  0  0
  -17.5012  -31.6263   24.5154 H   0  0  0  0  0  0
  -15.5352  -30.2981   23.7646 H   0  0  0  0  0  0
  -15.8669  -28.0812   22.7065 H   0  0  0  0  0  0
  -24.5902  -30.7078   25.7794 H   0  0  0  0  0  0
  -24.8940  -32.2892   26.4893 H   0  0  0  0  0  0
  -25.8071  -30.8895   27.0223 H   0  0  0  0  0  0
  -26.2872  -29.6766   24.1192 H   0  0  0  0  0  0
  -27.4051  -29.7260   25.4631 H   0  0  0  0  0  0
  -27.8730  -30.4303   23.9333 H   0  0  0  0  0  0
  -27.2715  -33.3614   26.2043 H   0  0  0  0  0  0
  -28.3887  -32.6820   25.0290 H   0  0  0  0  0  0
  -28.0730  -31.8413   26.5391 H   0  0  0  0  0  0
  -28.2405  -38.0249   24.7819 H   0  0  0  0  0  0
  -28.1339  -36.2826   24.5760 H   0  0  0  0  0  0
  -27.2413  -37.0791   25.8801 H   0  0  0  0  0  0
  -20.9354  -29.8759   21.6904 H   0  0  0  0  0  0
  -26.0109  -38.2819   24.1711 H   0  0  0  0  0  0
  -30.3564  -16.6542   17.1814 H   0  0  0  0  0  0
  -29.1281  -17.8085   17.6890 H   0  0  0  0  0  0
  -30.9680  -18.7856   18.8391 H   0  0  0  0  0  0
  -31.8393  -17.2682   18.8473 H   0  0  0  0  0  0
  -29.1411  -15.0968   18.3063 H   0  0  0  0  0  0
  -28.1208  -16.2848   19.0606 H   0  0  0  0  0  0
  -31.1401  -17.3464   21.1076 H   0  0  0  0  0  0
  -25.7359  -21.8278   21.5218 H   0  0  0  0  0  0
  -25.3991  -23.4392   22.1360 H   0  0  0  0  0  0
  -26.4716  -22.3705   23.0390 H   0  0  0  0  0  0
  -30.7190  -25.8848   19.2767 H   0  0  0  0  0  0
  -30.3955  -24.6963   18.0133 H   0  0  0  0  0  0
  -31.5074  -24.3115   19.3319 H   0  0  0  0  0  0
  -27.5028  -20.4482   20.3750 H   0  0  0  0  0  0
  -28.0040  -20.6084   22.0328 H   0  0  0  0  0  0
  -28.9151  -18.1460   21.8802 H   0  0  0  0  0  0
  -28.2908  -18.2025   20.2676 H   0  0  0  0  0  0
  -30.2326  -20.1049   21.4014 H   0  0  0  0  0  0
  -29.8334  -20.0773   19.8297 H   0  0  0  0  0  0
  1 25  1  0  0  0
  1 30  2  0  0  0
  1 85  1  0  0  0
  2  3  1  0  0  0
  2 25  1  0  0  0
  2 87  1  0  0  0
  2 88  1  0  0  0
  3  4  1  0  0  0
  3 89  1  0  0  0
  3 90  1  0  0  0
  4  5  1  0  0  0
  4 91  1  0  0  0
  4 92  1  0  0  0
  5  6  1  0  0  0
  5 26  1  0  0  0
  5 93  1  0  0  0
  6 25  1  0  0  0
  6 94  1  0  0  0
  6 95  1  0  0  0
  7  8  2  0  0  0
  7 26  1  0  0  0
  7 29  1  0  0  0
  8  9  1  0  0  0
  8 22  1  0  0  0
  9 10  1  0  0  0
  9 27  2  0  0  0
 10 11  2  0  0  0
 10 15  1  0  0  0
 11 12  1  0  0  0
 11 96  1  0  0  0
 12 13  2  0  0  0
 12 97  1  0  0  0
 13 14  1  0  0  0
 13 31  1  0  0  0
 14 15  2  0  0  0
 14 98  1  0  0  0
 15 99  1  0  0  0
 16 17  2  0  0  0
 16 21  1  0  0  0
 16 31  1  0  0  0
 17 18  1  0  0  0
 17100  1  0  0  0
 18 19  2  0  0  0
 18101  1  0  0  0
 19 20  1  0  0  0
 19 24  1  0  0  0
 20 21  2  0  0  0
 20102  1  0  0  0
 21 23  1  0  0  0
 22 28  1  0  0  0
 22 32  2  0  0  0
 26 27  1  0  0  0
 28103  1  0  0  0
 28104  1  0  0  0
 29105  1  0  0  0
 29106  1  0  0  0
 33 34  1  0  0  0
 33 66  1  0  0  0
 33 70  2  0  0  0
 34 36  1  0  0  0
 34 59  1  0  0  0
 34107  1  0  0  0
 35 44  2  0  0  0
 35 45  1  0  0  0
 35 68  1  0  0  0
 36 56  1  0  0  0
 36108  1  0  0  0
 37 39  1  0  0  0
 37 47  1  0  0  0
 37 66  1  0  0  0
 37109  1  0  0  0
 38 43  2  0  0  0
 38 46  1  0  0  0
 38 47  1  0  0  0
 39 64  1  0  0  0
 39 67  2  0  0  0
 40 52  1  0  0  0
 40 53  2  0  0  0
 40 58  1  0  0  0
 41110  1  0  0  0
 41111  1  0  0  0
 41112  1  0  0  0
 41 48  1  0  0  0
 42 43  1  0  0  0
 42 66  1  0  0  0
 42113  1  0  0  0
 42114  1  0  0  0
 43 44  1  0  0  0
 44115  1  0  0  0
 45 46  2  0  0  0
 45116  1  0  0  0
 46117  1  0  0  0
 47118  1  0  0  0
 47119  1  0  0  0
 48 56  1  0  0  0
 48 65  1  0  0  0
 48120  1  0  0  0
 49 50  1  0  0  0
 49 53  1  0  0  0
 49 64  1  0  0  0
 49121  1  0  0  0
 50 51  1  0  0  0
 50122  1  0  0  0
 50123  1  0  0  0
 51 52  1  0  0  0
 51124  1  0  0  0
 51125  1  0  0  0
 52126  1  0  0  0
 52127  1  0  0  0
 53 54  1  0  0  0
 54 55  2  0  0  0
 54128  1  0  0  0
 55 57  1  0  0  0
 55129  1  0  0  0
 56 69  2  0  0  0
 57 58  2  0  0  0
 57130  1  0  0  0
 58131  1  0  0  0
 59 60  1  0  0  0
 59 61  1  0  0  0
 59 62  1  0  0  0
 60132  1  0  0  0
 60133  1  0  0  0
 60134  1  0  0  0
 61135  1  0  0  0
 61136  1  0  0  0
 61137  1  0  0  0
 62138  1  0  0  0
 62139  1  0  0  0
 62140  1  0  0  0
 63 65  1  0  0  0
 63141  1  0  0  0
 63142  1  0  0  0
 63143  1  0  0  0
 64144  1  0  0  0
 65145  1  0  0  0
 68 74  1  0  0  0
 71 72  2  0  0  0
 71 79  1  0  0  0
 71 84  1  0  0  0
 72 81  1  0  0  0
 72 83  1  0  0  0
 73 74  1  0  0  0
 73 80  1  0  0  0
 73 83  2  0  0  0
 74 84  2  0  0  0
 75 76  1  0  0  0
 75 77  1  0  0  0
 75146  1  0  0  0
 75147  1  0  0  0
 76 78  1  0  0  0
 76148  1  0  0  0
 76149  1  0  0  0
 77 85  1  0  0  0
 77150  1  0  0  0
 77151  1  0  0  0
 78 82  1  0  0  0
 78 85  1  0  0  0
 78152  1  0  0  0
 79153  1  0  0  0
 79154  1  0  0  0
 79155  1  0  0  0
 80156  1  0  0  0
 80157  1  0  0  0
 80158  1  0  0  0
 81 86  1  0  0  0
 81159  1  0  0  0
 81160  1  0  0  0
 82 86  1  0  0  0
 82161  1  0  0  0
 82162  1  0  0  0
 86163  1  0  0  0
 86164  1  0  0  0
M  CHG  1  86   1
M  ISO  4   1 100  68 101  74 101  85 100
M  END
> <chiral flag>
0

> <version>
0

> <s_m_source_file>
/data/baiqing/PycharmProjects/Reinvent-master-3.2/result/LINK_invent/BTK/process_docking_weight1_custom_sum_contain_oxygen_bond_distance_aromatic_linkinvent_7_9_3/rearranged_h_0185.sdf

> <i_m_source_file_index>
83

> <r_mmod_Potential_Energy-OPLS-2005>
195.687835693359

> <r_mmod_Stretch_Energy-OPLS-2005>
91.598030090332

> <r_mmod_Bend_Energy-OPLS-2005>
178.425170898438

> <r_mmod_Torsional_Energy-OPLS-2005>
361.745086669922

> <r_mmod_Improper_Torsional_Energy-OPLS-2005>
12.775447845459

> <r_mmod_Van_der_Waal_Energy-OPLS-2005>
151.875106811523

> <r_mmod_Electrostatic_Energy-OPLS-2005>
-209.893615722656

> <r_mmod_Solvation_Energy-OPLS-2005>
-466.440185546875

> <b_mmod_Minimization_Converged-OPLS-2005>
0

> <r_mmod_RMS_Derivative-OPLS-2005>
1.54187881946564

$$$$
83
                    3D
 Structure written by MMmdl.
157166  0  0  1  0            999 V2000
  -30.3319  -15.5195   20.3708 C   0  0  0  0  0  0
  -30.4376  -13.0027   19.5243 C   0  0  0  0  0  0
  -29.5424  -12.6411   18.3050 C   0  0  0  0  0  0
  -28.1066  -12.3077   18.7436 C   0  0  0  0  0  0
  -27.6068  -13.2912   19.8283 C   0  0  2  0  0  0
  -28.6445  -13.5153   20.9520 C   0  0  0  0  0  0
  -25.2327  -13.8239   20.5725 C   0  0  0  0  0  0
  -24.1724  -13.0413   20.9289 C   0  0  0  0  0  0
  -24.6414  -11.6922   20.8786 C   0  0  0  0  0  0
  -23.9110  -10.4280   21.0410 C   0  0  0  0  0  0
  -24.3645   -9.4189   21.9185 C   0  0  0  0  0  0
  -23.6305   -8.2232   22.0755 C   0  0  0  0  0  0
  -22.4286   -8.0280   21.3543 C   0  0  0  0  0  0
  -21.9934   -9.0258   20.4644 C   0  0  0  0  0  0
  -22.7280  -10.2127   20.3053 C   0  0  0  0  0  0
  -21.6854   -6.0734   22.5278 C   0  0  0  0  0  0
  -21.4018   -6.5639   23.8213 C   0  0  0  0  0  0
  -21.3663   -5.6791   24.9175 C   0  0  0  0  0  0
  -21.6042   -4.3055   24.7226 C   0  0  0  0  0  0
  -21.8818   -3.8146   23.4349 C   0  0  0  0  0  0
  -21.9191   -4.6961   22.3403 C   0  0  0  0  0  0
  -22.7736  -13.5157   21.1915 C   0  0  0  0  0  0
  -22.1658   -4.2148   21.0979 F   0  0  0  0  0  0
  -21.5627   -3.4538   25.7737 F   0  0  0  0  0  0
  -29.8168  -14.1573   20.3088 N   0  0  0  0  0  0
  -26.2806  -12.9559   20.3273 N   0  0  0  0  0  0
  -25.9363  -11.6649   20.5757 N   0  0  0  0  0  0
  -22.0395  -12.8141   22.0469 N   0  0  0  0  0  0
  -25.3826  -15.1963   20.3982 N   0  0  0  0  0  0
  -31.5547  -15.4921   20.1361 O   0  0  0  0  0  0
  -21.6643   -6.8878   21.4240 O   0  0  0  0  0  0
  -22.3422  -14.5458   20.6745 O   0  0  0  0  0  0
  -24.6775  -31.8065   23.1561 C   0  0  0  0  0  0
  -25.9384  -32.4504   23.8089 C   0  0  1  0  0  0
  -27.2299  -26.7723   20.2048 C   0  0  0  0  0  0
  -25.5989  -33.8324   24.1986 N   0  0  0  0  0  0
  -23.5007  -30.4099   21.5085 C   0  0  2  0  0  0
  -24.9584  -28.7635   20.1159 C   0  0  0  0  0  0
  -22.7741  -29.4339   22.4728 C   0  0  0  0  0  0
  -18.0334  -28.1416   22.8456 C   0  0  0  0  0  0
  -24.1496  -36.7172   23.2650 C   0  0  0  0  0  0
  -26.0776  -30.5631   21.4082 C   0  0  0  0  0  0
  -26.1455  -29.1346   20.7586 C   0  0  0  0  0  0
  -27.2689  -28.1648   20.7712 C   0  0  0  0  0  0
  -26.0104  -26.5914   19.5081 C   0  0  0  0  0  0
  -24.9257  -27.5167   19.4672 C   0  0  0  0  0  0
  -23.7510  -29.7104   20.1415 C   0  0  0  0  0  0
  -25.4141  -36.2919   24.0289 C   0  0  1  0  0  0
  -20.5967  -28.3770   23.1158 C   0  0  2  0  0  0
  -20.6800  -26.9436   22.5403 C   0  0  0  0  0  0
  -19.5776  -26.6371   21.5214 C   0  0  0  0  0  0
  -18.1959  -26.7946   22.1618 C   0  0  0  0  0  0
  -19.1600  -28.8917   23.2790 C   0  0  0  0  0  0
  -18.9504  -30.1500   23.8835 C   0  0  0  0  0  0
  -17.6494  -30.6600   24.0550 C   0  0  0  0  0  0
  -25.9115  -34.9306   23.4972 C   0  0  0  0  0  0
  -16.5384  -29.9084   23.6343 C   0  0  0  0  0  0
  -16.7314  -28.6506   23.0363 C   0  0  0  0  0  0
  -26.4582  -31.6510   25.0680 C   0  0  0  0  0  0
  -25.3668  -31.3800   26.1309 C   0  0  0  0  0  0
  -27.0499  -30.2860   24.6517 C   0  0  0  0  0  0
  -27.6050  -32.4349   25.7490 C   0  0  0  0  0  0
  -27.5565  -37.1744   24.8467 C   0  0  0  0  0  0
  -21.4391  -29.3033   22.3491 N   0  0  0  0  0  0
  -26.4273  -37.3672   23.9411 N   0  0  0  0  0  0
  -24.7748  -30.9579   22.0772 N   0  0  0  0  0  0
  -23.4219  -28.7931   23.3038 O   0  0  0  0  0  0
  -28.2127  -25.5952   20.2885 O   0  0  0  0  0  0
  -26.5744  -34.8870   22.4580 O   0  0  0  0  0  0
  -23.5807  -32.1101   23.6558 O   0  0  0  0  0  0
  -28.4597  -16.8964   21.3905 C   0  0  0  0  0  0
  -27.0470  -18.9989   21.2672 C   0  0  0  0  0  0
  -28.0536  -18.1094   20.6086 C   0  0  1  0  0  0
  -29.5143  -18.6531   20.4906 C   0  0  1  0  0  0
  -28.6421  -20.3791   20.1578 C   0  0  2  0  0  0
  -24.8477  -20.9830   20.1937 C   0  0  0  0  0  0
  -28.9578  -22.2399   20.3925 C   0  0  0  0  0  0
  -26.2160  -20.6185   19.5928 C   0  0  0  0  0  0
  -28.0257  -23.8845   20.1151 C   0  0  0  0  0  0
  -29.5482  -16.8521   20.4675 N   0  0  0  0  0  0
  -27.2346  -20.2902   20.6281 N   0  3  1  0  0  0
  -31.4297  -13.2676   19.1571 H   0  0  0  0  0  0
  -30.6004  -12.1298   20.1589 H   0  0  0  0  0  0
  -29.9716  -11.8067   17.7487 H   0  0  0  0  0  0
  -29.5194  -13.4882   17.6174 H   0  0  0  0  0  0
  -28.1084  -11.2940   19.1461 H   0  0  0  0  0  0
  -27.4331  -12.2975   17.8859 H   0  0  0  0  0  0
  -27.4983  -14.2443   19.3088 H   0  0  0  0  0  0
  -28.8970  -12.5741   21.4431 H   0  0  0  0  0  0
  -28.2467  -14.1392   21.7482 H   0  0  0  0  0  0
  -25.2783   -9.5663   22.4771 H   0  0  0  0  0  0
  -24.0003   -7.4621   22.7476 H   0  0  0  0  0  0
  -21.0868   -8.8786   19.8946 H   0  0  0  0  0  0
  -22.3742  -10.9669   19.6165 H   0  0  0  0  0  0
  -21.2013   -7.6148   23.9720 H   0  0  0  0  0  0
  -21.1489   -6.0518   25.9079 H   0  0  0  0  0  0
  -22.0593   -2.7607   23.2845 H   0  0  0  0  0  0
  -22.4037  -11.9822   22.4876 H   0  0  0  0  0  0
  -21.0998  -13.1136   22.2658 H   0  0  0  0  0  0
  -24.5815  -15.8154   20.4544 H   0  0  0  0  0  0
  -26.1793  -15.6131   19.9370 H   0  0  0  0  0  0
  -26.7460  -32.4997   23.0802 H   0  0  0  0  0  0
  -25.0072  -33.9375   25.0096 H   0  0  0  0  0  0
  -22.8225  -31.2450   21.3231 H   0  0  0  0  0  0
  -23.3775  -35.9484   23.3264 H   0  0  0  0  0  0
  -24.3566  -36.8874   22.2074 H   0  0  0  0  0  0
  -23.7238  -37.6335   23.6747 H   0  0  0  0  0  0
  -26.2701  -31.2916   20.6196 H   0  0  0  0  0  0
  -26.9330  -30.6314   22.0679 H   0  0  0  0  0  0
  -28.1645  -28.4528   21.3036 H   0  0  0  0  0  0
  -25.8585  -25.6428   19.0131 H   0  0  0  0  0  0
  -24.0282  -27.2251   18.9389 H   0  0  0  0  0  0
  -23.9202  -30.4721   19.3798 H   0  0  0  0  0  0
  -22.8577  -29.1725   19.8193 H   0  0  0  0  0  0
  -25.1347  -36.1693   25.0779 H   0  0  0  0  0  0
  -21.0048  -28.3387   24.1284 H   0  0  0  0  0  0
  -20.5666  -26.2390   23.3657 H   0  0  0  0  0  0
  -21.6662  -26.7384   22.1218 H   0  0  0  0  0  0
  -19.6931  -25.6265   21.1284 H   0  0  0  0  0  0
  -19.6721  -27.3147   20.6718 H   0  0  0  0  0  0
  -17.4228  -26.6688   21.4022 H   0  0  0  0  0  0
  -18.0349  -26.0105   22.9031 H   0  0  0  0  0  0
  -19.7979  -30.7331   24.2180 H   0  0  0  0  0  0
  -17.5045  -31.6274   24.5164 H   0  0  0  0  0  0
  -15.5382  -30.2967   23.7702 H   0  0  0  0  0  0
  -15.8714  -28.0802   22.7115 H   0  0  0  0  0  0
  -24.5885  -30.7113   25.7613 H   0  0  0  0  0  0
  -24.8816  -32.3008   26.4557 H   0  0  0  0  0  0
  -25.7865  -30.9086   27.0206 H   0  0  0  0  0  0
  -26.3196  -29.6500   24.1504 H   0  0  0  0  0  0
  -27.3958  -29.7272   25.5225 H   0  0  0  0  0  0
  -27.9164  -30.4009   24.0002 H   0  0  0  0  0  0
  -27.2613  -33.3720   26.1882 H   0  0  0  0  0  0
  -28.3954  -32.6797   25.0382 H   0  0  0  0  0  0
  -28.0615  -31.8599   26.5558 H   0  0  0  0  0  0
  -28.2555  -38.0065   24.7515 H   0  0  0  0  0  0
  -28.1089  -36.2589   24.6293 H   0  0  0  0  0  0
  -27.2281  -37.1380   25.8868 H   0  0  0  0  0  0
  -20.9682  -29.8707   21.6582 H   0  0  0  0  0  0
  -26.0108  -38.2723   24.1422 H   0  0  0  0  0  0
  -27.7142  -16.1131   21.3099 H   0  0  0  0  0  0
  -28.7504  -17.0880   22.4257 H   0  0  0  0  0  0
  -27.2580  -19.1037   22.3322 H   0  0  0  0  0  0
  -26.0333  -18.6096   21.1749 H   0  0  0  0  0  0
  -27.6755  -17.8391   19.6133 H   0  0  0  0  0  0
  -30.0802  -18.7099   19.5597 H   0  0  0  0  0  0
  -28.5791  -20.3552   19.0682 H   0  0  0  0  0  0
  -24.1496  -21.2607   19.4036 H   0  0  0  0  0  0
  -24.9221  -21.8320   20.8742 H   0  0  0  0  0  0
  -24.4002  -20.1520   20.7378 H   0  0  0  0  0  0
  -29.8994  -22.3950   19.8661 H   0  0  0  0  0  0
  -29.2475  -22.3049   21.4413 H   0  0  0  0  0  0
  -26.5555  -21.4749   19.0089 H   0  0  0  0  0  0
  -26.1158  -19.7920   18.8878 H   0  0  0  0  0  0
  -27.0930  -23.7223   20.6553 H   0  0  0  0  0  0
  -27.7273  -23.8149   19.0691 H   0  0  0  0  0  0
  -27.1358  -20.9762   21.3611 H   0  0  0  0  0  0
  1 25  1  0  0  0
  1 30  2  0  0  0
  1 80  1  0  0  0
  2  3  1  0  0  0
  2 25  1  0  0  0
  2 82  1  0  0  0
  2 83  1  0  0  0
  3  4  1  0  0  0
  3 84  1  0  0  0
  3 85  1  0  0  0
  4  5  1  0  0  0
  4 86  1  0  0  0
  4 87  1  0  0  0
  5  6  1  0  0  0
  5 26  1  0  0  0
  5 88  1  0  0  0
  6 25  1  0  0  0
  6 89  1  0  0  0
  6 90  1  0  0  0
  7  8  2  0  0  0
  7 26  1  0  0  0
  7 29  1  0  0  0
  8  9  1  0  0  0
  8 22  1  0  0  0
  9 10  1  0  0  0
  9 27  2  0  0  0
 10 11  2  0  0  0
 10 15  1  0  0  0
 11 12  1  0  0  0
 11 91  1  0  0  0
 12 13  2  0  0  0
 12 92  1  0  0  0
 13 14  1  0  0  0
 13 31  1  0  0  0
 14 15  2  0  0  0
 14 93  1  0  0  0
 15 94  1  0  0  0
 16 17  2  0  0  0
 16 21  1  0  0  0
 16 31  1  0  0  0
 17 18  1  0  0  0
 17 95  1  0  0  0
 18 19  2  0  0  0
 18 96  1  0  0  0
 19 20  1  0  0  0
 19 24  1  0  0  0
 20 21  2  0  0  0
 20 97  1  0  0  0
 21 23  1  0  0  0
 22 28  1  0  0  0
 22 32  2  0  0  0
 26 27  1  0  0  0
 28 98  1  0  0  0
 28 99  1  0  0  0
 29100  1  0  0  0
 29101  1  0  0  0
 33 34  1  0  0  0
 33 66  1  0  0  0
 33 70  2  0  0  0
 34 36  1  0  0  0
 34 59  1  0  0  0
 34102  1  0  0  0
 35 44  2  0  0  0
 35 45  1  0  0  0
 35 68  1  0  0  0
 36 56  1  0  0  0
 36103  1  0  0  0
 37 39  1  0  0  0
 37 47  1  0  0  0
 37 66  1  0  0  0
 37104  1  0  0  0
 38 43  2  0  0  0
 38 46  1  0  0  0
 38 47  1  0  0  0
 39 64  1  0  0  0
 39 67  2  0  0  0
 40 52  1  0  0  0
 40 53  2  0  0  0
 40 58  1  0  0  0
 41105  1  0  0  0
 41106  1  0  0  0
 41107  1  0  0  0
 41 48  1  0  0  0
 42 43  1  0  0  0
 42 66  1  0  0  0
 42108  1  0  0  0
 42109  1  0  0  0
 43 44  1  0  0  0
 44110  1  0  0  0
 45 46  2  0  0  0
 45111  1  0  0  0
 46112  1  0  0  0
 47113  1  0  0  0
 47114  1  0  0  0
 48 56  1  0  0  0
 48 65  1  0  0  0
 48115  1  0  0  0
 49 50  1  0  0  0
 49 53  1  0  0  0
 49 64  1  0  0  0
 49116  1  0  0  0
 50 51  1  0  0  0
 50117  1  0  0  0
 50118  1  0  0  0
 51 52  1  0  0  0
 51119  1  0  0  0
 51120  1  0  0  0
 52121  1  0  0  0
 52122  1  0  0  0
 53 54  1  0  0  0
 54 55  2  0  0  0
 54123  1  0  0  0
 55 57  1  0  0  0
 55124  1  0  0  0
 56 69  2  0  0  0
 57 58  2  0  0  0
 57125  1  0  0  0
 58126  1  0  0  0
 59 60  1  0  0  0
 59 61  1  0  0  0
 59 62  1  0  0  0
 60127  1  0  0  0
 60128  1  0  0  0
 60129  1  0  0  0
 61130  1  0  0  0
 61131  1  0  0  0
 61132  1  0  0  0
 62133  1  0  0  0
 62134  1  0  0  0
 62135  1  0  0  0
 63 65  1  0  0  0
 63136  1  0  0  0
 63137  1  0  0  0
 63138  1  0  0  0
 64139  1  0  0  0
 65140  1  0  0  0
 68 79  1  0  0  0
 71 80  1  0  0  0
 71141  1  0  0  0
 71142  1  0  0  0
 71 73  1  0  0  0
 72 73  1  0  0  0
 72 81  1  0  0  0
 72143  1  0  0  0
 72144  1  0  0  0
 73 74  1  0  0  0
 73145  1  0  0  0
 74 75  1  0  0  0
 74 80  1  0  0  0
 74146  1  0  0  0
 75 77  1  0  0  0
 75 81  1  0  0  0
 75147  1  0  0  0
 76 78  1  0  0  0
 76148  1  0  0  0
 76149  1  0  0  0
 76150  1  0  0  0
 77 79  1  0  0  0
 77151  1  0  0  0
 77152  1  0  0  0
 78153  1  0  0  0
 78154  1  0  0  0
 78 81  1  0  0  0
 79155  1  0  0  0
 79156  1  0  0  0
 81157  1  0  0  0
M  CHG  1  81   1
M  ISO  4   1 100  68 101  79 101  80 100
M  END
> <chiral flag>
0

> <version>
0

> <s_m_source_file>
/data/baiqing/PycharmProjects/Reinvent-master-3.2/result/LINK_invent/BTK/process_docking_weight1_custom_sum_contain_oxygen_bond_distance_aromatic_linkinvent_7_9_3/rearranged_h_0185.sdf

> <i_m_source_file_index>
84

> <r_mmod_Potential_Energy-OPLS-2005>
2597.48779296875

> <r_mmod_Stretch_Energy-OPLS-2005>
1117.91125488281

> <r_mmod_Bend_Energy-OPLS-2005>
925.266174316406

> <r_mmod_Torsional_Energy-OPLS-2005>
370.280578613281

> <r_mmod_Improper_Torsional_Energy-OPLS-2005>
8.73155117034912

> <r_mmod_Van_der_Waal_Energy-OPLS-2005>
113.20947265625

> <r_mmod_Electrostatic_Energy-OPLS-2005>
-200.692825317383

> <r_mmod_Solvation_Energy-OPLS-2005>
-474.012298583984

> <b_mmod_Minimization_Converged-OPLS-2005>
0

> <r_mmod_RMS_Derivative-OPLS-2005>
0.796627163887024

$$$$
84
                    3D
 Structure written by MMmdl.
162171  0  0  1  0            999 V2000
  -30.7282  -14.4328   20.6039 C   0  0  0  0  0  0
  -30.4162  -12.2944   19.4140 C   0  0  0  0  0  0
  -29.4908  -12.5228   18.2010 C   0  0  0  0  0  0
  -28.0098  -12.3863   18.6084 C   0  0  0  0  0  0
  -27.6627  -13.2069   19.8792 C   0  0  2  0  0  0
  -28.7022  -12.9485   20.9907 C   0  0  0  0  0  0
  -25.2596  -13.8174   20.5682 C   0  0  0  0  0  0
  -24.1834  -13.0447   20.9161 C   0  0  0  0  0  0
  -24.6386  -11.6913   20.8722 C   0  0  0  0  0  0
  -23.9051  -10.4299   21.0400 C   0  0  0  0  0  0
  -24.3603   -9.4223   21.9188 C   0  0  0  0  0  0
  -23.6284   -8.2252   22.0756 C   0  0  0  0  0  0
  -22.4268   -8.0280   21.3545 C   0  0  0  0  0  0
  -21.9895   -9.0250   20.4647 C   0  0  0  0  0  0
  -22.7222  -10.2134   20.3055 C   0  0  0  0  0  0
  -21.6850   -6.0738   22.5277 C   0  0  0  0  0  0
  -21.4009   -6.5640   23.8211 C   0  0  0  0  0  0
  -21.3659   -5.6786   24.9169 C   0  0  0  0  0  0
  -21.6035   -4.3049   24.7216 C   0  0  0  0  0  0
  -21.8818   -3.8147   23.4335 C   0  0  0  0  0  0
  -21.9194   -4.6967   22.3395 C   0  0  0  0  0  0
  -22.7863  -13.5250   21.1835 C   0  0  0  0  0  0
  -22.1668   -4.2160   21.0969 F   0  0  0  0  0  0
  -21.5623   -3.4532   25.7728 F   0  0  0  0  0  0
  -30.0342  -13.2686   20.4508 N   0  0  0  0  0  0
  -26.3023  -12.9334   20.3380 N   0  0  0  0  0  0
  -25.9309  -11.6494   20.5746 N   0  0  0  0  0  0
  -22.0495  -12.8233   22.0377 N   0  0  0  0  0  0
  -25.4359  -15.1887   20.4104 N   0  0  0  0  0  0
  -31.8396  -14.5973   20.0882 O   0  0  0  0  0  0
  -21.6625   -6.8880   21.4239 O   0  0  0  0  0  0
  -22.3560  -14.5580   20.6727 O   0  0  0  0  0  0
  -24.6102  -31.8704   23.2128 C   0  0  0  0  0  0
  -25.9010  -32.4832   23.8419 C   0  0  1  0  0  0
  -27.2461  -27.4667   20.0991 C   0  0  0  0  0  0
  -25.5886  -33.8636   24.2351 N   0  0  0  0  0  0
  -23.3977  -30.4930   21.5503 C   0  0  2  0  0  0
  -24.8498  -28.9626   20.1182 C   0  0  0  0  0  0
  -22.7380  -29.4671   22.4996 C   0  0  0  0  0  0
  -18.0267  -28.1388   22.8497 C   0  0  0  0  0  0
  -24.1481  -36.7314   23.2627 C   0  0  0  0  0  0
  -25.9224  -30.8459   21.3636 C   0  0  0  0  0  0
  -26.0043  -29.4796   20.7199 C   0  0  0  0  0  0
  -27.2055  -28.7380   20.7172 C   0  0  0  0  0  0
  -26.0799  -26.9636   19.4885 C   0  0  0  0  0  0
  -24.8800  -27.6996   19.5016 C   0  0  0  0  0  0
  -23.6071  -29.8226   20.1658 C   0  0  0  0  0  0
  -25.4094  -36.3121   24.0345 C   0  0  1  0  0  0
  -20.5852  -28.3668   23.1334 C   0  0  2  0  0  0
  -20.6750  -26.9399   22.5447 C   0  0  0  0  0  0
  -19.5742  -26.6396   21.5225 C   0  0  0  0  0  0
  -18.1908  -26.7947   22.1593 C   0  0  0  0  0  0
  -19.1515  -28.8841   23.2916 C   0  0  0  0  0  0
  -18.9443  -30.1447   23.8935 C   0  0  0  0  0  0
  -17.6447  -30.6583   24.0584 C   0  0  0  0  0  0
  -25.9034  -34.9488   23.5150 C   0  0  0  0  0  0
  -16.5342  -29.9092   23.6339 C   0  0  0  0  0  0
  -16.7260  -28.6512   23.0350 C   0  0  0  0  0  0
  -26.4451  -31.6598   25.0732 C   0  0  0  0  0  0
  -25.3737  -31.3695   26.1497 C   0  0  0  0  0  0
  -27.0263  -30.3033   24.6089 C   0  0  0  0  0  0
  -27.6053  -32.4300   25.7467 C   0  0  0  0  0  0
  -27.5615  -37.1766   24.8424 C   0  0  0  0  0  0
  -21.4112  -29.3036   22.3735 N   0  0  0  0  0  0
  -26.4260  -37.3832   23.9473 N   0  0  0  0  0  0
  -24.6608  -31.0836   22.1010 N   0  0  0  0  0  0
  -23.4165  -28.8224   23.3032 O   0  0  0  0  0  0
  -28.3719  -26.6799   20.0302 O   0  0  0  0  0  0
  -26.5608  -34.8932   22.4717 O   0  0  0  0  0  0
  -23.5309  -32.1433   23.7553 O   0  0  0  0  0  0
  -30.9148  -22.5654   21.4537 C   0  0  0  0  0  0
  -29.5620  -22.9719   21.5145 C   0  0  0  0  0  0
  -28.6275  -21.9126   21.5768 C   0  0  0  0  0  0
  -30.3080  -20.3742   21.4977 C   0  0  0  0  0  0
  -30.0632  -17.1099   22.8402 C   0  0  0  0  0  0
  -29.6723  -15.6786   22.4737 C   0  0  0  0  0  0
  -30.2181  -16.8356   20.4622 C   0  0  0  0  0  0
  -29.8787  -17.8754   21.5367 C   0  0  2  0  0  0
  -27.1338  -22.1639   21.6460 C   0  0  0  0  0  0
  -30.0514  -25.4075   21.1649 C   0  0  0  0  0  0
  -29.3108  -26.7582   21.0967 C   0  0  0  0  0  0
  -31.2781  -21.2664   21.4430 N   0  0  0  0  0  0
  -29.0104  -20.6211   21.5672 N   0  0  0  0  0  0
  -30.0295  -15.5022   21.0614 N   0  0  0  0  0  0
  -29.1380  -24.3172   21.5115 N   0  0  0  0  0  0
  -30.7235  -19.0653   21.4595 N   0  0  0  0  0  0
  -31.4625  -12.3792   19.1148 H   0  0  0  0  0  0
  -30.3030  -11.2778   19.7947 H   0  0  0  0  0  0
  -29.7270  -11.8161   17.4045 H   0  0  0  0  0  0
  -29.6648  -13.5180   17.7881 H   0  0  0  0  0  0
  -27.8081  -11.3291   18.7845 H   0  0  0  0  0  0
  -27.3637  -12.6847   17.7820 H   0  0  0  0  0  0
  -27.7174  -14.2610   19.6069 H   0  0  0  0  0  0
  -28.6756  -11.8987   21.2864 H   0  0  0  0  0  0
  -28.4539  -13.4952   21.8953 H   0  0  0  0  0  0
  -25.2751   -9.5699   22.4765 H   0  0  0  0  0  0
  -23.9997   -7.4648   22.7477 H   0  0  0  0  0  0
  -21.0826   -8.8768   19.8955 H   0  0  0  0  0  0
  -22.3691  -10.9665   19.6159 H   0  0  0  0  0  0
  -21.2002   -7.6152   23.9722 H   0  0  0  0  0  0
  -21.1476   -6.0509   25.9070 H   0  0  0  0  0  0
  -22.0596   -2.7608   23.2825 H   0  0  0  0  0  0
  -22.4091  -11.9870   22.4731 H   0  0  0  0  0  0
  -21.1123  -13.1283   22.2602 H   0  0  0  0  0  0
  -24.6764  -15.8518   20.5181 H   0  0  0  0  0  0
  -26.3017  -15.6227   20.1148 H   0  0  0  0  0  0
  -26.7082  -32.5572   23.1194 H   0  0  0  0  0  0
  -25.0061  -33.9816   25.0510 H   0  0  0  0  0  0
  -22.6857  -31.3087   21.4099 H   0  0  0  0  0  0
  -23.3794  -35.9584   23.3155 H   0  0  0  0  0  0
  -24.3623  -36.9073   22.2072 H   0  0  0  0  0  0
  -23.7130  -37.6428   23.6734 H   0  0  0  0  0  0
  -26.0298  -31.6076   20.5899 H   0  0  0  0  0  0
  -26.8120  -30.9063   21.9789 H   0  0  0  0  0  0
  -28.0927  -29.1534   21.1739 H   0  0  0  0  0  0
  -26.1028  -25.9954   19.0078 H   0  0  0  0  0  0
  -23.9939  -27.2962   19.0307 H   0  0  0  0  0  0
  -23.7070  -30.5945   19.4024 H   0  0  0  0  0  0
  -22.7344  -29.2355   19.8748 H   0  0  0  0  0  0
  -25.1245  -36.1970   25.0830 H   0  0  0  0  0  0
  -20.9953  -28.3247   24.1447 H   0  0  0  0  0  0
  -20.5633  -26.2284   23.3642 H   0  0  0  0  0  0
  -21.6632  -26.7430   22.1258 H   0  0  0  0  0  0
  -19.6905  -25.6308   21.1254 H   0  0  0  0  0  0
  -19.6713  -27.3219   20.6764 H   0  0  0  0  0  0
  -17.4206  -26.6765   21.3953 H   0  0  0  0  0  0
  -18.0239  -26.0059   22.8936 H   0  0  0  0  0  0
  -19.7915  -30.7271   24.2306 H   0  0  0  0  0  0
  -17.4991  -31.6265   24.5178 H   0  0  0  0  0  0
  -15.5344  -30.3007   23.7635 H   0  0  0  0  0  0
  -15.8651  -28.0852   22.7042 H   0  0  0  0  0  0
  -24.5978  -30.6939   25.7879 H   0  0  0  0  0  0
  -24.8844  -32.2830   26.4876 H   0  0  0  0  0  0
  -25.8131  -30.8969   27.0288 H   0  0  0  0  0  0
  -26.2789  -29.6801   24.1159 H   0  0  0  0  0  0
  -27.4030  -29.7262   25.4545 H   0  0  0  0  0  0
  -27.8629  -30.4333   23.9220 H   0  0  0  0  0  0
  -27.2711  -33.3618   26.2036 H   0  0  0  0  0  0
  -28.3852  -32.6820   25.0269 H   0  0  0  0  0  0
  -28.0713  -31.8411   26.5374 H   0  0  0  0  0  0
  -28.2492  -38.0202   24.7707 H   0  0  0  0  0  0
  -28.1247  -36.2763   24.5921 H   0  0  0  0  0  0
  -27.2402  -37.1017   25.8826 H   0  0  0  0  0  0
  -20.9267  -29.8752   21.6953 H   0  0  0  0  0  0
  -26.0136  -38.2867   24.1638 H   0  0  0  0  0  0
  -31.7221  -23.2814   21.4082 H   0  0  0  0  0  0
  -31.1075  -17.1288   23.1556 H   0  0  0  0  0  0
  -29.4613  -17.5161   23.6545 H   0  0  0  0  0  0
  -28.5920  -15.5697   22.5782 H   0  0  0  0  0  0
  -30.1482  -14.9484   23.1307 H   0  0  0  0  0  0
  -31.2463  -16.9720   20.1214 H   0  0  0  0  0  0
  -29.5771  -16.9501   19.5866 H   0  0  0  0  0  0
  -28.8241  -18.1366   21.4357 H   0  0  0  0  0  0
  -26.7771  -22.5678   20.6988 H   0  0  0  0  0  0
  -26.9015  -22.8779   22.4358 H   0  0  0  0  0  0
  -26.5833  -21.2464   21.8536 H   0  0  0  0  0  0
  -30.8441  -25.4730   21.9118 H   0  0  0  0  0  0
  -30.5312  -25.2061   20.2054 H   0  0  0  0  0  0
  -30.0150  -27.5682   20.8999 H   0  0  0  0  0  0
  -28.8276  -26.9656   22.0540 H   0  0  0  0  0  0
  -28.1470  -24.5180   21.3963 H   0  0  0  0  0  0
  -31.7252  -18.9343   21.4086 H   0  0  0  0  0  0
  1 25  1  0  0  0
  1 30  2  0  0  0
  1 84  1  0  0  0
  2  3  1  0  0  0
  2 25  1  0  0  0
  2 87  1  0  0  0
  2 88  1  0  0  0
  3  4  1  0  0  0
  3 89  1  0  0  0
  3 90  1  0  0  0
  4  5  1  0  0  0
  4 91  1  0  0  0
  4 92  1  0  0  0
  5  6  1  0  0  0
  5 26  1  0  0  0
  5 93  1  0  0  0
  6 25  1  0  0  0
  6 94  1  0  0  0
  6 95  1  0  0  0
  7  8  2  0  0  0
  7 26  1  0  0  0
  7 29  1  0  0  0
  8  9  1  0  0  0
  8 22  1  0  0  0
  9 10  1  0  0  0
  9 27  2  0  0  0
 10 11  2  0  0  0
 10 15  1  0  0  0
 11 12  1  0  0  0
 11 96  1  0  0  0
 12 13  2  0  0  0
 12 97  1  0  0  0
 13 14  1  0  0  0
 13 31  1  0  0  0
 14 15  2  0  0  0
 14 98  1  0  0  0
 15 99  1  0  0  0
 16 17  2  0  0  0
 16 21  1  0  0  0
 16 31  1  0  0  0
 17 18  1  0  0  0
 17100  1  0  0  0
 18 19  2  0  0  0
 18101  1  0  0  0
 19 20  1  0  0  0
 19 24  1  0  0  0
 20 21  2  0  0  0
 20102  1  0  0  0
 21 23  1  0  0  0
 22 28  1  0  0  0
 22 32  2  0  0  0
 26 27  1  0  0  0
 28103  1  0  0  0
 28104  1  0  0  0
 29105  1  0  0  0
 29106  1  0  0  0
 33 34  1  0  0  0
 33 66  1  0  0  0
 33 70  2  0  0  0
 34 36  1  0  0  0
 34 59  1  0  0  0
 34107  1  0  0  0
 35 44  2  0  0  0
 35 45  1  0  0  0
 35 68  1  0  0  0
 36 56  1  0  0  0
 36108  1  0  0  0
 37 39  1  0  0  0
 37 47  1  0  0  0
 37 66  1  0  0  0
 37109  1  0  0  0
 38 43  2  0  0  0
 38 46  1  0  0  0
 38 47  1  0  0  0
 39 64  1  0  0  0
 39 67  2  0  0  0
 40 52  1  0  0  0
 40 53  2  0  0  0
 40 58  1  0  0  0
 41110  1  0  0  0
 41111  1  0  0  0
 41112  1  0  0  0
 41 48  1  0  0  0
 42 43  1  0  0  0
 42 66  1  0  0  0
 42113  1  0  0  0
 42114  1  0  0  0
 43 44  1  0  0  0
 44115  1  0  0  0
 45 46  2  0  0  0
 45116  1  0  0  0
 46117  1  0  0  0
 47118  1  0  0  0
 47119  1  0  0  0
 48 56  1  0  0  0
 48 65  1  0  0  0
 48120  1  0  0  0
 49 50  1  0  0  0
 49 53  1  0  0  0
 49 64  1  0  0  0
 49121  1  0  0  0
 50 51  1  0  0  0
 50122  1  0  0  0
 50123  1  0  0  0
 51 52  1  0  0  0
 51124  1  0  0  0
 51125  1  0  0  0
 52126  1  0  0  0
 52127  1  0  0  0
 53 54  1  0  0  0
 54 55  2  0  0  0
 54128  1  0  0  0
 55 57  1  0  0  0
 55129  1  0  0  0
 56 69  2  0  0  0
 57 58  2  0  0  0
 57130  1  0  0  0
 58131  1  0  0  0
 59 60  1  0  0  0
 59 61  1  0  0  0
 59 62  1  0  0  0
 60132  1  0  0  0
 60133  1  0  0  0
 60134  1  0  0  0
 61135  1  0  0  0
 61136  1  0  0  0
 61137  1  0  0  0
 62138  1  0  0  0
 62139  1  0  0  0
 62140  1  0  0  0
 63 65  1  0  0  0
 63141  1  0  0  0
 63142  1  0  0  0
 63143  1  0  0  0
 64144  1  0  0  0
 65145  1  0  0  0
 68 81  1  0  0  0
 71 72  2  0  0  0
 71 82  1  0  0  0
 71146  1  0  0  0
 72 73  1  0  0  0
 72 85  1  0  0  0
 73 79  1  0  0  0
 73 83  2  0  0  0
 74 82  2  0  0  0
 74 83  1  0  0  0
 74 86  1  0  0  0
 75 76  1  0  0  0
 75 78  1  0  0  0
 75147  1  0  0  0
 75148  1  0  0  0
 76 84  1  0  0  0
 76149  1  0  0  0
 76150  1  0  0  0
 77 78  1  0  0  0
 77 84  1  0  0  0
 77151  1  0  0  0
 77152  1  0  0  0
 78 86  1  0  0  0
 78153  1  0  0  0
 79154  1  0  0  0
 79155  1  0  0  0
 79156  1  0  0  0
 80 81  1  0  0  0
 80 85  1  0  0  0
 80157  1  0  0  0
 80158  1  0  0  0
 81159  1  0  0  0
 81160  1  0  0  0
 85161  1  0  0  0
 86162  1  0  0  0
M  ISO  4   1 100  68 101  81 101  84 100
M  END
> <chiral flag>
0

> <version>
0

> <s_m_source_file>
/data/baiqing/PycharmProjects/Reinvent-master-3.2/result/LINK_invent/BTK/process_docking_weight1_custom_sum_contain_oxygen_bond_distance_aromatic_linkinvent_7_9_3/rearranged_h_0185.sdf

> <i_m_source_file_index>
85

> <r_mmod_Potential_Energy-OPLS-2005>
-311.591949462891

> <r_mmod_Stretch_Energy-OPLS-2005>
34.7830200195312

> <r_mmod_Bend_Energy-OPLS-2005>
139.484375

> <r_mmod_Torsional_Energy-OPLS-2005>
309.222961425781

> <r_mmod_Improper_Torsional_Energy-OPLS-2005>
11.8241014480591

> <r_mmod_Van_der_Waal_Energy-OPLS-2005>
165.350234985352

> <r_mmod_Electrostatic_Energy-OPLS-2005>
-748.321044921875

> <r_mmod_Solvation_Energy-OPLS-2005>
-232.839416503906

> <b_mmod_Minimization_Converged-OPLS-2005>
0

> <r_mmod_RMS_Derivative-OPLS-2005>
1.5208557844162

$$$$
85
                    3D
 Structure written by MMmdl.
155164  0  0  1  0            999 V2000
  -30.6460  -14.7631   20.4923 C   0  0  0  0  0  0
  -30.4235  -12.4739   19.4880 C   0  0  0  0  0  0
  -29.5106  -12.5200   18.2444 C   0  0  0  0  0  0
  -28.0370  -12.3461   18.6548 C   0  0  0  0  0  0
  -27.6413  -13.2449   19.8568 C   0  0  2  0  0  0
  -28.6847  -13.2001   20.9956 C   0  0  0  0  0  0
  -25.2498  -13.8224   20.5733 C   0  0  0  0  0  0
  -24.1792  -13.0451   20.9200 C   0  0  0  0  0  0
  -24.6404  -11.6933   20.8746 C   0  0  0  0  0  0
  -23.9083  -10.4302   21.0399 C   0  0  0  0  0  0
  -24.3624   -9.4218   21.9181 C   0  0  0  0  0  0
  -23.6292   -8.2257   22.0754 C   0  0  0  0  0  0
  -22.4272   -8.0293   21.3549 C   0  0  0  0  0  0
  -21.9912   -9.0270   20.4652 C   0  0  0  0  0  0
  -22.7248  -10.2147   20.3058 C   0  0  0  0  0  0
  -21.6861   -6.0737   22.5279 C   0  0  0  0  0  0
  -21.4021   -6.5639   23.8211 C   0  0  0  0  0  0
  -21.3658   -5.6792   24.9172 C   0  0  0  0  0  0
  -21.6043   -4.3054   24.7222 C   0  0  0  0  0  0
  -21.8817   -3.8146   23.4343 C   0  0  0  0  0  0
  -21.9191   -4.6963   22.3401 C   0  0  0  0  0  0
  -22.7808  -13.5227   21.1851 C   0  0  0  0  0  0
  -22.1662   -4.2150   21.0979 F   0  0  0  0  0  0
  -21.5624   -3.4534   25.7733 F   0  0  0  0  0  0
  -29.9853  -13.5519   20.4129 N   0  0  0  0  0  0
  -26.2943  -12.9459   20.3331 N   0  0  0  0  0  0
  -25.9345  -11.6584   20.5770 N   0  0  0  0  0  0
  -22.0459  -12.8218   22.0410 N   0  0  0  0  0  0
  -25.4189  -15.1951   20.4195 N   0  0  0  0  0  0
  -31.8072  -14.8279   20.0741 O   0  0  0  0  0  0
  -21.6644   -6.8885   21.4243 O   0  0  0  0  0  0
  -22.3492  -14.5536   20.6704 O   0  0  0  0  0  0
  -24.6322  -31.8532   23.1990 C   0  0  0  0  0  0
  -25.9147  -32.4746   23.8333 C   0  0  1  0  0  0
  -27.2142  -27.2369   20.1448 C   0  0  0  0  0  0
  -25.5938  -33.8551   24.2258 N   0  0  0  0  0  0
  -23.4318  -30.4760   21.5401 C   0  0  2  0  0  0
  -24.8848  -28.9248   20.1048 C   0  0  0  0  0  0
  -22.7518  -29.4583   22.4880 C   0  0  0  0  0  0
  -18.0300  -28.1382   22.8485 C   0  0  0  0  0  0
  -24.1486  -36.7281   23.2640 C   0  0  0  0  0  0
  -25.9795  -30.7569   21.3880 C   0  0  0  0  0  0
  -26.0533  -29.3765   20.7332 C   0  0  0  0  0  0
  -27.2201  -28.5408   20.7528 C   0  0  0  0  0  0
  -26.0407  -26.8813   19.4450 C   0  0  0  0  0  0
  -24.8851  -27.6855   19.4477 C   0  0  0  0  0  0
  -23.6553  -29.8132   20.1546 C   0  0  0  0  0  0
  -25.4113  -36.3063   24.0325 C   0  0  1  0  0  0
  -20.5906  -28.3700   23.1256 C   0  0  2  0  0  0
  -20.6778  -26.9410   22.5407 C   0  0  0  0  0  0
  -19.5757  -26.6376   21.5203 C   0  0  0  0  0  0
  -18.1940  -26.7923   22.1621 C   0  0  0  0  0  0
  -19.1555  -28.8859   23.2863 C   0  0  0  0  0  0
  -18.9472  -30.1457   23.8885 C   0  0  0  0  0  0
  -17.6470  -30.6580   24.0560 C   0  0  0  0  0  0
  -25.9057  -34.9437   23.5094 C   0  0  0  0  0  0
  -16.5363  -29.9078   23.6326 C   0  0  0  0  0  0
  -16.7286  -28.6494   23.0352 C   0  0  0  0  0  0
  -26.4504  -31.6580   25.0734 C   0  0  0  0  0  0
  -25.3726  -31.3756   26.1458 C   0  0  0  0  0  0
  -27.0363  -30.2988   24.6257 C   0  0  0  0  0  0
  -27.6042  -32.4337   25.7518 C   0  0  0  0  0  0
  -27.5571  -37.1799   24.8465 C   0  0  0  0  0  0
  -21.4222  -29.3043   22.3637 N   0  0  0  0  0  0
  -26.4283  -37.3766   23.9408 N   0  0  0  0  0  0
  -24.6999  -31.0478   22.0979 N   0  0  0  0  0  0
  -23.4216  -28.8111   23.2974 O   0  0  0  0  0  0
  -28.2528  -26.2677   20.2169 O   0  0  0  0  0  0
  -26.5625  -34.8912   22.4661 O   0  0  0  0  0  0
  -23.5467  -32.1373   23.7261 O   0  0  0  0  0  0
  -26.7989  -24.6236   21.3839 C   0  0  0  0  0  0
  -27.3221  -22.3635   21.5453 C   0  0  0  0  0  0
  -28.5367  -22.5369   20.8284 C   0  0  0  0  0  0
  -27.9715  -24.9132   20.6390 C   0  0  0  0  0  0
  -30.7479  -16.7825   21.8182 C   0  0  0  0  0  0
  -30.2185  -17.3873   20.5636 C   0  0  2  0  0  0
  -26.9110  -21.0305   22.1465 C   0  0  0  0  0  0
  -29.5927  -21.3180   20.7959 C   0  0  0  0  0  0
  -29.1728  -18.5996   20.7978 C   0  0  0  0  0  0
  -26.4697  -23.3816   21.8074 N   0  0  0  0  0  0
  -28.8474  -23.8411   20.3810 N   0  0  0  0  0  0
  -30.0017  -15.9224   20.9443 N   0  0  0  0  0  0
  -29.3545  -19.9651   20.0837 N   0  3  0  0  0  0
  -31.4681  -12.5750   19.1894 H   0  0  0  0  0  0
  -30.3525  -11.5023   19.9795 H   0  0  0  0  0  0
  -29.7969  -11.7426   17.5347 H   0  0  0  0  0  0
  -29.6389  -13.4711   17.7251 H   0  0  0  0  0  0
  -27.8903  -11.2969   18.9123 H   0  0  0  0  0  0
  -27.3826  -12.5448   17.8050 H   0  0  0  0  0  0
  -27.6314  -14.2662   19.4745 H   0  0  0  0  0  0
  -28.7227  -12.2111   21.4545 H   0  0  0  0  0  0
  -28.4140  -13.8991   21.7890 H   0  0  0  0  0  0
  -25.2770   -9.5688   22.4754 H   0  0  0  0  0  0
  -24.0001   -7.4647   22.7472 H   0  0  0  0  0  0
  -21.0842   -8.8792   19.8959 H   0  0  0  0  0  0
  -22.3705  -10.9685   19.6167 H   0  0  0  0  0  0
  -21.2029   -7.6150   23.9710 H   0  0  0  0  0  0
  -21.1479   -6.0526   25.9075 H   0  0  0  0  0  0
  -22.0596   -2.7607   23.2841 H   0  0  0  0  0  0
  -22.4076  -11.9897   22.4832 H   0  0  0  0  0  0
  -21.1081  -13.1250   22.2617 H   0  0  0  0  0  0
  -24.6539  -15.8500   20.5361 H   0  0  0  0  0  0
  -26.2792  -15.6361   20.1192 H   0  0  0  0  0  0
  -26.7210  -32.5394   23.1069 H   0  0  0  0  0  0
  -25.0088  -33.9685   25.0404 H   0  0  0  0  0  0
  -22.7293  -31.2993   21.3937 H   0  0  0  0  0  0
  -23.3738  -35.9619   23.3308 H   0  0  0  0  0  0
  -24.3570  -36.8902   22.2050 H   0  0  0  0  0  0
  -23.7251  -37.6492   23.6664 H   0  0  0  0  0  0
  -26.1236  -31.5153   20.6175 H   0  0  0  0  0  0
  -26.8542  -30.8075   22.0244 H   0  0  0  0  0  0
  -28.1067  -28.8711   21.2761 H   0  0  0  0  0  0
  -25.9943  -25.9304   18.9333 H   0  0  0  0  0  0
  -23.9969  -27.3402   18.9369 H   0  0  0  0  0  0
  -23.7852  -30.5931   19.4037 H   0  0  0  0  0  0
  -22.7733  -29.2519   19.8415 H   0  0  0  0  0  0
  -25.1291  -36.1902   25.0815 H   0  0  0  0  0  0
  -21.0004  -28.3277   24.1375 H   0  0  0  0  0  0
  -20.5654  -26.2308   23.3617 H   0  0  0  0  0  0
  -21.6643  -26.7415   22.1212 H   0  0  0  0  0  0
  -19.6916  -25.6283   21.1240 H   0  0  0  0  0  0
  -19.6683  -27.3173   20.6722 H   0  0  0  0  0  0
  -17.4201  -26.6669   21.4031 H   0  0  0  0  0  0
  -18.0350  -26.0062   22.9017 H   0  0  0  0  0  0
  -19.7951  -30.7275   24.2243 H   0  0  0  0  0  0
  -17.5028  -31.6261   24.5160 H   0  0  0  0  0  0
  -15.5364  -30.2974   23.7655 H   0  0  0  0  0  0
  -15.8690  -28.0808   22.7070 H   0  0  0  0  0  0
  -24.5891  -30.7105   25.7806 H   0  0  0  0  0  0
  -24.8927  -32.2939   26.4859 H   0  0  0  0  0  0
  -25.8041  -30.8962   27.0256 H   0  0  0  0  0  0
  -26.2967  -29.6733   24.1244 H   0  0  0  0  0  0
  -27.3984  -29.7257   25.4804 H   0  0  0  0  0  0
  -27.8870  -30.4246   23.9556 H   0  0  0  0  0  0
  -27.2622  -33.3634   26.2081 H   0  0  0  0  0  0
  -28.3865  -32.6912   25.0366 H   0  0  0  0  0  0
  -28.0696  -31.8484   26.5460 H   0  0  0  0  0  0
  -28.2588  -38.0096   24.7497 H   0  0  0  0  0  0
  -28.1070  -36.2627   24.6301 H   0  0  0  0  0  0
  -27.2294  -37.1456   25.8871 H   0  0  0  0  0  0
  -20.9405  -29.8796   21.6868 H   0  0  0  0  0  0
  -26.0159  -38.2837   24.1413 H   0  0  0  0  0  0
  -26.0970  -25.3968   21.6595 H   0  0  0  0  0  0
  -30.2683  -17.0223   22.7648 H   0  0  0  0  0  0
  -31.8280  -16.6558   21.8896 H   0  0  0  0  0  0
  -30.9149  -17.5465   19.7416 H   0  0  0  0  0  0
  -27.6938  -20.6352   22.7930 H   0  0  0  0  0  0
  -26.6958  -20.3042   21.3635 H   0  0  0  0  0  0
  -26.0138  -21.1302   22.7589 H   0  0  0  0  0  0
  -29.8882  -21.1102   21.8249 H   0  0  0  0  0  0
  -30.4950  -21.7260   20.3414 H   0  0  0  0  0  0
  -29.0870  -18.7890   21.8676 H   0  0  0  0  0  0
  -28.1914  -18.2290   20.5024 H   0  0  0  0  0  0
  -30.1576  -19.8548   19.4879 H   0  0  0  0  0  0
  -28.5842  -20.0909   19.4495 H   0  0  0  0  0  0
  1 25  1  0  0  0
  1 30  2  0  0  0
  1 82  1  0  0  0
  2  3  1  0  0  0
  2 25  1  0  0  0
  2 84  1  0  0  0
  2 85  1  0  0  0
  3  4  1  0  0  0
  3 86  1  0  0  0
  3 87  1  0  0  0
  4  5  1  0  0  0
  4 88  1  0  0  0
  4 89  1  0  0  0
  5  6  1  0  0  0
  5 26  1  0  0  0
  5 90  1  0  0  0
  6 25  1  0  0  0
  6 91  1  0  0  0
  6 92  1  0  0  0
  7  8  2  0  0  0
  7 26  1  0  0  0
  7 29  1  0  0  0
  8  9  1  0  0  0
  8 22  1  0  0  0
  9 10  1  0  0  0
  9 27  2  0  0  0
 10 11  2  0  0  0
 10 15  1  0  0  0
 11 12  1  0  0  0
 11 93  1  0  0  0
 12 13  2  0  0  0
 12 94  1  0  0  0
 13 14  1  0  0  0
 13 31  1  0  0  0
 14 15  2  0  0  0
 14 95  1  0  0  0
 15 96  1  0  0  0
 16 17  2  0  0  0
 16 21  1  0  0  0
 16 31  1  0  0  0
 17 18  1  0  0  0
 17 97  1  0  0  0
 18 19  2  0  0  0
 18 98  1  0  0  0
 19 20  1  0  0  0
 19 24  1  0  0  0
 20 21  2  0  0  0
 20 99  1  0  0  0
 21 23  1  0  0  0
 22 28  1  0  0  0
 22 32  2  0  0  0
 26 27  1  0  0  0
 28100  1  0  0  0
 28101  1  0  0  0
 29102  1  0  0  0
 29103  1  0  0  0
 33 34  1  0  0  0
 33 66  1  0  0  0
 33 70  2  0  0  0
 34 36  1  0  0  0
 34 59  1  0  0  0
 34104  1  0  0  0
 35 44  2  0  0  0
 35 45  1  0  0  0
 35 68  1  0  0  0
 36 56  1  0  0  0
 36105  1  0  0  0
 37 39  1  0  0  0
 37 47  1  0  0  0
 37 66  1  0  0  0
 37106  1  0  0  0
 38 43  2  0  0  0
 38 46  1  0  0  0
 38 47  1  0  0  0
 39 64  1  0  0  0
 39 67  2  0  0  0
 40 52  1  0  0  0
 40 53  2  0  0  0
 40 58  1  0  0  0
 41107  1  0  0  0
 41108  1  0  0  0
 41109  1  0  0  0
 41 48  1  0  0  0
 42 43  1  0  0  0
 42 66  1  0  0  0
 42110  1  0  0  0
 42111  1  0  0  0
 43 44  1  0  0  0
 44112  1  0  0  0
 45 46  2  0  0  0
 45113  1  0  0  0
 46114  1  0  0  0
 47115  1  0  0  0
 47116  1  0  0  0
 48 56  1  0  0  0
 48 65  1  0  0  0
 48117  1  0  0  0
 49 50  1  0  0  0
 49 53  1  0  0  0
 49 64  1  0  0  0
 49118  1  0  0  0
 50 51  1  0  0  0
 50119  1  0  0  0
 50120  1  0  0  0
 51 52  1  0  0  0
 51121  1  0  0  0
 51122  1  0  0  0
 52123  1  0  0  0
 52124  1  0  0  0
 53 54  1  0  0  0
 54 55  2  0  0  0
 54125  1  0  0  0
 55 57  1  0  0  0
 55126  1  0  0  0
 56 69  2  0  0  0
 57 58  2  0  0  0
 57127  1  0  0  0
 58128  1  0  0  0
 59 60  1  0  0  0
 59 61  1  0  0  0
 59 62  1  0  0  0
 60129  1  0  0  0
 60130  1  0  0  0
 60131  1  0  0  0
 61132  1  0  0  0
 61133  1  0  0  0
 61134  1  0  0  0
 62135  1  0  0  0
 62136  1  0  0  0
 62137  1  0  0  0
 63 65  1  0  0  0
 63138  1  0  0  0
 63139  1  0  0  0
 63140  1  0  0  0
 64141  1  0  0  0
 65142  1  0  0  0
 68 74  1  0  0  0
 71 74  2  0  0  0
 71 80  1  0  0  0
 71143  1  0  0  0
 72 73  1  0  0  0
 72 77  1  0  0  0
 72 80  2  0  0  0
 73 78  1  0  0  0
 73 81  2  0  0  0
 74 81  1  0  0  0
 75 76  1  0  0  0
 75 82  1  0  0  0
 75144  1  0  0  0
 75145  1  0  0  0
 76 79  1  0  0  0
 76 82  1  0  0  0
 76146  1  0  0  0
 77147  1  0  0  0
 77148  1  0  0  0
 77149  1  0  0  0
 78 83  1  0  0  0
 78150  1  0  0  0
 78151  1  0  0  0
 79 83  1  0  0  0
 79152  1  0  0  0
 79153  1  0  0  0
 83154  1  0  0  0
 83155  1  0  0  0
M  CHG  1  83   1
M  ISO  4   1 100  68 101  74 101  82 100
M  END
> <chiral flag>
0

> <version>
0

> <s_m_source_file>
/data/baiqing/PycharmProjects/Reinvent-master-3.2/result/LINK_invent/BTK/process_docking_weight1_custom_sum_contain_oxygen_bond_distance_aromatic_linkinvent_7_9_3/rearranged_h_0185.sdf

> <i_m_source_file_index>
86

> <r_mmod_Potential_Energy-OPLS-2005>
188.091766357422

> <r_mmod_Stretch_Energy-OPLS-2005>
155.640640258789

> <r_mmod_Bend_Energy-OPLS-2005>
208.780456542969

> <r_mmod_Torsional_Energy-OPLS-2005>
316.297607421875

> <r_mmod_Improper_Torsional_Energy-OPLS-2005>
11.1319074630737

> <r_mmod_Van_der_Waal_Energy-OPLS-2005>
145.304122924805

> <r_mmod_Electrostatic_Energy-OPLS-2005>
-237.402908325195

> <r_mmod_Solvation_Energy-OPLS-2005>
-514.969604492188

> <b_mmod_Minimization_Converged-OPLS-2005>
0

> <r_mmod_RMS_Derivative-OPLS-2005>
1.37045919895172

$$$$
86
                    3D
 Structure written by MMmdl.
159167  0  0  1  0            999 V2000
  -30.6102  -14.7933   20.5527 C   0  0  0  0  0  0
  -30.4215  -12.5056   19.4703 C   0  0  0  0  0  0
  -29.5132  -12.5594   18.2182 C   0  0  0  0  0  0
  -28.0320  -12.3728   18.6051 C   0  0  0  0  0  0
  -27.6301  -13.2399   19.8276 C   0  0  2  0  0  0
  -28.6651  -13.1019   20.9588 C   0  0  0  0  0  0
  -25.2452  -13.8204   20.5616 C   0  0  0  0  0  0
  -24.1751  -13.0443   20.9133 C   0  0  0  0  0  0
  -24.6331  -11.6920   20.8586 C   0  0  0  0  0  0
  -23.9016  -10.4312   21.0287 C   0  0  0  0  0  0
  -24.3585   -9.4273   21.9110 C   0  0  0  0  0  0
  -23.6268   -8.2299   22.0741 C   0  0  0  0  0  0
  -22.4248   -8.0291   21.3539 C   0  0  0  0  0  0
  -21.9854   -9.0248   20.4634 C   0  0  0  0  0  0
  -22.7161  -10.2133   20.2981 C   0  0  0  0  0  0
  -21.6860   -6.0741   22.5303 C   0  0  0  0  0  0
  -21.4011   -6.5619   23.8250 C   0  0  0  0  0  0
  -21.3652   -5.6749   24.9196 C   0  0  0  0  0  0
  -21.6060   -4.3022   24.7225 C   0  0  0  0  0  0
  -21.8808   -3.8130   23.4336 C   0  0  0  0  0  0
  -21.9201   -4.6969   22.3407 C   0  0  0  0  0  0
  -22.7788  -13.5252   21.1855 C   0  0  0  0  0  0
  -22.1663   -4.2168   21.0976 F   0  0  0  0  0  0
  -21.5642   -3.4490   25.7722 F   0  0  0  0  0  0
  -29.9620  -13.5591   20.4282 N   0  0  0  0  0  0
  -26.2834  -12.9414   20.3024 N   0  0  0  0  0  0
  -25.9251  -11.6547   20.5473 N   0  0  0  0  0  0
  -22.0442  -12.8246   22.0419 N   0  0  0  0  0  0
  -25.4090  -15.1937   20.4146 N   0  0  0  0  0  0
  -31.7646  -14.8313   20.1078 O   0  0  0  0  0  0
  -21.6623   -6.8876   21.4260 O   0  0  0  0  0  0
  -22.3478  -14.5584   20.6754 O   0  0  0  0  0  0
  -24.6351  -31.8520   23.1929 C   0  0  0  0  0  0
  -25.9183  -32.4741   23.8285 C   0  0  1  0  0  0
  -27.2277  -27.2358   20.1278 C   0  0  0  0  0  0
  -25.5958  -33.8534   24.2225 N   0  0  0  0  0  0
  -23.4319  -30.4763   21.5337 C   0  0  2  0  0  0
  -24.8775  -28.9120   20.1046 C   0  0  0  0  0  0
  -22.7524  -29.4613   22.4848 C   0  0  0  0  0  0
  -18.0306  -28.1431   22.8465 C   0  0  0  0  0  0
  -24.1482  -36.7283   23.2638 C   0  0  0  0  0  0
  -25.9763  -30.7586   21.3693 C   0  0  0  0  0  0
  -26.0463  -29.3755   20.7155 C   0  0  0  0  0  0
  -27.2178  -28.5497   20.7180 C   0  0  0  0  0  0
  -26.0299  -26.8409   19.4886 C   0  0  0  0  0  0
  -24.8730  -27.6525   19.4822 C   0  0  0  0  0  0
  -23.6499  -29.8028   20.1500 C   0  0  0  0  0  0
  -25.4106  -36.3049   24.0323 C   0  0  1  0  0  0
  -20.5911  -28.3748   23.1234 C   0  0  2  0  0  0
  -20.6802  -26.9447   22.5398 C   0  0  0  0  0  0
  -19.5766  -26.6411   21.5209 C   0  0  0  0  0  0
  -18.1950  -26.7981   22.1620 C   0  0  0  0  0  0
  -19.1569  -28.8893   23.2864 C   0  0  0  0  0  0
  -18.9490  -30.1498   23.8883 C   0  0  0  0  0  0
  -17.6496  -30.6615   24.0561 C   0  0  0  0  0  0
  -25.9065  -34.9435   23.5076 C   0  0  0  0  0  0
  -16.5382  -29.9129   23.6321 C   0  0  0  0  0  0
  -16.7305  -28.6553   23.0334 C   0  0  0  0  0  0
  -26.4523  -31.6588   25.0686 C   0  0  0  0  0  0
  -25.3749  -31.3771   26.1413 C   0  0  0  0  0  0
  -27.0381  -30.3008   24.6171 C   0  0  0  0  0  0
  -27.6062  -32.4337   25.7496 C   0  0  0  0  0  0
  -27.5572  -37.1787   24.8464 C   0  0  0  0  0  0
  -21.4232  -29.3093   22.3603 N   0  0  0  0  0  0
  -26.4275  -37.3755   23.9414 N   0  0  0  0  0  0
  -24.7016  -31.0491   22.0880 N   0  0  0  0  0  0
  -23.4207  -28.8146   23.2959 O   0  0  0  0  0  0
  -28.3562  -26.3742   20.2143 O   0  0  0  0  0  0
  -26.5604  -34.8922   22.4632 O   0  0  0  0  0  0
  -23.5481  -32.1351   23.7208 O   0  0  0  0  0  0
  -31.7837  -19.0240   20.5713 C   0  0  0  0  0  0
  -29.6511  -19.6635   20.6470 C   0  0  0  0  0  0
  -30.2392  -17.3796   20.6978 C   0  0  0  0  0  0
  -33.2443  -19.4285   20.6089 C   0  0  0  0  0  0
  -27.3255  -23.5854   21.6288 C   0  0  0  0  0  0
  -29.1777  -15.8815   22.2541 C   0  0  0  0  0  0
  -28.6785  -20.9155   20.8645 C   0  0  0  0  0  0
  -28.4310  -24.9370   19.7300 C   0  0  0  0  0  0
  -28.5881  -23.6603   20.7491 C   0  0  2  0  0  0
  -30.9183  -20.0295   20.5246 N   0  0  0  0  0  0
  -31.5238  -17.7212   20.6498 N   0  0  0  0  0  0
  -29.2532  -18.3465   20.7409 N   0  0  0  0  0  0
  -29.9498  -15.9776   21.0041 N   0  0  0  0  0  0
  -29.0130  -22.2623   20.1806 N   0  3  0  0  0  0
  -31.4637  -12.6160   19.1704 H   0  0  0  0  0  0
  -30.3632  -11.5159   19.9249 H   0  0  0  0  0  0
  -29.8173  -11.8132   17.4815 H   0  0  0  0  0  0
  -29.6388  -13.5248   17.7246 H   0  0  0  0  0  0
  -27.8738  -11.3164   18.8291 H   0  0  0  0  0  0
  -27.3929  -12.6037   17.7522 H   0  0  0  0  0  0
  -27.6335  -14.2747   19.4815 H   0  0  0  0  0  0
  -28.7156  -12.0556   21.2649 H   0  0  0  0  0  0
  -28.3319  -13.6092   21.8557 H   0  0  0  0  0  0
  -25.2756   -9.5811   22.4635 H   0  0  0  0  0  0
  -24.0027   -7.4717   22.7449 H   0  0  0  0  0  0
  -21.0803   -8.8699   19.8947 H   0  0  0  0  0  0
  -22.3577  -10.9622   19.6045 H   0  0  0  0  0  0
  -21.1969   -7.6119   23.9762 H   0  0  0  0  0  0
  -21.1483   -6.0463   25.9104 H   0  0  0  0  0  0
  -22.0586   -2.7596   23.2810 H   0  0  0  0  0  0
  -22.3973  -11.9882   22.4806 H   0  0  0  0  0  0
  -21.1105  -13.1335   22.2618 H   0  0  0  0  0  0
  -24.6321  -15.8362   20.5357 H   0  0  0  0  0  0
  -26.2474  -15.6484   20.0763 H   0  0  0  0  0  0
  -26.7245  -32.5359   23.1019 H   0  0  0  0  0  0
  -25.0180  -33.9666   25.0413 H   0  0  0  0  0  0
  -22.7306  -31.2988   21.3834 H   0  0  0  0  0  0
  -23.3746  -35.9618   23.3287 H   0  0  0  0  0  0
  -24.3566  -36.8911   22.2052 H   0  0  0  0  0  0
  -23.7244  -37.6482   23.6675 H   0  0  0  0  0  0
  -26.1099  -31.5082   20.5883 H   0  0  0  0  0  0
  -26.8606  -30.8178   21.9927 H   0  0  0  0  0  0
  -28.1086  -28.9061   21.2138 H   0  0  0  0  0  0
  -25.9336  -25.8800   19.0080 H   0  0  0  0  0  0
  -23.9735  -27.2922   19.0023 H   0  0  0  0  0  0
  -23.7789  -30.5778   19.3944 H   0  0  0  0  0  0
  -22.7654  -29.2403   19.8451 H   0  0  0  0  0  0
  -25.1283  -36.1878   25.0811 H   0  0  0  0  0  0
  -21.0028  -28.3359   24.1351 H   0  0  0  0  0  0
  -20.5685  -26.2367   23.3631 H   0  0  0  0  0  0
  -21.6676  -26.7464   22.1186 H   0  0  0  0  0  0
  -19.6918  -25.6311   21.1268 H   0  0  0  0  0  0
  -19.6714  -27.3199   20.6718 H   0  0  0  0  0  0
  -17.4212  -26.6716   21.4033 H   0  0  0  0  0  0
  -18.0347  -26.0157   22.9043 H   0  0  0  0  0  0
  -19.7970  -30.7323   24.2243 H   0  0  0  0  0  0
  -17.5048  -31.6281   24.5208 H   0  0  0  0  0  0
  -15.5381  -30.3018   23.7674 H   0  0  0  0  0  0
  -15.8716  -28.0883   22.7029 H   0  0  0  0  0  0
  -24.5901  -30.7126   25.7768 H   0  0  0  0  0  0
  -24.8966  -32.2961   26.4810 H   0  0  0  0  0  0
  -25.8052  -30.8974   27.0213 H   0  0  0  0  0  0
  -26.2960  -29.6739   24.1191 H   0  0  0  0  0  0
  -27.4086  -29.7269   25.4676 H   0  0  0  0  0  0
  -27.8825  -30.4307   23.9402 H   0  0  0  0  0  0
  -27.2653  -33.3635   26.2061 H   0  0  0  0  0  0
  -28.3907  -32.6887   25.0372 H   0  0  0  0  0  0
  -28.0700  -31.8474   26.5433 H   0  0  0  0  0  0
  -28.2568  -38.0098   24.7497 H   0  0  0  0  0  0
  -28.1076  -36.2619   24.6294 H   0  0  0  0  0  0
  -27.2290  -37.1454   25.8866 H   0  0  0  0  0  0
  -20.9408  -29.8821   21.6804 H   0  0  0  0  0  0
  -26.0143  -38.2817   24.1430 H   0  0  0  0  0  0
  -33.5332  -19.9036   19.6736 H   0  0  0  0  0  0
  -33.8975  -18.5737   20.7866 H   0  0  0  0  0  0
  -33.4269  -20.1444   21.4120 H   0  0  0  0  0  0
  -27.4571  -22.9314   22.4889 H   0  0  0  0  0  0
  -26.4580  -23.2470   21.0610 H   0  0  0  0  0  0
  -27.0925  -24.5726   22.0317 H   0  0  0  0  0  0
  -29.5095  -15.0630   22.8941 H   0  0  0  0  0  0
  -29.3026  -16.7708   22.8761 H   0  0  0  0  0  0
  -28.1112  -15.7946   22.0492 H   0  0  0  0  0  0
  -28.6766  -21.0793   21.9410 H   0  0  0  0  0  0
  -27.6592  -20.6314   20.6103 H   0  0  0  0  0  0
  -27.6420  -24.7177   19.0145 H   0  0  0  0  0  0
  -29.3281  -24.9344   19.1101 H   0  0  0  0  0  0
  -29.4090  -23.9289   21.4187 H   0  0  0  0  0  0
  -28.6907  -22.1619   19.2325 H   0  0  0  0  0  0
  -30.0208  -22.2205   20.1228 H   0  0  0  0  0  0
  1 25  1  0  0  0
  1 30  2  0  0  0
  1 83  1  0  0  0
  2  3  1  0  0  0
  2 25  1  0  0  0
  2 85  1  0  0  0
  2 86  1  0  0  0
  3  4  1  0  0  0
  3 87  1  0  0  0
  3 88  1  0  0  0
  4  5  1  0  0  0
  4 89  1  0  0  0
  4 90  1  0  0  0
  5  6  1  0  0  0
  5 26  1  0  0  0
  5 91  1  0  0  0
  6 25  1  0  0  0
  6 92  1  0  0  0
  6 93  1  0  0  0
  7  8  2  0  0  0
  7 26  1  0  0  0
  7 29  1  0  0  0
  8  9  1  0  0  0
  8 22  1  0  0  0
  9 10  1  0  0  0
  9 27  2  0  0  0
 10 11  2  0  0  0
 10 15  1  0  0  0
 11 12  1  0  0  0
 11 94  1  0  0  0
 12 13  2  0  0  0
 12 95  1  0  0  0
 13 14  1  0  0  0
 13 31  1  0  0  0
 14 15  2  0  0  0
 14 96  1  0  0  0
 15 97  1  0  0  0
 16 17  2  0  0  0
 16 21  1  0  0  0
 16 31  1  0  0  0
 17 18  1  0  0  0
 17 98  1  0  0  0
 18 19  2  0  0  0
 18 99  1  0  0  0
 19 20  1  0  0  0
 19 24  1  0  0  0
 20 21  2  0  0  0
 20100  1  0  0  0
 21 23  1  0  0  0
 22 28  1  0  0  0
 22 32  2  0  0  0
 26 27  1  0  0  0
 28101  1  0  0  0
 28102  1  0  0  0
 29103  1  0  0  0
 29104  1  0  0  0
 33 34  1  0  0  0
 33 66  1  0  0  0
 33 70  2  0  0  0
 34 36  1  0  0  0
 34 59  1  0  0  0
 34105  1  0  0  0
 35 44  2  0  0  0
 35 45  1  0  0  0
 35 68  1  0  0  0
 36 56  1  0  0  0
 36106  1  0  0  0
 37 39  1  0  0  0
 37 47  1  0  0  0
 37 66  1  0  0  0
 37107  1  0  0  0
 38 43  2  0  0  0
 38 46  1  0  0  0
 38 47  1  0  0  0
 39 64  1  0  0  0
 39 67  2  0  0  0
 40 52  1  0  0  0
 40 53  2  0  0  0
 40 58  1  0  0  0
 41108  1  0  0  0
 41109  1  0  0  0
 41110  1  0  0  0
 41 48  1  0  0  0
 42 43  1  0  0  0
 42 66  1  0  0  0
 42111  1  0  0  0
 42112  1  0  0  0
 43 44  1  0  0  0
 44113  1  0  0  0
 45 46  2  0  0  0
 45114  1  0  0  0
 46115  1  0  0  0
 47116  1  0  0  0
 47117  1  0  0  0
 48 56  1  0  0  0
 48 65  1  0  0  0
 48118  1  0  0  0
 49 50  1  0  0  0
 49 53  1  0  0  0
 49 64  1  0  0  0
 49119  1  0  0  0
 50 51  1  0  0  0
 50120  1  0  0  0
 50121  1  0  0  0
 51 52  1  0  0  0
 51122  1  0  0  0
 51123  1  0  0  0
 52124  1  0  0  0
 52125  1  0  0  0
 53 54  1  0  0  0
 54 55  2  0  0  0
 54126  1  0  0  0
 55 57  1  0  0  0
 55127  1  0  0  0
 56 69  2  0  0  0
 57 58  2  0  0  0
 57128  1  0  0  0
 58129  1  0  0  0
 59 60  1  0  0  0
 59 61  1  0  0  0
 59 62  1  0  0  0
 60130  1  0  0  0
 60131  1  0  0  0
 60132  1  0  0  0
 61133  1  0  0  0
 61134  1  0  0  0
 61135  1  0  0  0
 62136  1  0  0  0
 62137  1  0  0  0
 62138  1  0  0  0
 63 65  1  0  0  0
 63139  1  0  0  0
 63140  1  0  0  0
 63141  1  0  0  0
 64142  1  0  0  0
 65143  1  0  0  0
 68 78  1  0  0  0
 71 74  1  0  0  0
 71 80  2  0  0  0
 71 81  1  0  0  0
 72 77  1  0  0  0
 72 80  1  0  0  0
 72 82  2  0  0  0
 73 81  2  0  0  0
 73 82  1  0  0  0
 73 83  1  0  0  0
 74144  1  0  0  0
 74145  1  0  0  0
 74146  1  0  0  0
 75147  1  0  0  0
 75148  1  0  0  0
 75149  1  0  0  0
 75 79  1  0  0  0
 76 83  1  0  0  0
 76150  1  0  0  0
 76151  1  0  0  0
 76152  1  0  0  0
 77 84  1  0  0  0
 77153  1  0  0  0
 77154  1  0  0  0
 78 79  1  0  0  0
 78155  1  0  0  0
 78156  1  0  0  0
 79 84  1  0  0  0
 79157  1  0  0  0
 84158  1  0  0  0
 84159  1  0  0  0
M  CHG  1  84   1
M  ISO  4   1 100  68 101  78 101  83 100
M  END
> <chiral flag>
0

> <version>
0

> <s_m_source_file>
/data/baiqing/PycharmProjects/Reinvent-master-3.2/result/LINK_invent/BTK/process_docking_weight1_custom_sum_contain_oxygen_bond_distance_aromatic_linkinvent_7_9_3/rearranged_h_0185.sdf

> <i_m_source_file_index>
87

> <r_mmod_Potential_Energy-OPLS-2005>
-458.775451660156

> <r_mmod_Stretch_Energy-OPLS-2005>
167.102676391602

> <r_mmod_Bend_Energy-OPLS-2005>
227.161422729492

> <r_mmod_Torsional_Energy-OPLS-2005>
269.708190917969

> <r_mmod_Improper_Torsional_Energy-OPLS-2005>
7.19209814071655

> <r_mmod_Van_der_Waal_Energy-OPLS-2005>
168.608108520508

> <r_mmod_Electrostatic_Energy-OPLS-2005>
-933.324340820312

> <r_mmod_Solvation_Energy-OPLS-2005>
-458.424621582031

> <b_mmod_Minimization_Converged-OPLS-2005>
0

> <r_mmod_RMS_Derivative-OPLS-2005>
4.66666555404663

$$$$
87
                    3D
 Structure written by MMmdl.
146155  0  0  1  0            999 V2000
  -30.3254  -15.7823   20.3282 C   0  0  0  0  0  0
  -30.3872  -13.2091   19.5188 C   0  0  0  0  0  0
  -29.5347  -12.6880   18.3274 C   0  0  0  0  0  0
  -28.1306  -12.2952   18.7973 C   0  0  0  0  0  0
  -27.5810  -13.3270   19.8049 C   0  0  2  0  0  0
  -28.5887  -13.7648   20.8998 C   0  0  0  0  0  0
  -25.2279  -13.8326   20.5868 C   0  0  0  0  0  0
  -24.1681  -13.0444   20.9327 C   0  0  0  0  0  0
  -24.6409  -11.6963   20.8788 C   0  0  0  0  0  0
  -23.9127  -10.4296   21.0403 C   0  0  0  0  0  0
  -24.3660   -9.4206   21.9180 C   0  0  0  0  0  0
  -23.6319   -8.2247   22.0754 C   0  0  0  0  0  0
  -22.4297   -8.0290   21.3547 C   0  0  0  0  0  0
  -21.9952   -9.0269   20.4645 C   0  0  0  0  0  0
  -22.7297  -10.2139   20.3053 C   0  0  0  0  0  0
  -21.6861   -6.0745   22.5278 C   0  0  0  0  0  0
  -21.4021   -6.5646   23.8212 C   0  0  0  0  0  0
  -21.3659   -5.6796   24.9172 C   0  0  0  0  0  0
  -21.6044   -4.3058   24.7221 C   0  0  0  0  0  0
  -21.8819   -3.8153   23.4340 C   0  0  0  0  0  0
  -21.9197   -4.6972   22.3399 C   0  0  0  0  0  0
  -22.7686  -13.5154   21.1938 C   0  0  0  0  0  0
  -22.1662   -4.2154   21.0978 F   0  0  0  0  0  0
  -21.5625   -3.4542   25.7735 F   0  0  0  0  0  0
  -29.7233  -14.4323   20.2035 N   0  0  0  0  0  0
  -26.2733  -12.9685   20.3307 N   0  0  0  0  0  0
  -25.9364  -11.6736   20.5732 N   0  0  0  0  0  0
  -22.0357  -12.8122   22.0489 N   0  0  0  0  0  0
  -25.3878  -15.2071   20.4322 N   0  0  0  0  0  0
  -31.5559  -15.5503   20.2710 O   0  0  0  0  0  0
  -21.6652   -6.8891   21.4243 O   0  0  0  0  0  0
  -22.3356  -14.5446   20.6769 O   0  0  0  0  0  0
  -24.6939  -31.7882   23.1418 C   0  0  0  0  0  0
  -25.9473  -32.4406   23.8007 C   0  0  1  0  0  0
  -27.2199  -26.5904   20.2277 C   0  0  0  0  0  0
  -25.6015  -33.8239   24.1891 N   0  0  0  0  0  0
  -23.5244  -30.3855   21.4984 C   0  0  2  0  0  0
  -24.9810  -28.7037   20.1205 C   0  0  0  0  0  0
  -22.7812  -29.4252   22.4675 C   0  0  0  0  0  0
  -18.0346  -28.1432   22.8454 C   0  0  0  0  0  0
  -24.1490  -36.7117   23.2656 C   0  0  0  0  0  0
  -26.1095  -30.4844   21.4224 C   0  0  0  0  0  0
  -26.1726  -29.0365   20.7754 C   0  0  0  0  0  0
  -27.2735  -28.0113   20.7922 C   0  0  0  0  0  0
  -25.9959  -26.4963   19.5118 C   0  0  0  0  0  0
  -24.9388  -27.4612   19.4631 C   0  0  0  0  0  0
  -23.7843  -29.6743   20.1376 C   0  0  0  0  0  0
  -25.4144  -36.2857   24.0278 C   0  0  1  0  0  0
  -20.5987  -28.3796   23.1124 C   0  0  2  0  0  0
  -20.6808  -26.9448   22.5405 C   0  0  0  0  0  0
  -19.5782  -26.6373   21.5221 C   0  0  0  0  0  0
  -18.1965  -26.7959   22.1621 C   0  0  0  0  0  0
  -19.1615  -28.8941   23.2769 C   0  0  0  0  0  0
  -18.9523  -30.1520   23.8820 C   0  0  0  0  0  0
  -17.6512  -30.6614   24.0552 C   0  0  0  0  0  0
  -25.9133  -34.9254   23.4924 C   0  0  0  0  0  0
  -16.5400  -29.9093   23.6357 C   0  0  0  0  0  0
  -16.7327  -28.6517   23.0374 C   0  0  0  0  0  0
  -26.4615  -31.6481   25.0671 C   0  0  0  0  0  0
  -25.3659  -31.3830   26.1269 C   0  0  0  0  0  0
  -27.0563  -30.2805   24.6647 C   0  0  0  0  0  0
  -27.6038  -32.4368   25.7501 C   0  0  0  0  0  0
  -27.5550  -37.1717   24.8473 C   0  0  0  0  0  0
  -21.4448  -29.3024   22.3433 N   0  0  0  0  0  0
  -26.4255  -37.3631   23.9413 N   0  0  0  0  0  0
  -24.8008  -30.9216   22.0732 N   0  0  0  0  0  0
  -23.4208  -28.7869   23.3067 O   0  0  0  0  0  0
  -28.1579  -25.3141   20.2982 O   0  0  0  0  0  0
  -26.5783  -34.8858   22.4547 O   0  0  0  0  0  0
  -23.5934  -32.1011   23.6303 O   0  0  0  0  0  0
  -31.1922  -21.1078   20.6607 C   0  0  0  0  0  0
  -30.3272  -22.2525   20.5562 C   0  0  0  0  0  0
  -30.5096  -19.9314   20.5231 C   0  0  0  0  0  0
  -29.0014  -21.9536   20.3372 C   0  0  0  0  0  0
  -30.9342  -18.3926   20.5444 C   0  0  0  0  0  0
  -28.7197  -18.6186   20.2295 C   0  0  0  0  0  0
  -27.9093  -23.5211   20.1916 C   0  0  0  0  0  0
  -29.1868  -20.2752   20.3319 N   0  0  0  0  0  0
  -29.8627  -17.3267   20.3637 N   0  0  0  0  0  0
  -31.3690  -13.4675   19.1207 H   0  0  0  0  0  0
  -30.5834  -12.4082   20.2343 H   0  0  0  0  0  0
  -29.4591  -13.4724   17.5728 H   0  0  0  0  0  0
  -30.0233  -11.8409   17.8443 H   0  0  0  0  0  0
  -28.1999  -11.3198   19.2804 H   0  0  0  0  0  0
  -27.4550  -12.1744   17.9494 H   0  0  0  0  0  0
  -27.4085  -14.2129   19.1918 H   0  0  0  0  0  0
  -28.8964  -12.9304   21.5317 H   0  0  0  0  0  0
  -28.1209  -14.4928   21.5639 H   0  0  0  0  0  0
  -25.2796   -9.5674   22.4767 H   0  0  0  0  0  0
  -24.0017   -7.4638   22.7481 H   0  0  0  0  0  0
  -21.0882   -8.8801   19.8948 H   0  0  0  0  0  0
  -22.3757  -10.9684   19.6166 H   0  0  0  0  0  0
  -21.2014   -7.6153   23.9717 H   0  0  0  0  0  0
  -21.1480   -6.0524   25.9076 H   0  0  0  0  0  0
  -22.0599   -2.7615   23.2842 H   0  0  0  0  0  0
  -22.4011  -11.9798   22.4875 H   0  0  0  0  0  0
  -21.0963  -13.1105   22.2690 H   0  0  0  0  0  0
  -24.6204  -15.8588   20.5546 H   0  0  0  0  0  0
  -26.2396  -15.6519   20.1161 H   0  0  0  0  0  0
  -26.7563  -32.4848   23.0723 H   0  0  0  0  0  0
  -25.0095  -33.9265   25.0003 H   0  0  0  0  0  0
  -22.8556  -31.2259   21.2993 H   0  0  0  0  0  0
  -23.3774  -35.9424   23.3271 H   0  0  0  0  0  0
  -24.3551  -36.8828   22.2078 H   0  0  0  0  0  0
  -23.7229  -37.6271   23.6768 H   0  0  0  0  0  0
  -26.3225  -31.2010   20.6279 H   0  0  0  0  0  0
  -26.9573  -30.5580   22.0911 H   0  0  0  0  0  0
  -28.1679  -28.2752   21.3384 H   0  0  0  0  0  0
  -25.8078  -25.5622   19.0017 H   0  0  0  0  0  0
  -24.0438  -27.1967   18.9167 H   0  0  0  0  0  0
  -23.9705  -30.4306   19.3741 H   0  0  0  0  0  0
  -22.8866  -29.1480   19.8086 H   0  0  0  0  0  0
  -25.1356  -36.1599   25.0766 H   0  0  0  0  0  0
  -21.0071  -28.3430   24.1248 H   0  0  0  0  0  0
  -20.5662  -26.2428   23.3678 H   0  0  0  0  0  0
  -21.6667  -26.7375   22.1226 H   0  0  0  0  0  0
  -19.6938  -25.6264   21.1299 H   0  0  0  0  0  0
  -19.6722  -27.3147   20.6724 H   0  0  0  0  0  0
  -17.4232  -26.6711   21.4025 H   0  0  0  0  0  0
  -18.0343  -26.0120   22.9033 H   0  0  0  0  0  0
  -19.8000  -30.7355   24.2153 H   0  0  0  0  0  0
  -17.5067  -31.6287   24.5171 H   0  0  0  0  0  0
  -15.5397  -30.2976   23.7729 H   0  0  0  0  0  0
  -15.8726  -28.0810   22.7138 H   0  0  0  0  0  0
  -24.5867  -30.7160   25.7559 H   0  0  0  0  0  0
  -24.8830  -32.3065   26.4474 H   0  0  0  0  0  0
  -25.7817  -30.9126   27.0191 H   0  0  0  0  0  0
  -26.3302  -29.6384   24.1649 H   0  0  0  0  0  0
  -27.3961  -29.7290   25.5424 H   0  0  0  0  0  0
  -27.9293  -30.3898   24.0212 H   0  0  0  0  0  0
  -27.2557  -33.3749   26.1839 H   0  0  0  0  0  0
  -28.3972  -32.6806   25.0423 H   0  0  0  0  0  0
  -28.0575  -31.8663   26.5615 H   0  0  0  0  0  0
  -28.2543  -38.0034   24.7500 H   0  0  0  0  0  0
  -28.1068  -36.2552   24.6320 H   0  0  0  0  0  0
  -27.2268  -37.1379   25.8878 H   0  0  0  0  0  0
  -20.9776  -29.8669   21.6474 H   0  0  0  0  0  0
  -26.0071  -38.2672   24.1429 H   0  0  0  0  0  0
  -32.2602  -21.1550   20.8282 H   0  0  0  0  0  0
  -30.6746  -23.2741   20.6378 H   0  0  0  0  0  0
  -31.4378  -18.1861   21.4899 H   0  0  0  0  0  0
  -31.6898  -18.2337   19.7739 H   0  0  0  0  0  0
  -28.2024  -18.4891   19.2786 H   0  0  0  0  0  0
  -27.9612  -18.4510   20.9948 H   0  0  0  0  0  0
  -27.1116  -23.3621   20.9169 H   0  0  0  0  0  0
  -27.3962  -23.4123   19.2361 H   0  0  0  0  0  0
  1 25  1  0  0  0
  1 30  2  0  0  0
  1 79  1  0  0  0
  2  3  1  0  0  0
  2 25  1  0  0  0
  2 80  1  0  0  0
  2 81  1  0  0  0
  3  4  1  0  0  0
  3 82  1  0  0  0
  3 83  1  0  0  0
  4  5  1  0  0  0
  4 84  1  0  0  0
  4 85  1  0  0  0
  5  6  1  0  0  0
  5 26  1  0  0  0
  5 86  1  0  0  0
  6 25  1  0  0  0
  6 87  1  0  0  0
  6 88  1  0  0  0
  7  8  2  0  0  0
  7 26  1  0  0  0
  7 29  1  0  0  0
  8  9  1  0  0  0
  8 22  1  0  0  0
  9 10  1  0  0  0
  9 27  2  0  0  0
 10 11  2  0  0  0
 10 15  1  0  0  0
 11 12  1  0  0  0
 11 89  1  0  0  0
 12 13  2  0  0  0
 12 90  1  0  0  0
 13 14  1  0  0  0
 13 31  1  0  0  0
 14 15  2  0  0  0
 14 91  1  0  0  0
 15 92  1  0  0  0
 16 17  2  0  0  0
 16 21  1  0  0  0
 16 31  1  0  0  0
 17 18  1  0  0  0
 17 93  1  0  0  0
 18 19  2  0  0  0
 18 94  1  0  0  0
 19 20  1  0  0  0
 19 24  1  0  0  0
 20 21  2  0  0  0
 20 95  1  0  0  0
 21 23  1  0  0  0
 22 28  1  0  0  0
 22 32  2  0  0  0
 26 27  1  0  0  0
 28 96  1  0  0  0
 28 97  1  0  0  0
 29 98  1  0  0  0
 29 99  1  0  0  0
 33 34  1  0  0  0
 33 66  1  0  0  0
 33 70  2  0  0  0
 34 36  1  0  0  0
 34 59  1  0  0  0
 34100  1  0  0  0
 35 44  2  0  0  0
 35 45  1  0  0  0
 35 68  1  0  0  0
 36 56  1  0  0  0
 36101  1  0  0  0
 37 39  1  0  0  0
 37 47  1  0  0  0
 37 66  1  0  0  0
 37102  1  0  0  0
 38 43  2  0  0  0
 38 46  1  0  0  0
 38 47  1  0  0  0
 39 64  1  0  0  0
 39 67  2  0  0  0
 40 52  1  0  0  0
 40 53  2  0  0  0
 40 58  1  0  0  0
 41103  1  0  0  0
 41104  1  0  0  0
 41105  1  0  0  0
 41 48  1  0  0  0
 42 43  1  0  0  0
 42 66  1  0  0  0
 42106  1  0  0  0
 42107  1  0  0  0
 43 44  1  0  0  0
 44108  1  0  0  0
 45 46  2  0  0  0
 45109  1  0  0  0
 46110  1  0  0  0
 47111  1  0  0  0
 47112  1  0  0  0
 48 56  1  0  0  0
 48 65  1  0  0  0
 48113  1  0  0  0
 49 50  1  0  0  0
 49 53  1  0  0  0
 49 64  1  0  0  0
 49114  1  0  0  0
 50 51  1  0  0  0
 50115  1  0  0  0
 50116  1  0  0  0
 51 52  1  0  0  0
 51117  1  0  0  0
 51118  1  0  0  0
 52119  1  0  0  0
 52120  1  0  0  0
 53 54  1  0  0  0
 54 55  2  0  0  0
 54121  1  0  0  0
 55 57  1  0  0  0
 55122  1  0  0  0
 56 69  2  0  0  0
 57 58  2  0  0  0
 57123  1  0  0  0
 58124  1  0  0  0
 59 60  1  0  0  0
 59 61  1  0  0  0
 59 62  1  0  0  0
 60125  1  0  0  0
 60126  1  0  0  0
 60127  1  0  0  0
 61128  1  0  0  0
 61129  1  0  0  0
 61130  1  0  0  0
 62131  1  0  0  0
 62132  1  0  0  0
 62133  1  0  0  0
 63 65  1  0  0  0
 63134  1  0  0  0
 63135  1  0  0  0
 63136  1  0  0  0
 64137  1  0  0  0
 65138  1  0  0  0
 68 77  1  0  0  0
 71 72  1  0  0  0
 71 73  2  0  0  0
 71139  1  0  0  0
 72 74  2  0  0  0
 72140  1  0  0  0
 73 75  1  0  0  0
 73 78  1  0  0  0
 74 77  1  0  0  0
 74 78  1  0  0  0
 75 79  1  0  0  0
 75141  1  0  0  0
 75142  1  0  0  0
 76 78  1  0  0  0
 76 79  1  0  0  0
 76143  1  0  0  0
 76144  1  0  0  0
 77145  1  0  0  0
 77146  1  0  0  0
M  ISO  4   1 100  68 101  77 101  79 100
M  END
> <chiral flag>
0

> <version>
0

> <s_m_source_file>
/data/baiqing/PycharmProjects/Reinvent-master-3.2/result/LINK_invent/BTK/process_docking_weight1_custom_sum_contain_oxygen_bond_distance_aromatic_linkinvent_7_9_3/rearranged_h_0185.sdf

> <i_m_source_file_index>
88

> <r_mmod_Potential_Energy-OPLS-2005>
3159.3525390625

> <r_mmod_Stretch_Energy-OPLS-2005>
1269.23559570312

> <r_mmod_Bend_Energy-OPLS-2005>
924.060668945312

> <r_mmod_Torsional_Energy-OPLS-2005>
265.341705322266

> <r_mmod_Improper_Torsional_Energy-OPLS-2005>
3.99309968948364

> <r_mmod_Van_der_Waal_Energy-OPLS-2005>
110.563987731934

> <r_mmod_Electrostatic_Energy-OPLS-2005>
-319.336547851562

> <r_mmod_Solvation_Energy-OPLS-2005>
-227.210556030273

> <b_mmod_Minimization_Converged-OPLS-2005>
0

> <r_mmod_RMS_Derivative-OPLS-2005>
0.869454503059387

$$$$
88
                    3D
 Structure written by MMmdl.
157166  0  0  1  0            999 V2000
  -30.6270  -14.8429   20.4451 C   0  0  0  0  0  0
  -30.4339  -12.5309   19.4648 C   0  0  0  0  0  0
  -29.5013  -12.4988   18.2346 C   0  0  0  0  0  0
  -28.0407  -12.2732   18.6690 C   0  0  0  0  0  0
  -27.6260  -13.2025   19.8353 C   0  0  2  0  0  0
  -28.6857  -13.2208   20.9644 C   0  0  0  0  0  0
  -25.2437  -13.8079   20.5657 C   0  0  0  0  0  0
  -24.1747  -13.0360   20.9237 C   0  0  0  0  0  0
  -24.6334  -11.6845   20.8799 C   0  0  0  0  0  0
  -23.9016  -10.4247   21.0440 C   0  0  0  0  0  0
  -24.3584   -9.4171   21.9207 C   0  0  0  0  0  0
  -23.6261   -8.2211   22.0761 C   0  0  0  0  0  0
  -22.4247   -8.0256   21.3545 C   0  0  0  0  0  0
  -21.9881   -9.0229   20.4649 C   0  0  0  0  0  0
  -22.7203  -10.2105   20.3070 C   0  0  0  0  0  0
  -21.6835   -6.0726   22.5282 C   0  0  0  0  0  0
  -21.4007   -6.5638   23.8216 C   0  0  0  0  0  0
  -21.3650   -5.6791   24.9175 C   0  0  0  0  0  0
  -21.6042   -4.3056   24.7227 C   0  0  0  0  0  0
  -21.8821   -3.8145   23.4349 C   0  0  0  0  0  0
  -21.9190   -4.6958   22.3404 C   0  0  0  0  0  0
  -22.7784  -13.5179   21.1874 C   0  0  0  0  0  0
  -22.1661   -4.2151   21.0978 F   0  0  0  0  0  0
  -21.5617   -3.4537   25.7738 F   0  0  0  0  0  0
  -29.9618  -13.6246   20.3550 N   0  0  0  0  0  0
  -26.2854  -12.9238   20.3276 N   0  0  0  0  0  0
  -25.9256  -11.6422   20.5823 N   0  0  0  0  0  0
  -22.0422  -12.8199   22.0439 N   0  0  0  0  0  0
  -25.3982  -15.1796   20.3943 N   0  0  0  0  0  0
  -31.8429  -14.8464   20.2288 O   0  0  0  0  0  0
  -21.6612   -6.8860   21.4241 O   0  0  0  0  0  0
  -22.3490  -14.5491   20.6707 O   0  0  0  0  0  0
  -24.6331  -31.8525   23.1963 C   0  0  0  0  0  0
  -25.9147  -32.4738   23.8318 C   0  0  1  0  0  0
  -27.2284  -27.2448   20.1468 C   0  0  0  0  0  0
  -25.5930  -33.8540   24.2240 N   0  0  0  0  0  0
  -23.4322  -30.4725   21.5398 C   0  0  2  0  0  0
  -24.8826  -28.9113   20.1167 C   0  0  0  0  0  0
  -22.7512  -29.4593   22.4916 C   0  0  0  0  0  0
  -18.0289  -28.1395   22.8478 C   0  0  0  0  0  0
  -24.1484  -36.7273   23.2643 C   0  0  0  0  0  0
  -25.9789  -30.7620   21.3774 C   0  0  0  0  0  0
  -26.0550  -29.3808   20.7241 C   0  0  0  0  0  0
  -27.2327  -28.5625   20.7223 C   0  0  0  0  0  0
  -26.0346  -26.8452   19.5085 C   0  0  0  0  0  0
  -24.8782  -27.6510   19.4976 C   0  0  0  0  0  0
  -23.6527  -29.7997   20.1592 C   0  0  0  0  0  0
  -25.4114  -36.3059   24.0323 C   0  0  1  0  0  0
  -20.5892  -28.3712   23.1258 C   0  0  2  0  0  0
  -20.6774  -26.9425   22.5404 C   0  0  0  0  0  0
  -19.5750  -26.6389   21.5207 C   0  0  0  0  0  0
  -18.1933  -26.7934   22.1623 C   0  0  0  0  0  0
  -19.1543  -28.8870   23.2862 C   0  0  0  0  0  0
  -18.9466  -30.1469   23.8884 C   0  0  0  0  0  0
  -17.6463  -30.6594   24.0563 C   0  0  0  0  0  0
  -25.9058  -34.9430   23.5089 C   0  0  0  0  0  0
  -16.5355  -29.9088   23.6334 C   0  0  0  0  0  0
  -16.7275  -28.6506   23.0356 C   0  0  0  0  0  0
  -26.4507  -31.6578   25.0723 C   0  0  0  0  0  0
  -25.3723  -31.3738   26.1442 C   0  0  0  0  0  0
  -27.0364  -30.2990   24.6236 C   0  0  0  0  0  0
  -27.6054  -32.4329   25.7502 C   0  0  0  0  0  0
  -27.5571  -37.1794   24.8472 C   0  0  0  0  0  0
  -21.4217  -29.3048   22.3645 N   0  0  0  0  0  0
  -26.4287  -37.3760   23.9408 N   0  0  0  0  0  0
  -24.7006  -31.0473   22.0945 N   0  0  0  0  0  0
  -23.4189  -28.8141   23.3038 O   0  0  0  0  0  0
  -28.3188  -26.3398   20.1566 O   0  0  0  0  0  0
  -26.5638  -34.8912   22.4664 O   0  0  0  0  0  0
  -23.5473  -32.1358   23.7240 O   0  0  0  0  0  0
  -29.2412  -23.6782   18.7243 C   0  0  0  0  0  0
  -29.7413  -22.4949   18.1564 C   0  0  0  0  0  0
  -28.7958  -23.6413   20.0516 C   0  0  0  0  0  0
  -29.3914  -21.3055   20.0941 C   0  0  0  0  0  0
  -28.2628  -17.8878   20.4232 C   0  0  0  0  0  0
  -28.5566  -16.3746   20.2661 C   0  0  0  0  0  0
  -30.5590  -17.4780   20.7558 C   0  0  0  0  0  0
  -29.5769  -18.6256   20.1998 C   0  0  2  0  0  0
  -30.2386  -22.4709   16.7264 C   0  0  0  0  0  0
  -28.1002  -24.9383   20.6913 C   0  0  0  0  0  0
  -29.7991  -21.3271   18.8349 N   0  0  0  0  0  0
  -28.8996  -22.4169   20.7243 N   0  0  0  0  0  0
  -29.9564  -16.0821   20.6008 N   0  0  0  0  0  0
  -29.5498  -20.0443   20.7711 N   0  0  0  0  0  0
  -31.4654  -12.6760   19.1397 H   0  0  0  0  0  0
  -30.4199  -11.5735   19.9878 H   0  0  0  0  0  0
  -29.8113  -11.7127   17.5448 H   0  0  0  0  0  0
  -29.5826  -13.4378   17.6849 H   0  0  0  0  0  0
  -27.9440  -11.2319   18.9784 H   0  0  0  0  0  0
  -27.3669  -12.4038   17.8210 H   0  0  0  0  0  0
  -27.5694  -14.1766   19.3693 H   0  0  0  0  0  0
  -28.7730  -12.2352   21.4240 H   0  0  0  0  0  0
  -28.4071  -13.8961   21.7729 H   0  0  0  0  0  0
  -25.2724   -9.5652   22.4786 H   0  0  0  0  0  0
  -23.9969   -7.4600   22.7477 H   0  0  0  0  0  0
  -21.0814   -8.8748   19.8950 H   0  0  0  0  0  0
  -22.3665  -10.9652   19.6188 H   0  0  0  0  0  0
  -21.2003   -7.6148   23.9718 H   0  0  0  0  0  0
  -21.1461   -6.0519   25.9076 H   0  0  0  0  0  0
  -22.0605   -2.7608   23.2846 H   0  0  0  0  0  0
  -22.4028  -11.9871   22.4857 H   0  0  0  0  0  0
  -21.1047  -13.1259   22.2631 H   0  0  0  0  0  0
  -24.6224  -15.8224   20.5071 H   0  0  0  0  0  0
  -26.2371  -15.6284   20.0522 H   0  0  0  0  0  0
  -26.7218  -32.5391   23.1065 H   0  0  0  0  0  0
  -25.0060  -33.9674   25.0372 H   0  0  0  0  0  0
  -22.7305  -31.2954   21.3889 H   0  0  0  0  0  0
  -23.3741  -35.9612   23.3316 H   0  0  0  0  0  0
  -24.3569  -36.8888   22.2056 H   0  0  0  0  0  0
  -23.7244  -37.6477   23.6664 H   0  0  0  0  0  0
  -26.1165  -31.5186   20.6037 H   0  0  0  0  0  0
  -26.8557  -30.8156   22.0112 H   0  0  0  0  0  0
  -28.1330  -28.9214   21.2019 H   0  0  0  0  0  0
  -25.9859  -25.8812   19.0225 H   0  0  0  0  0  0
  -23.9815  -27.2856   19.0163 H   0  0  0  0  0  0
  -23.7782  -30.5723   19.3997 H   0  0  0  0  0  0
  -22.7719  -29.2309   19.8555 H   0  0  0  0  0  0
  -25.1296  -36.1904   25.0813 H   0  0  0  0  0  0
  -20.9979  -28.3293   24.1381 H   0  0  0  0  0  0
  -20.5662  -26.2325   23.3615 H   0  0  0  0  0  0
  -21.6644  -26.7441   22.1208 H   0  0  0  0  0  0
  -19.6912  -25.6295   21.1246 H   0  0  0  0  0  0
  -19.6684  -27.3191   20.6729 H   0  0  0  0  0  0
  -17.4197  -26.6673   21.4034 H   0  0  0  0  0  0
  -18.0345  -26.0083   22.9027 H   0  0  0  0  0  0
  -19.7944  -30.7287   24.2247 H   0  0  0  0  0  0
  -17.5021  -31.6273   24.5170 H   0  0  0  0  0  0
  -15.5354  -30.2988   23.7675 H   0  0  0  0  0  0
  -15.8676  -28.0824   22.7081 H   0  0  0  0  0  0
  -24.5899  -30.7088   25.7770 H   0  0  0  0  0  0
  -24.8915  -32.2911   26.4848 H   0  0  0  0  0  0
  -25.8030  -30.8927   27.0233 H   0  0  0  0  0  0
  -26.2964  -29.6729   24.1239 H   0  0  0  0  0  0
  -27.4009  -29.7265   25.4776 H   0  0  0  0  0  0
  -27.8850  -30.4252   23.9512 H   0  0  0  0  0  0
  -27.2652  -33.3634   26.2063 H   0  0  0  0  0  0
  -28.3873  -32.6886   25.0338 H   0  0  0  0  0  0
  -28.0717  -31.8470   26.5435 H   0  0  0  0  0  0
  -28.2604  -38.0077   24.7491 H   0  0  0  0  0  0
  -28.1049  -36.2603   24.6329 H   0  0  0  0  0  0
  -27.2286  -37.1485   25.8877 H   0  0  0  0  0  0
  -20.9416  -29.8751   21.6824 H   0  0  0  0  0  0
  -26.0160  -38.2833   24.1401 H   0  0  0  0  0  0
  -29.1782  -24.5966   18.1537 H   0  0  0  0  0  0
  -27.9072  -18.0702   21.4386 H   0  0  0  0  0  0
  -27.4767  -18.2268   19.7466 H   0  0  0  0  0  0
  -27.8793  -15.8227   20.9096 H   0  0  0  0  0  0
  -28.3931  -16.1037   19.2234 H   0  0  0  0  0  0
  -30.7362  -17.6313   21.8212 H   0  0  0  0  0  0
  -31.5331  -17.5353   20.2682 H   0  0  0  0  0  0
  -29.7395  -18.7007   19.1236 H   0  0  0  0  0  0
  -31.0412  -21.7443   16.6021 H   0  0  0  0  0  0
  -30.6250  -23.4468   16.4328 H   0  0  0  0  0  0
  -29.4289  -22.2079   16.0466 H   0  0  0  0  0  0
  -28.4113  -24.9720   21.7353 H   0  0  0  0  0  0
  -27.0336  -24.7178   20.7340 H   0  0  0  0  0  0
  -29.3031  -20.0929   21.7521 H   0  0  0  0  0  0
  1 25  1  0  0  0
  1 30  2  0  0  0
  1 83  1  0  0  0
  2  3  1  0  0  0
  2 25  1  0  0  0
  2 85  1  0  0  0
  2 86  1  0  0  0
  3  4  1  0  0  0
  3 87  1  0  0  0
  3 88  1  0  0  0
  4  5  1  0  0  0
  4 89  1  0  0  0
  4 90  1  0  0  0
  5  6  1  0  0  0
  5 26  1  0  0  0
  5 91  1  0  0  0
  6 25  1  0  0  0
  6 92  1  0  0  0
  6 93  1  0  0  0
  7  8  2  0  0  0
  7 26  1  0  0  0
  7 29  1  0  0  0
  8  9  1  0  0  0
  8 22  1  0  0  0
  9 10  1  0  0  0
  9 27  2  0  0  0
 10 11  2  0  0  0
 10 15  1  0  0  0
 11 12  1  0  0  0
 11 94  1  0  0  0
 12 13  2  0  0  0
 12 95  1  0  0  0
 13 14  1  0  0  0
 13 31  1  0  0  0
 14 15  2  0  0  0
 14 96  1  0  0  0
 15 97  1  0  0  0
 16 17  2  0  0  0
 16 21  1  0  0  0
 16 31  1  0  0  0
 17 18  1  0  0  0
 17 98  1  0  0  0
 18 19  2  0  0  0
 18 99  1  0  0  0
 19 20  1  0  0  0
 19 24  1  0  0  0
 20 21  2  0  0  0
 20100  1  0  0  0
 21 23  1  0  0  0
 22 28  1  0  0  0
 22 32  2  0  0  0
 26 27  1  0  0  0
 28101  1  0  0  0
 28102  1  0  0  0
 29103  1  0  0  0
 29104  1  0  0  0
 33 34  1  0  0  0
 33 66  1  0  0  0
 33 70  2  0  0  0
 34 36  1  0  0  0
 34 59  1  0  0  0
 34105  1  0  0  0
 35 44  2  0  0  0
 35 45  1  0  0  0
 35 68  1  0  0  0
 36 56  1  0  0  0
 36106  1  0  0  0
 37 39  1  0  0  0
 37 47  1  0  0  0
 37 66  1  0  0  0
 37107  1  0  0  0
 38 43  2  0  0  0
 38 46  1  0  0  0
 38 47  1  0  0  0
 39 64  1  0  0  0
 39 67  2  0  0  0
 40 52  1  0  0  0
 40 53  2  0  0  0
 40 58  1  0  0  0
 41108  1  0  0  0
 41109  1  0  0  0
 41110  1  0  0  0
 41 48  1  0  0  0
 42 43  1  0  0  0
 42 66  1  0  0  0
 42111  1  0  0  0
 42112  1  0  0  0
 43 44  1  0  0  0
 44113  1  0  0  0
 45 46  2  0  0  0
 45114  1  0  0  0
 46115  1  0  0  0
 47116  1  0  0  0
 47117  1  0  0  0
 48 56  1  0  0  0
 48 65  1  0  0  0
 48118  1  0  0  0
 49 50  1  0  0  0
 49 53  1  0  0  0
 49 64  1  0  0  0
 49119  1  0  0  0
 50 51  1  0  0  0
 50120  1  0  0  0
 50121  1  0  0  0
 51 52  1  0  0  0
 51122  1  0  0  0
 51123  1  0  0  0
 52124  1  0  0  0
 52125  1  0  0  0
 53 54  1  0  0  0
 54 55  2  0  0  0
 54126  1  0  0  0
 55 57  1  0  0  0
 55127  1  0  0  0
 56 69  2  0  0  0
 57 58  2  0  0  0
 57128  1  0  0  0
 58129  1  0  0  0
 59 60  1  0  0  0
 59 61  1  0  0  0
 59 62  1  0  0  0
 60130  1  0  0  0
 60131  1  0  0  0
 60132  1  0  0  0
 61133  1  0  0  0
 61134  1  0  0  0
 61135  1  0  0  0
 62136  1  0  0  0
 62137  1  0  0  0
 62138  1  0  0  0
 63 65  1  0  0  0
 63139  1  0  0  0
 63140  1  0  0  0
 63141  1  0  0  0
 64142  1  0  0  0
 65143  1  0  0  0
 68 80  1  0  0  0
 71 72  2  0  0  0
 71 73  1  0  0  0
 71144  1  0  0  0
 72 79  1  0  0  0
 72 81  1  0  0  0
 73 80  1  0  0  0
 73 82  2  0  0  0
 74 81  2  0  0  0
 74 82  1  0  0  0
 74 84  1  0  0  0
 75 76  1  0  0  0
 75 78  1  0  0  0
 75145  1  0  0  0
 75146  1  0  0  0
 76 83  1  0  0  0
 76147  1  0  0  0
 76148  1  0  0  0
 77 78  1  0  0  0
 77 83  1  0  0  0
 77149  1  0  0  0
 77150  1  0  0  0
 78 84  1  0  0  0
 78151  1  0  0  0
 79152  1  0  0  0
 79153  1  0  0  0
 79154  1  0  0  0
 80155  1  0  0  0
 80156  1  0  0  0
 84157  1  0  0  0
M  ISO  4   1 100  68 101  80 101  83 100
M  END
> <chiral flag>
0

> <version>
0

> <s_m_source_file>
/data/baiqing/PycharmProjects/Reinvent-master-3.2/result/LINK_invent/BTK/process_docking_weight1_custom_sum_contain_oxygen_bond_distance_aromatic_linkinvent_7_9_3/rearranged_h_0185.sdf

> <i_m_source_file_index>
89

> <r_mmod_Potential_Energy-OPLS-2005>
-129.391952514648

> <r_mmod_Stretch_Energy-OPLS-2005>
135.448822021484

> <r_mmod_Bend_Energy-OPLS-2005>
215.566604614258

> <r_mmod_Torsional_Energy-OPLS-2005>
327.542816162109

> <r_mmod_Improper_Torsional_Energy-OPLS-2005>
5.68355751037598

> <r_mmod_Van_der_Waal_Energy-OPLS-2005>
143.240615844727

> <r_mmod_Electrostatic_Energy-OPLS-2005>
-830.935607910156

> <r_mmod_Solvation_Energy-OPLS-2005>
-243.473846435547

> <b_mmod_Minimization_Converged-OPLS-2005>
0

> <r_mmod_RMS_Derivative-OPLS-2005>
0.971842646598816

$$$$
89
                    3D
 Structure written by MMmdl.
150159  0  0  1  0            999 V2000
  -30.4884  -15.0935   20.3997 C   0  0  0  0  0  0
  -30.4440  -12.6887   19.5070 C   0  0  0  0  0  0
  -29.5282  -12.5493   18.2670 C   0  0  0  0  0  0
  -28.0675  -12.3071   18.6902 C   0  0  0  0  0  0
  -27.6218  -13.2587   19.8300 C   0  0  2  0  0  0
  -28.6627  -13.3500   20.9653 C   0  0  0  0  0  0
  -25.2433  -13.8225   20.5725 C   0  0  0  0  0  0
  -24.1766  -13.0435   20.9245 C   0  0  0  0  0  0
  -24.6397  -11.6926   20.8759 C   0  0  0  0  0  0
  -23.9085  -10.4291   21.0408 C   0  0  0  0  0  0
  -24.3631   -9.4205   21.9185 C   0  0  0  0  0  0
  -23.6301   -8.2243   22.0755 C   0  0  0  0  0  0
  -22.4283   -8.0282   21.3545 C   0  0  0  0  0  0
  -21.9923   -9.0256   20.4646 C   0  0  0  0  0  0
  -22.7256  -10.2133   20.3056 C   0  0  0  0  0  0
  -21.6855   -6.0737   22.5279 C   0  0  0  0  0  0
  -21.4016   -6.5640   23.8212 C   0  0  0  0  0  0
  -21.3660   -5.6793   24.9174 C   0  0  0  0  0  0
  -21.6044   -4.3056   24.7224 C   0  0  0  0  0  0
  -21.8819   -3.8147   23.4345 C   0  0  0  0  0  0
  -21.9193   -4.6964   22.3402 C   0  0  0  0  0  0
  -22.7784  -13.5199   21.1894 C   0  0  0  0  0  0
  -22.1662   -4.2149   21.0979 F   0  0  0  0  0  0
  -21.5629   -3.4539   25.7737 F   0  0  0  0  0  0
  -29.9173  -13.8083   20.3518 N   0  0  0  0  0  0
  -26.2856  -12.9472   20.3225 N   0  0  0  0  0  0
  -25.9331  -11.6593   20.5730 N   0  0  0  0  0  0
  -22.0437  -12.8183   22.0448 N   0  0  0  0  0  0
  -25.4074  -15.1958   20.4145 N   0  0  0  0  0  0
  -31.7037  -15.1402   20.1744 O   0  0  0  0  0  0
  -21.6643   -6.8881   21.4241 O   0  0  0  0  0  0
  -22.3466  -14.5501   20.6735 O   0  0  0  0  0  0
  -24.6536  -31.8349   23.1807 C   0  0  0  0  0  0
  -25.9262  -32.4648   23.8232 C   0  0  1  0  0  0
  -27.2130  -27.0292   20.1719 C   0  0  0  0  0  0
  -25.5970  -33.8458   24.2141 N   0  0  0  0  0  0
  -23.4628  -30.4515   21.5287 C   0  0  2  0  0  0
  -24.9141  -28.8599   20.1150 C   0  0  0  0  0  0
  -22.7621  -29.4501   22.4826 C   0  0  0  0  0  0
  -18.0314  -28.1403   22.8474 C   0  0  0  0  0  0
  -24.1492  -36.7232   23.2644 C   0  0  0  0  0  0
  -26.0271  -30.6739   21.3973 C   0  0  0  0  0  0
  -26.0965  -29.2739   20.7421 C   0  0  0  0  0  0
  -27.2464  -28.3783   20.7485 C   0  0  0  0  0  0
  -26.0064  -26.7515   19.4910 C   0  0  0  0  0  0
  -24.8884  -27.6155   19.4706 C   0  0  0  0  0  0
  -23.6967  -29.7760   20.1515 C   0  0  0  0  0  0
  -25.4129  -36.3003   24.0308 C   0  0  1  0  0  0
  -20.5934  -28.3740   23.1210 C   0  0  2  0  0  0
  -20.6795  -26.9433   22.5401 C   0  0  0  0  0  0
  -19.5767  -26.6380   21.5214 C   0  0  0  0  0  0
  -18.1949  -26.7939   22.1625 C   0  0  0  0  0  0
  -19.1574  -28.8891   23.2831 C   0  0  0  0  0  0
  -18.9486  -30.1484   23.8862 C   0  0  0  0  0  0
  -17.6480  -30.6596   24.0557 C   0  0  0  0  0  0
  -25.9088  -34.9382   23.5038 C   0  0  0  0  0  0
  -16.5371  -29.9084   23.6341 C   0  0  0  0  0  0
  -16.7298  -28.6504   23.0362 C   0  0  0  0  0  0
  -26.4546  -31.6553   25.0717 C   0  0  0  0  0  0
  -25.3698  -31.3772   26.1389 C   0  0  0  0  0  0
  -27.0430  -30.2934   24.6379 C   0  0  0  0  0  0
  -27.6055  -32.4342   25.7511 C   0  0  0  0  0  0
  -27.5573  -37.1774   24.8466 C   0  0  0  0  0  0
  -21.4302  -29.3049   22.3573 N   0  0  0  0  0  0
  -26.4284  -37.3727   23.9408 N   0  0  0  0  0  0
  -24.7351  -31.0108   22.0896 N   0  0  0  0  0  0
  -23.4216  -28.8054   23.3019 O   0  0  0  0  0  0
  -28.2287  -25.9687   20.2063 O   0  0  0  0  0  0
  -26.5684  -34.8896   22.4624 O   0  0  0  0  0  0
  -23.5629  -32.1273   23.6960 O   0  0  0  0  0  0
  -30.1059  -21.4806   18.7195 C   0  0  0  0  0  0
  -29.5570  -22.7672   19.0725 C   0  0  0  0  0  0
  -29.8129  -20.3073   19.4746 C   0  0  0  0  0  0
  -28.9975  -20.4796   20.5719 C   0  0  0  0  0  0
  -28.6915  -22.9660   20.1885 C   0  0  0  0  0  0
  -30.2388  -18.7964   19.2455 C   0  0  0  0  0  0
  -28.8381  -19.0093   21.2086 C   0  0  0  0  0  0
  -29.9024  -17.9195   20.5438 C   0  0  1  0  0  0
  -27.8575  -24.4280   20.4606 C   0  0  0  0  0  0
  -28.4417  -21.7540   20.9153 N   0  0  0  0  0  0
  -29.6906  -16.3009   20.5019 N   0  0  0  0  0  0
  -31.4699  -12.8749   19.1857 H   0  0  0  0  0  0
  -30.4757  -11.7571   20.0743 H   0  0  0  0  0  0
  -29.8742  -11.7361   17.6276 H   0  0  0  0  0  0
  -29.5884  -13.4584   17.6667 H   0  0  0  0  0  0
  -27.9909  -11.2723   19.0263 H   0  0  0  0  0  0
  -27.4010  -12.3993   17.8318 H   0  0  0  0  0  0
  -27.5634  -14.2460   19.3710 H   0  0  0  0  0  0
  -28.7884  -12.3899   21.4681 H   0  0  0  0  0  0
  -28.3364  -14.0596   21.7273 H   0  0  0  0  0  0
  -25.2773   -9.5680   22.4764 H   0  0  0  0  0  0
  -24.0007   -7.4633   22.7476 H   0  0  0  0  0  0
  -21.0854   -8.8778   19.8951 H   0  0  0  0  0  0
  -22.3715  -10.9674   19.6167 H   0  0  0  0  0  0
  -21.2009   -7.6148   23.9715 H   0  0  0  0  0  0
  -21.1483   -6.0523   25.9077 H   0  0  0  0  0  0
  -22.0598   -2.7609   23.2846 H   0  0  0  0  0  0
  -22.4067  -11.9852   22.4839 H   0  0  0  0  0  0
  -21.1049  -13.1194   22.2649 H   0  0  0  0  0  0
  -24.6330  -15.8420   20.5220 H   0  0  0  0  0  0
  -26.2388  -15.6362   20.0437 H   0  0  0  0  0  0
  -26.7330  -32.5220   23.0954 H   0  0  0  0  0  0
  -25.0085  -33.9557   25.0267 H   0  0  0  0  0  0
  -22.7707  -31.2805   21.3668 H   0  0  0  0  0  0
  -23.3763  -35.9554   23.3287 H   0  0  0  0  0  0
  -24.3572  -36.8892   22.2063 H   0  0  0  0  0  0
  -23.7239  -37.6415   23.6703 H   0  0  0  0  0  0
  -26.1963  -31.4207   20.6204 H   0  0  0  0  0  0
  -26.8920  -30.7274   22.0467 H   0  0  0  0  0  0
  -28.1452  -28.6934   21.2597 H   0  0  0  0  0  0
  -25.8946  -25.8147   18.9671 H   0  0  0  0  0  0
  -23.9924  -27.2974   18.9554 H   0  0  0  0  0  0
  -23.8451  -30.5481   19.3957 H   0  0  0  0  0  0
  -22.8084  -29.2259   19.8357 H   0  0  0  0  0  0
  -25.1322  -36.1817   25.0799 H   0  0  0  0  0  0
  -21.0023  -28.3338   24.1333 H   0  0  0  0  0  0
  -20.5687  -26.2356   23.3631 H   0  0  0  0  0  0
  -21.6659  -26.7425   22.1201 H   0  0  0  0  0  0
  -19.6927  -25.6282   21.1267 H   0  0  0  0  0  0
  -19.6703  -27.3171   20.6728 H   0  0  0  0  0  0
  -17.4218  -26.6683   21.4029 H   0  0  0  0  0  0
  -18.0346  -26.0088   22.9029 H   0  0  0  0  0  0
  -19.7960  -30.7311   24.2215 H   0  0  0  0  0  0
  -17.5031  -31.6272   24.5166 H   0  0  0  0  0  0
  -15.5369  -30.2974   23.7684 H   0  0  0  0  0  0
  -15.8699  -28.0809   22.7099 H   0  0  0  0  0  0
  -24.5890  -30.7110   25.7702 H   0  0  0  0  0  0
  -24.8874  -32.2964   26.4724 H   0  0  0  0  0  0
  -25.7952  -30.9002   27.0227 H   0  0  0  0  0  0
  -26.3078  -29.6631   24.1363 H   0  0  0  0  0  0
  -27.3977  -29.7268   25.4998 H   0  0  0  0  0  0
  -27.9012  -30.4142   23.9766 H   0  0  0  0  0  0
  -27.2636  -33.3675   26.1996 H   0  0  0  0  0  0
  -28.3914  -32.6851   25.0374 H   0  0  0  0  0  0
  -28.0670  -31.8530   26.5504 H   0  0  0  0  0  0
  -28.2578  -38.0082   24.7513 H   0  0  0  0  0  0
  -28.1082  -36.2609   24.6296 H   0  0  0  0  0  0
  -27.2289  -37.1422   25.8869 H   0  0  0  0  0  0
  -20.9535  -29.8752   21.6727 H   0  0  0  0  0  0
  -26.0141  -38.2791   24.1413 H   0  0  0  0  0  0
  -30.7348  -21.4004   17.8443 H   0  0  0  0  0  0
  -29.7769  -23.6164   18.4393 H   0  0  0  0  0  0
  -31.2977  -18.7317   18.9921 H   0  0  0  0  0  0
  -29.6814  -18.4163   18.3889 H   0  0  0  0  0  0
  -27.8154  -18.6818   21.0222 H   0  0  0  0  0  0
  -28.9609  -19.0582   22.2906 H   0  0  0  0  0  0
  -30.7936  -18.0233   21.1645 H   0  0  0  0  0  0
  -27.6053  -24.3956   21.5205 H   0  0  0  0  0  0
  -26.9071  -24.2456   19.9653 H   0  0  0  0  0  0
  -28.7169  -16.0590   20.6074 H   0  0  0  0  0  0
  1 25  1  0  0  0
  1 30  2  0  0  0
  1 81  1  0  0  0
  2  3  1  0  0  0
  2 25  1  0  0  0
  2 82  1  0  0  0
  2 83  1  0  0  0
  3  4  1  0  0  0
  3 84  1  0  0  0
  3 85  1  0  0  0
  4  5  1  0  0  0
  4 86  1  0  0  0
  4 87  1  0  0  0
  5  6  1  0  0  0
  5 26  1  0  0  0
  5 88  1  0  0  0
  6 25  1  0  0  0
  6 89  1  0  0  0
  6 90  1  0  0  0
  7  8  2  0  0  0
  7 26  1  0  0  0
  7 29  1  0  0  0
  8  9  1  0  0  0
  8 22  1  0  0  0
  9 10  1  0  0  0
  9 27  2  0  0  0
 10 11  2  0  0  0
 10 15  1  0  0  0
 11 12  1  0  0  0
 11 91  1  0  0  0
 12 13  2  0  0  0
 12 92  1  0  0  0
 13 14  1  0  0  0
 13 31  1  0  0  0
 14 15  2  0  0  0
 14 93  1  0  0  0
 15 94  1  0  0  0
 16 17  2  0  0  0
 16 21  1  0  0  0
 16 31  1  0  0  0
 17 18  1  0  0  0
 17 95  1  0  0  0
 18 19  2  0  0  0
 18 96  1  0  0  0
 19 20  1  0  0  0
 19 24  1  0  0  0
 20 21  2  0  0  0
 20 97  1  0  0  0
 21 23  1  0  0  0
 22 28  1  0  0  0
 22 32  2  0  0  0
 26 27  1  0  0  0
 28 98  1  0  0  0
 28 99  1  0  0  0
 29100  1  0  0  0
 29101  1  0  0  0
 33 34  1  0  0  0
 33 66  1  0  0  0
 33 70  2  0  0  0
 34 36  1  0  0  0
 34 59  1  0  0  0
 34102  1  0  0  0
 35 44  2  0  0  0
 35 45  1  0  0  0
 35 68  1  0  0  0
 36 56  1  0  0  0
 36103  1  0  0  0
 37 39  1  0  0  0
 37 47  1  0  0  0
 37 66  1  0  0  0
 37104  1  0  0  0
 38 43  2  0  0  0
 38 46  1  0  0  0
 38 47  1  0  0  0
 39 64  1  0  0  0
 39 67  2  0  0  0
 40 52  1  0  0  0
 40 53  2  0  0  0
 40 58  1  0  0  0
 41105  1  0  0  0
 41106  1  0  0  0
 41107  1  0  0  0
 41 48  1  0  0  0
 42 43  1  0  0  0
 42 66  1  0  0  0
 42108  1  0  0  0
 42109  1  0  0  0
 43 44  1  0  0  0
 44110  1  0  0  0
 45 46  2  0  0  0
 45111  1  0  0  0
 46112  1  0  0  0
 47113  1  0  0  0
 47114  1  0  0  0
 48 56  1  0  0  0
 48 65  1  0  0  0
 48115  1  0  0  0
 49 50  1  0  0  0
 49 53  1  0  0  0
 49 64  1  0  0  0
 49116  1  0  0  0
 50 51  1  0  0  0
 50117  1  0  0  0
 50118  1  0  0  0
 51 52  1  0  0  0
 51119  1  0  0  0
 51120  1  0  0  0
 52121  1  0  0  0
 52122  1  0  0  0
 53 54  1  0  0  0
 54 55  2  0  0  0
 54123  1  0  0  0
 55 57  1  0  0  0
 55124  1  0  0  0
 56 69  2  0  0  0
 57 58  2  0  0  0
 57125  1  0  0  0
 58126  1  0  0  0
 59 60  1  0  0  0
 59 61  1  0  0  0
 59 62  1  0  0  0
 60127  1  0  0  0
 60128  1  0  0  0
 60129  1  0  0  0
 61130  1  0  0  0
 61131  1  0  0  0
 61132  1  0  0  0
 62133  1  0  0  0
 62134  1  0  0  0
 62135  1  0  0  0
 63 65  1  0  0  0
 63136  1  0  0  0
 63137  1  0  0  0
 63138  1  0  0  0
 64139  1  0  0  0
 65140  1  0  0  0
 68 79  1  0  0  0
 71 72  2  0  0  0
 71 73  1  0  0  0
 71141  1  0  0  0
 72 75  1  0  0  0
 72142  1  0  0  0
 73 74  2  0  0  0
 73 76  1  0  0  0
 74 77  1  0  0  0
 74 80  1  0  0  0
 75 79  1  0  0  0
 75 80  2  0  0  0
 76 78  1  0  0  0
 76143  1  0  0  0
 76144  1  0  0  0
 77 78  1  0  0  0
 77145  1  0  0  0
 77146  1  0  0  0
 78 81  1  0  0  0
 78147  1  0  0  0
 79148  1  0  0  0
 79149  1  0  0  0
 81150  1  0  0  0
M  ISO  4   1 100  68 101  79 101  81 100
M  END
> <chiral flag>
0

> <version>
0

> <s_m_source_file>
/data/baiqing/PycharmProjects/Reinvent-master-3.2/result/LINK_invent/BTK/process_docking_weight1_custom_sum_contain_oxygen_bond_distance_aromatic_linkinvent_7_9_3/rearranged_h_0185.sdf

> <i_m_source_file_index>
90

> <r_mmod_Potential_Energy-OPLS-2005>
646.176330566406

> <r_mmod_Stretch_Energy-OPLS-2005>
349.853576660156

> <r_mmod_Bend_Energy-OPLS-2005>
365.227142333984

> <r_mmod_Torsional_Energy-OPLS-2005>
223.265563964844

> <r_mmod_Improper_Torsional_Energy-OPLS-2005>
5.04314565658569

> <r_mmod_Van_der_Waal_Energy-OPLS-2005>
124.508827209473

> <r_mmod_Electrostatic_Energy-OPLS-2005>
-493.103881835938

> <r_mmod_Solvation_Energy-OPLS-2005>
-235.176086425781

> <b_mmod_Minimization_Converged-OPLS-2005>
0

> <r_mmod_RMS_Derivative-OPLS-2005>
0.151819854974747

$$$$
90
                    3D
 Structure written by MMmdl.
164173  0  0  1  0            999 V2000
  -30.6854  -14.4697   20.5848 C   0  0  0  0  0  0
  -30.4279  -12.3119   19.4144 C   0  0  0  0  0  0
  -29.4931  -12.5106   18.2018 C   0  0  0  0  0  0
  -28.0133  -12.3785   18.6153 C   0  0  0  0  0  0
  -27.6643  -13.2072   19.8810 C   0  0  2  0  0  0
  -28.7070  -12.9616   20.9955 C   0  0  0  0  0  0
  -25.2582  -13.8134   20.5694 C   0  0  0  0  0  0
  -24.1832  -13.0407   20.9194 C   0  0  0  0  0  0
  -24.6396  -11.6884   20.8750 C   0  0  0  0  0  0
  -23.9051  -10.4278   21.0405 C   0  0  0  0  0  0
  -24.3609   -9.4199   21.9187 C   0  0  0  0  0  0
  -23.6287   -8.2232   22.0750 C   0  0  0  0  0  0
  -22.4265   -8.0269   21.3537 C   0  0  0  0  0  0
  -21.9899   -9.0241   20.4634 C   0  0  0  0  0  0
  -22.7228  -10.2122   20.3048 C   0  0  0  0  0  0
  -21.6850   -6.0728   22.5278 C   0  0  0  0  0  0
  -21.4027   -6.5634   23.8218 C   0  0  0  0  0  0
  -21.3665   -5.6783   24.9173 C   0  0  0  0  0  0
  -21.6041   -4.3045   24.7220 C   0  0  0  0  0  0
  -21.8825   -3.8144   23.4342 C   0  0  0  0  0  0
  -21.9193   -4.6960   22.3399 C   0  0  0  0  0  0
  -22.7864  -13.5219   21.1840 C   0  0  0  0  0  0
  -22.1652   -4.2138   21.0975 F   0  0  0  0  0  0
  -21.5618   -3.4539   25.7741 F   0  0  0  0  0  0
  -30.0387  -13.2803   20.4512 N   0  0  0  0  0  0
  -26.3037  -12.9317   20.3399 N   0  0  0  0  0  0
  -25.9326  -11.6478   20.5784 N   0  0  0  0  0  0
  -22.0491  -12.8187   22.0371 N   0  0  0  0  0  0
  -25.4252  -15.1844   20.4055 N   0  0  0  0  0  0
  -31.7910  -14.6981   20.0849 O   0  0  0  0  0  0
  -21.6625   -6.8865   21.4239 O   0  0  0  0  0  0
  -22.3564  -14.5537   20.6706 O   0  0  0  0  0  0
  -24.6163  -31.8678   23.2101 C   0  0  0  0  0  0
  -25.9057  -32.4831   23.8389 C   0  0  1  0  0  0
  -27.2292  -27.4170   20.0897 C   0  0  0  0  0  0
  -25.5911  -33.8627   24.2321 N   0  0  0  0  0  0
  -23.4026  -30.4945   21.5510 C   0  0  2  0  0  0
  -24.8432  -28.9549   20.1171 C   0  0  0  0  0  0
  -22.7417  -29.4664   22.4964 C   0  0  0  0  0  0
  -18.0297  -28.1406   22.8495 C   0  0  0  0  0  0
  -24.1481  -36.7313   23.2638 C   0  0  0  0  0  0
  -25.9325  -30.8278   21.3617 C   0  0  0  0  0  0
  -26.0047  -29.4588   20.7132 C   0  0  0  0  0  0
  -27.1958  -28.6974   20.6947 C   0  0  0  0  0  0
  -26.0385  -26.9218   19.5053 C   0  0  0  0  0  0
  -24.8562  -27.6872   19.5126 C   0  0  0  0  0  0
  -23.6121  -29.8328   20.1629 C   0  0  0  0  0  0
  -25.4107  -36.3115   24.0331 C   0  0  1  0  0  0
  -20.5880  -28.3681   23.1315 C   0  0  2  0  0  0
  -20.6782  -26.9418   22.5403 C   0  0  0  0  0  0
  -19.5758  -26.6411   21.5204 C   0  0  0  0  0  0
  -18.1942  -26.7957   22.1619 C   0  0  0  0  0  0
  -19.1542  -28.8859   23.2913 C   0  0  0  0  0  0
  -18.9459  -30.1469   23.8909 C   0  0  0  0  0  0
  -17.6453  -30.6596   24.0579 C   0  0  0  0  0  0
  -25.9044  -34.9482   23.5126 C   0  0  0  0  0  0
  -16.5352  -29.9091   23.6339 C   0  0  0  0  0  0
  -16.7279  -28.6525   23.0336 C   0  0  0  0  0  0
  -26.4473  -31.6612   25.0721 C   0  0  0  0  0  0
  -25.3740  -31.3677   26.1461 C   0  0  0  0  0  0
  -27.0275  -30.3068   24.6053 C   0  0  0  0  0  0
  -27.6064  -32.4301   25.7490 C   0  0  0  0  0  0
  -27.5575  -37.1819   24.8468 C   0  0  0  0  0  0
  -21.4142  -29.3043   22.3706 N   0  0  0  0  0  0
  -26.4287  -37.3804   23.9410 N   0  0  0  0  0  0
  -24.6697  -31.0771   22.1007 N   0  0  0  0  0  0
  -23.4183  -28.8205   23.3005 O   0  0  0  0  0  0
  -28.4325  -26.7334   20.0818 O   0  0  0  0  0  0
  -26.5599  -34.8932   22.4686 O   0  0  0  0  0  0
  -23.5357  -32.1417   23.7504 O   0  0  0  0  0  0
  -29.0462  -24.4917   21.9338 C   0  0  0  0  0  0
  -28.4507  -24.2964   20.6693 C   0  0  0  0  0  0
  -28.3516  -22.3881   22.6060 C   0  0  0  0  0  0
  -27.7921  -22.1493   21.3188 C   0  0  0  0  0  0
  -27.8894  -17.4753   22.1275 C   0  0  0  0  0  0
  -26.8745  -18.6228   22.0014 C   0  0  0  0  0  0
  -28.8340  -19.1971   20.7451 C   0  0  0  0  0  0
  -28.8337  -17.6547   20.9326 C   0  0  1  0  0  0
  -28.2003  -21.4241   23.7680 C   0  0  0  0  0  0
  -26.8870  -20.9473   20.9900 C   0  0  0  0  0  0
  -28.5434  -25.3806   19.5901 C   0  0  0  0  0  0
  -30.1834  -16.9013   21.0839 C   0  0  0  0  0  0
  -29.0015  -23.5417   22.8983 N   0  0  0  0  0  0
  -27.8472  -23.1156   20.3561 N   0  0  0  0  0  0
  -29.9604  -15.4441   21.1644 N   0  0  0  0  0  0
  -27.4096  -19.5440   20.9716 N   0  3  2  0  0  0
  -31.4698  -12.4260   19.1109 H   0  0  0  0  0  0
  -30.3440  -11.2951   19.8009 H   0  0  0  0  0  0
  -29.7284  -11.7820   17.4242 H   0  0  0  0  0  0
  -29.6639  -13.4947   17.7609 H   0  0  0  0  0  0
  -27.8160  -11.3220   18.8026 H   0  0  0  0  0  0
  -27.3615  -12.6636   17.7879 H   0  0  0  0  0  0
  -27.7139  -14.2602   19.6020 H   0  0  0  0  0  0
  -28.6845  -11.9145   21.3014 H   0  0  0  0  0  0
  -28.4703  -13.5315   21.8952 H   0  0  0  0  0  0
  -25.2753   -9.5675   22.4761 H   0  0  0  0  0  0
  -24.0003   -7.4620   22.7468 H   0  0  0  0  0  0
  -21.0832   -8.8752   19.8939 H   0  0  0  0  0  0
  -22.3686  -10.9657   19.6155 H   0  0  0  0  0  0
  -21.2027   -7.6145   23.9715 H   0  0  0  0  0  0
  -21.1481   -6.0511   25.9070 H   0  0  0  0  0  0
  -22.0601   -2.7604   23.2839 H   0  0  0  0  0  0
  -22.4109  -11.9825   22.4708 H   0  0  0  0  0  0
  -21.1115  -13.1216   22.2593 H   0  0  0  0  0  0
  -24.6372  -15.8183   20.4799 H   0  0  0  0  0  0
  -26.2323  -15.5957   19.9560 H   0  0  0  0  0  0
  -26.7128  -32.5517   23.1146 H   0  0  0  0  0  0
  -25.0079  -33.9800   25.0475 H   0  0  0  0  0  0
  -22.6932  -31.3140   21.4153 H   0  0  0  0  0  0
  -23.3744  -35.9650   23.3318 H   0  0  0  0  0  0
  -24.3566  -36.8915   22.2051 H   0  0  0  0  0  0
  -23.7235  -37.6522   23.6641 H   0  0  0  0  0  0
  -26.0396  -31.5890   20.5870 H   0  0  0  0  0  0
  -26.8242  -30.8860   21.9741 H   0  0  0  0  0  0
  -28.0961  -29.0926   21.1433 H   0  0  0  0  0  0
  -25.9865  -25.9542   19.0306 H   0  0  0  0  0  0
  -23.9613  -27.2941   19.0492 H   0  0  0  0  0  0
  -23.7408  -30.6141   19.4126 H   0  0  0  0  0  0
  -22.7286  -29.2720   19.8520 H   0  0  0  0  0  0
  -25.1287  -36.1978   25.0822 H   0  0  0  0  0  0
  -20.9995  -28.3252   24.1426 H   0  0  0  0  0  0
  -20.5706  -26.2280   23.3582 H   0  0  0  0  0  0
  -21.6652  -26.7483   22.1174 H   0  0  0  0  0  0
  -19.6911  -25.6325   21.1227 H   0  0  0  0  0  0
  -19.6709  -27.3229   20.6738 H   0  0  0  0  0  0
  -17.4208  -26.6728   21.4022 H   0  0  0  0  0  0
  -18.0348  -26.0099   22.9012 H   0  0  0  0  0  0
  -19.7922  -30.7313   24.2264 H   0  0  0  0  0  0
  -17.4994  -31.6272   24.5189 H   0  0  0  0  0  0
  -15.5347  -30.2984   23.7661 H   0  0  0  0  0  0
  -15.8692  -28.0854   22.7003 H   0  0  0  0  0  0
  -24.5949  -30.6990   25.7781 H   0  0  0  0  0  0
  -24.8877  -32.2799   26.4925 H   0  0  0  0  0  0
  -25.8102  -30.8841   27.0210 H   0  0  0  0  0  0
  -26.2783  -29.6868   24.1117 H   0  0  0  0  0  0
  -27.4073  -29.7272   25.4473 H   0  0  0  0  0  0
  -27.8612  -30.4407   23.9159 H   0  0  0  0  0  0
  -27.2726  -33.3607   26.2088 H   0  0  0  0  0  0
  -28.3882  -32.6843   25.0321 H   0  0  0  0  0  0
  -28.0721  -31.8394   26.5388 H   0  0  0  0  0  0
  -28.2609  -38.0106   24.7515 H   0  0  0  0  0  0
  -28.1059  -36.2636   24.6301 H   0  0  0  0  0  0
  -27.2291  -37.1488   25.8873 H   0  0  0  0  0  0
  -20.9294  -29.8755   21.6927 H   0  0  0  0  0  0
  -26.0176  -38.2878   24.1428 H   0  0  0  0  0  0
  -29.5602  -25.4131   22.1690 H   0  0  0  0  0  0
  -27.4065  -16.4976   22.1401 H   0  0  0  0  0  0
  -28.4423  -17.5795   23.0636 H   0  0  0  0  0  0
  -26.7372  -19.1103   22.9659 H   0  0  0  0  0  0
  -25.8988  -18.2546   21.6822 H   0  0  0  0  0  0
  -29.1683  -19.4953   19.7498 H   0  0  0  0  0  0
  -29.4796  -19.6783   21.4804 H   0  0  0  0  0  0
  -28.3385  -17.2376   20.0534 H   0  0  0  0  0  0
  -27.1477  -21.2092   23.9501 H   0  0  0  0  0  0
  -28.6044  -21.8460   24.6894 H   0  0  0  0  0  0
  -28.7262  -20.4898   23.5783 H   0  0  0  0  0  0
  -26.4859  -21.1101   19.9896 H   0  0  0  0  0  0
  -26.0131  -21.0000   21.6411 H   0  0  0  0  0  0
  -27.8845  -25.1620   18.7508 H   0  0  0  0  0  0
  -29.5445  -25.2947   19.1681 H   0  0  0  0  0  0
  -30.8289  -17.1397   20.2374 H   0  0  0  0  0  0
  -30.7083  -17.2314   21.9812 H   0  0  0  0  0  0
  -29.0932  -15.1396   21.5808 H   0  0  0  0  0  0
  -26.9706  -19.1996   20.1310 H   0  0  0  0  0  0
  1 25  1  0  0  0
  1 30  2  0  0  0
  1 85  1  0  0  0
  2  3  1  0  0  0
  2 25  1  0  0  0
  2 87  1  0  0  0
  2 88  1  0  0  0
  3  4  1  0  0  0
  3 89  1  0  0  0
  3 90  1  0  0  0
  4  5  1  0  0  0
  4 91  1  0  0  0
  4 92  1  0  0  0
  5  6  1  0  0  0
  5 26  1  0  0  0
  5 93  1  0  0  0
  6 25  1  0  0  0
  6 94  1  0  0  0
  6 95  1  0  0  0
  7  8  2  0  0  0
  7 26  1  0  0  0
  7 29  1  0  0  0
  8  9  1  0  0  0
  8 22  1  0  0  0
  9 10  1  0  0  0
  9 27  2  0  0  0
 10 11  2  0  0  0
 10 15  1  0  0  0
 11 12  1  0  0  0
 11 96  1  0  0  0
 12 13  2  0  0  0
 12 97  1  0  0  0
 13 14  1  0  0  0
 13 31  1  0  0  0
 14 15  2  0  0  0
 14 98  1  0  0  0
 15 99  1  0  0  0
 16 17  2  0  0  0
 16 21  1  0  0  0
 16 31  1  0  0  0
 17 18  1  0  0  0
 17100  1  0  0  0
 18 19  2  0  0  0
 18101  1  0  0  0
 19 20  1  0  0  0
 19 24  1  0  0  0
 20 21  2  0  0  0
 20102  1  0  0  0
 21 23  1  0  0  0
 22 28  1  0  0  0
 22 32  2  0  0  0
 26 27  1  0  0  0
 28103  1  0  0  0
 28104  1  0  0  0
 29105  1  0  0  0
 29106  1  0  0  0
 33 34  1  0  0  0
 33 66  1  0  0  0
 33 70  2  0  0  0
 34 36  1  0  0  0
 34 59  1  0  0  0
 34107  1  0  0  0
 35 44  2  0  0  0
 35 45  1  0  0  0
 35 68  1  0  0  0
 36 56  1  0  0  0
 36108  1  0  0  0
 37 39  1  0  0  0
 37 47  1  0  0  0
 37 66  1  0  0  0
 37109  1  0  0  0
 38 43  2  0  0  0
 38 46  1  0  0  0
 38 47  1  0  0  0
 39 64  1  0  0  0
 39 67  2  0  0  0
 40 52  1  0  0  0
 40 53  2  0  0  0
 40 58  1  0  0  0
 41110  1  0  0  0
 41111  1  0  0  0
 41112  1  0  0  0
 41 48  1  0  0  0
 42 43  1  0  0  0
 42 66  1  0  0  0
 42113  1  0  0  0
 42114  1  0  0  0
 43 44  1  0  0  0
 44115  1  0  0  0
 45 46  2  0  0  0
 45116  1  0  0  0
 46117  1  0  0  0
 47118  1  0  0  0
 47119  1  0  0  0
 48 56  1  0  0  0
 48 65  1  0  0  0
 48120  1  0  0  0
 49 50  1  0  0  0
 49 53  1  0  0  0
 49 64  1  0  0  0
 49121  1  0  0  0
 50 51  1  0  0  0
 50122  1  0  0  0
 50123  1  0  0  0
 51 52  1  0  0  0
 51124  1  0  0  0
 51125  1  0  0  0
 52126  1  0  0  0
 52127  1  0  0  0
 53 54  1  0  0  0
 54 55  2  0  0  0
 54128  1  0  0  0
 55 57  1  0  0  0
 55129  1  0  0  0
 56 69  2  0  0  0
 57 58  2  0  0  0
 57130  1  0  0  0
 58131  1  0  0  0
 59 60  1  0  0  0
 59 61  1  0  0  0
 59 62  1  0  0  0
 60132  1  0  0  0
 60133  1  0  0  0
 60134  1  0  0  0
 61135  1  0  0  0
 61136  1  0  0  0
 61137  1  0  0  0
 62138  1  0  0  0
 62139  1  0  0  0
 62140  1  0  0  0
 63 65  1  0  0  0
 63141  1  0  0  0
 63142  1  0  0  0
 63143  1  0  0  0
 64144  1  0  0  0
 65145  1  0  0  0
 68 81  1  0  0  0
 71 72  2  0  0  0
 71 83  1  0  0  0
 71146  1  0  0  0
 72 81  1  0  0  0
 72 84  1  0  0  0
 73 74  1  0  0  0
 73 79  1  0  0  0
 73 83  2  0  0  0
 74 80  1  0  0  0
 74 84  2  0  0  0
 75 76  1  0  0  0
 75 78  1  0  0  0
 75147  1  0  0  0
 75148  1  0  0  0
 76 86  1  0  0  0
 76149  1  0  0  0
 76150  1  0  0  0
 77 78  1  0  0  0
 77 86  1  0  0  0
 77151  1  0  0  0
 77152  1  0  0  0
 78 82  1  0  0  0
 78153  1  0  0  0
 79154  1  0  0  0
 79155  1  0  0  0
 79156  1  0  0  0
 80157  1  0  0  0
 80158  1  0  0  0
 80 86  1  0  0  0
 81159  1  0  0  0
 81160  1  0  0  0
 82 85  1  0  0  0
 82161  1  0  0  0
 82162  1  0  0  0
 85163  1  0  0  0
 86164  1  0  0  0
M  CHG  1  86   1
M  ISO  4   1 100  68 101  81 101  85 100
M  END
> <chiral flag>
0

> <version>
0

> <s_m_source_file>
/data/baiqing/PycharmProjects/Reinvent-master-3.2/result/LINK_invent/BTK/process_docking_weight1_custom_sum_contain_oxygen_bond_distance_aromatic_linkinvent_7_9_3/rearranged_h_0185.sdf

> <i_m_source_file_index>
91

> <r_mmod_Potential_Energy-OPLS-2005>
-48.984977722168

> <r_mmod_Stretch_Energy-OPLS-2005>
42.955207824707

> <r_mmod_Bend_Energy-OPLS-2005>
169.505508422852

> <r_mmod_Torsional_Energy-OPLS-2005>
263.94873046875

> <r_mmod_Improper_Torsional_Energy-OPLS-2005>
5.93722486495972

> <r_mmod_Van_der_Waal_Energy-OPLS-2005>
141.541213989258

> <r_mmod_Electrostatic_Energy-OPLS-2005>
-197.908386230469

> <r_mmod_Solvation_Energy-OPLS-2005>
-487.357360839844

> <b_mmod_Minimization_Converged-OPLS-2005>
0

> <r_mmod_RMS_Derivative-OPLS-2005>
1.97137904167175

$$$$
91
                    3D
 Structure written by MMmdl.
154163  0  0  1  0            999 V2000
  -30.6301  -14.8376   20.4374 C   0  0  0  0  0  0
  -30.4180  -12.5151   19.4940 C   0  0  0  0  0  0
  -29.5061  -12.5189   18.2485 C   0  0  0  0  0  0
  -28.0370  -12.3299   18.6638 C   0  0  0  0  0  0
  -27.6299  -13.2516   19.8437 C   0  0  2  0  0  0
  -28.6747  -13.2614   20.9816 C   0  0  0  0  0  0
  -25.2428  -13.8233   20.5739 C   0  0  0  0  0  0
  -24.1749  -13.0440   20.9230 C   0  0  0  0  0  0
  -24.6383  -11.6931   20.8756 C   0  0  0  0  0  0
  -23.9074  -10.4294   21.0413 C   0  0  0  0  0  0
  -24.3629   -9.4205   21.9183 C   0  0  0  0  0  0
  -23.6299   -8.2244   22.0761 C   0  0  0  0  0  0
  -22.4286   -8.0283   21.3552 C   0  0  0  0  0  0
  -21.9920   -9.0255   20.4653 C   0  0  0  0  0  0
  -22.7252  -10.2129   20.3055 C   0  0  0  0  0  0
  -21.6853   -6.0734   22.5283 C   0  0  0  0  0  0
  -21.4017   -6.5641   23.8217 C   0  0  0  0  0  0
  -21.3661   -5.6798   24.9180 C   0  0  0  0  0  0
  -21.6038   -4.3056   24.7230 C   0  0  0  0  0  0
  -21.8820   -3.8147   23.4354 C   0  0  0  0  0  0
  -21.9192   -4.6964   22.3406 C   0  0  0  0  0  0
  -22.7765  -13.5193   21.1886 C   0  0  0  0  0  0
  -22.1663   -4.2149   21.0983 F   0  0  0  0  0  0
  -21.5627   -3.4540   25.7742 F   0  0  0  0  0  0
  -29.9677  -13.6191   20.3865 N   0  0  0  0  0  0
  -26.2882  -12.9486   20.3300 N   0  0  0  0  0  0
  -25.9326  -11.6606   20.5766 N   0  0  0  0  0  0
  -22.0440  -12.8161   22.0444 N   0  0  0  0  0  0
  -25.4060  -15.1960   20.4174 N   0  0  0  0  0  0
  -31.8238  -14.8515   20.1211 O   0  0  0  0  0  0
  -21.6652   -6.8880   21.4248 O   0  0  0  0  0  0
  -22.3430  -14.5501   20.6750 O   0  0  0  0  0  0
  -24.6382  -31.8506   23.1949 C   0  0  0  0  0  0
  -25.9172  -32.4733   23.8316 C   0  0  1  0  0  0
  -27.2089  -27.1814   20.1387 C   0  0  0  0  0  0
  -25.5935  -33.8537   24.2225 N   0  0  0  0  0  0
  -23.4384  -30.4736   21.5405 C   0  0  2  0  0  0
  -24.8869  -28.9162   20.1054 C   0  0  0  0  0  0
  -22.7537  -29.4580   22.4886 C   0  0  0  0  0  0
  -18.0290  -28.1389   22.8484 C   0  0  0  0  0  0
  -24.1486  -36.7273   23.2639 C   0  0  0  0  0  0
  -25.9925  -30.7363   21.3914 C   0  0  0  0  0  0
  -26.0615  -29.3534   20.7302 C   0  0  0  0  0  0
  -27.2210  -28.4984   20.7408 C   0  0  0  0  0  0
  -26.0186  -26.8565   19.4454 C   0  0  0  0  0  0
  -24.8756  -27.6783   19.4508 C   0  0  0  0  0  0
  -23.6614  -29.8117   20.1561 C   0  0  0  0  0  0
  -25.4114  -36.3056   24.0322 C   0  0  1  0  0  0
  -20.5899  -28.3719   23.1245 C   0  0  2  0  0  0
  -20.6776  -26.9430   22.5401 C   0  0  0  0  0  0
  -19.5747  -26.6380   21.5212 C   0  0  0  0  0  0
  -18.1928  -26.7932   22.1626 C   0  0  0  0  0  0
  -19.1547  -28.8873   23.2856 C   0  0  0  0  0  0
  -18.9468  -30.1468   23.8886 C   0  0  0  0  0  0
  -17.6465  -30.6591   24.0565 C   0  0  0  0  0  0
  -25.9069  -34.9431   23.5085 C   0  0  0  0  0  0
  -16.5356  -29.9089   23.6328 C   0  0  0  0  0  0
  -16.7276  -28.6500   23.0363 C   0  0  0  0  0  0
  -26.4500  -31.6586   25.0736 C   0  0  0  0  0  0
  -25.3689  -31.3764   26.1430 C   0  0  0  0  0  0
  -27.0356  -30.2984   24.6291 C   0  0  0  0  0  0
  -27.6036  -32.4346   25.7514 C   0  0  0  0  0  0
  -27.5581  -37.1786   24.8460 C   0  0  0  0  0  0
  -21.4234  -29.3060   22.3634 N   0  0  0  0  0  0
  -26.4283  -37.3766   23.9415 N   0  0  0  0  0  0
  -24.7091  -31.0404   22.0972 N   0  0  0  0  0  0
  -23.4212  -28.8107   23.2994 O   0  0  0  0  0  0
  -28.2516  -26.2018   20.2560 O   0  0  0  0  0  0
  -26.5648  -34.8923   22.4658 O   0  0  0  0  0  0
  -23.5512  -32.1369   23.7183 O   0  0  0  0  0  0
  -29.2646  -22.2997   22.4228 C   0  0  0  0  0  0
  -28.8071  -22.0868   19.8376 C   0  0  0  0  0  0
  -28.6682  -23.3974   20.4831 C   0  0  0  0  0  0
  -29.1806  -20.8985   20.5990 C   0  0  0  0  0  0
  -28.9874  -16.8704   20.0139 C   0  0  0  0  0  0
  -30.7273  -17.3691   20.9441 C   0  0  0  0  0  0
  -29.3943  -18.1760   20.8063 C   0  0  0  0  0  0
  -28.5300  -21.9737   18.3465 C   0  0  0  0  0  0
  -28.0136  -24.7402   19.8299 C   0  0  0  0  0  0
  -28.9242  -23.4354   21.8043 N   0  0  0  0  0  0
  -29.3885  -21.0695   21.9108 N   0  0  0  0  0  0
  -29.9990  -16.0564   20.7679 N   0  0  0  0  0  0
  -29.3629  -19.5385   20.0810 N   0  0  0  0  0  0
  -31.4604  -12.6172   19.1906 H   0  0  0  0  0  0
  -30.3569  -11.5580   20.0137 H   0  0  0  0  0  0
  -29.8014  -11.7296   17.5557 H   0  0  0  0  0  0
  -29.6192  -13.4605   17.7083 H   0  0  0  0  0  0
  -27.9095  -11.2851   18.9494 H   0  0  0  0  0  0
  -27.3785  -12.4928   17.8100 H   0  0  0  0  0  0
  -27.5989  -14.2588   19.4273 H   0  0  0  0  0  0
  -28.7294  -12.2912   21.4771 H   0  0  0  0  0  0
  -28.3961  -13.9879   21.7470 H   0  0  0  0  0  0
  -25.2770   -9.5686   22.4758 H   0  0  0  0  0  0
  -24.0011   -7.4638   22.7479 H   0  0  0  0  0  0
  -21.0857   -8.8768   19.8953 H   0  0  0  0  0  0
  -22.3709  -10.9670   19.6166 H   0  0  0  0  0  0
  -21.2019   -7.6153   23.9706 H   0  0  0  0  0  0
  -21.1479   -6.0542   25.9079 H   0  0  0  0  0  0
  -22.0597   -2.7609   23.2855 H   0  0  0  0  0  0
  -22.4090  -11.9831   22.4820 H   0  0  0  0  0  0
  -21.1063  -13.1165   22.2687 H   0  0  0  0  0  0
  -24.6360  -15.8465   20.5304 H   0  0  0  0  0  0
  -26.2553  -15.6397   20.0965 H   0  0  0  0  0  0
  -26.7232  -32.5354   23.1048 H   0  0  0  0  0  0
  -25.0047  -33.9668   25.0344 H   0  0  0  0  0  0
  -22.7379  -31.2985   21.3925 H   0  0  0  0  0  0
  -23.3768  -35.9589   23.3280 H   0  0  0  0  0  0
  -24.3570  -36.8927   22.2060 H   0  0  0  0  0  0
  -23.7227  -37.6457   23.6687 H   0  0  0  0  0  0
  -26.1456  -31.4943   20.6222 H   0  0  0  0  0  0
  -26.8641  -30.7822   22.0321 H   0  0  0  0  0  0
  -28.1098  -28.8222   21.2646 H   0  0  0  0  0  0
  -25.9182  -25.9330   18.8982 H   0  0  0  0  0  0
  -23.9820  -27.3436   18.9410 H   0  0  0  0  0  0
  -23.7936  -30.5919   19.4060 H   0  0  0  0  0  0
  -22.7770  -29.2538   19.8444 H   0  0  0  0  0  0
  -25.1296  -36.1896   25.0816 H   0  0  0  0  0  0
  -20.9983  -28.3306   24.1370 H   0  0  0  0  0  0
  -20.5663  -26.2340   23.3617 H   0  0  0  0  0  0
  -21.6643  -26.7424   22.1213 H   0  0  0  0  0  0
  -19.6910  -25.6283   21.1262 H   0  0  0  0  0  0
  -19.6686  -27.3175   20.6732 H   0  0  0  0  0  0
  -17.4193  -26.6675   21.4034 H   0  0  0  0  0  0
  -18.0330  -26.0080   22.9027 H   0  0  0  0  0  0
  -19.7945  -30.7277   24.2269 H   0  0  0  0  0  0
  -17.5020  -31.6278   24.5160 H   0  0  0  0  0  0
  -15.5358  -30.2988   23.7660 H   0  0  0  0  0  0
  -15.8674  -28.0810   22.7098 H   0  0  0  0  0  0
  -24.5870  -30.7108   25.7746 H   0  0  0  0  0  0
  -24.8868  -32.2945   26.4804 H   0  0  0  0  0  0
  -25.7966  -30.8968   27.0243 H   0  0  0  0  0  0
  -26.2964  -29.6722   24.1276 H   0  0  0  0  0  0
  -27.3952  -29.7261   25.4856 H   0  0  0  0  0  0
  -27.8887  -30.4226   23.9615 H   0  0  0  0  0  0
  -27.2626  -33.3662   26.2045 H   0  0  0  0  0  0
  -28.3864  -32.6885   25.0353 H   0  0  0  0  0  0
  -28.0684  -31.8505   26.5468 H   0  0  0  0  0  0
  -28.2568  -38.0113   24.7537 H   0  0  0  0  0  0
  -28.1104  -36.2639   24.6238 H   0  0  0  0  0  0
  -27.2298  -37.1381   25.8862 H   0  0  0  0  0  0
  -20.9421  -29.8812   21.6858 H   0  0  0  0  0  0
  -26.0158  -38.2835   24.1437 H   0  0  0  0  0  0
  -29.4473  -22.3857   23.4827 H   0  0  0  0  0  0
  -29.1901  -16.9191   18.9420 H   0  0  0  0  0  0
  -27.9520  -16.5763   20.1916 H   0  0  0  0  0  0
  -31.2042  -17.4924   21.9179 H   0  0  0  0  0  0
  -31.4457  -17.5762   20.1472 H   0  0  0  0  0  0
  -28.8723  -18.2281   21.7638 H   0  0  0  0  0  0
  -27.5312  -22.3417   18.1120 H   0  0  0  0  0  0
  -28.5931  -20.9480   17.9849 H   0  0  0  0  0  0
  -29.2533  -22.5650   17.7840 H   0  0  0  0  0  0
  -26.9593  -24.5203   19.9812 H   0  0  0  0  0  0
  -28.1745  -24.6996   18.7543 H   0  0  0  0  0  0
  -29.2563  -19.4739   19.0757 H   0  0  0  0  0  0
  1 25  1  0  0  0
  1 30  2  0  0  0
  1 82  1  0  0  0
  2  3  1  0  0  0
  2 25  1  0  0  0
  2 84  1  0  0  0
  2 85  1  0  0  0
  3  4  1  0  0  0
  3 86  1  0  0  0
  3 87  1  0  0  0
  4  5  1  0  0  0
  4 88  1  0  0  0
  4 89  1  0  0  0
  5  6  1  0  0  0
  5 26  1  0  0  0
  5 90  1  0  0  0
  6 25  1  0  0  0
  6 91  1  0  0  0
  6 92  1  0  0  0
  7  8  2  0  0  0
  7 26  1  0  0  0
  7 29  1  0  0  0
  8  9  1  0  0  0
  8 22  1  0  0  0
  9 10  1  0  0  0
  9 27  2  0  0  0
 10 11  2  0  0  0
 10 15  1  0  0  0
 11 12  1  0  0  0
 11 93  1  0  0  0
 12 13  2  0  0  0
 12 94  1  0  0  0
 13 14  1  0  0  0
 13 31  1  0  0  0
 14 15  2  0  0  0
 14 95  1  0  0  0
 15 96  1  0  0  0
 16 17  2  0  0  0
 16 21  1  0  0  0
 16 31  1  0  0  0
 17 18  1  0  0  0
 17 97  1  0  0  0
 18 19  2  0  0  0
 18 98  1  0  0  0
 19 20  1  0  0  0
 19 24  1  0  0  0
 20 21  2  0  0  0
 20 99  1  0  0  0
 21 23  1  0  0  0
 22 28  1  0  0  0
 22 32  2  0  0  0
 26 27  1  0  0  0
 28100  1  0  0  0
 28101  1  0  0  0
 29102  1  0  0  0
 29103  1  0  0  0
 33 34  1  0  0  0
 33 66  1  0  0  0
 33 70  2  0  0  0
 34 36  1  0  0  0
 34 59  1  0  0  0
 34104  1  0  0  0
 35 44  2  0  0  0
 35 45  1  0  0  0
 35 68  1  0  0  0
 36 56  1  0  0  0
 36105  1  0  0  0
 37 39  1  0  0  0
 37 47  1  0  0  0
 37 66  1  0  0  0
 37106  1  0  0  0
 38 43  2  0  0  0
 38 46  1  0  0  0
 38 47  1  0  0  0
 39 64  1  0  0  0
 39 67  2  0  0  0
 40 52  1  0  0  0
 40 53  2  0  0  0
 40 58  1  0  0  0
 41107  1  0  0  0
 41108  1  0  0  0
 41109  1  0  0  0
 41 48  1  0  0  0
 42 43  1  0  0  0
 42 66  1  0  0  0
 42110  1  0  0  0
 42111  1  0  0  0
 43 44  1  0  0  0
 44112  1  0  0  0
 45 46  2  0  0  0
 45113  1  0  0  0
 46114  1  0  0  0
 47115  1  0  0  0
 47116  1  0  0  0
 48 56  1  0  0  0
 48 65  1  0  0  0
 48117  1  0  0  0
 49 50  1  0  0  0
 49 53  1  0  0  0
 49 64  1  0  0  0
 49118  1  0  0  0
 50 51  1  0  0  0
 50119  1  0  0  0
 50120  1  0  0  0
 51 52  1  0  0  0
 51121  1  0  0  0
 51122  1  0  0  0
 52123  1  0  0  0
 52124  1  0  0  0
 53 54  1  0  0  0
 54 55  2  0  0  0
 54125  1  0  0  0
 55 57  1  0  0  0
 55126  1  0  0  0
 56 69  2  0  0  0
 57 58  2  0  0  0
 57127  1  0  0  0
 58128  1  0  0  0
 59 60  1  0  0  0
 59 61  1  0  0  0
 59 62  1  0  0  0
 60129  1  0  0  0
 60130  1  0  0  0
 60131  1  0  0  0
 61132  1  0  0  0
 61133  1  0  0  0
 61134  1  0  0  0
 62135  1  0  0  0
 62136  1  0  0  0
 62137  1  0  0  0
 63 65  1  0  0  0
 63138  1  0  0  0
 63139  1  0  0  0
 63140  1  0  0  0
 64141  1  0  0  0
 65142  1  0  0  0
 68 79  1  0  0  0
 71 80  2  0  0  0
 71 81  1  0  0  0
 71143  1  0  0  0
 72 73  2  0  0  0
 72 74  1  0  0  0
 72 78  1  0  0  0
 73 79  1  0  0  0
 73 80  1  0  0  0
 74 81  2  0  0  0
 74 83  1  0  0  0
 75 77  1  0  0  0
 75 82  1  0  0  0
 75144  1  0  0  0
 75145  1  0  0  0
 76 77  1  0  0  0
 76 82  1  0  0  0
 76146  1  0  0  0
 76147  1  0  0  0
 77 83  1  0  0  0
 77148  1  0  0  0
 78149  1  0  0  0
 78150  1  0  0  0
 78151  1  0  0  0
 79152  1  0  0  0
 79153  1  0  0  0
 83154  1  0  0  0
M  ISO  4   1 100  68 101  79 101  82 100
M  END
> <chiral flag>
0

> <version>
0

> <s_m_source_file>
/data/baiqing/PycharmProjects/Reinvent-master-3.2/result/LINK_invent/BTK/process_docking_weight1_custom_sum_contain_oxygen_bond_distance_aromatic_linkinvent_7_9_3/rearranged_h_0185.sdf

> <i_m_source_file_index>
92

> <r_mmod_Potential_Energy-OPLS-2005>
-107.845642089844

> <r_mmod_Stretch_Energy-OPLS-2005>
165.121475219727

> <r_mmod_Bend_Energy-OPLS-2005>
235.375671386719

> <r_mmod_Torsional_Energy-OPLS-2005>
254.490997314453

> <r_mmod_Improper_Torsional_Energy-OPLS-2005>
10.0485305786133

> <r_mmod_Van_der_Waal_Energy-OPLS-2005>
146.832809448242

> <r_mmod_Electrostatic_Energy-OPLS-2005>
-812.014343261719

> <r_mmod_Solvation_Energy-OPLS-2005>
-250.14111328125

> <b_mmod_Minimization_Converged-OPLS-2005>
0

> <r_mmod_RMS_Derivative-OPLS-2005>
1.59763598442078

$$$$
92
                    3D
 Structure written by MMmdl.
167175  0  0  1  0            999 V2000
  -30.7277  -14.6549   20.4646 C   0  0  0  0  0  0
  -30.4034  -12.4032   19.4688 C   0  0  0  0  0  0
  -29.4967  -12.4628   18.2250 C   0  0  0  0  0  0
  -28.0271  -12.2646   18.6410 C   0  0  0  0  0  0
  -27.6244  -13.1885   19.8160 C   0  0  2  0  0  0
  -28.6731  -13.2161   20.9568 C   0  0  0  0  0  0
  -25.2528  -13.8082   20.5645 C   0  0  0  0  0  0
  -24.1786  -13.0397   20.9198 C   0  0  0  0  0  0
  -24.6330  -11.6853   20.8759 C   0  0  0  0  0  0
  -23.8999  -10.4258   21.0409 C   0  0  0  0  0  0
  -24.3577   -9.4171   21.9179 C   0  0  0  0  0  0
  -23.6251   -8.2215   22.0739 C   0  0  0  0  0  0
  -22.4230   -8.0248   21.3538 C   0  0  0  0  0  0
  -21.9870   -9.0212   20.4634 C   0  0  0  0  0  0
  -22.7189  -10.2096   20.3042 C   0  0  0  0  0  0
  -21.6838   -6.0724   22.5280 C   0  0  0  0  0  0
  -21.4014   -6.5627   23.8217 C   0  0  0  0  0  0
  -21.3662   -5.6774   24.9175 C   0  0  0  0  0  0
  -21.6049   -4.3045   24.7203 C   0  0  0  0  0  0
  -21.8835   -3.8140   23.4324 C   0  0  0  0  0  0
  -21.9194   -4.6955   22.3388 C   0  0  0  0  0  0
  -22.7820  -13.5241   21.1843 C   0  0  0  0  0  0
  -22.1656   -4.2166   21.0952 F   0  0  0  0  0  0
  -21.5630   -3.4513   25.7703 F   0  0  0  0  0  0
  -29.9874  -13.5020   20.3692 N   0  0  0  0  0  0
  -26.2857  -12.9187   20.3152 N   0  0  0  0  0  0
  -25.9240  -11.6387   20.5739 N   0  0  0  0  0  0
  -22.0444  -12.8262   22.0408 N   0  0  0  0  0  0
  -25.4273  -15.1802   20.4028 N   0  0  0  0  0  0
  -31.9254  -14.6261   20.1714 O   0  0  0  0  0  0
  -21.6613   -6.8843   21.4228 O   0  0  0  0  0  0
  -22.3532  -14.5538   20.6666 O   0  0  0  0  0  0
  -24.6183  -31.8656   23.2047 C   0  0  0  0  0  0
  -25.9053  -32.4796   23.8358 C   0  0  1  0  0  0
  -27.2230  -27.3588   20.1215 C   0  0  0  0  0  0
  -25.5901  -33.8597   24.2302 N   0  0  0  0  0  0
  -23.4093  -30.4879   21.5469 C   0  0  2  0  0  0
  -24.8565  -28.9510   20.1087 C   0  0  0  0  0  0
  -22.7425  -29.4657   22.4960 C   0  0  0  0  0  0
  -18.0281  -28.1383   22.8483 C   0  0  0  0  0  0
  -24.1504  -36.7306   23.2633 C   0  0  0  0  0  0
  -25.9467  -30.8036   21.3743 C   0  0  0  0  0  0
  -26.0220  -29.4363   20.7158 C   0  0  0  0  0  0
  -27.2079  -28.6521   20.7165 C   0  0  0  0  0  0
  -26.0395  -26.9232   19.4762 C   0  0  0  0  0  0
  -24.8665  -27.6982   19.4779 C   0  0  0  0  0  0
  -23.6195  -29.8209   20.1616 C   0  0  0  0  0  0
  -25.4125  -36.3096   24.0332 C   0  0  1  0  0  0
  -20.5873  -28.3682   23.1288 C   0  0  2  0  0  0
  -20.6784  -26.9412   22.5405 C   0  0  0  0  0  0
  -19.5772  -26.6384   21.5198 C   0  0  0  0  0  0
  -18.1941  -26.7933   22.1595 C   0  0  0  0  0  0
  -19.1537  -28.8851   23.2884 C   0  0  0  0  0  0
  -18.9456  -30.1452   23.8908 C   0  0  0  0  0  0
  -17.6459  -30.6579   24.0554 C   0  0  0  0  0  0
  -25.9053  -34.9462   23.5115 C   0  0  0  0  0  0
  -16.5343  -29.9076   23.6327 C   0  0  0  0  0  0
  -16.7269  -28.6484   23.0351 C   0  0  0  0  0  0
  -26.4465  -31.6576   25.0703 C   0  0  0  0  0  0
  -25.3712  -31.3660   26.1433 C   0  0  0  0  0  0
  -27.0278  -30.3000   24.6109 C   0  0  0  0  0  0
  -27.6049  -32.4297   25.7457 C   0  0  0  0  0  0
  -27.5609  -37.1795   24.8452 C   0  0  0  0  0  0
  -21.4155  -29.3039   22.3693 N   0  0  0  0  0  0
  -26.4313  -37.3786   23.9414 N   0  0  0  0  0  0
  -24.6759  -31.0686   22.0982 N   0  0  0  0  0  0
  -23.4180  -28.8206   23.3031 O   0  0  0  0  0  0
  -28.3467  -26.5325   20.1998 O   0  0  0  0  0  0
  -26.5625  -34.8922   22.4684 O   0  0  0  0  0  0
  -23.5363  -32.1448   23.7398 O   0  0  0  0  0  0
  -31.0531  -16.9280   21.3327 C   0  0  0  0  0  0
  -30.3832  -18.2593   21.8095 C   0  0  0  0  0  0
  -28.5393  -17.8631   20.4828 C   0  0  0  0  0  0
  -29.1237  -16.5323   19.9015 C   0  0  1  0  0  0
  -28.8686  -17.7611   16.1940 C   0  0  0  0  0  0
  -29.5888  -16.7192   18.4289 C   0  0  0  0  0  0
  -28.4439  -16.9259   17.4116 C   0  0  0  0  0  0
  -28.9056  -20.1482   21.2044 C   0  0  0  0  0  0
  -29.6450  -21.5230   20.9596 C   0  0  0  0  0  0
  -29.1839  -24.0780   20.6686 C   0  0  0  0  0  0
  -28.0961  -25.0881   20.1434 C   0  0  0  0  0  0
  -30.1521  -15.8812   20.7675 N   0  0  0  0  0  0
  -29.5609  -18.8808   20.7630 N   0  0  0  0  0  0
  -28.6845  -22.6523   20.6918 N   0  3  0  0  0  0
  -31.4499  -12.4702   19.1697 H   0  0  0  0  0  0
  -30.3022  -11.4417   19.9746 H   0  0  0  0  0  0
  -29.7920  -11.6919   17.5109 H   0  0  0  0  0  0
  -29.6196  -13.4196   17.7176 H   0  0  0  0  0  0
  -27.8990  -11.2191   18.9271 H   0  0  0  0  0  0
  -27.3669  -12.4214   17.7865 H   0  0  0  0  0  0
  -27.5621  -14.1488   19.3247 H   0  0  0  0  0  0
  -28.6959  -12.2657   21.4938 H   0  0  0  0  0  0
  -28.4108  -13.9795   21.6918 H   0  0  0  0  0  0
  -25.2730   -9.5661   22.4743 H   0  0  0  0  0  0
  -23.9983   -7.4603   22.7447 H   0  0  0  0  0  0
  -21.0814   -8.8698   19.8934 H   0  0  0  0  0  0
  -22.3636  -10.9615   19.6126 H   0  0  0  0  0  0
  -21.2006   -7.6132   23.9732 H   0  0  0  0  0  0
  -21.1471   -6.0488   25.9091 H   0  0  0  0  0  0
  -22.0621   -2.7607   23.2797 H   0  0  0  0  0  0
  -22.4023  -11.9924   22.4809 H   0  0  0  0  0  0
  -21.1065  -13.1312   22.2579 H   0  0  0  0  0  0
  -24.6620  -15.8362   20.5181 H   0  0  0  0  0  0
  -26.2754  -15.6094   20.0626 H   0  0  0  0  0  0
  -26.7111  -32.5477   23.1106 H   0  0  0  0  0  0
  -25.0036  -33.9768   25.0432 H   0  0  0  0  0  0
  -22.7010  -31.3073   21.4045 H   0  0  0  0  0  0
  -23.3786  -35.9614   23.3248 H   0  0  0  0  0  0
  -24.3602  -36.8975   22.2055 H   0  0  0  0  0  0
  -23.7230  -37.6487   23.6677 H   0  0  0  0  0  0
  -26.0837  -31.5694   20.6108 H   0  0  0  0  0  0
  -26.8245  -30.8439   22.0055 H   0  0  0  0  0  0
  -28.0975  -29.0153   21.2136 H   0  0  0  0  0  0
  -25.9857  -25.9695   18.9709 H   0  0  0  0  0  0
  -23.9781  -27.3230   18.9892 H   0  0  0  0  0  0
  -23.7218  -30.5940   19.3994 H   0  0  0  0  0  0
  -22.7437  -29.2383   19.8689 H   0  0  0  0  0  0
  -25.1307  -36.1955   25.0828 H   0  0  0  0  0  0
  -20.9970  -28.3252   24.1406 H   0  0  0  0  0  0
  -20.5665  -26.2299   23.3602 H   0  0  0  0  0  0
  -21.6658  -26.7457   22.1202 H   0  0  0  0  0  0
  -19.6941  -25.6290   21.1236 H   0  0  0  0  0  0
  -19.6727  -27.3182   20.6715 H   0  0  0  0  0  0
  -17.4230  -26.6692   21.3976 H   0  0  0  0  0  0
  -18.0335  -26.0049   22.8963 H   0  0  0  0  0  0
  -19.7936  -30.7259   24.2279 H   0  0  0  0  0  0
  -17.5010  -31.6264   24.5141 H   0  0  0  0  0  0
  -15.5343  -30.2975   23.7648 H   0  0  0  0  0  0
  -15.8664  -28.0784   22.7090 H   0  0  0  0  0  0
  -24.5924  -30.6981   25.7738 H   0  0  0  0  0  0
  -24.8854  -32.2789   26.4886 H   0  0  0  0  0  0
  -25.8054  -30.8819   27.0188 H   0  0  0  0  0  0
  -26.2801  -29.6777   24.1180 H   0  0  0  0  0  0
  -27.4032  -29.7236   25.4572 H   0  0  0  0  0  0
  -27.8663  -30.4293   23.9266 H   0  0  0  0  0  0
  -27.2680  -33.3598   26.2046 H   0  0  0  0  0  0
  -28.3832  -32.6853   25.0254 H   0  0  0  0  0  0
  -28.0736  -31.8405   26.5352 H   0  0  0  0  0  0
  -28.2579  -38.0143   24.7577 H   0  0  0  0  0  0
  -28.1166  -36.2680   24.6185 H   0  0  0  0  0  0
  -27.2336  -37.1322   25.8853 H   0  0  0  0  0  0
  -20.9329  -29.8729   21.6877 H   0  0  0  0  0  0
  -26.0202  -38.2868   24.1414 H   0  0  0  0  0  0
  -31.6013  -16.5038   22.1772 H   0  0  0  0  0  0
  -31.8103  -17.1732   20.5832 H   0  0  0  0  0  0
  -31.1594  -18.9641   22.1131 H   0  0  0  0  0  0
  -29.7820  -18.0650   22.7011 H   0  0  0  0  0  0
  -27.9706  -17.6482   21.3901 H   0  0  0  0  0  0
  -27.8086  -18.2753   19.7852 H   0  0  0  0  0  0
  -28.2672  -15.8844   19.9048 H   0  0  0  0  0  0
  -28.0278  -17.9063   15.5139 H   0  0  0  0  0  0
  -29.6684  -17.2800   15.6308 H   0  0  0  0  0  0
  -29.2189  -18.7512   16.4932 H   0  0  0  0  0  0
  -30.1749  -15.8649   18.0853 H   0  0  0  0  0  0
  -30.2753  -17.5673   18.3871 H   0  0  0  0  0  0
  -28.0753  -15.9527   17.0804 H   0  0  0  0  0  0
  -27.5809  -17.4091   17.8688 H   0  0  0  0  0  0
  -27.9725  -20.2236   20.6433 H   0  0  0  0  0  0
  -28.5943  -20.0731   22.2479 H   0  0  0  0  0  0
  -30.3136  -21.4443   20.1016 H   0  0  0  0  0  0
  -30.2724  -21.7614   21.8204 H   0  0  0  0  0  0
  -29.4735  -24.3534   21.6840 H   0  0  0  0  0  0
  -30.0818  -24.1499   20.0538 H   0  0  0  0  0  0
  -27.1893  -24.8803   20.7143 H   0  0  0  0  0  0
  -27.8803  -24.8259   19.1071 H   0  0  0  0  0  0
  -27.9626  -22.5964   21.3947 H   0  0  0  0  0  0
  -28.2463  -22.4534   19.8049 H   0  0  0  0  0  0
  1 25  1  0  0  0
  1 30  2  0  0  0
  1 82  1  0  0  0
  2  3  1  0  0  0
  2 25  1  0  0  0
  2 85  1  0  0  0
  2 86  1  0  0  0
  3  4  1  0  0  0
  3 87  1  0  0  0
  3 88  1  0  0  0
  4  5  1  0  0  0
  4 89  1  0  0  0
  4 90  1  0  0  0
  5  6  1  0  0  0
  5 26  1  0  0  0
  5 91  1  0  0  0
  6 25  1  0  0  0
  6 92  1  0  0  0
  6 93  1  0  0  0
  7  8  2  0  0  0
  7 26  1  0  0  0
  7 29  1  0  0  0
  8  9  1  0  0  0
  8 22  1  0  0  0
  9 10  1  0  0  0
  9 27  2  0  0  0
 10 11  2  0  0  0
 10 15  1  0  0  0
 11 12  1  0  0  0
 11 94  1  0  0  0
 12 13  2  0  0  0
 12 95  1  0  0  0
 13 14  1  0  0  0
 13 31  1  0  0  0
 14 15  2  0  0  0
 14 96  1  0  0  0
 15 97  1  0  0  0
 16 17  2  0  0  0
 16 21  1  0  0  0
 16 31  1  0  0  0
 17 18  1  0  0  0
 17 98  1  0  0  0
 18 19  2  0  0  0
 18 99  1  0  0  0
 19 20  1  0  0  0
 19 24  1  0  0  0
 20 21  2  0  0  0
 20100  1  0  0  0
 21 23  1  0  0  0
 22 28  1  0  0  0
 22 32  2  0  0  0
 26 27  1  0  0  0
 28101  1  0  0  0
 28102  1  0  0  0
 29103  1  0  0  0
 29104  1  0  0  0
 33 34  1  0  0  0
 33 66  1  0  0  0
 33 70  2  0  0  0
 34 36  1  0  0  0
 34 59  1  0  0  0
 34105  1  0  0  0
 35 44  2  0  0  0
 35 45  1  0  0  0
 35 68  1  0  0  0
 36 56  1  0  0  0
 36106  1  0  0  0
 37 39  1  0  0  0
 37 47  1  0  0  0
 37 66  1  0  0  0
 37107  1  0  0  0
 38 43  2  0  0  0
 38 46  1  0  0  0
 38 47  1  0  0  0
 39 64  1  0  0  0
 39 67  2  0  0  0
 40 52  1  0  0  0
 40 53  2  0  0  0
 40 58  1  0  0  0
 41108  1  0  0  0
 41109  1  0  0  0
 41110  1  0  0  0
 41 48  1  0  0  0
 42 43  1  0  0  0
 42 66  1  0  0  0
 42111  1  0  0  0
 42112  1  0  0  0
 43 44  1  0  0  0
 44113  1  0  0  0
 45 46  2  0  0  0
 45114  1  0  0  0
 46115  1  0  0  0
 47116  1  0  0  0
 47117  1  0  0  0
 48 56  1  0  0  0
 48 65  1  0  0  0
 48118  1  0  0  0
 49 50  1  0  0  0
 49 53  1  0  0  0
 49 64  1  0  0  0
 49119  1  0  0  0
 50 51  1  0  0  0
 50120  1  0  0  0
 50121  1  0  0  0
 51 52  1  0  0  0
 51122  1  0  0  0
 51123  1  0  0  0
 52124  1  0  0  0
 52125  1  0  0  0
 53 54  1  0  0  0
 54 55  2  0  0  0
 54126  1  0  0  0
 55 57  1  0  0  0
 55127  1  0  0  0
 56 69  2  0  0  0
 57 58  2  0  0  0
 57128  1  0  0  0
 58129  1  0  0  0
 59 60  1  0  0  0
 59 61  1  0  0  0
 59 62  1  0  0  0
 60130  1  0  0  0
 60131  1  0  0  0
 60132  1  0  0  0
 61133  1  0  0  0
 61134  1  0  0  0
 61135  1  0  0  0
 62136  1  0  0  0
 62137  1  0  0  0
 62138  1  0  0  0
 63 65  1  0  0  0
 63139  1  0  0  0
 63140  1  0  0  0
 63141  1  0  0  0
 64142  1  0  0  0
 65143  1  0  0  0
 68 81  1  0  0  0
 71 72  1  0  0  0
 71 82  1  0  0  0
 71144  1  0  0  0
 71145  1  0  0  0
 72 83  1  0  0  0
 72146  1  0  0  0
 72147  1  0  0  0
 73 74  1  0  0  0
 73 83  1  0  0  0
 73148  1  0  0  0
 73149  1  0  0  0
 74 76  1  0  0  0
 74 82  1  0  0  0
 74150  1  0  0  0
 75 77  1  0  0  0
 75151  1  0  0  0
 75152  1  0  0  0
 75153  1  0  0  0
 76 77  1  0  0  0
 76154  1  0  0  0
 76155  1  0  0  0
 77156  1  0  0  0
 77157  1  0  0  0
 78 79  1  0  0  0
 78 83  1  0  0  0
 78158  1  0  0  0
 78159  1  0  0  0
 79 84  1  0  0  0
 79160  1  0  0  0
 79161  1  0  0  0
 80 81  1  0  0  0
 80 84  1  0  0  0
 80162  1  0  0  0
 80163  1  0  0  0
 81164  1  0  0  0
 81165  1  0  0  0
 84166  1  0  0  0
 84167  1  0  0  0
M  CHG  1  84   1
M  ISO  4   1 100  68 101  81 101  82 100
M  END
> <chiral flag>
0

> <version>
0

> <s_m_source_file>
/data/baiqing/PycharmProjects/Reinvent-master-3.2/result/LINK_invent/BTK/process_docking_weight1_custom_sum_contain_oxygen_bond_distance_aromatic_linkinvent_7_9_3/rearranged_h_0185.sdf

> <i_m_source_file_index>
93

> <r_mmod_Potential_Energy-OPLS-2005>
186.380126953125

> <r_mmod_Stretch_Energy-OPLS-2005>
69.2901611328125

> <r_mmod_Bend_Energy-OPLS-2005>
149.884384155273

> <r_mmod_Torsional_Energy-OPLS-2005>
376.688690185547

> <r_mmod_Improper_Torsional_Energy-OPLS-2005>
5.78038644790649

> <r_mmod_Van_der_Waal_Energy-OPLS-2005>
144.268142700195

> <r_mmod_Electrostatic_Energy-OPLS-2005>
-168.227081298828

> <r_mmod_Solvation_Energy-OPLS-2005>
-450.696929931641

> <b_mmod_Minimization_Converged-OPLS-2005>
0

> <r_mmod_RMS_Derivative-OPLS-2005>
3.18956112861633

$$$$
93
                    3D
 Structure written by MMmdl.
161170  0  0  1  0            999 V2000
  -30.2244  -15.2057   21.1122 C   0  0  0  0  0  0
  -30.5243  -13.1464   19.0807 C   0  0  0  0  0  0
  -30.2673  -13.7058   17.6823 C   0  0  0  0  0  0
  -29.0645  -14.3797   18.2201 C   0  0  0  0  0  0
  -28.1347  -13.7634   20.0785 C   0  0  2  0  0  0
  -29.1406  -13.1707   21.0003 C   0  0  0  0  0  0
  -25.3886  -13.8301   21.0404 C   0  0  0  0  0  0
  -24.2989  -13.0423   21.0121 C   0  0  0  0  0  0
  -24.8604  -11.7935   20.8696 C   0  0  0  0  0  0
  -24.0629  -10.4618   20.9524 C   0  0  0  0  0  0
  -24.4586   -9.4594   21.8931 C   0  0  0  0  0  0
  -23.7064   -8.2953   22.0524 C   0  0  0  0  0  0
  -22.5143   -8.0579   21.3041 C   0  0  0  0  0  0
  -22.0952   -9.0789   20.4460 C   0  0  0  0  0  0
  -22.8448  -10.2458   20.2654 C   0  0  0  0  0  0
  -21.7048   -6.1146   22.5263 C   0  0  0  0  0  0
  -21.4144   -6.5796   23.8263 C   0  0  0  0  0  0
  -21.3809   -5.6743   24.9134 C   0  0  0  0  0  0
  -21.5972   -4.2970   24.7153 C   0  0  0  0  0  0
  -21.8862   -3.8371   23.4230 C   0  0  0  0  0  0
  -21.9246   -4.7341   22.3337 C   0  0  0  0  0  0
  -22.8067  -13.3900   21.1956 C   0  0  0  0  0  0
  -22.1767   -4.2328   21.1024 F   0  0  0  0  0  0
  -21.5587   -3.4567   25.7610 F   0  0  0  0  0  0
  -30.0365  -13.9867   20.4421 N   0  0  0  0  0  0
  -26.7065  -13.3086   20.4955 N   0  0  0  0  0  0
  -26.2381  -12.0079   20.6243 N   0  0  0  0  0  0
  -22.0027  -12.6487   21.9822 N   0  0  0  0  0  0
  -25.0122  -15.0546   21.6242 N   0  0  0  0  0  0
  -31.4938  -15.2158   21.2916 O   0  0  0  0  0  0
  -21.7113   -6.9399   21.4324 O   0  0  0  0  0  0
  -22.3382  -14.4559   20.6650 O   0  0  0  0  0  0
  -24.7723  -31.6856   23.0659 C   0  0  0  0  0  0
  -25.9900  -32.4019   23.7708 C   0  0  1  0  0  0
  -27.1073  -25.8500   20.0272 C   0  0  0  0  0  0
  -25.6004  -33.7887   24.1409 N   0  0  0  0  0  0
  -23.6227  -30.2717   21.4630 C   0  0  2  0  0  0
  -25.0572  -28.4490   20.0623 C   0  0  0  0  0  0
  -22.8267  -29.3804   22.4386 C   0  0  0  0  0  0
  -18.0472  -28.1521   22.8441 C   0  0  0  0  0  0
  -24.1442  -36.6961   23.2677 C   0  0  0  0  0  0
  -26.2345  -30.0932   21.4728 C   0  0  0  0  0  0
  -26.2675  -28.6041   20.7682 C   0  0  0  0  0  0
  -27.2424  -27.3510   20.7055 C   0  0  0  0  0  0
  -25.8862  -26.1301   19.3170 C   0  0  0  0  0  0
  -24.9612  -27.2548   19.3377 C   0  0  0  0  0  0
  -23.9109  -29.5028   20.1091 C   0  0  0  0  0  0
  -25.4186  -36.2590   24.0163 C   0  0  1  0  0  0
  -20.5916  -28.3917   23.1037 C   0  0  2  0  0  0
  -20.6840  -26.9456   22.5425 C   0  0  0  0  0  0
  -19.5834  -26.6360   21.5278 C   0  0  0  0  0  0
  -18.2025  -26.8042   22.1616 C   0  0  0  0  0  0
  -19.1840  -28.8990   23.2606 C   0  0  0  0  0  0
  -18.9638  -30.1544   23.8691 C   0  0  0  0  0  0
  -17.6553  -30.6752   24.0592 C   0  0  0  0  0  0
  -25.9264  -34.9045   23.4748 C   0  0  0  0  0  0
  -16.5390  -29.9171   23.6344 C   0  0  0  0  0  0
  -16.7284  -28.6539   23.0326 C   0  0  0  0  0  0
  -26.4751  -31.6499   25.0731 C   0  0  0  0  0  0
  -25.3522  -31.4128   26.1132 C   0  0  0  0  0  0
  -27.0844  -30.2750   24.7172 C   0  0  0  0  0  0
  -27.5939  -32.4663   25.7566 C   0  0  0  0  0  0
  -27.5548  -37.1669   24.8474 C   0  0  0  0  0  0
  -21.4710  -29.3125   22.3201 N   0  0  0  0  0  0
  -26.4134  -37.3434   23.9369 N   0  0  0  0  0  0
  -24.8993  -30.7407   22.0443 N   0  0  0  0  0  0
  -23.4118  -28.7390   23.3269 O   0  0  0  0  0  0
  -27.9018  -24.2950   19.9601 O   0  0  0  0  0  0
  -26.5968  -34.8868   22.4366 O   0  0  0  0  0  0
  -23.6697  -32.0401   23.5179 O   0  0  0  0  0  0
  -29.8357  -19.6459   19.8172 C   0  0  0  0  0  0
  -28.4501  -20.1158   19.5428 C   0  0  0  0  0  0
  -29.6554  -17.2383   19.0141 C   0  0  0  0  0  0
  -28.2360  -17.1381   18.5668 C   0  0  0  0  0  0
  -27.6398  -16.5247   22.7871 C   0  0  0  0  0  0
  -29.0658  -17.2424   22.5504 C   0  0  0  0  0  0
  -27.4028  -16.4557   21.1958 C   0  0  2  0  0  0
  -31.2426  -16.5944   18.8719 C   0  0  0  0  0  0
  -26.9453  -15.1529   18.2035 C   0  0  0  0  0  0
  -27.8764  -22.2589   19.5161 C   0  0  0  0  0  0
  -26.0996  -16.3024   19.8634 C   0  0  0  0  0  0
  -30.3140  -18.3404   19.5466 N   0  0  0  0  0  0
  -27.7260  -18.6726   19.1191 N   0  0  0  0  0  0
  -29.1103  -16.1875   21.3891 N   0  0  0  0  0  0
  -25.5941  -15.3855   18.7864 N   0  3  0  0  0  0
  -31.4281  -13.3656   19.0098 H   0  0  0  0  0  0
  -29.9821  -12.2788   18.9677 H   0  0  0  0  0  0
  -29.9579  -13.3280   16.6037 H   0  0  0  0  0  0
  -30.5901  -14.6243   17.4660 H   0  0  0  0  0  0
  -28.9796  -14.8044   17.1968 H   0  0  0  0  0  0
  -29.2950  -15.2561   17.3783 H   0  0  0  0  0  0
  -27.9017  -14.4035   20.6711 H   0  0  0  0  0  0
  -28.7788  -12.2289   20.5479 H   0  0  0  0  0  0
  -28.8174  -13.3222   22.0685 H   0  0  0  0  0  0
  -25.3799   -9.6033   22.4408 H   0  0  0  0  0  0
  -24.0468   -7.5352   22.7518 H   0  0  0  0  0  0
  -21.1520   -8.9462   19.8768 H   0  0  0  0  0  0
  -22.4960  -10.9922   19.5407 H   0  0  0  0  0  0
  -21.2243   -7.6314   23.9768 H   0  0  0  0  0  0
  -21.1507   -6.0590   25.8985 H   0  0  0  0  0  0
  -22.0498   -2.7708   23.2724 H   0  0  0  0  0  0
  -22.3821  -11.8717   22.4109 H   0  0  0  0  0  0
  -21.0435  -12.9094   22.1526 H   0  0  0  0  0  0
  -24.1379  -15.2894   22.0212 H   0  0  0  0  0  0
  -25.7819  -15.5442   22.0356 H   0  0  0  0  0  0
  -26.8002  -32.4303   23.0610 H   0  0  0  0  0  0
  -24.9985  -33.8687   24.9391 H   0  0  0  0  0  0
  -23.0131  -31.1144   21.2098 H   0  0  0  0  0  0
  -23.3759  -35.9306   23.3241 H   0  0  0  0  0  0
  -24.3476  -36.8837   22.2133 H   0  0  0  0  0  0
  -23.7206  -37.6099   23.6945 H   0  0  0  0  0  0
  -26.5391  -30.7691   20.6701 H   0  0  0  0  0  0
  -27.0313  -30.1431   22.1472 H   0  0  0  0  0  0
  -28.1406  -27.4797   21.2858 H   0  0  0  0  0  0
  -25.5858  -25.2742   18.6974 H   0  0  0  0  0  0
  -24.0864  -27.0945   18.7646 H   0  0  0  0  0  0
  -24.1608  -30.2357   19.3440 H   0  0  0  0  0  0
  -22.9713  -29.0392   19.7745 H   0  0  0  0  0  0
  -25.1431  -36.1292   25.0668 H   0  0  0  0  0  0
  -21.0108  -28.3638   24.1082 H   0  0  0  0  0  0
  -20.5667  -26.2570   23.3819 H   0  0  0  0  0  0
  -21.6697  -26.7359   22.1263 H   0  0  0  0  0  0
  -19.6979  -25.6186   21.1489 H   0  0  0  0  0  0
  -19.6802  -27.2987   20.6689 H   0  0  0  0  0  0
  -17.4268  -26.6746   21.3991 H   0  0  0  0  0  0
  -18.0325  -26.0217   22.9044 H   0  0  0  0  0  0
  -19.8035  -30.7497   24.1994 H   0  0  0  0  0  0
  -17.5116  -31.6296   24.5185 H   0  0  0  0  0  0
  -15.5445  -30.3009   23.7837 H   0  0  0  0  0  0
  -15.8799  -28.0922   22.7174 H   0  0  0  0  0  0
  -24.5460  -30.7862   25.7309 H   0  0  0  0  0  0
  -24.9128  -32.3626   26.4422 H   0  0  0  0  0  0
  -25.7472  -30.9193   27.0093 H   0  0  0  0  0  0
  -26.3730  -29.6039   24.2427 H   0  0  0  0  0  0
  -27.4219  -29.7692   25.6314 H   0  0  0  0  0  0
  -27.9788  -30.3834   24.0919 H   0  0  0  0  0  0
  -27.2196  -33.4137   26.1657 H   0  0  0  0  0  0
  -28.4111  -32.7045   25.0624 H   0  0  0  0  0  0
  -28.0320  -31.9150   26.6027 H   0  0  0  0  0  0
  -28.2418  -38.0015   24.7451 H   0  0  0  0  0  0
  -28.1037  -36.2573   24.6316 H   0  0  0  0  0  0
  -27.2224  -37.1374   25.8804 H   0  0  0  0  0  0
  -21.0184  -29.8525   21.6072 H   0  0  0  0  0  0
  -25.9969  -38.2495   24.1377 H   0  0  0  0  0  0
  -30.4620  -20.3332   20.2486 H   0  0  0  0  0  0
  -27.0288  -17.1695   23.3749 H   0  0  0  0  0  0
  -27.7161  -15.6408   23.3469 H   0  0  0  0  0  0
  -29.6767  -17.2587   23.4085 H   0  0  0  0  0  0
  -29.2757  -18.3737   22.4084 H   0  0  0  0  0  0
  -26.8412  -17.4811   21.2694 H   0  0  0  0  0  0
  -31.8231  -16.7249   18.0244 H   0  0  0  0  0  0
  -31.7926  -15.5786   19.0579 H   0  0  0  0  0  0
  -32.1009  -16.9577   19.5070 H   0  0  0  0  0  0
  -26.6385  -14.0015   18.2937 H   0  0  0  0  0  0
  -26.8578  -14.0093   17.7926 H   0  0  0  0  0  0
  -27.0149  -22.0434   18.8732 H   0  0  0  0  0  0
  -28.5053  -22.2524   18.6631 H   0  0  0  0  0  0
  -25.8126  -16.5645   18.8804 H   0  0  0  0  0  0
  -25.2727  -16.9221   19.8576 H   0  0  0  0  0  0
  -25.6196  -15.4447   17.7473 H   0  0  0  0  0  0
  -25.4121  -14.4721   19.2322 H   0  0  0  0  0  0
  1 25  1  0  0  0
  1 30  2  0  0  0
  1 84  1  0  0  0
  2  3  1  0  0  0
  2 25  1  0  0  0
  2 86  1  0  0  0
  2 87  1  0  0  0
  3  4  1  0  0  0
  3 88  1  0  0  0
  3 89  1  0  0  0
  4  5  1  0  0  0
  4 90  1  0  0  0
  4 91  1  0  0  0
  5  6  1  0  0  0
  5 26  1  0  0  0
  5 92  1  0  0  0
  6 25  1  0  0  0
  6 93  1  0  0  0
  6 94  1  0  0  0
  7  8  2  0  0  0
  7 26  1  0  0  0
  7 29  1  0  0  0
  8  9  1  0  0  0
  8 22  1  0  0  0
  9 10  1  0  0  0
  9 27  2  0  0  0
 10 11  2  0  0  0
 10 15  1  0  0  0
 11 12  1  0  0  0
 11 95  1  0  0  0
 12 13  2  0  0  0
 12 96  1  0  0  0
 13 14  1  0  0  0
 13 31  1  0  0  0
 14 15  2  0  0  0
 14 97  1  0  0  0
 15 98  1  0  0  0
 16 17  2  0  0  0
 16 21  1  0  0  0
 16 31  1  0  0  0
 17 18  1  0  0  0
 17 99  1  0  0  0
 18 19  2  0  0  0
 18100  1  0  0  0
 19 20  1  0  0  0
 19 24  1  0  0  0
 20 21  2  0  0  0
 20101  1  0  0  0
 21 23  1  0  0  0
 22 28  1  0  0  0
 22 32  2  0  0  0
 26 27  1  0  0  0
 28102  1  0  0  0
 28103  1  0  0  0
 29104  1  0  0  0
 29105  1  0  0  0
 33 34  1  0  0  0
 33 66  1  0  0  0
 33 70  2  0  0  0
 34 36  1  0  0  0
 34 59  1  0  0  0
 34106  1  0  0  0
 35 44  2  0  0  0
 35 45  1  0  0  0
 35 68  1  0  0  0
 36 56  1  0  0  0
 36107  1  0  0  0
 37 39  1  0  0  0
 37 47  1  0  0  0
 37 66  1  0  0  0
 37108  1  0  0  0
 38 43  2  0  0  0
 38 46  1  0  0  0
 38 47  1  0  0  0
 39 64  1  0  0  0
 39 67  2  0  0  0
 40 52  1  0  0  0
 40 53  2  0  0  0
 40 58  1  0  0  0
 41109  1  0  0  0
 41110  1  0  0  0
 41111  1  0  0  0
 41 48  1  0  0  0
 42 43  1  0  0  0
 42 66  1  0  0  0
 42112  1  0  0  0
 42113  1  0  0  0
 43 44  1  0  0  0
 44114  1  0  0  0
 45 46  2  0  0  0
 45115  1  0  0  0
 46116  1  0  0  0
 47117  1  0  0  0
 47118  1  0  0  0
 48 56  1  0  0  0
 48 65  1  0  0  0
 48119  1  0  0  0
 49 50  1  0  0  0
 49 53  1  0  0  0
 49 64  1  0  0  0
 49120  1  0  0  0
 50 51  1  0  0  0
 50121  1  0  0  0
 50122  1  0  0  0
 51 52  1  0  0  0
 51123  1  0  0  0
 51124  1  0  0  0
 52125  1  0  0  0
 52126  1  0  0  0
 53 54  1  0  0  0
 54 55  2  0  0  0
 54127  1  0  0  0
 55 57  1  0  0  0
 55128  1  0  0  0
 56 69  2  0  0  0
 57 58  2  0  0  0
 57129  1  0  0  0
 58130  1  0  0  0
 59 60  1  0  0  0
 59 61  1  0  0  0
 59 62  1  0  0  0
 60131  1  0  0  0
 60132  1  0  0  0
 60133  1  0  0  0
 61134  1  0  0  0
 61135  1  0  0  0
 61136  1  0  0  0
 62137  1  0  0  0
 62138  1  0  0  0
 62139  1  0  0  0
 63 65  1  0  0  0
 63140  1  0  0  0
 63141  1  0  0  0
 63142  1  0  0  0
 64143  1  0  0  0
 65144  1  0  0  0
 68 80  1  0  0  0
 71 72  2  0  0  0
 71 82  1  0  0  0
 71145  1  0  0  0
 72 80  1  0  0  0
 72 83  1  0  0  0
 73 74  1  0  0  0
 73 78  1  0  0  0
 73 82  2  0  0  0
 74 79  1  0  0  0
 74 83  2  0  0  0
 75 76  1  0  0  0
 75 77  1  0  0  0
 75146  1  0  0  0
 75147  1  0  0  0
 76 84  1  0  0  0
 76148  1  0  0  0
 76149  1  0  0  0
 77 81  1  0  0  0
 77 84  1  0  0  0
 77150  1  0  0  0
 78151  1  0  0  0
 78152  1  0  0  0
 78153  1  0  0  0
 79 85  1  0  0  0
 79154  1  0  0  0
 79155  1  0  0  0
 80156  1  0  0  0
 80157  1  0  0  0
 81 85  1  0  0  0
 81158  1  0  0  0
 81159  1  0  0  0
 85160  1  0  0  0
 85161  1  0  0  0
M  CHG  1  85   1
M  ISO  4   1 100  68 101  80 101  84 100
M  END
> <chiral flag>
0

> <version>
0

> <s_m_source_file>
/data/baiqing/PycharmProjects/Reinvent-master-3.2/result/LINK_invent/BTK/process_docking_weight1_custom_sum_contain_oxygen_bond_distance_aromatic_linkinvent_7_9_3/rearranged_h_0185.sdf

> <i_m_source_file_index>
94

> <r_mmod_Potential_Energy-OPLS-2005>
12487.548828125

> <r_mmod_Stretch_Energy-OPLS-2005>
4772.69873046875

> <r_mmod_Bend_Energy-OPLS-2005>
3855.72485351562

> <r_mmod_Torsional_Energy-OPLS-2005>
425.520935058594

> <r_mmod_Improper_Torsional_Energy-OPLS-2005>
15.6252336502075

> <r_mmod_Van_der_Waal_Energy-OPLS-2005>
1098.88708496094

> <r_mmod_Electrostatic_Energy-OPLS-2005>
-256.596405029297

> <r_mmod_Solvation_Energy-OPLS-2005>
-461.581115722656

> <b_mmod_Minimization_Converged-OPLS-2005>
0

> <r_mmod_RMS_Derivative-OPLS-2005>
99.9990005493164

$$$$
