0
                    3D
 Structure written by MMmdl.
168176  0  0  1  0            999 V2000
  -30.8175  -14.4676   20.5274 C   0  0  0  0  0  0
  -30.3862  -12.2942   19.4513 C   0  0  0  0  0  0
  -29.4917  -12.4812   18.2141 C   0  0  0  0  0  0
  -28.0141  -12.3589   18.6261 C   0  0  0  0  0  0
  -27.6528  -13.2307   19.8596 C   0  0  2  0  0  0
  -28.7007  -13.1178   20.9927 C   0  0  0  0  0  0
  -25.2525  -13.8216   20.5704 C   0  0  0  0  0  0
  -24.1800  -13.0468   20.9181 C   0  0  0  0  0  0
  -24.6393  -11.6952   20.8743 C   0  0  0  0  0  0
  -23.9067  -10.4326   21.0419 C   0  0  0  0  0  0
  -24.3618   -9.4238   21.9208 C   0  0  0  0  0  0
  -23.6296   -8.2270   22.0780 C   0  0  0  0  0  0
  -22.4274   -8.0309   21.3575 C   0  0  0  0  0  0
  -21.9897   -9.0274   20.4663 C   0  0  0  0  0  0
  -22.7226  -10.2169   20.3067 C   0  0  0  0  0  0
  -21.6849   -6.0770   22.5304 C   0  0  0  0  0  0
  -21.4028   -6.5668   23.8242 C   0  0  0  0  0  0
  -21.3641   -5.6794   24.9187 C   0  0  0  0  0  0
  -21.6024   -4.3059   24.7229 C   0  0  0  0  0  0
  -21.8804   -3.8189   23.4330 C   0  0  0  0  0  0
  -21.9186   -4.7018   22.3411 C   0  0  0  0  0  0
  -22.7802  -13.5258   21.1802 C   0  0  0  0  0  0
  -22.1665   -4.2211   21.0981 F   0  0  0  0  0  0
  -21.5594   -3.4534   25.7734 F   0  0  0  0  0  0
  -30.0326  -13.3568   20.4165 N   0  0  0  0  0  0
  -26.2984  -12.9429   20.3314 N   0  0  0  0  0  0
  -25.9322  -11.6563   20.5742 N   0  0  0  0  0  0
  -22.0384  -12.8314   22.0362 N   0  0  0  0  0  0
  -25.4215  -15.1934   20.4191 N   0  0  0  0  0  0
  -31.9468  -14.4583   20.0451 O   0  0  0  0  0  0
  -21.6621   -6.8924   21.4273 O   0  0  0  0  0  0
  -22.3510  -14.5559   20.6635 O   0  0  0  0  0  0
  -24.6177  -31.8689   23.2158 C   0  0  0  0  0  0
  -25.9055  -32.4852   23.8458 C   0  0  1  0  0  0
  -27.2109  -27.4114   20.0971 C   0  0  0  0  0  0
  -25.5886  -33.8649   24.2376 N   0  0  0  0  0  0
  -23.4064  -30.4985   21.5578 C   0  0  2  0  0  0
  -24.8473  -28.9768   20.1140 C   0  0  0  0  0  0
  -22.7460  -29.4647   22.5004 C   0  0  0  0  0  0
  -18.0263  -28.1373   22.8493 C   0  0  0  0  0  0
  -24.1471  -36.7313   23.2636 C   0  0  0  0  0  0
  -25.9430  -30.8357   21.3679 C   0  0  0  0  0  0
  -26.0167  -29.4723   20.7053 C   0  0  0  0  0  0
  -27.2065  -28.7001   20.6871 C   0  0  0  0  0  0
  -26.0194  -26.9515   19.4861 C   0  0  0  0  0  0
  -24.8437  -27.7174   19.5020 C   0  0  0  0  0  0
  -23.6150  -29.8486   20.1673 C   0  0  0  0  0  0
  -25.4090  -36.3134   24.0347 C   0  0  1  0  0  0
  -20.5869  -28.3642   23.1327 C   0  0  2  0  0  0
  -20.6761  -26.9378   22.5435 C   0  0  0  0  0  0
  -19.5730  -26.6364   21.5239 C   0  0  0  0  0  0
  -18.1897  -26.7917   22.1638 C   0  0  0  0  0  0
  -19.1523  -28.8830   23.2904 C   0  0  0  0  0  0
  -18.9450  -30.1427   23.8915 C   0  0  0  0  0  0
  -17.6455  -30.6578   24.0558 C   0  0  0  0  0  0
  -25.9018  -34.9493   23.5158 C   0  0  0  0  0  0
  -16.5341  -29.9089   23.6311 C   0  0  0  0  0  0
  -16.7250  -28.6502   23.0349 C   0  0  0  0  0  0
  -26.4469  -31.6619   25.0776 C   0  0  0  0  0  0
  -25.3754  -31.3713   26.1546 C   0  0  0  0  0  0
  -27.0281  -30.3064   24.6118 C   0  0  0  0  0  0
  -27.6044  -32.4343   25.7522 C   0  0  0  0  0  0
  -27.5577  -37.1803   24.8458 C   0  0  0  0  0  0
  -21.4184  -29.3012   22.3758 N   0  0  0  0  0  0
  -26.4278  -37.3821   23.9423 N   0  0  0  0  0  0
  -24.6753  -31.0814   22.1041 N   0  0  0  0  0  0
  -23.4238  -28.8153   23.3021 O   0  0  0  0  0  0
  -28.3426  -26.6106   20.1464 O   0  0  0  0  0  0
  -26.5594  -34.8931   22.4726 O   0  0  0  0  0  0
  -23.5367  -32.1424   23.7539 O   0  0  0  0  0  0
  -30.6891  -19.4719   21.4365 C   0  0  0  0  0  0
  -30.2534  -18.1521   21.1264 C   0  0  0  0  0  0
  -29.9383  -20.3232   20.6660 C   0  0  0  0  0  0
  -31.4714  -16.8270   22.8628 C   0  0  0  0  0  0
  -32.3571  -17.1080   20.5354 C   0  0  0  0  0  0
  -31.3736  -22.3080   21.2600 C   0  0  0  0  0  0
  -30.7412  -21.8859   18.8978 C   0  0  0  0  0  0
  -27.8833  -19.8282   19.1827 C   0  0  0  0  0  0
  -29.2950  -24.3070   20.5054 C   0  0  0  0  0  0
  -28.9941  -22.7666   20.5101 C   0  0  0  0  0  0
  -28.0954  -25.1855   20.0963 C   0  0  0  0  0  0
  -31.0640  -16.8791   21.3796 C   0  0  0  0  0  0
  -30.2206  -21.8040   20.3504 C   0  0  0  0  0  0
  -29.1646  -18.1836   20.3757 N   0  0  0  0  0  0
  -28.9671  -19.5016   20.0899 N   0  0  0  0  0  0
  -30.3245  -15.6054   21.0699 N   0  0  0  0  0  0
  -31.4372  -12.2965   19.1586 H   0  0  0  0  0  0
  -30.2216  -11.3159   19.9037 H   0  0  0  0  0  0
  -29.7302  -11.7384   17.4502 H   0  0  0  0  0  0
  -29.6829  -13.4547   17.7614 H   0  0  0  0  0  0
  -27.8264  -11.3102   18.8484 H   0  0  0  0  0  0
  -27.3675  -12.6055   17.7823 H   0  0  0  0  0  0
  -27.6718  -14.2630   19.5119 H   0  0  0  0  0  0
  -28.6667  -12.1295   21.4529 H   0  0  0  0  0  0
  -28.4794  -13.8312   21.7872 H   0  0  0  0  0  0
  -25.2775   -9.5707   22.4767 H   0  0  0  0  0  0
  -24.0033   -7.4628   22.7455 H   0  0  0  0  0  0
  -21.0847   -8.8762   19.8943 H   0  0  0  0  0  0
  -22.3691  -10.9691   19.6157 H   0  0  0  0  0  0
  -21.2064   -7.6175   23.9775 H   0  0  0  0  0  0
  -21.1444   -6.0521   25.9083 H   0  0  0  0  0  0
  -22.0603   -2.7660   23.2798 H   0  0  0  0  0  0
  -22.3963  -12.0081   22.4957 H   0  0  0  0  0  0
  -21.0980  -13.1402   22.2408 H   0  0  0  0  0  0
  -24.6576  -15.8479   20.5403 H   0  0  0  0  0  0
  -26.2810  -15.6436   20.1336 H   0  0  0  0  0  0
  -26.7146  -32.5561   23.1248 H   0  0  0  0  0  0
  -25.0050  -33.9821   25.0531 H   0  0  0  0  0  0
  -22.6935  -31.3153   21.4266 H   0  0  0  0  0  0
  -23.3752  -35.9625   23.3297 H   0  0  0  0  0  0
  -24.3571  -36.8929   22.2050 H   0  0  0  0  0  0
  -23.7206  -37.6505   23.6655 H   0  0  0  0  0  0
  -26.0667  -31.6078   20.6053 H   0  0  0  0  0  0
  -26.8275  -30.8809   21.9929 H   0  0  0  0  0  0
  -28.1093  -29.0790   21.1469 H   0  0  0  0  0  0
  -25.9601  -25.9916   18.9985 H   0  0  0  0  0  0
  -23.9430  -27.3286   19.0478 H   0  0  0  0  0  0
  -23.7417  -30.6333   19.4220 H   0  0  0  0  0  0
  -22.7346  -29.2852   19.8548 H   0  0  0  0  0  0
  -25.1262  -36.2008   25.0845 H   0  0  0  0  0  0
  -20.9942  -28.3193   24.1456 H   0  0  0  0  0  0
  -20.5671  -26.2246   23.3623 H   0  0  0  0  0  0
  -21.6627  -26.7418   22.1217 H   0  0  0  0  0  0
  -19.6880  -25.6284   21.1245 H   0  0  0  0  0  0
  -19.6654  -27.3203   20.6786 H   0  0  0  0  0  0
  -17.4179  -26.6676   21.4025 H   0  0  0  0  0  0
  -18.0246  -26.0058   22.9026 H   0  0  0  0  0  0
  -19.7923  -30.7232   24.2320 H   0  0  0  0  0  0
  -17.5003  -31.6265   24.5140 H   0  0  0  0  0  0
  -15.5340  -30.3005   23.7609 H   0  0  0  0  0  0
  -15.8643  -28.0820   22.7072 H   0  0  0  0  0  0
  -24.5928  -30.7040   25.7928 H   0  0  0  0  0  0
  -24.8945  -32.2858   26.5022 H   0  0  0  0  0  0
  -25.8138  -30.8904   27.0298 H   0  0  0  0  0  0
  -26.2808  -29.6862   24.1157 H   0  0  0  0  0  0
  -27.4049  -29.7261   25.4547 H   0  0  0  0  0  0
  -27.8654  -30.4401   23.9266 H   0  0  0  0  0  0
  -27.2658  -33.3642   26.2106 H   0  0  0  0  0  0
  -28.3828  -32.6908   25.0325 H   0  0  0  0  0  0
  -28.0738  -31.8476   26.5429 H   0  0  0  0  0  0
  -28.2591  -38.0106   24.7551 H   0  0  0  0  0  0
  -28.1071  -36.2646   24.6223 H   0  0  0  0  0  0
  -27.2302  -37.1398   25.8860 H   0  0  0  0  0  0
  -20.9351  -29.8790   21.7025 H   0  0  0  0  0  0
  -26.0163  -38.2883   24.1484 H   0  0  0  0  0  0
  -31.5689  -19.7314   22.0051 H   0  0  0  0  0  0
  -32.0565  -17.7019   23.1500 H   0  0  0  0  0  0
  -32.0815  -15.9493   23.0784 H   0  0  0  0  0  0
  -30.5970  -16.7986   23.5105 H   0  0  0  0  0  0
  -32.8067  -18.0833   20.7246 H   0  0  0  0  0  0
  -32.1464  -17.0743   19.4660 H   0  0  0  0  0  0
  -33.1527  -16.3970   20.7528 H   0  0  0  0  0  0
  -32.2734  -21.7056   21.1306 H   0  0  0  0  0  0
  -31.1034  -22.2659   22.3142 H   0  0  0  0  0  0
  -31.6758  -23.3326   21.0426 H   0  0  0  0  0  0
  -31.6719  -21.3300   18.7787 H   0  0  0  0  0  0
  -30.9309  -22.9108   18.5813 H   0  0  0  0  0  0
  -30.0440  -21.4619   18.1794 H   0  0  0  0  0  0
  -28.2807  -20.1819   18.2329 H   0  0  0  0  0  0
  -27.2406  -20.5886   19.6222 H   0  0  0  0  0  0
  -27.2726  -18.9474   18.9812 H   0  0  0  0  0  0
  -30.1010  -24.5394   19.8108 H   0  0  0  0  0  0
  -29.6419  -24.6073   21.4955 H   0  0  0  0  0  0
  -28.2839  -22.5578   19.7120 H   0  0  0  0  0  0
  -28.4671  -22.5237   21.4345 H   0  0  0  0  0  0
  -27.2487  -24.9348   20.7411 H   0  0  0  0  0  0
  -27.8310  -24.9127   19.0737 H   0  0  0  0  0  0
  -29.3455  -15.6084   21.3172 H   0  0  0  0  0  0
  1 25  1  0  0  0
  1 30  2  0  0  0
  1 86  1  0  0  0
  2  3  1  0  0  0
  2 25  1  0  0  0
  2 87  1  0  0  0
  2 88  1  0  0  0
  3  4  1  0  0  0
  3 89  1  0  0  0
  3 90  1  0  0  0
  4  5  1  0  0  0
  4 91  1  0  0  0
  4 92  1  0  0  0
  5  6  1  0  0  0
  5 26  1  0  0  0
  5 93  1  0  0  0
  6 25  1  0  0  0
  6 94  1  0  0  0
  6 95  1  0  0  0
  7  8  2  0  0  0
  7 26  1  0  0  0
  7 29  1  0  0  0
  8  9  1  0  0  0
  8 22  1  0  0  0
  9 10  1  0  0  0
  9 27  2  0  0  0
 10 11  2  0  0  0
 10 15  1  0  0  0
 11 12  1  0  0  0
 11 96  1  0  0  0
 12 13  2  0  0  0
 12 97  1  0  0  0
 13 14  1  0  0  0
 13 31  1  0  0  0
 14 15  2  0  0  0
 14 98  1  0  0  0
 15 99  1  0  0  0
 16 17  2  0  0  0
 16 21  1  0  0  0
 16 31  1  0  0  0
 17 18  1  0  0  0
 17100  1  0  0  0
 18 19  2  0  0  0
 18101  1  0  0  0
 19 20  1  0  0  0
 19 24  1  0  0  0
 20 21  2  0  0  0
 20102  1  0  0  0
 21 23  1  0  0  0
 22 28  1  0  0  0
 22 32  2  0  0  0
 26 27  1  0  0  0
 28103  1  0  0  0
 28104  1  0  0  0
 29105  1  0  0  0
 29106  1  0  0  0
 33 34  1  0  0  0
 33 66  1  0  0  0
 33 70  2  0  0  0
 34 36  1  0  0  0
 34 59  1  0  0  0
 34107  1  0  0  0
 35 44  2  0  0  0
 35 45  1  0  0  0
 35 68  1  0  0  0
 36 56  1  0  0  0
 36108  1  0  0  0
 37 39  1  0  0  0
 37 47  1  0  0  0
 37 66  1  0  0  0
 37109  1  0  0  0
 38 43  2  0  0  0
 38 46  1  0  0  0
 38 47  1  0  0  0
 39 64  1  0  0  0
 39 67  2  0  0  0
 40 52  1  0  0  0
 40 53  2  0  0  0
 40 58  1  0  0  0
 41110  1  0  0  0
 41111  1  0  0  0
 41112  1  0  0  0
 41 48  1  0  0  0
 42 43  1  0  0  0
 42 66  1  0  0  0
 42113  1  0  0  0
 42114  1  0  0  0
 43 44  1  0  0  0
 44115  1  0  0  0
 45 46  2  0  0  0
 45116  1  0  0  0
 46117  1  0  0  0
 47118  1  0  0  0
 47119  1  0  0  0
 48 56  1  0  0  0
 48 65  1  0  0  0
 48120  1  0  0  0
 49 50  1  0  0  0
 49 53  1  0  0  0
 49 64  1  0  0  0
 49121  1  0  0  0
 50 51  1  0  0  0
 50122  1  0  0  0
 50123  1  0  0  0
 51 52  1  0  0  0
 51124  1  0  0  0
 51125  1  0  0  0
 52126  1  0  0  0
 52127  1  0  0  0
 53 54  1  0  0  0
 54 55  2  0  0  0
 54128  1  0  0  0
 55 57  1  0  0  0
 55129  1  0  0  0
 56 69  2  0  0  0
 57 58  2  0  0  0
 57130  1  0  0  0
 58131  1  0  0  0
 59 60  1  0  0  0
 59 61  1  0  0  0
 59 62  1  0  0  0
 60132  1  0  0  0
 60133  1  0  0  0
 60134  1  0  0  0
 61135  1  0  0  0
 61136  1  0  0  0
 61137  1  0  0  0
 62138  1  0  0  0
 62139  1  0  0  0
 62140  1  0  0  0
 63 65  1  0  0  0
 63141  1  0  0  0
 63142  1  0  0  0
 63143  1  0  0  0
 64144  1  0  0  0
 65145  1  0  0  0
 68 81  1  0  0  0
 71 72  1  0  0  0
 71 73  2  0  0  0
 71146  1  0  0  0
 72 82  1  0  0  0
 72 84  2  0  0  0
 73 83  1  0  0  0
 73 85  1  0  0  0
 74147  1  0  0  0
 74148  1  0  0  0
 74149  1  0  0  0
 74 82  1  0  0  0
 75 82  1  0  0  0
 75150  1  0  0  0
 75151  1  0  0  0
 75152  1  0  0  0
 76153  1  0  0  0
 76154  1  0  0  0
 76155  1  0  0  0
 76 83  1  0  0  0
 77 83  1  0  0  0
 77156  1  0  0  0
 77157  1  0  0  0
 77158  1  0  0  0
 78 85  1  0  0  0
 78159  1  0  0  0
 78160  1  0  0  0
 78161  1  0  0  0
 79 80  1  0  0  0
 79 81  1  0  0  0
 79162  1  0  0  0
 79163  1  0  0  0
 80 83  1  0  0  0
 80164  1  0  0  0
 80165  1  0  0  0
 81166  1  0  0  0
 81167  1  0  0  0
 82 86  1  0  0  0
 84 85  1  0  0  0
 86168  1  0  0  0
M  ISO  4   1 100  68 101  81 101  86 100
M  END
> <chiral flag>
0

> <version>
0

> <s_m_source_file>
/data/baiqing/PycharmProjects/Reinvent-master-3.2/result/LINK_invent/BTK/process_docking_weight1_custom_sum_contain_oxygen_bond_distance_aromatic_linkinvent_7_9_3/rearranged_h_0073.sdf

> <i_m_source_file_index>
1

> <r_mmod_Potential_Energy-OPLS-2005>
-110.432083129883

> <r_mmod_Stretch_Energy-OPLS-2005>
50.4127006530762

> <r_mmod_Bend_Energy-OPLS-2005>
136.045959472656

> <r_mmod_Torsional_Energy-OPLS-2005>
216.727355957031

> <r_mmod_Improper_Torsional_Energy-OPLS-2005>
4.73225355148315

> <r_mmod_Van_der_Waal_Energy-OPLS-2005>
158.305313110352

> <r_mmod_Electrostatic_Energy-OPLS-2005>
-511.331817626953

> <r_mmod_Solvation_Energy-OPLS-2005>
-195.128112792969

> <b_mmod_Minimization_Converged-OPLS-2005>
0

> <r_mmod_RMS_Derivative-OPLS-2005>
4.64248132705688

$$$$
1
                    3D
 Structure written by MMmdl.
166174  0  0  1  0            999 V2000
  -30.6801  -14.4929   20.6487 C   0  0  0  0  0  0
  -30.4370  -12.3570   19.4081 C   0  0  0  0  0  0
  -29.4914  -12.5427   18.2016 C   0  0  0  0  0  0
  -28.0110  -12.3921   18.6096 C   0  0  0  0  0  0
  -27.6596  -13.2117   19.8802 C   0  0  2  0  0  0
  -28.7022  -12.9655   20.9924 C   0  0  0  0  0  0
  -25.2557  -13.8184   20.5682 C   0  0  0  0  0  0
  -24.1820  -13.0445   20.9172 C   0  0  0  0  0  0
  -24.6377  -11.6905   20.8755 C   0  0  0  0  0  0
  -23.9048  -10.4290   21.0413 C   0  0  0  0  0  0
  -24.3609   -9.4216   21.9179 C   0  0  0  0  0  0
  -23.6292   -8.2250   22.0766 C   0  0  0  0  0  0
  -22.4275   -8.0280   21.3552 C   0  0  0  0  0  0
  -21.9894   -9.0254   20.4659 C   0  0  0  0  0  0
  -22.7229  -10.2123   20.3063 C   0  0  0  0  0  0
  -21.6843   -6.0743   22.5293 C   0  0  0  0  0  0
  -21.4003   -6.5653   23.8230 C   0  0  0  0  0  0
  -21.3649   -5.6805   24.9193 C   0  0  0  0  0  0
  -21.6048   -4.3070   24.7240 C   0  0  0  0  0  0
  -21.8816   -3.8155   23.4360 C   0  0  0  0  0  0
  -21.9192   -4.6971   22.3413 C   0  0  0  0  0  0
  -22.7836  -13.5240   21.1824 C   0  0  0  0  0  0
  -22.1657   -4.2159   21.0990 F   0  0  0  0  0  0
  -21.5632   -3.4548   25.7743 F   0  0  0  0  0  0
  -30.0277  -13.3154   20.4478 N   0  0  0  0  0  0
  -26.3004  -12.9342   20.3400 N   0  0  0  0  0  0
  -25.9303  -11.6498   20.5770 N   0  0  0  0  0  0
  -22.0449  -12.8271   22.0395 N   0  0  0  0  0  0
  -25.4276  -15.1903   20.4123 N   0  0  0  0  0  0
  -31.8038  -14.7073   20.1872 O   0  0  0  0  0  0
  -21.6646   -6.8876   21.4242 O   0  0  0  0  0  0
  -22.3534  -14.5548   20.6668 O   0  0  0  0  0  0
  -24.6252  -31.8685   23.2088 C   0  0  0  0  0  0
  -25.9123  -32.4847   23.8388 C   0  0  1  0  0  0
  -27.2136  -27.3694   20.1097 C   0  0  0  0  0  0
  -25.5944  -33.8645   24.2308 N   0  0  0  0  0  0
  -23.4113  -30.4997   21.5487 C   0  0  2  0  0  0
  -24.8520  -28.9674   20.1059 C   0  0  0  0  0  0
  -22.7469  -29.4705   22.4934 C   0  0  0  0  0  0
  -18.0284  -28.1445   22.8523 C   0  0  0  0  0  0
  -24.1464  -36.7290   23.2632 C   0  0  0  0  0  0
  -25.9489  -30.8148   21.3691 C   0  0  0  0  0  0
  -26.0186  -29.4448   20.7162 C   0  0  0  0  0  0
  -27.1970  -28.6525   20.7208 C   0  0  0  0  0  0
  -26.0286  -26.9468   19.4604 C   0  0  0  0  0  0
  -24.8556  -27.7170   19.4737 C   0  0  0  0  0  0
  -23.6217  -29.8470   20.1582 C   0  0  0  0  0  0
  -25.4074  -36.3127   24.0346 C   0  0  1  0  0  0
  -20.5899  -28.3709   23.1327 C   0  0  2  0  0  0
  -20.6789  -26.9443   22.5430 C   0  0  0  0  0  0
  -19.5743  -26.6415   21.5279 C   0  0  0  0  0  0
  -18.1909  -26.7994   22.1672 C   0  0  0  0  0  0
  -19.1540  -28.8891   23.2924 C   0  0  0  0  0  0
  -18.9499  -30.1515   23.8916 C   0  0  0  0  0  0
  -17.6500  -30.6639   24.0605 C   0  0  0  0  0  0
  -25.9038  -34.9522   23.5116 C   0  0  0  0  0  0
  -16.5379  -29.9174   23.6337 C   0  0  0  0  0  0
  -16.7285  -28.6604   23.0329 C   0  0  0  0  0  0
  -26.4435  -31.6671   25.0779 C   0  0  0  0  0  0
  -25.3634  -31.3906   26.1505 C   0  0  0  0  0  0
  -27.0240  -30.3092   24.6225 C   0  0  0  0  0  0
  -27.5990  -32.4389   25.7576 C   0  0  0  0  0  0
  -27.5548  -37.1792   24.8464 C   0  0  0  0  0  0
  -21.4185  -29.3078   22.3735 N   0  0  0  0  0  0
  -26.4226  -37.3843   23.9465 N   0  0  0  0  0  0
  -24.6815  -31.0759   22.0993 N   0  0  0  0  0  0
  -23.4250  -28.8238   23.2947 O   0  0  0  0  0  0
  -28.3412  -26.5517   20.1817 O   0  0  0  0  0  0
  -26.5576  -34.8994   22.4674 O   0  0  0  0  0  0
  -23.5427  -32.1421   23.7466 O   0  0  0  0  0  0
  -31.3259  -17.9052   19.8002 C   0  0  0  0  0  0
  -30.4738  -17.9839   20.9246 C   0  0  0  0  0  0
  -31.2181  -20.1978   19.5005 C   0  0  0  0  0  0
  -30.3276  -20.3157   20.6054 C   0  0  0  0  0  0
  -31.7883  -21.3811   18.7322 C   0  0  0  0  0  0
  -32.6432  -16.5889   22.8301 C   0  0  0  0  0  0
  -27.4827  -22.0679   20.4277 C   0  0  0  0  0  0
  -29.8890  -21.6900   21.1647 C   0  0  0  0  0  0
  -31.1407  -16.7495   23.1054 C   0  0  0  0  0  0
  -29.0632  -24.1176   20.6933 C   0  0  0  0  0  0
  -28.1586  -25.1256   19.9129 C   0  0  0  0  0  0
  -30.2153  -16.7751   21.8640 C   0  0  2  0  0  0
  -28.9303  -22.5925   20.3076 C   0  0  1  0  0  0
  -31.6878  -18.9956   19.0894 N   0  0  0  0  0  0
  -29.9541  -19.1963   21.3024 N   0  0  0  0  0  0
  -29.9536  -15.4241   21.3046 N   0  0  0  0  0  0
  -31.4736  -12.5042   19.0958 H   0  0  0  0  0  0
  -30.3815  -11.3378   19.7948 H   0  0  0  0  0  0
  -29.7392  -11.8290   17.4151 H   0  0  0  0  0  0
  -29.6413  -13.5342   17.7718 H   0  0  0  0  0  0
  -27.8066  -11.3334   18.7751 H   0  0  0  0  0  0
  -27.3662  -12.6950   17.7827 H   0  0  0  0  0  0
  -27.7041  -14.2664   19.6065 H   0  0  0  0  0  0
  -28.6968  -11.9160   21.2888 H   0  0  0  0  0  0
  -28.4461  -13.5181   21.8984 H   0  0  0  0  0  0
  -25.2746   -9.5719   22.4767 H   0  0  0  0  0  0
  -24.0015   -7.4649   22.7487 H   0  0  0  0  0  0
  -21.0827   -8.8763   19.8968 H   0  0  0  0  0  0
  -22.3674  -10.9659   19.6191 H   0  0  0  0  0  0
  -21.1983   -7.6152   23.9738 H   0  0  0  0  0  0
  -21.1474   -6.0530   25.9102 H   0  0  0  0  0  0
  -22.0596   -2.7608   23.2863 H   0  0  0  0  0  0
  -22.4024  -11.9952   22.4837 H   0  0  0  0  0  0
  -21.1064  -13.1326   22.2557 H   0  0  0  0  0  0
  -24.6589  -15.8433   20.5355 H   0  0  0  0  0  0
  -26.2851  -15.6360   20.1108 H   0  0  0  0  0  0
  -26.7246  -32.5537   23.1199 H   0  0  0  0  0  0
  -25.0225  -33.9809   25.0543 H   0  0  0  0  0  0
  -22.7016  -31.3190   21.4121 H   0  0  0  0  0  0
  -23.3761  -35.9592   23.3317 H   0  0  0  0  0  0
  -24.3537  -36.8859   22.2034 H   0  0  0  0  0  0
  -23.7180  -37.6485   23.6614 H   0  0  0  0  0  0
  -26.0566  -31.5762   20.5910 H   0  0  0  0  0  0
  -26.8421  -30.8774   21.9808 H   0  0  0  0  0  0
  -28.0860  -29.0011   21.2273 H   0  0  0  0  0  0
  -25.9685  -26.0102   18.9299 H   0  0  0  0  0  0
  -23.9661  -27.3487   18.9823 H   0  0  0  0  0  0
  -23.7532  -30.6354   19.4164 H   0  0  0  0  0  0
  -22.7381  -29.2929   19.8385 H   0  0  0  0  0  0
  -25.1240  -36.1950   25.0822 H   0  0  0  0  0  0
  -20.9983  -28.3291   24.1455 H   0  0  0  0  0  0
  -20.5742  -26.2326   23.3629 H   0  0  0  0  0  0
  -21.6645  -26.7499   22.1182 H   0  0  0  0  0  0
  -19.6895  -25.6331   21.1323 H   0  0  0  0  0  0
  -19.6692  -27.3236   20.6834 H   0  0  0  0  0  0
  -17.4174  -26.6789   21.4068 H   0  0  0  0  0  0
  -18.0245  -26.0140   22.9064 H   0  0  0  0  0  0
  -19.7976  -30.7342   24.2249 H   0  0  0  0  0  0
  -17.5069  -31.6313   24.5248 H   0  0  0  0  0  0
  -15.5394  -30.3100   23.7685 H   0  0  0  0  0  0
  -15.8673  -28.0998   22.6947 H   0  0  0  0  0  0
  -24.5874  -30.7105   25.7956 H   0  0  0  0  0  0
  -24.8707  -32.3110   26.4696 H   0  0  0  0  0  0
  -25.7935  -30.9359   27.0453 H   0  0  0  0  0  0
  -26.2838  -29.6926   24.1100 H   0  0  0  0  0  0
  -27.3806  -29.7249   25.4725 H   0  0  0  0  0  0
  -27.8773  -30.4364   23.9540 H   0  0  0  0  0  0
  -27.2605  -33.3767   26.2010 H   0  0  0  0  0  0
  -28.3899  -32.6829   25.0463 H   0  0  0  0  0  0
  -28.0528  -31.8584   26.5616 H   0  0  0  0  0  0
  -28.2568  -38.0094   24.7524 H   0  0  0  0  0  0
  -28.1039  -36.2628   24.6238 H   0  0  0  0  0  0
  -27.2281  -37.1356   25.8870 H   0  0  0  0  0  0
  -20.9353  -29.8878   21.7025 H   0  0  0  0  0  0
  -26.0121  -38.2922   24.1513 H   0  0  0  0  0  0
  -31.7963  -16.9839   19.5025 H   0  0  0  0  0  0
  -31.3935  -22.3465   19.0366 H   0  0  0  0  0  0
  -31.5968  -21.2592   17.6650 H   0  0  0  0  0  0
  -32.8709  -21.4227   18.8632 H   0  0  0  0  0  0
  -32.8695  -15.5997   22.4374 H   0  0  0  0  0  0
  -33.2197  -16.7112   23.7512 H   0  0  0  0  0  0
  -33.0002  -17.3329   22.1191 H   0  0  0  0  0  0
  -27.4102  -21.0308   20.0962 H   0  0  0  0  0  0
  -26.7890  -22.6427   19.8141 H   0  0  0  0  0  0
  -27.1275  -22.0942   21.4590 H   0  0  0  0  0  0
  -30.8122  -22.2334   21.3590 H   0  0  0  0  0  0
  -29.4430  -21.5484   22.1514 H   0  0  0  0  0  0
  -30.9959  -17.6853   23.6447 H   0  0  0  0  0  0
  -30.8230  -15.9676   23.7979 H   0  0  0  0  0  0
  -30.1009  -24.4282   20.5729 H   0  0  0  0  0  0
  -28.8500  -24.2169   21.7593 H   0  0  0  0  0  0
  -27.1501  -24.8210   20.1786 H   0  0  0  0  0  0
  -28.2750  -24.9689   18.8393 H   0  0  0  0  0  0
  -29.2398  -17.0112   22.2934 H   0  0  0  0  0  0
  -29.2152  -22.5097   19.2586 H   0  0  0  0  0  0
  -29.0322  -15.0797   21.5335 H   0  0  0  0  0  0
  1 25  1  0  0  0
  1 30  2  0  0  0
  1 86  1  0  0  0
  2  3  1  0  0  0
  2 25  1  0  0  0
  2 87  1  0  0  0
  2 88  1  0  0  0
  3  4  1  0  0  0
  3 89  1  0  0  0
  3 90  1  0  0  0
  4  5  1  0  0  0
  4 91  1  0  0  0
  4 92  1  0  0  0
  5  6  1  0  0  0
  5 26  1  0  0  0
  5 93  1  0  0  0
  6 25  1  0  0  0
  6 94  1  0  0  0
  6 95  1  0  0  0
  7  8  2  0  0  0
  7 26  1  0  0  0
  7 29  1  0  0  0
  8  9  1  0  0  0
  8 22  1  0  0  0
  9 10  1  0  0  0
  9 27  2  0  0  0
 10 11  2  0  0  0
 10 15  1  0  0  0
 11 12  1  0  0  0
 11 96  1  0  0  0
 12 13  2  0  0  0
 12 97  1  0  0  0
 13 14  1  0  0  0
 13 31  1  0  0  0
 14 15  2  0  0  0
 14 98  1  0  0  0
 15 99  1  0  0  0
 16 17  2  0  0  0
 16 21  1  0  0  0
 16 31  1  0  0  0
 17 18  1  0  0  0
 17100  1  0  0  0
 18 19  2  0  0  0
 18101  1  0  0  0
 19 20  1  0  0  0
 19 24  1  0  0  0
 20 21  2  0  0  0
 20102  1  0  0  0
 21 23  1  0  0  0
 22 28  1  0  0  0
 22 32  2  0  0  0
 26 27  1  0  0  0
 28103  1  0  0  0
 28104  1  0  0  0
 29105  1  0  0  0
 29106  1  0  0  0
 33 34  1  0  0  0
 33 66  1  0  0  0
 33 70  2  0  0  0
 34 36  1  0  0  0
 34 59  1  0  0  0
 34107  1  0  0  0
 35 44  2  0  0  0
 35 45  1  0  0  0
 35 68  1  0  0  0
 36 56  1  0  0  0
 36108  1  0  0  0
 37 39  1  0  0  0
 37 47  1  0  0  0
 37 66  1  0  0  0
 37109  1  0  0  0
 38 43  2  0  0  0
 38 46  1  0  0  0
 38 47  1  0  0  0
 39 64  1  0  0  0
 39 67  2  0  0  0
 40 52  1  0  0  0
 40 53  2  0  0  0
 40 58  1  0  0  0
 41110  1  0  0  0
 41111  1  0  0  0
 41112  1  0  0  0
 41 48  1  0  0  0
 42 43  1  0  0  0
 42 66  1  0  0  0
 42113  1  0  0  0
 42114  1  0  0  0
 43 44  1  0  0  0
 44115  1  0  0  0
 45 46  2  0  0  0
 45116  1  0  0  0
 46117  1  0  0  0
 47118  1  0  0  0
 47119  1  0  0  0
 48 56  1  0  0  0
 48 65  1  0  0  0
 48120  1  0  0  0
 49 50  1  0  0  0
 49 53  1  0  0  0
 49 64  1  0  0  0
 49121  1  0  0  0
 50 51  1  0  0  0
 50122  1  0  0  0
 50123  1  0  0  0
 51 52  1  0  0  0
 51124  1  0  0  0
 51125  1  0  0  0
 52126  1  0  0  0
 52127  1  0  0  0
 53 54  1  0  0  0
 54 55  2  0  0  0
 54128  1  0  0  0
 55 57  1  0  0  0
 55129  1  0  0  0
 56 69  2  0  0  0
 57 58  2  0  0  0
 57130  1  0  0  0
 58131  1  0  0  0
 59 60  1  0  0  0
 59 61  1  0  0  0
 59 62  1  0  0  0
 60132  1  0  0  0
 60133  1  0  0  0
 60134  1  0  0  0
 61135  1  0  0  0
 61136  1  0  0  0
 61137  1  0  0  0
 62138  1  0  0  0
 62139  1  0  0  0
 62140  1  0  0  0
 63 65  1  0  0  0
 63141  1  0  0  0
 63142  1  0  0  0
 63143  1  0  0  0
 64144  1  0  0  0
 65145  1  0  0  0
 68 81  1  0  0  0
 71 72  2  0  0  0
 71 84  1  0  0  0
 71146  1  0  0  0
 72 82  1  0  0  0
 72 85  1  0  0  0
 73 74  1  0  0  0
 73 75  1  0  0  0
 73 84  2  0  0  0
 74 78  1  0  0  0
 74 85  2  0  0  0
 75147  1  0  0  0
 75148  1  0  0  0
 75149  1  0  0  0
 76 79  1  0  0  0
 76150  1  0  0  0
 76151  1  0  0  0
 76152  1  0  0  0
 77153  1  0  0  0
 77154  1  0  0  0
 77155  1  0  0  0
 77 83  1  0  0  0
 78 83  1  0  0  0
 78156  1  0  0  0
 78157  1  0  0  0
 79158  1  0  0  0
 79159  1  0  0  0
 79 82  1  0  0  0
 80 81  1  0  0  0
 80 83  1  0  0  0
 80160  1  0  0  0
 80161  1  0  0  0
 81162  1  0  0  0
 81163  1  0  0  0
 82 86  1  0  0  0
 82164  1  0  0  0
 83165  1  0  0  0
 86166  1  0  0  0
M  ISO  4   1 100  68 101  81 101  86 100
M  END
> <chiral flag>
0

> <version>
0

> <s_m_source_file>
/data/baiqing/PycharmProjects/Reinvent-master-3.2/result/LINK_invent/BTK/process_docking_weight1_custom_sum_contain_oxygen_bond_distance_aromatic_linkinvent_7_9_3/rearranged_h_0073.sdf

> <i_m_source_file_index>
2

> <r_mmod_Potential_Energy-OPLS-2005>
25.1624660491943

> <r_mmod_Stretch_Energy-OPLS-2005>
56.5291175842285

> <r_mmod_Bend_Energy-OPLS-2005>
143.899169921875

> <r_mmod_Torsional_Energy-OPLS-2005>
194.108459472656

> <r_mmod_Improper_Torsional_Energy-OPLS-2005>
3.4682879447937

> <r_mmod_Van_der_Waal_Energy-OPLS-2005>
156.578796386719

> <r_mmod_Electrostatic_Energy-OPLS-2005>
-341.075622558594

> <r_mmod_Solvation_Energy-OPLS-2005>
-213.867568969727

> <b_mmod_Minimization_Converged-OPLS-2005>
0

> <r_mmod_RMS_Derivative-OPLS-2005>
5.10746097564697

$$$$
2
                    3D
 Structure written by MMmdl.
161169  0  0  1  0            999 V2000
  -30.7234  -14.7057   20.2805 C   0  0  0  0  0  0
  -30.4135  -12.4084   19.4455 C   0  0  0  0  0  0
  -29.4790  -12.3520   18.2247 C   0  0  0  0  0  0
  -28.0077  -12.2506   18.6633 C   0  0  0  0  0  0
  -27.6220  -13.2067   19.8255 C   0  0  2  0  0  0
  -28.6969  -13.2756   20.9279 C   0  0  0  0  0  0
  -25.2521  -13.8144   20.5784 C   0  0  0  0  0  0
  -24.1779  -13.0428   20.9241 C   0  0  0  0  0  0
  -24.6338  -11.6890   20.8816 C   0  0  0  0  0  0
  -23.9014  -10.4281   21.0439 C   0  0  0  0  0  0
  -24.3580   -9.4191   21.9200 C   0  0  0  0  0  0
  -23.6265   -8.2224   22.0764 C   0  0  0  0  0  0
  -22.4255   -8.0262   21.3545 C   0  0  0  0  0  0
  -21.9889   -9.0235   20.4655 C   0  0  0  0  0  0
  -22.7198  -10.2124   20.3078 C   0  0  0  0  0  0
  -21.6851   -6.0710   22.5271 C   0  0  0  0  0  0
  -21.3999   -6.5620   23.8195 C   0  0  0  0  0  0
  -21.3659   -5.6785   24.9164 C   0  0  0  0  0  0
  -21.6051   -4.3046   24.7228 C   0  0  0  0  0  0
  -21.8809   -3.8130   23.4349 C   0  0  0  0  0  0
  -21.9185   -4.6940   22.3400 C   0  0  0  0  0  0
  -22.7810  -13.5237   21.1866 C   0  0  0  0  0  0
  -22.1666   -4.2132   21.0982 F   0  0  0  0  0  0
  -21.5642   -3.4533   25.7742 F   0  0  0  0  0  0
  -29.9829  -13.5476   20.2756 N   0  0  0  0  0  0
  -26.2894  -12.9278   20.3391 N   0  0  0  0  0  0
  -25.9261  -11.6458   20.5897 N   0  0  0  0  0  0
  -22.0452  -12.8224   22.0418 N   0  0  0  0  0  0
  -25.4292  -15.1875   20.4234 N   0  0  0  0  0  0
  -31.9335  -14.5696   20.4567 O   0  0  0  0  0  0
  -21.6630   -6.8852   21.4232 O   0  0  0  0  0  0
  -22.3511  -14.5547   20.6708 O   0  0  0  0  0  0
  -24.6218  -31.8622   23.2022 C   0  0  0  0  0  0
  -25.9083  -32.4782   23.8343 C   0  0  1  0  0  0
  -27.2255  -27.3525   20.1183 C   0  0  0  0  0  0
  -25.5902  -33.8579   24.2274 N   0  0  0  0  0  0
  -23.4123  -30.4842   21.5447 C   0  0  2  0  0  0
  -24.8567  -28.9374   20.1100 C   0  0  0  0  0  0
  -22.7445  -29.4638   22.4956 C   0  0  0  0  0  0
  -18.0279  -28.1398   22.8502 C   0  0  0  0  0  0
  -24.1477  -36.7312   23.2640 C   0  0  0  0  0  0
  -25.9464  -30.8049   21.3625 C   0  0  0  0  0  0
  -26.0197  -29.4328   20.7098 C   0  0  0  0  0  0
  -27.2041  -28.6504   20.7028 C   0  0  0  0  0  0
  -26.0375  -26.8850   19.5146 C   0  0  0  0  0  0
  -24.8657  -27.6684   19.5052 C   0  0  0  0  0  0
  -23.6231  -29.8145   20.1597 C   0  0  0  0  0  0
  -25.4100  -36.3085   24.0328 C   0  0  1  0  0  0
  -20.5878  -28.3684   23.1306 C   0  0  2  0  0  0
  -20.6762  -26.9411   22.5424 C   0  0  0  0  0  0
  -19.5733  -26.6389   21.5232 C   0  0  0  0  0  0
  -18.1919  -26.7937   22.1648 C   0  0  0  0  0  0
  -19.1532  -28.8858   23.2900 C   0  0  0  0  0  0
  -18.9456  -30.1467   23.8901 C   0  0  0  0  0  0
  -17.6458  -30.6597   24.0575 C   0  0  0  0  0  0
  -25.9042  -34.9452   23.5104 C   0  0  0  0  0  0
  -16.5352  -29.9102   23.6328 C   0  0  0  0  0  0
  -16.7268  -28.6527   23.0337 C   0  0  0  0  0  0
  -26.4471  -31.6579   25.0704 C   0  0  0  0  0  0
  -25.3714  -31.3735   26.1447 C   0  0  0  0  0  0
  -27.0310  -30.3003   24.6143 C   0  0  0  0  0  0
  -27.6025  -32.4319   25.7488 C   0  0  0  0  0  0
  -27.5572  -37.1808   24.8463 C   0  0  0  0  0  0
  -21.4166  -29.3037   22.3696 N   0  0  0  0  0  0
  -26.4278  -37.3775   23.9411 N   0  0  0  0  0  0
  -24.6791  -31.0668   22.0945 N   0  0  0  0  0  0
  -23.4190  -28.8179   23.3018 O   0  0  0  0  0  0
  -28.3923  -26.5932   20.1693 O   0  0  0  0  0  0
  -26.5625  -34.8916   22.4679 O   0  0  0  0  0  0
  -23.5397  -32.1410   23.7387 O   0  0  0  0  0  0
  -27.9325  -18.8493   20.1932 C   0  0  0  0  0  0
  -28.7677  -19.9688   20.4169 C   0  0  0  0  0  0
  -30.0973  -19.6015   20.7393 C   0  0  0  0  0  0
  -29.6823  -17.3244   20.3255 C   0  0  0  0  0  0
  -31.1948  -20.6058   21.0266 C   0  0  0  0  0  0
  -31.6639  -16.6434   18.9106 C   0  0  0  0  0  0
  -29.5294  -15.8967   18.2224 C   0  0  0  0  0  0
  -28.1805  -21.4178   20.2087 C   0  0  0  0  0  0
  -28.8589  -22.7099   20.8090 C   0  0  0  0  0  0
  -28.0624  -24.0855   20.7884 C   0  0  0  0  0  0
  -28.4650  -25.1937   19.7416 C   0  0  0  0  0  0
  -30.3268  -16.0999   19.5392 C   0  0  0  0  0  0
  -28.3790  -17.5671   20.1491 N   0  0  0  0  0  0
  -30.5092  -18.3077   20.7200 N   0  0  0  0  0  0
  -31.4495  -12.5029   19.1126 H   0  0  0  0  0  0
  -30.3637  -11.4817   20.0192 H   0  0  0  0  0  0
  -29.7368  -11.4878   17.6120 H   0  0  0  0  0  0
  -29.6191  -13.2021   17.5708 H   0  0  0  0  0  0
  -27.8531  -11.2186   18.9803 H   0  0  0  0  0  0
  -27.3456  -12.4047   17.8106 H   0  0  0  0  0  0
  -27.5458  -14.1897   19.3907 H   0  0  0  0  0  0
  -28.7433  -12.3475   21.4992 H   0  0  0  0  0  0
  -28.4601  -14.0725   21.6358 H   0  0  0  0  0  0
  -25.2722   -9.5669   22.4778 H   0  0  0  0  0  0
  -23.9974   -7.4611   22.7486 H   0  0  0  0  0  0
  -21.0818   -8.8735   19.8961 H   0  0  0  0  0  0
  -22.3640  -10.9662   19.6201 H   0  0  0  0  0  0
  -21.1992   -7.6131   23.9678 H   0  0  0  0  0  0
  -21.1503   -6.0529   25.9059 H   0  0  0  0  0  0
  -22.0599   -2.7593   23.2854 H   0  0  0  0  0  0
  -22.4084  -11.9882   22.4795 H   0  0  0  0  0  0
  -21.1085  -13.1262   22.2659 H   0  0  0  0  0  0
  -24.6761  -15.8514   20.5598 H   0  0  0  0  0  0
  -26.3059  -15.6337   20.1771 H   0  0  0  0  0  0
  -26.7145  -32.5461   23.1093 H   0  0  0  0  0  0
  -24.9979  -33.9721   25.0369 H   0  0  0  0  0  0
  -22.7040  -31.3030   21.4019 H   0  0  0  0  0  0
  -23.3727  -35.9661   23.3303 H   0  0  0  0  0  0
  -24.3568  -36.8943   22.2056 H   0  0  0  0  0  0
  -23.7245  -37.6518   23.6667 H   0  0  0  0  0  0
  -26.0615  -31.5677   20.5919 H   0  0  0  0  0  0
  -26.8340  -30.8624   21.9803 H   0  0  0  0  0  0
  -28.1008  -29.0306   21.1703 H   0  0  0  0  0  0
  -25.9900  -25.9065   19.0609 H   0  0  0  0  0  0
  -23.9702  -27.2805   19.0388 H   0  0  0  0  0  0
  -23.7363  -30.5900   19.4016 H   0  0  0  0  0  0
  -22.7440  -29.2409   19.8605 H   0  0  0  0  0  0
  -25.1275  -36.1934   25.0822 H   0  0  0  0  0  0
  -20.9974  -28.3248   24.1425 H   0  0  0  0  0  0
  -20.5677  -26.2294   23.3621 H   0  0  0  0  0  0
  -21.6628  -26.7446   22.1209 H   0  0  0  0  0  0
  -19.6888  -25.6299   21.1258 H   0  0  0  0  0  0
  -19.6658  -27.3206   20.6767 H   0  0  0  0  0  0
  -17.4184  -26.6693   21.4056 H   0  0  0  0  0  0
  -18.0305  -26.0093   22.9052 H   0  0  0  0  0  0
  -19.7932  -30.7297   24.2257 H   0  0  0  0  0  0
  -17.5008  -31.6274   24.5187 H   0  0  0  0  0  0
  -15.5349  -30.3006   23.7641 H   0  0  0  0  0  0
  -15.8674  -28.0860   22.7010 H   0  0  0  0  0  0
  -24.5868  -30.7098   25.7788 H   0  0  0  0  0  0
  -24.8927  -32.2916   26.4869 H   0  0  0  0  0  0
  -25.8043  -30.8912   27.0222 H   0  0  0  0  0  0
  -26.2881  -29.6773   24.1148 H   0  0  0  0  0  0
  -27.3987  -29.7235   25.4642 H   0  0  0  0  0  0
  -27.8751  -30.4290   23.9363 H   0  0  0  0  0  0
  -27.2613  -33.3610   26.2071 H   0  0  0  0  0  0
  -28.3838  -32.6910   25.0328 H   0  0  0  0  0  0
  -28.0691  -31.8449   26.5413 H   0  0  0  0  0  0
  -28.2585  -38.0105   24.7500 H   0  0  0  0  0  0
  -28.1067  -36.2639   24.6287 H   0  0  0  0  0  0
  -27.2301  -37.1461   25.8868 H   0  0  0  0  0  0
  -20.9333  -29.8754   21.6908 H   0  0  0  0  0  0
  -26.0164  -38.2854   24.1409 H   0  0  0  0  0  0
  -26.8877  -18.9884   19.9543 H   0  0  0  0  0  0
  -30.9291  -21.2547   21.8591 H   0  0  0  0  0  0
  -31.3906  -21.2122   20.1420 H   0  0  0  0  0  0
  -32.1282  -20.1111   21.2946 H   0  0  0  0  0  0
  -31.5037  -17.5421   18.3126 H   0  0  0  0  0  0
  -32.1428  -15.9106   18.2591 H   0  0  0  0  0  0
  -32.3977  -16.9141   19.6713 H   0  0  0  0  0  0
  -29.4615  -16.8330   17.6675 H   0  0  0  0  0  0
  -28.5004  -15.6012   18.3651 H   0  0  0  0  0  0
  -30.0176  -15.2025   17.5462 H   0  0  0  0  0  0
  -27.1567  -21.3863   20.5839 H   0  0  0  0  0  0
  -28.0850  -21.5668   19.1324 H   0  0  0  0  0  0
  -29.8389  -22.8696   20.3621 H   0  0  0  0  0  0
  -29.0427  -22.4922   21.8617 H   0  0  0  0  0  0
  -28.2198  -24.5378   21.7687 H   0  0  0  0  0  0
  -26.9883  -23.9028   20.7390 H   0  0  0  0  0  0
  -27.9581  -25.0339   18.7904 H   0  0  0  0  0  0
  -29.5204  -25.0445   19.5107 H   0  0  0  0  0  0
  1 25  1  0  0  0
  1 30  2  0  0  0
  1 82  1  0  0  0
  2  3  1  0  0  0
  2 25  1  0  0  0
  2 85  1  0  0  0
  2 86  1  0  0  0
  3  4  1  0  0  0
  3 87  1  0  0  0
  3 88  1  0  0  0
  4  5  1  0  0  0
  4 89  1  0  0  0
  4 90  1  0  0  0
  5  6  1  0  0  0
  5 26  1  0  0  0
  5 91  1  0  0  0
  6 25  1  0  0  0
  6 92  1  0  0  0
  6 93  1  0  0  0
  7  8  2  0  0  0
  7 26  1  0  0  0
  7 29  1  0  0  0
  8  9  1  0  0  0
  8 22  1  0  0  0
  9 10  1  0  0  0
  9 27  2  0  0  0
 10 11  2  0  0  0
 10 15  1  0  0  0
 11 12  1  0  0  0
 11 94  1  0  0  0
 12 13  2  0  0  0
 12 95  1  0  0  0
 13 14  1  0  0  0
 13 31  1  0  0  0
 14 15  2  0  0  0
 14 96  1  0  0  0
 15 97  1  0  0  0
 16 17  2  0  0  0
 16 21  1  0  0  0
 16 31  1  0  0  0
 17 18  1  0  0  0
 17 98  1  0  0  0
 18 19  2  0  0  0
 18 99  1  0  0  0
 19 20  1  0  0  0
 19 24  1  0  0  0
 20 21  2  0  0  0
 20100  1  0  0  0
 21 23  1  0  0  0
 22 28  1  0  0  0
 22 32  2  0  0  0
 26 27  1  0  0  0
 28101  1  0  0  0
 28102  1  0  0  0
 29103  1  0  0  0
 29104  1  0  0  0
 33 34  1  0  0  0
 33 66  1  0  0  0
 33 70  2  0  0  0
 34 36  1  0  0  0
 34 59  1  0  0  0
 34105  1  0  0  0
 35 44  2  0  0  0
 35 45  1  0  0  0
 35 68  1  0  0  0
 36 56  1  0  0  0
 36106  1  0  0  0
 37 39  1  0  0  0
 37 47  1  0  0  0
 37 66  1  0  0  0
 37107  1  0  0  0
 38 43  2  0  0  0
 38 46  1  0  0  0
 38 47  1  0  0  0
 39 64  1  0  0  0
 39 67  2  0  0  0
 40 52  1  0  0  0
 40 53  2  0  0  0
 40 58  1  0  0  0
 41108  1  0  0  0
 41109  1  0  0  0
 41110  1  0  0  0
 41 48  1  0  0  0
 42 43  1  0  0  0
 42 66  1  0  0  0
 42111  1  0  0  0
 42112  1  0  0  0
 43 44  1  0  0  0
 44113  1  0  0  0
 45 46  2  0  0  0
 45114  1  0  0  0
 46115  1  0  0  0
 47116  1  0  0  0
 47117  1  0  0  0
 48 56  1  0  0  0
 48 65  1  0  0  0
 48118  1  0  0  0
 49 50  1  0  0  0
 49 53  1  0  0  0
 49 64  1  0  0  0
 49119  1  0  0  0
 50 51  1  0  0  0
 50120  1  0  0  0
 50121  1  0  0  0
 51 52  1  0  0  0
 51122  1  0  0  0
 51123  1  0  0  0
 52124  1  0  0  0
 52125  1  0  0  0
 53 54  1  0  0  0
 54 55  2  0  0  0
 54126  1  0  0  0
 55 57  1  0  0  0
 55127  1  0  0  0
 56 69  2  0  0  0
 57 58  2  0  0  0
 57128  1  0  0  0
 58129  1  0  0  0
 59 60  1  0  0  0
 59 61  1  0  0  0
 59 62  1  0  0  0
 60130  1  0  0  0
 60131  1  0  0  0
 60132  1  0  0  0
 61133  1  0  0  0
 61134  1  0  0  0
 61135  1  0  0  0
 62136  1  0  0  0
 62137  1  0  0  0
 62138  1  0  0  0
 63 65  1  0  0  0
 63139  1  0  0  0
 63140  1  0  0  0
 63141  1  0  0  0
 64142  1  0  0  0
 65143  1  0  0  0
 68 81  1  0  0  0
 71 72  2  0  0  0
 71 83  1  0  0  0
 71144  1  0  0  0
 72 73  1  0  0  0
 72 78  1  0  0  0
 73 75  1  0  0  0
 73 84  2  0  0  0
 74 82  1  0  0  0
 74 83  2  0  0  0
 74 84  1  0  0  0
 75145  1  0  0  0
 75146  1  0  0  0
 75147  1  0  0  0
 76148  1  0  0  0
 76149  1  0  0  0
 76150  1  0  0  0
 76 82  1  0  0  0
 77 82  1  0  0  0
 77151  1  0  0  0
 77152  1  0  0  0
 77153  1  0  0  0
 78 79  1  0  0  0
 78154  1  0  0  0
 78155  1  0  0  0
 79 80  1  0  0  0
 79156  1  0  0  0
 79157  1  0  0  0
 80 81  1  0  0  0
 80158  1  0  0  0
 80159  1  0  0  0
 81160  1  0  0  0
 81161  1  0  0  0
M  ISO  4   1 100  68 101  81 101  82 100
M  END
> <chiral flag>
0

> <version>
0

> <s_m_source_file>
/data/baiqing/PycharmProjects/Reinvent-master-3.2/result/LINK_invent/BTK/process_docking_weight1_custom_sum_contain_oxygen_bond_distance_aromatic_linkinvent_7_9_3/rearranged_h_0073.sdf

> <i_m_source_file_index>
3

> <r_mmod_Potential_Energy-OPLS-2005>
-0.13028946518898

> <r_mmod_Stretch_Energy-OPLS-2005>
83.9978485107422

> <r_mmod_Bend_Energy-OPLS-2005>
204.905868530273

> <r_mmod_Torsional_Energy-OPLS-2005>
267.492614746094

> <r_mmod_Improper_Torsional_Energy-OPLS-2005>
22.7471809387207

> <r_mmod_Van_der_Waal_Energy-OPLS-2005>
177.202865600586

> <r_mmod_Electrostatic_Energy-OPLS-2005>
-659.061462402344

> <r_mmod_Solvation_Energy-OPLS-2005>
-196.226348876953

> <b_mmod_Minimization_Converged-OPLS-2005>
0

> <r_mmod_RMS_Derivative-OPLS-2005>
1.9727246761322

$$$$
3
                    3D
 Structure written by MMmdl.
163171  0  0  1  0            999 V2000
  -30.7020  -14.4927   20.5995 C   0  0  0  0  0  0
  -30.4289  -12.3307   19.4226 C   0  0  0  0  0  0
  -29.4979  -12.5181   18.2071 C   0  0  0  0  0  0
  -28.0205  -12.3676   18.6202 C   0  0  0  0  0  0
  -27.6637  -13.2091   19.8743 C   0  0  2  0  0  0
  -28.7048  -12.9940   20.9957 C   0  0  0  0  0  0
  -25.2612  -13.8169   20.5674 C   0  0  0  0  0  0
  -24.1857  -13.0447   20.9157 C   0  0  0  0  0  0
  -24.6404  -11.6909   20.8723 C   0  0  0  0  0  0
  -23.9066  -10.4299   21.0397 C   0  0  0  0  0  0
  -24.3616   -9.4219   21.9177 C   0  0  0  0  0  0
  -23.6293   -8.2256   22.0756 C   0  0  0  0  0  0
  -22.4275   -8.0289   21.3544 C   0  0  0  0  0  0
  -21.9909   -9.0263   20.4645 C   0  0  0  0  0  0
  -22.7238  -10.2142   20.3049 C   0  0  0  0  0  0
  -21.6858   -6.0739   22.5278 C   0  0  0  0  0  0
  -21.4021   -6.5639   23.8212 C   0  0  0  0  0  0
  -21.3660   -5.6786   24.9170 C   0  0  0  0  0  0
  -21.6046   -4.3050   24.7219 C   0  0  0  0  0  0
  -21.8819   -3.8145   23.4340 C   0  0  0  0  0  0
  -21.9196   -4.6966   22.3399 C   0  0  0  0  0  0
  -22.7880  -13.5250   21.1819 C   0  0  0  0  0  0
  -22.1666   -4.2151   21.0977 F   0  0  0  0  0  0
  -21.5628   -3.4535   25.7734 F   0  0  0  0  0  0
  -30.0345  -13.3129   20.4472 N   0  0  0  0  0  0
  -26.3044  -12.9340   20.3352 N   0  0  0  0  0  0
  -25.9332  -11.6498   20.5750 N   0  0  0  0  0  0
  -22.0512  -12.8253   22.0377 N   0  0  0  0  0  0
  -25.4358  -15.1887   20.4100 N   0  0  0  0  0  0
  -31.7984  -14.6990   20.0728 O   0  0  0  0  0  0
  -21.6641   -6.8884   21.4241 O   0  0  0  0  0  0
  -22.3566  -14.5552   20.6662 O   0  0  0  0  0  0
  -24.6165  -31.8662   23.2075 C   0  0  0  0  0  0
  -25.9053  -32.4808   23.8370 C   0  0  1  0  0  0
  -27.2265  -27.4072   20.1012 C   0  0  0  0  0  0
  -25.5893  -33.8608   24.2297 N   0  0  0  0  0  0
  -23.4053  -30.4904   21.5496 C   0  0  2  0  0  0
  -24.8516  -28.9567   20.1120 C   0  0  0  0  0  0
  -22.7423  -29.4650   22.4981 C   0  0  0  0  0  0
  -18.0266  -28.1377   22.8494 C   0  0  0  0  0  0
  -24.1491  -36.7328   23.2636 C   0  0  0  0  0  0
  -25.9372  -30.8254   21.3640 C   0  0  0  0  0  0
  -26.0156  -29.4584   20.7092 C   0  0  0  0  0  0
  -27.2082  -28.6928   20.6984 C   0  0  0  0  0  0
  -26.0484  -26.9376   19.4791 C   0  0  0  0  0  0
  -24.8650  -27.6970   19.4916 C   0  0  0  0  0  0
  -23.6137  -29.8241   20.1643 C   0  0  0  0  0  0
  -25.4112  -36.3104   24.0325 C   0  0  1  0  0  0
  -20.5861  -28.3664   23.1316 C   0  0  2  0  0  0
  -20.6754  -26.9398   22.5418 C   0  0  0  0  0  0
  -19.5736  -26.6379   21.5214 C   0  0  0  0  0  0
  -18.1913  -26.7922   22.1626 C   0  0  0  0  0  0
  -19.1519  -28.8837   23.2897 C   0  0  0  0  0  0
  -18.9453  -30.1441   23.8911 C   0  0  0  0  0  0
  -17.6458  -30.6585   24.0567 C   0  0  0  0  0  0
  -25.9039  -34.9471   23.5110 C   0  0  0  0  0  0
  -16.5346  -29.9092   23.6324 C   0  0  0  0  0  0
  -16.7258  -28.6506   23.0348 C   0  0  0  0  0  0
  -26.4463  -31.6581   25.0706 C   0  0  0  0  0  0
  -25.3711  -31.3708   26.1443 C   0  0  0  0  0  0
  -27.0283  -30.3009   24.6096 C   0  0  0  0  0  0
  -27.6036  -32.4291   25.7472 C   0  0  0  0  0  0
  -27.5582  -37.1817   24.8459 C   0  0  0  0  0  0
  -21.4146  -29.3036   22.3733 N   0  0  0  0  0  0
  -26.4294  -37.3790   23.9402 N   0  0  0  0  0  0
  -24.6716  -31.0743   22.0991 N   0  0  0  0  0  0
  -23.4187  -28.8190   23.3028 O   0  0  0  0  0  0
  -28.3650  -26.6169   20.1165 O   0  0  0  0  0  0
  -26.5615  -34.8930   22.4680 O   0  0  0  0  0  0
  -23.5353  -32.1420   23.7463 O   0  0  0  0  0  0
  -30.1447  -19.3105   20.7948 C   0  0  0  0  0  0
  -29.5730  -20.2430   19.8886 C   0  0  0  0  0  0
  -29.8382  -17.9270   20.6556 C   0  0  0  0  0  0
  -28.7083  -19.6958   18.9081 C   0  0  0  0  0  0
  -28.0446  -20.5484   17.8420 C   0  0  0  0  0  0
  -31.9122  -17.0520   21.9195 C   0  0  0  0  0  0
  -28.3372  -25.4157   22.1955 C   0  0  0  0  0  0
  -29.9632  -21.7382   19.9046 C   0  0  0  0  0  0
  -28.8914  -22.7491   20.4103 C   0  0  0  0  0  0
  -29.2034  -24.2476   20.0797 C   0  0  0  0  0  0
  -30.4116  -16.8530   21.6128 C   0  0  2  0  0  0
  -28.1997  -25.2845   20.6707 C   0  0  2  0  0  0
  -28.9884  -17.4985   19.6885 N   0  0  0  0  0  0
  -28.4322  -18.3682   18.8376 N   0  0  0  0  0  0
  -30.0537  -15.4414   21.3066 N   0  0  0  0  0  0
  -31.4715  -12.4389   19.1191 H   0  0  0  0  0  0
  -30.3428  -11.3188   19.8217 H   0  0  0  0  0  0
  -29.7436  -11.7956   17.4281 H   0  0  0  0  0  0
  -29.6584  -13.5052   17.7704 H   0  0  0  0  0  0
  -27.8378  -11.3115   18.8193 H   0  0  0  0  0  0
  -27.3690  -12.6367   17.7878 H   0  0  0  0  0  0
  -27.7071  -14.2569   19.5746 H   0  0  0  0  0  0
  -28.6896  -11.9562   21.3322 H   0  0  0  0  0  0
  -28.4535  -13.5854   21.8770 H   0  0  0  0  0  0
  -25.2768   -9.5696   22.4742 H   0  0  0  0  0  0
  -24.0005   -7.4647   22.7474 H   0  0  0  0  0  0
  -21.0844   -8.8775   19.8946 H   0  0  0  0  0  0
  -22.3697  -10.9678   19.6148 H   0  0  0  0  0  0
  -21.2015   -7.6145   23.9716 H   0  0  0  0  0  0
  -21.1484   -6.0516   25.9074 H   0  0  0  0  0  0
  -22.0598   -2.7608   23.2835 H   0  0  0  0  0  0
  -22.4122  -11.9926   22.4799 H   0  0  0  0  0  0
  -21.1122  -13.1284   22.2545 H   0  0  0  0  0  0
  -24.6739  -15.8484   20.5191 H   0  0  0  0  0  0
  -26.2934  -15.6271   20.0943 H   0  0  0  0  0  0
  -26.7128  -32.5523   23.1131 H   0  0  0  0  0  0
  -24.9994  -33.9765   25.0407 H   0  0  0  0  0  0
  -22.6952  -31.3081   21.4109 H   0  0  0  0  0  0
  -23.3739  -35.9677   23.3298 H   0  0  0  0  0  0
  -24.3593  -36.8954   22.2053 H   0  0  0  0  0  0
  -23.7267  -37.6538   23.6665 H   0  0  0  0  0  0
  -26.0490  -31.5917   20.5954 H   0  0  0  0  0  0
  -26.8257  -30.8803   21.9815 H   0  0  0  0  0  0
  -28.1046  -29.0724   21.1691 H   0  0  0  0  0  0
  -26.0358  -25.9782   18.9815 H   0  0  0  0  0  0
  -23.9732  -27.3076   19.0197 H   0  0  0  0  0  0
  -23.7200  -30.5993   19.4046 H   0  0  0  0  0  0
  -22.7369  -29.2444   19.8699 H   0  0  0  0  0  0
  -25.1290  -36.1966   25.0819 H   0  0  0  0  0  0
  -20.9943  -28.3226   24.1438 H   0  0  0  0  0  0
  -20.5653  -26.2276   23.3607 H   0  0  0  0  0  0
  -21.6625  -26.7436   22.1216 H   0  0  0  0  0  0
  -19.6903  -25.6291   21.1239 H   0  0  0  0  0  0
  -19.6675  -27.3192   20.6747 H   0  0  0  0  0  0
  -17.4178  -26.6663   21.4030 H   0  0  0  0  0  0
  -18.0318  -26.0062   22.9024 H   0  0  0  0  0  0
  -19.7934  -30.7242   24.2294 H   0  0  0  0  0  0
  -17.5020  -31.6273   24.5159 H   0  0  0  0  0  0
  -15.5351  -30.3005   23.7643 H   0  0  0  0  0  0
  -15.8651  -28.0837   22.7057 H   0  0  0  0  0  0
  -24.5878  -30.7080   25.7755 H   0  0  0  0  0  0
  -24.8907  -32.2876   26.4877 H   0  0  0  0  0  0
  -25.8034  -30.8859   27.0201 H   0  0  0  0  0  0
  -26.2840  -29.6793   24.1107 H   0  0  0  0  0  0
  -27.3989  -29.7226   25.4568 H   0  0  0  0  0  0
  -27.8697  -30.4320   23.9287 H   0  0  0  0  0  0
  -27.2654  -33.3587   26.2056 H   0  0  0  0  0  0
  -28.3841  -32.6859   25.0296 H   0  0  0  0  0  0
  -28.0711  -31.8399   26.5370 H   0  0  0  0  0  0
  -28.2586  -38.0123   24.7493 H   0  0  0  0  0  0
  -28.1083  -36.2649   24.6280 H   0  0  0  0  0  0
  -27.2303  -37.1460   25.8862 H   0  0  0  0  0  0
  -20.9302  -29.8779   21.6977 H   0  0  0  0  0  0
  -26.0177  -38.2866   24.1396 H   0  0  0  0  0  0
  -30.8215  -19.6482   21.5648 H   0  0  0  0  0  0
  -28.7621  -21.2161   17.3671 H   0  0  0  0  0  0
  -27.2425  -21.1466   18.2711 H   0  0  0  0  0  0
  -27.6103  -19.9281   17.0576 H   0  0  0  0  0  0
  -32.0935  -17.9963   22.4333 H   0  0  0  0  0  0
  -32.5111  -17.0567   21.0090 H   0  0  0  0  0  0
  -32.2929  -16.2643   22.5701 H   0  0  0  0  0  0
  -28.1744  -24.4632   22.6976 H   0  0  0  0  0  0
  -27.6043  -26.1154   22.5970 H   0  0  0  0  0  0
  -29.3272  -25.7774   22.4730 H   0  0  0  0  0  0
  -30.2631  -22.0114   18.8930 H   0  0  0  0  0  0
  -30.8671  -21.8562   20.5037 H   0  0  0  0  0  0
  -28.7697  -22.6121   21.4845 H   0  0  0  0  0  0
  -27.9239  -22.5076   19.9726 H   0  0  0  0  0  0
  -29.2075  -24.3571   18.9942 H   0  0  0  0  0  0
  -30.2137  -24.4960   20.4066 H   0  0  0  0  0  0
  -29.8944  -17.0449   22.5539 H   0  0  0  0  0  0
  -27.2041  -24.8931   20.4656 H   0  0  0  0  0  0
  -29.1467  -15.1600   21.6443 H   0  0  0  0  0  0
  1 25  1  0  0  0
  1 30  2  0  0  0
  1 85  1  0  0  0
  2  3  1  0  0  0
  2 25  1  0  0  0
  2 86  1  0  0  0
  2 87  1  0  0  0
  3  4  1  0  0  0
  3 88  1  0  0  0
  3 89  1  0  0  0
  4  5  1  0  0  0
  4 90  1  0  0  0
  4 91  1  0  0  0
  5  6  1  0  0  0
  5 26  1  0  0  0
  5 92  1  0  0  0
  6 25  1  0  0  0
  6 93  1  0  0  0
  6 94  1  0  0  0
  7  8  2  0  0  0
  7 26  1  0  0  0
  7 29  1  0  0  0
  8  9  1  0  0  0
  8 22  1  0  0  0
  9 10  1  0  0  0
  9 27  2  0  0  0
 10 11  2  0  0  0
 10 15  1  0  0  0
 11 12  1  0  0  0
 11 95  1  0  0  0
 12 13  2  0  0  0
 12 96  1  0  0  0
 13 14  1  0  0  0
 13 31  1  0  0  0
 14 15  2  0  0  0
 14 97  1  0  0  0
 15 98  1  0  0  0
 16 17  2  0  0  0
 16 21  1  0  0  0
 16 31  1  0  0  0
 17 18  1  0  0  0
 17 99  1  0  0  0
 18 19  2  0  0  0
 18100  1  0  0  0
 19 20  1  0  0  0
 19 24  1  0  0  0
 20 21  2  0  0  0
 20101  1  0  0  0
 21 23  1  0  0  0
 22 28  1  0  0  0
 22 32  2  0  0  0
 26 27  1  0  0  0
 28102  1  0  0  0
 28103  1  0  0  0
 29104  1  0  0  0
 29105  1  0  0  0
 33 34  1  0  0  0
 33 66  1  0  0  0
 33 70  2  0  0  0
 34 36  1  0  0  0
 34 59  1  0  0  0
 34106  1  0  0  0
 35 44  2  0  0  0
 35 45  1  0  0  0
 35 68  1  0  0  0
 36 56  1  0  0  0
 36107  1  0  0  0
 37 39  1  0  0  0
 37 47  1  0  0  0
 37 66  1  0  0  0
 37108  1  0  0  0
 38 43  2  0  0  0
 38 46  1  0  0  0
 38 47  1  0  0  0
 39 64  1  0  0  0
 39 67  2  0  0  0
 40 52  1  0  0  0
 40 53  2  0  0  0
 40 58  1  0  0  0
 41109  1  0  0  0
 41110  1  0  0  0
 41111  1  0  0  0
 41 48  1  0  0  0
 42 43  1  0  0  0
 42 66  1  0  0  0
 42112  1  0  0  0
 42113  1  0  0  0
 43 44  1  0  0  0
 44114  1  0  0  0
 45 46  2  0  0  0
 45115  1  0  0  0
 46116  1  0  0  0
 47117  1  0  0  0
 47118  1  0  0  0
 48 56  1  0  0  0
 48 65  1  0  0  0
 48119  1  0  0  0
 49 50  1  0  0  0
 49 53  1  0  0  0
 49 64  1  0  0  0
 49120  1  0  0  0
 50 51  1  0  0  0
 50121  1  0  0  0
 50122  1  0  0  0
 51 52  1  0  0  0
 51123  1  0  0  0
 51124  1  0  0  0
 52125  1  0  0  0
 52126  1  0  0  0
 53 54  1  0  0  0
 54 55  2  0  0  0
 54127  1  0  0  0
 55 57  1  0  0  0
 55128  1  0  0  0
 56 69  2  0  0  0
 57 58  2  0  0  0
 57129  1  0  0  0
 58130  1  0  0  0
 59 60  1  0  0  0
 59 61  1  0  0  0
 59 62  1  0  0  0
 60131  1  0  0  0
 60132  1  0  0  0
 60133  1  0  0  0
 61134  1  0  0  0
 61135  1  0  0  0
 61136  1  0  0  0
 62137  1  0  0  0
 62138  1  0  0  0
 62139  1  0  0  0
 63 65  1  0  0  0
 63140  1  0  0  0
 63141  1  0  0  0
 63142  1  0  0  0
 64143  1  0  0  0
 65144  1  0  0  0
 68 82  1  0  0  0
 71 72  2  0  0  0
 71 73  1  0  0  0
 71145  1  0  0  0
 72 74  1  0  0  0
 72 78  1  0  0  0
 73 81  1  0  0  0
 73 83  2  0  0  0
 74 75  1  0  0  0
 74 84  2  0  0  0
 75146  1  0  0  0
 75147  1  0  0  0
 75148  1  0  0  0
 76149  1  0  0  0
 76150  1  0  0  0
 76151  1  0  0  0
 76 81  1  0  0  0
 77152  1  0  0  0
 77153  1  0  0  0
 77154  1  0  0  0
 77 82  1  0  0  0
 78 79  1  0  0  0
 78155  1  0  0  0
 78156  1  0  0  0
 79 80  1  0  0  0
 79157  1  0  0  0
 79158  1  0  0  0
 80 82  1  0  0  0
 80159  1  0  0  0
 80160  1  0  0  0
 81 85  1  0  0  0
 81161  1  0  0  0
 82162  1  0  0  0
 83 84  1  0  0  0
 85163  1  0  0  0
M  ISO  4   1 100  68 101  82 101  85 100
M  END
> <chiral flag>
0

> <version>
0

> <s_m_source_file>
/data/baiqing/PycharmProjects/Reinvent-master-3.2/result/LINK_invent/BTK/process_docking_weight1_custom_sum_contain_oxygen_bond_distance_aromatic_linkinvent_7_9_3/rearranged_h_0073.sdf

> <i_m_source_file_index>
4

> <r_mmod_Potential_Energy-OPLS-2005>
-118.355895996094

> <r_mmod_Stretch_Energy-OPLS-2005>
48.2306938171387

> <r_mmod_Bend_Energy-OPLS-2005>
110.13883972168

> <r_mmod_Torsional_Energy-OPLS-2005>
201.763244628906

> <r_mmod_Improper_Torsional_Energy-OPLS-2005>
2.41773748397827

> <r_mmod_Van_der_Waal_Energy-OPLS-2005>
152.438583374023

> <r_mmod_Electrostatic_Energy-OPLS-2005>
-429.556701660156

> <r_mmod_Solvation_Energy-OPLS-2005>
-219.675933837891

> <b_mmod_Minimization_Converged-OPLS-2005>
0

> <r_mmod_RMS_Derivative-OPLS-2005>
1.07502317428589

$$$$
4
                    3D
 Structure written by MMmdl.
166174  0  0  1  0            999 V2000
  -30.7215  -14.5391   20.5569 C   0  0  0  0  0  0
  -30.4118  -12.3474   19.4344 C   0  0  0  0  0  0
  -29.4864  -12.5204   18.2107 C   0  0  0  0  0  0
  -28.0140  -12.3552   18.6278 C   0  0  0  0  0  0
  -27.6526  -13.2094   19.8694 C   0  0  2  0  0  0
  -28.6942  -12.9794   20.9786 C   0  0  0  0  0  0
  -25.2542  -13.8081   20.5719 C   0  0  0  0  0  0
  -24.1822  -13.0336   20.9218 C   0  0  0  0  0  0
  -24.6387  -11.6830   20.8782 C   0  0  0  0  0  0
  -23.9034  -10.4226   21.0451 C   0  0  0  0  0  0
  -24.3565   -9.4153   21.9240 C   0  0  0  0  0  0
  -23.6249   -8.2182   22.0792 C   0  0  0  0  0  0
  -22.4234   -8.0232   21.3560 C   0  0  0  0  0  0
  -21.9889   -9.0201   20.4653 C   0  0  0  0  0  0
  -22.7205  -10.2083   20.3110 C   0  0  0  0  0  0
  -21.6826   -6.0704   22.5251 C   0  0  0  0  0  0
  -21.4010   -6.5642   23.8176 C   0  0  0  0  0  0
  -21.3701   -5.6807   24.9144 C   0  0  0  0  0  0
  -21.6057   -4.3068   24.7207 C   0  0  0  0  0  0
  -21.8816   -3.8133   23.4338 C   0  0  0  0  0  0
  -21.9218   -4.6938   22.3394 C   0  0  0  0  0  0
  -22.7861  -13.5166   21.1887 C   0  0  0  0  0  0
  -22.1690   -4.2136   21.0968 F   0  0  0  0  0  0
  -21.5641   -3.4591   25.7743 F   0  0  0  0  0  0
  -30.0194  -13.3565   20.4396 N   0  0  0  0  0  0
  -26.2959  -12.9280   20.3324 N   0  0  0  0  0  0
  -25.9304  -11.6418   20.5714 N   0  0  0  0  0  0
  -22.0489  -12.8153   22.0424 N   0  0  0  0  0  0
  -25.4191  -15.1800   20.4286 N   0  0  0  0  0  0
  -31.8380  -14.6550   20.0415 O   0  0  0  0  0  0
  -21.6596   -6.8830   21.4202 O   0  0  0  0  0  0
  -22.3601  -14.5508   20.6788 O   0  0  0  0  0  0
  -24.6144  -31.8672   23.2055 C   0  0  0  0  0  0
  -25.9032  -32.4821   23.8329 C   0  0  1  0  0  0
  -27.2524  -27.4159   20.0904 C   0  0  0  0  0  0
  -25.5926  -33.8612   24.2314 N   0  0  0  0  0  0
  -23.4031  -30.4901   21.5475 C   0  0  2  0  0  0
  -24.8517  -28.9526   20.1043 C   0  0  0  0  0  0
  -22.7409  -29.4638   22.4973 C   0  0  0  0  0  0
  -18.0293  -28.1427   22.8503 C   0  0  0  0  0  0
  -24.1502  -36.7313   23.2629 C   0  0  0  0  0  0
  -25.9302  -30.8291   21.3565 C   0  0  0  0  0  0
  -26.0107  -29.4596   20.7059 C   0  0  0  0  0  0
  -27.2034  -28.6987   20.6961 C   0  0  0  0  0  0
  -26.0728  -26.9288   19.4789 C   0  0  0  0  0  0
  -24.8813  -27.6902   19.4850 C   0  0  0  0  0  0
  -23.6098  -29.8214   20.1607 C   0  0  0  0  0  0
  -25.4126  -36.3083   24.0328 C   0  0  1  0  0  0
  -20.5865  -28.3700   23.1322 C   0  0  2  0  0  0
  -20.6797  -26.9436   22.5430 C   0  0  0  0  0  0
  -19.5768  -26.6406   21.5233 C   0  0  0  0  0  0
  -18.1932  -26.7967   22.1644 C   0  0  0  0  0  0
  -19.1530  -28.8877   23.2907 C   0  0  0  0  0  0
  -18.9460  -30.1482   23.8912 C   0  0  0  0  0  0
  -17.6457  -30.6606   24.0573 C   0  0  0  0  0  0
  -25.9060  -34.9449   23.5107 C   0  0  0  0  0  0
  -16.5366  -29.9109   23.6327 C   0  0  0  0  0  0
  -16.7266  -28.6554   23.0301 C   0  0  0  0  0  0
  -26.4456  -31.6586   25.0647 C   0  0  0  0  0  0
  -25.3692  -31.3695   26.1366 C   0  0  0  0  0  0
  -27.0279  -30.3018   24.6021 C   0  0  0  0  0  0
  -27.6047  -32.4284   25.7439 C   0  0  0  0  0  0
  -27.5606  -37.1798   24.8467 C   0  0  0  0  0  0
  -21.4143  -29.3038   22.3721 N   0  0  0  0  0  0
  -26.4314  -37.3784   23.9406 N   0  0  0  0  0  0
  -24.6682  -31.0732   22.0970 N   0  0  0  0  0  0
  -23.4154  -28.8209   23.3032 O   0  0  0  0  0  0
  -28.4550  -26.7202   20.1289 O   0  0  0  0  0  0
  -26.5609  -34.8921   22.4674 O   0  0  0  0  0  0
  -23.5352  -32.1463   23.7424 O   0  0  0  0  0  0
  -30.6181  -20.1301   20.6803 C   0  0  0  0  0  0
  -30.0315  -19.4284   19.5862 C   0  0  0  0  0  0
  -29.7768  -21.5046   18.5120 C   0  0  0  0  0  0
  -30.3538  -22.1821   19.6211 C   0  0  0  0  0  0
  -29.3790  -22.2477   17.2488 C   0  0  0  0  0  0
  -30.0354  -17.2565   18.2088 C   0  0  0  0  0  0
  -28.2081  -17.7234   19.8754 C   0  0  0  0  0  0
  -29.4748  -15.6065   22.3854 C   0  0  0  0  0  0
  -30.6901  -23.6875   19.6251 C   0  0  0  0  0  0
  -29.7551  -24.6583   20.4124 C   0  0  0  0  0  0
  -30.5377  -17.0667   20.6896 C   0  0  0  0  0  0
  -28.5823  -25.3585   19.6593 C   0  0  0  0  0  0
  -29.7176  -17.8816   19.5980 C   0  0  0  0  0  0
  -30.7731  -21.4796   20.7026 N   0  0  0  0  0  0
  -29.5969  -20.1504   18.5087 N   0  0  0  0  0  0
  -30.0956  -15.6606   21.0467 N   0  0  0  0  0  0
  -31.4566  -12.4170   19.1321 H   0  0  0  0  0  0
  -30.3060  -11.3454   19.8513 H   0  0  0  0  0  0
  -29.7387  -11.7966   17.4363 H   0  0  0  0  0  0
  -29.6372  -13.5067   17.7726 H   0  0  0  0  0  0
  -27.8577  -11.3021   18.8541 H   0  0  0  0  0  0
  -27.3479  -12.5906   17.7977 H   0  0  0  0  0  0
  -27.6939  -14.2565   19.5707 H   0  0  0  0  0  0
  -28.6883  -11.9240   21.2599 H   0  0  0  0  0  0
  -28.3967  -13.4776   21.8920 H   0  0  0  0  0  0
  -25.2673   -9.5668   22.4865 H   0  0  0  0  0  0
  -23.9994   -7.4567   22.7505 H   0  0  0  0  0  0
  -21.0833   -8.8703   19.8910 H   0  0  0  0  0  0
  -22.3650  -10.9648   19.6292 H   0  0  0  0  0  0
  -21.1979   -7.6138   23.9677 H   0  0  0  0  0  0
  -21.1550   -6.0532   25.9054 H   0  0  0  0  0  0
  -22.0569   -2.7598   23.2815 H   0  0  0  0  0  0
  -22.4121  -11.9862   22.4872 H   0  0  0  0  0  0
  -21.1120  -13.1225   22.2629 H   0  0  0  0  0  0
  -24.6331  -15.8110   20.5357 H   0  0  0  0  0  0
  -26.2675  -15.6393   20.1279 H   0  0  0  0  0  0
  -26.7120  -32.5560   23.1120 H   0  0  0  0  0  0
  -25.0019  -33.9791   25.0409 H   0  0  0  0  0  0
  -22.6920  -31.3082   21.4108 H   0  0  0  0  0  0
  -23.3771  -35.9647   23.3290 H   0  0  0  0  0  0
  -24.3604  -36.8925   22.2043 H   0  0  0  0  0  0
  -23.7237  -37.6514   23.6662 H   0  0  0  0  0  0
  -26.0305  -31.5940   20.5849 H   0  0  0  0  0  0
  -26.8221  -30.8922   21.9693 H   0  0  0  0  0  0
  -28.0957  -29.0904   21.1609 H   0  0  0  0  0  0
  -26.0532  -25.9655   18.9885 H   0  0  0  0  0  0
  -23.9934  -27.3023   19.0029 H   0  0  0  0  0  0
  -23.7154  -30.6034   19.4061 H   0  0  0  0  0  0
  -22.7304  -29.2422   19.8655 H   0  0  0  0  0  0
  -25.1294  -36.1971   25.0828 H   0  0  0  0  0  0
  -20.9980  -28.3325   24.1423 H   0  0  0  0  0  0
  -20.5780  -26.2314   23.3630 H   0  0  0  0  0  0
  -21.6661  -26.7531   22.1180 H   0  0  0  0  0  0
  -19.6934  -25.6303   21.1280 H   0  0  0  0  0  0
  -19.6707  -27.3232   20.6757 H   0  0  0  0  0  0
  -17.4209  -26.6716   21.4034 H   0  0  0  0  0  0
  -18.0313  -26.0121   22.9050 H   0  0  0  0  0  0
  -19.7917  -30.7274   24.2330 H   0  0  0  0  0  0
  -17.5002  -31.6276   24.5169 H   0  0  0  0  0  0
  -15.5360  -30.2993   23.7612 H   0  0  0  0  0  0
  -15.8698  -28.0872   22.6943 H   0  0  0  0  0  0
  -24.5894  -30.7047   25.7660 H   0  0  0  0  0  0
  -24.8847  -32.2841   26.4780 H   0  0  0  0  0  0
  -25.7956  -30.8855   27.0154 H   0  0  0  0  0  0
  -26.2804  -29.6808   24.1073 H   0  0  0  0  0  0
  -27.4037  -29.7228   25.4469 H   0  0  0  0  0  0
  -27.8657  -30.4330   23.9167 H   0  0  0  0  0  0
  -27.2682  -33.3584   26.2060 H   0  0  0  0  0  0
  -28.3844  -32.6847   25.0243 H   0  0  0  0  0  0
  -28.0761  -31.8370   26.5314 H   0  0  0  0  0  0
  -28.2585  -38.0122   24.7529 H   0  0  0  0  0  0
  -28.1108  -36.2637   24.6269 H   0  0  0  0  0  0
  -27.2314  -37.1440   25.8862 H   0  0  0  0  0  0
  -20.9335  -29.8697   21.6884 H   0  0  0  0  0  0
  -26.0198  -38.2878   24.1390 H   0  0  0  0  0  0
  -30.9627  -19.6385   21.5757 H   0  0  0  0  0  0
  -28.6079  -22.9881   17.4686 H   0  0  0  0  0  0
  -29.0085  -21.5698   16.4788 H   0  0  0  0  0  0
  -30.2354  -22.7802   16.8313 H   0  0  0  0  0  0
  -29.4233  -17.6764   17.4074 H   0  0  0  0  0  0
  -29.8532  -16.1824   18.2005 H   0  0  0  0  0  0
  -31.0743  -17.3944   17.9131 H   0  0  0  0  0  0
  -27.6059  -18.3182   19.1849 H   0  0  0  0  0  0
  -27.9523  -18.0539   20.8842 H   0  0  0  0  0  0
  -27.8865  -16.6913   19.7569 H   0  0  0  0  0  0
  -29.7430  -16.4257   23.0552 H   0  0  0  0  0  0
  -29.7630  -14.7027   22.9325 H   0  0  0  0  0  0
  -28.3876  -15.6354   22.2892 H   0  0  0  0  0  0
  -30.8905  -24.0596   18.6203 H   0  0  0  0  0  0
  -31.6711  -23.7415   20.1072 H   0  0  0  0  0  0
  -30.4024  -25.4619   20.7646 H   0  0  0  0  0  0
  -29.3940  -24.1850   21.3251 H   0  0  0  0  0  0
  -30.5094  -17.6501   21.6037 H   0  0  0  0  0  0
  -31.5950  -17.0862   20.4221 H   0  0  0  0  0  0
  -27.6792  -24.7733   19.8226 H   0  0  0  0  0  0
  -28.7604  -25.3868   18.5836 H   0  0  0  0  0  0
  1 25  1  0  0  0
  1 30  2  0  0  0
  1 86  1  0  0  0
  2  3  1  0  0  0
  2 25  1  0  0  0
  2 87  1  0  0  0
  2 88  1  0  0  0
  3  4  1  0  0  0
  3 89  1  0  0  0
  3 90  1  0  0  0
  4  5  1  0  0  0
  4 91  1  0  0  0
  4 92  1  0  0  0
  5  6  1  0  0  0
  5 26  1  0  0  0
  5 93  1  0  0  0
  6 25  1  0  0  0
  6 94  1  0  0  0
  6 95  1  0  0  0
  7  8  2  0  0  0
  7 26  1  0  0  0
  7 29  1  0  0  0
  8  9  1  0  0  0
  8 22  1  0  0  0
  9 10  1  0  0  0
  9 27  2  0  0  0
 10 11  2  0  0  0
 10 15  1  0  0  0
 11 12  1  0  0  0
 11 96  1  0  0  0
 12 13  2  0  0  0
 12 97  1  0  0  0
 13 14  1  0  0  0
 13 31  1  0  0  0
 14 15  2  0  0  0
 14 98  1  0  0  0
 15 99  1  0  0  0
 16 17  2  0  0  0
 16 21  1  0  0  0
 16 31  1  0  0  0
 17 18  1  0  0  0
 17100  1  0  0  0
 18 19  2  0  0  0
 18101  1  0  0  0
 19 20  1  0  0  0
 19 24  1  0  0  0
 20 21  2  0  0  0
 20102  1  0  0  0
 21 23  1  0  0  0
 22 28  1  0  0  0
 22 32  2  0  0  0
 26 27  1  0  0  0
 28103  1  0  0  0
 28104  1  0  0  0
 29105  1  0  0  0
 29106  1  0  0  0
 33 34  1  0  0  0
 33 66  1  0  0  0
 33 70  2  0  0  0
 34 36  1  0  0  0
 34 59  1  0  0  0
 34107  1  0  0  0
 35 44  2  0  0  0
 35 45  1  0  0  0
 35 68  1  0  0  0
 36 56  1  0  0  0
 36108  1  0  0  0
 37 39  1  0  0  0
 37 47  1  0  0  0
 37 66  1  0  0  0
 37109  1  0  0  0
 38 43  2  0  0  0
 38 46  1  0  0  0
 38 47  1  0  0  0
 39 64  1  0  0  0
 39 67  2  0  0  0
 40 52  1  0  0  0
 40 53  2  0  0  0
 40 58  1  0  0  0
 41110  1  0  0  0
 41111  1  0  0  0
 41112  1  0  0  0
 41 48  1  0  0  0
 42 43  1  0  0  0
 42 66  1  0  0  0
 42113  1  0  0  0
 42114  1  0  0  0
 43 44  1  0  0  0
 44115  1  0  0  0
 45 46  2  0  0  0
 45116  1  0  0  0
 46117  1  0  0  0
 47118  1  0  0  0
 47119  1  0  0  0
 48 56  1  0  0  0
 48 65  1  0  0  0
 48120  1  0  0  0
 49 50  1  0  0  0
 49 53  1  0  0  0
 49 64  1  0  0  0
 49121  1  0  0  0
 50 51  1  0  0  0
 50122  1  0  0  0
 50123  1  0  0  0
 51 52  1  0  0  0
 51124  1  0  0  0
 51125  1  0  0  0
 52126  1  0  0  0
 52127  1  0  0  0
 53 54  1  0  0  0
 54 55  2  0  0  0
 54128  1  0  0  0
 55 57  1  0  0  0
 55129  1  0  0  0
 56 69  2  0  0  0
 57 58  2  0  0  0
 57130  1  0  0  0
 58131  1  0  0  0
 59 60  1  0  0  0
 59 61  1  0  0  0
 59 62  1  0  0  0
 60132  1  0  0  0
 60133  1  0  0  0
 60134  1  0  0  0
 61135  1  0  0  0
 61136  1  0  0  0
 61137  1  0  0  0
 62138  1  0  0  0
 62139  1  0  0  0
 62140  1  0  0  0
 63 65  1  0  0  0
 63141  1  0  0  0
 63142  1  0  0  0
 63143  1  0  0  0
 64144  1  0  0  0
 65145  1  0  0  0
 68 82  1  0  0  0
 71 72  2  0  0  0
 71 84  1  0  0  0
 71146  1  0  0  0
 72 83  1  0  0  0
 72 85  1  0  0  0
 73 74  1  0  0  0
 73 75  1  0  0  0
 73 85  2  0  0  0
 74 79  1  0  0  0
 74 84  2  0  0  0
 75147  1  0  0  0
 75148  1  0  0  0
 75149  1  0  0  0
 76150  1  0  0  0
 76151  1  0  0  0
 76152  1  0  0  0
 76 83  1  0  0  0
 77 83  1  0  0  0
 77153  1  0  0  0
 77154  1  0  0  0
 77155  1  0  0  0
 78 86  1  0  0  0
 78156  1  0  0  0
 78157  1  0  0  0
 78158  1  0  0  0
 79 80  1  0  0  0
 79159  1  0  0  0
 79160  1  0  0  0
 80 82  1  0  0  0
 80161  1  0  0  0
 80162  1  0  0  0
 81 83  1  0  0  0
 81 86  1  0  0  0
 81163  1  0  0  0
 81164  1  0  0  0
 82165  1  0  0  0
 82166  1  0  0  0
M  ISO  4   1 100  68 101  82 101  86 100
M  END
> <chiral flag>
0

> <version>
0

> <s_m_source_file>
/data/baiqing/PycharmProjects/Reinvent-master-3.2/result/LINK_invent/BTK/process_docking_weight1_custom_sum_contain_oxygen_bond_distance_aromatic_linkinvent_7_9_3/rearranged_h_0073.sdf

> <i_m_source_file_index>
5

> <r_mmod_Potential_Energy-OPLS-2005>
172.960968017578

> <r_mmod_Stretch_Energy-OPLS-2005>
69.1703109741211

> <r_mmod_Bend_Energy-OPLS-2005>
152.966537475586

> <r_mmod_Torsional_Energy-OPLS-2005>
254.602066040039

> <r_mmod_Improper_Torsional_Energy-OPLS-2005>
7.98077249526978

> <r_mmod_Van_der_Waal_Energy-OPLS-2005>
168.164352416992

> <r_mmod_Electrostatic_Energy-OPLS-2005>
-295.737335205078

> <r_mmod_Solvation_Energy-OPLS-2005>
-202.991149902344

> <b_mmod_Minimization_Converged-OPLS-2005>
0

> <r_mmod_RMS_Derivative-OPLS-2005>
6.96884489059448

$$$$
5
                    3D
 Structure written by MMmdl.
161169  0  0  1  0            999 V2000
  -30.6488  -14.7938   20.1453 C   0  0  0  0  0  0
  -30.4469  -12.4272   19.4676 C   0  0  0  0  0  0
  -29.5037  -12.2141   18.2698 C   0  0  0  0  0  0
  -27.9955  -12.3612   18.6072 C   0  0  0  0  0  0
  -27.6245  -13.2472   19.8384 C   0  0  2  0  0  0
  -28.7181  -13.2708   20.9218 C   0  0  0  0  0  0
  -25.2415  -13.8270   20.5830 C   0  0  0  0  0  0
  -24.1746  -13.0402   20.9305 C   0  0  0  0  0  0
  -24.6407  -11.6918   20.8858 C   0  0  0  0  0  0
  -23.9145  -10.4227   21.0412 C   0  0  0  0  0  0
  -24.3654   -9.4089   21.9120 C   0  0  0  0  0  0
  -23.6306   -8.2148   22.0700 C   0  0  0  0  0  0
  -22.4278   -8.0238   21.3536 C   0  0  0  0  0  0
  -21.9944   -9.0222   20.4629 C   0  0  0  0  0  0
  -22.7324  -10.2101   20.3036 C   0  0  0  0  0  0
  -21.6787   -6.0697   22.5268 C   0  0  0  0  0  0
  -21.3947   -6.5577   23.8233 C   0  0  0  0  0  0
  -21.3671   -5.6743   24.9185 C   0  0  0  0  0  0
  -21.6096   -4.3021   24.7226 C   0  0  0  0  0  0
  -21.8848   -3.8122   23.4331 C   0  0  0  0  0  0
  -21.9211   -4.6926   22.3403 C   0  0  0  0  0  0
  -22.7770  -13.5081   21.2036 C   0  0  0  0  0  0
  -22.1658   -4.2095   21.0983 F   0  0  0  0  0  0
  -21.5696   -3.4537   25.7750 F   0  0  0  0  0  0
  -29.9705  -13.5957   20.2199 N   0  0  0  0  0  0
  -26.2886  -12.9440   20.3538 N   0  0  0  0  0  0
  -25.9350  -11.6571   20.6029 N   0  0  0  0  0  0
  -22.0557  -12.7889   22.0601 N   0  0  0  0  0  0
  -25.4143  -15.1979   20.4062 N   0  0  0  0  0  0
  -31.8331  -14.7572   20.4824 O   0  0  0  0  0  0
  -21.6646   -6.8821   21.4235 O   0  0  0  0  0  0
  -22.3411  -14.5403   20.7015 O   0  0  0  0  0  0
  -24.6241  -31.8573   23.1954 C   0  0  0  0  0  0
  -25.9087  -32.4783   23.8214 C   0  0  1  0  0  0
  -27.2146  -27.2951   20.0987 C   0  0  0  0  0  0
  -25.5806  -33.8578   24.2111 N   0  0  0  0  0  0
  -23.4169  -30.4900   21.5354 C   0  0  2  0  0  0
  -24.8602  -28.9457   20.0974 C   0  0  0  0  0  0
  -22.7429  -29.4623   22.4787 C   0  0  0  0  0  0
  -18.0294  -28.1399   22.8463 C   0  0  0  0  0  0
  -24.1567  -36.7509   23.2633 C   0  0  0  0  0  0
  -25.9645  -30.7776   21.3720 C   0  0  0  0  0  0
  -26.0319  -29.4070   20.7083 C   0  0  0  0  0  0
  -27.2064  -28.5982   20.7044 C   0  0  0  0  0  0
  -26.0232  -26.9099   19.4390 C   0  0  0  0  0  0
  -24.8618  -27.7013   19.4494 C   0  0  0  0  0  0
  -23.6359  -29.8385   20.1449 C   0  0  0  0  0  0
  -25.4166  -36.3124   24.0265 C   0  0  1  0  0  0
  -20.5902  -28.3735   23.1231 C   0  0  2  0  0  0
  -20.6832  -26.9444   22.5390 C   0  0  0  0  0  0
  -19.5802  -26.6405   21.5193 C   0  0  0  0  0  0
  -18.1966  -26.7938   22.1594 C   0  0  0  0  0  0
  -19.1533  -28.8860   23.2902 C   0  0  0  0  0  0
  -18.9432  -30.1458   23.8944 C   0  0  0  0  0  0
  -17.6423  -30.6587   24.0572 C   0  0  0  0  0  0
  -25.9093  -34.9474   23.5031 C   0  0  0  0  0  0
  -16.5332  -29.9109   23.6302 C   0  0  0  0  0  0
  -16.7256  -28.6539   23.0288 C   0  0  0  0  0  0
  -26.4489  -31.6574   25.0602 C   0  0  0  0  0  0
  -25.3711  -31.3802   26.1305 C   0  0  0  0  0  0
  -27.0270  -30.2955   24.6110 C   0  0  0  0  0  0
  -27.5974  -32.4400   25.7318 C   0  0  0  0  0  0
  -27.5645  -37.1916   24.8364 C   0  0  0  0  0  0
  -21.4115  -29.3118   22.3597 N   0  0  0  0  0  0
  -26.4408  -37.3773   23.9281 N   0  0  0  0  0  0
  -24.6893  -31.0545   22.0929 N   0  0  0  0  0  0
  -23.4119  -28.8149   23.2846 O   0  0  0  0  0  0
  -28.3130  -26.4114   20.1637 O   0  0  0  0  0  0
  -26.5711  -34.8933   22.4657 O   0  0  0  0  0  0
  -23.5431  -32.1369   23.7307 O   0  0  0  0  0  0
  -28.3327  -17.9428   19.1274 C   0  0  0  0  0  0
  -28.2780  -19.3060   19.3377 C   0  0  0  0  0  0
  -30.1877  -18.5358   20.1626 C   0  0  0  0  0  0
  -29.6040  -17.4213   19.5612 C   0  0  0  0  0  0
  -31.2635  -21.2856   20.8950 C   0  0  0  0  0  0
  -31.6468  -16.5274   18.5258 C   0  0  0  0  0  0
  -29.5279  -15.5914   17.8583 C   0  0  0  0  0  0
  -29.0040  -23.8258   20.4632 C   0  0  0  0  0  0
  -29.2102  -22.4092   19.7098 C   0  0  0  0  0  0
  -28.1759  -24.9851   19.7386 C   0  0  0  0  0  0
  -29.7513  -21.1242   20.5212 C   0  0  1  0  0  0
  -30.2834  -16.0455   19.1274 C   0  0  0  0  0  0
  -29.4394  -19.7271   19.9866 N   0  0  0  0  0  0
  -31.4725  -12.5625   19.1161 H   0  0  0  0  0  0
  -30.4761  -11.5452   20.1189 H   0  0  0  0  0  0
  -29.6586  -11.1942   17.9093 H   0  0  0  0  0  0
  -29.7889  -12.8114   17.4087 H   0  0  0  0  0  0
  -27.6094  -11.3515   18.7531 H   0  0  0  0  0  0
  -27.4732  -12.7471   17.7279 H   0  0  0  0  0  0
  -27.5532  -14.2704   19.4878 H   0  0  0  0  0  0
  -28.7939  -12.3064   21.4193 H   0  0  0  0  0  0
  -28.4935  -13.9994   21.7067 H   0  0  0  0  0  0
  -25.2801   -9.5514   22.4660 H   0  0  0  0  0  0
  -24.0039   -7.4491   22.7294 H   0  0  0  0  0  0
  -21.0913   -8.8740   19.8865 H   0  0  0  0  0  0
  -22.3775  -10.9621   19.6153 H   0  0  0  0  0  0
  -21.1831   -7.6078   23.9677 H   0  0  0  0  0  0
  -21.1500   -6.0482   25.9097 H   0  0  0  0  0  0
  -22.0653   -2.7571   23.2886 H   0  0  0  0  0  0
  -22.4246  -11.9451   22.4705 H   0  0  0  0  0  0
  -21.1210  -13.0837   22.3097 H   0  0  0  0  0  0
  -24.6660  -15.8748   20.5096 H   0  0  0  0  0  0
  -26.2891  -15.6227   20.1298 H   0  0  0  0  0  0
  -26.7132  -32.5395   23.0913 H   0  0  0  0  0  0
  -24.9505  -33.9664   24.9908 H   0  0  0  0  0  0
  -22.7196  -31.3192   21.3988 H   0  0  0  0  0  0
  -23.3731  -35.9943   23.3218 H   0  0  0  0  0  0
  -24.3693  -36.9250   22.2072 H   0  0  0  0  0  0
  -23.7480  -37.6742   23.6762 H   0  0  0  0  0  0
  -26.1098  -31.5347   20.5983 H   0  0  0  0  0  0
  -26.8436  -30.8148   22.0025 H   0  0  0  0  0  0
  -28.0993  -28.9490   21.2078 H   0  0  0  0  0  0
  -25.9465  -25.9873   18.8894 H   0  0  0  0  0  0
  -23.9733  -27.3456   18.9454 H   0  0  0  0  0  0
  -23.7748  -30.6299   19.4089 H   0  0  0  0  0  0
  -22.7491  -29.2949   19.8192 H   0  0  0  0  0  0
  -25.1414  -36.2032   25.0770 H   0  0  0  0  0  0
  -21.0063  -28.3381   24.1324 H   0  0  0  0  0  0
  -20.5791  -26.2324   23.3614 H   0  0  0  0  0  0
  -21.6686  -26.7511   22.1133 H   0  0  0  0  0  0
  -19.6983  -25.6325   21.1231 H   0  0  0  0  0  0
  -19.6781  -27.3197   20.6723 H   0  0  0  0  0  0
  -17.4253  -26.6640   21.4031 H   0  0  0  0  0  0
  -18.0404  -26.0130   22.9038 H   0  0  0  0  0  0
  -19.7896  -30.7267   24.2358 H   0  0  0  0  0  0
  -17.4955  -31.6232   24.5217 H   0  0  0  0  0  0
  -15.5339  -30.2977   23.7638 H   0  0  0  0  0  0
  -15.8668  -28.0884   22.6931 H   0  0  0  0  0  0
  -24.5784  -30.7289   25.7651 H   0  0  0  0  0  0
  -24.9053  -32.3033   26.4758 H   0  0  0  0  0  0
  -25.8026  -30.8915   27.0052 H   0  0  0  0  0  0
  -26.2865  -29.6802   24.0997 H   0  0  0  0  0  0
  -27.3728  -29.7148   25.4672 H   0  0  0  0  0  0
  -27.8863  -30.4103   23.9463 H   0  0  0  0  0  0
  -27.2440  -33.3634   26.1934 H   0  0  0  0  0  0
  -28.3701  -32.7100   25.0141 H   0  0  0  0  0  0
  -28.0756  -31.8585   26.5202 H   0  0  0  0  0  0
  -28.2581  -38.0294   24.7396 H   0  0  0  0  0  0
  -28.1257  -36.2795   24.6236 H   0  0  0  0  0  0
  -27.2321  -37.1581   25.8756 H   0  0  0  0  0  0
  -20.9246  -29.8922   21.6922 H   0  0  0  0  0  0
  -26.0319  -38.2892   24.1132 H   0  0  0  0  0  0
  -27.5574  -17.4071   18.5879 H   0  0  0  0  0  0
  -27.4978  -20.0011   19.0481 H   0  0  0  0  0  0
  -31.1577  -18.5865   20.6358 H   0  0  0  0  0  0
  -31.6493  -20.4469   21.4786 H   0  0  0  0  0  0
  -31.4162  -22.1516   21.5374 H   0  0  0  0  0  0
  -31.9121  -21.4175   20.0253 H   0  0  0  0  0  0
  -32.2009  -17.1332   19.2462 H   0  0  0  0  0  0
  -32.3110  -15.7160   18.2234 H   0  0  0  0  0  0
  -31.5237  -17.1470   17.6349 H   0  0  0  0  0  0
  -28.4969  -15.3287   18.0376 H   0  0  0  0  0  0
  -30.0216  -14.7952   17.3235 H   0  0  0  0  0  0
  -29.4766  -16.4050   17.1272 H   0  0  0  0  0  0
  -29.9726  -24.2412   20.7408 H   0  0  0  0  0  0
  -28.4985  -23.6174   21.4029 H   0  0  0  0  0  0
  -29.8832  -22.5777   18.8712 H   0  0  0  0  0  0
  -28.2591  -22.1432   19.2534 H   0  0  0  0  0  0
  -27.1502  -24.6478   19.8563 H   0  0  0  0  0  0
  -28.4022  -24.9396   18.6726 H   0  0  0  0  0  0
  -29.2361  -21.1403   21.4789 H   0  0  0  0  0  0
  1 25  1  0  0  0
  1 30  2  0  0  0
  1 82  1  0  0  0
  2  3  1  0  0  0
  2 25  1  0  0  0
  2 84  1  0  0  0
  2 85  1  0  0  0
  3  4  1  0  0  0
  3 86  1  0  0  0
  3 87  1  0  0  0
  4  5  1  0  0  0
  4 88  1  0  0  0
  4 89  1  0  0  0
  5  6  1  0  0  0
  5 26  1  0  0  0
  5 90  1  0  0  0
  6 25  1  0  0  0
  6 91  1  0  0  0
  6 92  1  0  0  0
  7  8  2  0  0  0
  7 26  1  0  0  0
  7 29  1  0  0  0
  8  9  1  0  0  0
  8 22  1  0  0  0
  9 10  1  0  0  0
  9 27  2  0  0  0
 10 11  2  0  0  0
 10 15  1  0  0  0
 11 12  1  0  0  0
 11 93  1  0  0  0
 12 13  2  0  0  0
 12 94  1  0  0  0
 13 14  1  0  0  0
 13 31  1  0  0  0
 14 15  2  0  0  0
 14 95  1  0  0  0
 15 96  1  0  0  0
 16 17  2  0  0  0
 16 21  1  0  0  0
 16 31  1  0  0  0
 17 18  1  0  0  0
 17 97  1  0  0  0
 18 19  2  0  0  0
 18 98  1  0  0  0
 19 20  1  0  0  0
 19 24  1  0  0  0
 20 21  2  0  0  0
 20 99  1  0  0  0
 21 23  1  0  0  0
 22 28  1  0  0  0
 22 32  2  0  0  0
 26 27  1  0  0  0
 28100  1  0  0  0
 28101  1  0  0  0
 29102  1  0  0  0
 29103  1  0  0  0
 33 34  1  0  0  0
 33 66  1  0  0  0
 33 70  2  0  0  0
 34 36  1  0  0  0
 34 59  1  0  0  0
 34104  1  0  0  0
 35 44  2  0  0  0
 35 45  1  0  0  0
 35 68  1  0  0  0
 36 56  1  0  0  0
 36105  1  0  0  0
 37 39  1  0  0  0
 37 47  1  0  0  0
 37 66  1  0  0  0
 37106  1  0  0  0
 38 43  2  0  0  0
 38 46  1  0  0  0
 38 47  1  0  0  0
 39 64  1  0  0  0
 39 67  2  0  0  0
 40 52  1  0  0  0
 40 53  2  0  0  0
 40 58  1  0  0  0
 41107  1  0  0  0
 41108  1  0  0  0
 41109  1  0  0  0
 41 48  1  0  0  0
 42 43  1  0  0  0
 42 66  1  0  0  0
 42110  1  0  0  0
 42111  1  0  0  0
 43 44  1  0  0  0
 44112  1  0  0  0
 45 46  2  0  0  0
 45113  1  0  0  0
 46114  1  0  0  0
 47115  1  0  0  0
 47116  1  0  0  0
 48 56  1  0  0  0
 48 65  1  0  0  0
 48117  1  0  0  0
 49 50  1  0  0  0
 49 53  1  0  0  0
 49 64  1  0  0  0
 49118  1  0  0  0
 50 51  1  0  0  0
 50119  1  0  0  0
 50120  1  0  0  0
 51 52  1  0  0  0
 51121  1  0  0  0
 51122  1  0  0  0
 52123  1  0  0  0
 52124  1  0  0  0
 53 54  1  0  0  0
 54 55  2  0  0  0
 54125  1  0  0  0
 55 57  1  0  0  0
 55126  1  0  0  0
 56 69  2  0  0  0
 57 58  2  0  0  0
 57127  1  0  0  0
 58128  1  0  0  0
 59 60  1  0  0  0
 59 61  1  0  0  0
 59 62  1  0  0  0
 60129  1  0  0  0
 60130  1  0  0  0
 60131  1  0  0  0
 61132  1  0  0  0
 61133  1  0  0  0
 61134  1  0  0  0
 62135  1  0  0  0
 62136  1  0  0  0
 62137  1  0  0  0
 63 65  1  0  0  0
 63138  1  0  0  0
 63139  1  0  0  0
 63140  1  0  0  0
 64141  1  0  0  0
 65142  1  0  0  0
 68 80  1  0  0  0
 71 72  2  0  0  0
 71 74  1  0  0  0
 71143  1  0  0  0
 72 83  1  0  0  0
 72144  1  0  0  0
 73 74  2  0  0  0
 73 83  1  0  0  0
 73145  1  0  0  0
 74 82  1  0  0  0
 75146  1  0  0  0
 75147  1  0  0  0
 75148  1  0  0  0
 75 81  1  0  0  0
 76149  1  0  0  0
 76150  1  0  0  0
 76151  1  0  0  0
 76 82  1  0  0  0
 77 82  1  0  0  0
 77152  1  0  0  0
 77153  1  0  0  0
 77154  1  0  0  0
 78 79  1  0  0  0
 78 80  1  0  0  0
 78155  1  0  0  0
 78156  1  0  0  0
 79 81  1  0  0  0
 79157  1  0  0  0
 79158  1  0  0  0
 80159  1  0  0  0
 80160  1  0  0  0
 81 83  1  0  0  0
 81161  1  0  0  0
M  ISO  4   1 100  68 101  80 101  82 100
M  END
> <chiral flag>
0

> <version>
0

> <s_m_source_file>
/data/baiqing/PycharmProjects/Reinvent-master-3.2/result/LINK_invent/BTK/process_docking_weight1_custom_sum_contain_oxygen_bond_distance_aromatic_linkinvent_7_9_3/rearranged_h_0073.sdf

> <i_m_source_file_index>
6

> <r_mmod_Potential_Energy-OPLS-2005>
468.9873046875

> <r_mmod_Stretch_Energy-OPLS-2005>
126.25456237793

> <r_mmod_Bend_Energy-OPLS-2005>
216.095703125

> <r_mmod_Torsional_Energy-OPLS-2005>
298.18310546875

> <r_mmod_Improper_Torsional_Energy-OPLS-2005>
22.4328212738037

> <r_mmod_Van_der_Waal_Energy-OPLS-2005>
148.564575195312

> <r_mmod_Electrostatic_Energy-OPLS-2005>
-307.192901611328

> <r_mmod_Solvation_Energy-OPLS-2005>
-182.14875793457

> <b_mmod_Minimization_Converged-OPLS-2005>
0

> <r_mmod_RMS_Derivative-OPLS-2005>
11.1953887939453

$$$$
6
                    3D
 Structure written by MMmdl.
168176  0  0  1  0            999 V2000
  -30.6598  -14.6026   20.5873 C   0  0  0  0  0  0
  -30.4407  -12.3960   19.4338 C   0  0  0  0  0  0
  -29.5049  -12.5265   18.2128 C   0  0  0  0  0  0
  -28.0277  -12.3707   18.6239 C   0  0  0  0  0  0
  -27.6610  -13.2207   19.8705 C   0  0  2  0  0  0
  -28.7065  -13.0252   20.9894 C   0  0  0  0  0  0
  -25.2597  -13.8208   20.5712 C   0  0  0  0  0  0
  -24.1845  -13.0459   20.9182 C   0  0  0  0  0  0
  -24.6416  -11.6943   20.8719 C   0  0  0  0  0  0
  -23.9078  -10.4319   21.0411 C   0  0  0  0  0  0
  -24.3633   -9.4232   21.9180 C   0  0  0  0  0  0
  -23.6308   -8.2261   22.0755 C   0  0  0  0  0  0
  -22.4292   -8.0293   21.3539 C   0  0  0  0  0  0
  -21.9918   -9.0284   20.4650 C   0  0  0  0  0  0
  -22.7251  -10.2160   20.3060 C   0  0  0  0  0  0
  -21.6868   -6.0739   22.5272 C   0  0  0  0  0  0
  -21.4020   -6.5635   23.8206 C   0  0  0  0  0  0
  -21.3669   -5.6778   24.9164 C   0  0  0  0  0  0
  -21.6064   -4.3043   24.7218 C   0  0  0  0  0  0
  -21.8823   -3.8141   23.4331 C   0  0  0  0  0  0
  -21.9199   -4.6962   22.3392 C   0  0  0  0  0  0
  -22.7854  -13.5255   21.1830 C   0  0  0  0  0  0
  -22.1660   -4.2149   21.0966 F   0  0  0  0  0  0
  -21.5638   -3.4527   25.7736 F   0  0  0  0  0  0
  -30.0192  -13.3971   20.4356 N   0  0  0  0  0  0
  -26.3036  -12.9394   20.3351 N   0  0  0  0  0  0
  -25.9350  -11.6546   20.5736 N   0  0  0  0  0  0
  -22.0473  -12.8271   22.0397 N   0  0  0  0  0  0
  -25.4331  -15.1915   20.4165 N   0  0  0  0  0  0
  -31.7699  -14.7709   20.0726 O   0  0  0  0  0  0
  -21.6644   -6.8895   21.4241 O   0  0  0  0  0  0
  -22.3541  -14.5555   20.6656 O   0  0  0  0  0  0
  -24.6243  -31.8628   23.2041 C   0  0  0  0  0  0
  -25.9108  -32.4797   23.8370 C   0  0  1  0  0  0
  -27.2308  -27.3480   20.0942 C   0  0  0  0  0  0
  -25.5929  -33.8599   24.2289 N   0  0  0  0  0  0
  -23.4158  -30.4851   21.5477 C   0  0  2  0  0  0
  -24.8607  -28.9448   20.1102 C   0  0  0  0  0  0
  -22.7462  -29.4640   22.4977 C   0  0  0  0  0  0
  -18.0272  -28.1387   22.8486 C   0  0  0  0  0  0
  -24.1477  -36.7309   23.2633 C   0  0  0  0  0  0
  -25.9546  -30.7965   21.3763 C   0  0  0  0  0  0
  -26.0286  -29.4280   20.7140 C   0  0  0  0  0  0
  -27.2147  -28.6398   20.6987 C   0  0  0  0  0  0
  -26.0385  -26.9116   19.4702 C   0  0  0  0  0  0
  -24.8664  -27.6913   19.4793 C   0  0  0  0  0  0
  -23.6265  -29.8212   20.1615 C   0  0  0  0  0  0
  -25.4107  -36.3096   24.0312 C   0  0  1  0  0  0
  -20.5876  -28.3688   23.1285 C   0  0  2  0  0  0
  -20.6773  -26.9421   22.5401 C   0  0  0  0  0  0
  -19.5747  -26.6390   21.5200 C   0  0  0  0  0  0
  -18.1931  -26.7924   22.1615 C   0  0  0  0  0  0
  -19.1529  -28.8847   23.2877 C   0  0  0  0  0  0
  -18.9452  -30.1444   23.8905 C   0  0  0  0  0  0
  -17.6467  -30.6591   24.0555 C   0  0  0  0  0  0
  -25.9059  -34.9466   23.5103 C   0  0  0  0  0  0
  -16.5353  -29.9092   23.6329 C   0  0  0  0  0  0
  -16.7267  -28.6495   23.0371 C   0  0  0  0  0  0
  -26.4498  -31.6604   25.0745 C   0  0  0  0  0  0
  -25.3735  -31.3762   26.1476 C   0  0  0  0  0  0
  -27.0341  -30.3013   24.6216 C   0  0  0  0  0  0
  -27.6044  -32.4363   25.7523 C   0  0  0  0  0  0
  -27.5579  -37.1801   24.8461 C   0  0  0  0  0  0
  -21.4185  -29.3041   22.3702 N   0  0  0  0  0  0
  -26.4290  -37.3790   23.9412 N   0  0  0  0  0  0
  -24.6831  -31.0647   22.0994 N   0  0  0  0  0  0
  -23.4187  -28.8202   23.3070 O   0  0  0  0  0  0
  -28.3698  -26.5314   20.1286 O   0  0  0  0  0  0
  -26.5632  -34.8925   22.4675 O   0  0  0  0  0  0
  -23.5400  -32.1443   23.7366 O   0  0  0  0  0  0
  -31.1134  -19.1206   19.9637 C   0  0  0  0  0  0
  -30.1279  -20.0307   20.4476 C   0  0  0  0  0  0
  -30.0312  -17.2784   20.9236 C   0  0  0  0  0  0
  -29.0416  -18.1921   21.4067 C   0  0  0  0  0  0
  -30.6250  -15.7354   22.8443 C   0  0  0  0  0  0
  -30.3247  -21.5812   20.3718 C   0  0  0  0  0  0
  -29.0836  -22.5479   20.1917 C   0  0  0  0  0  0
  -29.3711  -24.1117   20.2832 C   0  0  0  0  0  0
  -26.2951  -17.9966   23.8945 C   0  0  0  0  0  0
  -25.1954  -18.9089   24.4769 C   0  0  0  0  0  0
  -28.1881  -25.0861   19.9067 C   0  0  0  0  0  0
  -27.1561  -18.6874   22.8293 C   0  0  0  0  0  0
  -30.0208  -15.7839   21.4295 C   0  0  2  0  0  0
  -31.0749  -17.7722   20.1987 N   0  0  0  0  0  0
  -29.0916  -19.5416   21.1697 N   0  0  0  0  0  0
  -25.7160  -20.0059   25.3188 N   0  3  0  0  0  0
  -28.0282  -17.7317   22.2272 O   0  0  0  0  0  0
  -31.4806  -12.5213   19.1291 H   0  0  0  0  0  0
  -30.3783  -11.3931   19.8579 H   0  0  0  0  0  0
  -29.7650  -11.7814   17.4595 H   0  0  0  0  0  0
  -29.6506  -13.4996   17.7392 H   0  0  0  0  0  0
  -27.8489  -11.3146   18.8292 H   0  0  0  0  0  0
  -27.3788  -12.6303   17.7865 H   0  0  0  0  0  0
  -27.6965  -14.2652   19.5604 H   0  0  0  0  0  0
  -28.7226  -11.9821   21.3118 H   0  0  0  0  0  0
  -28.4403  -13.5837   21.8847 H   0  0  0  0  0  0
  -25.2804   -9.5705   22.4699 H   0  0  0  0  0  0
  -24.0041   -7.4662   22.7459 H   0  0  0  0  0  0
  -21.0850   -8.8805   19.8954 H   0  0  0  0  0  0
  -22.3738  -10.9680   19.6129 H   0  0  0  0  0  0
  -21.1995   -7.6139   23.9724 H   0  0  0  0  0  0
  -21.1486   -6.0488   25.9069 H   0  0  0  0  0  0
  -22.0592   -2.7599   23.2822 H   0  0  0  0  0  0
  -22.4091  -11.9955   22.4832 H   0  0  0  0  0  0
  -21.1069  -13.1269   22.2559 H   0  0  0  0  0  0
  -24.6685  -15.8482   20.5292 H   0  0  0  0  0  0
  -26.2944  -15.6304   20.1166 H   0  0  0  0  0  0
  -26.7184  -32.5455   23.1125 H   0  0  0  0  0  0
  -25.0066  -33.9761   25.0410 H   0  0  0  0  0  0
  -22.7073  -31.3038   21.4097 H   0  0  0  0  0  0
  -23.3742  -35.9644   23.3294 H   0  0  0  0  0  0
  -24.3564  -36.8944   22.2056 H   0  0  0  0  0  0
  -23.7231  -37.6497   23.6671 H   0  0  0  0  0  0
  -26.0948  -31.5616   20.6127 H   0  0  0  0  0  0
  -26.8308  -30.8347   22.0137 H   0  0  0  0  0  0
  -28.1131  -29.0097   21.1707 H   0  0  0  0  0  0
  -25.9803  -25.9584   18.9661 H   0  0  0  0  0  0
  -23.9738  -27.3229   18.9916 H   0  0  0  0  0  0
  -23.7425  -30.5989   19.4061 H   0  0  0  0  0  0
  -22.7467  -29.2496   19.8628 H   0  0  0  0  0  0
  -25.1287  -36.1954   25.0804 H   0  0  0  0  0  0
  -20.9936  -28.3253   24.1421 H   0  0  0  0  0  0
  -20.5676  -26.2308   23.3598 H   0  0  0  0  0  0
  -21.6639  -26.7479   22.1193 H   0  0  0  0  0  0
  -19.6921  -25.6298   21.1237 H   0  0  0  0  0  0
  -19.6674  -27.3180   20.6713 H   0  0  0  0  0  0
  -17.4199  -26.6655   21.4024 H   0  0  0  0  0  0
  -18.0351  -26.0066   22.9017 H   0  0  0  0  0  0
  -19.7945  -30.7235   24.2296 H   0  0  0  0  0  0
  -17.5034  -31.6277   24.5155 H   0  0  0  0  0  0
  -15.5352  -30.3006   23.7641 H   0  0  0  0  0  0
  -15.8661  -28.0793   22.7134 H   0  0  0  0  0  0
  -24.5859  -30.7180   25.7792 H   0  0  0  0  0  0
  -24.8996  -32.2947   26.4947 H   0  0  0  0  0  0
  -25.8038  -30.8883   27.0232 H   0  0  0  0  0  0
  -26.2912  -29.6780   24.1226 H   0  0  0  0  0  0
  -27.4001  -29.7272   25.4742 H   0  0  0  0  0  0
  -27.8809  -30.4280   23.9470 H   0  0  0  0  0  0
  -27.2613  -33.3643   26.2120 H   0  0  0  0  0  0
  -28.3836  -32.6977   25.0351 H   0  0  0  0  0  0
  -28.0749  -31.8511   26.5438 H   0  0  0  0  0  0
  -28.2585  -38.0106   24.7525 H   0  0  0  0  0  0
  -28.1084  -36.2643   24.6260 H   0  0  0  0  0  0
  -27.2315  -37.1422   25.8866 H   0  0  0  0  0  0
  -20.9389  -29.8752   21.6885 H   0  0  0  0  0  0
  -26.0175  -38.2867   24.1407 H   0  0  0  0  0  0
  -31.9862  -19.4865   19.4414 H   0  0  0  0  0  0
  -30.0877  -16.3929   23.5273 H   0  0  0  0  0  0
  -31.6651  -16.0579   22.8307 H   0  0  0  0  0  0
  -30.5881  -14.7305   23.2665 H   0  0  0  0  0  0
  -31.0028  -21.7743   19.5396 H   0  0  0  0  0  0
  -30.8777  -21.8745   21.2634 H   0  0  0  0  0  0
  -28.3422  -22.2974   20.9498 H   0  0  0  0  0  0
  -28.6070  -22.3276   19.2372 H   0  0  0  0  0  0
  -30.2152  -24.3510   19.6384 H   0  0  0  0  0  0
  -29.6992  -24.3414   21.2988 H   0  0  0  0  0  0
  -25.8143  -17.1289   23.4412 H   0  0  0  0  0  0
  -26.9306  -17.6079   24.6926 H   0  0  0  0  0  0
  -24.5173  -18.3084   25.0852 H   0  0  0  0  0  0
  -24.5917  -19.3263   23.6700 H   0  0  0  0  0  0
  -27.3104  -24.7548   20.4620 H   0  0  0  0  0  0
  -27.9665  -24.9340   18.8494 H   0  0  0  0  0  0
  -27.7302  -19.4832   23.3084 H   0  0  0  0  0  0
  -26.5213  -19.1379   22.0662 H   0  0  0  0  0  0
  -28.9603  -15.5678   21.5102 H   0  0  0  0  0  0
  -26.1361  -19.6525   26.1607 H   0  0  0  0  0  0
  -24.9600  -20.6093   25.5925 H   0  0  0  0  0  0
  -26.3863  -20.5712   24.8331 H   0  0  0  0  0  0
  1 25  1  0  0  0
  1 30  2  0  0  0
  1 83  1  0  0  0
  2  3  1  0  0  0
  2 25  1  0  0  0
  2 88  1  0  0  0
  2 89  1  0  0  0
  3  4  1  0  0  0
  3 90  1  0  0  0
  3 91  1  0  0  0
  4  5  1  0  0  0
  4 92  1  0  0  0
  4 93  1  0  0  0
  5  6  1  0  0  0
  5 26  1  0  0  0
  5 94  1  0  0  0
  6 25  1  0  0  0
  6 95  1  0  0  0
  6 96  1  0  0  0
  7  8  2  0  0  0
  7 26  1  0  0  0
  7 29  1  0  0  0
  8  9  1  0  0  0
  8 22  1  0  0  0
  9 10  1  0  0  0
  9 27  2  0  0  0
 10 11  2  0  0  0
 10 15  1  0  0  0
 11 12  1  0  0  0
 11 97  1  0  0  0
 12 13  2  0  0  0
 12 98  1  0  0  0
 13 14  1  0  0  0
 13 31  1  0  0  0
 14 15  2  0  0  0
 14 99  1  0  0  0
 15100  1  0  0  0
 16 17  2  0  0  0
 16 21  1  0  0  0
 16 31  1  0  0  0
 17 18  1  0  0  0
 17101  1  0  0  0
 18 19  2  0  0  0
 18102  1  0  0  0
 19 20  1  0  0  0
 19 24  1  0  0  0
 20 21  2  0  0  0
 20103  1  0  0  0
 21 23  1  0  0  0
 22 28  1  0  0  0
 22 32  2  0  0  0
 26 27  1  0  0  0
 28104  1  0  0  0
 28105  1  0  0  0
 29106  1  0  0  0
 29107  1  0  0  0
 33 34  1  0  0  0
 33 66  1  0  0  0
 33 70  2  0  0  0
 34 36  1  0  0  0
 34 59  1  0  0  0
 34108  1  0  0  0
 35 44  2  0  0  0
 35 45  1  0  0  0
 35 68  1  0  0  0
 36 56  1  0  0  0
 36109  1  0  0  0
 37 39  1  0  0  0
 37 47  1  0  0  0
 37 66  1  0  0  0
 37110  1  0  0  0
 38 43  2  0  0  0
 38 46  1  0  0  0
 38 47  1  0  0  0
 39 64  1  0  0  0
 39 67  2  0  0  0
 40 52  1  0  0  0
 40 53  2  0  0  0
 40 58  1  0  0  0
 41111  1  0  0  0
 41112  1  0  0  0
 41113  1  0  0  0
 41 48  1  0  0  0
 42 43  1  0  0  0
 42 66  1  0  0  0
 42114  1  0  0  0
 42115  1  0  0  0
 43 44  1  0  0  0
 44116  1  0  0  0
 45 46  2  0  0  0
 45117  1  0  0  0
 46118  1  0  0  0
 47119  1  0  0  0
 47120  1  0  0  0
 48 56  1  0  0  0
 48 65  1  0  0  0
 48121  1  0  0  0
 49 50  1  0  0  0
 49 53  1  0  0  0
 49 64  1  0  0  0
 49122  1  0  0  0
 50 51  1  0  0  0
 50123  1  0  0  0
 50124  1  0  0  0
 51 52  1  0  0  0
 51125  1  0  0  0
 51126  1  0  0  0
 52127  1  0  0  0
 52128  1  0  0  0
 53 54  1  0  0  0
 54 55  2  0  0  0
 54129  1  0  0  0
 55 57  1  0  0  0
 55130  1  0  0  0
 56 69  2  0  0  0
 57 58  2  0  0  0
 57131  1  0  0  0
 58132  1  0  0  0
 59 60  1  0  0  0
 59 61  1  0  0  0
 59 62  1  0  0  0
 60133  1  0  0  0
 60134  1  0  0  0
 60135  1  0  0  0
 61136  1  0  0  0
 61137  1  0  0  0
 61138  1  0  0  0
 62139  1  0  0  0
 62140  1  0  0  0
 62141  1  0  0  0
 63 65  1  0  0  0
 63142  1  0  0  0
 63143  1  0  0  0
 63144  1  0  0  0
 64145  1  0  0  0
 65146  1  0  0  0
 68 81  1  0  0  0
 71 72  2  0  0  0
 71 84  1  0  0  0
 71147  1  0  0  0
 72 76  1  0  0  0
 72 85  1  0  0  0
 73 74  1  0  0  0
 73 83  1  0  0  0
 73 84  2  0  0  0
 74 85  2  0  0  0
 74 87  1  0  0  0
 75148  1  0  0  0
 75149  1  0  0  0
 75150  1  0  0  0
 75 83  1  0  0  0
 76 77  1  0  0  0
 76151  1  0  0  0
 76152  1  0  0  0
 77 78  1  0  0  0
 77153  1  0  0  0
 77154  1  0  0  0
 78 81  1  0  0  0
 78155  1  0  0  0
 78156  1  0  0  0
 79 80  1  0  0  0
 79 82  1  0  0  0
 79157  1  0  0  0
 79158  1  0  0  0
 80 86  1  0  0  0
 80159  1  0  0  0
 80160  1  0  0  0
 81161  1  0  0  0
 81162  1  0  0  0
 82 87  1  0  0  0
 82163  1  0  0  0
 82164  1  0  0  0
 83165  1  0  0  0
 86166  1  0  0  0
 86167  1  0  0  0
 86168  1  0  0  0
M  CHG  1  86   1
M  ISO  4   1 100  68 101  81 101  83 100
M  END
> <chiral flag>
0

> <version>
0

> <s_m_source_file>
/data/baiqing/PycharmProjects/Reinvent-master-3.2/result/LINK_invent/BTK/process_docking_weight1_custom_sum_contain_oxygen_bond_distance_aromatic_linkinvent_7_9_3/rearranged_h_0073.sdf

> <i_m_source_file_index>
7

> <r_mmod_Potential_Energy-OPLS-2005>
-112.750068664551

> <r_mmod_Stretch_Energy-OPLS-2005>
78.8606796264648

> <r_mmod_Bend_Energy-OPLS-2005>
144.651092529297

> <r_mmod_Torsional_Energy-OPLS-2005>
164.940338134766

> <r_mmod_Improper_Torsional_Energy-OPLS-2005>
3.85012435913086

> <r_mmod_Van_der_Waal_Energy-OPLS-2005>
153.05485534668

> <r_mmod_Electrostatic_Energy-OPLS-2005>
-181.38703918457

> <r_mmod_Solvation_Energy-OPLS-2005>
-511.060913085938

> <b_mmod_Minimization_Converged-OPLS-2005>
0

> <r_mmod_RMS_Derivative-OPLS-2005>
3.50508713722229

$$$$
7
                    3D
 Structure written by MMmdl.
170178  0  0  1  0            999 V2000
  -30.6950  -14.6069   20.6290 C   0  0  0  0  0  0
  -30.4249  -12.4117   19.4472 C   0  0  0  0  0  0
  -29.4989  -12.5464   18.2179 C   0  0  0  0  0  0
  -28.0197  -12.3751   18.6165 C   0  0  0  0  0  0
  -27.6522  -13.2172   19.8651 C   0  0  2  0  0  0
  -28.6912  -12.9944   20.9775 C   0  0  0  0  0  0
  -25.2530  -13.8163   20.5665 C   0  0  0  0  0  0
  -24.1808  -13.0428   20.9183 C   0  0  0  0  0  0
  -24.6392  -11.6901   20.8751 C   0  0  0  0  0  0
  -23.9070  -10.4283   21.0421 C   0  0  0  0  0  0
  -24.3624   -9.4193   21.9198 C   0  0  0  0  0  0
  -23.6303   -8.2228   22.0756 C   0  0  0  0  0  0
  -22.4289   -8.0269   21.3544 C   0  0  0  0  0  0
  -21.9925   -9.0242   20.4653 C   0  0  0  0  0  0
  -22.7241  -10.2126   20.3072 C   0  0  0  0  0  0
  -21.6842   -6.0745   22.5275 C   0  0  0  0  0  0
  -21.4003   -6.5649   23.8211 C   0  0  0  0  0  0
  -21.3665   -5.6800   24.9172 C   0  0  0  0  0  0
  -21.6051   -4.3064   24.7223 C   0  0  0  0  0  0
  -21.8812   -3.8163   23.4337 C   0  0  0  0  0  0
  -21.9182   -4.6978   22.3398 C   0  0  0  0  0  0
  -22.7826  -13.5208   21.1855 C   0  0  0  0  0  0
  -22.1648   -4.2169   21.0975 F   0  0  0  0  0  0
  -21.5642   -3.4547   25.7738 F   0  0  0  0  0  0
  -30.0078  -13.4140   20.4644 N   0  0  0  0  0  0
  -26.2966  -12.9360   20.3301 N   0  0  0  0  0  0
  -25.9316  -11.6513   20.5746 N   0  0  0  0  0  0
  -22.0493  -12.8215   22.0440 N   0  0  0  0  0  0
  -25.4253  -15.1887   20.4079 N   0  0  0  0  0  0
  -31.7728  -14.7135   20.0275 O   0  0  0  0  0  0
  -21.6634   -6.8882   21.4234 O   0  0  0  0  0  0
  -22.3501  -14.5507   20.6690 O   0  0  0  0  0  0
  -24.6237  -31.8602   23.2021 C   0  0  0  0  0  0
  -25.9095  -32.4773   23.8343 C   0  0  1  0  0  0
  -27.2317  -27.3515   20.1161 C   0  0  0  0  0  0
  -25.5922  -33.8573   24.2279 N   0  0  0  0  0  0
  -23.4152  -30.4812   21.5441 C   0  0  2  0  0  0
  -24.8620  -28.9300   20.1161 C   0  0  0  0  0  0
  -22.7451  -29.4622   22.4954 C   0  0  0  0  0  0
  -18.0281  -28.1383   22.8486 C   0  0  0  0  0  0
  -24.1483  -36.7294   23.2636 C   0  0  0  0  0  0
  -25.9507  -30.8014   21.3635 C   0  0  0  0  0  0
  -26.0279  -29.4284   20.7114 C   0  0  0  0  0  0
  -27.2186  -28.6516   20.6962 C   0  0  0  0  0  0
  -26.0461  -26.8828   19.5146 C   0  0  0  0  0  0
  -24.8701  -27.6607   19.5106 C   0  0  0  0  0  0
  -23.6277  -29.8079   20.1619 C   0  0  0  0  0  0
  -25.4105  -36.3079   24.0332 C   0  0  1  0  0  0
  -20.5876  -28.3682   23.1293 C   0  0  2  0  0  0
  -20.6765  -26.9406   22.5415 C   0  0  0  0  0  0
  -19.5747  -26.6387   21.5209 C   0  0  0  0  0  0
  -18.1924  -26.7931   22.1617 C   0  0  0  0  0  0
  -19.1531  -28.8851   23.2885 C   0  0  0  0  0  0
  -18.9457  -30.1456   23.8898 C   0  0  0  0  0  0
  -17.6457  -30.6584   24.0564 C   0  0  0  0  0  0
  -25.9049  -34.9450   23.5108 C   0  0  0  0  0  0
  -16.5350  -29.9082   23.6327 C   0  0  0  0  0  0
  -16.7271  -28.6501   23.0348 C   0  0  0  0  0  0
  -26.4495  -31.6574   25.0705 C   0  0  0  0  0  0
  -25.3755  -31.3697   26.1452 C   0  0  0  0  0  0
  -27.0331  -30.3004   24.6128 C   0  0  0  0  0  0
  -27.6056  -32.4307   25.7479 C   0  0  0  0  0  0
  -27.5584  -37.1787   24.8456 C   0  0  0  0  0  0
  -21.4171  -29.3038   22.3690 N   0  0  0  0  0  0
  -26.4277  -37.3781   23.9429 N   0  0  0  0  0  0
  -24.6819  -31.0638   22.0949 N   0  0  0  0  0  0
  -23.4182  -28.8161   23.3026 O   0  0  0  0  0  0
  -28.3749  -26.5567   20.0961 O   0  0  0  0  0  0
  -26.5610  -34.8921   22.4671 O   0  0  0  0  0  0
  -23.5411  -32.1382   23.7379 O   0  0  0  0  0  0
  -29.1507  -19.8401   20.1563 C   0  0  0  0  0  0
  -30.1251  -19.0319   19.4977 C   0  0  0  0  0  0
  -28.5181  -19.1663   21.2297 C   0  0  0  0  0  0
  -29.7338  -17.1860   20.8880 C   0  0  0  0  0  0
  -32.4330  -19.1117   18.3789 C   0  0  0  0  0  0
  -27.9953  -20.3213   23.4219 C   0  0  0  0  0  0
  -29.4045  -15.4600   22.7686 C   0  0  0  0  0  0
  -31.6233  -16.3094   22.2561 C   0  0  0  0  0  0
  -28.6875  -21.2601   19.6392 C   0  0  0  0  0  0
  -30.9503  -19.5163   18.3072 C   0  0  0  0  0  0
  -27.4368  -19.8063   22.0877 C   0  0  0  0  0  0
  -28.8786  -22.5693   20.5106 C   0  0  0  0  0  0
  -28.5570  -23.9517   19.7891 C   0  0  0  0  0  0
  -28.3094  -25.2209   20.7026 C   0  0  0  0  0  0
  -30.3024  -15.8627   21.5695 C   0  0  0  0  0  0
  -30.3652  -17.7363   19.8483 N   0  0  0  0  0  0
  -28.8426  -17.8996   21.5895 N   0  0  0  0  0  0
  -31.4654  -12.5169   19.1364 H   0  0  0  0  0  0
  -30.3638  -11.4020   19.8577 H   0  0  0  0  0  0
  -29.7676  -11.8127   17.4569 H   0  0  0  0  0  0
  -29.6434  -13.5278   17.7628 H   0  0  0  0  0  0
  -27.8475  -11.3165   18.8194 H   0  0  0  0  0  0
  -27.3679  -12.6317   17.7808 H   0  0  0  0  0  0
  -27.6939  -14.2676   19.5749 H   0  0  0  0  0  0
  -28.7228  -11.9337   21.2308 H   0  0  0  0  0  0
  -28.3638  -13.4431   21.9006 H   0  0  0  0  0  0
  -25.2770   -9.5669   22.4782 H   0  0  0  0  0  0
  -24.0013   -7.4616   22.7468 H   0  0  0  0  0  0
  -21.0856   -8.8745   19.8970 H   0  0  0  0  0  0
  -22.3681  -10.9662   19.6190 H   0  0  0  0  0  0
  -21.1986   -7.6159   23.9719 H   0  0  0  0  0  0
  -21.1507   -6.0536   25.9073 H   0  0  0  0  0  0
  -22.0600   -2.7632   23.2827 H   0  0  0  0  0  0
  -22.4088  -11.9849   22.4791 H   0  0  0  0  0  0
  -21.1124  -13.1243   22.2696 H   0  0  0  0  0  0
  -24.6637  -15.8491   20.5218 H   0  0  0  0  0  0
  -26.2898  -15.6273   20.1168 H   0  0  0  0  0  0
  -26.7157  -32.5454   23.1088 H   0  0  0  0  0  0
  -25.0080  -33.9708   25.0430 H   0  0  0  0  0  0
  -22.7086  -31.3008   21.3986 H   0  0  0  0  0  0
  -23.3754  -35.9613   23.3258 H   0  0  0  0  0  0
  -24.3582  -36.8965   22.2059 H   0  0  0  0  0  0
  -23.7221  -37.6479   23.6683 H   0  0  0  0  0  0
  -26.0722  -31.5612   20.5901 H   0  0  0  0  0  0
  -26.8355  -30.8568   21.9861 H   0  0  0  0  0  0
  -28.1223  -29.0348   21.1491 H   0  0  0  0  0  0
  -26.0313  -25.9083   19.0469 H   0  0  0  0  0  0
  -23.9735  -27.2707   19.0482 H   0  0  0  0  0  0
  -23.7433  -30.5796   19.4003 H   0  0  0  0  0  0
  -22.7485  -29.2332   19.8653 H   0  0  0  0  0  0
  -25.1273  -36.1921   25.0821 H   0  0  0  0  0  0
  -20.9970  -28.3256   24.1413 H   0  0  0  0  0  0
  -20.5662  -26.2289   23.3608 H   0  0  0  0  0  0
  -21.6635  -26.7424   22.1219 H   0  0  0  0  0  0
  -19.6907  -25.6297   21.1239 H   0  0  0  0  0  0
  -19.6689  -27.3198   20.6738 H   0  0  0  0  0  0
  -17.4192  -26.6679   21.4018 H   0  0  0  0  0  0
  -18.0318  -26.0072   22.9011 H   0  0  0  0  0  0
  -19.7935  -30.7276   24.2262 H   0  0  0  0  0  0
  -17.5011  -31.6266   24.5169 H   0  0  0  0  0  0
  -15.5352  -30.2983   23.7655 H   0  0  0  0  0  0
  -15.8670  -28.0828   22.7055 H   0  0  0  0  0  0
  -24.5931  -30.7033   25.7800 H   0  0  0  0  0  0
  -24.8943  -32.2857   26.4893 H   0  0  0  0  0  0
  -25.8119  -30.8879   27.0215 H   0  0  0  0  0  0
  -26.2882  -29.6751   24.1188 H   0  0  0  0  0  0
  -27.4086  -29.7259   25.4608 H   0  0  0  0  0  0
  -27.8722  -30.4297   23.9287 H   0  0  0  0  0  0
  -27.2668  -33.3618   26.2034 H   0  0  0  0  0  0
  -28.3877  -32.6854   25.0313 H   0  0  0  0  0  0
  -28.0701  -31.8443   26.5419 H   0  0  0  0  0  0
  -28.2552  -38.0130   24.7564 H   0  0  0  0  0  0
  -28.1128  -36.2668   24.6190 H   0  0  0  0  0  0
  -27.2319  -37.1333   25.8861 H   0  0  0  0  0  0
  -20.9346  -29.8758   21.6896 H   0  0  0  0  0  0
  -26.0155  -38.2844   24.1479 H   0  0  0  0  0  0
  -32.9870  -19.5199   17.5344 H   0  0  0  0  0  0
  -32.5515  -18.0284   18.3518 H   0  0  0  0  0  0
  -32.8963  -19.4806   19.2946 H   0  0  0  0  0  0
  -27.2188  -20.8088   24.0110 H   0  0  0  0  0  0
  -28.7995  -21.0389   23.2619 H   0  0  0  0  0  0
  -28.4013  -19.5021   24.0146 H   0  0  0  0  0  0
  -28.3524  -15.4182   22.4892 H   0  0  0  0  0  0
  -29.4526  -16.1990   23.5679 H   0  0  0  0  0  0
  -29.7141  -14.5153   23.2149 H   0  0  0  0  0  0
  -31.4490  -17.1165   22.9680 H   0  0  0  0  0  0
  -32.3446  -16.6930   21.5338 H   0  0  0  0  0  0
  -32.0990  -15.4912   22.7962 H   0  0  0  0  0  0
  -27.6210  -21.1697   19.4286 H   0  0  0  0  0  0
  -29.1037  -21.4558   18.6547 H   0  0  0  0  0  0
  -30.9408  -20.6012   18.2486 H   0  0  0  0  0  0
  -30.4958  -19.1478   17.3875 H   0  0  0  0  0  0
  -26.6570  -19.0667   22.2790 H   0  0  0  0  0  0
  -26.9355  -20.6122   21.5551 H   0  0  0  0  0  0
  -29.9044  -22.6070   20.8804 H   0  0  0  0  0  0
  -28.2525  -22.4987   21.3982 H   0  0  0  0  0  0
  -27.6794  -23.8218   19.1557 H   0  0  0  0  0  0
  -29.3765  -24.1724   19.1043 H   0  0  0  0  0  0
  -29.0757  -25.2245   21.4781 H   0  0  0  0  0  0
  -27.3693  -25.0929   21.2421 H   0  0  0  0  0  0
  1 25  1  0  0  0
  1 30  2  0  0  0
  1 85  1  0  0  0
  2  3  1  0  0  0
  2 25  1  0  0  0
  2 88  1  0  0  0
  2 89  1  0  0  0
  3  4  1  0  0  0
  3 90  1  0  0  0
  3 91  1  0  0  0
  4  5  1  0  0  0
  4 92  1  0  0  0
  4 93  1  0  0  0
  5  6  1  0  0  0
  5 26  1  0  0  0
  5 94  1  0  0  0
  6 25  1  0  0  0
  6 95  1  0  0  0
  6 96  1  0  0  0
  7  8  2  0  0  0
  7 26  1  0  0  0
  7 29  1  0  0  0
  8  9  1  0  0  0
  8 22  1  0  0  0
  9 10  1  0  0  0
  9 27  2  0  0  0
 10 11  2  0  0  0
 10 15  1  0  0  0
 11 12  1  0  0  0
 11 97  1  0  0  0
 12 13  2  0  0  0
 12 98  1  0  0  0
 13 14  1  0  0  0
 13 31  1  0  0  0
 14 15  2  0  0  0
 14 99  1  0  0  0
 15100  1  0  0  0
 16 17  2  0  0  0
 16 21  1  0  0  0
 16 31  1  0  0  0
 17 18  1  0  0  0
 17101  1  0  0  0
 18 19  2  0  0  0
 18102  1  0  0  0
 19 20  1  0  0  0
 19 24  1  0  0  0
 20 21  2  0  0  0
 20103  1  0  0  0
 21 23  1  0  0  0
 22 28  1  0  0  0
 22 32  2  0  0  0
 26 27  1  0  0  0
 28104  1  0  0  0
 28105  1  0  0  0
 29106  1  0  0  0
 29107  1  0  0  0
 33 34  1  0  0  0
 33 66  1  0  0  0
 33 70  2  0  0  0
 34 36  1  0  0  0
 34 59  1  0  0  0
 34108  1  0  0  0
 35 44  2  0  0  0
 35 45  1  0  0  0
 35 68  1  0  0  0
 36 56  1  0  0  0
 36109  1  0  0  0
 37 39  1  0  0  0
 37 47  1  0  0  0
 37 66  1  0  0  0
 37110  1  0  0  0
 38 43  2  0  0  0
 38 46  1  0  0  0
 38 47  1  0  0  0
 39 64  1  0  0  0
 39 67  2  0  0  0
 40 52  1  0  0  0
 40 53  2  0  0  0
 40 58  1  0  0  0
 41111  1  0  0  0
 41112  1  0  0  0
 41113  1  0  0  0
 41 48  1  0  0  0
 42 43  1  0  0  0
 42 66  1  0  0  0
 42114  1  0  0  0
 42115  1  0  0  0
 43 44  1  0  0  0
 44116  1  0  0  0
 45 46  2  0  0  0
 45117  1  0  0  0
 46118  1  0  0  0
 47119  1  0  0  0
 47120  1  0  0  0
 48 56  1  0  0  0
 48 65  1  0  0  0
 48121  1  0  0  0
 49 50  1  0  0  0
 49 53  1  0  0  0
 49 64  1  0  0  0
 49122  1  0  0  0
 50 51  1  0  0  0
 50123  1  0  0  0
 50124  1  0  0  0
 51 52  1  0  0  0
 51125  1  0  0  0
 51126  1  0  0  0
 52127  1  0  0  0
 52128  1  0  0  0
 53 54  1  0  0  0
 54 55  2  0  0  0
 54129  1  0  0  0
 55 57  1  0  0  0
 55130  1  0  0  0
 56 69  2  0  0  0
 57 58  2  0  0  0
 57131  1  0  0  0
 58132  1  0  0  0
 59 60  1  0  0  0
 59 61  1  0  0  0
 59 62  1  0  0  0
 60133  1  0  0  0
 60134  1  0  0  0
 60135  1  0  0  0
 61136  1  0  0  0
 61137  1  0  0  0
 61138  1  0  0  0
 62139  1  0  0  0
 62140  1  0  0  0
 62141  1  0  0  0
 63 65  1  0  0  0
 63142  1  0  0  0
 63143  1  0  0  0
 63144  1  0  0  0
 64145  1  0  0  0
 65146  1  0  0  0
 68 84  1  0  0  0
 71 72  2  0  0  0
 71 73  1  0  0  0
 71 79  1  0  0  0
 72 80  1  0  0  0
 72 86  1  0  0  0
 73 81  1  0  0  0
 73 87  2  0  0  0
 74 85  1  0  0  0
 74 86  2  0  0  0
 74 87  1  0  0  0
 75 80  1  0  0  0
 75147  1  0  0  0
 75148  1  0  0  0
 75149  1  0  0  0
 76 81  1  0  0  0
 76150  1  0  0  0
 76151  1  0  0  0
 76152  1  0  0  0
 77153  1  0  0  0
 77154  1  0  0  0
 77155  1  0  0  0
 77 85  1  0  0  0
 78 85  1  0  0  0
 78156  1  0  0  0
 78157  1  0  0  0
 78158  1  0  0  0
 79 82  1  0  0  0
 79159  1  0  0  0
 79160  1  0  0  0
 80161  1  0  0  0
 80162  1  0  0  0
 81163  1  0  0  0
 81164  1  0  0  0
 82 83  1  0  0  0
 82165  1  0  0  0
 82166  1  0  0  0
 83 84  1  0  0  0
 83167  1  0  0  0
 83168  1  0  0  0
 84169  1  0  0  0
 84170  1  0  0  0
M  ISO  4   1 100  68 101  84 101  85 100
M  END
> <chiral flag>
0

> <version>
0

> <s_m_source_file>
/data/baiqing/PycharmProjects/Reinvent-master-3.2/result/LINK_invent/BTK/process_docking_weight1_custom_sum_contain_oxygen_bond_distance_aromatic_linkinvent_7_9_3/rearranged_h_0073.sdf

> <i_m_source_file_index>
8

> <r_mmod_Potential_Energy-OPLS-2005>
-199.777267456055

> <r_mmod_Stretch_Energy-OPLS-2005>
88.9667053222656

> <r_mmod_Bend_Energy-OPLS-2005>
179.941268920898

> <r_mmod_Torsional_Energy-OPLS-2005>
192.373229980469

> <r_mmod_Improper_Torsional_Energy-OPLS-2005>
5.46778345108032

> <r_mmod_Van_der_Waal_Energy-OPLS-2005>
165.504119873047

> <r_mmod_Electrostatic_Energy-OPLS-2005>
-667.652038574219

> <r_mmod_Solvation_Energy-OPLS-2005>
-195.870758056641

> <b_mmod_Minimization_Converged-OPLS-2005>
0

> <r_mmod_RMS_Derivative-OPLS-2005>
1.45480251312256

$$$$
8
                    3D
 Structure written by MMmdl.
158166  0  0  1  0            999 V2000
  -30.6022  -14.7094   20.4745 C   0  0  0  0  0  0
  -30.4449  -12.4274   19.4795 C   0  0  0  0  0  0
  -29.5255  -12.4981   18.2400 C   0  0  0  0  0  0
  -28.0478  -12.3335   18.6453 C   0  0  0  0  0  0
  -27.6534  -13.2225   19.8555 C   0  0  2  0  0  0
  -28.6936  -13.1235   20.9956 C   0  0  0  0  0  0
  -25.2589  -13.8159   20.5663 C   0  0  0  0  0  0
  -24.1862  -13.0425   20.9154 C   0  0  0  0  0  0
  -24.6419  -11.6892   20.8683 C   0  0  0  0  0  0
  -23.9082  -10.4278   21.0364 C   0  0  0  0  0  0
  -24.3636   -9.4205   21.9166 C   0  0  0  0  0  0
  -23.6303   -8.2250   22.0758 C   0  0  0  0  0  0
  -22.4287   -8.0270   21.3541 C   0  0  0  0  0  0
  -21.9904   -9.0244   20.4653 C   0  0  0  0  0  0
  -22.7227  -10.2124   20.3045 C   0  0  0  0  0  0
  -21.6864   -6.0727   22.5262 C   0  0  0  0  0  0
  -21.4018   -6.5630   23.8196 C   0  0  0  0  0  0
  -21.3669   -5.6771   24.9156 C   0  0  0  0  0  0
  -21.6051   -4.3037   24.7198 C   0  0  0  0  0  0
  -21.8827   -3.8131   23.4323 C   0  0  0  0  0  0
  -21.9193   -4.6948   22.3373 C   0  0  0  0  0  0
  -22.7879  -13.5220   21.1780 C   0  0  0  0  0  0
  -22.1667   -4.2134   21.0940 F   0  0  0  0  0  0
  -21.5634   -3.4528   25.7715 F   0  0  0  0  0  0
  -30.0020  -13.4720   20.4297 N   0  0  0  0  0  0
  -26.3011  -12.9355   20.3262 N   0  0  0  0  0  0
  -25.9355  -11.6500   20.5708 N   0  0  0  0  0  0
  -22.0509  -12.8280   22.0365 N   0  0  0  0  0  0
  -25.4241  -15.1900   20.4131 N   0  0  0  0  0  0
  -31.7690  -14.8515   20.1017 O   0  0  0  0  0  0
  -21.6648   -6.8875   21.4228 O   0  0  0  0  0  0
  -22.3571  -14.5506   20.6574 O   0  0  0  0  0  0
  -24.6321  -31.8559   23.1996 C   0  0  0  0  0  0
  -25.9151  -32.4755   23.8317 C   0  0  1  0  0  0
  -27.2112  -27.2577   20.1249 C   0  0  0  0  0  0
  -25.5947  -33.8554   24.2239 N   0  0  0  0  0  0
  -23.4288  -30.4807   21.5422 C   0  0  2  0  0  0
  -24.8743  -28.9349   20.1084 C   0  0  0  0  0  0
  -22.7497  -29.4614   22.4889 C   0  0  0  0  0  0
  -18.0284  -28.1407   22.8466 C   0  0  0  0  0  0
  -24.1485  -36.7276   23.2636 C   0  0  0  0  0  0
  -25.9772  -30.7693   21.3799 C   0  0  0  0  0  0
  -26.0498  -29.3955   20.7146 C   0  0  0  0  0  0
  -27.2239  -28.5724   20.7060 C   0  0  0  0  0  0
  -26.0087  -26.8743   19.4866 C   0  0  0  0  0  0
  -24.8598  -27.6836   19.4824 C   0  0  0  0  0  0
  -23.6476  -29.8210   20.1571 C   0  0  0  0  0  0
  -25.4101  -36.3053   24.0308 C   0  0  1  0  0  0
  -20.5884  -28.3714   23.1267 C   0  0  2  0  0  0
  -20.6774  -26.9436   22.5406 C   0  0  0  0  0  0
  -19.5748  -26.6395   21.5226 C   0  0  0  0  0  0
  -18.1923  -26.7934   22.1629 C   0  0  0  0  0  0
  -19.1532  -28.8878   23.2852 C   0  0  0  0  0  0
  -18.9469  -30.1483   23.8870 C   0  0  0  0  0  0
  -17.6469  -30.6598   24.0582 C   0  0  0  0  0  0
  -25.9063  -34.9436   23.5056 C   0  0  0  0  0  0
  -16.5355  -29.9101   23.6370 C   0  0  0  0  0  0
  -16.7268  -28.6533   23.0347 C   0  0  0  0  0  0
  -26.4511  -31.6571   25.0711 C   0  0  0  0  0  0
  -25.3744  -31.3745   26.1451 C   0  0  0  0  0  0
  -27.0372  -30.2962   24.6239 C   0  0  0  0  0  0
  -27.6037  -32.4349   25.7496 C   0  0  0  0  0  0
  -27.5553  -37.1788   24.8459 C   0  0  0  0  0  0
  -21.4195  -29.3054   22.3648 N   0  0  0  0  0  0
  -26.4263  -37.3760   23.9405 N   0  0  0  0  0  0
  -24.6987  -31.0516   22.0978 N   0  0  0  0  0  0
  -23.4190  -28.8166   23.2995 O   0  0  0  0  0  0
  -28.2905  -26.3405   20.1934 O   0  0  0  0  0  0
  -26.5643  -34.8911   22.4627 O   0  0  0  0  0  0
  -23.5464  -32.1381   23.7294 O   0  0  0  0  0  0
  -28.2112  -19.7163   22.4672 C   0  0  0  0  0  0
  -29.1327  -18.2100   21.3285 C   0  0  0  0  0  0
  -30.6468  -17.9184   17.9817 C   0  0  0  0  0  0
  -29.5005  -17.4817   18.9029 C   0  0  0  0  0  0
  -28.4980  -22.1509   20.5271 C   0  0  0  0  0  0
  -29.0461  -23.6742   20.3992 C   0  0  0  0  0  0
  -29.4666  -20.8375   20.6107 C   0  0  0  0  0  0
  -27.9740  -24.8666   20.1644 C   0  0  0  0  0  0
  -29.9439  -17.2761   20.3726 C   0  0  2  0  0  0
  -27.8553  -18.5817   23.0633 N   0  0  0  0  0  0
  -28.4377  -17.6029   22.3096 N   0  0  0  0  0  0
  -28.9695  -19.6105   21.3581 N   0  0  0  0  0  0
  -29.7932  -15.7949   20.7282 N   0  0  0  0  0  0
  -31.4874  -12.5602   19.1826 H   0  0  0  0  0  0
  -30.3874  -11.4425   19.9465 H   0  0  0  0  0  0
  -29.8015  -11.7238   17.5223 H   0  0  0  0  0  0
  -29.6717  -13.4509   17.7273 H   0  0  0  0  0  0
  -27.9003  -11.2818   18.8987 H   0  0  0  0  0  0
  -27.3963  -12.5388   17.7952 H   0  0  0  0  0  0
  -27.6601  -14.2491   19.4900 H   0  0  0  0  0  0
  -28.7190  -12.1140   21.4081 H   0  0  0  0  0  0
  -28.4328  -13.7859   21.8217 H   0  0  0  0  0  0
  -25.2789   -9.5675   22.4726 H   0  0  0  0  0  0
  -23.9973   -7.4657   22.7522 H   0  0  0  0  0  0
  -21.0804   -8.8772   19.8999 H   0  0  0  0  0  0
  -22.3663  -10.9663   19.6153 H   0  0  0  0  0  0
  -21.2023   -7.6146   23.9697 H   0  0  0  0  0  0
  -21.1494   -6.0509   25.9060 H   0  0  0  0  0  0
  -22.0605   -2.7592   23.2825 H   0  0  0  0  0  0
  -22.4103  -11.9966   22.4809 H   0  0  0  0  0  0
  -21.1142  -13.1368   22.2539 H   0  0  0  0  0  0
  -24.6562  -15.8347   20.5657 H   0  0  0  0  0  0
  -26.2794  -15.6499   20.1301 H   0  0  0  0  0  0
  -26.7221  -32.5390   23.1065 H   0  0  0  0  0  0
  -25.0119  -33.9682   25.0402 H   0  0  0  0  0  0
  -22.7262  -31.3044   21.3958 H   0  0  0  0  0  0
  -23.3748  -35.9616   23.3305 H   0  0  0  0  0  0
  -24.3592  -36.8898   22.2057 H   0  0  0  0  0  0
  -23.7254  -37.6470   23.6679 H   0  0  0  0  0  0
  -26.1177  -31.5357   20.6174 H   0  0  0  0  0  0
  -26.8549  -30.8126   22.0126 H   0  0  0  0  0  0
  -28.1224  -28.9187   21.1974 H   0  0  0  0  0  0
  -25.9080  -25.9212   18.9934 H   0  0  0  0  0  0
  -23.9600  -27.3236   19.0025 H   0  0  0  0  0  0
  -23.7726  -30.5999   19.4033 H   0  0  0  0  0  0
  -22.7669  -29.2519   19.8530 H   0  0  0  0  0  0
  -25.1297  -36.1870   25.0799 H   0  0  0  0  0  0
  -20.9965  -28.3299   24.1394 H   0  0  0  0  0  0
  -20.5735  -26.2316   23.3602 H   0  0  0  0  0  0
  -21.6637  -26.7492   22.1181 H   0  0  0  0  0  0
  -19.6928  -25.6320   21.1244 H   0  0  0  0  0  0
  -19.6693  -27.3224   20.6773 H   0  0  0  0  0  0
  -17.4203  -26.6692   21.4024 H   0  0  0  0  0  0
  -18.0314  -26.0081   22.9029 H   0  0  0  0  0  0
  -19.7947  -30.7315   24.2192 H   0  0  0  0  0  0
  -17.5029  -31.6278   24.5196 H   0  0  0  0  0  0
  -15.5360  -30.3008   23.7712 H   0  0  0  0  0  0
  -15.8654  -28.0886   22.7037 H   0  0  0  0  0  0
  -24.5929  -30.7067   25.7804 H   0  0  0  0  0  0
  -24.8961  -32.2951   26.4821 H   0  0  0  0  0  0
  -25.8094  -30.8983   27.0254 H   0  0  0  0  0  0
  -26.2977  -29.6690   24.1253 H   0  0  0  0  0  0
  -27.4007  -29.7237   25.4782 H   0  0  0  0  0  0
  -27.8871  -30.4190   23.9517 H   0  0  0  0  0  0
  -27.2590  -33.3650   26.2022 H   0  0  0  0  0  0
  -28.3877  -32.6906   25.0359 H   0  0  0  0  0  0
  -28.0678  -31.8531   26.5474 H   0  0  0  0  0  0
  -28.2567  -38.0087   24.7506 H   0  0  0  0  0  0
  -28.1051  -36.2618   24.6286 H   0  0  0  0  0  0
  -27.2288  -37.1431   25.8868 H   0  0  0  0  0  0
  -20.9375  -29.8747   21.6833 H   0  0  0  0  0  0
  -26.0129  -38.2812   24.1459 H   0  0  0  0  0  0
  -27.8970  -20.6637   22.8806 H   0  0  0  0  0  0
  -30.2933  -18.0792   16.9625 H   0  0  0  0  0  0
  -31.4291  -17.1605   17.9463 H   0  0  0  0  0  0
  -31.1002  -18.8478   18.3281 H   0  0  0  0  0  0
  -29.0549  -16.5711   18.5009 H   0  0  0  0  0  0
  -28.7054  -18.2274   18.8475 H   0  0  0  0  0  0
  -27.8221  -21.9767   19.6907 H   0  0  0  0  0  0
  -27.8370  -22.1648   21.3905 H   0  0  0  0  0  0
  -29.6146  -23.9085   21.2993 H   0  0  0  0  0  0
  -29.7722  -23.7059   19.5848 H   0  0  0  0  0  0
  -30.3929  -21.1334   21.1033 H   0  0  0  0  0  0
  -29.7533  -20.5265   19.6063 H   0  0  0  0  0  0
  -27.5470  -24.6485   19.1861 H   0  0  0  0  0  0
  -27.1712  -24.7124   20.8862 H   0  0  0  0  0  0
  -30.9977  -17.5396   20.4834 H   0  0  0  0  0  0
  -28.8890  -15.5720   21.1169 H   0  0  0  0  0  0
  1 25  1  0  0  0
  1 30  2  0  0  0
  1 83  1  0  0  0
  2  3  1  0  0  0
  2 25  1  0  0  0
  2 84  1  0  0  0
  2 85  1  0  0  0
  3  4  1  0  0  0
  3 86  1  0  0  0
  3 87  1  0  0  0
  4  5  1  0  0  0
  4 88  1  0  0  0
  4 89  1  0  0  0
  5  6  1  0  0  0
  5 26  1  0  0  0
  5 90  1  0  0  0
  6 25  1  0  0  0
  6 91  1  0  0  0
  6 92  1  0  0  0
  7  8  2  0  0  0
  7 26  1  0  0  0
  7 29  1  0  0  0
  8  9  1  0  0  0
  8 22  1  0  0  0
  9 10  1  0  0  0
  9 27  2  0  0  0
 10 11  2  0  0  0
 10 15  1  0  0  0
 11 12  1  0  0  0
 11 93  1  0  0  0
 12 13  2  0  0  0
 12 94  1  0  0  0
 13 14  1  0  0  0
 13 31  1  0  0  0
 14 15  2  0  0  0
 14 95  1  0  0  0
 15 96  1  0  0  0
 16 17  2  0  0  0
 16 21  1  0  0  0
 16 31  1  0  0  0
 17 18  1  0  0  0
 17 97  1  0  0  0
 18 19  2  0  0  0
 18 98  1  0  0  0
 19 20  1  0  0  0
 19 24  1  0  0  0
 20 21  2  0  0  0
 20 99  1  0  0  0
 21 23  1  0  0  0
 22 28  1  0  0  0
 22 32  2  0  0  0
 26 27  1  0  0  0
 28100  1  0  0  0
 28101  1  0  0  0
 29102  1  0  0  0
 29103  1  0  0  0
 33 34  1  0  0  0
 33 66  1  0  0  0
 33 70  2  0  0  0
 34 36  1  0  0  0
 34 59  1  0  0  0
 34104  1  0  0  0
 35 44  2  0  0  0
 35 45  1  0  0  0
 35 68  1  0  0  0
 36 56  1  0  0  0
 36105  1  0  0  0
 37 39  1  0  0  0
 37 47  1  0  0  0
 37 66  1  0  0  0
 37106  1  0  0  0
 38 43  2  0  0  0
 38 46  1  0  0  0
 38 47  1  0  0  0
 39 64  1  0  0  0
 39 67  2  0  0  0
 40 52  1  0  0  0
 40 53  2  0  0  0
 40 58  1  0  0  0
 41107  1  0  0  0
 41108  1  0  0  0
 41109  1  0  0  0
 41 48  1  0  0  0
 42 43  1  0  0  0
 42 66  1  0  0  0
 42110  1  0  0  0
 42111  1  0  0  0
 43 44  1  0  0  0
 44112  1  0  0  0
 45 46  2  0  0  0
 45113  1  0  0  0
 46114  1  0  0  0
 47115  1  0  0  0
 47116  1  0  0  0
 48 56  1  0  0  0
 48 65  1  0  0  0
 48117  1  0  0  0
 49 50  1  0  0  0
 49 53  1  0  0  0
 49 64  1  0  0  0
 49118  1  0  0  0
 50 51  1  0  0  0
 50119  1  0  0  0
 50120  1  0  0  0
 51 52  1  0  0  0
 51121  1  0  0  0
 51122  1  0  0  0
 52123  1  0  0  0
 52124  1  0  0  0
 53 54  1  0  0  0
 54 55  2  0  0  0
 54125  1  0  0  0
 55 57  1  0  0  0
 55126  1  0  0  0
 56 69  2  0  0  0
 57 58  2  0  0  0
 57127  1  0  0  0
 58128  1  0  0  0
 59 60  1  0  0  0
 59 61  1  0  0  0
 59 62  1  0  0  0
 60129  1  0  0  0
 60130  1  0  0  0
 60131  1  0  0  0
 61132  1  0  0  0
 61133  1  0  0  0
 61134  1  0  0  0
 62135  1  0  0  0
 62136  1  0  0  0
 62137  1  0  0  0
 63 65  1  0  0  0
 63138  1  0  0  0
 63139  1  0  0  0
 63140  1  0  0  0
 64141  1  0  0  0
 65142  1  0  0  0
 68 78  1  0  0  0
 71 80  2  0  0  0
 71 82  1  0  0  0
 71143  1  0  0  0
 72 79  1  0  0  0
 72 81  2  0  0  0
 72 82  1  0  0  0
 73 74  1  0  0  0
 73144  1  0  0  0
 73145  1  0  0  0
 73146  1  0  0  0
 74147  1  0  0  0
 74148  1  0  0  0
 74 79  1  0  0  0
 75 76  1  0  0  0
 75 77  1  0  0  0
 75149  1  0  0  0
 75150  1  0  0  0
 76 78  1  0  0  0
 76151  1  0  0  0
 76152  1  0  0  0
 77 82  1  0  0  0
 77153  1  0  0  0
 77154  1  0  0  0
 78155  1  0  0  0
 78156  1  0  0  0
 79 83  1  0  0  0
 79157  1  0  0  0
 80 81  1  0  0  0
 83158  1  0  0  0
M  ISO  4   1 100  68 101  78 101  83 100
M  END
> <chiral flag>
0

> <version>
0

> <s_m_source_file>
/data/baiqing/PycharmProjects/Reinvent-master-3.2/result/LINK_invent/BTK/process_docking_weight1_custom_sum_contain_oxygen_bond_distance_aromatic_linkinvent_7_9_3/rearranged_h_0073.sdf

> <i_m_source_file_index>
9

> <r_mmod_Potential_Energy-OPLS-2005>
105.742485046387

> <r_mmod_Stretch_Energy-OPLS-2005>
126.68424987793

> <r_mmod_Bend_Energy-OPLS-2005>
185.225448608398

> <r_mmod_Torsional_Energy-OPLS-2005>
238.5078125

> <r_mmod_Improper_Torsional_Energy-OPLS-2005>
5.63590431213379

> <r_mmod_Van_der_Waal_Energy-OPLS-2005>
118.836776733398

> <r_mmod_Electrostatic_Energy-OPLS-2005>
-421.1826171875

> <r_mmod_Solvation_Energy-OPLS-2005>
-227.996734619141

> <b_mmod_Minimization_Converged-OPLS-2005>
0

> <r_mmod_RMS_Derivative-OPLS-2005>
3.30026340484619

$$$$
9
                    3D
 Structure written by MMmdl.
172180  0  0  1  0            999 V2000
  -30.7518  -14.5574   20.5042 C   0  0  0  0  0  0
  -30.3860  -12.3219   19.4752 C   0  0  0  0  0  0
  -29.4987  -12.4930   18.2273 C   0  0  0  0  0  0
  -28.0048  -12.3932   18.6039 C   0  0  0  0  0  0
  -27.6279  -13.2197   19.8674 C   0  0  2  0  0  0
  -28.6798  -13.0567   20.9820 C   0  0  0  0  0  0
  -25.2228  -13.8050   20.5532 C   0  0  0  0  0  0
  -24.1621  -13.0321   20.9161 C   0  0  0  0  0  0
  -24.6312  -11.6821   20.8777 C   0  0  0  0  0  0
  -23.9052  -10.4223   21.0435 C   0  0  0  0  0  0
  -24.3636   -9.4157   21.9206 C   0  0  0  0  0  0
  -23.6319   -8.2199   22.0790 C   0  0  0  0  0  0
  -22.4299   -8.0246   21.3559 C   0  0  0  0  0  0
  -21.9899   -9.0212   20.4666 C   0  0  0  0  0  0
  -22.7238  -10.2068   20.3072 C   0  0  0  0  0  0
  -21.6835   -6.0745   22.5283 C   0  0  0  0  0  0
  -21.4001   -6.5658   23.8220 C   0  0  0  0  0  0
  -21.3639   -5.6800   24.9173 C   0  0  0  0  0  0
  -21.6055   -4.3071   24.7197 C   0  0  0  0  0  0
  -21.8843   -3.8167   23.4318 C   0  0  0  0  0  0
  -21.9209   -4.6988   22.3384 C   0  0  0  0  0  0
  -22.7639  -13.5096   21.1828 C   0  0  0  0  0  0
  -22.1686   -4.2198   21.0952 F   0  0  0  0  0  0
  -21.5605   -3.4543   25.7695 F   0  0  0  0  0  0
  -30.0119  -13.3908   20.4362 N   0  0  0  0  0  0
  -26.2793  -12.9321   20.3331 N   0  0  0  0  0  0
  -25.9253  -11.6485   20.5839 N   0  0  0  0  0  0
  -22.0300  -12.8166   22.0435 N   0  0  0  0  0  0
  -25.3520  -15.1755   20.3676 N   0  0  0  0  0  0
  -31.8800  -14.5506   20.0101 O   0  0  0  0  0  0
  -21.6646   -6.8864   21.4246 O   0  0  0  0  0  0
  -22.3338  -14.5426   20.6673 O   0  0  0  0  0  0
  -24.6140  -31.8652   23.2043 C   0  0  0  0  0  0
  -25.9032  -32.4801   23.8349 C   0  0  1  0  0  0
  -27.2358  -27.4119   20.1050 C   0  0  0  0  0  0
  -25.5846  -33.8598   24.2270 N   0  0  0  0  0  0
  -23.4028  -30.4858   21.5492 C   0  0  2  0  0  0
  -24.8521  -28.9576   20.1046 C   0  0  0  0  0  0
  -22.7447  -29.4599   22.5016 C   0  0  0  0  0  0
  -18.0226  -28.1333   22.8452 C   0  0  0  0  0  0
  -24.1512  -36.7325   23.2658 C   0  0  0  0  0  0
  -25.9384  -30.8278   21.3631 C   0  0  0  0  0  0
  -26.0164  -29.4663   20.6955 C   0  0  0  0  0  0
  -27.2122  -28.7089   20.6781 C   0  0  0  0  0  0
  -26.0543  -26.9240   19.5034 C   0  0  0  0  0  0
  -24.8724  -27.6898   19.4979 C   0  0  0  0  0  0
  -23.6065  -29.8168   20.1653 C   0  0  0  0  0  0
  -25.4123  -36.3110   24.0348 C   0  0  1  0  0  0
  -20.5838  -28.3578   23.1343 C   0  0  2  0  0  0
  -20.6750  -26.9315   22.5432 C   0  0  0  0  0  0
  -19.5743  -26.6321   21.5222 C   0  0  0  0  0  0
  -18.1896  -26.7872   22.1605 C   0  0  0  0  0  0
  -19.1487  -28.8786   23.2877 C   0  0  0  0  0  0
  -18.9425  -30.1402   23.8867 C   0  0  0  0  0  0
  -17.6432  -30.6554   24.0535 C   0  0  0  0  0  0
  -25.9020  -34.9467   23.5125 C   0  0  0  0  0  0
  -16.5308  -29.9042   23.6349 C   0  0  0  0  0  0
  -16.7218  -28.6475   23.0333 C   0  0  0  0  0  0
  -26.4410  -31.6594   25.0703 C   0  0  0  0  0  0
  -25.3673  -31.3693   26.1459 C   0  0  0  0  0  0
  -27.0279  -30.3041   24.6132 C   0  0  0  0  0  0
  -27.5980  -32.4344   25.7429 C   0  0  0  0  0  0
  -27.5593  -37.1804   24.8463 C   0  0  0  0  0  0
  -21.4167  -29.2947   22.3794 N   0  0  0  0  0  0
  -26.4304  -37.3794   23.9396 N   0  0  0  0  0  0
  -24.6701  -31.0746   22.0951 N   0  0  0  0  0  0
  -23.4247  -28.8154   23.3048 O   0  0  0  0  0  0
  -28.4095  -26.6784   20.0931 O   0  0  0  0  0  0
  -26.5642  -34.8937   22.4713 O   0  0  0  0  0  0
  -23.5331  -32.1386   23.7427 O   0  0  0  0  0  0
  -31.0409  -19.6540   18.0509 C   0  0  0  0  0  0
  -30.1786  -18.3811   19.6609 C   0  0  0  0  0  0
  -29.8289  -20.6197   19.6489 C   0  0  0  0  0  0
  -31.6142  -19.7086   16.6511 C   0  0  0  0  0  0
  -29.4255  -16.2771   18.5439 C   0  0  0  0  0  0
  -28.0931  -17.2021   20.3321 C   0  0  0  0  0  0
  -28.0502  -21.5776   21.2686 C   0  0  0  0  0  0
  -31.6141  -16.6944   21.5548 C   0  0  0  0  0  0
  -29.5103  -15.8350   22.4030 C   0  0  0  0  0  0
  -29.6014  -24.5123   19.8961 C   0  0  0  0  0  0
  -28.3566  -25.2702   20.4383 C   0  0  0  0  0  0
  -29.5699  -16.9531   19.9524 C   0  0  0  0  0  0
  -29.0633  -21.8912   20.1477 C   0  0  1  0  0  0
  -30.3020  -15.9887   21.0611 C   0  0  0  0  0  0
  -29.9622  -23.1323   20.5446 C   0  0  0  0  0  0
  -30.9919  -18.4581   18.6124 N   0  0  0  0  0  0
  -30.4809  -20.7629   18.4947 N   0  0  0  0  0  0
  -29.6620  -19.4501   20.2893 N   0  0  0  0  0  0
  -28.2930  -22.2801   19.1241 F   0  0  0  0  0  0
  -31.2268  -22.9094   20.1873 F   0  0  0  0  0  0
  -29.9682  -23.3155   21.8657 F   0  0  0  0  0  0
  -31.4392  -12.3199   19.1942 H   0  0  0  0  0  0
  -30.2180  -11.3360   19.9127 H   0  0  0  0  0  0
  -29.7510  -11.7420   17.4762 H   0  0  0  0  0  0
  -29.7089  -13.4532   17.7599 H   0  0  0  0  0  0
  -27.7904  -11.3408   18.7870 H   0  0  0  0  0  0
  -27.3858  -12.6896   17.7548 H   0  0  0  0  0  0
  -27.5996  -14.2593   19.5934 H   0  0  0  0  0  0
  -28.6695  -12.0174   21.3124 H   0  0  0  0  0  0
  -28.3910  -13.6112   21.8670 H   0  0  0  0  0  0
  -25.2770   -9.5665   22.4801 H   0  0  0  0  0  0
  -24.0016   -7.4625   22.7563 H   0  0  0  0  0  0
  -21.0799   -8.8745   19.9020 H   0  0  0  0  0  0
  -22.3699  -10.9623   19.6199 H   0  0  0  0  0  0
  -21.2001   -7.6167   23.9721 H   0  0  0  0  0  0
  -21.1424   -6.0522   25.9065 H   0  0  0  0  0  0
  -22.0639   -2.7641   23.2792 H   0  0  0  0  0  0
  -22.3874  -11.9829   22.4867 H   0  0  0  0  0  0
  -21.0958  -13.1272   22.2704 H   0  0  0  0  0  0
  -24.5506  -15.7957   20.4424 H   0  0  0  0  0  0
  -26.1825  -15.6322   20.0226 H   0  0  0  0  0  0
  -26.7130  -32.5493   23.1123 H   0  0  0  0  0  0
  -24.9943  -33.9729   25.0388 H   0  0  0  0  0  0
  -22.6863  -31.2993   21.4114 H   0  0  0  0  0  0
  -23.3777  -35.9663   23.3325 H   0  0  0  0  0  0
  -24.3634  -36.8918   22.2080 H   0  0  0  0  0  0
  -23.7260  -37.6518   23.6675 H   0  0  0  0  0  0
  -26.0789  -31.6098   20.6153 H   0  0  0  0  0  0
  -26.8158  -30.8573   21.9992 H   0  0  0  0  0  0
  -28.1159  -29.1080   21.1135 H   0  0  0  0  0  0
  -26.0351  -25.9589   19.0197 H   0  0  0  0  0  0
  -23.9849  -27.2957   19.0212 H   0  0  0  0  0  0
  -23.6811  -30.5893   19.3999 H   0  0  0  0  0  0
  -22.7349  -29.2207   19.8852 H   0  0  0  0  0  0
  -25.1305  -36.1980   25.0841 H   0  0  0  0  0  0
  -20.9865  -28.3094   24.1492 H   0  0  0  0  0  0
  -20.5674  -26.2145   23.3576 H   0  0  0  0  0  0
  -21.6610  -26.7369   22.1202 H   0  0  0  0  0  0
  -19.6929  -25.6255   21.1194 H   0  0  0  0  0  0
  -19.6725  -27.3198   20.6812 H   0  0  0  0  0  0
  -17.4177  -26.6576   21.3995 H   0  0  0  0  0  0
  -18.0283  -26.0007   22.8999 H   0  0  0  0  0  0
  -19.7906  -30.7207   24.2219 H   0  0  0  0  0  0
  -17.4992  -31.6249   24.5102 H   0  0  0  0  0  0
  -15.5324  -30.2941   23.7727 H   0  0  0  0  0  0
  -15.8588  -28.0832   22.7047 H   0  0  0  0  0  0
  -24.5830  -30.7059   25.7778 H   0  0  0  0  0  0
  -24.8886  -32.2854   26.4942 H   0  0  0  0  0  0
  -25.7997  -30.8808   27.0209 H   0  0  0  0  0  0
  -26.2859  -29.6760   24.1202 H   0  0  0  0  0  0
  -27.4057  -29.7287   25.4591 H   0  0  0  0  0  0
  -27.8668  -30.4346   23.9303 H   0  0  0  0  0  0
  -27.2596  -33.3652   26.1992 H   0  0  0  0  0  0
  -28.3736  -32.6905   25.0204 H   0  0  0  0  0  0
  -28.0732  -31.8514   26.5317 H   0  0  0  0  0  0
  -28.2588  -38.0124   24.7513 H   0  0  0  0  0  0
  -28.1081  -36.2633   24.6263 H   0  0  0  0  0  0
  -27.2296  -37.1432   25.8860 H   0  0  0  0  0  0
  -20.9343  -29.8649   21.6991 H   0  0  0  0  0  0
  -26.0201  -38.2869   24.1386 H   0  0  0  0  0  0
  -32.0140  -18.7414   16.3473 H   0  0  0  0  0  0
  -32.3926  -20.4649   16.5605 H   0  0  0  0  0  0
  -30.8167  -19.9608   15.9493 H   0  0  0  0  0  0
  -28.9062  -16.9329   17.8409 H   0  0  0  0  0  0
  -28.8596  -15.3615   18.5410 H   0  0  0  0  0  0
  -30.3892  -16.0408   18.0884 H   0  0  0  0  0  0
  -27.9996  -17.7441   21.2740 H   0  0  0  0  0  0
  -27.5672  -16.2694   20.4341 H   0  0  0  0  0  0
  -27.5773  -17.7957   19.5764 H   0  0  0  0  0  0
  -28.5579  -21.2531   22.1788 H   0  0  0  0  0  0
  -27.3675  -20.7808   20.9735 H   0  0  0  0  0  0
  -27.4446  -22.4524   21.5059 H   0  0  0  0  0  0
  -31.4096  -17.6388   22.0580 H   0  0  0  0  0  0
  -32.3109  -16.9251   20.7482 H   0  0  0  0  0  0
  -32.1654  -16.0790   22.2710 H   0  0  0  0  0  0
  -29.5591  -16.7468   22.9991 H   0  0  0  0  0  0
  -29.9064  -15.0330   23.0328 H   0  0  0  0  0  0
  -28.4479  -15.6373   22.2948 H   0  0  0  0  0  0
  -30.4597  -25.1704   20.0385 H   0  0  0  0  0  0
  -29.5230  -24.3970   18.8138 H   0  0  0  0  0  0
  -28.3495  -25.2020   21.5280 H   0  0  0  0  0  0
  -27.4499  -24.7661   20.1048 H   0  0  0  0  0  0
  1 25  1  0  0  0
  1 30  2  0  0  0
  1 84  1  0  0  0
  2  3  1  0  0  0
  2 25  1  0  0  0
  2 92  1  0  0  0
  2 93  1  0  0  0
  3  4  1  0  0  0
  3 94  1  0  0  0
  3 95  1  0  0  0
  4  5  1  0  0  0
  4 96  1  0  0  0
  4 97  1  0  0  0
  5  6  1  0  0  0
  5 26  1  0  0  0
  5 98  1  0  0  0
  6 25  1  0  0  0
  6 99  1  0  0  0
  6100  1  0  0  0
  7  8  2  0  0  0
  7 26  1  0  0  0
  7 29  1  0  0  0
  8  9  1  0  0  0
  8 22  1  0  0  0
  9 10  1  0  0  0
  9 27  2  0  0  0
 10 11  2  0  0  0
 10 15  1  0  0  0
 11 12  1  0  0  0
 11101  1  0  0  0
 12 13  2  0  0  0
 12102  1  0  0  0
 13 14  1  0  0  0
 13 31  1  0  0  0
 14 15  2  0  0  0
 14103  1  0  0  0
 15104  1  0  0  0
 16 17  2  0  0  0
 16 21  1  0  0  0
 16 31  1  0  0  0
 17 18  1  0  0  0
 17105  1  0  0  0
 18 19  2  0  0  0
 18106  1  0  0  0
 19 20  1  0  0  0
 19 24  1  0  0  0
 20 21  2  0  0  0
 20107  1  0  0  0
 21 23  1  0  0  0
 22 28  1  0  0  0
 22 32  2  0  0  0
 26 27  1  0  0  0
 28108  1  0  0  0
 28109  1  0  0  0
 29110  1  0  0  0
 29111  1  0  0  0
 33 34  1  0  0  0
 33 66  1  0  0  0
 33 70  2  0  0  0
 34 36  1  0  0  0
 34 59  1  0  0  0
 34112  1  0  0  0
 35 44  2  0  0  0
 35 45  1  0  0  0
 35 68  1  0  0  0
 36 56  1  0  0  0
 36113  1  0  0  0
 37 39  1  0  0  0
 37 47  1  0  0  0
 37 66  1  0  0  0
 37114  1  0  0  0
 38 43  2  0  0  0
 38 46  1  0  0  0
 38 47  1  0  0  0
 39 64  1  0  0  0
 39 67  2  0  0  0
 40 52  1  0  0  0
 40 53  2  0  0  0
 40 58  1  0  0  0
 41115  1  0  0  0
 41116  1  0  0  0
 41117  1  0  0  0
 41 48  1  0  0  0
 42 43  1  0  0  0
 42 66  1  0  0  0
 42118  1  0  0  0
 42119  1  0  0  0
 43 44  1  0  0  0
 44120  1  0  0  0
 45 46  2  0  0  0
 45121  1  0  0  0
 46122  1  0  0  0
 47123  1  0  0  0
 47124  1  0  0  0
 48 56  1  0  0  0
 48 65  1  0  0  0
 48125  1  0  0  0
 49 50  1  0  0  0
 49 53  1  0  0  0
 49 64  1  0  0  0
 49126  1  0  0  0
 50 51  1  0  0  0
 50127  1  0  0  0
 50128  1  0  0  0
 51 52  1  0  0  0
 51129  1  0  0  0
 51130  1  0  0  0
 52131  1  0  0  0
 52132  1  0  0  0
 53 54  1  0  0  0
 54 55  2  0  0  0
 54133  1  0  0  0
 55 57  1  0  0  0
 55134  1  0  0  0
 56 69  2  0  0  0
 57 58  2  0  0  0
 57135  1  0  0  0
 58136  1  0  0  0
 59 60  1  0  0  0
 59 61  1  0  0  0
 59 62  1  0  0  0
 60137  1  0  0  0
 60138  1  0  0  0
 60139  1  0  0  0
 61140  1  0  0  0
 61141  1  0  0  0
 61142  1  0  0  0
 62143  1  0  0  0
 62144  1  0  0  0
 62145  1  0  0  0
 63 65  1  0  0  0
 63146  1  0  0  0
 63147  1  0  0  0
 63148  1  0  0  0
 64149  1  0  0  0
 65150  1  0  0  0
 68 81  1  0  0  0
 71 74  1  0  0  0
 71 86  2  0  0  0
 71 87  1  0  0  0
 72 82  1  0  0  0
 72 86  1  0  0  0
 72 88  2  0  0  0
 73 83  1  0  0  0
 73 87  2  0  0  0
 73 88  1  0  0  0
 74151  1  0  0  0
 74152  1  0  0  0
 74153  1  0  0  0
 75154  1  0  0  0
 75155  1  0  0  0
 75156  1  0  0  0
 75 82  1  0  0  0
 76 82  1  0  0  0
 76157  1  0  0  0
 76158  1  0  0  0
 76159  1  0  0  0
 77160  1  0  0  0
 77161  1  0  0  0
 77162  1  0  0  0
 77 83  1  0  0  0
 78163  1  0  0  0
 78164  1  0  0  0
 78165  1  0  0  0
 78 84  1  0  0  0
 79 84  1  0  0  0
 79166  1  0  0  0
 79167  1  0  0  0
 79168  1  0  0  0
 80 81  1  0  0  0
 80 85  1  0  0  0
 80169  1  0  0  0
 80170  1  0  0  0
 81171  1  0  0  0
 81172  1  0  0  0
 82 84  1  0  0  0
 83 85  1  0  0  0
 83 89  1  0  0  0
 85 90  1  0  0  0
 85 91  1  0  0  0
M  ISO  4   1 100  68 101  81 101  84 100
M  END
> <chiral flag>
0

> <version>
0

> <s_m_source_file>
/data/baiqing/PycharmProjects/Reinvent-master-3.2/result/LINK_invent/BTK/process_docking_weight1_custom_sum_contain_oxygen_bond_distance_aromatic_linkinvent_7_9_3/rearranged_h_0073.sdf

> <i_m_source_file_index>
10

> <r_mmod_Potential_Energy-OPLS-2005>
-377.962158203125

> <r_mmod_Stretch_Energy-OPLS-2005>
85.0347137451172

> <r_mmod_Bend_Energy-OPLS-2005>
175.509719848633

> <r_mmod_Torsional_Energy-OPLS-2005>
237.187713623047

> <r_mmod_Improper_Torsional_Energy-OPLS-2005>
6.34289026260376

> <r_mmod_Van_der_Waal_Energy-OPLS-2005>
230.459396362305

> <r_mmod_Electrostatic_Energy-OPLS-2005>
-943.776062011719

> <r_mmod_Solvation_Energy-OPLS-2005>
-194.963500976562

> <b_mmod_Minimization_Converged-OPLS-2005>
0

> <r_mmod_RMS_Derivative-OPLS-2005>
5.87276697158813

$$$$
10
                    3D
 Structure written by MMmdl.
151159  0  0  1  0            999 V2000
  -30.6208  -15.0093   20.3858 C   0  0  0  0  0  0
  -30.4145  -12.6464   19.4919 C   0  0  0  0  0  0
  -29.5044  -12.5403   18.2513 C   0  0  0  0  0  0
  -28.0486  -12.3115   18.6870 C   0  0  0  0  0  0
  -27.6191  -13.2655   19.8332 C   0  0  2  0  0  0
  -28.6700  -13.3654   20.9599 C   0  0  0  0  0  0
  -25.2439  -13.8241   20.5746 C   0  0  0  0  0  0
  -24.1754  -13.0453   20.9209 C   0  0  0  0  0  0
  -24.6403  -11.6944   20.8768 C   0  0  0  0  0  0
  -23.9094  -10.4309   21.0418 C   0  0  0  0  0  0
  -24.3644   -9.4218   21.9189 C   0  0  0  0  0  0
  -23.6315   -8.2253   22.0754 C   0  0  0  0  0  0
  -22.4287   -8.0300   21.3549 C   0  0  0  0  0  0
  -21.9929   -9.0276   20.4645 C   0  0  0  0  0  0
  -22.7270  -10.2151   20.3061 C   0  0  0  0  0  0
  -21.6859   -6.0751   22.5278 C   0  0  0  0  0  0
  -21.4018   -6.5654   23.8213 C   0  0  0  0  0  0
  -21.3653   -5.6804   24.9174 C   0  0  0  0  0  0
  -21.6042   -4.3067   24.7226 C   0  0  0  0  0  0
  -21.8823   -3.8163   23.4347 C   0  0  0  0  0  0
  -21.9199   -4.6980   22.3401 C   0  0  0  0  0  0
  -22.7782  -13.5217   21.1869 C   0  0  0  0  0  0
  -22.1671   -4.2173   21.0980 F   0  0  0  0  0  0
  -21.5625   -3.4544   25.7730 F   0  0  0  0  0  0
  -29.9193  -13.7957   20.3174 N   0  0  0  0  0  0
  -26.2883  -12.9512   20.3351 N   0  0  0  0  0  0
  -25.9356  -11.6619   20.5814 N   0  0  0  0  0  0
  -22.0449  -12.8181   22.0418 N   0  0  0  0  0  0
  -25.4155  -15.1945   20.4191 N   0  0  0  0  0  0
  -31.8408  -14.9020   20.2307 O   0  0  0  0  0  0
  -21.6653   -6.8893   21.4240 O   0  0  0  0  0  0
  -22.3460  -14.5525   20.6738 O   0  0  0  0  0  0
  -24.6504  -31.8386   23.1831 C   0  0  0  0  0  0
  -25.9235  -32.4672   23.8249 C   0  0  1  0  0  0
  -27.2025  -27.0697   20.1611 C   0  0  0  0  0  0
  -25.5944  -33.8474   24.2158 N   0  0  0  0  0  0
  -23.4555  -30.4581   21.5333 C   0  0  2  0  0  0
  -24.8991  -28.8690   20.1171 C   0  0  0  0  0  0
  -22.7585  -29.4563   22.4882 C   0  0  0  0  0  0
  -18.0320  -28.1396   22.8475 C   0  0  0  0  0  0
  -24.1480  -36.7228   23.2652 C   0  0  0  0  0  0
  -26.0173  -30.6891   21.3917 C   0  0  0  0  0  0
  -26.0829  -29.2954   20.7326 C   0  0  0  0  0  0
  -27.2355  -28.4132   20.7335 C   0  0  0  0  0  0
  -25.9907  -26.7600   19.5042 C   0  0  0  0  0  0
  -24.8674  -27.6155   19.4892 C   0  0  0  0  0  0
  -23.6817  -29.7806   20.1568 C   0  0  0  0  0  0
  -25.4117  -36.3019   24.0325 C   0  0  1  0  0  0
  -20.5924  -28.3755   23.1226 C   0  0  2  0  0  0
  -20.6820  -26.9437   22.5436 C   0  0  0  0  0  0
  -19.5805  -26.6384   21.5234 C   0  0  0  0  0  0
  -18.1970  -26.7924   22.1623 C   0  0  0  0  0  0
  -19.1563  -28.8890   23.2835 C   0  0  0  0  0  0
  -18.9465  -30.1498   23.8849 C   0  0  0  0  0  0
  -17.6459  -30.6601   24.0522 C   0  0  0  0  0  0
  -25.9074  -34.9395   23.5061 C   0  0  0  0  0  0
  -16.5351  -29.9078   23.6308 C   0  0  0  0  0  0
  -16.7296  -28.6497   23.0342 C   0  0  0  0  0  0
  -26.4508  -31.6573   25.0737 C   0  0  0  0  0  0
  -25.3670  -31.3784   26.1430 C   0  0  0  0  0  0
  -27.0411  -30.2968   24.6388 C   0  0  0  0  0  0
  -27.6026  -32.4365   25.7512 C   0  0  0  0  0  0
  -27.5568  -37.1779   24.8473 C   0  0  0  0  0  0
  -21.4273  -29.3092   22.3618 N   0  0  0  0  0  0
  -26.4281  -37.3740   23.9417 N   0  0  0  0  0  0
  -24.7288  -31.0189   22.0891 N   0  0  0  0  0  0
  -23.4199  -28.8113   23.3064 O   0  0  0  0  0  0
  -28.2314  -26.0417   20.2260 O   0  0  0  0  0  0
  -26.5682  -34.8903   22.4656 O   0  0  0  0  0  0
  -23.5607  -32.1287   23.7007 O   0  0  0  0  0  0
  -27.6768  -18.8066   21.6538 C   0  0  0  0  0  0
  -28.7835  -18.8111   20.8364 C   0  0  0  0  0  0
  -29.0980  -17.2888   20.8375 C   0  0  0  0  0  0
  -26.3706  -17.1208   23.0307 C   0  0  0  0  0  0
  -28.9273  -23.1115   20.2922 C   0  0  0  0  0  0
  -27.9084  -24.4897   20.1720 C   0  0  0  0  0  0
  -28.4536  -21.4644   20.4222 C   0  0  0  0  0  0
  -28.2307  -16.6330   21.5886 N   0  0  0  0  0  0
  -27.3972  -17.5408   22.0996 N   0  0  0  0  0  0
  -30.1199  -16.3535   20.2337 N   0  0  0  0  0  0
  -29.2714  -20.1112   20.3198 O   0  0  0  0  0  0
  -31.4487  -12.7724   19.1681 H   0  0  0  0  0  0
  -30.3996  -11.7189   20.0663 H   0  0  0  0  0  0
  -29.8369  -11.7337   17.5955 H   0  0  0  0  0  0
  -29.5683  -13.4609   17.6694 H   0  0  0  0  0  0
  -27.9718  -11.2770   19.0215 H   0  0  0  0  0  0
  -27.3727  -12.4074   17.8362 H   0  0  0  0  0  0
  -27.5576  -14.2543   19.3769 H   0  0  0  0  0  0
  -28.7903  -12.4132   21.4773 H   0  0  0  0  0  0
  -28.3597  -14.0825   21.7175 H   0  0  0  0  0  0
  -25.2794   -9.5695   22.4761 H   0  0  0  0  0  0
  -24.0032   -7.4640   22.7466 H   0  0  0  0  0  0
  -21.0866   -8.8810   19.8937 H   0  0  0  0  0  0
  -22.3748  -10.9698   19.6173 H   0  0  0  0  0  0
  -21.2010   -7.6168   23.9719 H   0  0  0  0  0  0
  -21.1460   -6.0538   25.9074 H   0  0  0  0  0  0
  -22.0602   -2.7629   23.2843 H   0  0  0  0  0  0
  -22.4103  -11.9844   22.4778 H   0  0  0  0  0  0
  -21.1067  -13.1188   22.2642 H   0  0  0  0  0  0
  -24.6718  -15.8599   20.5925 H   0  0  0  0  0  0
  -26.3319  -15.6246   20.3498 H   0  0  0  0  0  0
  -26.7313  -32.5241   23.0986 H   0  0  0  0  0  0
  -25.0027  -33.9567   25.0262 H   0  0  0  0  0  0
  -22.7631  -31.2867   21.3735 H   0  0  0  0  0  0
  -23.3764  -35.9543   23.3313 H   0  0  0  0  0  0
  -24.3561  -36.8863   22.2070 H   0  0  0  0  0  0
  -23.7210  -37.6416   23.6682 H   0  0  0  0  0  0
  -26.1892  -31.4387   20.6184 H   0  0  0  0  0  0
  -26.8812  -30.7350   22.0429 H   0  0  0  0  0  0
  -28.1352  -28.7333   21.2405 H   0  0  0  0  0  0
  -25.8705  -25.8072   19.0128 H   0  0  0  0  0  0
  -23.9616  -27.2786   19.0056 H   0  0  0  0  0  0
  -23.8241  -30.5500   19.3972 H   0  0  0  0  0  0
  -22.7928  -29.2267   19.8498 H   0  0  0  0  0  0
  -25.1312  -36.1856   25.0822 H   0  0  0  0  0  0
  -20.9995  -28.3332   24.1362 H   0  0  0  0  0  0
  -20.5735  -26.2360   23.3665 H   0  0  0  0  0  0
  -21.6716  -26.7484   22.1256 H   0  0  0  0  0  0
  -19.6984  -25.6293   21.1267 H   0  0  0  0  0  0
  -19.6738  -27.3184   20.6745 H   0  0  0  0  0  0
  -17.4267  -26.6666   21.4012 H   0  0  0  0  0  0
  -18.0341  -26.0089   22.9036 H   0  0  0  0  0  0
  -19.7922  -30.7340   24.2208 H   0  0  0  0  0  0
  -17.4994  -31.6286   24.5099 H   0  0  0  0  0  0
  -15.5351  -30.2970   23.7641 H   0  0  0  0  0  0
  -15.8703  -28.0798   22.7061 H   0  0  0  0  0  0
  -24.5838  -30.7146   25.7741 H   0  0  0  0  0  0
  -24.8863  -32.2971   26.4802 H   0  0  0  0  0  0
  -25.7925  -30.8986   27.0250 H   0  0  0  0  0  0
  -26.3071  -29.6680   24.1338 H   0  0  0  0  0  0
  -27.3938  -29.7296   25.5007 H   0  0  0  0  0  0
  -27.8998  -30.4215   23.9794 H   0  0  0  0  0  0
  -27.2607  -33.3684   26.2024 H   0  0  0  0  0  0
  -28.3843  -32.6906   25.0341 H   0  0  0  0  0  0
  -28.0688  -31.8549   26.5481 H   0  0  0  0  0  0
  -28.2602  -38.0058   24.7514 H   0  0  0  0  0  0
  -28.1048  -36.2595   24.6311 H   0  0  0  0  0  0
  -27.2287  -37.1443   25.8876 H   0  0  0  0  0  0
  -20.9507  -29.8781   21.6759 H   0  0  0  0  0  0
  -26.0154  -38.2816   24.1406 H   0  0  0  0  0  0
  -27.0525  -19.6164   21.9983 H   0  0  0  0  0  0
  -25.3919  -17.1562   22.5525 H   0  0  0  0  0  0
  -26.3706  -17.7849   23.8953 H   0  0  0  0  0  0
  -26.5555  -16.1027   23.3776 H   0  0  0  0  0  0
  -29.5750  -23.3004   21.1481 H   0  0  0  0  0  0
  -29.5959  -23.1670   19.4333 H   0  0  0  0  0  0
  -27.1317  -24.3427   20.9234 H   0  0  0  0  0  0
  -27.4001  -24.3329   19.2208 H   0  0  0  0  0  0
  -27.6552  -21.3365   19.6912 H   0  0  0  0  0  0
  -27.9576  -21.4416   21.3908 H   0  0  0  0  0  0
  -30.8644  -16.8986   19.8293 H   0  0  0  0  0  0
  1 25  1  0  0  0
  1 30  2  0  0  0
  1 80  1  0  0  0
  2  3  1  0  0  0
  2 25  1  0  0  0
  2 82  1  0  0  0
  2 83  1  0  0  0
  3  4  1  0  0  0
  3 84  1  0  0  0
  3 85  1  0  0  0
  4  5  1  0  0  0
  4 86  1  0  0  0
  4 87  1  0  0  0
  5  6  1  0  0  0
  5 26  1  0  0  0
  5 88  1  0  0  0
  6 25  1  0  0  0
  6 89  1  0  0  0
  6 90  1  0  0  0
  7  8  2  0  0  0
  7 26  1  0  0  0
  7 29  1  0  0  0
  8  9  1  0  0  0
  8 22  1  0  0  0
  9 10  1  0  0  0
  9 27  2  0  0  0
 10 11  2  0  0  0
 10 15  1  0  0  0
 11 12  1  0  0  0
 11 91  1  0  0  0
 12 13  2  0  0  0
 12 92  1  0  0  0
 13 14  1  0  0  0
 13 31  1  0  0  0
 14 15  2  0  0  0
 14 93  1  0  0  0
 15 94  1  0  0  0
 16 17  2  0  0  0
 16 21  1  0  0  0
 16 31  1  0  0  0
 17 18  1  0  0  0
 17 95  1  0  0  0
 18 19  2  0  0  0
 18 96  1  0  0  0
 19 20  1  0  0  0
 19 24  1  0  0  0
 20 21  2  0  0  0
 20 97  1  0  0  0
 21 23  1  0  0  0
 22 28  1  0  0  0
 22 32  2  0  0  0
 26 27  1  0  0  0
 28 98  1  0  0  0
 28 99  1  0  0  0
 29100  1  0  0  0
 29101  1  0  0  0
 33 34  1  0  0  0
 33 66  1  0  0  0
 33 70  2  0  0  0
 34 36  1  0  0  0
 34 59  1  0  0  0
 34102  1  0  0  0
 35 44  2  0  0  0
 35 45  1  0  0  0
 35 68  1  0  0  0
 36 56  1  0  0  0
 36103  1  0  0  0
 37 39  1  0  0  0
 37 47  1  0  0  0
 37 66  1  0  0  0
 37104  1  0  0  0
 38 43  2  0  0  0
 38 46  1  0  0  0
 38 47  1  0  0  0
 39 64  1  0  0  0
 39 67  2  0  0  0
 40 52  1  0  0  0
 40 53  2  0  0  0
 40 58  1  0  0  0
 41105  1  0  0  0
 41106  1  0  0  0
 41107  1  0  0  0
 41 48  1  0  0  0
 42 43  1  0  0  0
 42 66  1  0  0  0
 42108  1  0  0  0
 42109  1  0  0  0
 43 44  1  0  0  0
 44110  1  0  0  0
 45 46  2  0  0  0
 45111  1  0  0  0
 46112  1  0  0  0
 47113  1  0  0  0
 47114  1  0  0  0
 48 56  1  0  0  0
 48 65  1  0  0  0
 48115  1  0  0  0
 49 50  1  0  0  0
 49 53  1  0  0  0
 49 64  1  0  0  0
 49116  1  0  0  0
 50 51  1  0  0  0
 50117  1  0  0  0
 50118  1  0  0  0
 51 52  1  0  0  0
 51119  1  0  0  0
 51120  1  0  0  0
 52121  1  0  0  0
 52122  1  0  0  0
 53 54  1  0  0  0
 54 55  2  0  0  0
 54123  1  0  0  0
 55 57  1  0  0  0
 55124  1  0  0  0
 56 69  2  0  0  0
 57 58  2  0  0  0
 57125  1  0  0  0
 58126  1  0  0  0
 59 60  1  0  0  0
 59 61  1  0  0  0
 59 62  1  0  0  0
 60127  1  0  0  0
 60128  1  0  0  0
 60129  1  0  0  0
 61130  1  0  0  0
 61131  1  0  0  0
 61132  1  0  0  0
 62133  1  0  0  0
 62134  1  0  0  0
 62135  1  0  0  0
 63 65  1  0  0  0
 63136  1  0  0  0
 63137  1  0  0  0
 63138  1  0  0  0
 64139  1  0  0  0
 65140  1  0  0  0
 68 76  1  0  0  0
 71 72  2  0  0  0
 71 79  1  0  0  0
 71141  1  0  0  0
 72 73  1  0  0  0
 72 81  1  0  0  0
 73 78  2  0  0  0
 73 80  1  0  0  0
 74 79  1  0  0  0
 74142  1  0  0  0
 74143  1  0  0  0
 74144  1  0  0  0
 75 76  1  0  0  0
 75 77  1  0  0  0
 75145  1  0  0  0
 75146  1  0  0  0
 76147  1  0  0  0
 76148  1  0  0  0
 77 81  1  0  0  0
 77149  1  0  0  0
 77150  1  0  0  0
 78 79  1  0  0  0
 80151  1  0  0  0
M  ISO  4   1 100  68 101  76 101  80 100
M  END
> <chiral flag>
0

> <version>
0

> <s_m_source_file>
/data/baiqing/PycharmProjects/Reinvent-master-3.2/result/LINK_invent/BTK/process_docking_weight1_custom_sum_contain_oxygen_bond_distance_aromatic_linkinvent_7_9_3/rearranged_h_0073.sdf

> <i_m_source_file_index>
11

> <r_mmod_Potential_Energy-OPLS-2005>
698.197204589844

> <r_mmod_Stretch_Energy-OPLS-2005>
337.917663574219

> <r_mmod_Bend_Energy-OPLS-2005>
392.041473388672

> <r_mmod_Torsional_Energy-OPLS-2005>
235.013580322266

> <r_mmod_Improper_Torsional_Energy-OPLS-2005>
13.0900774002075

> <r_mmod_Van_der_Waal_Energy-OPLS-2005>
112.595771789551

> <r_mmod_Electrostatic_Energy-OPLS-2005>
-429.528869628906

> <r_mmod_Solvation_Energy-OPLS-2005>
-213.693405151367

> <b_mmod_Minimization_Converged-OPLS-2005>
0

> <r_mmod_RMS_Derivative-OPLS-2005>
2.58035230636597

$$$$
11
                    3D
 Structure written by MMmdl.
169177  0  0  1  0            999 V2000
  -30.7093  -14.4329   20.6270 C   0  0  0  0  0  0
  -30.4299  -12.3035   19.3999 C   0  0  0  0  0  0
  -29.4936  -12.5117   18.1927 C   0  0  0  0  0  0
  -28.0144  -12.3710   18.6084 C   0  0  0  0  0  0
  -27.6684  -13.2008   19.8734 C   0  0  2  0  0  0
  -28.7121  -12.9592   20.9863 C   0  0  0  0  0  0
  -25.2657  -13.8164   20.5678 C   0  0  0  0  0  0
  -24.1878  -13.0439   20.9168 C   0  0  0  0  0  0
  -24.6423  -11.6908   20.8734 C   0  0  0  0  0  0
  -23.9078  -10.4301   21.0412 C   0  0  0  0  0  0
  -24.3631   -9.4219   21.9195 C   0  0  0  0  0  0
  -23.6301   -8.2254   22.0767 C   0  0  0  0  0  0
  -22.4280   -8.0300   21.3558 C   0  0  0  0  0  0
  -21.9931   -9.0265   20.4651 C   0  0  0  0  0  0
  -22.7260  -10.2141   20.3058 C   0  0  0  0  0  0
  -21.6855   -6.0750   22.5283 C   0  0  0  0  0  0
  -21.4004   -6.5651   23.8211 C   0  0  0  0  0  0
  -21.3653   -5.6799   24.9178 C   0  0  0  0  0  0
  -21.6045   -4.3063   24.7222 C   0  0  0  0  0  0
  -21.8824   -3.8162   23.4339 C   0  0  0  0  0  0
  -21.9192   -4.6981   22.3405 C   0  0  0  0  0  0
  -22.7908  -13.5260   21.1809 C   0  0  0  0  0  0
  -22.1667   -4.2168   21.0984 F   0  0  0  0  0  0
  -21.5626   -3.4553   25.7733 F   0  0  0  0  0  0
  -30.0419  -13.2658   20.4369 N   0  0  0  0  0  0
  -26.3080  -12.9308   20.3360 N   0  0  0  0  0  0
  -25.9350  -11.6476   20.5758 N   0  0  0  0  0  0
  -22.0525  -12.8245   22.0353 N   0  0  0  0  0  0
  -25.4397  -15.1873   20.4106 N   0  0  0  0  0  0
  -31.7925  -14.6712   20.0823 O   0  0  0  0  0  0
  -21.6646   -6.8891   21.4244 O   0  0  0  0  0  0
  -22.3608  -14.5566   20.6670 O   0  0  0  0  0  0
  -24.6147  -31.8656   23.2094 C   0  0  0  0  0  0
  -25.9067  -32.4778   23.8357 C   0  0  1  0  0  0
  -27.2563  -27.4581   20.0816 C   0  0  0  0  0  0
  -25.5925  -33.8582   24.2288 N   0  0  0  0  0  0
  -23.3974  -30.4913   21.5505 C   0  0  2  0  0  0
  -24.8514  -28.9592   20.1155 C   0  0  0  0  0  0
  -22.7389  -29.4629   22.4970 C   0  0  0  0  0  0
  -18.0256  -28.1329   22.8454 C   0  0  0  0  0  0
  -24.1482  -36.7291   23.2634 C   0  0  0  0  0  0
  -25.9268  -30.8376   21.3617 C   0  0  0  0  0  0
  -26.0122  -29.4747   20.7110 C   0  0  0  0  0  0
  -27.2187  -28.7356   20.6902 C   0  0  0  0  0  0
  -26.0730  -26.9467   19.5100 C   0  0  0  0  0  0
  -24.8757  -27.6905   19.5143 C   0  0  0  0  0  0
  -23.6095  -29.8255   20.1635 C   0  0  0  0  0  0
  -25.4082  -36.3061   24.0331 C   0  0  1  0  0  0
  -20.5860  -28.3615   23.1299 C   0  0  2  0  0  0
  -20.6766  -26.9368   22.5367 C   0  0  0  0  0  0
  -19.5741  -26.6364   21.5169 C   0  0  0  0  0  0
  -18.1926  -26.7871   22.1587 C   0  0  0  0  0  0
  -19.1521  -28.8802   23.2868 C   0  0  0  0  0  0
  -18.9457  -30.1419   23.8867 C   0  0  0  0  0  0
  -17.6465  -30.6548   24.0568 C   0  0  0  0  0  0
  -25.9020  -34.9438   23.5092 C   0  0  0  0  0  0
  -16.5356  -29.9033   23.6346 C   0  0  0  0  0  0
  -16.7267  -28.6463   23.0312 C   0  0  0  0  0  0
  -26.4486  -31.6560   25.0704 C   0  0  0  0  0  0
  -25.3736  -31.3670   26.1458 C   0  0  0  0  0  0
  -27.0386  -30.3027   24.6089 C   0  0  0  0  0  0
  -27.6026  -32.4312   25.7492 C   0  0  0  0  0  0
  -27.5537  -37.1781   24.8465 C   0  0  0  0  0  0
  -21.4130  -29.3002   22.3749 N   0  0  0  0  0  0
  -26.4247  -37.3765   23.9402 N   0  0  0  0  0  0
  -24.6643  -31.0774   22.0995 N   0  0  0  0  0  0
  -23.4196  -28.8160   23.2981 O   0  0  0  0  0  0
  -28.3663  -26.6411   19.9966 O   0  0  0  0  0  0
  -26.5559  -34.8911   22.4638 O   0  0  0  0  0  0
  -23.5342  -32.1399   23.7510 O   0  0  0  0  0  0
  -32.9266  -20.3706   20.5849 C   0  0  0  0  0  0
  -30.7438  -20.2998   20.6490 C   0  0  0  0  0  0
  -31.7747  -21.2008   20.7143 C   0  0  0  0  0  0
  -32.3728  -23.2938   19.5570 C   0  0  0  0  0  0
  -30.2283  -17.6803   22.8012 C   0  0  0  0  0  0
  -29.1745  -17.9466   19.7206 C   0  0  0  0  0  0
  -30.0572  -15.5096   21.5206 C   0  0  0  0  0  0
  -30.2142  -24.7896   21.5450 C   0  0  0  0  0  0
  -30.5793  -25.8401   20.4618 C   0  0  0  0  0  0
  -30.3677  -23.2877   21.1704 C   0  0  0  0  0  0
  -29.6520  -27.0778   20.4273 C   0  0  0  0  0  0
  -31.7778  -22.7163   20.8545 C   0  0  1  0  0  0
  -30.7260  -16.9088   21.5608 C   0  0  1  0  0  0
  -30.6130  -17.7509   20.2487 C   0  0  2  0  0  0
  -32.6312  -19.0933   20.3888 N   0  0  0  0  0  0
  -31.2817  -19.0451   20.4021 N   0  0  0  0  0  0
  -31.4728  -12.4111   19.0968 H   0  0  0  0  0  0
  -30.3360  -11.2882   19.7887 H   0  0  0  0  0  0
  -29.7303  -11.7935   17.4063 H   0  0  0  0  0  0
  -29.6607  -13.5017   17.7632 H   0  0  0  0  0  0
  -27.8220  -11.3140   18.7962 H   0  0  0  0  0  0
  -27.3619  -12.6562   17.7819 H   0  0  0  0  0  0
  -27.7183  -14.2512   19.5863 H   0  0  0  0  0  0
  -28.6894  -11.9198   21.3138 H   0  0  0  0  0  0
  -28.4660  -13.5388   21.8748 H   0  0  0  0  0  0
  -25.2767   -9.5699   22.4776 H   0  0  0  0  0  0
  -24.0010   -7.4657   22.7501 H   0  0  0  0  0  0
  -21.0859   -8.8784   19.8955 H   0  0  0  0  0  0
  -22.3729  -10.9680   19.6170 H   0  0  0  0  0  0
  -21.1993   -7.6157   23.9719 H   0  0  0  0  0  0
  -21.1466   -6.0533   25.9071 H   0  0  0  0  0  0
  -22.0604   -2.7628   23.2841 H   0  0  0  0  0  0
  -22.4117  -11.9895   22.4726 H   0  0  0  0  0  0
  -21.1141  -13.1292   22.2524 H   0  0  0  0  0  0
  -24.6797  -15.8473   20.5314 H   0  0  0  0  0  0
  -26.2993  -15.6250   20.1031 H   0  0  0  0  0  0
  -26.7138  -32.5528   23.1123 H   0  0  0  0  0  0
  -25.0201  -33.9736   25.0520 H   0  0  0  0  0  0
  -22.6824  -31.3074   21.4148 H   0  0  0  0  0  0
  -23.3716  -35.9655   23.3311 H   0  0  0  0  0  0
  -24.3585  -36.8905   22.2045 H   0  0  0  0  0  0
  -23.7297  -37.6516   23.6660 H   0  0  0  0  0  0
  -26.0325  -31.5997   20.5881 H   0  0  0  0  0  0
  -26.8190  -30.8933   21.9761 H   0  0  0  0  0  0
  -28.1069  -29.1565   21.1364 H   0  0  0  0  0  0
  -26.0787  -25.9661   19.0547 H   0  0  0  0  0  0
  -23.9859  -27.2784   19.0545 H   0  0  0  0  0  0
  -23.7118  -30.6052   19.4080 H   0  0  0  0  0  0
  -22.7302  -29.2481   19.8666 H   0  0  0  0  0  0
  -25.1259  -36.1872   25.0827 H   0  0  0  0  0  0
  -20.9939  -28.3178   24.1424 H   0  0  0  0  0  0
  -20.5628  -26.2233   23.3539 H   0  0  0  0  0  0
  -21.6629  -26.7367   22.1193 H   0  0  0  0  0  0
  -19.6880  -25.6258   21.1214 H   0  0  0  0  0  0
  -19.6682  -27.3168   20.6699 H   0  0  0  0  0  0
  -17.4170  -26.6631   21.4018 H   0  0  0  0  0  0
  -18.0342  -25.9982   22.8962 H   0  0  0  0  0  0
  -19.7947  -30.7283   24.2158 H   0  0  0  0  0  0
  -17.5026  -31.6226   24.5157 H   0  0  0  0  0  0
  -15.5355  -30.2927   23.7695 H   0  0  0  0  0  0
  -15.8673  -28.0854   22.6908 H   0  0  0  0  0  0
  -24.5917  -30.7008   25.7804 H   0  0  0  0  0  0
  -24.8933  -32.2844   26.4866 H   0  0  0  0  0  0
  -25.8093  -30.8866   27.0238 H   0  0  0  0  0  0
  -26.2973  -29.6749   24.1155 H   0  0  0  0  0  0
  -27.4216  -29.7296   25.4535 H   0  0  0  0  0  0
  -27.8747  -30.4374   23.9229 H   0  0  0  0  0  0
  -27.2601  -33.3625   26.2011 H   0  0  0  0  0  0
  -28.3878  -32.6854   25.0358 H   0  0  0  0  0  0
  -28.0652  -31.8491   26.5466 H   0  0  0  0  0  0
  -28.2520  -38.0107   24.7503 H   0  0  0  0  0  0
  -28.1086  -36.2627   24.6298 H   0  0  0  0  0  0
  -27.2300  -37.1462   25.8895 H   0  0  0  0  0  0
  -20.9270  -29.8791   21.7062 H   0  0  0  0  0  0
  -26.0117  -38.2840   24.1429 H   0  0  0  0  0  0
  -33.9667  -20.6672   20.6018 H   0  0  0  0  0  0
  -29.6754  -20.4435   20.7386 H   0  0  0  0  0  0
  -33.2649  -22.7450   19.2519 H   0  0  0  0  0  0
  -32.6853  -24.3294   19.6798 H   0  0  0  0  0  0
  -31.6601  -23.2371   18.7294 H   0  0  0  0  0  0
  -30.3995  -17.1027   23.7096 H   0  0  0  0  0  0
  -29.1605  -17.8905   22.7358 H   0  0  0  0  0  0
  -30.7502  -18.6281   22.9304 H   0  0  0  0  0  0
  -28.7357  -17.0120   19.3759 H   0  0  0  0  0  0
  -29.1747  -18.6240   18.8632 H   0  0  0  0  0  0
  -28.5105  -18.3735   20.4741 H   0  0  0  0  0  0
  -29.0121  -15.6328   21.2382 H   0  0  0  0  0  0
  -30.0541  -15.0968   22.5290 H   0  0  0  0  0  0
  -29.1625  -24.9230   21.7986 H   0  0  0  0  0  0
  -30.7494  -25.0131   22.4686 H   0  0  0  0  0  0
  -30.5823  -25.3809   19.4746 H   0  0  0  0  0  0
  -31.6020  -26.1793   20.6375 H   0  0  0  0  0  0
  -29.6954  -23.0584   20.3430 H   0  0  0  0  0  0
  -29.9750  -22.7297   22.0241 H   0  0  0  0  0  0
  -30.0471  -27.7994   19.7065 H   0  0  0  0  0  0
  -29.6360  -27.5570   21.4061 H   0  0  0  0  0  0
  -32.4404  -22.9882   21.6773 H   0  0  0  0  0  0
  -31.7931  -16.7420   21.7235 H   0  0  0  0  0  0
  -31.1521  -17.2264   19.4574 H   0  0  0  0  0  0
  1 25  1  0  0  0
  1 30  2  0  0  0
  1 77  1  0  0  0
  2  3  1  0  0  0
  2 25  1  0  0  0
  2 87  1  0  0  0
  2 88  1  0  0  0
  3  4  1  0  0  0
  3 89  1  0  0  0
  3 90  1  0  0  0
  4  5  1  0  0  0
  4 91  1  0  0  0
  4 92  1  0  0  0
  5  6  1  0  0  0
  5 26  1  0  0  0
  5 93  1  0  0  0
  6 25  1  0  0  0
  6 94  1  0  0  0
  6 95  1  0  0  0
  7  8  2  0  0  0
  7 26  1  0  0  0
  7 29  1  0  0  0
  8  9  1  0  0  0
  8 22  1  0  0  0
  9 10  1  0  0  0
  9 27  2  0  0  0
 10 11  2  0  0  0
 10 15  1  0  0  0
 11 12  1  0  0  0
 11 96  1  0  0  0
 12 13  2  0  0  0
 12 97  1  0  0  0
 13 14  1  0  0  0
 13 31  1  0  0  0
 14 15  2  0  0  0
 14 98  1  0  0  0
 15 99  1  0  0  0
 16 17  2  0  0  0
 16 21  1  0  0  0
 16 31  1  0  0  0
 17 18  1  0  0  0
 17100  1  0  0  0
 18 19  2  0  0  0
 18101  1  0  0  0
 19 20  1  0  0  0
 19 24  1  0  0  0
 20 21  2  0  0  0
 20102  1  0  0  0
 21 23  1  0  0  0
 22 28  1  0  0  0
 22 32  2  0  0  0
 26 27  1  0  0  0
 28103  1  0  0  0
 28104  1  0  0  0
 29105  1  0  0  0
 29106  1  0  0  0
 33 34  1  0  0  0
 33 66  1  0  0  0
 33 70  2  0  0  0
 34 36  1  0  0  0
 34 59  1  0  0  0
 34107  1  0  0  0
 35 44  2  0  0  0
 35 45  1  0  0  0
 35 68  1  0  0  0
 36 56  1  0  0  0
 36108  1  0  0  0
 37 39  1  0  0  0
 37 47  1  0  0  0
 37 66  1  0  0  0
 37109  1  0  0  0
 38 43  2  0  0  0
 38 46  1  0  0  0
 38 47  1  0  0  0
 39 64  1  0  0  0
 39 67  2  0  0  0
 40 52  1  0  0  0
 40 53  2  0  0  0
 40 58  1  0  0  0
 41110  1  0  0  0
 41111  1  0  0  0
 41112  1  0  0  0
 41 48  1  0  0  0
 42 43  1  0  0  0
 42 66  1  0  0  0
 42113  1  0  0  0
 42114  1  0  0  0
 43 44  1  0  0  0
 44115  1  0  0  0
 45 46  2  0  0  0
 45116  1  0  0  0
 46117  1  0  0  0
 47118  1  0  0  0
 47119  1  0  0  0
 48 56  1  0  0  0
 48 65  1  0  0  0
 48120  1  0  0  0
 49 50  1  0  0  0
 49 53  1  0  0  0
 49 64  1  0  0  0
 49121  1  0  0  0
 50 51  1  0  0  0
 50122  1  0  0  0
 50123  1  0  0  0
 51 52  1  0  0  0
 51124  1  0  0  0
 51125  1  0  0  0
 52126  1  0  0  0
 52127  1  0  0  0
 53 54  1  0  0  0
 54 55  2  0  0  0
 54128  1  0  0  0
 55 57  1  0  0  0
 55129  1  0  0  0
 56 69  2  0  0  0
 57 58  2  0  0  0
 57130  1  0  0  0
 58131  1  0  0  0
 59 60  1  0  0  0
 59 61  1  0  0  0
 59 62  1  0  0  0
 60132  1  0  0  0
 60133  1  0  0  0
 60134  1  0  0  0
 61135  1  0  0  0
 61136  1  0  0  0
 61137  1  0  0  0
 62138  1  0  0  0
 62139  1  0  0  0
 62140  1  0  0  0
 63 65  1  0  0  0
 63141  1  0  0  0
 63142  1  0  0  0
 63143  1  0  0  0
 64144  1  0  0  0
 65145  1  0  0  0
 68 81  1  0  0  0
 71 73  1  0  0  0
 71 85  2  0  0  0
 71146  1  0  0  0
 72 73  2  0  0  0
 72 86  1  0  0  0
 72147  1  0  0  0
 73 82  1  0  0  0
 74148  1  0  0  0
 74149  1  0  0  0
 74150  1  0  0  0
 74 82  1  0  0  0
 75151  1  0  0  0
 75152  1  0  0  0
 75153  1  0  0  0
 75 83  1  0  0  0
 76154  1  0  0  0
 76155  1  0  0  0
 76156  1  0  0  0
 76 84  1  0  0  0
 77 83  1  0  0  0
 77157  1  0  0  0
 77158  1  0  0  0
 78 79  1  0  0  0
 78 80  1  0  0  0
 78159  1  0  0  0
 78160  1  0  0  0
 79 81  1  0  0  0
 79161  1  0  0  0
 79162  1  0  0  0
 80 82  1  0  0  0
 80163  1  0  0  0
 80164  1  0  0  0
 81165  1  0  0  0
 81166  1  0  0  0
 82167  1  0  0  0
 83 84  1  0  0  0
 83168  1  0  0  0
 84 86  1  0  0  0
 84169  1  0  0  0
 85 86  1  0  0  0
M  ISO  4   1 100  68 101  77 100  81 101
M  END
> <chiral flag>
0

> <version>
0

> <s_m_source_file>
/data/baiqing/PycharmProjects/Reinvent-master-3.2/result/LINK_invent/BTK/process_docking_weight1_custom_sum_contain_oxygen_bond_distance_aromatic_linkinvent_7_9_3/rearranged_h_0073.sdf

> <i_m_source_file_index>
12

> <r_mmod_Potential_Energy-OPLS-2005>
-22.7070827484131

> <r_mmod_Stretch_Energy-OPLS-2005>
36.8231925964355

> <r_mmod_Bend_Energy-OPLS-2005>
119.186294555664

> <r_mmod_Torsional_Energy-OPLS-2005>
198.826171875

> <r_mmod_Improper_Torsional_Energy-OPLS-2005>
1.95348763465881

> <r_mmod_Van_der_Waal_Energy-OPLS-2005>
129.118270874023

> <r_mmod_Electrostatic_Energy-OPLS-2005>
-315.515075683594

> <r_mmod_Solvation_Energy-OPLS-2005>
-202.284164428711

> <b_mmod_Minimization_Converged-OPLS-2005>
0

> <r_mmod_RMS_Derivative-OPLS-2005>
5.00344276428223

$$$$
12
                    3D
 Structure written by MMmdl.
162170  0  0  1  0            999 V2000
  -30.6121  -14.8222   20.4935 C   0  0  0  0  0  0
  -30.4599  -12.5133   19.4802 C   0  0  0  0  0  0
  -29.5242  -12.5168   18.2479 C   0  0  0  0  0  0
  -28.0574  -12.2815   18.6632 C   0  0  0  0  0  0
  -27.6448  -13.1836   19.8485 C   0  0  2  0  0  0
  -28.7043  -13.1414   20.9837 C   0  0  0  0  0  0
  -25.2472  -13.7995   20.5544 C   0  0  0  0  0  0
  -24.1791  -13.0304   20.9195 C   0  0  0  0  0  0
  -24.6371  -11.6796   20.8811 C   0  0  0  0  0  0
  -23.9063  -10.4221   21.0484 C   0  0  0  0  0  0
  -24.3639   -9.4129   21.9226 C   0  0  0  0  0  0
  -23.6296   -8.2189   22.0769 C   0  0  0  0  0  0
  -22.4264   -8.0285   21.3575 C   0  0  0  0  0  0
  -21.9944   -9.0235   20.4642 C   0  0  0  0  0  0
  -22.7274  -10.2092   20.3090 C   0  0  0  0  0  0
  -21.6811   -6.0755   22.5305 C   0  0  0  0  0  0
  -21.3984   -6.5652   23.8235 C   0  0  0  0  0  0
  -21.3667   -5.6811   24.9197 C   0  0  0  0  0  0
  -21.6056   -4.3079   24.7262 C   0  0  0  0  0  0
  -21.8811   -3.8179   23.4376 C   0  0  0  0  0  0
  -21.9162   -4.6990   22.3430 C   0  0  0  0  0  0
  -22.7819  -13.5114   21.1861 C   0  0  0  0  0  0
  -22.1624   -4.2174   21.1005 F   0  0  0  0  0  0
  -21.5657   -3.4563   25.7777 F   0  0  0  0  0  0
  -29.9961  -13.5742   20.4160 N   0  0  0  0  0  0
  -26.2936  -12.9153   20.3265 N   0  0  0  0  0  0
  -25.9301  -11.6352   20.5828 N   0  0  0  0  0  0
  -22.0478  -12.8164   22.0452 N   0  0  0  0  0  0
  -25.3968  -15.1692   20.3670 N   0  0  0  0  0  0
  -31.7779  -14.8909   20.0940 O   0  0  0  0  0  0
  -21.6604   -6.8897   21.4273 O   0  0  0  0  0  0
  -22.3501  -14.5428   20.6684 O   0  0  0  0  0  0
  -24.6368  -31.8517   23.1942 C   0  0  0  0  0  0
  -25.9154  -32.4729   23.8318 C   0  0  1  0  0  0
  -27.2253  -27.2094   20.1093 C   0  0  0  0  0  0
  -25.5916  -33.8533   24.2232 N   0  0  0  0  0  0
  -23.4365  -30.4766   21.5399 C   0  0  2  0  0  0
  -24.8813  -28.9197   20.1129 C   0  0  0  0  0  0
  -22.7527  -29.4601   22.4878 C   0  0  0  0  0  0
  -18.0302  -28.1381   22.8482 C   0  0  0  0  0  0
  -24.1501  -36.7282   23.2641 C   0  0  0  0  0  0
  -25.9908  -30.7435   21.3887 C   0  0  0  0  0  0
  -26.0581  -29.3647   20.7242 C   0  0  0  0  0  0
  -27.2236  -28.5229   20.7113 C   0  0  0  0  0  0
  -26.0058  -26.8509   19.4847 C   0  0  0  0  0  0
  -24.8638  -27.6708   19.4853 C   0  0  0  0  0  0
  -23.6576  -29.8129   20.1572 C   0  0  0  0  0  0
  -25.4120  -36.3058   24.0325 C   0  0  1  0  0  0
  -20.5902  -28.3708   23.1257 C   0  0  2  0  0  0
  -20.6797  -26.9426   22.5398 C   0  0  0  0  0  0
  -19.5762  -26.6384   21.5207 C   0  0  0  0  0  0
  -18.1941  -26.7932   22.1619 C   0  0  0  0  0  0
  -19.1551  -28.8857   23.2873 C   0  0  0  0  0  0
  -18.9469  -30.1454   23.8896 C   0  0  0  0  0  0
  -17.6461  -30.6594   24.0547 C   0  0  0  0  0  0
  -25.9068  -34.9434   23.5091 C   0  0  0  0  0  0
  -16.5355  -29.9080   23.6319 C   0  0  0  0  0  0
  -16.7281  -28.6483   23.0380 C   0  0  0  0  0  0
  -26.4491  -31.6579   25.0739 C   0  0  0  0  0  0
  -25.3698  -31.3755   26.1451 C   0  0  0  0  0  0
  -27.0352  -30.2986   24.6287 C   0  0  0  0  0  0
  -27.6041  -32.4346   25.7498 C   0  0  0  0  0  0
  -27.5593  -37.1785   24.8451 C   0  0  0  0  0  0
  -21.4226  -29.3050   22.3636 N   0  0  0  0  0  0
  -26.4294  -37.3753   23.9412 N   0  0  0  0  0  0
  -24.7074  -31.0439   22.0949 N   0  0  0  0  0  0
  -23.4202  -28.8125   23.2992 O   0  0  0  0  0  0
  -28.3672  -26.3453   20.1789 O   0  0  0  0  0  0
  -26.5650  -34.8901   22.4664 O   0  0  0  0  0  0
  -23.5499  -32.1357   23.7218 O   0  0  0  0  0  0
  -31.3088  -17.9513   19.3768 C   0  0  0  0  0  0
  -30.4109  -17.6481   20.4400 C   0  0  0  0  0  0
  -28.4251  -16.2762   20.5950 C   0  0  0  0  0  0
  -30.0280  -16.2479   22.5337 C   0  0  0  0  0  0
  -27.4999  -24.2326   18.8464 C   0  0  0  0  0  0
  -29.8229  -25.0627   18.8230 C   0  0  0  0  0  0
  -29.0395  -22.1456   20.6502 C   0  0  0  0  0  0
  -28.9976  -23.7821   20.8405 C   0  0  0  0  0  0
  -30.2575  -21.3439   19.9670 C   0  0  0  0  0  0
  -29.9106  -16.2301   20.9941 C   0  0  0  0  0  0
  -28.5845  -24.8893   19.7191 C   0  0  0  0  0  0
  -31.3274  -19.2446   19.1044 N   0  0  0  0  0  0
  -29.9142  -18.8451   20.8346 N   0  0  0  0  0  0
  -30.4366  -19.8096   19.9763 N   0  0  0  0  0  0
  -31.4893  -12.6651   19.1555 H   0  0  0  0  0  0
  -30.4590  -11.5409   19.9748 H   0  0  0  0  0  0
  -29.8455  -11.7608   17.5316 H   0  0  0  0  0  0
  -29.6059  -13.4757   17.7387 H   0  0  0  0  0  0
  -27.9573  -11.2325   18.9441 H   0  0  0  0  0  0
  -27.3911  -12.4389   17.8139 H   0  0  0  0  0  0
  -27.6128  -14.1659   19.3992 H   0  0  0  0  0  0
  -28.7813  -12.1233   21.3707 H   0  0  0  0  0  0
  -28.4196  -13.7339   21.8513 H   0  0  0  0  0  0
  -25.2801   -9.5560   22.4780 H   0  0  0  0  0  0
  -24.0021   -7.4539   22.7466 H   0  0  0  0  0  0
  -21.0893   -8.8747   19.8905 H   0  0  0  0  0  0
  -22.3778  -10.9656   19.6208 H   0  0  0  0  0  0
  -21.1965   -7.6148   23.9760 H   0  0  0  0  0  0
  -21.1504   -6.0527   25.9093 H   0  0  0  0  0  0
  -22.0593   -2.7655   23.2850 H   0  0  0  0  0  0
  -22.4089  -11.9842   22.4873 H   0  0  0  0  0  0
  -21.1061  -13.1159   22.2622 H   0  0  0  0  0  0
  -24.6184  -15.8136   20.4582 H   0  0  0  0  0  0
  -26.2368  -15.6102   20.0187 H   0  0  0  0  0  0
  -26.7216  -32.5350   23.1056 H   0  0  0  0  0  0
  -24.9998  -33.9655   25.0337 H   0  0  0  0  0  0
  -22.7357  -31.3016   21.3915 H   0  0  0  0  0  0
  -23.3765  -35.9613   23.3279 H   0  0  0  0  0  0
  -24.3592  -36.8934   22.2063 H   0  0  0  0  0  0
  -23.7276  -37.6476   23.6685 H   0  0  0  0  0  0
  -26.1506  -31.5043   20.6239 H   0  0  0  0  0  0
  -26.8595  -30.7798   22.0338 H   0  0  0  0  0  0
  -28.1259  -28.8615   21.2015 H   0  0  0  0  0  0
  -25.8420  -25.9203   18.9892 H   0  0  0  0  0  0
  -23.9623  -27.3210   19.0025 H   0  0  0  0  0  0
  -23.7906  -30.5893   19.4031 H   0  0  0  0  0  0
  -22.7722  -29.2549   19.8462 H   0  0  0  0  0  0
  -25.1317  -36.1885   25.0817 H   0  0  0  0  0  0
  -21.0001  -28.3287   24.1367 H   0  0  0  0  0  0
  -20.5702  -26.2309   23.3601 H   0  0  0  0  0  0
  -21.6667  -26.7441   22.1184 H   0  0  0  0  0  0
  -19.6932  -25.6285   21.1254 H   0  0  0  0  0  0
  -19.6708  -27.3176   20.6721 H   0  0  0  0  0  0
  -17.4211  -26.6669   21.4025 H   0  0  0  0  0  0
  -18.0346  -26.0072   22.9013 H   0  0  0  0  0  0
  -19.7933  -30.7266   24.2296 H   0  0  0  0  0  0
  -17.5010  -31.6280   24.5137 H   0  0  0  0  0  0
  -15.5359  -30.2983   23.7647 H   0  0  0  0  0  0
  -15.8681  -28.0792   22.7133 H   0  0  0  0  0  0
  -24.5811  -30.7185   25.7756 H   0  0  0  0  0  0
  -24.8954  -32.2937   26.4924 H   0  0  0  0  0  0
  -25.7978  -30.8856   27.0207 H   0  0  0  0  0  0
  -26.2949  -29.6718   24.1289 H   0  0  0  0  0  0
  -27.3973  -29.7273   25.4846 H   0  0  0  0  0  0
  -27.8861  -30.4242   23.9593 H   0  0  0  0  0  0
  -27.2614  -33.3611   26.2125 H   0  0  0  0  0  0
  -28.3796  -32.6979   25.0293 H   0  0  0  0  0  0
  -28.0772  -31.8456   26.5370 H   0  0  0  0  0  0
  -28.2577  -38.0113   24.7519 H   0  0  0  0  0  0
  -28.1129  -36.2640   24.6249 H   0  0  0  0  0  0
  -27.2305  -37.1398   25.8850 H   0  0  0  0  0  0
  -20.9421  -29.8782   21.6842 H   0  0  0  0  0  0
  -26.0174  -38.2821   24.1406 H   0  0  0  0  0  0
  -31.9067  -17.2564   18.7982 H   0  0  0  0  0  0
  -27.9622  -17.2415   20.7954 H   0  0  0  0  0  0
  -27.8189  -15.5872   21.1634 H   0  0  0  0  0  0
  -28.3161  -16.1221   19.5217 H   0  0  0  0  0  0
  -29.3836  -17.0099   22.9717 H   0  0  0  0  0  0
  -31.0483  -16.4630   22.8533 H   0  0  0  0  0  0
  -29.7410  -15.2967   22.9821 H   0  0  0  0  0  0
  -27.8393  -23.2774   18.4500 H   0  0  0  0  0  0
  -27.2625  -24.8257   17.9655 H   0  0  0  0  0  0
  -26.5993  -24.0115   19.4191 H   0  0  0  0  0  0
  -29.6421  -25.7832   18.0254 H   0  0  0  0  0  0
  -30.1183  -24.1239   18.3560 H   0  0  0  0  0  0
  -30.6755  -25.4212   19.3998 H   0  0  0  0  0  0
  -28.1009  -21.8043   20.2196 H   0  0  0  0  0  0
  -29.0042  -21.7457   21.6637 H   0  0  0  0  0  0
  -29.9470  -24.0804   21.2860 H   0  0  0  0  0  0
  -28.2786  -23.9447   21.6468 H   0  0  0  0  0  0
  -31.1895  -21.7629   20.3466 H   0  0  0  0  0  0
  -30.2386  -21.6342   18.9145 H   0  0  0  0  0  0
  1 25  1  0  0  0
  1 30  2  0  0  0
  1 80  1  0  0  0
  2  3  1  0  0  0
  2 25  1  0  0  0
  2 85  1  0  0  0
  2 86  1  0  0  0
  3  4  1  0  0  0
  3 87  1  0  0  0
  3 88  1  0  0  0
  4  5  1  0  0  0
  4 89  1  0  0  0
  4 90  1  0  0  0
  5  6  1  0  0  0
  5 26  1  0  0  0
  5 91  1  0  0  0
  6 25  1  0  0  0
  6 92  1  0  0  0
  6 93  1  0  0  0
  7  8  2  0  0  0
  7 26  1  0  0  0
  7 29  1  0  0  0
  8  9  1  0  0  0
  8 22  1  0  0  0
  9 10  1  0  0  0
  9 27  2  0  0  0
 10 11  2  0  0  0
 10 15  1  0  0  0
 11 12  1  0  0  0
 11 94  1  0  0  0
 12 13  2  0  0  0
 12 95  1  0  0  0
 13 14  1  0  0  0
 13 31  1  0  0  0
 14 15  2  0  0  0
 14 96  1  0  0  0
 15 97  1  0  0  0
 16 17  2  0  0  0
 16 21  1  0  0  0
 16 31  1  0  0  0
 17 18  1  0  0  0
 17 98  1  0  0  0
 18 19  2  0  0  0
 18 99  1  0  0  0
 19 20  1  0  0  0
 19 24  1  0  0  0
 20 21  2  0  0  0
 20100  1  0  0  0
 21 23  1  0  0  0
 22 28  1  0  0  0
 22 32  2  0  0  0
 26 27  1  0  0  0
 28101  1  0  0  0
 28102  1  0  0  0
 29103  1  0  0  0
 29104  1  0  0  0
 33 34  1  0  0  0
 33 66  1  0  0  0
 33 70  2  0  0  0
 34 36  1  0  0  0
 34 59  1  0  0  0
 34105  1  0  0  0
 35 44  2  0  0  0
 35 45  1  0  0  0
 35 68  1  0  0  0
 36 56  1  0  0  0
 36106  1  0  0  0
 37 39  1  0  0  0
 37 47  1  0  0  0
 37 66  1  0  0  0
 37107  1  0  0  0
 38 43  2  0  0  0
 38 46  1  0  0  0
 38 47  1  0  0  0
 39 64  1  0  0  0
 39 67  2  0  0  0
 40 52  1  0  0  0
 40 53  2  0  0  0
 40 58  1  0  0  0
 41108  1  0  0  0
 41109  1  0  0  0
 41110  1  0  0  0
 41 48  1  0  0  0
 42 43  1  0  0  0
 42 66  1  0  0  0
 42111  1  0  0  0
 42112  1  0  0  0
 43 44  1  0  0  0
 44113  1  0  0  0
 45 46  2  0  0  0
 45114  1  0  0  0
 46115  1  0  0  0
 47116  1  0  0  0
 47117  1  0  0  0
 48 56  1  0  0  0
 48 65  1  0  0  0
 48118  1  0  0  0
 49 50  1  0  0  0
 49 53  1  0  0  0
 49 64  1  0  0  0
 49119  1  0  0  0
 50 51  1  0  0  0
 50120  1  0  0  0
 50121  1  0  0  0
 51 52  1  0  0  0
 51122  1  0  0  0
 51123  1  0  0  0
 52124  1  0  0  0
 52125  1  0  0  0
 53 54  1  0  0  0
 54 55  2  0  0  0
 54126  1  0  0  0
 55 57  1  0  0  0
 55127  1  0  0  0
 56 69  2  0  0  0
 57 58  2  0  0  0
 57128  1  0  0  0
 58129  1  0  0  0
 59 60  1  0  0  0
 59 61  1  0  0  0
 59 62  1  0  0  0
 60130  1  0  0  0
 60131  1  0  0  0
 60132  1  0  0  0
 61133  1  0  0  0
 61134  1  0  0  0
 61135  1  0  0  0
 62136  1  0  0  0
 62137  1  0  0  0
 62138  1  0  0  0
 63 65  1  0  0  0
 63139  1  0  0  0
 63140  1  0  0  0
 63141  1  0  0  0
 64142  1  0  0  0
 65143  1  0  0  0
 68 81  1  0  0  0
 71 72  1  0  0  0
 71 82  2  0  0  0
 71144  1  0  0  0
 72 80  1  0  0  0
 72 83  2  0  0  0
 73145  1  0  0  0
 73146  1  0  0  0
 73147  1  0  0  0
 73 80  1  0  0  0
 74 80  1  0  0  0
 74148  1  0  0  0
 74149  1  0  0  0
 74150  1  0  0  0
 75151  1  0  0  0
 75152  1  0  0  0
 75153  1  0  0  0
 75 81  1  0  0  0
 76 81  1  0  0  0
 76154  1  0  0  0
 76155  1  0  0  0
 76156  1  0  0  0
 77 78  1  0  0  0
 77 79  1  0  0  0
 77157  1  0  0  0
 77158  1  0  0  0
 78 81  1  0  0  0
 78159  1  0  0  0
 78160  1  0  0  0
 79 84  1  0  0  0
 79161  1  0  0  0
 79162  1  0  0  0
 82 84  1  0  0  0
 83 84  1  0  0  0
M  ISO  4   1 100  68 101  80 100  81 101
M  END
> <chiral flag>
0

> <version>
0

> <s_m_source_file>
/data/baiqing/PycharmProjects/Reinvent-master-3.2/result/LINK_invent/BTK/process_docking_weight1_custom_sum_contain_oxygen_bond_distance_aromatic_linkinvent_7_9_3/rearranged_h_0073.sdf

> <i_m_source_file_index>
13

> <r_mmod_Potential_Energy-OPLS-2005>
396.932098388672

> <r_mmod_Stretch_Energy-OPLS-2005>
172.540573120117

> <r_mmod_Bend_Energy-OPLS-2005>
290.5810546875

> <r_mmod_Torsional_Energy-OPLS-2005>
198.727249145508

> <r_mmod_Improper_Torsional_Energy-OPLS-2005>
2.88062381744385

> <r_mmod_Van_der_Waal_Energy-OPLS-2005>
139.059234619141

> <r_mmod_Electrostatic_Energy-OPLS-2005>
-327.103057861328

> <r_mmod_Solvation_Energy-OPLS-2005>
-188.408462524414

> <b_mmod_Minimization_Converged-OPLS-2005>
0

> <r_mmod_RMS_Derivative-OPLS-2005>
5.10401916503906

$$$$
13
                    3D
 Structure written by MMmdl.
166174  0  0  1  0            999 V2000
  -30.7421  -14.4453   20.4911 C   0  0  0  0  0  0
  -30.4105  -12.2615   19.4473 C   0  0  0  0  0  0
  -29.4944  -12.4400   18.2213 C   0  0  0  0  0  0
  -28.0127  -12.3418   18.6302 C   0  0  0  0  0  0
  -27.6604  -13.2094   19.8695 C   0  0  2  0  0  0
  -28.7061  -13.0413   20.9978 C   0  0  0  0  0  0
  -25.2612  -13.8193   20.5672 C   0  0  0  0  0  0
  -24.1852  -13.0496   20.9150 C   0  0  0  0  0  0
  -24.6382  -11.6940   20.8731 C   0  0  0  0  0  0
  -23.9049  -10.4328   21.0427 C   0  0  0  0  0  0
  -24.3625   -9.4228   21.9171 C   0  0  0  0  0  0
  -23.6291   -8.2270   22.0754 C   0  0  0  0  0  0
  -22.4261   -8.0321   21.3557 C   0  0  0  0  0  0
  -21.9886   -9.0296   20.4660 C   0  0  0  0  0  0
  -22.7229  -10.2157   20.3065 C   0  0  0  0  0  0
  -21.6864   -6.0753   22.5281 C   0  0  0  0  0  0
  -21.4022   -6.5651   23.8200 C   0  0  0  0  0  0
  -21.3639   -5.6799   24.9154 C   0  0  0  0  0  0
  -21.6040   -4.3062   24.7206 C   0  0  0  0  0  0
  -21.8824   -3.8153   23.4325 C   0  0  0  0  0  0
  -21.9199   -4.6977   22.3391 C   0  0  0  0  0  0
  -22.7883  -13.5300   21.1826 C   0  0  0  0  0  0
  -22.1681   -4.2174   21.0961 F   0  0  0  0  0  0
  -21.5565   -3.4532   25.7699 F   0  0  0  0  0  0
  -30.0372  -13.2893   20.4292 N   0  0  0  0  0  0
  -26.3035  -12.9367   20.3357 N   0  0  0  0  0  0
  -25.9322  -11.6528   20.5798 N   0  0  0  0  0  0
  -22.0558  -12.8258   22.0353 N   0  0  0  0  0  0
  -25.4377  -15.1917   20.4082 N   0  0  0  0  0  0
  -31.9322  -14.5175   20.1835 O   0  0  0  0  0  0
  -21.6656   -6.8902   21.4237 O   0  0  0  0  0  0
  -22.3550  -14.5619   20.6703 O   0  0  0  0  0  0
  -24.6117  -31.8685   23.2076 C   0  0  0  0  0  0
  -25.9013  -32.4829   23.8384 C   0  0  1  0  0  0
  -27.2476  -27.4562   20.1018 C   0  0  0  0  0  0
  -25.5862  -33.8631   24.2338 N   0  0  0  0  0  0
  -23.4020  -30.4900   21.5469 C   0  0  2  0  0  0
  -24.8524  -28.9517   20.1193 C   0  0  0  0  0  0
  -22.7382  -29.4666   22.4964 C   0  0  0  0  0  0
  -18.0284  -28.1377   22.8485 C   0  0  0  0  0  0
  -24.1481  -36.7328   23.2637 C   0  0  0  0  0  0
  -25.9264  -30.8421   21.3554 C   0  0  0  0  0  0
  -26.0082  -29.4730   20.7149 C   0  0  0  0  0  0
  -27.2079  -28.7308   20.7064 C   0  0  0  0  0  0
  -26.0798  -26.9478   19.4943 C   0  0  0  0  0  0
  -24.8820  -27.6863   19.5050 C   0  0  0  0  0  0
  -23.6120  -29.8153   20.1638 C   0  0  0  0  0  0
  -25.4095  -36.3121   24.0343 C   0  0  1  0  0  0
  -20.5866  -28.3688   23.1317 C   0  0  2  0  0  0
  -20.6773  -26.9392   22.5465 C   0  0  0  0  0  0
  -19.5765  -26.6329   21.5261 C   0  0  0  0  0  0
  -18.1951  -26.7900   22.1674 C   0  0  0  0  0  0
  -19.1523  -28.8844   23.2899 C   0  0  0  0  0  0
  -18.9434  -30.1468   23.8872 C   0  0  0  0  0  0
  -17.6429  -30.6588   24.0509 C   0  0  0  0  0  0
  -25.9011  -34.9482   23.5132 C   0  0  0  0  0  0
  -16.5326  -29.9069   23.6289 C   0  0  0  0  0  0
  -16.7269  -28.6479   23.0323 C   0  0  0  0  0  0
  -26.4459  -31.6605   25.0702 C   0  0  0  0  0  0
  -25.3744  -31.3699   26.1463 C   0  0  0  0  0  0
  -27.0267  -30.3054   24.6040 C   0  0  0  0  0  0
  -27.6047  -32.4298   25.7467 C   0  0  0  0  0  0
  -27.5582  -37.1817   24.8461 C   0  0  0  0  0  0
  -21.4117  -29.3021   22.3684 N   0  0  0  0  0  0
  -26.4289  -37.3795   23.9401 N   0  0  0  0  0  0
  -24.6663  -31.0800   22.0969 N   0  0  0  0  0  0
  -23.4140  -28.8212   23.3029 O   0  0  0  0  0  0
  -28.4304  -26.7608   20.0524 O   0  0  0  0  0  0
  -26.5571  -34.8926   22.4697 O   0  0  0  0  0  0
  -23.5315  -32.1428   23.7473 O   0  0  0  0  0  0
  -29.9107  -20.2832   19.6368 C   0  0  0  0  0  0
  -28.6672  -20.4566   20.2578 C   0  0  0  0  0  0
  -28.1375  -19.3206   20.9134 C   0  0  0  0  0  0
  -29.8780  -18.0581   20.1285 C   0  0  0  0  0  0
  -26.0668  -20.1635   24.1064 C   0  0  0  0  0  0
  -29.9454  -16.4357   18.2240 C   0  0  0  0  0  0
  -27.9417  -21.7876   20.0826 C   0  0  0  0  0  0
  -26.9090  -19.3790   21.8129 C   0  0  0  0  0  0
  -27.2843  -19.8007   23.2464 C   0  0  0  0  0  0
  -28.6049  -23.0061   20.7486 C   0  0  0  0  0  0
  -28.1478  -24.3112   20.0658 C   0  0  0  0  0  0
  -28.5093  -25.5797   20.8532 C   0  0  0  0  0  0
  -30.3991  -16.7035   19.6754 C   0  0  2  0  0  0
  -30.5132  -19.0894   19.5901 N   0  0  0  0  0  0
  -28.7438  -18.1170   20.8220 N   0  0  0  0  0  0
  -30.0065  -15.5628   20.5104 N   0  0  0  0  0  0
  -31.4579  -12.3203   19.1436 H   0  0  0  0  0  0
  -30.2835  -11.2715   19.8849 H   0  0  0  0  0  0
  -29.7214  -11.6744   17.4790 H   0  0  0  0  0  0
  -29.6792  -13.3995   17.7401 H   0  0  0  0  0  0
  -27.8079  -11.2944   18.8485 H   0  0  0  0  0  0
  -27.3718  -12.6025   17.7871 H   0  0  0  0  0  0
  -27.6929  -14.2486   19.5412 H   0  0  0  0  0  0
  -28.6616  -12.0343   21.4132 H   0  0  0  0  0  0
  -28.4996  -13.7209   21.8245 H   0  0  0  0  0  0
  -25.2790   -9.5693   22.4724 H   0  0  0  0  0  0
  -24.0038   -7.4654   22.7431 H   0  0  0  0  0  0
  -21.0834   -8.8797   19.8941 H   0  0  0  0  0  0
  -22.3696  -10.9707   19.6162 H   0  0  0  0  0  0
  -21.2025   -7.6157   23.9698 H   0  0  0  0  0  0
  -21.1466   -6.0534   25.9060 H   0  0  0  0  0  0
  -22.0625   -2.7632   23.2821 H   0  0  0  0  0  0
  -22.4207  -11.9872   22.4627 H   0  0  0  0  0  0
  -21.1185  -13.1256   22.2608 H   0  0  0  0  0  0
  -24.6710  -15.8481   20.5038 H   0  0  0  0  0  0
  -26.3018  -15.6289   20.1156 H   0  0  0  0  0  0
  -26.7088  -32.5557   23.1164 H   0  0  0  0  0  0
  -25.0013  -33.9803   25.0487 H   0  0  0  0  0  0
  -22.6939  -31.3065   21.3999 H   0  0  0  0  0  0
  -23.3725  -35.9682   23.3316 H   0  0  0  0  0  0
  -24.3587  -36.8909   22.2045 H   0  0  0  0  0  0
  -23.7256  -37.6549   23.6643 H   0  0  0  0  0  0
  -26.0224  -31.5983   20.5749 H   0  0  0  0  0  0
  -26.8221  -30.9136   21.9612 H   0  0  0  0  0  0
  -28.1034  -29.1315   21.1630 H   0  0  0  0  0  0
  -26.1000  -25.9963   18.9865 H   0  0  0  0  0  0
  -23.9971  -27.2795   19.0340 H   0  0  0  0  0  0
  -23.7166  -30.5863   19.3985 H   0  0  0  0  0  0
  -22.7415  -29.2237   19.8732 H   0  0  0  0  0  0
  -25.1289  -36.1989   25.0841 H   0  0  0  0  0  0
  -20.9979  -28.3319   24.1434 H   0  0  0  0  0  0
  -20.5639  -26.2294   23.3693 H   0  0  0  0  0  0
  -21.6654  -26.7393   22.1303 H   0  0  0  0  0  0
  -19.6900  -25.6207   21.1367 H   0  0  0  0  0  0
  -19.6718  -27.3085   20.6750 H   0  0  0  0  0  0
  -17.4231  -26.6585   21.4091 H   0  0  0  0  0  0
  -18.0394  -26.0080   22.9121 H   0  0  0  0  0  0
  -19.7888  -30.7298   24.2247 H   0  0  0  0  0  0
  -17.4959  -31.6285   24.5062 H   0  0  0  0  0  0
  -15.5320  -30.2947   23.7583 H   0  0  0  0  0  0
  -15.8684  -28.0775   22.7039 H   0  0  0  0  0  0
  -24.5929  -30.7032   25.7815 H   0  0  0  0  0  0
  -24.8929  -32.2843   26.4926 H   0  0  0  0  0  0
  -25.8109  -30.8874   27.0214 H   0  0  0  0  0  0
  -26.2792  -29.6819   24.1123 H   0  0  0  0  0  0
  -27.4076  -29.7283   25.4472 H   0  0  0  0  0  0
  -27.8606  -30.4376   23.9145 H   0  0  0  0  0  0
  -27.2695  -33.3579   26.2105 H   0  0  0  0  0  0
  -28.3839  -32.6867   25.0286 H   0  0  0  0  0  0
  -28.0743  -31.8378   26.5332 H   0  0  0  0  0  0
  -28.2613  -38.0101   24.7495 H   0  0  0  0  0  0
  -28.1062  -36.2631   24.6311 H   0  0  0  0  0  0
  -27.2301  -37.1499   25.8864 H   0  0  0  0  0  0
  -20.9260  -29.8666   21.6864 H   0  0  0  0  0  0
  -26.0177  -38.2876   24.1385 H   0  0  0  0  0  0
  -30.3996  -21.0906   19.1146 H   0  0  0  0  0  0
  -26.3795  -20.4391   25.1141 H   0  0  0  0  0  0
  -25.3686  -19.3304   24.1873 H   0  0  0  0  0  0
  -25.5303  -21.0141   23.6865 H   0  0  0  0  0  0
  -30.2389  -17.2533   17.5667 H   0  0  0  0  0  0
  -28.8607  -16.3295   18.1596 H   0  0  0  0  0  0
  -30.4053  -15.5380   17.8163 H   0  0  0  0  0  0
  -26.8957  -21.7362   20.3756 H   0  0  0  0  0  0
  -27.9119  -21.9586   19.0033 H   0  0  0  0  0  0
  -26.4309  -18.4000   21.8392 H   0  0  0  0  0  0
  -26.1550  -20.0426   21.3954 H   0  0  0  0  0  0
  -27.8597  -19.0064   23.7267 H   0  0  0  0  0  0
  -27.9435  -20.6695   23.1987 H   0  0  0  0  0  0
  -29.6914  -22.9459   20.6681 H   0  0  0  0  0  0
  -28.3715  -23.0175   21.8155 H   0  0  0  0  0  0
  -27.0703  -24.2686   19.9148 H   0  0  0  0  0  0
  -28.5937  -24.3628   19.0706 H   0  0  0  0  0  0
  -29.5433  -25.4989   21.1879 H   0  0  0  0  0  0
  -27.8934  -25.6573   21.7531 H   0  0  0  0  0  0
  -31.4870  -16.8125   19.6852 H   0  0  0  0  0  0
  -29.0402  -15.5395   20.7921 H   0  0  0  0  0  0
  1 25  1  0  0  0
  1 30  2  0  0  0
  1 86  1  0  0  0
  2  3  1  0  0  0
  2 25  1  0  0  0
  2 87  1  0  0  0
  2 88  1  0  0  0
  3  4  1  0  0  0
  3 89  1  0  0  0
  3 90  1  0  0  0
  4  5  1  0  0  0
  4 91  1  0  0  0
  4 92  1  0  0  0
  5  6  1  0  0  0
  5 26  1  0  0  0
  5 93  1  0  0  0
  6 25  1  0  0  0
  6 94  1  0  0  0
  6 95  1  0  0  0
  7  8  2  0  0  0
  7 26  1  0  0  0
  7 29  1  0  0  0
  8  9  1  0  0  0
  8 22  1  0  0  0
  9 10  1  0  0  0
  9 27  2  0  0  0
 10 11  2  0  0  0
 10 15  1  0  0  0
 11 12  1  0  0  0
 11 96  1  0  0  0
 12 13  2  0  0  0
 12 97  1  0  0  0
 13 14  1  0  0  0
 13 31  1  0  0  0
 14 15  2  0  0  0
 14 98  1  0  0  0
 15 99  1  0  0  0
 16 17  2  0  0  0
 16 21  1  0  0  0
 16 31  1  0  0  0
 17 18  1  0  0  0
 17100  1  0  0  0
 18 19  2  0  0  0
 18101  1  0  0  0
 19 20  1  0  0  0
 19 24  1  0  0  0
 20 21  2  0  0  0
 20102  1  0  0  0
 21 23  1  0  0  0
 22 28  1  0  0  0
 22 32  2  0  0  0
 26 27  1  0  0  0
 28103  1  0  0  0
 28104  1  0  0  0
 29105  1  0  0  0
 29106  1  0  0  0
 33 34  1  0  0  0
 33 66  1  0  0  0
 33 70  2  0  0  0
 34 36  1  0  0  0
 34 59  1  0  0  0
 34107  1  0  0  0
 35 44  2  0  0  0
 35 45  1  0  0  0
 35 68  1  0  0  0
 36 56  1  0  0  0
 36108  1  0  0  0
 37 39  1  0  0  0
 37 47  1  0  0  0
 37 66  1  0  0  0
 37109  1  0  0  0
 38 43  2  0  0  0
 38 46  1  0  0  0
 38 47  1  0  0  0
 39 64  1  0  0  0
 39 67  2  0  0  0
 40 52  1  0  0  0
 40 53  2  0  0  0
 40 58  1  0  0  0
 41110  1  0  0  0
 41111  1  0  0  0
 41112  1  0  0  0
 41 48  1  0  0  0
 42 43  1  0  0  0
 42 66  1  0  0  0
 42113  1  0  0  0
 42114  1  0  0  0
 43 44  1  0  0  0
 44115  1  0  0  0
 45 46  2  0  0  0
 45116  1  0  0  0
 46117  1  0  0  0
 47118  1  0  0  0
 47119  1  0  0  0
 48 56  1  0  0  0
 48 65  1  0  0  0
 48120  1  0  0  0
 49 50  1  0  0  0
 49 53  1  0  0  0
 49 64  1  0  0  0
 49121  1  0  0  0
 50 51  1  0  0  0
 50122  1  0  0  0
 50123  1  0  0  0
 51 52  1  0  0  0
 51124  1  0  0  0
 51125  1  0  0  0
 52126  1  0  0  0
 52127  1  0  0  0
 53 54  1  0  0  0
 54 55  2  0  0  0
 54128  1  0  0  0
 55 57  1  0  0  0
 55129  1  0  0  0
 56 69  2  0  0  0
 57 58  2  0  0  0
 57130  1  0  0  0
 58131  1  0  0  0
 59 60  1  0  0  0
 59 61  1  0  0  0
 59 62  1  0  0  0
 60132  1  0  0  0
 60133  1  0  0  0
 60134  1  0  0  0
 61135  1  0  0  0
 61136  1  0  0  0
 61137  1  0  0  0
 62138  1  0  0  0
 62139  1  0  0  0
 62140  1  0  0  0
 63 65  1  0  0  0
 63141  1  0  0  0
 63142  1  0  0  0
 63143  1  0  0  0
 64144  1  0  0  0
 65145  1  0  0  0
 68 82  1  0  0  0
 71 72  2  0  0  0
 71 84  1  0  0  0
 71146  1  0  0  0
 72 73  1  0  0  0
 72 77  1  0  0  0
 73 78  1  0  0  0
 73 85  2  0  0  0
 74 83  1  0  0  0
 74 84  2  0  0  0
 74 85  1  0  0  0
 75 79  1  0  0  0
 75147  1  0  0  0
 75148  1  0  0  0
 75149  1  0  0  0
 76150  1  0  0  0
 76151  1  0  0  0
 76152  1  0  0  0
 76 83  1  0  0  0
 77 80  1  0  0  0
 77153  1  0  0  0
 77154  1  0  0  0
 78 79  1  0  0  0
 78155  1  0  0  0
 78156  1  0  0  0
 79157  1  0  0  0
 79158  1  0  0  0
 80 81  1  0  0  0
 80159  1  0  0  0
 80160  1  0  0  0
 81 82  1  0  0  0
 81161  1  0  0  0
 81162  1  0  0  0
 82163  1  0  0  0
 82164  1  0  0  0
 83 86  1  0  0  0
 83165  1  0  0  0
 86166  1  0  0  0
M  ISO  4   1 100  68 101  82 101  86 100
M  END
> <chiral flag>
0

> <version>
0

> <s_m_source_file>
/data/baiqing/PycharmProjects/Reinvent-master-3.2/result/LINK_invent/BTK/process_docking_weight1_custom_sum_contain_oxygen_bond_distance_aromatic_linkinvent_7_9_3/rearranged_h_0073.sdf

> <i_m_source_file_index>
14

> <r_mmod_Potential_Energy-OPLS-2005>
-565.343566894531

> <r_mmod_Stretch_Energy-OPLS-2005>
31.555196762085

> <r_mmod_Bend_Energy-OPLS-2005>
100.645141601562

> <r_mmod_Torsional_Energy-OPLS-2005>
233.62092590332

> <r_mmod_Improper_Torsional_Energy-OPLS-2005>
14.0581216812134

> <r_mmod_Van_der_Waal_Energy-OPLS-2005>
158.51252746582

> <r_mmod_Electrostatic_Energy-OPLS-2005>
-913.438842773438

> <r_mmod_Solvation_Energy-OPLS-2005>
-209.868041992188

> <b_mmod_Minimization_Converged-OPLS-2005>
0

> <r_mmod_RMS_Derivative-OPLS-2005>
4.03060007095337

$$$$
14
                    3D
 Structure written by MMmdl.
173181  0  0  1  0            999 V2000
  -30.6764  -14.5713   20.4414 C   0  0  0  0  0  0
  -30.4213  -12.3348   19.4593 C   0  0  0  0  0  0
  -29.5021  -12.4628   18.2234 C   0  0  0  0  0  0
  -28.0195  -12.3303   18.6244 C   0  0  0  0  0  0
  -27.6462  -13.2132   19.8478 C   0  0  2  0  0  0
  -28.6893  -13.0992   20.9809 C   0  0  0  0  0  0
  -25.2545  -13.8184   20.5710 C   0  0  0  0  0  0
  -24.1818  -13.0477   20.9216 C   0  0  0  0  0  0
  -24.6383  -11.6940   20.8755 C   0  0  0  0  0  0
  -23.9076  -10.4333   21.0411 C   0  0  0  0  0  0
  -24.3630   -9.4249   21.9172 C   0  0  0  0  0  0
  -23.6317   -8.2271   22.0727 C   0  0  0  0  0  0
  -22.4288   -8.0289   21.3541 C   0  0  0  0  0  0
  -21.9938   -9.0275   20.4640 C   0  0  0  0  0  0
  -22.7260  -10.2161   20.3053 C   0  0  0  0  0  0
  -21.6888   -6.0739   22.5289 C   0  0  0  0  0  0
  -21.4027   -6.5638   23.8224 C   0  0  0  0  0  0
  -21.3654   -5.6780   24.9180 C   0  0  0  0  0  0
  -21.6046   -4.3042   24.7221 C   0  0  0  0  0  0
  -21.8827   -3.8143   23.4346 C   0  0  0  0  0  0
  -21.9217   -4.6968   22.3410 C   0  0  0  0  0  0
  -22.7831  -13.5256   21.1874 C   0  0  0  0  0  0
  -22.1672   -4.2150   21.0984 F   0  0  0  0  0  0
  -21.5640   -3.4528   25.7740 F   0  0  0  0  0  0
  -30.0163  -13.3771   20.4209 N   0  0  0  0  0  0
  -26.2958  -12.9360   20.3268 N   0  0  0  0  0  0
  -25.9303  -11.6523   20.5743 N   0  0  0  0  0  0
  -22.0446  -12.8248   22.0405 N   0  0  0  0  0  0
  -25.4252  -15.1907   20.4173 N   0  0  0  0  0  0
  -31.8751  -14.6226   20.1512 O   0  0  0  0  0  0
  -21.6659   -6.8878   21.4244 O   0  0  0  0  0  0
  -22.3509  -14.5554   20.6701 O   0  0  0  0  0  0
  -24.6161  -31.8634   23.2001 C   0  0  0  0  0  0
  -25.9040  -32.4786   23.8299 C   0  0  1  0  0  0
  -27.2361  -27.3940   20.1096 C   0  0  0  0  0  0
  -25.5878  -33.8587   24.2239 N   0  0  0  0  0  0
  -23.4059  -30.4833   21.5429 C   0  0  2  0  0  0
  -24.8507  -28.9375   20.1091 C   0  0  0  0  0  0
  -22.7411  -29.4638   22.4972 C   0  0  0  0  0  0
  -18.0275  -28.1400   22.8487 C   0  0  0  0  0  0
  -24.1507  -36.7316   23.2646 C   0  0  0  0  0  0
  -25.9349  -30.8161   21.3595 C   0  0  0  0  0  0
  -26.0088  -29.4455   20.7099 C   0  0  0  0  0  0
  -27.1976  -28.6790   20.7067 C   0  0  0  0  0  0
  -26.0597  -26.9046   19.4979 C   0  0  0  0  0  0
  -24.8753  -27.6720   19.4969 C   0  0  0  0  0  0
  -23.6100  -29.8041   20.1604 C   0  0  0  0  0  0
  -25.4140  -36.3104   24.0321 C   0  0  1  0  0  0
  -20.5866  -28.3687   23.1326 C   0  0  2  0  0  0
  -20.6789  -26.9420   22.5443 C   0  0  0  0  0  0
  -19.5767  -26.6400   21.5240 C   0  0  0  0  0  0
  -18.1934  -26.7941   22.1631 C   0  0  0  0  0  0
  -19.1523  -28.8864   23.2900 C   0  0  0  0  0  0
  -18.9458  -30.1472   23.8905 C   0  0  0  0  0  0
  -17.6453  -30.6603   24.0578 C   0  0  0  0  0  0
  -25.9057  -34.9461   23.5095 C   0  0  0  0  0  0
  -16.5351  -29.9108   23.6341 C   0  0  0  0  0  0
  -16.7269  -28.6533   23.0339 C   0  0  0  0  0  0
  -26.4441  -31.6572   25.0645 C   0  0  0  0  0  0
  -25.3654  -31.3712   26.1357 C   0  0  0  0  0  0
  -27.0254  -30.2996   24.6052 C   0  0  0  0  0  0
  -27.6023  -32.4279   25.7392 C   0  0  0  0  0  0
  -27.5597  -37.1809   24.8461 C   0  0  0  0  0  0
  -21.4136  -29.3032   22.3703 N   0  0  0  0  0  0
  -26.4331  -37.3792   23.9383 N   0  0  0  0  0  0
  -24.6698  -31.0691   22.0920 N   0  0  0  0  0  0
  -23.4168  -28.8209   23.3042 O   0  0  0  0  0  0
  -28.4265  -26.6865   20.1511 O   0  0  0  0  0  0
  -26.5657  -34.8924   22.4675 O   0  0  0  0  0  0
  -23.5344  -32.1421   23.7378 O   0  0  0  0  0  0
  -31.2414  -18.6509   22.7947 C   0  0  0  0  0  0
  -32.2501  -17.7279   22.8342 C   0  0  0  0  0  0
  -30.6195  -16.9483   21.4869 C   0  0  0  0  0  0
  -33.5562  -17.7059   23.5633 C   0  0  0  0  0  0
  -29.0264  -22.0016   22.8210 C   0  0  0  0  0  0
  -26.9947  -21.4043   21.4605 C   0  0  0  0  0  0
  -28.1308  -24.2151   20.6823 C   0  0  0  0  0  0
  -28.8142  -22.8250   20.4263 C   0  0  0  0  0  0
  -29.2988  -20.3439   20.9530 C   0  0  0  0  0  0
  -29.0269  -18.9740   21.6831 C   0  0  0  0  0  0
  -29.9177  -16.5454   19.0633 C   0  0  0  0  0  0
  -28.5501  -25.3268   19.6746 C   0  0  0  0  0  0
  -29.9318  -15.9640   20.5207 C   0  0  1  0  0  0
  -28.5183  -21.6350   21.4119 C   0  0  0  0  0  0
  -30.2638  -18.1836   21.9482 N   0  0  0  0  0  0
  -31.8390  -16.7216   22.0065 N   0  3  0  0  0  0
  -28.7845  -17.4252   18.6863 N   0  3  0  0  0  0
  -31.4640  -12.4303   19.1497 H   0  0  0  0  0  0
  -30.3345  -11.3464   19.9140 H   0  0  0  0  0  0
  -29.7564  -11.6954   17.4912 H   0  0  0  0  0  0
  -29.6704  -13.4179   17.7266 H   0  0  0  0  0  0
  -27.8353  -11.2813   18.8532 H   0  0  0  0  0  0
  -27.3801  -12.5694   17.7730 H   0  0  0  0  0  0
  -27.6566  -14.2412   19.4900 H   0  0  0  0  0  0
  -28.6763  -12.1014   21.4192 H   0  0  0  0  0  0
  -28.4491  -13.7884   21.7930 H   0  0  0  0  0  0
  -25.2781   -9.5748   22.4721 H   0  0  0  0  0  0
  -24.0070   -7.4672   22.7427 H   0  0  0  0  0  0
  -21.0881   -8.8819   19.8929 H   0  0  0  0  0  0
  -22.3744  -10.9700   19.6146 H   0  0  0  0  0  0
  -21.1990   -7.6137   23.9735 H   0  0  0  0  0  0
  -21.1458   -6.0492   25.9089 H   0  0  0  0  0  0
  -22.0600   -2.7602   23.2860 H   0  0  0  0  0  0
  -22.4067  -11.9951   22.4877 H   0  0  0  0  0  0
  -21.1025  -13.1221   22.2518 H   0  0  0  0  0  0
  -24.6611  -15.8441   20.5429 H   0  0  0  0  0  0
  -26.2851  -15.6375   20.1438 H   0  0  0  0  0  0
  -26.7092  -32.5479   23.1032 H   0  0  0  0  0  0
  -24.9913  -33.9714   25.0315 H   0  0  0  0  0  0
  -22.6998  -31.3054   21.4001 H   0  0  0  0  0  0
  -23.3764  -35.9657   23.3323 H   0  0  0  0  0  0
  -24.3618  -36.8931   22.2062 H   0  0  0  0  0  0
  -23.7253  -37.6521   23.6656 H   0  0  0  0  0  0
  -26.0567  -31.5788   20.5898 H   0  0  0  0  0  0
  -26.8219  -30.8672   21.9806 H   0  0  0  0  0  0
  -28.0904  -29.0647   21.1785 H   0  0  0  0  0  0
  -26.0428  -25.9332   19.0257 H   0  0  0  0  0  0
  -23.9852  -27.2807   19.0233 H   0  0  0  0  0  0
  -23.7012  -30.5741   19.3924 H   0  0  0  0  0  0
  -22.7369  -29.2114   19.8734 H   0  0  0  0  0  0
  -25.1323  -36.1974   25.0819 H   0  0  0  0  0  0
  -20.9961  -28.3261   24.1448 H   0  0  0  0  0  0
  -20.5762  -26.2261   23.3616 H   0  0  0  0  0  0
  -21.6645  -26.7517   22.1185 H   0  0  0  0  0  0
  -19.6942  -25.6321   21.1245 H   0  0  0  0  0  0
  -19.6715  -27.3234   20.6785 H   0  0  0  0  0  0
  -17.4208  -26.6700   21.4019 H   0  0  0  0  0  0
  -18.0332  -26.0094   22.9037 H   0  0  0  0  0  0
  -19.7937  -30.7299   24.2252 H   0  0  0  0  0  0
  -17.5019  -31.6281   24.5186 H   0  0  0  0  0  0
  -15.5351  -30.3016   23.7684 H   0  0  0  0  0  0
  -15.8659  -28.0883   22.7023 H   0  0  0  0  0  0
  -24.5826  -30.7085   25.7645 H   0  0  0  0  0  0
  -24.8841  -32.2881   26.4756 H   0  0  0  0  0  0
  -25.7940  -30.8864   27.0135 H   0  0  0  0  0  0
  -26.2789  -29.6767   24.1106 H   0  0  0  0  0  0
  -27.4004  -29.7230   25.4517 H   0  0  0  0  0  0
  -27.8634  -30.4304   23.9204 H   0  0  0  0  0  0
  -27.2660  -33.3584   26.1973 H   0  0  0  0  0  0
  -28.3797  -32.6828   25.0174 H   0  0  0  0  0  0
  -28.0706  -31.8381   26.5277 H   0  0  0  0  0  0
  -28.2622  -38.0101   24.7516 H   0  0  0  0  0  0
  -28.1070  -36.2620   24.6279 H   0  0  0  0  0  0
  -27.2293  -37.1465   25.8861 H   0  0  0  0  0  0
  -20.9307  -29.8657   21.6843 H   0  0  0  0  0  0
  -26.0213  -38.2881   24.1357 H   0  0  0  0  0  0
  -31.1540  -19.6064   23.2956 H   0  0  0  0  0  0
  -33.8027  -16.6974   23.8919 H   0  0  0  0  0  0
  -33.5102  -18.3448   24.4450 H   0  0  0  0  0  0
  -34.3551  -18.0706   22.9171 H   0  0  0  0  0  0
  -28.6424  -22.9596   23.1652 H   0  0  0  0  0  0
  -30.1146  -22.0667   22.8410 H   0  0  0  0  0  0
  -28.7254  -21.2624   23.5626 H   0  0  0  0  0  0
  -26.4754  -22.2754   21.8618 H   0  0  0  0  0  0
  -26.7219  -20.5659   22.1015 H   0  0  0  0  0  0
  -26.5831  -21.2119   20.4708 H   0  0  0  0  0  0
  -28.3752  -24.5673   21.6820 H   0  0  0  0  0  0
  -27.0450  -24.1126   20.6490 H   0  0  0  0  0  0
  -29.8933  -22.9769   20.4067 H   0  0  0  0  0  0
  -28.5520  -22.5103   19.4155 H   0  0  0  0  0  0
  -29.1735  -20.2012   19.8807 H   0  0  0  0  0  0
  -30.3613  -20.5697   21.0533 H   0  0  0  0  0  0
  -28.2975  -18.3623   21.1568 H   0  0  0  0  0  0
  -28.5905  -19.1587   22.6652 H   0  0  0  0  0  0
  -29.8966  -15.7326   18.3356 H   0  0  0  0  0  0
  -30.8523  -17.0823   18.8755 H   0  0  0  0  0  0
  -28.0815  -25.1828   18.7006 H   0  0  0  0  0  0
  -29.6163  -25.2009   19.4870 H   0  0  0  0  0  0
  -28.9183  -15.8224   20.8912 H   0  0  0  0  0  0
  -32.3906  -15.8993   21.7769 H   0  0  0  0  0  0
  -27.9213  -16.9157   18.6094 H   0  0  0  0  0  0
  -28.9691  -17.8084   17.7734 H   0  0  0  0  0  0
  -28.6586  -18.2020   19.3065 H   0  0  0  0  0  0
  1 25  1  0  0  0
  1 30  2  0  0  0
  1 83  1  0  0  0
  2  3  1  0  0  0
  2 25  1  0  0  0
  2 88  1  0  0  0
  2 89  1  0  0  0
  3  4  1  0  0  0
  3 90  1  0  0  0
  3 91  1  0  0  0
  4  5  1  0  0  0
  4 92  1  0  0  0
  4 93  1  0  0  0
  5  6  1  0  0  0
  5 26  1  0  0  0
  5 94  1  0  0  0
  6 25  1  0  0  0
  6 95  1  0  0  0
  6 96  1  0  0  0
  7  8  2  0  0  0
  7 26  1  0  0  0
  7 29  1  0  0  0
  8  9  1  0  0  0
  8 22  1  0  0  0
  9 10  1  0  0  0
  9 27  2  0  0  0
 10 11  2  0  0  0
 10 15  1  0  0  0
 11 12  1  0  0  0
 11 97  1  0  0  0
 12 13  2  0  0  0
 12 98  1  0  0  0
 13 14  1  0  0  0
 13 31  1  0  0  0
 14 15  2  0  0  0
 14 99  1  0  0  0
 15100  1  0  0  0
 16 17  2  0  0  0
 16 21  1  0  0  0
 16 31  1  0  0  0
 17 18  1  0  0  0
 17101  1  0  0  0
 18 19  2  0  0  0
 18102  1  0  0  0
 19 20  1  0  0  0
 19 24  1  0  0  0
 20 21  2  0  0  0
 20103  1  0  0  0
 21 23  1  0  0  0
 22 28  1  0  0  0
 22 32  2  0  0  0
 26 27  1  0  0  0
 28104  1  0  0  0
 28105  1  0  0  0
 29106  1  0  0  0
 29107  1  0  0  0
 33 34  1  0  0  0
 33 66  1  0  0  0
 33 70  2  0  0  0
 34 36  1  0  0  0
 34 59  1  0  0  0
 34108  1  0  0  0
 35 44  2  0  0  0
 35 45  1  0  0  0
 35 68  1  0  0  0
 36 56  1  0  0  0
 36109  1  0  0  0
 37 39  1  0  0  0
 37 47  1  0  0  0
 37 66  1  0  0  0
 37110  1  0  0  0
 38 43  2  0  0  0
 38 46  1  0  0  0
 38 47  1  0  0  0
 39 64  1  0  0  0
 39 67  2  0  0  0
 40 52  1  0  0  0
 40 53  2  0  0  0
 40 58  1  0  0  0
 41111  1  0  0  0
 41112  1  0  0  0
 41113  1  0  0  0
 41 48  1  0  0  0
 42 43  1  0  0  0
 42 66  1  0  0  0
 42114  1  0  0  0
 42115  1  0  0  0
 43 44  1  0  0  0
 44116  1  0  0  0
 45 46  2  0  0  0
 45117  1  0  0  0
 46118  1  0  0  0
 47119  1  0  0  0
 47120  1  0  0  0
 48 56  1  0  0  0
 48 65  1  0  0  0
 48121  1  0  0  0
 49 50  1  0  0  0
 49 53  1  0  0  0
 49 64  1  0  0  0
 49122  1  0  0  0
 50 51  1  0  0  0
 50123  1  0  0  0
 50124  1  0  0  0
 51 52  1  0  0  0
 51125  1  0  0  0
 51126  1  0  0  0
 52127  1  0  0  0
 52128  1  0  0  0
 53 54  1  0  0  0
 54 55  2  0  0  0
 54129  1  0  0  0
 55 57  1  0  0  0
 55130  1  0  0  0
 56 69  2  0  0  0
 57 58  2  0  0  0
 57131  1  0  0  0
 58132  1  0  0  0
 59 60  1  0  0  0
 59 61  1  0  0  0
 59 62  1  0  0  0
 60133  1  0  0  0
 60134  1  0  0  0
 60135  1  0  0  0
 61136  1  0  0  0
 61137  1  0  0  0
 61138  1  0  0  0
 62139  1  0  0  0
 62140  1  0  0  0
 62141  1  0  0  0
 63 65  1  0  0  0
 63142  1  0  0  0
 63143  1  0  0  0
 63144  1  0  0  0
 64145  1  0  0  0
 65146  1  0  0  0
 68 82  1  0  0  0
 71 72  2  0  0  0
 71 85  1  0  0  0
 71147  1  0  0  0
 72 74  1  0  0  0
 72 86  1  0  0  0
 73 83  1  0  0  0
 73 85  1  0  0  0
 73 86  2  0  0  0
 74148  1  0  0  0
 74149  1  0  0  0
 74150  1  0  0  0
 75151  1  0  0  0
 75152  1  0  0  0
 75153  1  0  0  0
 75 84  1  0  0  0
 76 84  1  0  0  0
 76154  1  0  0  0
 76155  1  0  0  0
 76156  1  0  0  0
 77 78  1  0  0  0
 77 82  1  0  0  0
 77157  1  0  0  0
 77158  1  0  0  0
 78 84  1  0  0  0
 78159  1  0  0  0
 78160  1  0  0  0
 79 80  1  0  0  0
 79 84  1  0  0  0
 79161  1  0  0  0
 79162  1  0  0  0
 80 85  1  0  0  0
 80163  1  0  0  0
 80164  1  0  0  0
 81 87  1  0  0  0
 81165  1  0  0  0
 81166  1  0  0  0
 81 83  1  0  0  0
 82167  1  0  0  0
 82168  1  0  0  0
 83169  1  0  0  0
 86170  1  0  0  0
 87171  1  0  0  0
 87172  1  0  0  0
 87173  1  0  0  0
M  CHG  2  86   1  87   1
M  ISO  4   1 100  68 101  82 101  83 100
M  END
> <chiral flag>
0

> <version>
0

> <s_m_source_file>
/data/baiqing/PycharmProjects/Reinvent-master-3.2/result/LINK_invent/BTK/process_docking_weight1_custom_sum_contain_oxygen_bond_distance_aromatic_linkinvent_7_9_3/rearranged_h_0073.sdf

> <i_m_source_file_index>
15

> <r_mmod_Potential_Energy-OPLS-2005>
-213.655899047852

> <r_mmod_Stretch_Energy-OPLS-2005>
57.2344169616699

> <r_mmod_Bend_Energy-OPLS-2005>
145.191711425781

> <r_mmod_Torsional_Energy-OPLS-2005>
239.069732666016

> <r_mmod_Improper_Torsional_Energy-OPLS-2005>
6.53793525695801

> <r_mmod_Van_der_Waal_Energy-OPLS-2005>
122.862518310547

> <r_mmod_Electrostatic_Energy-OPLS-2005>
153.396469116211

> <r_mmod_Solvation_Energy-OPLS-2005>
-969.5029296875

> <b_mmod_Minimization_Converged-OPLS-2005>
0

> <r_mmod_RMS_Derivative-OPLS-2005>
4.25132989883423

$$$$
15
                    3D
 Structure written by MMmdl.
166174  0  0  1  0            999 V2000
  -30.5808  -14.7187   20.4771 C   0  0  0  0  0  0
  -30.4274  -12.4372   19.4836 C   0  0  0  0  0  0
  -29.5190  -12.5391   18.2394 C   0  0  0  0  0  0
  -28.0405  -12.3508   18.6383 C   0  0  0  0  0  0
  -27.6425  -13.2286   19.8588 C   0  0  2  0  0  0
  -28.6787  -13.1285   21.0006 C   0  0  0  0  0  0
  -25.2472  -13.8159   20.5649 C   0  0  0  0  0  0
  -24.1769  -13.0402   20.9177 C   0  0  0  0  0  0
  -24.6367  -11.6894   20.8703 C   0  0  0  0  0  0
  -23.9045  -10.4268   21.0360 C   0  0  0  0  0  0
  -24.3608   -9.4207   21.9152 C   0  0  0  0  0  0
  -23.6281   -8.2242   22.0760 C   0  0  0  0  0  0
  -22.4258   -8.0265   21.3552 C   0  0  0  0  0  0
  -21.9891   -9.0212   20.4645 C   0  0  0  0  0  0
  -22.7209  -10.2093   20.3032 C   0  0  0  0  0  0
  -21.6852   -6.0722   22.5260 C   0  0  0  0  0  0
  -21.4012   -6.5622   23.8196 C   0  0  0  0  0  0
  -21.3677   -5.6777   24.9150 C   0  0  0  0  0  0
  -21.6048   -4.3043   24.7205 C   0  0  0  0  0  0
  -21.8820   -3.8138   23.4322 C   0  0  0  0  0  0
  -21.9194   -4.6946   22.3388 C   0  0  0  0  0  0
  -22.7798  -13.5205   21.1806 C   0  0  0  0  0  0
  -22.1659   -4.2137   21.0963 F   0  0  0  0  0  0
  -21.5634   -3.4534   25.7724 F   0  0  0  0  0  0
  -29.9851  -13.4805   20.4353 N   0  0  0  0  0  0
  -26.2915  -12.9373   20.3257 N   0  0  0  0  0  0
  -25.9295  -11.6502   20.5717 N   0  0  0  0  0  0
  -22.0451  -12.8228   22.0386 N   0  0  0  0  0  0
  -25.4077  -15.1887   20.4058 N   0  0  0  0  0  0
  -31.7504  -14.8557   20.1061 O   0  0  0  0  0  0
  -21.6638   -6.8850   21.4232 O   0  0  0  0  0  0
  -22.3499  -14.5499   20.6621 O   0  0  0  0  0  0
  -24.6324  -31.8555   23.1970 C   0  0  0  0  0  0
  -25.9160  -32.4754   23.8330 C   0  0  1  0  0  0
  -27.2172  -27.2649   20.1551 C   0  0  0  0  0  0
  -25.5996  -33.8565   24.2286 N   0  0  0  0  0  0
  -23.4278  -30.4743   21.5409 C   0  0  2  0  0  0
  -24.8719  -28.9167   20.1074 C   0  0  0  0  0  0
  -22.7504  -29.4612   22.4933 C   0  0  0  0  0  0
  -18.0272  -28.1373   22.8481 C   0  0  0  0  0  0
  -24.1459  -36.7223   23.2644 C   0  0  0  0  0  0
  -25.9679  -30.7726   21.3716 C   0  0  0  0  0  0
  -26.0370  -29.3943   20.7184 C   0  0  0  0  0  0
  -27.2082  -28.5799   20.7283 C   0  0  0  0  0  0
  -26.0287  -26.8432   19.5191 C   0  0  0  0  0  0
  -24.8728  -27.6522   19.4946 C   0  0  0  0  0  0
  -23.6416  -29.8002   20.1573 C   0  0  0  0  0  0
  -25.4099  -36.3086   24.0349 C   0  0  1  0  0  0
  -20.5880  -28.3702   23.1245 C   0  0  2  0  0  0
  -20.6754  -26.9411   22.5409 C   0  0  0  0  0  0
  -19.5734  -26.6368   21.5207 C   0  0  0  0  0  0
  -18.1912  -26.7918   22.1603 C   0  0  0  0  0  0
  -19.1531  -28.8847   23.2848 C   0  0  0  0  0  0
  -18.9462  -30.1449   23.8860 C   0  0  0  0  0  0
  -17.6464  -30.6576   24.0542 C   0  0  0  0  0  0
  -25.9055  -34.9459   23.5104 C   0  0  0  0  0  0
  -16.5350  -29.9070   23.6341 C   0  0  0  0  0  0
  -16.7265  -28.6481   23.0383 C   0  0  0  0  0  0
  -26.4518  -31.6595   25.0738 C   0  0  0  0  0  0
  -25.3707  -31.3805   26.1448 C   0  0  0  0  0  0
  -27.0401  -30.3029   24.6246 C   0  0  0  0  0  0
  -27.6099  -32.4337   25.7459 C   0  0  0  0  0  0
  -27.5549  -37.1766   24.8488 C   0  0  0  0  0  0
  -21.4201  -29.3054   22.3666 N   0  0  0  0  0  0
  -26.4257  -37.3803   23.9449 N   0  0  0  0  0  0
  -24.6953  -31.0549   22.0927 N   0  0  0  0  0  0
  -23.4204  -28.8155   23.3051 O   0  0  0  0  0  0
  -28.3389  -26.4237   20.2801 O   0  0  0  0  0  0
  -26.5570  -34.8914   22.4638 O   0  0  0  0  0  0
  -23.5474  -32.1354   23.7279 O   0  0  0  0  0  0
  -27.8252  -21.4703   22.0399 C   0  0  0  0  0  0
  -27.3944  -22.7431   22.4488 C   0  0  0  0  0  0
  -28.5934  -21.3521   20.8675 C   0  0  0  0  0  0
  -28.2699  -23.7268   20.5673 C   0  0  0  0  0  0
  -26.7396  -22.9408   23.8023 C   0  0  0  0  0  0
  -30.9008  -20.3506   20.6381 C   0  0  0  0  0  0
  -29.9280  -25.0889   19.1862 C   0  0  0  0  0  0
  -29.2523  -18.3339   22.5140 C   0  0  0  0  0  0
  -27.6453  -18.1117   20.6037 C   0  0  0  0  0  0
  -30.0391  -17.2869   20.3820 C   0  0  0  0  0  0
  -29.4055  -20.0213   20.4492 C   0  0  1  0  0  0
  -28.4772  -25.0501   19.6898 C   0  0  2  0  0  0
  -29.0942  -18.4774   20.9797 C   0  0  0  0  0  0
  -27.6140  -23.8555   21.7179 N   0  0  0  0  0  0
  -28.7496  -22.5188   20.1323 N   0  0  0  0  0  0
  -29.7763  -15.8198   20.7242 N   0  0  0  0  0  0
  -31.4765  -12.5458   19.2072 H   0  0  0  0  0  0
  -30.3377  -11.4506   19.9396 H   0  0  0  0  0  0
  -29.8141  -11.8026   17.4930 H   0  0  0  0  0  0
  -29.6485  -13.5188   17.7716 H   0  0  0  0  0  0
  -27.8965  -11.2971   18.8785 H   0  0  0  0  0  0
  -27.3891  -12.5644   17.7877 H   0  0  0  0  0  0
  -27.6465  -14.2584   19.5009 H   0  0  0  0  0  0
  -28.7056  -12.1206   21.4171 H   0  0  0  0  0  0
  -28.4135  -13.7943   21.8248 H   0  0  0  0  0  0
  -25.2745   -9.5704   22.4719 H   0  0  0  0  0  0
  -23.9988   -7.4667   22.7510 H   0  0  0  0  0  0
  -21.0816   -8.8703   19.8967 H   0  0  0  0  0  0
  -22.3639  -10.9612   19.6144 H   0  0  0  0  0  0
  -21.1995   -7.6130   23.9694 H   0  0  0  0  0  0
  -21.1513   -6.0503   25.9059 H   0  0  0  0  0  0
  -22.0592   -2.7597   23.2818 H   0  0  0  0  0  0
  -22.4056  -11.9928   22.4833 H   0  0  0  0  0  0
  -21.1059  -13.1262   22.2529 H   0  0  0  0  0  0
  -24.6169  -15.8177   20.4915 H   0  0  0  0  0  0
  -26.2303  -15.6428   20.0342 H   0  0  0  0  0  0
  -26.7244  -32.5412   23.1090 H   0  0  0  0  0  0
  -25.0388  -33.9727   25.0597 H   0  0  0  0  0  0
  -22.7244  -31.2971   21.3927 H   0  0  0  0  0  0
  -23.3765  -35.9511   23.3323 H   0  0  0  0  0  0
  -24.3558  -36.8800   22.2056 H   0  0  0  0  0  0
  -23.7097  -37.6388   23.6615 H   0  0  0  0  0  0
  -26.1065  -31.5310   20.5985 H   0  0  0  0  0  0
  -26.8466  -30.8213   22.0031 H   0  0  0  0  0  0
  -28.1010  -28.9389   21.2195 H   0  0  0  0  0  0
  -25.9510  -25.8590   19.0835 H   0  0  0  0  0  0
  -23.9759  -27.2733   19.0254 H   0  0  0  0  0  0
  -23.7569  -30.5678   19.3923 H   0  0  0  0  0  0
  -22.7624  -29.2245   19.8586 H   0  0  0  0  0  0
  -25.1253  -36.1948   25.0831 H   0  0  0  0  0  0
  -20.9931  -28.3263   24.1377 H   0  0  0  0  0  0
  -20.5620  -26.2324   23.3641 H   0  0  0  0  0  0
  -21.6635  -26.7424   22.1227 H   0  0  0  0  0  0
  -19.6892  -25.6266   21.1273 H   0  0  0  0  0  0
  -19.6651  -27.3142   20.6710 H   0  0  0  0  0  0
  -17.4195  -26.6688   21.3988 H   0  0  0  0  0  0
  -18.0273  -26.0035   22.8965 H   0  0  0  0  0  0
  -19.7958  -30.7255   24.2211 H   0  0  0  0  0  0
  -17.5042  -31.6249   24.5147 H   0  0  0  0  0  0
  -15.5354  -30.2964   23.7693 H   0  0  0  0  0  0
  -15.8668  -28.0767   22.7172 H   0  0  0  0  0  0
  -24.5914  -30.7117   25.7778 H   0  0  0  0  0  0
  -24.8857  -32.2999   26.4758 H   0  0  0  0  0  0
  -25.7993  -30.9071   27.0298 H   0  0  0  0  0  0
  -26.3033  -29.6738   24.1243 H   0  0  0  0  0  0
  -27.4070  -29.7347   25.4805 H   0  0  0  0  0  0
  -27.8893  -30.4339   23.9534 H   0  0  0  0  0  0
  -27.2793  -33.3725   26.1916 H   0  0  0  0  0  0
  -28.3920  -32.6746   25.0245 H   0  0  0  0  0  0
  -28.0724  -31.8522   26.5431 H   0  0  0  0  0  0
  -28.2623  -38.0025   24.7554 H   0  0  0  0  0  0
  -28.0987  -36.2558   24.6297 H   0  0  0  0  0  0
  -27.2273  -37.1390   25.8899 H   0  0  0  0  0  0
  -20.9409  -29.8806   21.6869 H   0  0  0  0  0  0
  -26.0136  -38.2873   24.1506 H   0  0  0  0  0  0
  -27.6013  -20.6280   22.6687 H   0  0  0  0  0  0
  -26.5406  -21.9889   24.2945 H   0  0  0  0  0  0
  -25.7993  -23.4828   23.7193 H   0  0  0  0  0  0
  -27.4075  -23.5106   24.4495 H   0  0  0  0  0  0
  -31.1700  -21.2724   20.1215 H   0  0  0  0  0  0
  -31.5518  -19.5762   20.2382 H   0  0  0  0  0  0
  -31.1412  -20.4918   21.6916 H   0  0  0  0  0  0
  -30.6403  -24.9890   20.0066 H   0  0  0  0  0  0
  -30.1400  -26.0264   18.6732 H   0  0  0  0  0  0
  -30.1117  -24.2761   18.4824 H   0  0  0  0  0  0
  -29.0251  -17.3175   22.8391 H   0  0  0  0  0  0
  -28.5941  -18.9642   23.0988 H   0  0  0  0  0  0
  -30.2740  -18.5449   22.8312 H   0  0  0  0  0  0
  -27.3401  -17.1742   21.0702 H   0  0  0  0  0  0
  -27.5411  -17.9880   19.5242 H   0  0  0  0  0  0
  -26.9311  -18.8718   20.9204 H   0  0  0  0  0  0
  -31.0686  -17.4744   20.6875 H   0  0  0  0  0  0
  -30.0382  -17.3585   19.2922 H   0  0  0  0  0  0
  -29.2469  -19.9737   19.3713 H   0  0  0  0  0  0
  -27.8451  -24.9586   18.8077 H   0  0  0  0  0  0
  -28.8491  -15.6043   21.0515 H   0  0  0  0  0  0
  1 25  1  0  0  0
  1 30  2  0  0  0
  1 86  1  0  0  0
  2  3  1  0  0  0
  2 25  1  0  0  0
  2 87  1  0  0  0
  2 88  1  0  0  0
  3  4  1  0  0  0
  3 89  1  0  0  0
  3 90  1  0  0  0
  4  5  1  0  0  0
  4 91  1  0  0  0
  4 92  1  0  0  0
  5  6  1  0  0  0
  5 26  1  0  0  0
  5 93  1  0  0  0
  6 25  1  0  0  0
  6 94  1  0  0  0
  6 95  1  0  0  0
  7  8  2  0  0  0
  7 26  1  0  0  0
  7 29  1  0  0  0
  8  9  1  0  0  0
  8 22  1  0  0  0
  9 10  1  0  0  0
  9 27  2  0  0  0
 10 11  2  0  0  0
 10 15  1  0  0  0
 11 12  1  0  0  0
 11 96  1  0  0  0
 12 13  2  0  0  0
 12 97  1  0  0  0
 13 14  1  0  0  0
 13 31  1  0  0  0
 14 15  2  0  0  0
 14 98  1  0  0  0
 15 99  1  0  0  0
 16 17  2  0  0  0
 16 21  1  0  0  0
 16 31  1  0  0  0
 17 18  1  0  0  0
 17100  1  0  0  0
 18 19  2  0  0  0
 18101  1  0  0  0
 19 20  1  0  0  0
 19 24  1  0  0  0
 20 21  2  0  0  0
 20102  1  0  0  0
 21 23  1  0  0  0
 22 28  1  0  0  0
 22 32  2  0  0  0
 26 27  1  0  0  0
 28103  1  0  0  0
 28104  1  0  0  0
 29105  1  0  0  0
 29106  1  0  0  0
 33 34  1  0  0  0
 33 66  1  0  0  0
 33 70  2  0  0  0
 34 36  1  0  0  0
 34 59  1  0  0  0
 34107  1  0  0  0
 35 44  2  0  0  0
 35 45  1  0  0  0
 35 68  1  0  0  0
 36 56  1  0  0  0
 36108  1  0  0  0
 37 39  1  0  0  0
 37 47  1  0  0  0
 37 66  1  0  0  0
 37109  1  0  0  0
 38 43  2  0  0  0
 38 46  1  0  0  0
 38 47  1  0  0  0
 39 64  1  0  0  0
 39 67  2  0  0  0
 40 52  1  0  0  0
 40 53  2  0  0  0
 40 58  1  0  0  0
 41110  1  0  0  0
 41111  1  0  0  0
 41112  1  0  0  0
 41 48  1  0  0  0
 42 43  1  0  0  0
 42 66  1  0  0  0
 42113  1  0  0  0
 42114  1  0  0  0
 43 44  1  0  0  0
 44115  1  0  0  0
 45 46  2  0  0  0
 45116  1  0  0  0
 46117  1  0  0  0
 47118  1  0  0  0
 47119  1  0  0  0
 48 56  1  0  0  0
 48 65  1  0  0  0
 48120  1  0  0  0
 49 50  1  0  0  0
 49 53  1  0  0  0
 49 64  1  0  0  0
 49121  1  0  0  0
 50 51  1  0  0  0
 50122  1  0  0  0
 50123  1  0  0  0
 51 52  1  0  0  0
 51124  1  0  0  0
 51125  1  0  0  0
 52126  1  0  0  0
 52127  1  0  0  0
 53 54  1  0  0  0
 54 55  2  0  0  0
 54128  1  0  0  0
 55 57  1  0  0  0
 55129  1  0  0  0
 56 69  2  0  0  0
 57 58  2  0  0  0
 57130  1  0  0  0
 58131  1  0  0  0
 59 60  1  0  0  0
 59 61  1  0  0  0
 59 62  1  0  0  0
 60132  1  0  0  0
 60133  1  0  0  0
 60134  1  0  0  0
 61135  1  0  0  0
 61136  1  0  0  0
 61137  1  0  0  0
 62138  1  0  0  0
 62139  1  0  0  0
 62140  1  0  0  0
 63 65  1  0  0  0
 63141  1  0  0  0
 63142  1  0  0  0
 63143  1  0  0  0
 64144  1  0  0  0
 65145  1  0  0  0
 68 82  1  0  0  0
 71 72  2  0  0  0
 71 73  1  0  0  0
 71146  1  0  0  0
 72 75  1  0  0  0
 72 84  1  0  0  0
 73 81  1  0  0  0
 73 85  2  0  0  0
 74 82  1  0  0  0
 74 84  2  0  0  0
 74 85  1  0  0  0
 75147  1  0  0  0
 75148  1  0  0  0
 75149  1  0  0  0
 76150  1  0  0  0
 76151  1  0  0  0
 76152  1  0  0  0
 76 81  1  0  0  0
 77153  1  0  0  0
 77154  1  0  0  0
 77155  1  0  0  0
 77 82  1  0  0  0
 78156  1  0  0  0
 78157  1  0  0  0
 78158  1  0  0  0
 78 83  1  0  0  0
 79 83  1  0  0  0
 79159  1  0  0  0
 79160  1  0  0  0
 79161  1  0  0  0
 80 83  1  0  0  0
 80 86  1  0  0  0
 80162  1  0  0  0
 80163  1  0  0  0
 81 83  1  0  0  0
 81164  1  0  0  0
 82165  1  0  0  0
 86166  1  0  0  0
M  ISO  4   1 100  68 101  82 101  86 100
M  END
> <chiral flag>
0

> <version>
0

> <s_m_source_file>
/data/baiqing/PycharmProjects/Reinvent-master-3.2/result/LINK_invent/BTK/process_docking_weight1_custom_sum_contain_oxygen_bond_distance_aromatic_linkinvent_7_9_3/rearranged_h_0073.sdf

> <i_m_source_file_index>
16

> <r_mmod_Potential_Energy-OPLS-2005>
-219.908843994141

> <r_mmod_Stretch_Energy-OPLS-2005>
133.919891357422

> <r_mmod_Bend_Energy-OPLS-2005>
197.348419189453

> <r_mmod_Torsional_Energy-OPLS-2005>
218.558288574219

> <r_mmod_Improper_Torsional_Energy-OPLS-2005>
6.40619707107544

> <r_mmod_Van_der_Waal_Energy-OPLS-2005>
142.748275756836

> <r_mmod_Electrostatic_Energy-OPLS-2005>
-773.980590820312

> <r_mmod_Solvation_Energy-OPLS-2005>
-224.011169433594

> <b_mmod_Minimization_Converged-OPLS-2005>
0

> <r_mmod_RMS_Derivative-OPLS-2005>
4.49821615219116

$$$$
16
                    3D
 Structure written by MMmdl.
160168  0  0  1  0            999 V2000
  -30.5971  -14.7478   20.4611 C   0  0  0  0  0  0
  -30.4342  -12.4569   19.4683 C   0  0  0  0  0  0
  -29.5099  -12.5094   18.2317 C   0  0  0  0  0  0
  -28.0364  -12.3289   18.6471 C   0  0  0  0  0  0
  -27.6423  -13.2271   19.8498 C   0  0  2  0  0  0
  -28.6861  -13.1559   20.9855 C   0  0  0  0  0  0
  -25.2529  -13.8182   20.5685 C   0  0  0  0  0  0
  -24.1816  -13.0443   20.9184 C   0  0  0  0  0  0
  -24.6391  -11.6912   20.8719 C   0  0  0  0  0  0
  -23.9065  -10.4295   21.0396 C   0  0  0  0  0  0
  -24.3618   -9.4215   21.9181 C   0  0  0  0  0  0
  -23.6295   -8.2251   22.0751 C   0  0  0  0  0  0
  -22.4278   -8.0290   21.3545 C   0  0  0  0  0  0
  -21.9908   -9.0257   20.4649 C   0  0  0  0  0  0
  -22.7232  -10.2137   20.3061 C   0  0  0  0  0  0
  -21.6860   -6.0741   22.5282 C   0  0  0  0  0  0
  -21.4015   -6.5641   23.8215 C   0  0  0  0  0  0
  -21.3653   -5.6793   24.9173 C   0  0  0  0  0  0
  -21.6044   -4.3058   24.7228 C   0  0  0  0  0  0
  -21.8820   -3.8152   23.4349 C   0  0  0  0  0  0
  -21.9195   -4.6968   22.3405 C   0  0  0  0  0  0
  -22.7847  -13.5233   21.1861 C   0  0  0  0  0  0
  -22.1677   -4.2155   21.0984 F   0  0  0  0  0  0
  -21.5622   -3.4539   25.7738 F   0  0  0  0  0  0
  -29.9852  -13.5152   20.4034 N   0  0  0  0  0  0
  -26.2940  -12.9368   20.3262 N   0  0  0  0  0  0
  -25.9317  -11.6513   20.5727 N   0  0  0  0  0  0
  -22.0496  -12.8225   22.0417 N   0  0  0  0  0  0
  -25.4231  -15.1907   20.4122 N   0  0  0  0  0  0
  -31.7858  -14.8599   20.1493 O   0  0  0  0  0  0
  -21.6655   -6.8881   21.4242 O   0  0  0  0  0  0
  -22.3538  -14.5546   20.6713 O   0  0  0  0  0  0
  -24.6314  -31.8521   23.1948 C   0  0  0  0  0  0
  -25.9137  -32.4732   23.8304 C   0  0  1  0  0  0
  -27.2373  -27.2607   20.1101 C   0  0  0  0  0  0
  -25.5923  -33.8537   24.2230 N   0  0  0  0  0  0
  -23.4289  -30.4729   21.5379 C   0  0  2  0  0  0
  -24.8757  -28.9117   20.1107 C   0  0  0  0  0  0
  -22.7501  -29.4584   22.4901 C   0  0  0  0  0  0
  -18.0293  -28.1386   22.8486 C   0  0  0  0  0  0
  -24.1489  -36.7276   23.2644 C   0  0  0  0  0  0
  -25.9741  -30.7631   21.3745 C   0  0  0  0  0  0
  -26.0461  -29.3848   20.7149 C   0  0  0  0  0  0
  -27.2226  -28.5703   20.7038 C   0  0  0  0  0  0
  -26.0266  -26.8341   19.5216 C   0  0  0  0  0  0
  -24.8699  -27.6426   19.5074 C   0  0  0  0  0  0
  -23.6467  -29.8007   20.1560 C   0  0  0  0  0  0
  -25.4118  -36.3056   24.0324 C   0  0  1  0  0  0
  -20.5893  -28.3695   23.1266 C   0  0  2  0  0  0
  -20.6773  -26.9410   22.5407 C   0  0  0  0  0  0
  -19.5751  -26.6378   21.5210 C   0  0  0  0  0  0
  -18.1933  -26.7929   22.1624 C   0  0  0  0  0  0
  -19.1546  -28.8859   23.2870 C   0  0  0  0  0  0
  -18.9468  -30.1459   23.8888 C   0  0  0  0  0  0
  -17.6466  -30.6585   24.0561 C   0  0  0  0  0  0
  -25.9057  -34.9431   23.5084 C   0  0  0  0  0  0
  -16.5356  -29.9081   23.6331 C   0  0  0  0  0  0
  -16.7278  -28.6499   23.0354 C   0  0  0  0  0  0
  -26.4502  -31.6574   25.0708 C   0  0  0  0  0  0
  -25.3718  -31.3743   26.1428 C   0  0  0  0  0  0
  -27.0358  -30.2984   24.6224 C   0  0  0  0  0  0
  -27.6037  -32.4335   25.7490 C   0  0  0  0  0  0
  -27.5578  -37.1795   24.8465 C   0  0  0  0  0  0
  -21.4209  -29.3040   22.3653 N   0  0  0  0  0  0
  -26.4287  -37.3758   23.9409 N   0  0  0  0  0  0
  -24.6972  -31.0482   22.0919 N   0  0  0  0  0  0
  -23.4196  -28.8142   23.3019 O   0  0  0  0  0  0
  -28.3858  -26.4271   20.1752 O   0  0  0  0  0  0
  -26.5641  -34.8911   22.4661 O   0  0  0  0  0  0
  -23.5465  -32.1348   23.7242 O   0  0  0  0  0  0
  -29.6193  -22.5357   17.8280 C   0  0  0  0  0  0
  -30.1138  -21.3423   17.3976 C   0  0  0  0  0  0
  -29.3898  -21.0647   19.4879 C   0  0  0  0  0  0
  -28.2260  -25.4624   17.9047 C   0  0  0  0  0  0
  -30.2717  -25.4668   19.3215 C   0  0  0  0  0  0
  -29.1993  -20.1057   20.7050 C   0  0  0  0  0  0
  -29.0166  -18.4876   20.4740 C   0  0  0  0  0  0
  -28.5560  -23.6436   19.8950 C   0  0  0  0  0  0
  -30.1834  -17.3644   20.6310 C   0  0  0  0  0  0
  -28.7486  -25.2102   19.3497 C   0  0  0  0  0  0
  -29.1840  -22.4171   19.1371 N   0  0  0  0  0  0
  -29.9698  -20.4842   18.4324 N   0  3  0  0  0  0
  -29.8088  -15.8745   20.6663 N   0  0  0  0  0  0
  -31.4738  -12.5874   19.1643 H   0  0  0  0  0  0
  -30.3835  -11.4770   19.9459 H   0  0  0  0  0  0
  -29.7921  -11.7380   17.5135 H   0  0  0  0  0  0
  -29.6335  -13.4648   17.7186 H   0  0  0  0  0  0
  -27.8952  -11.2795   18.9089 H   0  0  0  0  0  0
  -27.3773  -12.5209   17.7988 H   0  0  0  0  0  0
  -27.6372  -14.2495   19.4707 H   0  0  0  0  0  0
  -28.7234  -12.1553   21.4195 H   0  0  0  0  0  0
  -28.4174  -13.8308   21.8004 H   0  0  0  0  0  0
  -25.2763   -9.5697   22.4755 H   0  0  0  0  0  0
  -24.0014   -7.4639   22.7460 H   0  0  0  0  0  0
  -21.0850   -8.8774   19.8947 H   0  0  0  0  0  0
  -22.3689  -10.9683   19.6180 H   0  0  0  0  0  0
  -21.2019   -7.6151   23.9721 H   0  0  0  0  0  0
  -21.1468   -6.0522   25.9072 H   0  0  0  0  0  0
  -22.0602   -2.7612   23.2847 H   0  0  0  0  0  0
  -22.4129  -11.9897   22.4808 H   0  0  0  0  0  0
  -21.1108  -13.1237   22.2611 H   0  0  0  0  0  0
  -24.6503  -15.8384   20.5225 H   0  0  0  0  0  0
  -26.2637  -15.6316   20.0621 H   0  0  0  0  0  0
  -26.7207  -32.5374   23.1045 H   0  0  0  0  0  0
  -25.0049  -33.9665   25.0365 H   0  0  0  0  0  0
  -22.7256  -31.2947   21.3887 H   0  0  0  0  0  0
  -23.3747  -35.9608   23.3301 H   0  0  0  0  0  0
  -24.3576  -36.8909   22.2057 H   0  0  0  0  0  0
  -23.7246  -37.6477   23.6679 H   0  0  0  0  0  0
  -26.1177  -31.5252   20.6073 H   0  0  0  0  0  0
  -26.8488  -30.8074   22.0121 H   0  0  0  0  0  0
  -28.1232  -28.9335   21.1790 H   0  0  0  0  0  0
  -25.9468  -25.8461   19.0957 H   0  0  0  0  0  0
  -23.9671  -27.2649   19.0476 H   0  0  0  0  0  0
  -23.7706  -30.5737   19.3964 H   0  0  0  0  0  0
  -22.7646  -29.2332   19.8539 H   0  0  0  0  0  0
  -25.1304  -36.1894   25.0815 H   0  0  0  0  0  0
  -20.9988  -28.3272   24.1386 H   0  0  0  0  0  0
  -20.5664  -26.2306   23.3615 H   0  0  0  0  0  0
  -21.6642  -26.7424   22.1208 H   0  0  0  0  0  0
  -19.6907  -25.6287   21.1249 H   0  0  0  0  0  0
  -19.6688  -27.3181   20.6736 H   0  0  0  0  0  0
  -17.4199  -26.6677   21.4027 H   0  0  0  0  0  0
  -18.0331  -26.0069   22.9021 H   0  0  0  0  0  0
  -19.7940  -30.7282   24.2249 H   0  0  0  0  0  0
  -17.5017  -31.6267   24.5161 H   0  0  0  0  0  0
  -15.5358  -30.2982   23.7655 H   0  0  0  0  0  0
  -15.8678  -28.0816   22.7072 H   0  0  0  0  0  0
  -24.5875  -30.7111   25.7768 H   0  0  0  0  0  0
  -24.8925  -32.2918   26.4852 H   0  0  0  0  0  0
  -25.8014  -30.8920   27.0216 H   0  0  0  0  0  0
  -26.2957  -29.6725   24.1221 H   0  0  0  0  0  0
  -27.4002  -29.7261   25.4770 H   0  0  0  0  0  0
  -27.8851  -30.4260   23.9504 H   0  0  0  0  0  0
  -27.2621  -33.3634   26.2059 H   0  0  0  0  0  0
  -28.3847  -32.6909   25.0319 H   0  0  0  0  0  0
  -28.0712  -31.8475   26.5419 H   0  0  0  0  0  0
  -28.2589  -38.0098   24.7504 H   0  0  0  0  0  0
  -28.1079  -36.2625   24.6292 H   0  0  0  0  0  0
  -27.2296  -37.1447   25.8869 H   0  0  0  0  0  0
  -20.9393  -29.8752   21.6851 H   0  0  0  0  0  0
  -26.0160  -38.2830   24.1404 H   0  0  0  0  0  0
  -29.5853  -23.4311   17.2482 H   0  0  0  0  0  0
  -30.5476  -21.0479   16.4521 H   0  0  0  0  0  0
  -28.9651  -25.2975   17.1263 H   0  0  0  0  0  0
  -27.9686  -26.5071   17.7368 H   0  0  0  0  0  0
  -27.3477  -24.8594   17.6751 H   0  0  0  0  0  0
  -30.8187  -24.7550   18.7060 H   0  0  0  0  0  0
  -30.6948  -25.4088   20.3251 H   0  0  0  0  0  0
  -30.5030  -26.4588   18.9300 H   0  0  0  0  0  0
  -28.3068  -20.4853   21.2035 H   0  0  0  0  0  0
  -30.0280  -20.2991   21.3868 H   0  0  0  0  0  0
  -28.4853  -18.3250   19.5358 H   0  0  0  0  0  0
  -28.2869  -18.2036   21.2330 H   0  0  0  0  0  0
  -27.4890  -23.4343   19.9746 H   0  0  0  0  0  0
  -28.9403  -23.5863   20.9135 H   0  0  0  0  0  0
  -30.7261  -17.5672   21.5552 H   0  0  0  0  0  0
  -30.9141  -17.5082   19.8333 H   0  0  0  0  0  0
  -30.2588  -19.5148   18.4062 H   0  0  0  0  0  0
  -28.8414  -15.6746   20.8737 H   0  0  0  0  0  0
  1 25  1  0  0  0
  1 30  2  0  0  0
  1 83  1  0  0  0
  2  3  1  0  0  0
  2 25  1  0  0  0
  2 84  1  0  0  0
  2 85  1  0  0  0
  3  4  1  0  0  0
  3 86  1  0  0  0
  3 87  1  0  0  0
  4  5  1  0  0  0
  4 88  1  0  0  0
  4 89  1  0  0  0
  5  6  1  0  0  0
  5 26  1  0  0  0
  5 90  1  0  0  0
  6 25  1  0  0  0
  6 91  1  0  0  0
  6 92  1  0  0  0
  7  8  2  0  0  0
  7 26  1  0  0  0
  7 29  1  0  0  0
  8  9  1  0  0  0
  8 22  1  0  0  0
  9 10  1  0  0  0
  9 27  2  0  0  0
 10 11  2  0  0  0
 10 15  1  0  0  0
 11 12  1  0  0  0
 11 93  1  0  0  0
 12 13  2  0  0  0
 12 94  1  0  0  0
 13 14  1  0  0  0
 13 31  1  0  0  0
 14 15  2  0  0  0
 14 95  1  0  0  0
 15 96  1  0  0  0
 16 17  2  0  0  0
 16 21  1  0  0  0
 16 31  1  0  0  0
 17 18  1  0  0  0
 17 97  1  0  0  0
 18 19  2  0  0  0
 18 98  1  0  0  0
 19 20  1  0  0  0
 19 24  1  0  0  0
 20 21  2  0  0  0
 20 99  1  0  0  0
 21 23  1  0  0  0
 22 28  1  0  0  0
 22 32  2  0  0  0
 26 27  1  0  0  0
 28100  1  0  0  0
 28101  1  0  0  0
 29102  1  0  0  0
 29103  1  0  0  0
 33 34  1  0  0  0
 33 66  1  0  0  0
 33 70  2  0  0  0
 34 36  1  0  0  0
 34 59  1  0  0  0
 34104  1  0  0  0
 35 44  2  0  0  0
 35 45  1  0  0  0
 35 68  1  0  0  0
 36 56  1  0  0  0
 36105  1  0  0  0
 37 39  1  0  0  0
 37 47  1  0  0  0
 37 66  1  0  0  0
 37106  1  0  0  0
 38 43  2  0  0  0
 38 46  1  0  0  0
 38 47  1  0  0  0
 39 64  1  0  0  0
 39 67  2  0  0  0
 40 52  1  0  0  0
 40 53  2  0  0  0
 40 58  1  0  0  0
 41107  1  0  0  0
 41108  1  0  0  0
 41109  1  0  0  0
 41 48  1  0  0  0
 42 43  1  0  0  0
 42 66  1  0  0  0
 42110  1  0  0  0
 42111  1  0  0  0
 43 44  1  0  0  0
 44112  1  0  0  0
 45 46  2  0  0  0
 45113  1  0  0  0
 46114  1  0  0  0
 47115  1  0  0  0
 47116  1  0  0  0
 48 56  1  0  0  0
 48 65  1  0  0  0
 48117  1  0  0  0
 49 50  1  0  0  0
 49 53  1  0  0  0
 49 64  1  0  0  0
 49118  1  0  0  0
 50 51  1  0  0  0
 50119  1  0  0  0
 50120  1  0  0  0
 51 52  1  0  0  0
 51121  1  0  0  0
 51122  1  0  0  0
 52123  1  0  0  0
 52124  1  0  0  0
 53 54  1  0  0  0
 54 55  2  0  0  0
 54125  1  0  0  0
 55 57  1  0  0  0
 55126  1  0  0  0
 56 69  2  0  0  0
 57 58  2  0  0  0
 57127  1  0  0  0
 58128  1  0  0  0
 59 60  1  0  0  0
 59 61  1  0  0  0
 59 62  1  0  0  0
 60129  1  0  0  0
 60130  1  0  0  0
 60131  1  0  0  0
 61132  1  0  0  0
 61133  1  0  0  0
 61134  1  0  0  0
 62135  1  0  0  0
 62136  1  0  0  0
 62137  1  0  0  0
 63 65  1  0  0  0
 63138  1  0  0  0
 63139  1  0  0  0
 63140  1  0  0  0
 64141  1  0  0  0
 65142  1  0  0  0
 68 80  1  0  0  0
 71 72  2  0  0  0
 71 81  1  0  0  0
 71143  1  0  0  0
 72 82  1  0  0  0
 72144  1  0  0  0
 73 76  1  0  0  0
 73 81  1  0  0  0
 73 82  2  0  0  0
 74145  1  0  0  0
 74146  1  0  0  0
 74147  1  0  0  0
 74 80  1  0  0  0
 75 80  1  0  0  0
 75148  1  0  0  0
 75149  1  0  0  0
 75150  1  0  0  0
 76 77  1  0  0  0
 76151  1  0  0  0
 76152  1  0  0  0
 77 79  1  0  0  0
 77153  1  0  0  0
 77154  1  0  0  0
 78 80  1  0  0  0
 78 81  1  0  0  0
 78155  1  0  0  0
 78156  1  0  0  0
 79 83  1  0  0  0
 79157  1  0  0  0
 79158  1  0  0  0
 82159  1  0  0  0
 83160  1  0  0  0
M  CHG  1  82   1
M  ISO  4   1 100  68 101  80 101  83 100
M  END
> <chiral flag>
0

> <version>
0

> <s_m_source_file>
/data/baiqing/PycharmProjects/Reinvent-master-3.2/result/LINK_invent/BTK/process_docking_weight1_custom_sum_contain_oxygen_bond_distance_aromatic_linkinvent_7_9_3/rearranged_h_0073.sdf

> <i_m_source_file_index>
17

> <r_mmod_Potential_Energy-OPLS-2005>
187.427978515625

> <r_mmod_Stretch_Energy-OPLS-2005>
162.262466430664

> <r_mmod_Bend_Energy-OPLS-2005>
251.548782348633

> <r_mmod_Torsional_Energy-OPLS-2005>
226.74250793457

> <r_mmod_Improper_Torsional_Energy-OPLS-2005>
4.76253366470337

> <r_mmod_Van_der_Waal_Energy-OPLS-2005>
126.950668334961

> <r_mmod_Electrostatic_Energy-OPLS-2005>
-232.832366943359

> <r_mmod_Solvation_Energy-OPLS-2005>
-434.443450927734

> <b_mmod_Minimization_Converged-OPLS-2005>
0

> <r_mmod_RMS_Derivative-OPLS-2005>
1.44849753379822

$$$$
17
                    3D
 Structure written by MMmdl.
169177  0  0  1  0            999 V2000
  -30.6770  -14.5725   20.6075 C   0  0  0  0  0  0
  -30.4380  -12.3864   19.4199 C   0  0  0  0  0  0
  -29.4972  -12.5266   18.2051 C   0  0  0  0  0  0
  -28.0203  -12.3696   18.6203 C   0  0  0  0  0  0
  -27.6589  -13.2133   19.8718 C   0  0  2  0  0  0
  -28.7071  -13.0020   20.9837 C   0  0  0  0  0  0
  -25.2580  -13.8163   20.5701 C   0  0  0  0  0  0
  -24.1833  -13.0442   20.9180 C   0  0  0  0  0  0
  -24.6394  -11.6906   20.8722 C   0  0  0  0  0  0
  -23.9066  -10.4282   21.0396 C   0  0  0  0  0  0
  -24.3626   -9.4193   21.9166 C   0  0  0  0  0  0
  -23.6296   -8.2228   22.0754 C   0  0  0  0  0  0
  -22.4268   -8.0265   21.3559 C   0  0  0  0  0  0
  -21.9896   -9.0242   20.4677 C   0  0  0  0  0  0
  -22.7221  -10.2124   20.3072 C   0  0  0  0  0  0
  -21.6855   -6.0729   22.5287 C   0  0  0  0  0  0
  -21.4022   -6.5640   23.8224 C   0  0  0  0  0  0
  -21.3670   -5.6796   24.9187 C   0  0  0  0  0  0
  -21.6034   -4.3060   24.7230 C   0  0  0  0  0  0
  -21.8818   -3.8143   23.4358 C   0  0  0  0  0  0
  -21.9204   -4.6956   22.3411 C   0  0  0  0  0  0
  -22.7847  -13.5247   21.1825 C   0  0  0  0  0  0
  -22.1683   -4.2148   21.0984 F   0  0  0  0  0  0
  -21.5605   -3.4548   25.7736 F   0  0  0  0  0  0
  -30.0211  -13.3770   20.4322 N   0  0  0  0  0  0
  -26.3020  -12.9346   20.3371 N   0  0  0  0  0  0
  -25.9330  -11.6501   20.5761 N   0  0  0  0  0  0
  -22.0468  -12.8278   22.0388 N   0  0  0  0  0  0
  -25.4272  -15.1885   20.4127 N   0  0  0  0  0  0
  -31.7742  -14.7546   20.0669 O   0  0  0  0  0  0
  -21.6636   -6.8861   21.4245 O   0  0  0  0  0  0
  -22.3542  -14.5549   20.6651 O   0  0  0  0  0  0
  -24.6227  -31.8637   23.2066 C   0  0  0  0  0  0
  -25.9090  -32.4801   23.8385 C   0  0  1  0  0  0
  -27.2287  -27.3573   20.0985 C   0  0  0  0  0  0
  -25.5914  -33.8595   24.2302 N   0  0  0  0  0  0
  -23.4150  -30.4892   21.5492 C   0  0  2  0  0  0
  -24.8604  -28.9515   20.1113 C   0  0  0  0  0  0
  -22.7464  -29.4640   22.4955 C   0  0  0  0  0  0
  -18.0283  -28.1388   22.8490 C   0  0  0  0  0  0
  -24.1490  -36.7303   23.2640 C   0  0  0  0  0  0
  -25.9538  -30.8037   21.3753 C   0  0  0  0  0  0
  -26.0281  -29.4350   20.7145 C   0  0  0  0  0  0
  -27.2136  -28.6474   20.7027 C   0  0  0  0  0  0
  -26.0360  -26.9212   19.4715 C   0  0  0  0  0  0
  -24.8638  -27.6971   19.4850 C   0  0  0  0  0  0
  -23.6274  -29.8270   20.1640 C   0  0  0  0  0  0
  -25.4113  -36.3099   24.0336 C   0  0  1  0  0  0
  -20.5883  -28.3689   23.1294 C   0  0  2  0  0  0
  -20.6775  -26.9415   22.5414 C   0  0  0  0  0  0
  -19.5750  -26.6386   21.5218 C   0  0  0  0  0  0
  -18.1930  -26.7931   22.1629 C   0  0  0  0  0  0
  -19.1541  -28.8852   23.2889 C   0  0  0  0  0  0
  -18.9462  -30.1451   23.8904 C   0  0  0  0  0  0
  -17.6462  -30.6589   24.0566 C   0  0  0  0  0  0
  -25.9043  -34.9460   23.5117 C   0  0  0  0  0  0
  -16.5349  -29.9089   23.6332 C   0  0  0  0  0  0
  -16.7272  -28.6509   23.0349 C   0  0  0  0  0  0
  -26.4487  -31.6599   25.0739 C   0  0  0  0  0  0
  -25.3722  -31.3720   26.1467 C   0  0  0  0  0  0
  -27.0336  -30.3029   24.6173 C   0  0  0  0  0  0
  -27.6059  -32.4328   25.7498 C   0  0  0  0  0  0
  -27.5581  -37.1804   24.8466 C   0  0  0  0  0  0
  -21.4185  -29.3042   22.3691 N   0  0  0  0  0  0
  -26.4293  -37.3787   23.9409 N   0  0  0  0  0  0
  -24.6820  -31.0678   22.1008 N   0  0  0  0  0  0
  -23.4203  -28.8168   23.3016 O   0  0  0  0  0  0
  -28.3636  -26.5391   20.1412 O   0  0  0  0  0  0
  -26.5614  -34.8921   22.4685 O   0  0  0  0  0  0
  -23.5398  -32.1416   23.7415 O   0  0  0  0  0  0
  -31.0415  -19.2645   20.1060 C   0  0  0  0  0  0
  -31.0760  -17.8548   20.2747 C   0  0  0  0  0  0
  -29.9604  -20.0322   20.6104 C   0  0  0  0  0  0
  -30.0179  -17.1927   20.9425 C   0  0  0  0  0  0
  -28.9008  -19.2808   21.1774 C   0  0  0  0  0  0
  -27.6687  -19.9443   21.7592 C   0  0  0  0  0  0
  -29.6261  -16.2083   24.0058 C   0  0  0  0  0  0
  -31.0590  -14.2571   23.4785 C   0  0  0  0  0  0
  -30.0946  -21.5905   20.7168 C   0  0  0  0  0  0
  -29.0348  -22.5756   20.0923 C   0  0  0  0  0  0
  -29.3057  -24.1152   20.3530 C   0  0  0  0  0  0
  -28.1839  -25.1070   19.8754 C   0  0  0  0  0  0
  -31.9541  -16.5915   23.0980 C   0  0  0  0  0  0
  -30.0798  -15.7222   21.5272 C   0  0  2  0  0  0
  -30.6874  -15.6931   23.0004 C   0  0  0  0  0  0
  -28.9318  -17.9260   21.3140 N   0  0  0  0  0  0
  -32.5680  -16.5166   24.3745 O   0  0  0  0  0  0
  -31.4761  -12.5158   19.1093 H   0  0  0  0  0  0
  -30.3809  -11.3772   19.8321 H   0  0  0  0  0  0
  -29.7514  -11.7909   17.4400 H   0  0  0  0  0  0
  -29.6428  -13.5041   17.7420 H   0  0  0  0  0  0
  -27.8423  -11.3139   18.8284 H   0  0  0  0  0  0
  -27.3644  -12.6275   17.7876 H   0  0  0  0  0  0
  -27.6959  -14.2623   19.5764 H   0  0  0  0  0  0
  -28.7189  -11.9537   21.2852 H   0  0  0  0  0  0
  -28.4339  -13.5371   21.8901 H   0  0  0  0  0  0
  -25.2787   -9.5660   22.4721 H   0  0  0  0  0  0
  -24.0010   -7.4623   22.7481 H   0  0  0  0  0  0
  -21.0809   -8.8768   19.9006 H   0  0  0  0  0  0
  -22.3665  -10.9661   19.6194 H   0  0  0  0  0  0
  -21.2010   -7.6151   23.9724 H   0  0  0  0  0  0
  -21.1501   -6.0525   25.9090 H   0  0  0  0  0  0
  -22.0584   -2.7602   23.2856 H   0  0  0  0  0  0
  -22.4099  -12.0000   22.4874 H   0  0  0  0  0  0
  -21.1085  -13.1340   22.2557 H   0  0  0  0  0  0
  -24.6597  -15.8416   20.5309 H   0  0  0  0  0  0
  -26.2885  -15.6358   20.1241 H   0  0  0  0  0  0
  -26.7152  -32.5487   23.1136 H   0  0  0  0  0  0
  -25.0056  -33.9747   25.0446 H   0  0  0  0  0  0
  -22.7070  -31.3089   21.4095 H   0  0  0  0  0  0
  -23.3753  -35.9632   23.3310 H   0  0  0  0  0  0
  -24.3581  -36.8916   22.2053 H   0  0  0  0  0  0
  -23.7238  -37.6504   23.6656 H   0  0  0  0  0  0
  -26.0820  -31.5705   20.6103 H   0  0  0  0  0  0
  -26.8361  -30.8503   22.0031 H   0  0  0  0  0  0
  -28.1095  -29.0134   21.1831 H   0  0  0  0  0  0
  -25.9782  -25.9698   18.9646 H   0  0  0  0  0  0
  -23.9691  -27.3221   19.0073 H   0  0  0  0  0  0
  -23.7411  -30.6050   19.4084 H   0  0  0  0  0  0
  -22.7479  -29.2542   19.8637 H   0  0  0  0  0  0
  -25.1286  -36.1964   25.0828 H   0  0  0  0  0  0
  -20.9972  -28.3261   24.1416 H   0  0  0  0  0  0
  -20.5693  -26.2292   23.3612 H   0  0  0  0  0  0
  -21.6641  -26.7453   22.1193 H   0  0  0  0  0  0
  -19.6915  -25.6300   21.1239 H   0  0  0  0  0  0
  -19.6690  -27.3205   20.6756 H   0  0  0  0  0  0
  -17.4199  -26.6687   21.4032 H   0  0  0  0  0  0
  -18.0324  -26.0080   22.9029 H   0  0  0  0  0  0
  -19.7935  -30.7268   24.2283 H   0  0  0  0  0  0
  -17.5013  -31.6275   24.5165 H   0  0  0  0  0  0
  -15.5350  -30.2986   23.7655 H   0  0  0  0  0  0
  -15.8677  -28.0828   22.7051 H   0  0  0  0  0  0
  -24.5903  -30.7068   25.7788 H   0  0  0  0  0  0
  -24.8902  -32.2872   26.4906 H   0  0  0  0  0  0
  -25.8043  -30.8886   27.0236 H   0  0  0  0  0  0
  -26.2905  -29.6783   24.1197 H   0  0  0  0  0  0
  -27.4049  -29.7284   25.4669 H   0  0  0  0  0  0
  -27.8764  -30.4342   23.9384 H   0  0  0  0  0  0
  -27.2687  -33.3632   26.2085 H   0  0  0  0  0  0
  -28.3855  -32.6883   25.0308 H   0  0  0  0  0  0
  -28.0743  -31.8445   26.5408 H   0  0  0  0  0  0
  -28.2595  -38.0105   24.7512 H   0  0  0  0  0  0
  -28.1077  -36.2631   24.6290 H   0  0  0  0  0  0
  -27.2293  -37.1447   25.8868 H   0  0  0  0  0  0
  -20.9361  -29.8775   21.6914 H   0  0  0  0  0  0
  -26.0186  -38.2865   24.1405 H   0  0  0  0  0  0
  -31.8982  -19.7583   19.6719 H   0  0  0  0  0  0
  -31.9628  -17.3133   19.9751 H   0  0  0  0  0  0
  -27.9429  -20.7329   22.4597 H   0  0  0  0  0  0
  -27.0453  -19.2293   22.2967 H   0  0  0  0  0  0
  -27.0608  -20.3742   20.9641 H   0  0  0  0  0  0
  -29.9736  -16.1476   25.0378 H   0  0  0  0  0  0
  -28.7054  -15.6280   23.9494 H   0  0  0  0  0  0
  -29.3692  -17.2518   23.8273 H   0  0  0  0  0  0
  -31.2986  -14.2278   24.5410 H   0  0  0  0  0  0
  -31.9277  -13.8592   22.9502 H   0  0  0  0  0  0
  -30.2367  -13.5555   23.3477 H   0  0  0  0  0  0
  -31.0716  -21.8640   20.3159 H   0  0  0  0  0  0
  -30.1674  -21.8119   21.7819 H   0  0  0  0  0  0
  -28.0489  -22.3466   20.4898 H   0  0  0  0  0  0
  -28.9732  -22.4026   19.0169 H   0  0  0  0  0  0
  -30.2485  -24.3968   19.8824 H   0  0  0  0  0  0
  -29.4513  -24.2615   21.4239 H   0  0  0  0  0  0
  -27.2633  -24.7676   20.3525 H   0  0  0  0  0  0
  -28.0485  -24.9791   18.8000 H   0  0  0  0  0  0
  -31.7097  -17.6414   22.9279 H   0  0  0  0  0  0
  -32.6889  -16.3114   22.3416 H   0  0  0  0  0  0
  -29.0241  -15.4900   21.6150 H   0  0  0  0  0  0
  -32.8018  -15.6071   24.5268 H   0  0  0  0  0  0
  1 25  1  0  0  0
  1 30  2  0  0  0
  1 84  1  0  0  0
  2  3  1  0  0  0
  2 25  1  0  0  0
  2 88  1  0  0  0
  2 89  1  0  0  0
  3  4  1  0  0  0
  3 90  1  0  0  0
  3 91  1  0  0  0
  4  5  1  0  0  0
  4 92  1  0  0  0
  4 93  1  0  0  0
  5  6  1  0  0  0
  5 26  1  0  0  0
  5 94  1  0  0  0
  6 25  1  0  0  0
  6 95  1  0  0  0
  6 96  1  0  0  0
  7  8  2  0  0  0
  7 26  1  0  0  0
  7 29  1  0  0  0
  8  9  1  0  0  0
  8 22  1  0  0  0
  9 10  1  0  0  0
  9 27  2  0  0  0
 10 11  2  0  0  0
 10 15  1  0  0  0
 11 12  1  0  0  0
 11 97  1  0  0  0
 12 13  2  0  0  0
 12 98  1  0  0  0
 13 14  1  0  0  0
 13 31  1  0  0  0
 14 15  2  0  0  0
 14 99  1  0  0  0
 15100  1  0  0  0
 16 17  2  0  0  0
 16 21  1  0  0  0
 16 31  1  0  0  0
 17 18  1  0  0  0
 17101  1  0  0  0
 18 19  2  0  0  0
 18102  1  0  0  0
 19 20  1  0  0  0
 19 24  1  0  0  0
 20 21  2  0  0  0
 20103  1  0  0  0
 21 23  1  0  0  0
 22 28  1  0  0  0
 22 32  2  0  0  0
 26 27  1  0  0  0
 28104  1  0  0  0
 28105  1  0  0  0
 29106  1  0  0  0
 29107  1  0  0  0
 33 34  1  0  0  0
 33 66  1  0  0  0
 33 70  2  0  0  0
 34 36  1  0  0  0
 34 59  1  0  0  0
 34108  1  0  0  0
 35 44  2  0  0  0
 35 45  1  0  0  0
 35 68  1  0  0  0
 36 56  1  0  0  0
 36109  1  0  0  0
 37 39  1  0  0  0
 37 47  1  0  0  0
 37 66  1  0  0  0
 37110  1  0  0  0
 38 43  2  0  0  0
 38 46  1  0  0  0
 38 47  1  0  0  0
 39 64  1  0  0  0
 39 67  2  0  0  0
 40 52  1  0  0  0
 40 53  2  0  0  0
 40 58  1  0  0  0
 41111  1  0  0  0
 41112  1  0  0  0
 41113  1  0  0  0
 41 48  1  0  0  0
 42 43  1  0  0  0
 42 66  1  0  0  0
 42114  1  0  0  0
 42115  1  0  0  0
 43 44  1  0  0  0
 44116  1  0  0  0
 45 46  2  0  0  0
 45117  1  0  0  0
 46118  1  0  0  0
 47119  1  0  0  0
 47120  1  0  0  0
 48 56  1  0  0  0
 48 65  1  0  0  0
 48121  1  0  0  0
 49 50  1  0  0  0
 49 53  1  0  0  0
 49 64  1  0  0  0
 49122  1  0  0  0
 50 51  1  0  0  0
 50123  1  0  0  0
 50124  1  0  0  0
 51 52  1  0  0  0
 51125  1  0  0  0
 51126  1  0  0  0
 52127  1  0  0  0
 52128  1  0  0  0
 53 54  1  0  0  0
 54 55  2  0  0  0
 54129  1  0  0  0
 55 57  1  0  0  0
 55130  1  0  0  0
 56 69  2  0  0  0
 57 58  2  0  0  0
 57131  1  0  0  0
 58132  1  0  0  0
 59 60  1  0  0  0
 59 61  1  0  0  0
 59 62  1  0  0  0
 60133  1  0  0  0
 60134  1  0  0  0
 60135  1  0  0  0
 61136  1  0  0  0
 61137  1  0  0  0
 61138  1  0  0  0
 62139  1  0  0  0
 62140  1  0  0  0
 62141  1  0  0  0
 63 65  1  0  0  0
 63142  1  0  0  0
 63143  1  0  0  0
 63144  1  0  0  0
 64145  1  0  0  0
 65146  1  0  0  0
 68 82  1  0  0  0
 71 72  2  0  0  0
 71 73  1  0  0  0
 71147  1  0  0  0
 72 74  1  0  0  0
 72148  1  0  0  0
 73 75  2  0  0  0
 73 79  1  0  0  0
 74 84  1  0  0  0
 74 86  2  0  0  0
 75 76  1  0  0  0
 75 86  1  0  0  0
 76149  1  0  0  0
 76150  1  0  0  0
 76151  1  0  0  0
 77152  1  0  0  0
 77153  1  0  0  0
 77154  1  0  0  0
 77 85  1  0  0  0
 78 85  1  0  0  0
 78155  1  0  0  0
 78156  1  0  0  0
 78157  1  0  0  0
 79 80  1  0  0  0
 79158  1  0  0  0
 79159  1  0  0  0
 80 81  1  0  0  0
 80160  1  0  0  0
 80161  1  0  0  0
 81 82  1  0  0  0
 81162  1  0  0  0
 81163  1  0  0  0
 82164  1  0  0  0
 82165  1  0  0  0
 83 85  1  0  0  0
 83 87  1  0  0  0
 83166  1  0  0  0
 83167  1  0  0  0
 84 85  1  0  0  0
 84168  1  0  0  0
 87169  1  0  0  0
M  ISO  4   1 100  68 101  82 101  84 100
M  END
> <chiral flag>
0

> <version>
0

> <s_m_source_file>
/data/baiqing/PycharmProjects/Reinvent-master-3.2/result/LINK_invent/BTK/process_docking_weight1_custom_sum_contain_oxygen_bond_distance_aromatic_linkinvent_7_9_3/rearranged_h_0073.sdf

> <i_m_source_file_index>
18

> <r_mmod_Potential_Energy-OPLS-2005>
6.14709854125977

> <r_mmod_Stretch_Energy-OPLS-2005>
78.2034606933594

> <r_mmod_Bend_Energy-OPLS-2005>
141.383895874023

> <r_mmod_Torsional_Energy-OPLS-2005>
177.110946655273

> <r_mmod_Improper_Torsional_Energy-OPLS-2005>
4.07902717590332

> <r_mmod_Van_der_Waal_Energy-OPLS-2005>
160.990478515625

> <r_mmod_Electrostatic_Energy-OPLS-2005>
-387.905700683594

> <r_mmod_Solvation_Energy-OPLS-2005>
-197.287567138672

> <b_mmod_Minimization_Converged-OPLS-2005>
0

> <r_mmod_RMS_Derivative-OPLS-2005>
2.01389837265015

$$$$
18
                    3D
 Structure written by MMmdl.
151159  0  0  1  0            999 V2000
  -30.5770  -14.8837   20.5184 C   0  0  0  0  0  0
  -30.4418  -12.5593   19.5000 C   0  0  0  0  0  0
  -29.5254  -12.5440   18.2540 C   0  0  0  0  0  0
  -28.0542  -12.3323   18.6570 C   0  0  0  0  0  0
  -27.6365  -13.2405   19.8413 C   0  0  2  0  0  0
  -28.6695  -13.2032   20.9825 C   0  0  0  0  0  0
  -25.2498  -13.8216   20.5683 C   0  0  0  0  0  0
  -24.1797  -13.0453   20.9205 C   0  0  0  0  0  0
  -24.6402  -11.6933   20.8731 C   0  0  0  0  0  0
  -23.9082  -10.4304   21.0401 C   0  0  0  0  0  0
  -24.3637   -9.4214   21.9174 C   0  0  0  0  0  0
  -23.6307   -8.2250   22.0747 C   0  0  0  0  0  0
  -22.4278   -8.0291   21.3549 C   0  0  0  0  0  0
  -21.9916   -9.0268   20.4650 C   0  0  0  0  0  0
  -22.7255  -10.2143   20.3051 C   0  0  0  0  0  0
  -21.6861   -6.0734   22.5281 C   0  0  0  0  0  0
  -21.4021   -6.5633   23.8217 C   0  0  0  0  0  0
  -21.3661   -5.6785   24.9178 C   0  0  0  0  0  0
  -21.6049   -4.3050   24.7228 C   0  0  0  0  0  0
  -21.8821   -3.8139   23.4349 C   0  0  0  0  0  0
  -21.9194   -4.6958   22.3402 C   0  0  0  0  0  0
  -22.7819  -13.5226   21.1881 C   0  0  0  0  0  0
  -22.1665   -4.2139   21.0982 F   0  0  0  0  0  0
  -21.5628   -3.4537   25.7743 F   0  0  0  0  0  0
  -29.9666  -13.6283   20.4273 N   0  0  0  0  0  0
  -26.2904  -12.9427   20.3194 N   0  0  0  0  0  0
  -25.9324  -11.6568   20.5691 N   0  0  0  0  0  0
  -22.0465  -12.8208   22.0447 N   0  0  0  0  0  0
  -25.4219  -15.1949   20.4160 N   0  0  0  0  0  0
  -31.7107  -14.9957   20.0357 O   0  0  0  0  0  0
  -21.6646   -6.8882   21.4246 O   0  0  0  0  0  0
  -22.3493  -14.5520   20.6720 O   0  0  0  0  0  0
  -24.6424  -31.8460   23.1911 C   0  0  0  0  0  0
  -25.9201  -32.4714   23.8301 C   0  0  1  0  0  0
  -27.2160  -27.1594   20.1515 C   0  0  0  0  0  0
  -25.5956  -33.8519   24.2214 N   0  0  0  0  0  0
  -23.4460  -30.4678   21.5353 C   0  0  2  0  0  0
  -24.8940  -28.8997   20.1101 C   0  0  0  0  0  0
  -22.7575  -29.4565   22.4861 C   0  0  0  0  0  0
  -18.0312  -28.1404   22.8476 C   0  0  0  0  0  0
  -24.1491  -36.7272   23.2637 C   0  0  0  0  0  0
  -26.0002  -30.7274   21.3880 C   0  0  0  0  0  0
  -26.0703  -29.3411   20.7296 C   0  0  0  0  0  0
  -27.2318  -28.4855   20.7357 C   0  0  0  0  0  0
  -26.0166  -26.8175   19.4862 C   0  0  0  0  0  0
  -24.8785  -27.6507   19.4728 C   0  0  0  0  0  0
  -23.6719  -29.8017   20.1528 C   0  0  0  0  0  0
  -25.4121  -36.3053   24.0317 C   0  0  1  0  0  0
  -20.5926  -28.3742   23.1232 C   0  0  2  0  0  0
  -20.6809  -26.9454   22.5395 C   0  0  0  0  0  0
  -19.5774  -26.6389   21.5218 C   0  0  0  0  0  0
  -18.1955  -26.7942   22.1627 C   0  0  0  0  0  0
  -19.1568  -28.8890   23.2846 C   0  0  0  0  0  0
  -18.9481  -30.1480   23.8881 C   0  0  0  0  0  0
  -17.6477  -30.6600   24.0565 C   0  0  0  0  0  0
  -25.9066  -34.9419   23.5071 C   0  0  0  0  0  0
  -16.5369  -29.9094   23.6332 C   0  0  0  0  0  0
  -16.7296  -28.6511   23.0355 C   0  0  0  0  0  0
  -26.4517  -31.6578   25.0740 C   0  0  0  0  0  0
  -25.3697  -31.3774   26.1439 C   0  0  0  0  0  0
  -27.0365  -30.2973   24.6301 C   0  0  0  0  0  0
  -27.6066  -32.4326   25.7517 C   0  0  0  0  0  0
  -27.5582  -37.1799   24.8464 C   0  0  0  0  0  0
  -21.4270  -29.3069   22.3612 N   0  0  0  0  0  0
  -26.4293  -37.3762   23.9404 N   0  0  0  0  0  0
  -24.7161  -31.0341   22.0937 N   0  0  0  0  0  0
  -23.4219  -28.8101   23.3003 O   0  0  0  0  0  0
  -28.2710  -26.1852   20.2393 O   0  0  0  0  0  0
  -26.5654  -34.8914   22.4650 O   0  0  0  0  0  0
  -23.5542  -32.1319   23.7139 O   0  0  0  0  0  0
  -29.7475  -19.4325   19.3654 C   0  0  0  0  0  0
  -29.1262  -18.3841   21.7150 C   0  0  0  0  0  0
  -29.1425  -20.3333   20.3183 C   0  0  0  0  0  0
  -29.7268  -17.4546   20.7735 C   0  0  0  0  0  0
  -29.8277  -15.7302   22.6164 C   0  0  0  0  0  0
  -28.5029  -21.8034   19.9455 C   0  0  0  0  0  0
  -28.9210  -23.3459   20.4331 C   0  0  0  0  0  0
  -27.9975  -24.6799   20.0075 C   0  0  0  0  0  0
  -28.8437  -19.7321   21.5104 N   0  0  0  0  0  0
  -30.0291  -18.0770   19.5794 N   0  0  0  0  0  0
  -29.9440  -15.9792   21.1657 N   0  0  0  0  0  0
  -31.4781  -12.7100   19.1937 H   0  0  0  0  0  0
  -30.4267  -11.5885   19.9982 H   0  0  0  0  0  0
  -29.8416  -11.7624   17.5618 H   0  0  0  0  0  0
  -29.6284  -13.4871   17.7151 H   0  0  0  0  0  0
  -27.9353  -11.2848   18.9360 H   0  0  0  0  0  0
  -27.3993  -12.4950   17.8007 H   0  0  0  0  0  0
  -27.6207  -14.2583   19.4504 H   0  0  0  0  0  0
  -28.7370  -12.2017   21.4105 H   0  0  0  0  0  0
  -28.3259  -13.8456   21.7890 H   0  0  0  0  0  0
  -25.2791   -9.5688   22.4741 H   0  0  0  0  0  0
  -24.0026   -7.4632   22.7454 H   0  0  0  0  0  0
  -21.0848   -8.8793   19.8949 H   0  0  0  0  0  0
  -22.3720  -10.9685   19.6156 H   0  0  0  0  0  0
  -21.2019   -7.6142   23.9723 H   0  0  0  0  0  0
  -21.1486   -6.0513   25.9085 H   0  0  0  0  0  0
  -22.0597   -2.7599   23.2857 H   0  0  0  0  0  0
  -22.4084  -11.9889   22.4872 H   0  0  0  0  0  0
  -21.1077  -13.1232   22.2631 H   0  0  0  0  0  0
  -24.6629  -15.8557   20.5431 H   0  0  0  0  0  0
  -26.2817  -15.6341   20.1129 H   0  0  0  0  0  0
  -26.7280  -32.5321   23.1048 H   0  0  0  0  0  0
  -25.0123  -33.9635   25.0376 H   0  0  0  0  0  0
  -22.7491  -31.2944   21.3836 H   0  0  0  0  0  0
  -23.3759  -35.9598   23.3277 H   0  0  0  0  0  0
  -24.3594  -36.8915   22.2058 H   0  0  0  0  0  0
  -23.7226  -37.6456   23.6677 H   0  0  0  0  0  0
  -26.1550  -31.4830   20.6165 H   0  0  0  0  0  0
  -26.8711  -30.7767   22.0301 H   0  0  0  0  0  0
  -28.1263  -28.8132   21.2462 H   0  0  0  0  0  0
  -25.9200  -25.8645   18.9884 H   0  0  0  0  0  0
  -23.9810  -27.3105   18.9751 H   0  0  0  0  0  0
  -23.8191  -30.5784   19.4015 H   0  0  0  0  0  0
  -22.7847  -29.2509   19.8358 H   0  0  0  0  0  0
  -25.1308  -36.1897   25.0811 H   0  0  0  0  0  0
  -21.0015  -28.3336   24.1351 H   0  0  0  0  0  0
  -20.5738  -26.2365   23.3615 H   0  0  0  0  0  0
  -21.6672  -26.7487   22.1171 H   0  0  0  0  0  0
  -19.6947  -25.6287   21.1280 H   0  0  0  0  0  0
  -19.6697  -27.3179   20.6728 H   0  0  0  0  0  0
  -17.4226  -26.6681   21.4029 H   0  0  0  0  0  0
  -18.0361  -26.0090   22.9030 H   0  0  0  0  0  0
  -19.7955  -30.7303   24.2245 H   0  0  0  0  0  0
  -17.5027  -31.6277   24.5173 H   0  0  0  0  0  0
  -15.5367  -30.2994   23.7648 H   0  0  0  0  0  0
  -15.8699  -28.0817   22.7080 H   0  0  0  0  0  0
  -24.5836  -30.7184   25.7740 H   0  0  0  0  0  0
  -24.8945  -32.2970   26.4865 H   0  0  0  0  0  0
  -25.7959  -30.8912   27.0224 H   0  0  0  0  0  0
  -26.2971  -29.6717   24.1290 H   0  0  0  0  0  0
  -27.3960  -29.7258   25.4868 H   0  0  0  0  0  0
  -27.8897  -30.4212   23.9631 H   0  0  0  0  0  0
  -27.2674  -33.3625   26.2096 H   0  0  0  0  0  0
  -28.3883  -32.6881   25.0352 H   0  0  0  0  0  0
  -28.0744  -31.8453   26.5429 H   0  0  0  0  0  0
  -28.2595  -38.0102   24.7526 H   0  0  0  0  0  0
  -28.1081  -36.2631   24.6276 H   0  0  0  0  0  0
  -27.2312  -37.1447   25.8872 H   0  0  0  0  0  0
  -20.9489  -29.8766   21.6773 H   0  0  0  0  0  0
  -26.0162  -38.2834   24.1393 H   0  0  0  0  0  0
  -29.9566  -19.7900   18.3680 H   0  0  0  0  0  0
  -28.8187  -18.0501   22.6934 H   0  0  0  0  0  0
  -30.4353  -16.4411   23.1773 H   0  0  0  0  0  0
  -30.1623  -14.7411   22.9395 H   0  0  0  0  0  0
  -28.7927  -15.8324   22.9449 H   0  0  0  0  0  0
  -27.4475  -21.6994   20.1955 H   0  0  0  0  0  0
  -28.5068  -21.8304   18.8558 H   0  0  0  0  0  0
  -29.9404  -23.5263   20.0912 H   0  0  0  0  0  0
  -28.9847  -23.3340   21.5214 H   0  0  0  0  0  0
  -27.0225  -24.4873   20.4574 H   0  0  0  0  0  0
  -27.8351  -24.5890   18.9332 H   0  0  0  0  0  0
  1 25  1  0  0  0
  1 30  2  0  0  0
  1 81  1  0  0  0
  2  3  1  0  0  0
  2 25  1  0  0  0
  2 82  1  0  0  0
  2 83  1  0  0  0
  3  4  1  0  0  0
  3 84  1  0  0  0
  3 85  1  0  0  0
  4  5  1  0  0  0
  4 86  1  0  0  0
  4 87  1  0  0  0
  5  6  1  0  0  0
  5 26  1  0  0  0
  5 88  1  0  0  0
  6 25  1  0  0  0
  6 89  1  0  0  0
  6 90  1  0  0  0
  7  8  2  0  0  0
  7 26  1  0  0  0
  7 29  1  0  0  0
  8  9  1  0  0  0
  8 22  1  0  0  0
  9 10  1  0  0  0
  9 27  2  0  0  0
 10 11  2  0  0  0
 10 15  1  0  0  0
 11 12  1  0  0  0
 11 91  1  0  0  0
 12 13  2  0  0  0
 12 92  1  0  0  0
 13 14  1  0  0  0
 13 31  1  0  0  0
 14 15  2  0  0  0
 14 93  1  0  0  0
 15 94  1  0  0  0
 16 17  2  0  0  0
 16 21  1  0  0  0
 16 31  1  0  0  0
 17 18  1  0  0  0
 17 95  1  0  0  0
 18 19  2  0  0  0
 18 96  1  0  0  0
 19 20  1  0  0  0
 19 24  1  0  0  0
 20 21  2  0  0  0
 20 97  1  0  0  0
 21 23  1  0  0  0
 22 28  1  0  0  0
 22 32  2  0  0  0
 26 27  1  0  0  0
 28 98  1  0  0  0
 28 99  1  0  0  0
 29100  1  0  0  0
 29101  1  0  0  0
 33 34  1  0  0  0
 33 66  1  0  0  0
 33 70  2  0  0  0
 34 36  1  0  0  0
 34 59  1  0  0  0
 34102  1  0  0  0
 35 44  2  0  0  0
 35 45  1  0  0  0
 35 68  1  0  0  0
 36 56  1  0  0  0
 36103  1  0  0  0
 37 39  1  0  0  0
 37 47  1  0  0  0
 37 66  1  0  0  0
 37104  1  0  0  0
 38 43  2  0  0  0
 38 46  1  0  0  0
 38 47  1  0  0  0
 39 64  1  0  0  0
 39 67  2  0  0  0
 40 52  1  0  0  0
 40 53  2  0  0  0
 40 58  1  0  0  0
 41105  1  0  0  0
 41106  1  0  0  0
 41107  1  0  0  0
 41 48  1  0  0  0
 42 43  1  0  0  0
 42 66  1  0  0  0
 42108  1  0  0  0
 42109  1  0  0  0
 43 44  1  0  0  0
 44110  1  0  0  0
 45 46  2  0  0  0
 45111  1  0  0  0
 46112  1  0  0  0
 47113  1  0  0  0
 47114  1  0  0  0
 48 56  1  0  0  0
 48 65  1  0  0  0
 48115  1  0  0  0
 49 50  1  0  0  0
 49 53  1  0  0  0
 49 64  1  0  0  0
 49116  1  0  0  0
 50 51  1  0  0  0
 50117  1  0  0  0
 50118  1  0  0  0
 51 52  1  0  0  0
 51119  1  0  0  0
 51120  1  0  0  0
 52121  1  0  0  0
 52122  1  0  0  0
 53 54  1  0  0  0
 54 55  2  0  0  0
 54123  1  0  0  0
 55 57  1  0  0  0
 55124  1  0  0  0
 56 69  2  0  0  0
 57 58  2  0  0  0
 57125  1  0  0  0
 58126  1  0  0  0
 59 60  1  0  0  0
 59 61  1  0  0  0
 59 62  1  0  0  0
 60127  1  0  0  0
 60128  1  0  0  0
 60129  1  0  0  0
 61130  1  0  0  0
 61131  1  0  0  0
 61132  1  0  0  0
 62133  1  0  0  0
 62134  1  0  0  0
 62135  1  0  0  0
 63 65  1  0  0  0
 63136  1  0  0  0
 63137  1  0  0  0
 63138  1  0  0  0
 64139  1  0  0  0
 65140  1  0  0  0
 68 78  1  0  0  0
 71 73  2  0  0  0
 71 80  1  0  0  0
 71141  1  0  0  0
 72 74  1  0  0  0
 72 79  2  0  0  0
 72142  1  0  0  0
 73 76  1  0  0  0
 73 79  1  0  0  0
 74 80  2  0  0  0
 74 81  1  0  0  0
 75 81  1  0  0  0
 75143  1  0  0  0
 75144  1  0  0  0
 75145  1  0  0  0
 76 77  1  0  0  0
 76146  1  0  0  0
 76147  1  0  0  0
 77 78  1  0  0  0
 77148  1  0  0  0
 77149  1  0  0  0
 78150  1  0  0  0
 78151  1  0  0  0
M  ISO  4   1 100  68 101  78 101  81 100
M  END
> <chiral flag>
0

> <version>
0

> <s_m_source_file>
/data/baiqing/PycharmProjects/Reinvent-master-3.2/result/LINK_invent/BTK/process_docking_weight1_custom_sum_contain_oxygen_bond_distance_aromatic_linkinvent_7_9_3/rearranged_h_0073.sdf

> <i_m_source_file_index>
19

> <r_mmod_Potential_Energy-OPLS-2005>
605.916381835938

> <r_mmod_Stretch_Energy-OPLS-2005>
230.042266845703

> <r_mmod_Bend_Energy-OPLS-2005>
254.752792358398

> <r_mmod_Torsional_Energy-OPLS-2005>
257.180206298828

> <r_mmod_Improper_Torsional_Energy-OPLS-2005>
4.78770446777344

> <r_mmod_Van_der_Waal_Energy-OPLS-2005>
151.88200378418

> <r_mmod_Electrostatic_Energy-OPLS-2005>
-238.591201782227

> <r_mmod_Solvation_Energy-OPLS-2005>
-212.273208618164

> <b_mmod_Minimization_Converged-OPLS-2005>
0

> <r_mmod_RMS_Derivative-OPLS-2005>
1.32058608531952

$$$$
19
                    3D
 Structure written by MMmdl.
167175  0  0  1  0            999 V2000
  -30.6432  -14.6628   20.5740 C   0  0  0  0  0  0
  -30.4327  -12.4386   19.4416 C   0  0  0  0  0  0
  -29.5038  -12.5384   18.2101 C   0  0  0  0  0  0
  -28.0179  -12.3929   18.6005 C   0  0  0  0  0  0
  -27.6475  -13.2246   19.8545 C   0  0  2  0  0  0
  -28.6886  -13.0154   20.9654 C   0  0  0  0  0  0
  -25.2510  -13.8210   20.5571 C   0  0  0  0  0  0
  -24.1825  -13.0426   20.9150 C   0  0  0  0  0  0
  -24.6427  -11.6920   20.8700 C   0  0  0  0  0  0
  -23.9101  -10.4308   21.0404 C   0  0  0  0  0  0
  -24.3680   -9.4222   21.9173 C   0  0  0  0  0  0
  -23.6347   -8.2259   22.0750 C   0  0  0  0  0  0
  -22.4295   -8.0333   21.3563 C   0  0  0  0  0  0
  -21.9960   -9.0273   20.4641 C   0  0  0  0  0  0
  -22.7298  -10.2144   20.3050 C   0  0  0  0  0  0
  -21.6863   -6.0786   22.5295 C   0  0  0  0  0  0
  -21.4015   -6.5670   23.8232 C   0  0  0  0  0  0
  -21.3634   -5.6818   24.9177 C   0  0  0  0  0  0
  -21.6036   -4.3078   24.7227 C   0  0  0  0  0  0
  -21.8826   -3.8186   23.4346 C   0  0  0  0  0  0
  -21.9198   -4.7019   22.3405 C   0  0  0  0  0  0
  -22.7857  -13.5205   21.1833 C   0  0  0  0  0  0
  -22.1673   -4.2191   21.0986 F   0  0  0  0  0  0
  -21.5606   -3.4571   25.7738 F   0  0  0  0  0  0
  -29.9915  -13.4499   20.4392 N   0  0  0  0  0  0
  -26.2948  -12.9402   20.3219 N   0  0  0  0  0  0
  -25.9338  -11.6543   20.5660 N   0  0  0  0  0  0
  -22.0539  -12.8152   22.0411 N   0  0  0  0  0  0
  -25.4067  -15.1931   20.3840 N   0  0  0  0  0  0
  -31.8033  -14.7301   20.1482 O   0  0  0  0  0  0
  -21.6664   -6.8933   21.4267 O   0  0  0  0  0  0
  -22.3520  -14.5486   20.6682 O   0  0  0  0  0  0
  -24.6234  -31.8599   23.1973 C   0  0  0  0  0  0
  -25.9092  -32.4778   23.8322 C   0  0  1  0  0  0
  -27.2453  -27.3197   20.1051 C   0  0  0  0  0  0
  -25.5928  -33.8591   24.2254 N   0  0  0  0  0  0
  -23.4156  -30.4800   21.5398 C   0  0  2  0  0  0
  -24.8626  -28.9222   20.1090 C   0  0  0  0  0  0
  -22.7447  -29.4643   22.4935 C   0  0  0  0  0  0
  -18.0298  -28.1400   22.8455 C   0  0  0  0  0  0
  -24.1496  -36.7300   23.2628 C   0  0  0  0  0  0
  -25.9536  -30.7858   21.3670 C   0  0  0  0  0  0
  -26.0283  -29.4101   20.7109 C   0  0  0  0  0  0
  -27.2141  -28.6197   20.7001 C   0  0  0  0  0  0
  -26.0476  -26.8639   19.5076 C   0  0  0  0  0  0
  -24.8742  -27.6503   19.5051 C   0  0  0  0  0  0
  -23.6266  -29.8036   20.1577 C   0  0  0  0  0  0
  -25.4123  -36.3088   24.0309 C   0  0  1  0  0  0
  -20.5881  -28.3702   23.1257 C   0  0  2  0  0  0
  -20.6785  -26.9437   22.5375 C   0  0  0  0  0  0
  -19.5771  -26.6393   21.5176 C   0  0  0  0  0  0
  -18.1951  -26.7941   22.1595 C   0  0  0  0  0  0
  -19.1541  -28.8865   23.2858 C   0  0  0  0  0  0
  -18.9470  -30.1465   23.8878 C   0  0  0  0  0  0
  -17.6479  -30.6590   24.0557 C   0  0  0  0  0  0
  -25.9063  -34.9463   23.5082 C   0  0  0  0  0  0
  -16.5362  -29.9086   23.6334 C   0  0  0  0  0  0
  -16.7282  -28.6508   23.0337 C   0  0  0  0  0  0
  -26.4484  -31.6612   25.0713 C   0  0  0  0  0  0
  -25.3707  -31.3753   26.1427 C   0  0  0  0  0  0
  -27.0311  -30.3024   24.6196 C   0  0  0  0  0  0
  -27.6037  -32.4342   25.7500 C   0  0  0  0  0  0
  -27.5606  -37.1792   24.8454 C   0  0  0  0  0  0
  -21.4167  -29.3058   22.3658 N   0  0  0  0  0  0
  -26.4299  -37.3784   23.9417 N   0  0  0  0  0  0
  -24.6825  -31.0599   22.0918 N   0  0  0  0  0  0
  -23.4165  -28.8218   23.3054 O   0  0  0  0  0  0
  -28.4116  -26.5349   20.1663 O   0  0  0  0  0  0
  -26.5641  -34.8920   22.4666 O   0  0  0  0  0  0
  -23.5402  -32.1436   23.7300 O   0  0  0  0  0  0
  -29.7106  -19.3904   18.5137 C   0  0  0  0  0  0
  -29.9798  -18.0862   18.0857 C   0  0  0  0  0  0
  -29.5102  -19.6362   19.8837 C   0  0  0  0  0  0
  -29.8431  -17.2854   20.2268 C   0  0  0  0  0  0
  -30.3835  -17.7898   16.6616 C   0  0  0  0  0  0
  -28.8963  -15.9144   22.1904 C   0  0  0  0  0  0
  -29.8639  -24.1767   21.4131 C   0  0  0  0  0  0
  -27.9102  -22.2116   18.5970 C   0  0  0  0  0  0
  -30.3620  -22.6851   18.7255 C   0  0  0  0  0  0
  -29.2609  -21.1009   20.4789 C   0  0  0  0  0  0
  -28.5936  -25.2237   19.4953 C   0  0  0  0  0  0
  -30.0512  -16.0406   21.1857 C   0  0  1  0  0  0
  -28.7785  -23.8648   20.3586 C   0  0  1  0  0  0
  -29.0856  -22.4592   19.5726 C   0  0  0  0  0  0
  -29.9899  -17.0490   18.9329 N   0  0  0  0  0  0
  -29.6130  -18.5419   20.7248 N   0  0  0  0  0  0
  -31.4652  -12.5735   19.1203 H   0  0  0  0  0  0
  -30.4007  -11.4352   19.8676 H   0  0  0  0  0  0
  -29.7694  -11.7820   17.4686 H   0  0  0  0  0  0
  -29.6561  -13.5026   17.7236 H   0  0  0  0  0  0
  -27.8166  -11.3348   18.7704 H   0  0  0  0  0  0
  -27.3885  -12.6971   17.7646 H   0  0  0  0  0  0
  -27.6792  -14.2759   19.5632 H   0  0  0  0  0  0
  -28.7348  -11.9566   21.2229 H   0  0  0  0  0  0
  -28.3728  -13.4866   21.8837 H   0  0  0  0  0  0
  -25.2838   -9.5695   22.4725 H   0  0  0  0  0  0
  -24.0065   -7.4671   22.7487 H   0  0  0  0  0  0
  -21.0878   -8.8841   19.8951 H   0  0  0  0  0  0
  -22.3801  -10.9704   19.6167 H   0  0  0  0  0  0
  -21.2023   -7.6185   23.9744 H   0  0  0  0  0  0
  -21.1417   -6.0534   25.9071 H   0  0  0  0  0  0
  -22.0603   -2.7657   23.2820 H   0  0  0  0  0  0
  -22.4172  -11.9873   22.4880 H   0  0  0  0  0  0
  -21.1115  -13.1135   22.2520 H   0  0  0  0  0  0
  -24.6105  -15.8171   20.4550 H   0  0  0  0  0  0
  -26.2229  -15.6438   19.9883 H   0  0  0  0  0  0
  -26.7178  -32.5432   23.1082 H   0  0  0  0  0  0
  -25.0061  -33.9764   25.0387 H   0  0  0  0  0  0
  -22.7064  -31.2993   21.3972 H   0  0  0  0  0  0
  -23.3777  -35.9613   23.3236 H   0  0  0  0  0  0
  -24.3581  -36.8991   22.2053 H   0  0  0  0  0  0
  -23.7224  -37.6465   23.6702 H   0  0  0  0  0  0
  -26.0899  -31.5493   20.5991 H   0  0  0  0  0  0
  -26.8301  -30.8300   22.0029 H   0  0  0  0  0  0
  -28.1077  -28.9940   21.1801 H   0  0  0  0  0  0
  -25.9805  -25.8800   19.0685 H   0  0  0  0  0  0
  -23.9776  -27.2530   19.0477 H   0  0  0  0  0  0
  -23.7357  -30.5796   19.3990 H   0  0  0  0  0  0
  -22.7420  -29.2349   19.8617 H   0  0  0  0  0  0
  -25.1300  -36.1925   25.0795 H   0  0  0  0  0  0
  -20.9986  -28.3292   24.1372 H   0  0  0  0  0  0
  -20.5673  -26.2338   23.3581 H   0  0  0  0  0  0
  -21.6663  -26.7463   22.1194 H   0  0  0  0  0  0
  -19.6944  -25.6300   21.1233 H   0  0  0  0  0  0
  -19.6707  -27.3172   20.6681 H   0  0  0  0  0  0
  -17.4213  -26.6647   21.4013 H   0  0  0  0  0  0
  -18.0384  -26.0095   22.9008 H   0  0  0  0  0  0
  -19.7954  -30.7286   24.2230 H   0  0  0  0  0  0
  -17.5035  -31.6264   24.5183 H   0  0  0  0  0  0
  -15.5370  -30.2986   23.7677 H   0  0  0  0  0  0
  -15.8681  -28.0831   22.7054 H   0  0  0  0  0  0
  -24.5878  -30.7120   25.7744 H   0  0  0  0  0  0
  -24.8902  -32.2913   26.4864 H   0  0  0  0  0  0
  -25.8002  -30.8914   27.0207 H   0  0  0  0  0  0
  -26.2877  -29.6784   24.1213 H   0  0  0  0  0  0
  -27.3976  -29.7284   25.4725 H   0  0  0  0  0  0
  -27.8774  -30.4295   23.9433 H   0  0  0  0  0  0
  -27.2663  -33.3658   26.2062 H   0  0  0  0  0  0
  -28.3866  -32.6882   25.0340 H   0  0  0  0  0  0
  -28.0694  -31.8478   26.5438 H   0  0  0  0  0  0
  -28.2558  -38.0151   24.7572 H   0  0  0  0  0  0
  -28.1162  -36.2681   24.6183 H   0  0  0  0  0  0
  -27.2328  -37.1321   25.8851 H   0  0  0  0  0  0
  -20.9351  -29.8775   21.6860 H   0  0  0  0  0  0
  -26.0173  -38.2848   24.1446 H   0  0  0  0  0  0
  -29.7090  -20.1743   17.7770 H   0  0  0  0  0  0
  -30.0795  -18.5924   15.9930 H   0  0  0  0  0  0
  -29.9256  -16.8639   16.3131 H   0  0  0  0  0  0
  -31.4687  -17.6814   16.6002 H   0  0  0  0  0  0
  -28.8206  -16.8233   22.7824 H   0  0  0  0  0  0
  -29.0690  -15.1131   22.9078 H   0  0  0  0  0  0
  -27.9411  -15.7739   21.6854 H   0  0  0  0  0  0
  -29.5748  -25.0312   22.0237 H   0  0  0  0  0  0
  -30.8101  -24.4567   20.9517 H   0  0  0  0  0  0
  -30.0512  -23.3444   22.0878 H   0  0  0  0  0  0
  -28.2107  -21.6223   17.7333 H   0  0  0  0  0  0
  -27.4962  -23.1229   18.1758 H   0  0  0  0  0  0
  -27.0856  -21.6908   19.0802 H   0  0  0  0  0  0
  -30.8498  -21.7631   18.4241 H   0  0  0  0  0  0
  -31.1339  -23.2356   19.2541 H   0  0  0  0  0  0
  -30.1310  -23.2400   17.8146 H   0  0  0  0  0  0
  -30.0832  -21.2589   21.1763 H   0  0  0  0  0  0
  -28.3791  -21.0122   21.1171 H   0  0  0  0  0  0
  -27.8865  -25.1122   18.6807 H   0  0  0  0  0  0
  -29.5365  -25.3561   18.9641 H   0  0  0  0  0  0
  -30.8870  -16.3742   21.8010 H   0  0  0  0  0  0
  -27.8502  -23.7118   20.9088 H   0  0  0  0  0  0
  1 25  1  0  0  0
  1 30  2  0  0  0
  1 82  1  0  0  0
  2  3  1  0  0  0
  2 25  1  0  0  0
  2 87  1  0  0  0
  2 88  1  0  0  0
  3  4  1  0  0  0
  3 89  1  0  0  0
  3 90  1  0  0  0
  4  5  1  0  0  0
  4 91  1  0  0  0
  4 92  1  0  0  0
  5  6  1  0  0  0
  5 26  1  0  0  0
  5 93  1  0  0  0
  6 25  1  0  0  0
  6 94  1  0  0  0
  6 95  1  0  0  0
  7  8  2  0  0  0
  7 26  1  0  0  0
  7 29  1  0  0  0
  8  9  1  0  0  0
  8 22  1  0  0  0
  9 10  1  0  0  0
  9 27  2  0  0  0
 10 11  2  0  0  0
 10 15  1  0  0  0
 11 12  1  0  0  0
 11 96  1  0  0  0
 12 13  2  0  0  0
 12 97  1  0  0  0
 13 14  1  0  0  0
 13 31  1  0  0  0
 14 15  2  0  0  0
 14 98  1  0  0  0
 15 99  1  0  0  0
 16 17  2  0  0  0
 16 21  1  0  0  0
 16 31  1  0  0  0
 17 18  1  0  0  0
 17100  1  0  0  0
 18 19  2  0  0  0
 18101  1  0  0  0
 19 20  1  0  0  0
 19 24  1  0  0  0
 20 21  2  0  0  0
 20102  1  0  0  0
 21 23  1  0  0  0
 22 28  1  0  0  0
 22 32  2  0  0  0
 26 27  1  0  0  0
 28103  1  0  0  0
 28104  1  0  0  0
 29105  1  0  0  0
 29106  1  0  0  0
 33 34  1  0  0  0
 33 66  1  0  0  0
 33 70  2  0  0  0
 34 36  1  0  0  0
 34 59  1  0  0  0
 34107  1  0  0  0
 35 44  2  0  0  0
 35 45  1  0  0  0
 35 68  1  0  0  0
 36 56  1  0  0  0
 36108  1  0  0  0
 37 39  1  0  0  0
 37 47  1  0  0  0
 37 66  1  0  0  0
 37109  1  0  0  0
 38 43  2  0  0  0
 38 46  1  0  0  0
 38 47  1  0  0  0
 39 64  1  0  0  0
 39 67  2  0  0  0
 40 52  1  0  0  0
 40 53  2  0  0  0
 40 58  1  0  0  0
 41110  1  0  0  0
 41111  1  0  0  0
 41112  1  0  0  0
 41 48  1  0  0  0
 42 43  1  0  0  0
 42 66  1  0  0  0
 42113  1  0  0  0
 42114  1  0  0  0
 43 44  1  0  0  0
 44115  1  0  0  0
 45 46  2  0  0  0
 45116  1  0  0  0
 46117  1  0  0  0
 47118  1  0  0  0
 47119  1  0  0  0
 48 56  1  0  0  0
 48 65  1  0  0  0
 48120  1  0  0  0
 49 50  1  0  0  0
 49 53  1  0  0  0
 49 64  1  0  0  0
 49121  1  0  0  0
 50 51  1  0  0  0
 50122  1  0  0  0
 50123  1  0  0  0
 51 52  1  0  0  0
 51124  1  0  0  0
 51125  1  0  0  0
 52126  1  0  0  0
 52127  1  0  0  0
 53 54  1  0  0  0
 54 55  2  0  0  0
 54128  1  0  0  0
 55 57  1  0  0  0
 55129  1  0  0  0
 56 69  2  0  0  0
 57 58  2  0  0  0
 57130  1  0  0  0
 58131  1  0  0  0
 59 60  1  0  0  0
 59 61  1  0  0  0
 59 62  1  0  0  0
 60132  1  0  0  0
 60133  1  0  0  0
 60134  1  0  0  0
 61135  1  0  0  0
 61136  1  0  0  0
 61137  1  0  0  0
 62138  1  0  0  0
 62139  1  0  0  0
 62140  1  0  0  0
 63 65  1  0  0  0
 63141  1  0  0  0
 63142  1  0  0  0
 63143  1  0  0  0
 64144  1  0  0  0
 65145  1  0  0  0
 68 81  1  0  0  0
 71 72  2  0  0  0
 71 73  1  0  0  0
 71146  1  0  0  0
 72 75  1  0  0  0
 72 85  1  0  0  0
 73 80  1  0  0  0
 73 86  2  0  0  0
 74 82  1  0  0  0
 74 85  2  0  0  0
 74 86  1  0  0  0
 75147  1  0  0  0
 75148  1  0  0  0
 75149  1  0  0  0
 76150  1  0  0  0
 76151  1  0  0  0
 76152  1  0  0  0
 76 82  1  0  0  0
 77153  1  0  0  0
 77154  1  0  0  0
 77155  1  0  0  0
 77 83  1  0  0  0
 78156  1  0  0  0
 78157  1  0  0  0
 78158  1  0  0  0
 78 84  1  0  0  0
 79 84  1  0  0  0
 79159  1  0  0  0
 79160  1  0  0  0
 79161  1  0  0  0
 80 84  1  0  0  0
 80162  1  0  0  0
 80163  1  0  0  0
 81 83  1  0  0  0
 81164  1  0  0  0
 81165  1  0  0  0
 82166  1  0  0  0
 83 84  1  0  0  0
 83167  1  0  0  0
M  ISO  4   1 100  68 101  81 101  82 100
M  END
> <chiral flag>
0

> <version>
0

> <s_m_source_file>
/data/baiqing/PycharmProjects/Reinvent-master-3.2/result/LINK_invent/BTK/process_docking_weight1_custom_sum_contain_oxygen_bond_distance_aromatic_linkinvent_7_9_3/rearranged_h_0073.sdf

> <i_m_source_file_index>
20

> <r_mmod_Potential_Energy-OPLS-2005>
-44.855827331543

> <r_mmod_Stretch_Energy-OPLS-2005>
127.270164489746

> <r_mmod_Bend_Energy-OPLS-2005>
213.015411376953

> <r_mmod_Torsional_Energy-OPLS-2005>
200.526672363281

> <r_mmod_Improper_Torsional_Energy-OPLS-2005>
2.87062048912048

> <r_mmod_Van_der_Waal_Energy-OPLS-2005>
165.284378051758

> <r_mmod_Electrostatic_Energy-OPLS-2005>
-593.424865722656

> <r_mmod_Solvation_Energy-OPLS-2005>
-206.374877929688

> <b_mmod_Minimization_Converged-OPLS-2005>
0

> <r_mmod_RMS_Derivative-OPLS-2005>
5.55942535400391

$$$$
20
                    3D
 Structure written by MMmdl.
170178  0  0  1  0            999 V2000
  -30.7889  -14.3406   20.6986 C   0  0  0  0  0  0
  -30.4102  -12.2899   19.3824 C   0  0  0  0  0  0
  -29.4765  -12.5354   18.1845 C   0  0  0  0  0  0
  -28.0031  -12.3768   18.6024 C   0  0  0  0  0  0
  -27.6643  -13.1918   19.8762 C   0  0  2  0  0  0
  -28.7047  -12.9362   20.9892 C   0  0  0  0  0  0
  -25.2609  -13.8124   20.5665 C   0  0  0  0  0  0
  -24.1843  -13.0425   20.9163 C   0  0  0  0  0  0
  -24.6385  -11.6888   20.8731 C   0  0  0  0  0  0
  -23.9045  -10.4286   21.0407 C   0  0  0  0  0  0
  -24.3600   -9.4204   21.9183 C   0  0  0  0  0  0
  -23.6279   -8.2235   22.0754 C   0  0  0  0  0  0
  -22.4260   -8.0275   21.3547 C   0  0  0  0  0  0
  -21.9893   -9.0247   20.4646 C   0  0  0  0  0  0
  -22.7220  -10.2127   20.3057 C   0  0  0  0  0  0
  -21.6848   -6.0729   22.5276 C   0  0  0  0  0  0
  -21.4009   -6.5631   23.8209 C   0  0  0  0  0  0
  -21.3661   -5.6789   24.9169 C   0  0  0  0  0  0
  -21.6045   -4.3050   24.7221 C   0  0  0  0  0  0
  -21.8819   -3.8144   23.4344 C   0  0  0  0  0  0
  -21.9190   -4.6960   22.3401 C   0  0  0  0  0  0
  -22.7869  -13.5234   21.1825 C   0  0  0  0  0  0
  -22.1656   -4.2146   21.0980 F   0  0  0  0  0  0
  -21.5631   -3.4538   25.7734 F   0  0  0  0  0  0
  -30.0459  -13.2300   20.4531 N   0  0  0  0  0  0
  -26.3036  -12.9267   20.3366 N   0  0  0  0  0  0
  -25.9306  -11.6442   20.5759 N   0  0  0  0  0  0
  -22.0508  -12.8244   22.0393 N   0  0  0  0  0  0
  -25.4339  -15.1837   20.4062 N   0  0  0  0  0  0
  -31.7882  -14.6242   20.0297 O   0  0  0  0  0  0
  -21.6629   -6.8871   21.4239 O   0  0  0  0  0  0
  -22.3563  -14.5548   20.6679 O   0  0  0  0  0  0
  -24.6065  -31.8717   23.2128 C   0  0  0  0  0  0
  -25.8975  -32.4837   23.8412 C   0  0  1  0  0  0
  -27.2451  -27.4999   20.0933 C   0  0  0  0  0  0
  -25.5864  -33.8638   24.2348 N   0  0  0  0  0  0
  -23.3909  -30.4918   21.5534 C   0  0  2  0  0  0
  -24.8374  -28.9588   20.1225 C   0  0  0  0  0  0
  -22.7365  -29.4652   22.5047 C   0  0  0  0  0  0
  -18.0254  -28.1365   22.8475 C   0  0  0  0  0  0
  -24.1486  -36.7322   23.2651 C   0  0  0  0  0  0
  -25.9089  -30.8625   21.3485 C   0  0  0  0  0  0
  -25.9912  -29.4979   20.7052 C   0  0  0  0  0  0
  -27.1976  -28.7792   20.6788 C   0  0  0  0  0  0
  -26.0816  -26.9595   19.5071 C   0  0  0  0  0  0
  -24.8750  -27.6855   19.5227 C   0  0  0  0  0  0
  -23.5946  -29.8157   20.1687 C   0  0  0  0  0  0
  -25.4094  -36.3117   24.0365 C   0  0  1  0  0  0
  -20.5841  -28.3627   23.1348 C   0  0  2  0  0  0
  -20.6743  -26.9376   22.5419 C   0  0  0  0  0  0
  -19.5730  -26.6374   21.5203 C   0  0  0  0  0  0
  -18.1906  -26.7908   22.1610 C   0  0  0  0  0  0
  -19.1506  -28.8814   23.2905 C   0  0  0  0  0  0
  -18.9449  -30.1414   23.8930 C   0  0  0  0  0  0
  -17.6458  -30.6586   24.0555 C   0  0  0  0  0  0
  -25.9030  -34.9487   23.5159 C   0  0  0  0  0  0
  -16.5347  -29.9096   23.6319 C   0  0  0  0  0  0
  -16.7247  -28.6505   23.0343 C   0  0  0  0  0  0
  -26.4434  -31.6592   25.0698 C   0  0  0  0  0  0
  -25.3730  -31.3700   26.1471 C   0  0  0  0  0  0
  -27.0230  -30.3061   24.5963 C   0  0  0  0  0  0
  -27.6013  -32.4302   25.7455 C   0  0  0  0  0  0
  -27.5583  -37.1801   24.8469 C   0  0  0  0  0  0
  -21.4103  -29.3009   22.3791 N   0  0  0  0  0  0
  -26.4287  -37.3788   23.9426 N   0  0  0  0  0  0
  -24.6537  -31.0877   22.0987 N   0  0  0  0  0  0
  -23.4167  -28.8199   23.3060 O   0  0  0  0  0  0
  -28.4355  -26.8294   19.9935 O   0  0  0  0  0  0
  -26.5581  -34.8924   22.4712 O   0  0  0  0  0  0
  -23.5279  -32.1425   23.7576 O   0  0  0  0  0  0
  -30.7302  -21.0756   20.9787 C   0  0  0  0  0  0
  -29.5257  -21.2123   21.6257 C   0  0  0  0  0  0
  -30.3149  -19.1640   22.0277 C   0  0  0  0  0  0
  -29.4915  -17.5442   23.7801 C   0  0  0  0  0  0
  -28.6664  -16.8116   20.8369 C   0  0  0  0  0  0
  -29.0085  -27.0190   22.4486 C   0  0  0  0  0  0
  -32.4252  -19.2220   20.7140 C   0  0  0  0  0  0
  -28.5409  -22.3326   21.6939 C   0  0  0  0  0  0
  -30.4647  -15.2823   21.8675 C   0  0  0  0  0  0
  -29.2210  -23.6917   21.5100 C   0  0  0  0  0  0
  -28.2215  -24.8390   21.3479 C   0  0  0  0  0  0
  -30.3770  -17.7501   22.5346 C   0  0  1  0  0  0
  -30.0934  -16.7161   21.4160 C   0  0  2  0  0  0
  -28.9453  -26.1803   21.1571 C   0  0  1  0  0  0
  -31.1867  -19.8097   21.2334 N   0  0  0  0  0  0
  -29.3073  -20.0140   22.2493 N   0  3  0  0  0  0
  -31.4526  -12.3855   19.0730 H   0  0  0  0  0  0
  -30.3066  -11.2649   19.7411 H   0  0  0  0  0  0
  -29.7132  -11.8453   17.3738 H   0  0  0  0  0  0
  -29.6399  -13.5405   17.7916 H   0  0  0  0  0  0
  -27.8132  -11.3166   18.7752 H   0  0  0  0  0  0
  -27.3478  -12.6747   17.7827 H   0  0  0  0  0  0
  -27.7169  -14.2411   19.5977 H   0  0  0  0  0  0
  -28.6707  -11.8915   21.3017 H   0  0  0  0  0  0
  -28.4287  -13.5042   21.8730 H   0  0  0  0  0  0
  -25.2748   -9.5671   22.4754 H   0  0  0  0  0  0
  -23.9987   -7.4625   22.7474 H   0  0  0  0  0  0
  -21.0822   -8.8766   19.8952 H   0  0  0  0  0  0
  -22.3682  -10.9665   19.6163 H   0  0  0  0  0  0
  -21.2004   -7.6141   23.9711 H   0  0  0  0  0  0
  -21.1481   -6.0517   25.9072 H   0  0  0  0  0  0
  -22.0601   -2.7606   23.2845 H   0  0  0  0  0  0
  -22.4106  -11.9894   22.4774 H   0  0  0  0  0  0
  -21.1133  -13.1287   22.2602 H   0  0  0  0  0  0
  -24.6709  -15.8423   20.5187 H   0  0  0  0  0  0
  -26.2959  -15.6231   20.1102 H   0  0  0  0  0  0
  -26.7063  -32.5585   23.1205 H   0  0  0  0  0  0
  -24.9999  -33.9798   25.0483 H   0  0  0  0  0  0
  -22.6775  -31.3070   21.4149 H   0  0  0  0  0  0
  -23.3740  -35.9659   23.3312 H   0  0  0  0  0  0
  -24.3607  -36.8917   22.2068 H   0  0  0  0  0  0
  -23.7233  -37.6533   23.6640 H   0  0  0  0  0  0
  -26.0009  -31.6250   20.5740 H   0  0  0  0  0  0
  -26.8046  -30.9274   21.9544 H   0  0  0  0  0  0
  -28.0972  -29.2180   21.0862 H   0  0  0  0  0  0
  -26.1148  -25.9897   19.0322 H   0  0  0  0  0  0
  -23.9882  -27.2648   19.0685 H   0  0  0  0  0  0
  -23.6983  -30.5862   19.4044 H   0  0  0  0  0  0
  -22.7213  -29.2288   19.8785 H   0  0  0  0  0  0
  -25.1270  -36.2012   25.0861 H   0  0  0  0  0  0
  -20.9918  -28.3161   24.1470 H   0  0  0  0  0  0
  -20.5626  -26.2234   23.3592 H   0  0  0  0  0  0
  -21.6621  -26.7419   22.1235 H   0  0  0  0  0  0
  -19.6901  -25.6286   21.1224 H   0  0  0  0  0  0
  -19.6688  -27.3194   20.6749 H   0  0  0  0  0  0
  -17.4171  -26.6652   21.4013 H   0  0  0  0  0  0
  -18.0313  -26.0042   22.9010 H   0  0  0  0  0  0
  -19.7941  -30.7193   24.2335 H   0  0  0  0  0  0
  -17.5038  -31.6274   24.5136 H   0  0  0  0  0  0
  -15.5356  -30.3021   23.7630 H   0  0  0  0  0  0
  -15.8635  -28.0846   22.7058 H   0  0  0  0  0  0
  -24.5862  -30.7088   25.7818 H   0  0  0  0  0  0
  -24.8963  -32.2871   26.4960 H   0  0  0  0  0  0
  -25.8097  -30.8833   27.0206 H   0  0  0  0  0  0
  -26.2729  -29.6864   24.1033 H   0  0  0  0  0  0
  -27.4087  -29.7234   25.4334 H   0  0  0  0  0  0
  -27.8516  -30.4428   23.9012 H   0  0  0  0  0  0
  -27.2626  -33.3587   26.2063 H   0  0  0  0  0  0
  -28.3789  -32.6892   25.0263 H   0  0  0  0  0  0
  -28.0694  -31.8408   26.5341 H   0  0  0  0  0  0
  -28.2590  -38.0107   24.7511 H   0  0  0  0  0  0
  -28.1090  -36.2639   24.6295 H   0  0  0  0  0  0
  -27.2321  -37.1459   25.8877 H   0  0  0  0  0  0
  -20.9274  -29.8762   21.7044 H   0  0  0  0  0  0
  -26.0199  -38.2877   24.1404 H   0  0  0  0  0  0
  -31.2778  -21.7695   20.3543 H   0  0  0  0  0  0
  -29.7590  -18.2513   24.5654 H   0  0  0  0  0  0
  -29.6157  -16.5461   24.1951 H   0  0  0  0  0  0
  -28.4315  -17.6755   23.5620 H   0  0  0  0  0  0
  -28.5808  -16.2282   19.9221 H   0  0  0  0  0  0
  -28.4010  -17.8333   20.5645 H   0  0  0  0  0  0
  -27.9169  -16.4491   21.5411 H   0  0  0  0  0  0
  -29.5078  -26.4654   23.2444 H   0  0  0  0  0  0
  -28.0168  -27.2798   22.8186 H   0  0  0  0  0  0
  -29.5706  -27.9401   22.2988 H   0  0  0  0  0  0
  -33.0801  -20.0149   20.3529 H   0  0  0  0  0  0
  -32.1855  -18.5600   19.8832 H   0  0  0  0  0  0
  -32.9398  -18.6672   21.4973 H   0  0  0  0  0  0
  -28.0148  -22.2998   22.6502 H   0  0  0  0  0  0
  -27.7927  -22.1765   20.9158 H   0  0  0  0  0  0
  -29.7370  -14.8883   22.5688 H   0  0  0  0  0  0
  -31.3857  -15.3297   22.4500 H   0  0  0  0  0  0
  -29.8441  -23.6690   20.6157 H   0  0  0  0  0  0
  -29.8849  -23.8899   22.3534 H   0  0  0  0  0  0
  -27.5410  -24.8858   22.1987 H   0  0  0  0  0  0
  -27.6015  -24.6277   20.4760 H   0  0  0  0  0  0
  -31.4107  -17.6317   22.8607 H   0  0  0  0  0  0
  -30.7617  -16.9674   20.5926 H   0  0  0  0  0  0
  -29.9822  -25.9791   20.8842 H   0  0  0  0  0  0
  -28.4933  -19.7888   22.8083 H   0  0  0  0  0  0
  1 25  1  0  0  0
  1 30  2  0  0  0
  1 79  1  0  0  0
  2  3  1  0  0  0
  2 25  1  0  0  0
  2 87  1  0  0  0
  2 88  1  0  0  0
  3  4  1  0  0  0
  3 89  1  0  0  0
  3 90  1  0  0  0
  4  5  1  0  0  0
  4 91  1  0  0  0
  4 92  1  0  0  0
  5  6  1  0  0  0
  5 26  1  0  0  0
  5 93  1  0  0  0
  6 25  1  0  0  0
  6 94  1  0  0  0
  6 95  1  0  0  0
  7  8  2  0  0  0
  7 26  1  0  0  0
  7 29  1  0  0  0
  8  9  1  0  0  0
  8 22  1  0  0  0
  9 10  1  0  0  0
  9 27  2  0  0  0
 10 11  2  0  0  0
 10 15  1  0  0  0
 11 12  1  0  0  0
 11 96  1  0  0  0
 12 13  2  0  0  0
 12 97  1  0  0  0
 13 14  1  0  0  0
 13 31  1  0  0  0
 14 15  2  0  0  0
 14 98  1  0  0  0
 15 99  1  0  0  0
 16 17  2  0  0  0
 16 21  1  0  0  0
 16 31  1  0  0  0
 17 18  1  0  0  0
 17100  1  0  0  0
 18 19  2  0  0  0
 18101  1  0  0  0
 19 20  1  0  0  0
 19 24  1  0  0  0
 20 21  2  0  0  0
 20102  1  0  0  0
 21 23  1  0  0  0
 22 28  1  0  0  0
 22 32  2  0  0  0
 26 27  1  0  0  0
 28103  1  0  0  0
 28104  1  0  0  0
 29105  1  0  0  0
 29106  1  0  0  0
 33 34  1  0  0  0
 33 66  1  0  0  0
 33 70  2  0  0  0
 34 36  1  0  0  0
 34 59  1  0  0  0
 34107  1  0  0  0
 35 44  2  0  0  0
 35 45  1  0  0  0
 35 68  1  0  0  0
 36 56  1  0  0  0
 36108  1  0  0  0
 37 39  1  0  0  0
 37 47  1  0  0  0
 37 66  1  0  0  0
 37109  1  0  0  0
 38 43  2  0  0  0
 38 46  1  0  0  0
 38 47  1  0  0  0
 39 64  1  0  0  0
 39 67  2  0  0  0
 40 52  1  0  0  0
 40 53  2  0  0  0
 40 58  1  0  0  0
 41110  1  0  0  0
 41111  1  0  0  0
 41112  1  0  0  0
 41 48  1  0  0  0
 42 43  1  0  0  0
 42 66  1  0  0  0
 42113  1  0  0  0
 42114  1  0  0  0
 43 44  1  0  0  0
 44115  1  0  0  0
 45 46  2  0  0  0
 45116  1  0  0  0
 46117  1  0  0  0
 47118  1  0  0  0
 47119  1  0  0  0
 48 56  1  0  0  0
 48 65  1  0  0  0
 48120  1  0  0  0
 49 50  1  0  0  0
 49 53  1  0  0  0
 49 64  1  0  0  0
 49121  1  0  0  0
 50 51  1  0  0  0
 50122  1  0  0  0
 50123  1  0  0  0
 51 52  1  0  0  0
 51124  1  0  0  0
 51125  1  0  0  0
 52126  1  0  0  0
 52127  1  0  0  0
 53 54  1  0  0  0
 54 55  2  0  0  0
 54128  1  0  0  0
 55 57  1  0  0  0
 55129  1  0  0  0
 56 69  2  0  0  0
 57 58  2  0  0  0
 57130  1  0  0  0
 58131  1  0  0  0
 59 60  1  0  0  0
 59 61  1  0  0  0
 59 62  1  0  0  0
 60132  1  0  0  0
 60133  1  0  0  0
 60134  1  0  0  0
 61135  1  0  0  0
 61136  1  0  0  0
 61137  1  0  0  0
 62138  1  0  0  0
 62139  1  0  0  0
 62140  1  0  0  0
 63 65  1  0  0  0
 63141  1  0  0  0
 63142  1  0  0  0
 63143  1  0  0  0
 64144  1  0  0  0
 65145  1  0  0  0
 68 84  1  0  0  0
 71 72  2  0  0  0
 71 85  1  0  0  0
 71146  1  0  0  0
 72 78  1  0  0  0
 72 86  1  0  0  0
 73 82  1  0  0  0
 73 85  1  0  0  0
 73 86  2  0  0  0
 74147  1  0  0  0
 74148  1  0  0  0
 74149  1  0  0  0
 74 82  1  0  0  0
 75150  1  0  0  0
 75151  1  0  0  0
 75152  1  0  0  0
 75 83  1  0  0  0
 76153  1  0  0  0
 76154  1  0  0  0
 76155  1  0  0  0
 76 84  1  0  0  0
 77 85  1  0  0  0
 77156  1  0  0  0
 77157  1  0  0  0
 77158  1  0  0  0
 78 80  1  0  0  0
 78159  1  0  0  0
 78160  1  0  0  0
 79 83  1  0  0  0
 79161  1  0  0  0
 79162  1  0  0  0
 80 81  1  0  0  0
 80163  1  0  0  0
 80164  1  0  0  0
 81 84  1  0  0  0
 81165  1  0  0  0
 81166  1  0  0  0
 82 83  1  0  0  0
 82167  1  0  0  0
 83168  1  0  0  0
 84169  1  0  0  0
 86170  1  0  0  0
M  CHG  1  86   1
M  ISO  4   1 100  68 101  79 100  84 101
M  END
> <chiral flag>
0

> <version>
0

> <s_m_source_file>
/data/baiqing/PycharmProjects/Reinvent-master-3.2/result/LINK_invent/BTK/process_docking_weight1_custom_sum_contain_oxygen_bond_distance_aromatic_linkinvent_7_9_3/rearranged_h_0073.sdf

> <i_m_source_file_index>
21

> <r_mmod_Potential_Energy-OPLS-2005>
-65.0313110351562

> <r_mmod_Stretch_Energy-OPLS-2005>
30.2161922454834

> <r_mmod_Bend_Energy-OPLS-2005>
104.987426757812

> <r_mmod_Torsional_Energy-OPLS-2005>
215.460952758789

> <r_mmod_Improper_Torsional_Energy-OPLS-2005>
2.1463668346405

> <r_mmod_Van_der_Waal_Energy-OPLS-2005>
129.007354736328

> <r_mmod_Electrostatic_Energy-OPLS-2005>
-172.305099487305

> <r_mmod_Solvation_Energy-OPLS-2005>
-381.827758789062

> <b_mmod_Minimization_Converged-OPLS-2005>
0

> <r_mmod_RMS_Derivative-OPLS-2005>
2.06328916549683

$$$$
21
                    3D
 Structure written by MMmdl.
162170  0  0  1  0            999 V2000
  -30.5916  -14.7450   20.4772 C   0  0  0  0  0  0
  -30.4372  -12.4598   19.4638 C   0  0  0  0  0  0
  -29.5112  -12.5173   18.2292 C   0  0  0  0  0  0
  -28.0360  -12.3379   18.6401 C   0  0  0  0  0  0
  -27.6431  -13.2279   19.8500 C   0  0  2  0  0  0
  -28.6877  -13.1430   20.9828 C   0  0  0  0  0  0
  -25.2525  -13.8190   20.5682 C   0  0  0  0  0  0
  -24.1815  -13.0435   20.9199 C   0  0  0  0  0  0
  -24.6404  -11.6915   20.8738 C   0  0  0  0  0  0
  -23.9076  -10.4300   21.0410 C   0  0  0  0  0  0
  -24.3627   -9.4214   21.9191 C   0  0  0  0  0  0
  -23.6298   -8.2253   22.0761 C   0  0  0  0  0  0
  -22.4284   -8.0282   21.3548 C   0  0  0  0  0  0
  -21.9915   -9.0258   20.4653 C   0  0  0  0  0  0
  -22.7244  -10.2139   20.3061 C   0  0  0  0  0  0
  -21.6854   -6.0738   22.5286 C   0  0  0  0  0  0
  -21.4011   -6.5645   23.8216 C   0  0  0  0  0  0
  -21.3665   -5.6796   24.9179 C   0  0  0  0  0  0
  -21.6048   -4.3060   24.7227 C   0  0  0  0  0  0
  -21.8822   -3.8152   23.4350 C   0  0  0  0  0  0
  -21.9194   -4.6968   22.3404 C   0  0  0  0  0  0
  -22.7833  -13.5216   21.1853 C   0  0  0  0  0  0
  -22.1657   -4.2152   21.0979 F   0  0  0  0  0  0
  -21.5633   -3.4539   25.7741 F   0  0  0  0  0  0
  -29.9867  -13.5099   20.4044 N   0  0  0  0  0  0
  -26.2944  -12.9390   20.3259 N   0  0  0  0  0  0
  -25.9331  -11.6535   20.5732 N   0  0  0  0  0  0
  -22.0481  -12.8215   22.0419 N   0  0  0  0  0  0
  -25.4209  -15.1918   20.4092 N   0  0  0  0  0  0
  -31.7768  -14.8633   20.1520 O   0  0  0  0  0  0
  -21.6643   -6.8884   21.4249 O   0  0  0  0  0  0
  -22.3519  -14.5518   20.6687 O   0  0  0  0  0  0
  -24.6307  -31.8551   23.1980 C   0  0  0  0  0  0
  -25.9139  -32.4755   23.8327 C   0  0  1  0  0  0
  -27.2230  -27.2630   20.1463 C   0  0  0  0  0  0
  -25.5947  -33.8560   24.2260 N   0  0  0  0  0  0
  -23.4271  -30.4745   21.5409 C   0  0  2  0  0  0
  -24.8749  -28.9112   20.1214 C   0  0  0  0  0  0
  -22.7490  -29.4605   22.4927 C   0  0  0  0  0  0
  -18.0291  -28.1396   22.8490 C   0  0  0  0  0  0
  -24.1484  -36.7277   23.2637 C   0  0  0  0  0  0
  -25.9698  -30.7699   21.3743 C   0  0  0  0  0  0
  -26.0443  -29.3866   20.7283 C   0  0  0  0  0  0
  -27.2236  -28.5767   20.7261 C   0  0  0  0  0  0
  -26.0345  -26.8474   19.5163 C   0  0  0  0  0  0
  -24.8738  -27.6489   19.5044 C   0  0  0  0  0  0
  -23.6461  -29.8000   20.1605 C   0  0  0  0  0  0
  -25.4111  -36.3068   24.0329 C   0  0  1  0  0  0
  -20.5889  -28.3703   23.1280 C   0  0  2  0  0  0
  -20.6782  -26.9426   22.5413 C   0  0  0  0  0  0
  -19.5754  -26.6391   21.5224 C   0  0  0  0  0  0
  -18.1934  -26.7938   22.1631 C   0  0  0  0  0  0
  -19.1543  -28.8869   23.2875 C   0  0  0  0  0  0
  -18.9463  -30.1472   23.8890 C   0  0  0  0  0  0
  -17.6461  -30.6594   24.0568 C   0  0  0  0  0  0
  -25.9056  -34.9440   23.5090 C   0  0  0  0  0  0
  -16.5353  -29.9089   23.6335 C   0  0  0  0  0  0
  -16.7279  -28.6507   23.0357 C   0  0  0  0  0  0
  -26.4523  -31.6578   25.0707 C   0  0  0  0  0  0
  -25.3749  -31.3717   26.1423 C   0  0  0  0  0  0
  -27.0390  -30.3005   24.6185 C   0  0  0  0  0  0
  -27.6074  -32.4325   25.7480 C   0  0  0  0  0  0
  -27.5573  -37.1791   24.8470 C   0  0  0  0  0  0
  -21.4201  -29.3045   22.3666 N   0  0  0  0  0  0
  -26.4284  -37.3768   23.9414 N   0  0  0  0  0  0
  -24.6948  -31.0517   22.0947 N   0  0  0  0  0  0
  -23.4192  -28.8151   23.3034 O   0  0  0  0  0  0
  -28.3445  -26.4127   20.1007 O   0  0  0  0  0  0
  -26.5613  -34.8915   22.4651 O   0  0  0  0  0  0
  -23.5461  -32.1372   23.7271 O   0  0  0  0  0  0
  -29.3508  -17.9357   18.5155 C   0  0  0  0  0  0
  -28.7612  -19.9884   18.5481 C   0  0  0  0  0  0
  -29.4870  -18.3408   19.8266 C   0  0  0  0  0  0
  -31.4320  -17.6899   21.3441 C   0  0  0  0  0  0
  -28.6348  -23.8941   18.5330 C   0  0  0  0  0  0
  -26.8443  -23.0954   20.0964 C   0  0  0  0  0  0
  -29.2848  -22.4291   20.5630 C   0  0  0  0  0  0
  -28.9382  -20.8495   20.8615 C   0  0  0  0  0  0
  -28.3582  -25.0648   20.7660 C   0  0  0  0  0  0
  -29.9867  -17.3595   20.9430 C   0  0  2  0  0  0
  -28.2915  -23.6138   20.0090 C   0  0  0  0  0  0
  -28.8874  -18.9684   17.7128 N   0  0  0  0  0  0
  -29.1111  -19.7593   19.8220 N   0  0  0  0  0  0
  -29.7818  -15.8427   20.7448 N   0  0  0  0  0  0
  -31.4763  -12.5961   19.1597 H   0  0  0  0  0  0
  -30.3896  -11.4780   19.9378 H   0  0  0  0  0  0
  -29.7935  -11.7481   17.5096 H   0  0  0  0  0  0
  -29.6368  -13.4744   17.7212 H   0  0  0  0  0  0
  -27.8914  -11.2855   18.8874 H   0  0  0  0  0  0
  -27.3797  -12.5411   17.7932 H   0  0  0  0  0  0
  -27.6415  -14.2538   19.4806 H   0  0  0  0  0  0
  -28.7293  -12.1363   21.4000 H   0  0  0  0  0  0
  -28.4195  -13.8040   21.8087 H   0  0  0  0  0  0
  -25.2782   -9.5675   22.4759 H   0  0  0  0  0  0
  -24.0009   -7.4645   22.7476 H   0  0  0  0  0  0
  -21.0848   -8.8774   19.8955 H   0  0  0  0  0  0
  -22.3712  -10.9674   19.6162 H   0  0  0  0  0  0
  -21.1999   -7.6154   23.9713 H   0  0  0  0  0  0
  -21.1479   -6.0530   25.9079 H   0  0  0  0  0  0
  -22.0594   -2.7612   23.2846 H   0  0  0  0  0  0
  -22.4082  -11.9868   22.4801 H   0  0  0  0  0  0
  -21.1105  -13.1235   22.2627 H   0  0  0  0  0  0
  -24.6484  -15.8401   20.5192 H   0  0  0  0  0  0
  -26.2588  -15.6361   20.0563 H   0  0  0  0  0  0
  -26.7196  -32.5411   23.1064 H   0  0  0  0  0  0
  -25.0145  -33.9717   25.0440 H   0  0  0  0  0  0
  -22.7240  -31.2966   21.3901 H   0  0  0  0  0  0
  -23.3758  -35.9598   23.3299 H   0  0  0  0  0  0
  -24.3570  -36.8903   22.2051 H   0  0  0  0  0  0
  -23.7230  -37.6473   23.6666 H   0  0  0  0  0  0
  -26.0973  -31.5237   20.5964 H   0  0  0  0  0  0
  -26.8515  -30.8284   22.0009 H   0  0  0  0  0  0
  -28.1254  -28.9441   21.1942 H   0  0  0  0  0  0
  -26.0041  -25.8908   19.0182 H   0  0  0  0  0  0
  -23.9802  -27.2813   19.0188 H   0  0  0  0  0  0
  -23.7703  -30.5717   19.4000 H   0  0  0  0  0  0
  -22.7658  -29.2300   19.8579 H   0  0  0  0  0  0
  -25.1293  -36.1905   25.0822 H   0  0  0  0  0  0
  -20.9980  -28.3274   24.1400 H   0  0  0  0  0  0
  -20.5699  -26.2321   23.3617 H   0  0  0  0  0  0
  -21.6648  -26.7464   22.1193 H   0  0  0  0  0  0
  -19.6909  -25.6297   21.1261 H   0  0  0  0  0  0
  -19.6680  -27.3198   20.6749 H   0  0  0  0  0  0
  -17.4207  -26.6706   21.4025 H   0  0  0  0  0  0
  -18.0313  -26.0079   22.9021 H   0  0  0  0  0  0
  -19.7938  -30.7296   24.2251 H   0  0  0  0  0  0
  -17.5012  -31.6272   24.5174 H   0  0  0  0  0  0
  -15.5351  -30.2987   23.7668 H   0  0  0  0  0  0
  -15.8682  -28.0824   22.7078 H   0  0  0  0  0  0
  -24.5931  -30.7069   25.7733 H   0  0  0  0  0  0
  -24.8938  -32.2883   26.4839 H   0  0  0  0  0  0
  -25.8054  -30.8887   27.0203 H   0  0  0  0  0  0
  -26.2978  -29.6723   24.1229 H   0  0  0  0  0  0
  -27.4117  -29.7288   25.4695 H   0  0  0  0  0  0
  -27.8826  -30.4304   23.9401 H   0  0  0  0  0  0
  -27.2691  -33.3638   26.2032 H   0  0  0  0  0  0
  -28.3890  -32.6868   25.0310 H   0  0  0  0  0  0
  -28.0740  -31.8470   26.5412 H   0  0  0  0  0  0
  -28.2592  -38.0086   24.7514 H   0  0  0  0  0  0
  -28.1070  -36.2621   24.6298 H   0  0  0  0  0  0
  -27.2295  -37.1431   25.8873 H   0  0  0  0  0  0
  -20.9391  -29.8747   21.6847 H   0  0  0  0  0  0
  -26.0164  -38.2839   24.1422 H   0  0  0  0  0  0
  -29.5409  -16.9583   18.0938 H   0  0  0  0  0  0
  -28.3679  -20.9358   18.2199 H   0  0  0  0  0  0
  -31.5183  -18.7239   21.6782 H   0  0  0  0  0  0
  -32.1156  -17.5585   20.5046 H   0  0  0  0  0  0
  -31.7752  -17.0554   22.1612 H   0  0  0  0  0  0
  -28.5622  -23.0110   17.9044 H   0  0  0  0  0  0
  -29.6482  -24.2829   18.4345 H   0  0  0  0  0  0
  -27.9640  -24.6413   18.1078 H   0  0  0  0  0  0
  -26.7054  -22.1822   19.5175 H   0  0  0  0  0  0
  -26.1234  -23.8202   19.7239 H   0  0  0  0  0  0
  -26.5678  -22.8731   21.1282 H   0  0  0  0  0  0
  -30.2202  -22.4624   20.0027 H   0  0  0  0  0  0
  -29.5860  -22.7946   21.5454 H   0  0  0  0  0  0
  -27.9217  -20.7712   21.2465 H   0  0  0  0  0  0
  -29.5674  -20.5462   21.6977 H   0  0  0  0  0  0
  -29.3119  -25.0771   21.2930 H   0  0  0  0  0  0
  -27.6229  -25.0804   21.5722 H   0  0  0  0  0  0
  -29.3863  -17.5802   21.8267 H   0  0  0  0  0  0
  -28.8308  -15.5586   20.9241 H   0  0  0  0  0  0
  1 25  1  0  0  0
  1 30  2  0  0  0
  1 84  1  0  0  0
  2  3  1  0  0  0
  2 25  1  0  0  0
  2 85  1  0  0  0
  2 86  1  0  0  0
  3  4  1  0  0  0
  3 87  1  0  0  0
  3 88  1  0  0  0
  4  5  1  0  0  0
  4 89  1  0  0  0
  4 90  1  0  0  0
  5  6  1  0  0  0
  5 26  1  0  0  0
  5 91  1  0  0  0
  6 25  1  0  0  0
  6 92  1  0  0  0
  6 93  1  0  0  0
  7  8  2  0  0  0
  7 26  1  0  0  0
  7 29  1  0  0  0
  8  9  1  0  0  0
  8 22  1  0  0  0
  9 10  1  0  0  0
  9 27  2  0  0  0
 10 11  2  0  0  0
 10 15  1  0  0  0
 11 12  1  0  0  0
 11 94  1  0  0  0
 12 13  2  0  0  0
 12 95  1  0  0  0
 13 14  1  0  0  0
 13 31  1  0  0  0
 14 15  2  0  0  0
 14 96  1  0  0  0
 15 97  1  0  0  0
 16 17  2  0  0  0
 16 21  1  0  0  0
 16 31  1  0  0  0
 17 18  1  0  0  0
 17 98  1  0  0  0
 18 19  2  0  0  0
 18 99  1  0  0  0
 19 20  1  0  0  0
 19 24  1  0  0  0
 20 21  2  0  0  0
 20100  1  0  0  0
 21 23  1  0  0  0
 22 28  1  0  0  0
 22 32  2  0  0  0
 26 27  1  0  0  0
 28101  1  0  0  0
 28102  1  0  0  0
 29103  1  0  0  0
 29104  1  0  0  0
 33 34  1  0  0  0
 33 66  1  0  0  0
 33 70  2  0  0  0
 34 36  1  0  0  0
 34 59  1  0  0  0
 34105  1  0  0  0
 35 44  2  0  0  0
 35 45  1  0  0  0
 35 68  1  0  0  0
 36 56  1  0  0  0
 36106  1  0  0  0
 37 39  1  0  0  0
 37 47  1  0  0  0
 37 66  1  0  0  0
 37107  1  0  0  0
 38 43  2  0  0  0
 38 46  1  0  0  0
 38 47  1  0  0  0
 39 64  1  0  0  0
 39 67  2  0  0  0
 40 52  1  0  0  0
 40 53  2  0  0  0
 40 58  1  0  0  0
 41108  1  0  0  0
 41109  1  0  0  0
 41110  1  0  0  0
 41 48  1  0  0  0
 42 43  1  0  0  0
 42 66  1  0  0  0
 42111  1  0  0  0
 42112  1  0  0  0
 43 44  1  0  0  0
 44113  1  0  0  0
 45 46  2  0  0  0
 45114  1  0  0  0
 46115  1  0  0  0
 47116  1  0  0  0
 47117  1  0  0  0
 48 56  1  0  0  0
 48 65  1  0  0  0
 48118  1  0  0  0
 49 50  1  0  0  0
 49 53  1  0  0  0
 49 64  1  0  0  0
 49119  1  0  0  0
 50 51  1  0  0  0
 50120  1  0  0  0
 50121  1  0  0  0
 51 52  1  0  0  0
 51122  1  0  0  0
 51123  1  0  0  0
 52124  1  0  0  0
 52125  1  0  0  0
 53 54  1  0  0  0
 54 55  2  0  0  0
 54126  1  0  0  0
 55 57  1  0  0  0
 55127  1  0  0  0
 56 69  2  0  0  0
 57 58  2  0  0  0
 57128  1  0  0  0
 58129  1  0  0  0
 59 60  1  0  0  0
 59 61  1  0  0  0
 59 62  1  0  0  0
 60130  1  0  0  0
 60131  1  0  0  0
 60132  1  0  0  0
 61133  1  0  0  0
 61134  1  0  0  0
 61135  1  0  0  0
 62136  1  0  0  0
 62137  1  0  0  0
 62138  1  0  0  0
 63 65  1  0  0  0
 63139  1  0  0  0
 63140  1  0  0  0
 63141  1  0  0  0
 64142  1  0  0  0
 65143  1  0  0  0
 68 79  1  0  0  0
 71 73  2  0  0  0
 71 82  1  0  0  0
 71144  1  0  0  0
 72 82  2  0  0  0
 72 83  1  0  0  0
 72145  1  0  0  0
 73 80  1  0  0  0
 73 83  1  0  0  0
 74146  1  0  0  0
 74147  1  0  0  0
 74148  1  0  0  0
 74 80  1  0  0  0
 75149  1  0  0  0
 75150  1  0  0  0
 75151  1  0  0  0
 75 81  1  0  0  0
 76 81  1  0  0  0
 76152  1  0  0  0
 76153  1  0  0  0
 76154  1  0  0  0
 77 78  1  0  0  0
 77 81  1  0  0  0
 77155  1  0  0  0
 77156  1  0  0  0
 78 83  1  0  0  0
 78157  1  0  0  0
 78158  1  0  0  0
 79 81  1  0  0  0
 79159  1  0  0  0
 79160  1  0  0  0
 80 84  1  0  0  0
 80161  1  0  0  0
 84162  1  0  0  0
M  ISO  4   1 100  68 101  79 101  84 100
M  END
> <chiral flag>
0

> <version>
0

> <s_m_source_file>
/data/baiqing/PycharmProjects/Reinvent-master-3.2/result/LINK_invent/BTK/process_docking_weight1_custom_sum_contain_oxygen_bond_distance_aromatic_linkinvent_7_9_3/rearranged_h_0073.sdf

> <i_m_source_file_index>
22

> <r_mmod_Potential_Energy-OPLS-2005>
247.049728393555

> <r_mmod_Stretch_Energy-OPLS-2005>
143.181228637695

> <r_mmod_Bend_Energy-OPLS-2005>
235.520889282227

> <r_mmod_Torsional_Energy-OPLS-2005>
261.261199951172

> <r_mmod_Improper_Torsional_Energy-OPLS-2005>
4.63282680511475

> <r_mmod_Van_der_Waal_Energy-OPLS-2005>
104.231857299805

> <r_mmod_Electrostatic_Energy-OPLS-2005>
-360.546264648438

> <r_mmod_Solvation_Energy-OPLS-2005>
-220.122009277344

> <b_mmod_Minimization_Converged-OPLS-2005>
0

> <r_mmod_RMS_Derivative-OPLS-2005>
1.43513369560242

$$$$
22
                    3D
 Structure written by MMmdl.
157165  0  0  1  0            999 V2000
  -30.5090  -14.6428   20.7631 C   0  0  0  0  0  0
  -30.4317  -12.4464   19.4814 C   0  0  0  0  0  0
  -29.5239  -12.5044   18.2287 C   0  0  0  0  0  0
  -28.0320  -12.3481   18.5945 C   0  0  0  0  0  0
  -27.6443  -13.1954   19.8361 C   0  0  2  0  0  0
  -28.6461  -12.9437   20.9728 C   0  0  0  0  0  0
  -25.2567  -13.8171   20.5505 C   0  0  0  0  0  0
  -24.1803  -13.0408   20.9089 C   0  0  0  0  0  0
  -24.6358  -11.6911   20.8566 C   0  0  0  0  0  0
  -23.9012  -10.4285   21.0311 C   0  0  0  0  0  0
  -24.3613   -9.4254   21.9135 C   0  0  0  0  0  0
  -23.6324   -8.2259   22.0744 C   0  0  0  0  0  0
  -22.4336   -8.0250   21.3533 C   0  0  0  0  0  0
  -21.9872   -9.0200   20.4658 C   0  0  0  0  0  0
  -22.7169  -10.2091   20.3006 C   0  0  0  0  0  0
  -21.6889   -6.0704   22.5252 C   0  0  0  0  0  0
  -21.4035   -6.5598   23.8193 C   0  0  0  0  0  0
  -21.3668   -5.6777   24.9162 C   0  0  0  0  0  0
  -21.6093   -4.3033   24.7262 C   0  0  0  0  0  0
  -21.8830   -3.8117   23.4378 C   0  0  0  0  0  0
  -21.9212   -4.6897   22.3422 C   0  0  0  0  0  0
  -22.7858  -13.5196   21.1877 C   0  0  0  0  0  0
  -22.1683   -4.2077   21.1006 F   0  0  0  0  0  0
  -21.5618   -3.4537   25.7770 F   0  0  0  0  0  0
  -29.9432  -13.4123   20.5136 N   0  0  0  0  0  0
  -26.2900  -12.9240   20.2973 N   0  0  0  0  0  0
  -25.9241  -11.6424   20.5439 N   0  0  0  0  0  0
  -22.0620  -12.8157   22.0529 N   0  0  0  0  0  0
  -25.4326  -15.1883   20.4084 N   0  0  0  0  0  0
  -31.5752  -14.8781   20.1688 O   0  0  0  0  0  0
  -21.6687   -6.8845   21.4246 O   0  0  0  0  0  0
  -22.3455  -14.5506   20.6812 O   0  0  0  0  0  0
  -24.6313  -31.8574   23.2000 C   0  0  0  0  0  0
  -25.9194  -32.4731   23.8301 C   0  0  1  0  0  0
  -27.1764  -27.2402   20.1108 C   0  0  0  0  0  0
  -25.6022  -33.8541   24.2226 N   0  0  0  0  0  0
  -23.4190  -30.4876   21.5430 C   0  0  2  0  0  0
  -24.8622  -28.9509   20.0885 C   0  0  0  0  0  0
  -22.7463  -29.4667   22.4877 C   0  0  0  0  0  0
  -18.0286  -28.1390   22.8475 C   0  0  0  0  0  0
  -24.1515  -36.7248   23.2619 C   0  0  0  0  0  0
  -25.9698  -30.7647   21.3844 C   0  0  0  0  0  0
  -26.0336  -29.3880   20.7180 C   0  0  0  0  0  0
  -27.1977  -28.5461   20.7209 C   0  0  0  0  0  0
  -25.9967  -26.8991   19.4174 C   0  0  0  0  0  0
  -24.8534  -27.7197   19.4208 C   0  0  0  0  0  0
  -23.6322  -29.8392   20.1495 C   0  0  0  0  0  0
  -25.4140  -36.2995   24.0269 C   0  0  1  0  0  0
  -20.5875  -28.3717   23.1253 C   0  0  2  0  0  0
  -20.6779  -26.9427   22.5406 C   0  0  0  0  0  0
  -19.5742  -26.6386   21.5202 C   0  0  0  0  0  0
  -18.1925  -26.7926   22.1607 C   0  0  0  0  0  0
  -19.1539  -28.8851   23.2860 C   0  0  0  0  0  0
  -18.9446  -30.1456   23.8878 C   0  0  0  0  0  0
  -17.6460  -30.6574   24.0557 C   0  0  0  0  0  0
  -25.9084  -34.9409   23.5027 C   0  0  0  0  0  0
  -16.5347  -29.9076   23.6346 C   0  0  0  0  0  0
  -16.7281  -28.6491   23.0345 C   0  0  0  0  0  0
  -26.4592  -31.6522   25.0668 C   0  0  0  0  0  0
  -25.3846  -31.3700   26.1372 C   0  0  0  0  0  0
  -27.0424  -30.2907   24.6244 C   0  0  0  0  0  0
  -27.6086  -32.4308   25.7487 C   0  0  0  0  0  0
  -27.5566  -37.1762   24.8458 C   0  0  0  0  0  0
  -21.4162  -29.3060   22.3619 N   0  0  0  0  0  0
  -26.4290  -37.3715   23.9387 N   0  0  0  0  0  0
  -24.6920  -31.0533   22.1008 N   0  0  0  0  0  0
  -23.4200  -28.8190   23.2928 O   0  0  0  0  0  0
  -28.2311  -26.2939   20.1324 O   0  0  0  0  0  0
  -26.5621  -34.8909   22.4576 O   0  0  0  0  0  0
  -23.5482  -32.1493   23.7312 O   0  0  0  0  0  0
  -28.0038  -18.5500   20.3978 C   0  0  0  0  0  0
  -30.1031  -18.3293   20.8291 C   0  0  0  0  0  0
  -29.2182  -19.3131   20.3845 C   0  0  0  0  0  0
  -28.9366  -15.4247   22.9381 C   0  0  0  0  0  0
  -31.2373  -16.1271   22.6342 C   0  0  0  0  0  0
  -29.5192  -20.8144   19.9223 C   0  0  0  0  0  0
  -28.5033  -22.0320   20.2508 C   0  0  0  0  0  0
  -28.8685  -23.6022   19.9298 C   0  0  0  0  0  0
  -27.9057  -24.8308   20.3911 C   0  0  0  0  0  0
  -29.9683  -15.8042   21.7937 C   0  0  0  0  0  0
  -28.1419  -17.2905   20.8460 N   0  0  0  0  0  0
  -29.4615  -17.1125   21.1517 N   0  0  0  0  0  0
  -31.4757  -12.6061   19.2057 H   0  0  0  0  0  0
  -30.4000  -11.4240   19.8604 H   0  0  0  0  0  0
  -29.7916  -11.6959   17.5426 H   0  0  0  0  0  0
  -29.7000  -13.4277   17.6836 H   0  0  0  0  0  0
  -27.8542  -11.2919   18.8035 H   0  0  0  0  0  0
  -27.4101  -12.5942   17.7306 H   0  0  0  0  0  0
  -27.6870  -14.2399   19.5268 H   0  0  0  0  0  0
  -28.6837  -11.8720   21.1766 H   0  0  0  0  0  0
  -28.3089  -13.3592   21.9074 H   0  0  0  0  0  0
  -25.2776   -9.5736   22.4678 H   0  0  0  0  0  0
  -24.0042   -7.4659   22.7471 H   0  0  0  0  0  0
  -21.0779   -8.8733   19.8996 H   0  0  0  0  0  0
  -22.3644  -10.9606   19.6078 H   0  0  0  0  0  0
  -21.1990   -7.6109   23.9692 H   0  0  0  0  0  0
  -21.1499   -6.0492   25.9072 H   0  0  0  0  0  0
  -22.0593   -2.7547   23.2947 H   0  0  0  0  0  0
  -22.4222  -11.9760   22.4856 H   0  0  0  0  0  0
  -21.1253  -13.1188   22.2775 H   0  0  0  0  0  0
  -24.7049  -15.8637   20.6271 H   0  0  0  0  0  0
  -26.3343  -15.6322   20.2593 H   0  0  0  0  0  0
  -26.7223  -32.5373   23.0966 H   0  0  0  0  0  0
  -25.0186  -33.9678   25.0388 H   0  0  0  0  0  0
  -22.7137  -31.3121   21.4081 H   0  0  0  0  0  0
  -23.3751  -35.9606   23.3285 H   0  0  0  0  0  0
  -24.3579  -36.8916   22.2040 H   0  0  0  0  0  0
  -23.7350  -37.6472   23.6698 H   0  0  0  0  0  0
  -26.1263  -31.5375   20.6283 H   0  0  0  0  0  0
  -26.8389  -30.7944   22.0282 H   0  0  0  0  0  0
  -28.0868  -28.8790   21.2362 H   0  0  0  0  0  0
  -25.9397  -25.9859   18.8456 H   0  0  0  0  0  0
  -23.9667  -27.4063   18.8902 H   0  0  0  0  0  0
  -23.7460  -30.6322   19.4081 H   0  0  0  0  0  0
  -22.7489  -29.2773   19.8415 H   0  0  0  0  0  0
  -25.1338  -36.1780   25.0762 H   0  0  0  0  0  0
  -20.9972  -28.3307   24.1362 H   0  0  0  0  0  0
  -20.5702  -26.2297   23.3626 H   0  0  0  0  0  0
  -21.6653  -26.7467   22.1174 H   0  0  0  0  0  0
  -19.6947  -25.6305   21.1225 H   0  0  0  0  0  0
  -19.6704  -27.3183   20.6746 H   0  0  0  0  0  0
  -17.4218  -26.6661   21.4017 H   0  0  0  0  0  0
  -18.0339  -26.0080   22.9021 H   0  0  0  0  0  0
  -19.7930  -30.7267   24.2236 H   0  0  0  0  0  0
  -17.5015  -31.6245   24.5164 H   0  0  0  0  0  0
  -15.5351  -30.2957   23.7691 H   0  0  0  0  0  0
  -15.8662  -28.0803   22.7080 H   0  0  0  0  0  0
  -24.6001  -30.7062   25.7717 H   0  0  0  0  0  0
  -24.9061  -32.2900   26.4787 H   0  0  0  0  0  0
  -25.8157  -30.8893   27.0166 H   0  0  0  0  0  0
  -26.3006  -29.6600   24.1332 H   0  0  0  0  0  0
  -27.4110  -29.7223   25.4801 H   0  0  0  0  0  0
  -27.8909  -30.4058   23.9471 H   0  0  0  0  0  0
  -27.2596  -33.3597   26.2035 H   0  0  0  0  0  0
  -28.3934  -32.6935   25.0360 H   0  0  0  0  0  0
  -28.0751  -31.8506   26.5476 H   0  0  0  0  0  0
  -28.2538  -38.0093   24.7449 H   0  0  0  0  0  0
  -28.1079  -36.2600   24.6303 H   0  0  0  0  0  0
  -27.2241  -37.1411   25.8850 H   0  0  0  0  0  0
  -20.9329  -29.8747   21.6791 H   0  0  0  0  0  0
  -26.0120  -38.2766   24.1420 H   0  0  0  0  0  0
  -27.0186  -18.8635   20.0835 H   0  0  0  0  0  0
  -31.1696  -18.4281   20.9598 H   0  0  0  0  0  0
  -27.8965  -15.4399   22.6090 H   0  0  0  0  0  0
  -29.1038  -14.4723   23.4401 H   0  0  0  0  0  0
  -28.9669  -16.1396   23.7710 H   0  0  0  0  0  0
  -31.0387  -16.7363   23.5185 H   0  0  0  0  0  0
  -31.9660  -16.6543   22.0264 H   0  0  0  0  0  0
  -31.7380  -15.2251   22.9963 H   0  0  0  0  0  0
  -29.6943  -20.8339   18.8399 H   0  0  0  0  0  0
  -30.4932  -21.0857   20.3308 H   0  0  0  0  0  0
  -28.2820  -21.9572   21.3114 H   0  0  0  0  0  0
  -27.5735  -21.7906   19.7356 H   0  0  0  0  0  0
  -29.0096  -23.7081   18.8534 H   0  0  0  0  0  0
  -29.8502  -23.8033   20.3632 H   0  0  0  0  0  0
  -27.8212  -24.7496   21.4749 H   0  0  0  0  0  0
  -26.8991  -24.5789   20.0526 H   0  0  0  0  0  0
  1 25  1  0  0  0
  1 30  2  0  0  0
  1 80  1  0  0  0
  2  3  1  0  0  0
  2 25  1  0  0  0
  2 83  1  0  0  0
  2 84  1  0  0  0
  3  4  1  0  0  0
  3 85  1  0  0  0
  3 86  1  0  0  0
  4  5  1  0  0  0
  4 87  1  0  0  0
  4 88  1  0  0  0
  5  6  1  0  0  0
  5 26  1  0  0  0
  5 89  1  0  0  0
  6 25  1  0  0  0
  6 90  1  0  0  0
  6 91  1  0  0  0
  7  8  2  0  0  0
  7 26  1  0  0  0
  7 29  1  0  0  0
  8  9  1  0  0  0
  8 22  1  0  0  0
  9 10  1  0  0  0
  9 27  2  0  0  0
 10 11  2  0  0  0
 10 15  1  0  0  0
 11 12  1  0  0  0
 11 92  1  0  0  0
 12 13  2  0  0  0
 12 93  1  0  0  0
 13 14  1  0  0  0
 13 31  1  0  0  0
 14 15  2  0  0  0
 14 94  1  0  0  0
 15 95  1  0  0  0
 16 17  2  0  0  0
 16 21  1  0  0  0
 16 31  1  0  0  0
 17 18  1  0  0  0
 17 96  1  0  0  0
 18 19  2  0  0  0
 18 97  1  0  0  0
 19 20  1  0  0  0
 19 24  1  0  0  0
 20 21  2  0  0  0
 20 98  1  0  0  0
 21 23  1  0  0  0
 22 28  1  0  0  0
 22 32  2  0  0  0
 26 27  1  0  0  0
 28 99  1  0  0  0
 28100  1  0  0  0
 29101  1  0  0  0
 29102  1  0  0  0
 33 34  1  0  0  0
 33 66  1  0  0  0
 33 70  2  0  0  0
 34 36  1  0  0  0
 34 59  1  0  0  0
 34103  1  0  0  0
 35 44  2  0  0  0
 35 45  1  0  0  0
 35 68  1  0  0  0
 36 56  1  0  0  0
 36104  1  0  0  0
 37 39  1  0  0  0
 37 47  1  0  0  0
 37 66  1  0  0  0
 37105  1  0  0  0
 38 43  2  0  0  0
 38 46  1  0  0  0
 38 47  1  0  0  0
 39 64  1  0  0  0
 39 67  2  0  0  0
 40 52  1  0  0  0
 40 53  2  0  0  0
 40 58  1  0  0  0
 41106  1  0  0  0
 41107  1  0  0  0
 41108  1  0  0  0
 41 48  1  0  0  0
 42 43  1  0  0  0
 42 66  1  0  0  0
 42109  1  0  0  0
 42110  1  0  0  0
 43 44  1  0  0  0
 44111  1  0  0  0
 45 46  2  0  0  0
 45112  1  0  0  0
 46113  1  0  0  0
 47114  1  0  0  0
 47115  1  0  0  0
 48 56  1  0  0  0
 48 65  1  0  0  0
 48116  1  0  0  0
 49 50  1  0  0  0
 49 53  1  0  0  0
 49 64  1  0  0  0
 49117  1  0  0  0
 50 51  1  0  0  0
 50118  1  0  0  0
 50119  1  0  0  0
 51 52  1  0  0  0
 51120  1  0  0  0
 51121  1  0  0  0
 52122  1  0  0  0
 52123  1  0  0  0
 53 54  1  0  0  0
 54 55  2  0  0  0
 54124  1  0  0  0
 55 57  1  0  0  0
 55125  1  0  0  0
 56 69  2  0  0  0
 57 58  2  0  0  0
 57126  1  0  0  0
 58127  1  0  0  0
 59 60  1  0  0  0
 59 61  1  0  0  0
 59 62  1  0  0  0
 60128  1  0  0  0
 60129  1  0  0  0
 60130  1  0  0  0
 61131  1  0  0  0
 61132  1  0  0  0
 61133  1  0  0  0
 62134  1  0  0  0
 62135  1  0  0  0
 62136  1  0  0  0
 63 65  1  0  0  0
 63137  1  0  0  0
 63138  1  0  0  0
 63139  1  0  0  0
 64140  1  0  0  0
 65141  1  0  0  0
 68 79  1  0  0  0
 71 73  1  0  0  0
 71 81  2  0  0  0
 71142  1  0  0  0
 72 73  2  0  0  0
 72 82  1  0  0  0
 72143  1  0  0  0
 73 76  1  0  0  0
 74144  1  0  0  0
 74145  1  0  0  0
 74146  1  0  0  0
 74 80  1  0  0  0
 75 80  1  0  0  0
 75147  1  0  0  0
 75148  1  0  0  0
 75149  1  0  0  0
 76 77  1  0  0  0
 76150  1  0  0  0
 76151  1  0  0  0
 77 78  1  0  0  0
 77152  1  0  0  0
 77153  1  0  0  0
 78 79  1  0  0  0
 78154  1  0  0  0
 78155  1  0  0  0
 79156  1  0  0  0
 79157  1  0  0  0
 80 82  1  0  0  0
 81 82  1  0  0  0
M  ISO  4   1 100  68 101  79 101  80 100
M  END
> <chiral flag>
0

> <version>
0

> <s_m_source_file>
/data/baiqing/PycharmProjects/Reinvent-master-3.2/result/LINK_invent/BTK/process_docking_weight1_custom_sum_contain_oxygen_bond_distance_aromatic_linkinvent_7_9_3/rearranged_h_0073.sdf

> <i_m_source_file_index>
23

> <r_mmod_Potential_Energy-OPLS-2005>
336.457885742188

> <r_mmod_Stretch_Energy-OPLS-2005>
152.852432250977

> <r_mmod_Bend_Energy-OPLS-2005>
208.378295898438

> <r_mmod_Torsional_Energy-OPLS-2005>
226.211654663086

> <r_mmod_Improper_Torsional_Energy-OPLS-2005>
2.48231768608093

> <r_mmod_Van_der_Waal_Energy-OPLS-2005>
132.648895263672

> <r_mmod_Electrostatic_Energy-OPLS-2005>
-290.264587402344

> <r_mmod_Solvation_Energy-OPLS-2005>
-183.732513427734

> <b_mmod_Minimization_Converged-OPLS-2005>
0

> <r_mmod_RMS_Derivative-OPLS-2005>
12.7218856811523

$$$$
23
                    3D
 Structure written by MMmdl.
157165  0  0  1  0            999 V2000
  -30.6053  -14.7201   20.4928 C   0  0  0  0  0  0
  -30.4382  -12.4400   19.4698 C   0  0  0  0  0  0
  -29.5133  -12.5067   18.2333 C   0  0  0  0  0  0
  -28.0394  -12.3130   18.6425 C   0  0  0  0  0  0
  -27.6429  -13.2071   19.8443 C   0  0  2  0  0  0
  -28.6861  -13.1203   20.9814 C   0  0  0  0  0  0
  -25.2565  -13.8139   20.5680 C   0  0  0  0  0  0
  -24.1811  -13.0423   20.9167 C   0  0  0  0  0  0
  -24.6365  -11.6889   20.8718 C   0  0  0  0  0  0
  -23.9036  -10.4284   21.0402 C   0  0  0  0  0  0
  -24.3600   -9.4209   21.9184 C   0  0  0  0  0  0
  -23.6283   -8.2243   22.0756 C   0  0  0  0  0  0
  -22.4267   -8.0275   21.3544 C   0  0  0  0  0  0
  -21.9892   -9.0243   20.4647 C   0  0  0  0  0  0
  -22.7210  -10.2125   20.3053 C   0  0  0  0  0  0
  -21.6849   -6.0732   22.5280 C   0  0  0  0  0  0
  -21.4009   -6.5636   23.8213 C   0  0  0  0  0  0
  -21.3659   -5.6790   24.9177 C   0  0  0  0  0  0
  -21.6044   -4.3053   24.7228 C   0  0  0  0  0  0
  -21.8820   -3.8145   23.4348 C   0  0  0  0  0  0
  -21.9193   -4.6961   22.3406 C   0  0  0  0  0  0
  -22.7845  -13.5235   21.1851 C   0  0  0  0  0  0
  -22.1666   -4.2148   21.0983 F   0  0  0  0  0  0
  -21.5628   -3.4534   25.7739 F   0  0  0  0  0  0
  -29.9922  -13.4858   20.4193 N   0  0  0  0  0  0
  -26.2939  -12.9279   20.3233 N   0  0  0  0  0  0
  -25.9280  -11.6449   20.5702 N   0  0  0  0  0  0
  -22.0483  -12.8235   22.0413 N   0  0  0  0  0  0
  -25.4370  -15.1854   20.4195 N   0  0  0  0  0  0
  -31.7859  -14.8064   20.1351 O   0  0  0  0  0  0
  -21.6635   -6.8870   21.4241 O   0  0  0  0  0  0
  -22.3528  -14.5543   20.6706 O   0  0  0  0  0  0
  -24.6267  -31.8576   23.1991 C   0  0  0  0  0  0
  -25.9108  -32.4767   23.8330 C   0  0  1  0  0  0
  -27.2296  -27.3064   20.1337 C   0  0  0  0  0  0
  -25.5917  -33.8569   24.2257 N   0  0  0  0  0  0
  -23.4220  -30.4782   21.5408 C   0  0  2  0  0  0
  -24.8721  -28.9232   20.1158 C   0  0  0  0  0  0
  -22.7479  -29.4611   22.4923 C   0  0  0  0  0  0
  -18.0285  -28.1387   22.8484 C   0  0  0  0  0  0
  -24.1488  -36.7289   23.2641 C   0  0  0  0  0  0
  -25.9623  -30.7870   21.3692 C   0  0  0  0  0  0
  -26.0402  -29.4100   20.7170 C   0  0  0  0  0  0
  -27.2260  -28.6154   20.7093 C   0  0  0  0  0  0
  -26.0411  -26.8644   19.5195 C   0  0  0  0  0  0
  -24.8745  -27.6562   19.5071 C   0  0  0  0  0  0
  -23.6398  -29.8056   20.1588 C   0  0  0  0  0  0
  -25.4114  -36.3075   24.0325 C   0  0  1  0  0  0
  -20.5886  -28.3693   23.1279 C   0  0  2  0  0  0
  -20.6772  -26.9415   22.5410 C   0  0  0  0  0  0
  -19.5750  -26.6386   21.5212 C   0  0  0  0  0  0
  -18.1930  -26.7928   22.1625 C   0  0  0  0  0  0
  -19.1539  -28.8857   23.2876 C   0  0  0  0  0  0
  -18.9463  -30.1459   23.8895 C   0  0  0  0  0  0
  -17.6465  -30.6590   24.0567 C   0  0  0  0  0  0
  -25.9054  -34.9447   23.5093 C   0  0  0  0  0  0
  -16.5356  -29.9090   23.6330 C   0  0  0  0  0  0
  -16.7273  -28.6507   23.0350 C   0  0  0  0  0  0
  -26.4493  -31.6584   25.0707 C   0  0  0  0  0  0
  -25.3728  -31.3727   26.1435 C   0  0  0  0  0  0
  -27.0340  -30.3006   24.6165 C   0  0  0  0  0  0
  -27.6043  -32.4329   25.7483 C   0  0  0  0  0  0
  -27.5575  -37.1800   24.8466 C   0  0  0  0  0  0
  -21.4190  -29.3043   22.3671 N   0  0  0  0  0  0
  -26.4289  -37.3771   23.9407 N   0  0  0  0  0  0
  -24.6889  -31.0583   22.0937 N   0  0  0  0  0  0
  -23.4195  -28.8157   23.3014 O   0  0  0  0  0  0
  -28.3471  -26.4599   20.1174 O   0  0  0  0  0  0
  -26.5630  -34.8919   22.4665 O   0  0  0  0  0  0
  -23.5428  -32.1377   23.7315 O   0  0  0  0  0  0
  -27.8902  -20.2041   20.2520 C   0  0  0  0  0  0
  -30.0114  -20.0418   20.6478 C   0  0  0  0  0  0
  -29.0058  -21.0093   20.6344 C   0  0  0  0  0  0
  -30.1254  -17.1847   18.5217 C   0  0  0  0  0  0
  -30.0493  -16.3632   22.3850 C   0  0  0  0  0  0
  -28.9989  -22.5288   21.0762 C   0  0  0  0  0  0
  -28.6108  -23.7469   20.1014 C   0  0  0  0  0  0
  -28.2592  -25.1492   20.8120 C   0  0  0  0  0  0
  -30.2156  -17.4362   20.0419 C   0  0  2  0  0  0
  -29.8454  -16.0983   20.8841 C   0  0  2  0  0  0
  -28.1827  -18.9115   20.0686 N   0  0  0  0  0  0
  -29.5075  -18.7601   20.3280 N   0  0  0  0  0  0
  -28.5336  -15.9345   20.7227 F   0  0  0  0  0  0
  -31.4780  -12.5689   19.1662 H   0  0  0  0  0  0
  -30.3875  -11.4549   19.9366 H   0  0  0  0  0  0
  -29.8022  -11.7484   17.5043 H   0  0  0  0  0  0
  -29.6335  -13.4713   17.7377 H   0  0  0  0  0  0
  -27.9038  -11.2627   18.9031 H   0  0  0  0  0  0
  -27.3815  -12.5041   17.7941 H   0  0  0  0  0  0
  -27.6347  -14.2191   19.4462 H   0  0  0  0  0  0
  -28.7209  -12.1101   21.3923 H   0  0  0  0  0  0
  -28.4141  -13.7676   21.8154 H   0  0  0  0  0  0
  -25.2747   -9.5691   22.4755 H   0  0  0  0  0  0
  -23.9996   -7.4638   22.7475 H   0  0  0  0  0  0
  -21.0824   -8.8752   19.8959 H   0  0  0  0  0  0
  -22.3662  -10.9663   19.6163 H   0  0  0  0  0  0
  -21.1996   -7.6144   23.9713 H   0  0  0  0  0  0
  -21.1483   -6.0523   25.9079 H   0  0  0  0  0  0
  -22.0600   -2.7607   23.2847 H   0  0  0  0  0  0
  -22.4078  -11.9896   22.4817 H   0  0  0  0  0  0
  -21.1105  -13.1283   22.2608 H   0  0  0  0  0  0
  -24.6962  -15.8588   20.5766 H   0  0  0  0  0  0
  -26.3366  -15.6181   20.2367 H   0  0  0  0  0  0
  -26.7180  -32.5445   23.1083 H   0  0  0  0  0  0
  -25.0057  -33.9712   25.0395 H   0  0  0  0  0  0
  -22.7168  -31.2985   21.3925 H   0  0  0  0  0  0
  -23.3747  -35.9625   23.3307 H   0  0  0  0  0  0
  -24.3573  -36.8910   22.2055 H   0  0  0  0  0  0
  -23.7247  -37.6493   23.6664 H   0  0  0  0  0  0
  -26.0917  -31.5483   20.5987 H   0  0  0  0  0  0
  -26.8431  -30.8405   21.9972 H   0  0  0  0  0  0
  -28.1281  -28.9898   21.1729 H   0  0  0  0  0  0
  -26.0153  -25.8895   19.0528 H   0  0  0  0  0  0
  -23.9787  -27.2771   19.0349 H   0  0  0  0  0  0
  -23.7612  -30.5782   19.3988 H   0  0  0  0  0  0
  -22.7601  -29.2341   19.8567 H   0  0  0  0  0  0
  -25.1296  -36.1920   25.0816 H   0  0  0  0  0  0
  -20.9982  -28.3273   24.1398 H   0  0  0  0  0  0
  -20.5671  -26.2308   23.3614 H   0  0  0  0  0  0
  -21.6642  -26.7441   22.1209 H   0  0  0  0  0  0
  -19.6915  -25.6297   21.1242 H   0  0  0  0  0  0
  -19.6686  -27.3197   20.6742 H   0  0  0  0  0  0
  -17.4199  -26.6674   21.4028 H   0  0  0  0  0  0
  -18.0333  -26.0070   22.9022 H   0  0  0  0  0  0
  -19.7942  -30.7272   24.2263 H   0  0  0  0  0  0
  -17.5023  -31.6269   24.5173 H   0  0  0  0  0  0
  -15.5358  -30.2998   23.7652 H   0  0  0  0  0  0
  -15.8670  -28.0831   22.7064 H   0  0  0  0  0  0
  -24.5899  -30.7079   25.7766 H   0  0  0  0  0  0
  -24.8928  -32.2901   26.4854 H   0  0  0  0  0  0
  -25.8056  -30.8910   27.0212 H   0  0  0  0  0  0
  -26.2915  -29.6754   24.1193 H   0  0  0  0  0  0
  -27.4041  -29.7263   25.4668 H   0  0  0  0  0  0
  -27.8776  -30.4288   23.9379 H   0  0  0  0  0  0
  -27.2635  -33.3624   26.2052 H   0  0  0  0  0  0
  -28.3856  -32.6901   25.0320 H   0  0  0  0  0  0
  -28.0704  -31.8466   26.5412 H   0  0  0  0  0  0
  -28.2596  -38.0094   24.7506 H   0  0  0  0  0  0
  -28.1068  -36.2625   24.6297 H   0  0  0  0  0  0
  -27.2293  -37.1454   25.8870 H   0  0  0  0  0  0
  -20.9372  -29.8767   21.6877 H   0  0  0  0  0  0
  -26.0168  -38.2843   24.1411 H   0  0  0  0  0  0
  -26.8618  -20.5161   20.1318 H   0  0  0  0  0  0
  -31.0624  -20.1585   20.8734 H   0  0  0  0  0  0
  -29.1074  -16.9287   18.2267 H   0  0  0  0  0  0
  -30.7782  -16.3751   18.1975 H   0  0  0  0  0  0
  -30.4185  -18.0728   17.9613 H   0  0  0  0  0  0
  -29.4452  -17.2050   22.7232 H   0  0  0  0  0  0
  -31.0920  -16.5942   22.6034 H   0  0  0  0  0  0
  -29.7692  -15.4977   22.9861 H   0  0  0  0  0  0
  -29.9715  -22.7737   21.5047 H   0  0  0  0  0  0
  -28.3221  -22.6099   21.9276 H   0  0  0  0  0  0
  -27.7514  -23.4591   19.4958 H   0  0  0  0  0  0
  -29.4304  -23.8967   19.3983 H   0  0  0  0  0  0
  -28.9486  -25.2515   21.6504 H   0  0  0  0  0  0
  -27.2796  -25.0526   21.2828 H   0  0  0  0  0  0
  -31.2690  -17.6282   20.2507 H   0  0  0  0  0  0
  1 25  1  0  0  0
  1 30  2  0  0  0
  1 80  1  0  0  0
  2  3  1  0  0  0
  2 25  1  0  0  0
  2 84  1  0  0  0
  2 85  1  0  0  0
  3  4  1  0  0  0
  3 86  1  0  0  0
  3 87  1  0  0  0
  4  5  1  0  0  0
  4 88  1  0  0  0
  4 89  1  0  0  0
  5  6  1  0  0  0
  5 26  1  0  0  0
  5 90  1  0  0  0
  6 25  1  0  0  0
  6 91  1  0  0  0
  6 92  1  0  0  0
  7  8  2  0  0  0
  7 26  1  0  0  0
  7 29  1  0  0  0
  8  9  1  0  0  0
  8 22  1  0  0  0
  9 10  1  0  0  0
  9 27  2  0  0  0
 10 11  2  0  0  0
 10 15  1  0  0  0
 11 12  1  0  0  0
 11 93  1  0  0  0
 12 13  2  0  0  0
 12 94  1  0  0  0
 13 14  1  0  0  0
 13 31  1  0  0  0
 14 15  2  0  0  0
 14 95  1  0  0  0
 15 96  1  0  0  0
 16 17  2  0  0  0
 16 21  1  0  0  0
 16 31  1  0  0  0
 17 18  1  0  0  0
 17 97  1  0  0  0
 18 19  2  0  0  0
 18 98  1  0  0  0
 19 20  1  0  0  0
 19 24  1  0  0  0
 20 21  2  0  0  0
 20 99  1  0  0  0
 21 23  1  0  0  0
 22 28  1  0  0  0
 22 32  2  0  0  0
 26 27  1  0  0  0
 28100  1  0  0  0
 28101  1  0  0  0
 29102  1  0  0  0
 29103  1  0  0  0
 33 34  1  0  0  0
 33 66  1  0  0  0
 33 70  2  0  0  0
 34 36  1  0  0  0
 34 59  1  0  0  0
 34104  1  0  0  0
 35 44  2  0  0  0
 35 45  1  0  0  0
 35 68  1  0  0  0
 36 56  1  0  0  0
 36105  1  0  0  0
 37 39  1  0  0  0
 37 47  1  0  0  0
 37 66  1  0  0  0
 37106  1  0  0  0
 38 43  2  0  0  0
 38 46  1  0  0  0
 38 47  1  0  0  0
 39 64  1  0  0  0
 39 67  2  0  0  0
 40 52  1  0  0  0
 40 53  2  0  0  0
 40 58  1  0  0  0
 41107  1  0  0  0
 41108  1  0  0  0
 41109  1  0  0  0
 41 48  1  0  0  0
 42 43  1  0  0  0
 42 66  1  0  0  0
 42110  1  0  0  0
 42111  1  0  0  0
 43 44  1  0  0  0
 44112  1  0  0  0
 45 46  2  0  0  0
 45113  1  0  0  0
 46114  1  0  0  0
 47115  1  0  0  0
 47116  1  0  0  0
 48 56  1  0  0  0
 48 65  1  0  0  0
 48117  1  0  0  0
 49 50  1  0  0  0
 49 53  1  0  0  0
 49 64  1  0  0  0
 49118  1  0  0  0
 50 51  1  0  0  0
 50119  1  0  0  0
 50120  1  0  0  0
 51 52  1  0  0  0
 51121  1  0  0  0
 51122  1  0  0  0
 52123  1  0  0  0
 52124  1  0  0  0
 53 54  1  0  0  0
 54 55  2  0  0  0
 54125  1  0  0  0
 55 57  1  0  0  0
 55126  1  0  0  0
 56 69  2  0  0  0
 57 58  2  0  0  0
 57127  1  0  0  0
 58128  1  0  0  0
 59 60  1  0  0  0
 59 61  1  0  0  0
 59 62  1  0  0  0
 60129  1  0  0  0
 60130  1  0  0  0
 60131  1  0  0  0
 61132  1  0  0  0
 61133  1  0  0  0
 61134  1  0  0  0
 62135  1  0  0  0
 62136  1  0  0  0
 62137  1  0  0  0
 63 65  1  0  0  0
 63138  1  0  0  0
 63139  1  0  0  0
 63140  1  0  0  0
 64141  1  0  0  0
 65142  1  0  0  0
 68 78  1  0  0  0
 71 73  1  0  0  0
 71 81  2  0  0  0
 71143  1  0  0  0
 72 73  2  0  0  0
 72 82  1  0  0  0
 72144  1  0  0  0
 73 76  1  0  0  0
 74145  1  0  0  0
 74146  1  0  0  0
 74147  1  0  0  0
 74 79  1  0  0  0
 75148  1  0  0  0
 75149  1  0  0  0
 75150  1  0  0  0
 75 80  1  0  0  0
 76 77  1  0  0  0
 76151  1  0  0  0
 76152  1  0  0  0
 77 78  1  0  0  0
 77153  1  0  0  0
 77154  1  0  0  0
 78155  1  0  0  0
 78156  1  0  0  0
 79 80  1  0  0  0
 79 82  1  0  0  0
 79157  1  0  0  0
 80 83  1  0  0  0
 81 82  1  0  0  0
M  ISO  4   1 100  68 101  78 101  80 100
M  END
> <chiral flag>
0

> <version>
0

> <s_m_source_file>
/data/baiqing/PycharmProjects/Reinvent-master-3.2/result/LINK_invent/BTK/process_docking_weight1_custom_sum_contain_oxygen_bond_distance_aromatic_linkinvent_7_9_3/rearranged_h_0073.sdf

> <i_m_source_file_index>
24

> <r_mmod_Potential_Energy-OPLS-2005>
212.152389526367

> <r_mmod_Stretch_Energy-OPLS-2005>
107.287208557129

> <r_mmod_Bend_Energy-OPLS-2005>
158.4091796875

> <r_mmod_Torsional_Energy-OPLS-2005>
226.195953369141

> <r_mmod_Improper_Torsional_Energy-OPLS-2005>
4.33337306976318

> <r_mmod_Van_der_Waal_Energy-OPLS-2005>
112.050262451172

> <r_mmod_Electrostatic_Energy-OPLS-2005>
-270.319488525391

> <r_mmod_Solvation_Energy-OPLS-2005>
-189.463180541992

> <b_mmod_Minimization_Converged-OPLS-2005>
0

> <r_mmod_RMS_Derivative-OPLS-2005>
0.530973196029663

$$$$
24
                    3D
 Structure written by MMmdl.
167175  0  0  1  0            999 V2000
  -30.4264  -15.3318   20.3008 C   0  0  0  0  0  0
  -30.4474  -12.8525   19.4959 C   0  0  0  0  0  0
  -29.5263  -12.5733   18.2751 C   0  0  0  0  0  0
  -28.0872  -12.2503   18.7172 C   0  0  0  0  0  0
  -27.6071  -13.2198   19.8185 C   0  0  2  0  0  0
  -28.6608  -13.4563   20.9271 C   0  0  0  0  0  0
  -25.2367  -13.8012   20.5752 C   0  0  0  0  0  0
  -24.1702  -13.0261   20.9299 C   0  0  0  0  0  0
  -24.6360  -11.6771   20.8842 C   0  0  0  0  0  0
  -23.9049  -10.4165   21.0453 C   0  0  0  0  0  0
  -24.3600   -9.4091   21.9226 C   0  0  0  0  0  0
  -23.6241   -8.2158   22.0742 C   0  0  0  0  0  0
  -22.4217   -8.0233   21.3543 C   0  0  0  0  0  0
  -21.9889   -9.0194   20.4635 C   0  0  0  0  0  0
  -22.7233  -10.2056   20.3060 C   0  0  0  0  0  0
  -21.6818   -6.0702   22.5271 C   0  0  0  0  0  0
  -21.3992   -6.5622   23.8201 C   0  0  0  0  0  0
  -21.3638   -5.6779   24.9167 C   0  0  0  0  0  0
  -21.6032   -4.3036   24.7246 C   0  0  0  0  0  0
  -21.8824   -3.8133   23.4365 C   0  0  0  0  0  0
  -21.9191   -4.6942   22.3411 C   0  0  0  0  0  0
  -22.7744  -13.5104   21.1883 C   0  0  0  0  0  0
  -22.1650   -4.2144   21.0981 F   0  0  0  0  0  0
  -21.5643   -3.4498   25.7763 F   0  0  0  0  0  0
  -29.8794  -14.0051   20.2906 N   0  0  0  0  0  0
  -26.2800  -12.9202   20.3305 N   0  0  0  0  0  0
  -25.9304  -11.6378   20.5901 N   0  0  0  0  0  0
  -22.0364  -12.8078   22.0422 N   0  0  0  0  0  0
  -25.3887  -15.1719   20.4154 N   0  0  0  0  0  0
  -31.6670  -15.2814   20.2590 O   0  0  0  0  0  0
  -21.6572   -6.8838   21.4236 O   0  0  0  0  0  0
  -22.3443  -14.5406   20.6699 O   0  0  0  0  0  0
  -24.6609  -31.8244   23.1671 C   0  0  0  0  0  0
  -25.9293  -32.4619   23.8179 C   0  0  1  0  0  0
  -27.2516  -26.9585   20.2069 C   0  0  0  0  0  0
  -25.5959  -33.8415   24.2050 N   0  0  0  0  0  0
  -23.4801  -30.4298   21.5137 C   0  0  2  0  0  0
  -24.9395  -28.8148   20.1125 C   0  0  0  0  0  0
  -22.7674  -29.4416   22.4750 C   0  0  0  0  0  0
  -18.0316  -28.1371   22.8472 C   0  0  0  0  0  0
  -24.1484  -36.7258   23.2655 C   0  0  0  0  0  0
  -26.0440  -30.6468   21.3888 C   0  0  0  0  0  0
  -26.1156  -29.2364   20.7412 C   0  0  0  0  0  0
  -27.2588  -28.3243   20.7667 C   0  0  0  0  0  0
  -26.0469  -26.6735   19.5253 C   0  0  0  0  0  0
  -24.9266  -27.5520   19.4881 C   0  0  0  0  0  0
  -23.7208  -29.7396   20.1411 C   0  0  0  0  0  0
  -25.4134  -36.3005   24.0295 C   0  0  1  0  0  0
  -20.5951  -28.3735   23.1168 C   0  0  2  0  0  0
  -20.6813  -26.9401   22.5390 C   0  0  0  0  0  0
  -19.5798  -26.6307   21.5205 C   0  0  0  0  0  0
  -18.1953  -26.7912   22.1581 C   0  0  0  0  0  0
  -19.1578  -28.8857   23.2831 C   0  0  0  0  0  0
  -18.9499  -30.1436   23.8897 C   0  0  0  0  0  0
  -17.6490  -30.6565   24.0538 C   0  0  0  0  0  0
  -25.9096  -34.9366   23.4998 C   0  0  0  0  0  0
  -16.5386  -29.9025   23.6356 C   0  0  0  0  0  0
  -16.7288  -28.6431   23.0405 C   0  0  0  0  0  0
  -26.4512  -31.6647   25.0777 C   0  0  0  0  0  0
  -25.3626  -31.3892   26.1459 C   0  0  0  0  0  0
  -27.0385  -30.3025   24.6472 C   0  0  0  0  0  0
  -27.6047  -32.4438   25.7578 C   0  0  0  0  0  0
  -27.5549  -37.1787   24.8453 C   0  0  0  0  0  0
  -21.4330  -29.3051   22.3529 N   0  0  0  0  0  0
  -26.4253  -37.3754   23.9409 N   0  0  0  0  0  0
  -24.7505  -30.9938   22.0787 N   0  0  0  0  0  0
  -23.4202  -28.7965   23.2989 O   0  0  0  0  0  0
  -28.3015  -25.9154   20.3749 O   0  0  0  0  0  0
  -26.5706  -34.8881   22.4586 O   0  0  0  0  0  0
  -23.5695  -32.1160   23.6814 O   0  0  0  0  0  0
  -28.7442  -19.7101   20.2496 C   0  0  0  0  0  0
  -30.4865  -20.7922   20.8165 C   0  0  0  0  0  0
  -29.1714  -21.1448   20.5246 C   0  0  0  0  0  0
  -29.6835  -18.5949   20.3550 C   0  0  0  0  0  0
  -24.4579  -23.3326   20.3976 C   0  0  0  0  0  0
  -25.5162  -22.9980   22.6550 C   0  0  0  0  0  0
  -28.1512  -16.6185   19.7472 C   0  0  0  0  0  0
  -30.1718  -17.0497   18.4265 C   0  0  0  0  0  0
  -32.1295  -18.8312   20.9496 C   0  0  0  0  0  0
  -26.8158  -22.3687   20.5165 C   0  0  0  0  0  0
  -28.5063  -24.3354   19.9408 C   0  0  0  0  0  0
  -28.3258  -22.7070   20.6764 C   0  0  1  0  0  0
  -25.7874  -23.3275   21.1767 C   0  0  0  0  0  0
  -29.6503  -16.8984   19.8794 C   0  0  0  0  0  0
  -30.7955  -19.3839   20.7161 N   0  0  0  0  0  0
  -31.4483  -13.0892   19.1346 H   0  0  0  0  0  0
  -30.5604  -11.9629   20.1166 H   0  0  0  0  0  0
  -29.9216  -11.7491   17.6789 H   0  0  0  0  0  0
  -29.5109  -13.4511   17.6233 H   0  0  0  0  0  0
  -28.0611  -11.2237   19.0840 H   0  0  0  0  0  0
  -27.4105  -12.2867   17.8637 H   0  0  0  0  0  0
  -27.4707  -14.1281   19.2665 H   0  0  0  0  0  0
  -28.8747  -12.5226   21.4484 H   0  0  0  0  0  0
  -28.2971  -14.1450   21.6880 H   0  0  0  0  0  0
  -25.2757   -9.5547   22.4792 H   0  0  0  0  0  0
  -23.9921   -7.4541   22.7453 H   0  0  0  0  0  0
  -21.0819   -8.8731   19.8942 H   0  0  0  0  0  0
  -22.3730  -10.9594   19.6145 H   0  0  0  0  0  0
  -21.1945   -7.6122   23.9711 H   0  0  0  0  0  0
  -21.1446   -6.0500   25.9067 H   0  0  0  0  0  0
  -22.0633   -2.7607   23.2868 H   0  0  0  0  0  0
  -22.3955  -11.9745   22.4842 H   0  0  0  0  0  0
  -21.0992  -13.1121   22.2585 H   0  0  0  0  0  0
  -24.6346  -15.8285   20.5812 H   0  0  0  0  0  0
  -26.2394  -15.6176   20.0987 H   0  0  0  0  0  0
  -26.7405  -32.5152   23.0955 H   0  0  0  0  0  0
  -25.0140  -33.9567   25.0210 H   0  0  0  0  0  0
  -22.8030  -31.2656   21.3358 H   0  0  0  0  0  0
  -23.3720  -35.9605   23.3274 H   0  0  0  0  0  0
  -24.3572  -36.8979   22.2083 H   0  0  0  0  0  0
  -23.7210  -37.6411   23.6747 H   0  0  0  0  0  0
  -26.2121  -31.3851   20.6037 H   0  0  0  0  0  0
  -26.9107  -30.7221   22.0333 H   0  0  0  0  0  0
  -28.1471  -28.6414   21.2923 H   0  0  0  0  0  0
  -25.9371  -25.7004   19.0723 H   0  0  0  0  0  0
  -24.0282  -27.2119   18.9935 H   0  0  0  0  0  0
  -23.8707  -30.5048   19.3771 H   0  0  0  0  0  0
  -22.8335  -29.1907   19.8210 H   0  0  0  0  0  0
  -25.1295  -36.1858   25.0774 H   0  0  0  0  0  0
  -21.0082  -28.3335   24.1267 H   0  0  0  0  0  0
  -20.5729  -26.2316   23.3626 H   0  0  0  0  0  0
  -21.6664  -26.7387   22.1178 H   0  0  0  0  0  0
  -19.6974  -25.6164   21.1333 H   0  0  0  0  0  0
  -19.6772  -27.3037   20.6670 H   0  0  0  0  0  0
  -17.4257  -26.6706   21.3935 H   0  0  0  0  0  0
  -18.0283  -26.0046   22.8956 H   0  0  0  0  0  0
  -19.7980  -30.7226   24.2308 H   0  0  0  0  0  0
  -17.5038  -31.6275   24.5059 H   0  0  0  0  0  0
  -15.5371  -30.2914   23.7685 H   0  0  0  0  0  0
  -15.8702  -28.0709   22.7196 H   0  0  0  0  0  0
  -24.5862  -30.7192   25.7760 H   0  0  0  0  0  0
  -24.8757  -32.3076   26.4765 H   0  0  0  0  0  0
  -25.7875  -30.9183   27.0348 H   0  0  0  0  0  0
  -26.3041  -29.6757   24.1413 H   0  0  0  0  0  0
  -27.3827  -29.7391   25.5155 H   0  0  0  0  0  0
  -27.9008  -30.4215   23.9905 H   0  0  0  0  0  0
  -27.2680  -33.3826   26.1983 H   0  0  0  0  0  0
  -28.3922  -32.6885   25.0435 H   0  0  0  0  0  0
  -28.0617  -31.8696   26.5652 H   0  0  0  0  0  0
  -28.2543  -38.0111   24.7506 H   0  0  0  0  0  0
  -28.1058  -36.2624   24.6245 H   0  0  0  0  0  0
  -27.2300  -37.1419   25.8872 H   0  0  0  0  0  0
  -20.9557  -29.8793   21.6724 H   0  0  0  0  0  0
  -26.0111  -38.2811   24.1417 H   0  0  0  0  0  0
  -27.7226  -19.5254   19.9468 H   0  0  0  0  0  0
  -31.2898  -21.4511   21.1273 H   0  0  0  0  0  0
  -23.7565  -24.0566   20.8144 H   0  0  0  0  0  0
  -23.9584  -22.3606   20.4242 H   0  0  0  0  0  0
  -24.6115  -23.5934   19.3493 H   0  0  0  0  0  0
  -24.7866  -23.6891   23.0780 H   0  0  0  0  0  0
  -26.4236  -23.0640   23.2537 H   0  0  0  0  0  0
  -25.1131  -21.9924   22.7763 H   0  0  0  0  0  0
  -27.5574  -17.4985   19.5190 H   0  0  0  0  0  0
  -27.7528  -16.1965   20.6681 H   0  0  0  0  0  0
  -27.9609  -15.9963   18.8808 H   0  0  0  0  0  0
  -29.5863  -17.7812   17.8641 H   0  0  0  0  0  0
  -30.1435  -16.1138   17.8634 H   0  0  0  0  0  0
  -31.2091  -17.3898   18.4236 H   0  0  0  0  0  0
  -32.7814  -19.5564   21.4440 H   0  0  0  0  0  0
  -32.5933  -18.5483   20.0030 H   0  0  0  0  0  0
  -32.0698  -17.9430   21.5836 H   0  0  0  0  0  0
  -26.6179  -21.3661   20.8960 H   0  0  0  0  0  0
  -26.6226  -22.3037   19.4447 H   0  0  0  0  0  0
  -28.0798  -24.2551   18.9418 H   0  0  0  0  0  0
  -29.5785  -24.3611   19.7364 H   0  0  0  0  0  0
  -28.4812  -22.9049   21.7369 H   0  0  0  0  0  0
  -26.1648  -24.3468   21.1493 H   0  0  0  0  0  0
  1 25  1  0  0  0
  1 30  2  0  0  0
  1 84  1  0  0  0
  2  3  1  0  0  0
  2 25  1  0  0  0
  2 86  1  0  0  0
  2 87  1  0  0  0
  3  4  1  0  0  0
  3 88  1  0  0  0
  3 89  1  0  0  0
  4  5  1  0  0  0
  4 90  1  0  0  0
  4 91  1  0  0  0
  5  6  1  0  0  0
  5 26  1  0  0  0
  5 92  1  0  0  0
  6 25  1  0  0  0
  6 93  1  0  0  0
  6 94  1  0  0  0
  7  8  2  0  0  0
  7 26  1  0  0  0
  7 29  1  0  0  0
  8  9  1  0  0  0
  8 22  1  0  0  0
  9 10  1  0  0  0
  9 27  2  0  0  0
 10 11  2  0  0  0
 10 15  1  0  0  0
 11 12  1  0  0  0
 11 95  1  0  0  0
 12 13  2  0  0  0
 12 96  1  0  0  0
 13 14  1  0  0  0
 13 31  1  0  0  0
 14 15  2  0  0  0
 14 97  1  0  0  0
 15 98  1  0  0  0
 16 17  2  0  0  0
 16 21  1  0  0  0
 16 31  1  0  0  0
 17 18  1  0  0  0
 17 99  1  0  0  0
 18 19  2  0  0  0
 18100  1  0  0  0
 19 20  1  0  0  0
 19 24  1  0  0  0
 20 21  2  0  0  0
 20101  1  0  0  0
 21 23  1  0  0  0
 22 28  1  0  0  0
 22 32  2  0  0  0
 26 27  1  0  0  0
 28102  1  0  0  0
 28103  1  0  0  0
 29104  1  0  0  0
 29105  1  0  0  0
 33 34  1  0  0  0
 33 66  1  0  0  0
 33 70  2  0  0  0
 34 36  1  0  0  0
 34 59  1  0  0  0
 34106  1  0  0  0
 35 44  2  0  0  0
 35 45  1  0  0  0
 35 68  1  0  0  0
 36 56  1  0  0  0
 36107  1  0  0  0
 37 39  1  0  0  0
 37 47  1  0  0  0
 37 66  1  0  0  0
 37108  1  0  0  0
 38 43  2  0  0  0
 38 46  1  0  0  0
 38 47  1  0  0  0
 39 64  1  0  0  0
 39 67  2  0  0  0
 40 52  1  0  0  0
 40 53  2  0  0  0
 40 58  1  0  0  0
 41109  1  0  0  0
 41110  1  0  0  0
 41111  1  0  0  0
 41 48  1  0  0  0
 42 43  1  0  0  0
 42 66  1  0  0  0
 42112  1  0  0  0
 42113  1  0  0  0
 43 44  1  0  0  0
 44114  1  0  0  0
 45 46  2  0  0  0
 45115  1  0  0  0
 46116  1  0  0  0
 47117  1  0  0  0
 47118  1  0  0  0
 48 56  1  0  0  0
 48 65  1  0  0  0
 48119  1  0  0  0
 49 50  1  0  0  0
 49 53  1  0  0  0
 49 64  1  0  0  0
 49120  1  0  0  0
 50 51  1  0  0  0
 50121  1  0  0  0
 50122  1  0  0  0
 51 52  1  0  0  0
 51123  1  0  0  0
 51124  1  0  0  0
 52125  1  0  0  0
 52126  1  0  0  0
 53 54  1  0  0  0
 54 55  2  0  0  0
 54127  1  0  0  0
 55 57  1  0  0  0
 55128  1  0  0  0
 56 69  2  0  0  0
 57 58  2  0  0  0
 57129  1  0  0  0
 58130  1  0  0  0
 59 60  1  0  0  0
 59 61  1  0  0  0
 59 62  1  0  0  0
 60131  1  0  0  0
 60132  1  0  0  0
 60133  1  0  0  0
 61134  1  0  0  0
 61135  1  0  0  0
 61136  1  0  0  0
 62137  1  0  0  0
 62138  1  0  0  0
 62139  1  0  0  0
 63 65  1  0  0  0
 63140  1  0  0  0
 63141  1  0  0  0
 63142  1  0  0  0
 64143  1  0  0  0
 65144  1  0  0  0
 68 81  1  0  0  0
 71 73  1  0  0  0
 71 74  2  0  0  0
 71145  1  0  0  0
 72 73  2  0  0  0
 72 85  1  0  0  0
 72146  1  0  0  0
 73 82  1  0  0  0
 74 84  1  0  0  0
 74 85  1  0  0  0
 75147  1  0  0  0
 75148  1  0  0  0
 75149  1  0  0  0
 75 83  1  0  0  0
 76 83  1  0  0  0
 76150  1  0  0  0
 76151  1  0  0  0
 76152  1  0  0  0
 77153  1  0  0  0
 77154  1  0  0  0
 77155  1  0  0  0
 77 84  1  0  0  0
 78 84  1  0  0  0
 78156  1  0  0  0
 78157  1  0  0  0
 78158  1  0  0  0
 79 85  1  0  0  0
 79159  1  0  0  0
 79160  1  0  0  0
 79161  1  0  0  0
 80 83  1  0  0  0
 80162  1  0  0  0
 80163  1  0  0  0
 80 82  1  0  0  0
 81 82  1  0  0  0
 81164  1  0  0  0
 81165  1  0  0  0
 82166  1  0  0  0
 83167  1  0  0  0
M  ISO  4   1 100  68 101  81 101  84 100
M  END
> <chiral flag>
0

> <version>
0

> <s_m_source_file>
/data/baiqing/PycharmProjects/Reinvent-master-3.2/result/LINK_invent/BTK/process_docking_weight1_custom_sum_contain_oxygen_bond_distance_aromatic_linkinvent_7_9_3/rearranged_h_0073.sdf

> <i_m_source_file_index>
25

> <r_mmod_Potential_Energy-OPLS-2005>
1538.6943359375

> <r_mmod_Stretch_Energy-OPLS-2005>
610.882019042969

> <r_mmod_Bend_Energy-OPLS-2005>
545.283447265625

> <r_mmod_Torsional_Energy-OPLS-2005>
247.534057617188

> <r_mmod_Improper_Torsional_Energy-OPLS-2005>
15.7419548034668

> <r_mmod_Van_der_Waal_Energy-OPLS-2005>
109.319236755371

> <r_mmod_Electrostatic_Energy-OPLS-2005>
-283.798400878906

> <r_mmod_Solvation_Energy-OPLS-2005>
-184.234878540039

> <b_mmod_Minimization_Converged-OPLS-2005>
0

> <r_mmod_RMS_Derivative-OPLS-2005>
6.59025049209595

$$$$
25
                    3D
 Structure written by MMmdl.
166174  0  0  1  0            999 V2000
  -30.7062  -14.4551   20.5936 C   0  0  0  0  0  0
  -30.4290  -12.2977   19.4314 C   0  0  0  0  0  0
  -29.5015  -12.5082   18.2156 C   0  0  0  0  0  0
  -28.0209  -12.3718   18.6225 C   0  0  0  0  0  0
  -27.6695  -13.2040   19.8842 C   0  0  2  0  0  0
  -28.7086  -12.9720   21.0079 C   0  0  0  0  0  0
  -25.2630  -13.8174   20.5690 C   0  0  0  0  0  0
  -24.1870  -13.0464   20.9164 C   0  0  0  0  0  0
  -24.6412  -11.6923   20.8735 C   0  0  0  0  0  0
  -23.9078  -10.4319   21.0414 C   0  0  0  0  0  0
  -24.3642   -9.4234   21.9188 C   0  0  0  0  0  0
  -23.6314   -8.2272   22.0749 C   0  0  0  0  0  0
  -22.4292   -8.0311   21.3546 C   0  0  0  0  0  0
  -21.9925   -9.0290   20.4651 C   0  0  0  0  0  0
  -22.7251  -10.2171   20.3058 C   0  0  0  0  0  0
  -21.6872   -6.0749   22.5287 C   0  0  0  0  0  0
  -21.4013   -6.5637   23.8224 C   0  0  0  0  0  0
  -21.3653   -5.6787   24.9183 C   0  0  0  0  0  0
  -21.6047   -4.3052   24.7223 C   0  0  0  0  0  0
  -21.8818   -3.8148   23.4340 C   0  0  0  0  0  0
  -21.9199   -4.6972   22.3404 C   0  0  0  0  0  0
  -22.7889  -13.5266   21.1841 C   0  0  0  0  0  0
  -22.1671   -4.2154   21.0983 F   0  0  0  0  0  0
  -21.5637   -3.4530   25.7732 F   0  0  0  0  0  0
  -30.0473  -13.2704   20.4676 N   0  0  0  0  0  0
  -26.3075  -12.9338   20.3414 N   0  0  0  0  0  0
  -25.9340  -11.6500   20.5787 N   0  0  0  0  0  0
  -22.0529  -12.8273   22.0409 N   0  0  0  0  0  0
  -25.4364  -15.1897   20.4095 N   0  0  0  0  0  0
  -31.7993  -14.6783   20.0693 O   0  0  0  0  0  0
  -21.6655   -6.8908   21.4251 O   0  0  0  0  0  0
  -22.3580  -14.5575   20.6690 O   0  0  0  0  0  0
  -24.6127  -31.8676   23.2126 C   0  0  0  0  0  0
  -25.9024  -32.4827   23.8409 C   0  0  1  0  0  0
  -27.2482  -27.4378   20.1198 C   0  0  0  0  0  0
  -25.5891  -33.8629   24.2344 N   0  0  0  0  0  0
  -23.4026  -30.4886   21.5517 C   0  0  2  0  0  0
  -24.8564  -28.9523   20.1221 C   0  0  0  0  0  0
  -22.7404  -29.4659   22.5012 C   0  0  0  0  0  0
  -18.0269  -28.1378   22.8496 C   0  0  0  0  0  0
  -24.1486  -36.7315   23.2640 C   0  0  0  0  0  0
  -25.9284  -30.8379   21.3655 C   0  0  0  0  0  0
  -26.0122  -29.4684   20.7237 C   0  0  0  0  0  0
  -27.2119  -28.7204   20.7226 C   0  0  0  0  0  0
  -26.0820  -26.9454   19.5018 C   0  0  0  0  0  0
  -24.8860  -27.6893   19.5061 C   0  0  0  0  0  0
  -23.6161  -29.8167   20.1681 C   0  0  0  0  0  0
  -25.4109  -36.3121   24.0341 C   0  0  1  0  0  0
  -20.5859  -28.3668   23.1330 C   0  0  2  0  0  0
  -20.6760  -26.9408   22.5420 C   0  0  0  0  0  0
  -19.5740  -26.6388   21.5214 C   0  0  0  0  0  0
  -18.1918  -26.7930   22.1620 C   0  0  0  0  0  0
  -19.1520  -28.8840   23.2908 C   0  0  0  0  0  0
  -18.9444  -30.1444   23.8915 C   0  0  0  0  0  0
  -17.6447  -30.6585   24.0573 C   0  0  0  0  0  0
  -25.9025  -34.9481   23.5137 C   0  0  0  0  0  0
  -16.5341  -29.9081   23.6324 C   0  0  0  0  0  0
  -16.7260  -28.6499   23.0348 C   0  0  0  0  0  0
  -26.4477  -31.6595   25.0712 C   0  0  0  0  0  0
  -25.3752  -31.3695   26.1468 C   0  0  0  0  0  0
  -27.0297  -30.3043   24.6067 C   0  0  0  0  0  0
  -27.6053  -32.4312   25.7461 C   0  0  0  0  0  0
  -27.5587  -37.1812   24.8470 C   0  0  0  0  0  0
  -21.4131  -29.3026   22.3735 N   0  0  0  0  0  0
  -26.4302  -37.3790   23.9408 N   0  0  0  0  0  0
  -24.6661  -31.0772   22.1034 N   0  0  0  0  0  0
  -23.4172  -28.8222   23.3074 O   0  0  0  0  0  0
  -28.3743  -26.6448   20.0413 O   0  0  0  0  0  0
  -26.5574  -34.8924   22.4686 O   0  0  0  0  0  0
  -23.5311  -32.1452   23.7508 O   0  0  0  0  0  0
  -30.3945  -20.3381   22.3159 C   0  0  0  0  0  0
  -30.6694  -19.2381   21.5346 C   0  0  0  0  0  0
  -30.6481  -21.0797   20.2457 C   0  0  0  0  0  0
  -30.7676  -21.9202   19.0146 C   0  0  0  0  0  0
  -30.3393  -17.5119   23.3114 C   0  0  0  0  0  0
  -32.3626  -17.4544   21.8366 C   0  0  0  0  0  0
  -29.5325  -23.9103   21.1168 C   0  0  0  0  0  0
  -29.0788  -25.1689   21.9061 C   0  0  0  0  0  0
  -30.1963  -22.8416   22.0284 C   0  0  0  0  0  0
  -30.0854  -16.8720   20.8660 C   0  0  0  0  0  0
  -29.2286  -26.5294   21.1818 C   0  0  0  0  0  0
  -30.8578  -17.7677   21.8813 C   0  0  0  0  0  0
  -30.3758  -21.4553   21.5111 N   0  0  0  0  0  0
  -30.8214  -19.7495   20.2694 N   0  3  0  0  0  0
  -30.0016  -15.4343   21.1832 N   0  0  0  0  0  0
  -31.4741  -12.3981   19.1317 H   0  0  0  0  0  0
  -30.3278  -11.2833   19.8190 H   0  0  0  0  0  0
  -29.7389  -11.7893   17.4304 H   0  0  0  0  0  0
  -29.6765  -13.4970   17.7893 H   0  0  0  0  0  0
  -27.8249  -11.3150   18.8106 H   0  0  0  0  0  0
  -27.3754  -12.6591   17.7915 H   0  0  0  0  0  0
  -27.7208  -14.2519   19.5899 H   0  0  0  0  0  0
  -28.6779  -11.9352   21.3468 H   0  0  0  0  0  0
  -28.4678  -13.5675   21.8894 H   0  0  0  0  0  0
  -25.2806   -9.5702   22.4741 H   0  0  0  0  0  0
  -24.0030   -7.4654   22.7448 H   0  0  0  0  0  0
  -21.0862   -8.8816   19.8949 H   0  0  0  0  0  0
  -22.3731  -10.9713   19.6156 H   0  0  0  0  0  0
  -21.1997   -7.6143   23.9729 H   0  0  0  0  0  0
  -21.1481   -6.0515   25.9090 H   0  0  0  0  0  0
  -22.0597   -2.7603   23.2845 H   0  0  0  0  0  0
  -22.4133  -11.9922   22.4793 H   0  0  0  0  0  0
  -21.1137  -13.1293   22.2595 H   0  0  0  0  0  0
  -24.6695  -15.8451   20.5163 H   0  0  0  0  0  0
  -26.2937  -15.6305   20.1000 H   0  0  0  0  0  0
  -26.7093  -32.5577   23.1183 H   0  0  0  0  0  0
  -25.0073  -33.9811   25.0510 H   0  0  0  0  0  0
  -22.6908  -31.3036   21.4082 H   0  0  0  0  0  0
  -23.3742  -35.9653   23.3323 H   0  0  0  0  0  0
  -24.3587  -36.8902   22.2050 H   0  0  0  0  0  0
  -23.7247  -37.6532   23.6631 H   0  0  0  0  0  0
  -26.0312  -31.5999   20.5917 H   0  0  0  0  0  0
  -26.8183  -30.9023   21.9795 H   0  0  0  0  0  0
  -28.1028  -29.1418   21.1671 H   0  0  0  0  0  0
  -26.1014  -25.9767   19.0232 H   0  0  0  0  0  0
  -24.0013  -27.2882   19.0310 H   0  0  0  0  0  0
  -23.7249  -30.5891   19.4046 H   0  0  0  0  0  0
  -22.7431  -29.2312   19.8737 H   0  0  0  0  0  0
  -25.1287  -36.1984   25.0834 H   0  0  0  0  0  0
  -20.9944  -28.3218   24.1455 H   0  0  0  0  0  0
  -20.5662  -26.2270   23.3603 H   0  0  0  0  0  0
  -21.6633  -26.7452   22.1216 H   0  0  0  0  0  0
  -19.6901  -25.6299   21.1240 H   0  0  0  0  0  0
  -19.6684  -27.3201   20.6750 H   0  0  0  0  0  0
  -17.4194  -26.6696   21.4012 H   0  0  0  0  0  0
  -18.0312  -26.0058   22.9001 H   0  0  0  0  0  0
  -19.7917  -30.7262   24.2288 H   0  0  0  0  0  0
  -17.4998  -31.6270   24.5167 H   0  0  0  0  0  0
  -15.5345  -30.2990   23.7633 H   0  0  0  0  0  0
  -15.8662  -28.0825   22.7048 H   0  0  0  0  0  0
  -24.5914  -30.7059   25.7809 H   0  0  0  0  0  0
  -24.8952  -32.2842   26.4947 H   0  0  0  0  0  0
  -25.8113  -30.8837   27.0209 H   0  0  0  0  0  0
  -26.2828  -29.6806   24.1145 H   0  0  0  0  0  0
  -27.4097  -29.7278   25.4511 H   0  0  0  0  0  0
  -27.8645  -30.4378   23.9181 H   0  0  0  0  0  0
  -27.2679  -33.3600   26.2082 H   0  0  0  0  0  0
  -28.3830  -32.6896   25.0262 H   0  0  0  0  0  0
  -28.0760  -31.8406   26.5337 H   0  0  0  0  0  0
  -28.2612  -38.0102   24.7500 H   0  0  0  0  0  0
  -28.1078  -36.2630   24.6312 H   0  0  0  0  0  0
  -27.2307  -37.1481   25.8878 H   0  0  0  0  0  0
  -20.9298  -29.8738   21.6947 H   0  0  0  0  0  0
  -26.0198  -38.2872   24.1394 H   0  0  0  0  0  0
  -30.2327  -20.4035   23.3826 H   0  0  0  0  0  0
  -29.8045  -22.3857   18.8099 H   0  0  0  0  0  0
  -31.0465  -21.2843   18.1743 H   0  0  0  0  0  0
  -31.5367  -22.6758   19.1694 H   0  0  0  0  0  0
  -30.8771  -18.1114   24.0463 H   0  0  0  0  0  0
  -30.4658  -16.4701   23.6034 H   0  0  0  0  0  0
  -29.2779  -17.7453   23.3981 H   0  0  0  0  0  0
  -32.9279  -18.1079   22.5025 H   0  0  0  0  0  0
  -32.7660  -17.5763   20.8312 H   0  0  0  0  0  0
  -32.5633  -16.4283   22.1428 H   0  0  0  0  0  0
  -30.2388  -24.2142   20.3452 H   0  0  0  0  0  0
  -28.6681  -23.4844   20.6044 H   0  0  0  0  0  0
  -29.6734  -25.2369   22.8188 H   0  0  0  0  0  0
  -28.0497  -25.0362   22.2441 H   0  0  0  0  0  0
  -29.6012  -22.7495   22.9381 H   0  0  0  0  0  0
  -31.1783  -23.1893   22.3523 H   0  0  0  0  0  0
  -30.4941  -16.9964   19.8619 H   0  0  0  0  0  0
  -29.0543  -17.2212   20.8034 H   0  0  0  0  0  0
  -30.2575  -26.6502   20.8424 H   0  0  0  0  0  0
  -29.0665  -27.3225   21.9099 H   0  0  0  0  0  0
  -31.0492  -19.1977   19.4505 H   0  0  0  0  0  0
  -29.1545  -15.1385   21.6441 H   0  0  0  0  0  0
  1 25  1  0  0  0
  1 30  2  0  0  0
  1 85  1  0  0  0
  2  3  1  0  0  0
  2 25  1  0  0  0
  2 86  1  0  0  0
  2 87  1  0  0  0
  3  4  1  0  0  0
  3 88  1  0  0  0
  3 89  1  0  0  0
  4  5  1  0  0  0
  4 90  1  0  0  0
  4 91  1  0  0  0
  5  6  1  0  0  0
  5 26  1  0  0  0
  5 92  1  0  0  0
  6 25  1  0  0  0
  6 93  1  0  0  0
  6 94  1  0  0  0
  7  8  2  0  0  0
  7 26  1  0  0  0
  7 29  1  0  0  0
  8  9  1  0  0  0
  8 22  1  0  0  0
  9 10  1  0  0  0
  9 27  2  0  0  0
 10 11  2  0  0  0
 10 15  1  0  0  0
 11 12  1  0  0  0
 11 95  1  0  0  0
 12 13  2  0  0  0
 12 96  1  0  0  0
 13 14  1  0  0  0
 13 31  1  0  0  0
 14 15  2  0  0  0
 14 97  1  0  0  0
 15 98  1  0  0  0
 16 17  2  0  0  0
 16 21  1  0  0  0
 16 31  1  0  0  0
 17 18  1  0  0  0
 17 99  1  0  0  0
 18 19  2  0  0  0
 18100  1  0  0  0
 19 20  1  0  0  0
 19 24  1  0  0  0
 20 21  2  0  0  0
 20101  1  0  0  0
 21 23  1  0  0  0
 22 28  1  0  0  0
 22 32  2  0  0  0
 26 27  1  0  0  0
 28102  1  0  0  0
 28103  1  0  0  0
 29104  1  0  0  0
 29105  1  0  0  0
 33 34  1  0  0  0
 33 66  1  0  0  0
 33 70  2  0  0  0
 34 36  1  0  0  0
 34 59  1  0  0  0
 34106  1  0  0  0
 35 44  2  0  0  0
 35 45  1  0  0  0
 35 68  1  0  0  0
 36 56  1  0  0  0
 36107  1  0  0  0
 37 39  1  0  0  0
 37 47  1  0  0  0
 37 66  1  0  0  0
 37108  1  0  0  0
 38 43  2  0  0  0
 38 46  1  0  0  0
 38 47  1  0  0  0
 39 64  1  0  0  0
 39 67  2  0  0  0
 40 52  1  0  0  0
 40 53  2  0  0  0
 40 58  1  0  0  0
 41109  1  0  0  0
 41110  1  0  0  0
 41111  1  0  0  0
 41 48  1  0  0  0
 42 43  1  0  0  0
 42 66  1  0  0  0
 42112  1  0  0  0
 42113  1  0  0  0
 43 44  1  0  0  0
 44114  1  0  0  0
 45 46  2  0  0  0
 45115  1  0  0  0
 46116  1  0  0  0
 47117  1  0  0  0
 47118  1  0  0  0
 48 56  1  0  0  0
 48 65  1  0  0  0
 48119  1  0  0  0
 49 50  1  0  0  0
 49 53  1  0  0  0
 49 64  1  0  0  0
 49120  1  0  0  0
 50 51  1  0  0  0
 50121  1  0  0  0
 50122  1  0  0  0
 51 52  1  0  0  0
 51123  1  0  0  0
 51124  1  0  0  0
 52125  1  0  0  0
 52126  1  0  0  0
 53 54  1  0  0  0
 54 55  2  0  0  0
 54127  1  0  0  0
 55 57  1  0  0  0
 55128  1  0  0  0
 56 69  2  0  0  0
 57 58  2  0  0  0
 57129  1  0  0  0
 58130  1  0  0  0
 59 60  1  0  0  0
 59 61  1  0  0  0
 59 62  1  0  0  0
 60131  1  0  0  0
 60132  1  0  0  0
 60133  1  0  0  0
 61134  1  0  0  0
 61135  1  0  0  0
 61136  1  0  0  0
 62137  1  0  0  0
 62138  1  0  0  0
 62139  1  0  0  0
 63 65  1  0  0  0
 63140  1  0  0  0
 63141  1  0  0  0
 63142  1  0  0  0
 64143  1  0  0  0
 65144  1  0  0  0
 68 81  1  0  0  0
 71 72  2  0  0  0
 71 83  1  0  0  0
 71145  1  0  0  0
 72 82  1  0  0  0
 72 84  1  0  0  0
 73 74  1  0  0  0
 73 83  1  0  0  0
 73 84  2  0  0  0
 74146  1  0  0  0
 74147  1  0  0  0
 74148  1  0  0  0
 75149  1  0  0  0
 75150  1  0  0  0
 75151  1  0  0  0
 75 82  1  0  0  0
 76 82  1  0  0  0
 76152  1  0  0  0
 76153  1  0  0  0
 76154  1  0  0  0
 77 78  1  0  0  0
 77 79  1  0  0  0
 77155  1  0  0  0
 77156  1  0  0  0
 78 81  1  0  0  0
 78157  1  0  0  0
 78158  1  0  0  0
 79 83  1  0  0  0
 79159  1  0  0  0
 79160  1  0  0  0
 80 82  1  0  0  0
 80 85  1  0  0  0
 80161  1  0  0  0
 80162  1  0  0  0
 81163  1  0  0  0
 81164  1  0  0  0
 84165  1  0  0  0
 85166  1  0  0  0
M  CHG  1  84   1
M  ISO  4   1 100  68 101  81 101  85 100
M  END
> <chiral flag>
0

> <version>
0

> <s_m_source_file>
/data/baiqing/PycharmProjects/Reinvent-master-3.2/result/LINK_invent/BTK/process_docking_weight1_custom_sum_contain_oxygen_bond_distance_aromatic_linkinvent_7_9_3/rearranged_h_0073.sdf

> <i_m_source_file_index>
26

> <r_mmod_Potential_Energy-OPLS-2005>
-156.081619262695

> <r_mmod_Stretch_Energy-OPLS-2005>
37.9798812866211

> <r_mmod_Bend_Energy-OPLS-2005>
114.576728820801

> <r_mmod_Torsional_Energy-OPLS-2005>
249.494918823242

> <r_mmod_Improper_Torsional_Energy-OPLS-2005>
5.49479389190674

> <r_mmod_Van_der_Waal_Energy-OPLS-2005>
129.92839050293

> <r_mmod_Electrostatic_Energy-OPLS-2005>
-302.647308349609

> <r_mmod_Solvation_Energy-OPLS-2005>
-401.029052734375

> <b_mmod_Minimization_Converged-OPLS-2005>
0

> <r_mmod_RMS_Derivative-OPLS-2005>
2.40990877151489

$$$$
26
                    3D
 Structure written by MMmdl.
159167  0  0  1  0            999 V2000
  -30.7127  -14.5159   20.6047 C   0  0  0  0  0  0
  -30.4224  -12.3440   19.4404 C   0  0  0  0  0  0
  -29.4963  -12.5107   18.2178 C   0  0  0  0  0  0
  -28.0203  -12.3583   18.6293 C   0  0  0  0  0  0
  -27.6578  -13.2135   19.8708 C   0  0  2  0  0  0
  -28.6947  -13.0288   21.0001 C   0  0  0  0  0  0
  -25.2545  -13.8150   20.5631 C   0  0  0  0  0  0
  -24.1826  -13.0425   20.9187 C   0  0  0  0  0  0
  -24.6393  -11.6901   20.8750 C   0  0  0  0  0  0
  -23.9066  -10.4288   21.0414 C   0  0  0  0  0  0
  -24.3615   -9.4204   21.9191 C   0  0  0  0  0  0
  -23.6292   -8.2243   22.0758 C   0  0  0  0  0  0
  -22.4279   -8.0276   21.3543 C   0  0  0  0  0  0
  -21.9911   -9.0251   20.4645 C   0  0  0  0  0  0
  -22.7242  -10.2132   20.3056 C   0  0  0  0  0  0
  -21.6848   -6.0729   22.5275 C   0  0  0  0  0  0
  -21.4015   -6.5636   23.8207 C   0  0  0  0  0  0
  -21.3658   -5.6792   24.9170 C   0  0  0  0  0  0
  -21.6046   -4.3052   24.7223 C   0  0  0  0  0  0
  -21.8820   -3.8141   23.4342 C   0  0  0  0  0  0
  -21.9198   -4.6959   22.3398 C   0  0  0  0  0  0
  -22.7849  -13.5223   21.1858 C   0  0  0  0  0  0
  -22.1664   -4.2143   21.0978 F   0  0  0  0  0  0
  -21.5633   -3.4537   25.7737 F   0  0  0  0  0  0
  -30.0271  -13.3412   20.4548 N   0  0  0  0  0  0
  -26.2998  -12.9344   20.3329 N   0  0  0  0  0  0
  -25.9322  -11.6499   20.5771 N   0  0  0  0  0  0
  -22.0490  -12.8216   22.0416 N   0  0  0  0  0  0
  -25.4203  -15.1849   20.3938 N   0  0  0  0  0  0
  -31.7898  -14.7142   20.0330 O   0  0  0  0  0  0
  -21.6637   -6.8873   21.4236 O   0  0  0  0  0  0
  -22.3532  -14.5530   20.6710 O   0  0  0  0  0  0
  -24.6184  -31.8639   23.2069 C   0  0  0  0  0  0
  -25.9053  -32.4808   23.8375 C   0  0  1  0  0  0
  -27.2301  -27.3962   20.1112 C   0  0  0  0  0  0
  -25.5895  -33.8609   24.2306 N   0  0  0  0  0  0
  -23.4086  -30.4873   21.5468 C   0  0  2  0  0  0
  -24.8548  -28.9451   20.1160 C   0  0  0  0  0  0
  -22.7441  -29.4648   22.4973 C   0  0  0  0  0  0
  -18.0280  -28.1398   22.8504 C   0  0  0  0  0  0
  -24.1476  -36.7298   23.2642 C   0  0  0  0  0  0
  -25.9405  -30.8212   21.3618 C   0  0  0  0  0  0
  -26.0177  -29.4511   20.7116 C   0  0  0  0  0  0
  -27.2107  -28.6868   20.6996 C   0  0  0  0  0  0
  -26.0513  -26.9114   19.5077 C   0  0  0  0  0  0
  -24.8679  -27.6759   19.5097 C   0  0  0  0  0  0
  -23.6187  -29.8164   20.1629 C   0  0  0  0  0  0
  -25.4105  -36.3108   24.0333 C   0  0  1  0  0  0
  -20.5874  -28.3677   23.1318 C   0  0  2  0  0  0
  -20.6776  -26.9412   22.5420 C   0  0  0  0  0  0
  -19.5741  -26.6395   21.5236 C   0  0  0  0  0  0
  -18.1916  -26.7949   22.1637 C   0  0  0  0  0  0
  -19.1535  -28.8858   23.2903 C   0  0  0  0  0  0
  -18.9464  -30.1465   23.8904 C   0  0  0  0  0  0
  -17.6465  -30.6597   24.0580 C   0  0  0  0  0  0
  -25.9034  -34.9470   23.5121 C   0  0  0  0  0  0
  -16.5355  -29.9101   23.6338 C   0  0  0  0  0  0
  -16.7271  -28.6522   23.0355 C   0  0  0  0  0  0
  -26.4472  -31.6605   25.0719 C   0  0  0  0  0  0
  -25.3724  -31.3707   26.1460 C   0  0  0  0  0  0
  -27.0319  -30.3058   24.6105 C   0  0  0  0  0  0
  -27.6052  -32.4325   25.7479 C   0  0  0  0  0  0
  -27.5575  -37.1807   24.8475 C   0  0  0  0  0  0
  -21.4165  -29.3033   22.3722 N   0  0  0  0  0  0
  -26.4287  -37.3803   23.9418 N   0  0  0  0  0  0
  -24.6745  -31.0728   22.0963 N   0  0  0  0  0  0
  -23.4211  -28.8197   23.3024 O   0  0  0  0  0  0
  -28.3770  -26.6216   20.1034 O   0  0  0  0  0  0
  -26.5616  -34.8929   22.4692 O   0  0  0  0  0  0
  -23.5366  -32.1382   23.7449 O   0  0  0  0  0  0
  -27.7074  -17.3766   21.6872 C   0  0  0  0  0  0
  -27.5581  -19.4960   21.4517 C   0  0  0  0  0  0
  -28.8974  -17.7920   21.1261 C   0  0  0  0  0  0
  -30.2420  -15.4874   22.7454 C   0  0  0  0  0  0
  -30.0999  -16.9263   20.7496 C   0  0  0  0  0  0
  -28.8700  -22.7415   20.6429 C   0  0  0  0  0  0
  -29.1519  -21.4797   19.7561 C   0  0  0  0  0  0
  -28.6561  -24.0887   19.8624 C   0  0  0  0  0  0
  -29.7370  -20.1833   20.4391 C   0  0  0  0  0  0
  -28.2889  -25.3231   20.7494 C   0  0  0  0  0  0
  -26.8628  -18.4596   21.8999 N   0  0  0  0  0  0
  -28.7710  -19.1979   20.9595 N   0  0  0  0  0  0
  -30.0955  -15.5272   21.2842 N   0  0  0  0  0  0
  -31.4663  -12.4450   19.1366 H   0  0  0  0  0  0
  -30.3336  -11.3372   19.8529 H   0  0  0  0  0  0
  -29.7473  -11.7743   17.4530 H   0  0  0  0  0  0
  -29.6542  -13.4899   17.7626 H   0  0  0  0  0  0
  -27.8461  -11.3035   18.8442 H   0  0  0  0  0  0
  -27.3658  -12.6080   17.7941 H   0  0  0  0  0  0
  -27.6936  -14.2574   19.5585 H   0  0  0  0  0  0
  -28.6789  -12.0037   21.3726 H   0  0  0  0  0  0
  -28.4263  -13.6540   21.8513 H   0  0  0  0  0  0
  -25.2757   -9.5679   22.4770 H   0  0  0  0  0  0
  -23.9997   -7.4626   22.7474 H   0  0  0  0  0  0
  -21.0848   -8.8771   19.8941 H   0  0  0  0  0  0
  -22.3706  -10.9673   19.6164 H   0  0  0  0  0  0
  -21.2003   -7.6145   23.9707 H   0  0  0  0  0  0
  -21.1479   -6.0522   25.9074 H   0  0  0  0  0  0
  -22.0602   -2.7604   23.2844 H   0  0  0  0  0  0
  -22.4107  -11.9869   22.4786 H   0  0  0  0  0  0
  -21.1107  -13.1235   22.2619 H   0  0  0  0  0  0
  -24.6543  -15.8381   20.5157 H   0  0  0  0  0  0
  -26.2613  -15.6235   20.0414 H   0  0  0  0  0  0
  -26.7127  -32.5507   23.1143 H   0  0  0  0  0  0
  -25.0074  -33.9766   25.0474 H   0  0  0  0  0  0
  -22.6985  -31.3041   21.4038 H   0  0  0  0  0  0
  -23.3749  -35.9622   23.3325 H   0  0  0  0  0  0
  -24.3572  -36.8895   22.2055 H   0  0  0  0  0  0
  -23.7203  -37.6493   23.6650 H   0  0  0  0  0  0
  -26.0532  -31.5832   20.5892 H   0  0  0  0  0  0
  -26.8296  -30.8799   21.9775 H   0  0  0  0  0  0
  -28.1081  -29.0732   21.1618 H   0  0  0  0  0  0
  -26.0490  -25.9367   19.0398 H   0  0  0  0  0  0
  -23.9721  -27.2797   19.0509 H   0  0  0  0  0  0
  -23.7301  -30.5888   19.4014 H   0  0  0  0  0  0
  -22.7424  -29.2367   19.8665 H   0  0  0  0  0  0
  -25.1277  -36.1974   25.0824 H   0  0  0  0  0  0
  -20.9966  -28.3236   24.1439 H   0  0  0  0  0  0
  -20.5714  -26.2280   23.3605 H   0  0  0  0  0  0
  -21.6637  -26.7467   22.1180 H   0  0  0  0  0  0
  -19.6899  -25.6311   21.1241 H   0  0  0  0  0  0
  -19.6683  -27.3229   20.6785 H   0  0  0  0  0  0
  -17.4196  -26.6725   21.4025 H   0  0  0  0  0  0
  -18.0284  -26.0087   22.9021 H   0  0  0  0  0  0
  -19.7936  -30.7296   24.2256 H   0  0  0  0  0  0
  -17.5014  -31.6277   24.5187 H   0  0  0  0  0  0
  -15.5355  -30.3011   23.7661 H   0  0  0  0  0  0
  -15.8668  -28.0855   22.7052 H   0  0  0  0  0  0
  -24.5907  -30.7048   25.7786 H   0  0  0  0  0  0
  -24.8901  -32.2859   26.4900 H   0  0  0  0  0  0
  -25.8055  -30.8875   27.0227 H   0  0  0  0  0  0
  -26.2874  -29.6816   24.1152 H   0  0  0  0  0  0
  -27.4097  -29.7298   25.4559 H   0  0  0  0  0  0
  -27.8698  -30.4407   23.9265 H   0  0  0  0  0  0
  -27.2688  -33.3635   26.2061 H   0  0  0  0  0  0
  -28.3862  -32.6867   25.0298 H   0  0  0  0  0  0
  -28.0727  -31.8436   26.5386 H   0  0  0  0  0  0
  -28.2610  -38.0093   24.7532 H   0  0  0  0  0  0
  -28.1047  -36.2623   24.6287 H   0  0  0  0  0  0
  -27.2291  -37.1439   25.8879 H   0  0  0  0  0  0
  -20.9329  -29.8741   21.6932 H   0  0  0  0  0  0
  -26.0170  -38.2874   24.1439 H   0  0  0  0  0  0
  -27.4054  -16.3776   21.9705 H   0  0  0  0  0  0
  -27.1647  -20.5016   21.4841 H   0  0  0  0  0  0
  -30.1672  -14.4734   23.1423 H   0  0  0  0  0  0
  -29.4872  -16.0858   23.2530 H   0  0  0  0  0  0
  -31.2196  -15.8754   23.0358 H   0  0  0  0  0  0
  -31.0179  -17.4196   21.0727 H   0  0  0  0  0  0
  -30.1603  -16.8890   19.6600 H   0  0  0  0  0  0
  -29.7065  -22.8796   21.3290 H   0  0  0  0  0  0
  -28.0006  -22.5562   21.2733 H   0  0  0  0  0  0
  -29.8890  -21.7851   19.0125 H   0  0  0  0  0  0
  -28.2641  -21.2271   19.1755 H   0  0  0  0  0  0
  -27.8788  -23.9568   19.1093 H   0  0  0  0  0  0
  -29.5693  -24.3164   19.3121 H   0  0  0  0  0  0
  -30.4194  -20.4545   21.2446 H   0  0  0  0  0  0
  -30.3443  -19.6616   19.6993 H   0  0  0  0  0  0
  -28.9807  -25.3587   21.5919 H   0  0  0  0  0  0
  -27.3047  -25.1629   21.1947 H   0  0  0  0  0  0
  1 25  1  0  0  0
  1 30  2  0  0  0
  1 83  1  0  0  0
  2  3  1  0  0  0
  2 25  1  0  0  0
  2 84  1  0  0  0
  2 85  1  0  0  0
  3  4  1  0  0  0
  3 86  1  0  0  0
  3 87  1  0  0  0
  4  5  1  0  0  0
  4 88  1  0  0  0
  4 89  1  0  0  0
  5  6  1  0  0  0
  5 26  1  0  0  0
  5 90  1  0  0  0
  6 25  1  0  0  0
  6 91  1  0  0  0
  6 92  1  0  0  0
  7  8  2  0  0  0
  7 26  1  0  0  0
  7 29  1  0  0  0
  8  9  1  0  0  0
  8 22  1  0  0  0
  9 10  1  0  0  0
  9 27  2  0  0  0
 10 11  2  0  0  0
 10 15  1  0  0  0
 11 12  1  0  0  0
 11 93  1  0  0  0
 12 13  2  0  0  0
 12 94  1  0  0  0
 13 14  1  0  0  0
 13 31  1  0  0  0
 14 15  2  0  0  0
 14 95  1  0  0  0
 15 96  1  0  0  0
 16 17  2  0  0  0
 16 21  1  0  0  0
 16 31  1  0  0  0
 17 18  1  0  0  0
 17 97  1  0  0  0
 18 19  2  0  0  0
 18 98  1  0  0  0
 19 20  1  0  0  0
 19 24  1  0  0  0
 20 21  2  0  0  0
 20 99  1  0  0  0
 21 23  1  0  0  0
 22 28  1  0  0  0
 22 32  2  0  0  0
 26 27  1  0  0  0
 28100  1  0  0  0
 28101  1  0  0  0
 29102  1  0  0  0
 29103  1  0  0  0
 33 34  1  0  0  0
 33 66  1  0  0  0
 33 70  2  0  0  0
 34 36  1  0  0  0
 34 59  1  0  0  0
 34104  1  0  0  0
 35 44  2  0  0  0
 35 45  1  0  0  0
 35 68  1  0  0  0
 36 56  1  0  0  0
 36105  1  0  0  0
 37 39  1  0  0  0
 37 47  1  0  0  0
 37 66  1  0  0  0
 37106  1  0  0  0
 38 43  2  0  0  0
 38 46  1  0  0  0
 38 47  1  0  0  0
 39 64  1  0  0  0
 39 67  2  0  0  0
 40 52  1  0  0  0
 40 53  2  0  0  0
 40 58  1  0  0  0
 41107  1  0  0  0
 41108  1  0  0  0
 41109  1  0  0  0
 41 48  1  0  0  0
 42 43  1  0  0  0
 42 66  1  0  0  0
 42110  1  0  0  0
 42111  1  0  0  0
 43 44  1  0  0  0
 44112  1  0  0  0
 45 46  2  0  0  0
 45113  1  0  0  0
 46114  1  0  0  0
 47115  1  0  0  0
 47116  1  0  0  0
 48 56  1  0  0  0
 48 65  1  0  0  0
 48117  1  0  0  0
 49 50  1  0  0  0
 49 53  1  0  0  0
 49 64  1  0  0  0
 49118  1  0  0  0
 50 51  1  0  0  0
 50119  1  0  0  0
 50120  1  0  0  0
 51 52  1  0  0  0
 51121  1  0  0  0
 51122  1  0  0  0
 52123  1  0  0  0
 52124  1  0  0  0
 53 54  1  0  0  0
 54 55  2  0  0  0
 54125  1  0  0  0
 55 57  1  0  0  0
 55126  1  0  0  0
 56 69  2  0  0  0
 57 58  2  0  0  0
 57127  1  0  0  0
 58128  1  0  0  0
 59 60  1  0  0  0
 59 61  1  0  0  0
 59 62  1  0  0  0
 60129  1  0  0  0
 60130  1  0  0  0
 60131  1  0  0  0
 61132  1  0  0  0
 61133  1  0  0  0
 61134  1  0  0  0
 62135  1  0  0  0
 62136  1  0  0  0
 62137  1  0  0  0
 63 65  1  0  0  0
 63138  1  0  0  0
 63139  1  0  0  0
 63140  1  0  0  0
 64141  1  0  0  0
 65142  1  0  0  0
 68 80  1  0  0  0
 71 73  2  0  0  0
 71 81  1  0  0  0
 71143  1  0  0  0
 72 81  2  0  0  0
 72 82  1  0  0  0
 72144  1  0  0  0
 73 75  1  0  0  0
 73 82  1  0  0  0
 74 83  1  0  0  0
 74145  1  0  0  0
 74146  1  0  0  0
 74147  1  0  0  0
 75 83  1  0  0  0
 75148  1  0  0  0
 75149  1  0  0  0
 76 77  1  0  0  0
 76 78  1  0  0  0
 76150  1  0  0  0
 76151  1  0  0  0
 77 79  1  0  0  0
 77152  1  0  0  0
 77153  1  0  0  0
 78 80  1  0  0  0
 78154  1  0  0  0
 78155  1  0  0  0
 79 82  1  0  0  0
 79156  1  0  0  0
 79157  1  0  0  0
 80158  1  0  0  0
 80159  1  0  0  0
M  ISO  4   1 100  68 101  80 101  83 100
M  END
> <chiral flag>
0

> <version>
0

> <s_m_source_file>
/data/baiqing/PycharmProjects/Reinvent-master-3.2/result/LINK_invent/BTK/process_docking_weight1_custom_sum_contain_oxygen_bond_distance_aromatic_linkinvent_7_9_3/rearranged_h_0073.sdf

> <i_m_source_file_index>
27

> <r_mmod_Potential_Energy-OPLS-2005>
128.396102905273

> <r_mmod_Stretch_Energy-OPLS-2005>
54.6866111755371

> <r_mmod_Bend_Energy-OPLS-2005>
119.085380554199

> <r_mmod_Torsional_Energy-OPLS-2005>
292.664794921875

> <r_mmod_Improper_Torsional_Energy-OPLS-2005>
6.70491313934326

> <r_mmod_Van_der_Waal_Energy-OPLS-2005>
118.727798461914

> <r_mmod_Electrostatic_Energy-OPLS-2005>
-280.876403808594

> <r_mmod_Solvation_Energy-OPLS-2005>
-200.895233154297

> <b_mmod_Minimization_Converged-OPLS-2005>
0

> <r_mmod_RMS_Derivative-OPLS-2005>
1.71880316734314

$$$$
27
                    3D
 Structure written by MMmdl.
154162  0  0  1  0            999 V2000
  -30.6328  -14.6921   20.4832 C   0  0  0  0  0  0
  -30.4410  -12.4088   19.4612 C   0  0  0  0  0  0
  -29.5108  -12.4988   18.2298 C   0  0  0  0  0  0
  -28.0359  -12.3272   18.6454 C   0  0  0  0  0  0
  -27.6543  -13.2180   19.8557 C   0  0  2  0  0  0
  -28.7063  -13.1204   20.9850 C   0  0  0  0  0  0
  -25.2571  -13.8155   20.5688 C   0  0  0  0  0  0
  -24.1843  -13.0427   20.9180 C   0  0  0  0  0  0
  -24.6417  -11.6898   20.8732 C   0  0  0  0  0  0
  -23.9084  -10.4286   21.0397 C   0  0  0  0  0  0
  -24.3621   -9.4204   21.9184 C   0  0  0  0  0  0
  -23.6290   -8.2233   22.0754 C   0  0  0  0  0  0
  -22.4283   -8.0275   21.3529 C   0  0  0  0  0  0
  -21.9918   -9.0258   20.4635 C   0  0  0  0  0  0
  -22.7249  -10.2123   20.3048 C   0  0  0  0  0  0
  -21.6854   -6.0734   22.5273 C   0  0  0  0  0  0
  -21.4018   -6.5640   23.8218 C   0  0  0  0  0  0
  -21.3658   -5.6797   24.9184 C   0  0  0  0  0  0
  -21.6037   -4.3053   24.7230 C   0  0  0  0  0  0
  -21.8817   -3.8146   23.4361 C   0  0  0  0  0  0
  -21.9192   -4.6963   22.3410 C   0  0  0  0  0  0
  -22.7851  -13.5194   21.1860 C   0  0  0  0  0  0
  -22.1660   -4.2145   21.0988 F   0  0  0  0  0  0
  -21.5626   -3.4548   25.7749 F   0  0  0  0  0  0
  -30.0220  -13.4577   20.4187 N   0  0  0  0  0  0
  -26.3019  -12.9353   20.3318 N   0  0  0  0  0  0
  -25.9359  -11.6504   20.5763 N   0  0  0  0  0  0
  -22.0523  -12.8166   22.0407 N   0  0  0  0  0  0
  -25.4271  -15.1884   20.4095 N   0  0  0  0  0  0
  -31.7922  -14.8210   20.0766 O   0  0  0  0  0  0
  -21.6628   -6.8882   21.4238 O   0  0  0  0  0  0
  -22.3533  -14.5522   20.6736 O   0  0  0  0  0  0
  -24.6312  -31.8544   23.1985 C   0  0  0  0  0  0
  -25.9135  -32.4752   23.8327 C   0  0  1  0  0  0
  -27.2466  -27.2828   20.1285 C   0  0  0  0  0  0
  -25.5926  -33.8558   24.2259 N   0  0  0  0  0  0
  -23.4306  -30.4748   21.5377 C   0  0  2  0  0  0
  -24.8853  -28.9194   20.1145 C   0  0  0  0  0  0
  -22.7515  -29.4585   22.4872 C   0  0  0  0  0  0
  -18.0299  -28.1379   22.8470 C   0  0  0  0  0  0
  -24.1473  -36.7269   23.2639 C   0  0  0  0  0  0
  -25.9744  -30.7706   21.3795 C   0  0  0  0  0  0
  -26.0522  -29.3928   20.7262 C   0  0  0  0  0  0
  -27.2352  -28.5878   20.7215 C   0  0  0  0  0  0
  -26.0577  -26.8709   19.4871 C   0  0  0  0  0  0
  -24.8911  -27.6649   19.4841 C   0  0  0  0  0  0
  -23.6538  -29.8060   20.1548 C   0  0  0  0  0  0
  -25.4099  -36.3063   24.0335 C   0  0  1  0  0  0
  -20.5906  -28.3704   23.1248 C   0  0  2  0  0  0
  -20.6781  -26.9415   22.5403 C   0  0  0  0  0  0
  -19.5757  -26.6381   21.5193 C   0  0  0  0  0  0
  -18.1925  -26.7925   22.1606 C   0  0  0  0  0  0
  -19.1556  -28.8850   23.2851 C   0  0  0  0  0  0
  -18.9488  -30.1437   23.8902 C   0  0  0  0  0  0
  -17.6506  -30.6586   24.0557 C   0  0  0  0  0  0
  -25.9053  -34.9438   23.5100 C   0  0  0  0  0  0
  -16.5376  -29.9096   23.6330 C   0  0  0  0  0  0
  -16.7283  -28.6502   23.0354 C   0  0  0  0  0  0
  -26.4522  -31.6577   25.0712 C   0  0  0  0  0  0
  -25.3746  -31.3718   26.1435 C   0  0  0  0  0  0
  -27.0401  -30.3007   24.6187 C   0  0  0  0  0  0
  -27.6065  -32.4334   25.7495 C   0  0  0  0  0  0
  -27.5566  -37.1789   24.8467 C   0  0  0  0  0  0
  -21.4216  -29.3067   22.3643 N   0  0  0  0  0  0
  -26.4276  -37.3764   23.9424 N   0  0  0  0  0  0
  -24.6973  -31.0502   22.0949 N   0  0  0  0  0  0
  -23.4210  -28.8096   23.2964 O   0  0  0  0  0  0
  -28.3762  -26.4334   20.1308 O   0  0  0  0  0  0
  -26.5627  -34.8909   22.4661 O   0  0  0  0  0  0
  -23.5458  -32.1363   23.7269 O   0  0  0  0  0  0
  -29.5156  -18.4512   19.9993 C   0  0  0  0  0  0
  -30.0750  -19.7069   20.2375 C   0  0  0  0  0  0
  -31.1781  -19.3396   21.0725 C   0  0  0  0  0  0
  -32.2403  -20.2495   21.6268 C   0  0  0  0  0  0
  -29.7288  -21.1421   19.6564 C   0  0  0  0  0  0
  -29.8139  -15.9810   20.9582 C   0  0  0  0  0  0
  -29.2960  -22.3798   20.5910 C   0  0  0  0  0  0
  -29.2879  -23.8784   19.9655 C   0  0  0  0  0  0
  -28.2183  -24.9799   20.4670 C   0  0  0  0  0  0
  -31.2359  -18.0255   21.3467 N   0  0  0  0  0  0
  -30.2136  -17.4274   20.6786 N   0  0  0  0  0  0
  -31.4847  -12.5134   19.1610 H   0  0  0  0  0  0
  -30.3613  -11.4230   19.9216 H   0  0  0  0  0  0
  -29.7801  -11.7373   17.4958 H   0  0  0  0  0  0
  -29.6433  -13.4622   17.7356 H   0  0  0  0  0  0
  -27.8882  -11.2768   18.9001 H   0  0  0  0  0  0
  -27.3750  -12.5295   17.8011 H   0  0  0  0  0  0
  -27.6558  -14.2404   19.4812 H   0  0  0  0  0  0
  -28.7237  -12.1149   21.4062 H   0  0  0  0  0  0
  -28.4488  -13.7832   21.8114 H   0  0  0  0  0  0
  -25.2773   -9.5663   22.4754 H   0  0  0  0  0  0
  -24.0008   -7.4617   22.7474 H   0  0  0  0  0  0
  -21.0854   -8.8756   19.8939 H   0  0  0  0  0  0
  -22.3722  -10.9650   19.6147 H   0  0  0  0  0  0
  -21.2016   -7.6146   23.9718 H   0  0  0  0  0  0
  -21.1479   -6.0529   25.9081 H   0  0  0  0  0  0
  -22.0597   -2.7609   23.2864 H   0  0  0  0  0  0
  -22.4155  -11.9804   22.4748 H   0  0  0  0  0  0
  -21.1135  -13.1151   22.2643 H   0  0  0  0  0  0
  -24.6555  -15.8386   20.5092 H   0  0  0  0  0  0
  -26.2773  -15.6325   20.0898 H   0  0  0  0  0  0
  -26.7203  -32.5428   23.1071 H   0  0  0  0  0  0
  -25.0091  -33.9681   25.0425 H   0  0  0  0  0  0
  -22.7265  -31.2963   21.3832 H   0  0  0  0  0  0
  -23.3741  -35.9597   23.3324 H   0  0  0  0  0  0
  -24.3562  -36.8880   22.2051 H   0  0  0  0  0  0
  -23.7233  -37.6473   23.6666 H   0  0  0  0  0  0
  -26.1099  -31.5272   20.6071 H   0  0  0  0  0  0
  -26.8529  -30.8250   22.0106 H   0  0  0  0  0  0
  -28.1309  -28.9455   21.2095 H   0  0  0  0  0  0
  -26.0173  -25.9226   18.9700 H   0  0  0  0  0  0
  -24.0041  -27.2994   18.9857 H   0  0  0  0  0  0
  -23.7865  -30.5827   19.3997 H   0  0  0  0  0  0
  -22.7757  -29.2402   19.8403 H   0  0  0  0  0  0
  -25.1273  -36.1912   25.0832 H   0  0  0  0  0  0
  -20.9997  -28.3282   24.1367 H   0  0  0  0  0  0
  -20.5659  -26.2305   23.3606 H   0  0  0  0  0  0
  -21.6647  -26.7402   22.1213 H   0  0  0  0  0  0
  -19.6926  -25.6289   21.1230 H   0  0  0  0  0  0
  -19.6711  -27.3189   20.6722 H   0  0  0  0  0  0
  -17.4200  -26.6684   21.3998 H   0  0  0  0  0  0
  -18.0317  -26.0036   22.8976 H   0  0  0  0  0  0
  -19.7962  -30.7220   24.2300 H   0  0  0  0  0  0
  -17.5058  -31.6278   24.5140 H   0  0  0  0  0  0
  -15.5390  -30.3006   23.7640 H   0  0  0  0  0  0
  -15.8673  -28.0825   22.7088 H   0  0  0  0  0  0
  -24.5950  -30.7034   25.7766 H   0  0  0  0  0  0
  -24.8899  -32.2876   26.4821 H   0  0  0  0  0  0
  -25.8049  -30.8934   27.0240 H   0  0  0  0  0  0
  -26.2993  -29.6724   24.1233 H   0  0  0  0  0  0
  -27.4141  -29.7288   25.4689 H   0  0  0  0  0  0
  -27.8828  -30.4311   23.9400 H   0  0  0  0  0  0
  -27.2691  -33.3681   26.1986 H   0  0  0  0  0  0
  -28.3918  -32.6832   25.0348 H   0  0  0  0  0  0
  -28.0684  -31.8517   26.5481 H   0  0  0  0  0  0
  -28.2577  -38.0085   24.7503 H   0  0  0  0  0  0
  -28.1067  -36.2619   24.6309 H   0  0  0  0  0  0
  -27.2293  -37.1466   25.8870 H   0  0  0  0  0  0
  -20.9384  -29.8835   21.6898 H   0  0  0  0  0  0
  -26.0153  -38.2835   24.1432 H   0  0  0  0  0  0
  -28.6524  -18.1965   19.4001 H   0  0  0  0  0  0
  -33.2297  -19.9833   21.2492 H   0  0  0  0  0  0
  -32.2725  -20.2083   22.7162 H   0  0  0  0  0  0
  -32.0578  -21.2872   21.3471 H   0  0  0  0  0  0
  -28.9464  -21.0352   18.9048 H   0  0  0  0  0  0
  -30.5923  -21.4801   19.0815 H   0  0  0  0  0  0
  -28.8077  -15.8758   20.5627 H   0  0  0  0  0  0
  -29.7081  -15.8903   22.0384 H   0  0  0  0  0  0
  -29.9721  -22.3970   21.4493 H   0  0  0  0  0  0
  -28.3145  -22.1582   21.0114 H   0  0  0  0  0  0
  -29.1861  -23.7937   18.8834 H   0  0  0  0  0  0
  -30.2877  -24.2933   20.1128 H   0  0  0  0  0  0
  -28.1849  -24.9286   21.5557 H   0  0  0  0  0  0
  -27.2437  -24.6160   20.1471 H   0  0  0  0  0  0
  1 25  1  0  0  0
  1 30  2  0  0  0
  1 76  1  0  0  0
  2  3  1  0  0  0
  2 25  1  0  0  0
  2 82  1  0  0  0
  2 83  1  0  0  0
  3  4  1  0  0  0
  3 84  1  0  0  0
  3 85  1  0  0  0
  4  5  1  0  0  0
  4 86  1  0  0  0
  4 87  1  0  0  0
  5  6  1  0  0  0
  5 26  1  0  0  0
  5 88  1  0  0  0
  6 25  1  0  0  0
  6 89  1  0  0  0
  6 90  1  0  0  0
  7  8  2  0  0  0
  7 26  1  0  0  0
  7 29  1  0  0  0
  8  9  1  0  0  0
  8 22  1  0  0  0
  9 10  1  0  0  0
  9 27  2  0  0  0
 10 11  2  0  0  0
 10 15  1  0  0  0
 11 12  1  0  0  0
 11 91  1  0  0  0
 12 13  2  0  0  0
 12 92  1  0  0  0
 13 14  1  0  0  0
 13 31  1  0  0  0
 14 15  2  0  0  0
 14 93  1  0  0  0
 15 94  1  0  0  0
 16 17  2  0  0  0
 16 21  1  0  0  0
 16 31  1  0  0  0
 17 18  1  0  0  0
 17 95  1  0  0  0
 18 19  2  0  0  0
 18 96  1  0  0  0
 19 20  1  0  0  0
 19 24  1  0  0  0
 20 21  2  0  0  0
 20 97  1  0  0  0
 21 23  1  0  0  0
 22 28  1  0  0  0
 22 32  2  0  0  0
 26 27  1  0  0  0
 28 98  1  0  0  0
 28 99  1  0  0  0
 29100  1  0  0  0
 29101  1  0  0  0
 33 34  1  0  0  0
 33 66  1  0  0  0
 33 70  2  0  0  0
 34 36  1  0  0  0
 34 59  1  0  0  0
 34102  1  0  0  0
 35 44  2  0  0  0
 35 45  1  0  0  0
 35 68  1  0  0  0
 36 56  1  0  0  0
 36103  1  0  0  0
 37 39  1  0  0  0
 37 47  1  0  0  0
 37 66  1  0  0  0
 37104  1  0  0  0
 38 43  2  0  0  0
 38 46  1  0  0  0
 38 47  1  0  0  0
 39 64  1  0  0  0
 39 67  2  0  0  0
 40 52  1  0  0  0
 40 53  2  0  0  0
 40 58  1  0  0  0
 41105  1  0  0  0
 41106  1  0  0  0
 41107  1  0  0  0
 41 48  1  0  0  0
 42 43  1  0  0  0
 42 66  1  0  0  0
 42108  1  0  0  0
 42109  1  0  0  0
 43 44  1  0  0  0
 44110  1  0  0  0
 45 46  2  0  0  0
 45111  1  0  0  0
 46112  1  0  0  0
 47113  1  0  0  0
 47114  1  0  0  0
 48 56  1  0  0  0
 48 65  1  0  0  0
 48115  1  0  0  0
 49 50  1  0  0  0
 49 53  1  0  0  0
 49 64  1  0  0  0
 49116  1  0  0  0
 50 51  1  0  0  0
 50117  1  0  0  0
 50118  1  0  0  0
 51 52  1  0  0  0
 51119  1  0  0  0
 51120  1  0  0  0
 52121  1  0  0  0
 52122  1  0  0  0
 53 54  1  0  0  0
 54 55  2  0  0  0
 54123  1  0  0  0
 55 57  1  0  0  0
 55124  1  0  0  0
 56 69  2  0  0  0
 57 58  2  0  0  0
 57125  1  0  0  0
 58126  1  0  0  0
 59 60  1  0  0  0
 59 61  1  0  0  0
 59 62  1  0  0  0
 60127  1  0  0  0
 60128  1  0  0  0
 60129  1  0  0  0
 61130  1  0  0  0
 61131  1  0  0  0
 61132  1  0  0  0
 62133  1  0  0  0
 62134  1  0  0  0
 62135  1  0  0  0
 63 65  1  0  0  0
 63136  1  0  0  0
 63137  1  0  0  0
 63138  1  0  0  0
 64139  1  0  0  0
 65140  1  0  0  0
 68 79  1  0  0  0
 71 72  2  0  0  0
 71 81  1  0  0  0
 71141  1  0  0  0
 72 73  1  0  0  0
 72 75  1  0  0  0
 73 74  1  0  0  0
 73 80  2  0  0  0
 74142  1  0  0  0
 74143  1  0  0  0
 74144  1  0  0  0
 75 77  1  0  0  0
 75145  1  0  0  0
 75146  1  0  0  0
 76 81  1  0  0  0
 76147  1  0  0  0
 76148  1  0  0  0
 77 78  1  0  0  0
 77149  1  0  0  0
 77150  1  0  0  0
 78 79  1  0  0  0
 78151  1  0  0  0
 78152  1  0  0  0
 79153  1  0  0  0
 79154  1  0  0  0
 80 81  1  0  0  0
M  ISO  4   1 100  68 101  76 100  79 101
M  END
> <chiral flag>
0

> <version>
0

> <s_m_source_file>
/data/baiqing/PycharmProjects/Reinvent-master-3.2/result/LINK_invent/BTK/process_docking_weight1_custom_sum_contain_oxygen_bond_distance_aromatic_linkinvent_7_9_3/rearranged_h_0073.sdf

> <i_m_source_file_index>
28

> <r_mmod_Potential_Energy-OPLS-2005>
136.211502075195

> <r_mmod_Stretch_Energy-OPLS-2005>
110.839958190918

> <r_mmod_Bend_Energy-OPLS-2005>
159.760650634766

> <r_mmod_Torsional_Energy-OPLS-2005>
205.440383911133

> <r_mmod_Improper_Torsional_Energy-OPLS-2005>
4.83299160003662

> <r_mmod_Van_der_Waal_Energy-OPLS-2005>
110.476425170898

> <r_mmod_Electrostatic_Energy-OPLS-2005>
-293.803527832031

> <r_mmod_Solvation_Energy-OPLS-2005>
-223.977325439453

> <b_mmod_Minimization_Converged-OPLS-2005>
0

> <r_mmod_RMS_Derivative-OPLS-2005>
3.9570460319519

$$$$
28
                    3D
 Structure written by MMmdl.
170178  0  0  1  0            999 V2000
  -30.6534  -14.7213   20.5176 C   0  0  0  0  0  0
  -30.4291  -12.4490   19.4797 C   0  0  0  0  0  0
  -29.5112  -12.5239   18.2386 C   0  0  0  0  0  0
  -28.0311  -12.3590   18.6368 C   0  0  0  0  0  0
  -27.6469  -13.2287   19.8626 C   0  0  2  0  0  0
  -28.6927  -13.0916   20.9887 C   0  0  0  0  0  0
  -25.2506  -13.8179   20.5669 C   0  0  0  0  0  0
  -24.1802  -13.0425   20.9195 C   0  0  0  0  0  0
  -24.6401  -11.6907   20.8749 C   0  0  0  0  0  0
  -23.9076  -10.4287   21.0415 C   0  0  0  0  0  0
  -24.3627   -9.4199   21.9188 C   0  0  0  0  0  0
  -23.6300   -8.2238   22.0753 C   0  0  0  0  0  0
  -22.4279   -8.0282   21.3546 C   0  0  0  0  0  0
  -21.9918   -9.0255   20.4643 C   0  0  0  0  0  0
  -22.7250  -10.2133   20.3059 C   0  0  0  0  0  0
  -21.6852   -6.0741   22.5286 C   0  0  0  0  0  0
  -21.4013   -6.5645   23.8217 C   0  0  0  0  0  0
  -21.3655   -5.6796   24.9177 C   0  0  0  0  0  0
  -21.6044   -4.3059   24.7227 C   0  0  0  0  0  0
  -21.8818   -3.8151   23.4347 C   0  0  0  0  0  0
  -21.9190   -4.6969   22.3402 C   0  0  0  0  0  0
  -22.7825  -13.5213   21.1861 C   0  0  0  0  0  0
  -22.1666   -4.2153   21.0984 F   0  0  0  0  0  0
  -21.5623   -3.4541   25.7739 F   0  0  0  0  0  0
  -29.9932  -13.5024   20.4381 N   0  0  0  0  0  0
  -26.2957  -12.9393   20.3316 N   0  0  0  0  0  0
  -25.9331  -11.6532   20.5756 N   0  0  0  0  0  0
  -22.0475  -12.8203   22.0425 N   0  0  0  0  0  0
  -25.4132  -15.1897   20.4045 N   0  0  0  0  0  0
  -31.8047  -14.7469   20.0678 O   0  0  0  0  0  0
  -21.6637   -6.8885   21.4247 O   0  0  0  0  0  0
  -22.3503  -14.5513   20.6701 O   0  0  0  0  0  0
  -24.6297  -31.8566   23.2000 C   0  0  0  0  0  0
  -25.9128  -32.4761   23.8339 C   0  0  1  0  0  0
  -27.2200  -27.2834   20.1192 C   0  0  0  0  0  0
  -25.5930  -33.8565   24.2260 N   0  0  0  0  0  0
  -23.4247  -30.4805   21.5433 C   0  0  2  0  0  0
  -24.8705  -28.9318   20.1100 C   0  0  0  0  0  0
  -22.7493  -29.4609   22.4920 C   0  0  0  0  0  0
  -18.0290  -28.1386   22.8488 C   0  0  0  0  0  0
  -24.1490  -36.7291   23.2639 C   0  0  0  0  0  0
  -25.9697  -30.7763   21.3765 C   0  0  0  0  0  0
  -26.0426  -29.4018   20.7162 C   0  0  0  0  0  0
  -27.2205  -28.5907   20.7087 C   0  0  0  0  0  0
  -26.0225  -26.8767   19.4867 C   0  0  0  0  0  0
  -24.8646  -27.6763   19.4855 C   0  0  0  0  0  0
  -23.6408  -29.8162   20.1588 C   0  0  0  0  0  0
  -25.4115  -36.3075   24.0324 C   0  0  1  0  0  0
  -20.5894  -28.3693   23.1276 C   0  0  2  0  0  0
  -20.6776  -26.9412   22.5411 C   0  0  0  0  0  0
  -19.5752  -26.6382   21.5214 C   0  0  0  0  0  0
  -18.1933  -26.7928   22.1627 C   0  0  0  0  0  0
  -19.1545  -28.8856   23.2874 C   0  0  0  0  0  0
  -18.9464  -30.1457   23.8891 C   0  0  0  0  0  0
  -17.6463  -30.6587   24.0563 C   0  0  0  0  0  0
  -25.9055  -34.9444   23.5092 C   0  0  0  0  0  0
  -16.5354  -29.9084   23.6330 C   0  0  0  0  0  0
  -16.7276  -28.6501   23.0351 C   0  0  0  0  0  0
  -26.4495  -31.6584   25.0727 C   0  0  0  0  0  0
  -25.3722  -31.3743   26.1452 C   0  0  0  0  0  0
  -27.0334  -30.2995   24.6213 C   0  0  0  0  0  0
  -27.6044  -32.4327   25.7504 C   0  0  0  0  0  0
  -27.5580  -37.1801   24.8462 C   0  0  0  0  0  0
  -21.4203  -29.3045   22.3668 N   0  0  0  0  0  0
  -26.4291  -37.3773   23.9408 N   0  0  0  0  0  0
  -24.6936  -31.0553   22.0963 N   0  0  0  0  0  0
  -23.4203  -28.8151   23.3012 O   0  0  0  0  0  0
  -28.3238  -26.4051   20.1733 O   0  0  0  0  0  0
  -26.5628  -34.8916   22.4663 O   0  0  0  0  0  0
  -23.5448  -32.1381   23.7305 O   0  0  0  0  0  0
  -29.2554  -17.8723   17.7695 C   0  0  0  0  0  0
  -29.3208  -16.7955   18.6749 C   0  0  0  0  0  0
  -29.7339  -18.9813   18.3947 C   0  0  0  0  0  0
  -29.8423  -17.2221   19.8677 C   0  0  0  0  0  0
  -30.0178  -20.2861   17.7206 C   0  0  0  0  0  0
  -30.8790  -21.8867   22.0577 C   0  0  0  0  0  0
  -32.0149  -19.4402   20.8040 C   0  0  0  0  0  0
  -28.8165  -16.1183   21.8743 C   0  0  0  0  0  0
  -31.1914  -16.6476   22.0347 C   0  0  0  0  0  0
  -29.2354  -23.8891   20.4305 C   0  0  0  0  0  0
  -28.9996  -22.2760   20.4474 C   0  0  0  0  0  0
  -28.0833  -24.9327   20.0405 C   0  0  0  0  0  0
  -30.3049  -21.3552   20.7154 C   0  0  2  0  0  0
  -30.4830  -19.7023   20.7536 C   0  0  1  0  0  0
  -30.1055  -16.1782   21.0361 C   0  0  0  0  0  0
  -29.9711  -18.6815   19.7473 N   0  0  0  0  0  0
  -31.4712  -12.5500   19.1729 H   0  0  0  0  0  0
  -30.3690  -11.4619   19.9408 H   0  0  0  0  0  0
  -29.7907  -11.7570   17.5148 H   0  0  0  0  0  0
  -29.6515  -13.4821   17.7371 H   0  0  0  0  0  0
  -27.8674  -11.3058   18.8667 H   0  0  0  0  0  0
  -27.3825  -12.5884   17.7910 H   0  0  0  0  0  0
  -27.6569  -14.2622   19.5212 H   0  0  0  0  0  0
  -28.7391  -12.0546   21.3237 H   0  0  0  0  0  0
  -28.4054  -13.6337   21.8810 H   0  0  0  0  0  0
  -25.2774   -9.5671   22.4757 H   0  0  0  0  0  0
  -24.0006   -7.4631   22.7472 H   0  0  0  0  0  0
  -21.0848   -8.8780   19.8948 H   0  0  0  0  0  0
  -22.3718  -10.9675   19.6166 H   0  0  0  0  0  0
  -21.2013   -7.6154   23.9719 H   0  0  0  0  0  0
  -21.1477   -6.0530   25.9080 H   0  0  0  0  0  0
  -22.0601   -2.7614   23.2849 H   0  0  0  0  0  0
  -22.4120  -11.9875   22.4815 H   0  0  0  0  0  0
  -21.1081  -13.1206   22.2614 H   0  0  0  0  0  0
  -24.6437  -15.8406   20.5166 H   0  0  0  0  0  0
  -26.2613  -15.6340   20.0769 H   0  0  0  0  0  0
  -26.7198  -32.5412   23.1084 H   0  0  0  0  0  0
  -25.0070  -33.9703   25.0399 H   0  0  0  0  0  0
  -22.7203  -31.3020   21.3992 H   0  0  0  0  0  0
  -23.3751  -35.9624   23.3293 H   0  0  0  0  0  0
  -24.3583  -36.8925   22.2056 H   0  0  0  0  0  0
  -23.7244  -37.6488   23.6670 H   0  0  0  0  0  0
  -26.1076  -31.5396   20.6094 H   0  0  0  0  0  0
  -26.8473  -30.8227   22.0095 H   0  0  0  0  0  0
  -28.1182  -28.9456   21.1955 H   0  0  0  0  0  0
  -25.9494  -25.9179   18.9957 H   0  0  0  0  0  0
  -23.9671  -27.3111   19.0049 H   0  0  0  0  0  0
  -23.7628  -30.5927   19.4028 H   0  0  0  0  0  0
  -22.7595  -29.2481   19.8554 H   0  0  0  0  0  0
  -25.1296  -36.1921   25.0816 H   0  0  0  0  0  0
  -20.9986  -28.3270   24.1396 H   0  0  0  0  0  0
  -20.5677  -26.2304   23.3613 H   0  0  0  0  0  0
  -21.6645  -26.7437   22.1206 H   0  0  0  0  0  0
  -19.6913  -25.6291   21.1246 H   0  0  0  0  0  0
  -19.6688  -27.3189   20.6741 H   0  0  0  0  0  0
  -17.4202  -26.6677   21.4028 H   0  0  0  0  0  0
  -18.0329  -26.0067   22.9023 H   0  0  0  0  0  0
  -19.7940  -30.7275   24.2258 H   0  0  0  0  0  0
  -17.5018  -31.6267   24.5166 H   0  0  0  0  0  0
  -15.5354  -30.2983   23.7655 H   0  0  0  0  0  0
  -15.8678  -28.0817   22.7067 H   0  0  0  0  0  0
  -24.5897  -30.7083   25.7796 H   0  0  0  0  0  0
  -24.8911  -32.2917   26.4855 H   0  0  0  0  0  0
  -25.8045  -30.8946   27.0243 H   0  0  0  0  0  0
  -26.2916  -29.6753   24.1218 H   0  0  0  0  0  0
  -27.3988  -29.7251   25.4736 H   0  0  0  0  0  0
  -27.8808  -30.4258   23.9470 H   0  0  0  0  0  0
  -27.2640  -33.3627   26.2069 H   0  0  0  0  0  0
  -28.3864  -32.6889   25.0344 H   0  0  0  0  0  0
  -28.0700  -31.8464   26.5436 H   0  0  0  0  0  0
  -28.2591  -38.0103   24.7509 H   0  0  0  0  0  0
  -28.1082  -36.2634   24.6282 H   0  0  0  0  0  0
  -27.2301  -37.1444   25.8865 H   0  0  0  0  0  0
  -20.9380  -29.8774   21.6881 H   0  0  0  0  0  0
  -26.0168  -38.2846   24.1408 H   0  0  0  0  0  0
  -28.9468  -17.8242   16.7334 H   0  0  0  0  0  0
  -29.0520  -15.7750   18.4420 H   0  0  0  0  0  0
  -30.1222  -20.1338   16.6459 H   0  0  0  0  0  0
  -30.9581  -20.7216   18.0498 H   0  0  0  0  0  0
  -29.2068  -20.9962   17.8395 H   0  0  0  0  0  0
  -31.1880  -22.9275   21.9880 H   0  0  0  0  0  0
  -31.7703  -21.3694   22.4033 H   0  0  0  0  0  0
  -30.1430  -21.8060   22.8587 H   0  0  0  0  0  0
  -32.3764  -19.3420   21.8271 H   0  0  0  0  0  0
  -32.5895  -20.2349   20.3290 H   0  0  0  0  0  0
  -32.3115  -18.5362   20.2745 H   0  0  0  0  0  0
  -28.5491  -17.1126   22.2343 H   0  0  0  0  0  0
  -28.9293  -15.4943   22.7603 H   0  0  0  0  0  0
  -27.9684  -15.7718   21.2897 H   0  0  0  0  0  0
  -30.9194  -17.5640   22.5513 H   0  0  0  0  0  0
  -32.1600  -16.7957   21.5607 H   0  0  0  0  0  0
  -31.3499  -15.9008   22.8140 H   0  0  0  0  0  0
  -30.0858  -24.0931   19.7794 H   0  0  0  0  0  0
  -29.5543  -24.1933   21.4256 H   0  0  0  0  0  0
  -28.5186  -21.9953   19.5165 H   0  0  0  0  0  0
  -28.2544  -22.0494   21.2109 H   0  0  0  0  0  0
  -27.2107  -24.6814   20.6451 H   0  0  0  0  0  0
  -27.8084  -24.7302   19.0047 H   0  0  0  0  0  0
  -31.0004  -21.7016   19.9536 H   0  0  0  0  0  0
  -30.0369  -19.3905   21.6976 H   0  0  0  0  0  0
  1 25  1  0  0  0
  1 30  2  0  0  0
  1 85  1  0  0  0
  2  3  1  0  0  0
  2 25  1  0  0  0
  2 87  1  0  0  0
  2 88  1  0  0  0
  3  4  1  0  0  0
  3 89  1  0  0  0
  3 90  1  0  0  0
  4  5  1  0  0  0
  4 91  1  0  0  0
  4 92  1  0  0  0
  5  6  1  0  0  0
  5 26  1  0  0  0
  5 93  1  0  0  0
  6 25  1  0  0  0
  6 94  1  0  0  0
  6 95  1  0  0  0
  7  8  2  0  0  0
  7 26  1  0  0  0
  7 29  1  0  0  0
  8  9  1  0  0  0
  8 22  1  0  0  0
  9 10  1  0  0  0
  9 27  2  0  0  0
 10 11  2  0  0  0
 10 15  1  0  0  0
 11 12  1  0  0  0
 11 96  1  0  0  0
 12 13  2  0  0  0
 12 97  1  0  0  0
 13 14  1  0  0  0
 13 31  1  0  0  0
 14 15  2  0  0  0
 14 98  1  0  0  0
 15 99  1  0  0  0
 16 17  2  0  0  0
 16 21  1  0  0  0
 16 31  1  0  0  0
 17 18  1  0  0  0
 17100  1  0  0  0
 18 19  2  0  0  0
 18101  1  0  0  0
 19 20  1  0  0  0
 19 24  1  0  0  0
 20 21  2  0  0  0
 20102  1  0  0  0
 21 23  1  0  0  0
 22 28  1  0  0  0
 22 32  2  0  0  0
 26 27  1  0  0  0
 28103  1  0  0  0
 28104  1  0  0  0
 29105  1  0  0  0
 29106  1  0  0  0
 33 34  1  0  0  0
 33 66  1  0  0  0
 33 70  2  0  0  0
 34 36  1  0  0  0
 34 59  1  0  0  0
 34107  1  0  0  0
 35 44  2  0  0  0
 35 45  1  0  0  0
 35 68  1  0  0  0
 36 56  1  0  0  0
 36108  1  0  0  0
 37 39  1  0  0  0
 37 47  1  0  0  0
 37 66  1  0  0  0
 37109  1  0  0  0
 38 43  2  0  0  0
 38 46  1  0  0  0
 38 47  1  0  0  0
 39 64  1  0  0  0
 39 67  2  0  0  0
 40 52  1  0  0  0
 40 53  2  0  0  0
 40 58  1  0  0  0
 41110  1  0  0  0
 41111  1  0  0  0
 41112  1  0  0  0
 41 48  1  0  0  0
 42 43  1  0  0  0
 42 66  1  0  0  0
 42113  1  0  0  0
 42114  1  0  0  0
 43 44  1  0  0  0
 44115  1  0  0  0
 45 46  2  0  0  0
 45116  1  0  0  0
 46117  1  0  0  0
 47118  1  0  0  0
 47119  1  0  0  0
 48 56  1  0  0  0
 48 65  1  0  0  0
 48120  1  0  0  0
 49 50  1  0  0  0
 49 53  1  0  0  0
 49 64  1  0  0  0
 49121  1  0  0  0
 50 51  1  0  0  0
 50122  1  0  0  0
 50123  1  0  0  0
 51 52  1  0  0  0
 51124  1  0  0  0
 51125  1  0  0  0
 52126  1  0  0  0
 52127  1  0  0  0
 53 54  1  0  0  0
 54 55  2  0  0  0
 54128  1  0  0  0
 55 57  1  0  0  0
 55129  1  0  0  0
 56 69  2  0  0  0
 57 58  2  0  0  0
 57130  1  0  0  0
 58131  1  0  0  0
 59 60  1  0  0  0
 59 61  1  0  0  0
 59 62  1  0  0  0
 60132  1  0  0  0
 60133  1  0  0  0
 60134  1  0  0  0
 61135  1  0  0  0
 61136  1  0  0  0
 61137  1  0  0  0
 62138  1  0  0  0
 62139  1  0  0  0
 62140  1  0  0  0
 63 65  1  0  0  0
 63141  1  0  0  0
 63142  1  0  0  0
 63143  1  0  0  0
 64144  1  0  0  0
 65145  1  0  0  0
 68 82  1  0  0  0
 71 72  1  0  0  0
 71 73  2  0  0  0
 71146  1  0  0  0
 72 74  2  0  0  0
 72147  1  0  0  0
 73 75  1  0  0  0
 73 86  1  0  0  0
 74 85  1  0  0  0
 74 86  1  0  0  0
 75148  1  0  0  0
 75149  1  0  0  0
 75150  1  0  0  0
 76151  1  0  0  0
 76152  1  0  0  0
 76153  1  0  0  0
 76 83  1  0  0  0
 77154  1  0  0  0
 77155  1  0  0  0
 77156  1  0  0  0
 77 84  1  0  0  0
 78157  1  0  0  0
 78158  1  0  0  0
 78159  1  0  0  0
 78 85  1  0  0  0
 79 85  1  0  0  0
 79160  1  0  0  0
 79161  1  0  0  0
 79162  1  0  0  0
 80 81  1  0  0  0
 80 82  1  0  0  0
 80163  1  0  0  0
 80164  1  0  0  0
 81 83  1  0  0  0
 81165  1  0  0  0
 81166  1  0  0  0
 82167  1  0  0  0
 82168  1  0  0  0
 83 84  1  0  0  0
 83169  1  0  0  0
 84 86  1  0  0  0
 84170  1  0  0  0
M  ISO  4   1 100  68 101  82 101  85 100
M  END
> <chiral flag>
0

> <version>
0

> <s_m_source_file>
/data/baiqing/PycharmProjects/Reinvent-master-3.2/result/LINK_invent/BTK/process_docking_weight1_custom_sum_contain_oxygen_bond_distance_aromatic_linkinvent_7_9_3/rearranged_h_0073.sdf

> <i_m_source_file_index>
29

> <r_mmod_Potential_Energy-OPLS-2005>
406.103668212891

> <r_mmod_Stretch_Energy-OPLS-2005>
159.08268737793

> <r_mmod_Bend_Energy-OPLS-2005>
270.783142089844

> <r_mmod_Torsional_Energy-OPLS-2005>
237.344741821289

> <r_mmod_Improper_Torsional_Energy-OPLS-2005>
3.76049208641052

> <r_mmod_Van_der_Waal_Energy-OPLS-2005>
146.177719116211

> <r_mmod_Electrostatic_Energy-OPLS-2005>
-297.446807861328

> <r_mmod_Solvation_Energy-OPLS-2005>
-180.735595703125

> <b_mmod_Minimization_Converged-OPLS-2005>
0

> <r_mmod_RMS_Derivative-OPLS-2005>
0.929025530815125

$$$$
29
                    3D
 Structure written by MMmdl.
157165  0  0  1  0            999 V2000
  -30.5506  -14.8862   20.4130 C   0  0  0  0  0  0
  -30.4355  -12.5422   19.4860 C   0  0  0  0  0  0
  -29.5147  -12.5158   18.2452 C   0  0  0  0  0  0
  -28.0430  -12.3239   18.6606 C   0  0  0  0  0  0
  -27.6316  -13.2434   19.8408 C   0  0  2  0  0  0
  -28.6761  -13.2432   20.9756 C   0  0  0  0  0  0
  -25.2473  -13.8223   20.5712 C   0  0  0  0  0  0
  -24.1788  -13.0447   20.9224 C   0  0  0  0  0  0
  -24.6388  -11.6932   20.8749 C   0  0  0  0  0  0
  -23.9074  -10.4301   21.0409 C   0  0  0  0  0  0
  -24.3628   -9.4227   21.9188 C   0  0  0  0  0  0
  -23.6303   -8.2262   22.0759 C   0  0  0  0  0  0
  -22.4284   -8.0288   21.3545 C   0  0  0  0  0  0
  -21.9923   -9.0263   20.4647 C   0  0  0  0  0  0
  -22.7249  -10.2144   20.3056 C   0  0  0  0  0  0
  -21.6861   -6.0740   22.5279 C   0  0  0  0  0  0
  -21.4016   -6.5645   23.8211 C   0  0  0  0  0  0
  -21.3657   -5.6795   24.9177 C   0  0  0  0  0  0
  -21.6043   -4.3055   24.7226 C   0  0  0  0  0  0
  -21.8819   -3.8152   23.4346 C   0  0  0  0  0  0
  -21.9195   -4.6969   22.3407 C   0  0  0  0  0  0
  -22.7805  -13.5226   21.1883 C   0  0  0  0  0  0
  -22.1664   -4.2154   21.0982 F   0  0  0  0  0  0
  -21.5628   -3.4536   25.7740 F   0  0  0  0  0  0
  -29.9562  -13.6335   20.3758 N   0  0  0  0  0  0
  -26.2892  -12.9444   20.3258 N   0  0  0  0  0  0
  -25.9321  -11.6573   20.5745 N   0  0  0  0  0  0
  -22.0451  -12.8195   22.0418 N   0  0  0  0  0  0
  -25.4141  -15.1955   20.4153 N   0  0  0  0  0  0
  -31.7541  -14.9630   20.1443 O   0  0  0  0  0  0
  -21.6646   -6.8887   21.4240 O   0  0  0  0  0  0
  -22.3491  -14.5532   20.6736 O   0  0  0  0  0  0
  -24.6405  -31.8443   23.1881 C   0  0  0  0  0  0
  -25.9196  -32.4686   23.8264 C   0  0  1  0  0  0
  -27.2160  -27.1598   20.1548 C   0  0  0  0  0  0
  -25.5960  -33.8493   24.2190 N   0  0  0  0  0  0
  -23.4429  -30.4614   21.5320 C   0  0  2  0  0  0
  -24.8904  -28.8826   20.1135 C   0  0  0  0  0  0
  -22.7557  -29.4533   22.4861 C   0  0  0  0  0  0
  -18.0306  -28.1390   22.8471 C   0  0  0  0  0  0
  -24.1488  -36.7247   23.2643 C   0  0  0  0  0  0
  -25.9929  -30.7246   21.3826 C   0  0  0  0  0  0
  -26.0619  -29.3338   20.7340 C   0  0  0  0  0  0
  -27.2232  -28.4829   20.7431 C   0  0  0  0  0  0
  -26.0242  -26.7955   19.4962 C   0  0  0  0  0  0
  -24.8795  -27.6259   19.4847 C   0  0  0  0  0  0
  -23.6681  -29.7857   20.1517 C   0  0  0  0  0  0
  -25.4121  -36.3014   24.0315 C   0  0  1  0  0  0
  -20.5918  -28.3710   23.1245 C   0  0  2  0  0  0
  -20.6790  -26.9416   22.5397 C   0  0  0  0  0  0
  -19.5760  -26.6388   21.5207 C   0  0  0  0  0  0
  -18.1939  -26.7930   22.1614 C   0  0  0  0  0  0
  -19.1568  -28.8866   23.2840 C   0  0  0  0  0  0
  -18.9478  -30.1453   23.8873 C   0  0  0  0  0  0
  -17.6477  -30.6580   24.0558 C   0  0  0  0  0  0
  -25.9078  -34.9395   23.5056 C   0  0  0  0  0  0
  -16.5366  -29.9081   23.6336 C   0  0  0  0  0  0
  -16.7293  -28.6503   23.0359 C   0  0  0  0  0  0
  -26.4528  -31.6559   25.0695 C   0  0  0  0  0  0
  -25.3729  -31.3736   26.1404 C   0  0  0  0  0  0
  -27.0394  -30.2964   24.6247 C   0  0  0  0  0  0
  -27.6085  -32.4315   25.7462 C   0  0  0  0  0  0
  -27.5568  -37.1753   24.8463 C   0  0  0  0  0  0
  -21.4252  -29.3035   22.3617 N   0  0  0  0  0  0
  -26.4273  -37.3739   23.9420 N   0  0  0  0  0  0
  -24.7113  -31.0327   22.0895 N   0  0  0  0  0  0
  -23.4204  -28.8088   23.3012 O   0  0  0  0  0  0
  -28.3223  -26.2541   20.1567 O   0  0  0  0  0  0
  -26.5655  -34.8902   22.4627 O   0  0  0  0  0  0
  -23.5536  -32.1320   23.7114 O   0  0  0  0  0  0
  -29.4589  -22.8326   19.3057 C   0  0  0  0  0  0
  -28.9572  -21.9123   20.2876 C   0  0  0  0  0  0
  -27.7763  -23.8666   21.1182 C   0  0  0  0  0  0
  -28.3327  -24.7900   20.1524 C   0  0  0  0  0  0
  -27.5052  -24.9409   23.4153 C   0  0  0  0  0  0
  -28.0880  -18.7437   19.2751 C   0  0  0  0  0  0
  -29.6577  -20.4405   20.5504 C   0  0  0  0  0  0
  -26.8079  -24.3556   22.1815 C   0  0  0  0  0  0
  -30.1529  -17.5721   20.4237 C   0  0  0  0  0  0
  -29.0873  -18.8702   20.4315 C   0  0  2  0  0  0
  -29.1806  -24.1946   19.2512 N   0  0  0  0  0  0
  -28.0958  -22.5002   21.1922 N   0  0  0  0  0  0
  -29.7644  -16.0557   20.5365 N   0  0  0  0  0  0
  -31.4718  -12.6882   19.1763 H   0  0  0  0  0  0
  -30.4129  -11.5844   20.0075 H   0  0  0  0  0  0
  -29.8187  -11.7202   17.5635 H   0  0  0  0  0  0
  -29.6193  -13.4504   17.6916 H   0  0  0  0  0  0
  -27.9152  -11.2785   18.9425 H   0  0  0  0  0  0
  -27.3858  -12.4894   17.8059 H   0  0  0  0  0  0
  -27.6035  -14.2517   19.4275 H   0  0  0  0  0  0
  -28.7496  -12.2634   21.4499 H   0  0  0  0  0  0
  -28.3936  -13.9476   21.7588 H   0  0  0  0  0  0
  -25.2769   -9.5710   22.4761 H   0  0  0  0  0  0
  -24.0010   -7.4661   22.7488 H   0  0  0  0  0  0
  -21.0852   -8.8777   19.8956 H   0  0  0  0  0  0
  -22.3703  -10.9678   19.6163 H   0  0  0  0  0  0
  -21.2003   -7.6149   23.9716 H   0  0  0  0  0  0
  -21.1477   -6.0526   25.9078 H   0  0  0  0  0  0
  -22.0596   -2.7609   23.2847 H   0  0  0  0  0  0
  -22.4057  -11.9849   22.4789 H   0  0  0  0  0  0
  -21.1075  -13.1224   22.2647 H   0  0  0  0  0  0
  -24.6441  -15.8452   20.5339 H   0  0  0  0  0  0
  -26.2547  -15.6394   20.0706 H   0  0  0  0  0  0
  -26.7261  -32.5300   23.0996 H   0  0  0  0  0  0
  -25.0134  -33.9613   25.0354 H   0  0  0  0  0  0
  -22.7452  -31.2863   21.3744 H   0  0  0  0  0  0
  -23.3754  -35.9572   23.3303 H   0  0  0  0  0  0
  -24.3572  -36.8884   22.2054 H   0  0  0  0  0  0
  -23.7246  -37.6434   23.6709 H   0  0  0  0  0  0
  -26.1437  -31.4765   20.6071 H   0  0  0  0  0  0
  -26.8657  -30.7786   22.0209 H   0  0  0  0  0  0
  -28.1220  -28.8218   21.2393 H   0  0  0  0  0  0
  -25.9665  -25.8376   19.0000 H   0  0  0  0  0  0
  -23.9829  -27.2781   18.9890 H   0  0  0  0  0  0
  -23.8049  -30.5568   19.3919 H   0  0  0  0  0  0
  -22.7838  -29.2250   19.8440 H   0  0  0  0  0  0
  -25.1306  -36.1828   25.0806 H   0  0  0  0  0  0
  -20.9994  -28.3293   24.1373 H   0  0  0  0  0  0
  -20.5702  -26.2313   23.3606 H   0  0  0  0  0  0
  -21.6655  -26.7440   22.1170 H   0  0  0  0  0  0
  -19.6921  -25.6303   21.1234 H   0  0  0  0  0  0
  -19.6696  -27.3203   20.6741 H   0  0  0  0  0  0
  -17.4205  -26.6688   21.4008 H   0  0  0  0  0  0
  -18.0307  -26.0075   22.9009 H   0  0  0  0  0  0
  -19.7963  -30.7262   24.2234 H   0  0  0  0  0  0
  -17.5047  -31.6272   24.5152 H   0  0  0  0  0  0
  -15.5364  -30.2974   23.7690 H   0  0  0  0  0  0
  -15.8695  -28.0819   22.7086 H   0  0  0  0  0  0
  -24.5963  -30.7015   25.7741 H   0  0  0  0  0  0
  -24.8844  -32.2895   26.4737 H   0  0  0  0  0  0
  -25.8021  -30.9006   27.0251 H   0  0  0  0  0  0
  -26.2992  -29.6656   24.1310 H   0  0  0  0  0  0
  -27.4081  -29.7279   25.4795 H   0  0  0  0  0  0
  -27.8880  -30.4213   23.9517 H   0  0  0  0  0  0
  -27.2752  -33.3700   26.1923 H   0  0  0  0  0  0
  -28.3962  -32.6719   25.0306 H   0  0  0  0  0  0
  -28.0697  -31.8502   26.5460 H   0  0  0  0  0  0
  -28.2551  -38.0073   24.7536 H   0  0  0  0  0  0
  -28.1082  -36.2599   24.6272 H   0  0  0  0  0  0
  -27.2289  -37.1386   25.8860 H   0  0  0  0  0  0
  -20.9464  -29.8774   21.6817 H   0  0  0  0  0  0
  -26.0129  -38.2790   24.1465 H   0  0  0  0  0  0
  -30.1888  -22.4912   18.5862 H   0  0  0  0  0  0
  -28.1651  -24.2130   23.8880 H   0  0  0  0  0  0
  -26.7693  -25.2525   24.1579 H   0  0  0  0  0  0
  -28.0984  -25.8155   23.1477 H   0  0  0  0  0  0
  -27.2625  -19.4458   19.3992 H   0  0  0  0  0  0
  -27.6599  -17.7413   19.2285 H   0  0  0  0  0  0
  -28.5584  -18.9519   18.3144 H   0  0  0  0  0  0
  -30.0679  -20.5191   21.5570 H   0  0  0  0  0  0
  -30.5422  -20.4619   19.9127 H   0  0  0  0  0  0
  -26.1694  -23.5251   22.4856 H   0  0  0  0  0  0
  -26.1389  -25.0982   21.7469 H   0  0  0  0  0  0
  -30.8736  -17.7457   21.2239 H   0  0  0  0  0  0
  -30.7450  -17.6535   19.5096 H   0  0  0  0  0  0
  -28.4880  -18.7348   21.3327 H   0  0  0  0  0  0
  -28.7861  -15.8757   20.7040 H   0  0  0  0  0  0
  1 25  1  0  0  0
  1 30  2  0  0  0
  1 83  1  0  0  0
  2  3  1  0  0  0
  2 25  1  0  0  0
  2 84  1  0  0  0
  2 85  1  0  0  0
  3  4  1  0  0  0
  3 86  1  0  0  0
  3 87  1  0  0  0
  4  5  1  0  0  0
  4 88  1  0  0  0
  4 89  1  0  0  0
  5  6  1  0  0  0
  5 26  1  0  0  0
  5 90  1  0  0  0
  6 25  1  0  0  0
  6 91  1  0  0  0
  6 92  1  0  0  0
  7  8  2  0  0  0
  7 26  1  0  0  0
  7 29  1  0  0  0
  8  9  1  0  0  0
  8 22  1  0  0  0
  9 10  1  0  0  0
  9 27  2  0  0  0
 10 11  2  0  0  0
 10 15  1  0  0  0
 11 12  1  0  0  0
 11 93  1  0  0  0
 12 13  2  0  0  0
 12 94  1  0  0  0
 13 14  1  0  0  0
 13 31  1  0  0  0
 14 15  2  0  0  0
 14 95  1  0  0  0
 15 96  1  0  0  0
 16 17  2  0  0  0
 16 21  1  0  0  0
 16 31  1  0  0  0
 17 18  1  0  0  0
 17 97  1  0  0  0
 18 19  2  0  0  0
 18 98  1  0  0  0
 19 20  1  0  0  0
 19 24  1  0  0  0
 20 21  2  0  0  0
 20 99  1  0  0  0
 21 23  1  0  0  0
 22 28  1  0  0  0
 22 32  2  0  0  0
 26 27  1  0  0  0
 28100  1  0  0  0
 28101  1  0  0  0
 29102  1  0  0  0
 29103  1  0  0  0
 33 34  1  0  0  0
 33 66  1  0  0  0
 33 70  2  0  0  0
 34 36  1  0  0  0
 34 59  1  0  0  0
 34104  1  0  0  0
 35 44  2  0  0  0
 35 45  1  0  0  0
 35 68  1  0  0  0
 36 56  1  0  0  0
 36105  1  0  0  0
 37 39  1  0  0  0
 37 47  1  0  0  0
 37 66  1  0  0  0
 37106  1  0  0  0
 38 43  2  0  0  0
 38 46  1  0  0  0
 38 47  1  0  0  0
 39 64  1  0  0  0
 39 67  2  0  0  0
 40 52  1  0  0  0
 40 53  2  0  0  0
 40 58  1  0  0  0
 41107  1  0  0  0
 41108  1  0  0  0
 41109  1  0  0  0
 41 48  1  0  0  0
 42 43  1  0  0  0
 42 66  1  0  0  0
 42110  1  0  0  0
 42111  1  0  0  0
 43 44  1  0  0  0
 44112  1  0  0  0
 45 46  2  0  0  0
 45113  1  0  0  0
 46114  1  0  0  0
 47115  1  0  0  0
 47116  1  0  0  0
 48 56  1  0  0  0
 48 65  1  0  0  0
 48117  1  0  0  0
 49 50  1  0  0  0
 49 53  1  0  0  0
 49 64  1  0  0  0
 49118  1  0  0  0
 50 51  1  0  0  0
 50119  1  0  0  0
 50120  1  0  0  0
 51 52  1  0  0  0
 51121  1  0  0  0
 51122  1  0  0  0
 52123  1  0  0  0
 52124  1  0  0  0
 53 54  1  0  0  0
 54 55  2  0  0  0
 54125  1  0  0  0
 55 57  1  0  0  0
 55126  1  0  0  0
 56 69  2  0  0  0
 57 58  2  0  0  0
 57127  1  0  0  0
 58128  1  0  0  0
 59 60  1  0  0  0
 59 61  1  0  0  0
 59 62  1  0  0  0
 60129  1  0  0  0
 60130  1  0  0  0
 60131  1  0  0  0
 61132  1  0  0  0
 61133  1  0  0  0
 61134  1  0  0  0
 62135  1  0  0  0
 62136  1  0  0  0
 62137  1  0  0  0
 63 65  1  0  0  0
 63138  1  0  0  0
 63139  1  0  0  0
 63140  1  0  0  0
 64141  1  0  0  0
 65142  1  0  0  0
 68 74  1  0  0  0
 71 72  2  0  0  0
 71 81  1  0  0  0
 71143  1  0  0  0
 72 77  1  0  0  0
 72 82  1  0  0  0
 73 74  1  0  0  0
 73 78  1  0  0  0
 73 82  2  0  0  0
 74 81  2  0  0  0
 75 78  1  0  0  0
 75144  1  0  0  0
 75145  1  0  0  0
 75146  1  0  0  0
 76147  1  0  0  0
 76148  1  0  0  0
 76149  1  0  0  0
 76 80  1  0  0  0
 77 80  1  0  0  0
 77150  1  0  0  0
 77151  1  0  0  0
 78152  1  0  0  0
 78153  1  0  0  0
 79 80  1  0  0  0
 79 83  1  0  0  0
 79154  1  0  0  0
 79155  1  0  0  0
 80156  1  0  0  0
 83157  1  0  0  0
M  ISO  4   1 100  68 101  74 101  83 100
M  END
> <chiral flag>
0

> <version>
0

> <s_m_source_file>
/data/baiqing/PycharmProjects/Reinvent-master-3.2/result/LINK_invent/BTK/process_docking_weight1_custom_sum_contain_oxygen_bond_distance_aromatic_linkinvent_7_9_3/rearranged_h_0073.sdf

> <i_m_source_file_index>
30

> <r_mmod_Potential_Energy-OPLS-2005>
430.016540527344

> <r_mmod_Stretch_Energy-OPLS-2005>
208.415374755859

> <r_mmod_Bend_Energy-OPLS-2005>
246.073440551758

> <r_mmod_Torsional_Energy-OPLS-2005>
212.869857788086

> <r_mmod_Improper_Torsional_Energy-OPLS-2005>
8.39911365509033

> <r_mmod_Van_der_Waal_Energy-OPLS-2005>
119.937431335449

> <r_mmod_Electrostatic_Energy-OPLS-2005>
-303.037658691406

> <r_mmod_Solvation_Energy-OPLS-2005>
-216.214920043945

> <b_mmod_Minimization_Converged-OPLS-2005>
0

> <r_mmod_RMS_Derivative-OPLS-2005>
2.31728959083557

$$$$
30
                    3D
 Structure written by MMmdl.
155163  0  0  1  0            999 V2000
  -30.5650  -14.8742   20.4396 C   0  0  0  0  0  0
  -30.4412  -12.5420   19.4817 C   0  0  0  0  0  0
  -29.5170  -12.5226   18.2433 C   0  0  0  0  0  0
  -28.0484  -12.3189   18.6633 C   0  0  0  0  0  0
  -27.6351  -13.2400   19.8414 C   0  0  2  0  0  0
  -28.6809  -13.2335   20.9761 C   0  0  0  0  0  0
  -25.2489  -13.8199   20.5704 C   0  0  0  0  0  0
  -24.1796  -13.0432   20.9216 C   0  0  0  0  0  0
  -24.6404  -11.6913   20.8756 C   0  0  0  0  0  0
  -23.9084  -10.4287   21.0411 C   0  0  0  0  0  0
  -24.3631   -9.4203   21.9190 C   0  0  0  0  0  0
  -23.6300   -8.2240   22.0760 C   0  0  0  0  0  0
  -22.4280   -8.0284   21.3550 C   0  0  0  0  0  0
  -21.9922   -9.0260   20.4650 C   0  0  0  0  0  0
  -22.7257  -10.2136   20.3060 C   0  0  0  0  0  0
  -21.6855   -6.0738   22.5279 C   0  0  0  0  0  0
  -21.4015   -6.5642   23.8213 C   0  0  0  0  0  0
  -21.3658   -5.6796   24.9175 C   0  0  0  0  0  0
  -21.6045   -4.3060   24.7226 C   0  0  0  0  0  0
  -21.8819   -3.8149   23.4349 C   0  0  0  0  0  0
  -21.9194   -4.6964   22.3403 C   0  0  0  0  0  0
  -22.7819  -13.5211   21.1872 C   0  0  0  0  0  0
  -22.1663   -4.2151   21.0981 F   0  0  0  0  0  0
  -21.5627   -3.4542   25.7739 F   0  0  0  0  0  0
  -29.9638  -13.6259   20.3792 N   0  0  0  0  0  0
  -26.2913  -12.9419   20.3254 N   0  0  0  0  0  0
  -25.9334  -11.6555   20.5741 N   0  0  0  0  0  0
  -22.0472  -12.8199   22.0431 N   0  0  0  0  0  0
  -25.4154  -15.1929   20.4114 N   0  0  0  0  0  0
  -31.7687  -14.9602   20.1793 O   0  0  0  0  0  0
  -21.6642   -6.8883   21.4243 O   0  0  0  0  0  0
  -22.3500  -14.5516   20.6721 O   0  0  0  0  0  0
  -24.6399  -31.8484   23.1921 C   0  0  0  0  0  0
  -25.9185  -32.4720   23.8299 C   0  0  1  0  0  0
  -27.2141  -27.1748   20.1511 C   0  0  0  0  0  0
  -25.5949  -33.8524   24.2215 N   0  0  0  0  0  0
  -23.4420  -30.4698   21.5367 C   0  0  2  0  0  0
  -24.8926  -28.9033   20.1117 C   0  0  0  0  0  0
  -22.7545  -29.4582   22.4874 C   0  0  0  0  0  0
  -18.0304  -28.1396   22.8477 C   0  0  0  0  0  0
  -24.1491  -36.7265   23.2641 C   0  0  0  0  0  0
  -25.9961  -30.7337   21.3872 C   0  0  0  0  0  0
  -26.0695  -29.3482   20.7300 C   0  0  0  0  0  0
  -27.2362  -28.4993   20.7350 C   0  0  0  0  0  0
  -26.0195  -26.8283   19.4853 C   0  0  0  0  0  0
  -24.8774  -27.6540   19.4747 C   0  0  0  0  0  0
  -23.6675  -29.8015   20.1553 C   0  0  0  0  0  0
  -25.4123  -36.3047   24.0317 C   0  0  1  0  0  0
  -20.5912  -28.3730   23.1238 C   0  0  2  0  0  0
  -20.6795  -26.9437   22.5403 C   0  0  0  0  0  0
  -19.5771  -26.6385   21.5212 C   0  0  0  0  0  0
  -18.1951  -26.7934   22.1623 C   0  0  0  0  0  0
  -19.1559  -28.8879   23.2852 C   0  0  0  0  0  0
  -18.9473  -30.1475   23.8878 C   0  0  0  0  0  0
  -17.6469  -30.6593   24.0556 C   0  0  0  0  0  0
  -25.9070  -34.9422   23.5074 C   0  0  0  0  0  0
  -16.5363  -29.9082   23.6333 C   0  0  0  0  0  0
  -16.7288  -28.6500   23.0356 C   0  0  0  0  0  0
  -26.4518  -31.6574   25.0725 C   0  0  0  0  0  0
  -25.3710  -31.3753   26.1424 C   0  0  0  0  0  0
  -27.0380  -30.2974   24.6282 C   0  0  0  0  0  0
  -27.6052  -32.4335   25.7512 C   0  0  0  0  0  0
  -27.5578  -37.1793   24.8466 C   0  0  0  0  0  0
  -21.4240  -29.3068   22.3614 N   0  0  0  0  0  0
  -26.4291  -37.3754   23.9407 N   0  0  0  0  0  0
  -24.7120  -31.0375   22.0939 N   0  0  0  0  0  0
  -23.4200  -28.8123   23.3010 O   0  0  0  0  0  0
  -28.2415  -26.1743   20.1876 O   0  0  0  0  0  0
  -26.5650  -34.8909   22.4649 O   0  0  0  0  0  0
  -23.5527  -32.1345   23.7160 O   0  0  0  0  0  0
  -29.3768  -22.8012   19.6529 C   0  0  0  0  0  0
  -29.6912  -21.3858   19.5281 C   0  0  0  0  0  0
  -28.4220  -23.2959   20.5981 C   0  0  0  0  0  0
  -29.0942  -20.3686   20.3450 C   0  0  0  0  0  0
  -27.8952  -22.2034   21.3841 C   0  0  0  0  0  0
  -25.4029  -22.2667   21.8679 C   0  0  0  0  0  0
  -27.8712  -24.8323   20.8347 C   0  0  0  0  0  0
  -29.1254  -18.7476   20.0571 C   0  0  0  0  0  0
  -26.8186  -22.4464   22.4352 C   0  0  0  0  0  0
  -30.0808  -17.5649   20.7343 C   0  0  0  0  0  0
  -28.2094  -20.8569   21.2620 N   0  0  0  0  0  0
  -29.7705  -16.0282   20.5936 N   0  0  0  0  0  0
  -31.4764  -12.6950   19.1730 H   0  0  0  0  0  0
  -30.4208  -11.5808   19.9972 H   0  0  0  0  0  0
  -29.8219  -11.7349   17.5528 H   0  0  0  0  0  0
  -29.6153  -13.4627   17.6984 H   0  0  0  0  0  0
  -27.9345  -11.2746   18.9567 H   0  0  0  0  0  0
  -27.3853  -12.4709   17.8111 H   0  0  0  0  0  0
  -27.6092  -14.2492   19.4300 H   0  0  0  0  0  0
  -28.7516  -12.2493   21.4413 H   0  0  0  0  0  0
  -28.3953  -13.9286   21.7670 H   0  0  0  0  0  0
  -25.2777   -9.5678   22.4766 H   0  0  0  0  0  0
  -24.0007   -7.4633   22.7481 H   0  0  0  0  0  0
  -21.0853   -8.8783   19.8958 H   0  0  0  0  0  0
  -22.3718  -10.9677   19.6171 H   0  0  0  0  0  0
  -21.2009   -7.6151   23.9717 H   0  0  0  0  0  0
  -21.1479   -6.0527   25.9079 H   0  0  0  0  0  0
  -22.0599   -2.7610   23.2848 H   0  0  0  0  0  0
  -22.4094  -11.9854   22.4802 H   0  0  0  0  0  0
  -21.1092  -13.1220   22.2645 H   0  0  0  0  0  0
  -24.6421  -15.8404   20.5177 H   0  0  0  0  0  0
  -26.2514  -15.6348   20.0527 H   0  0  0  0  0  0
  -26.7254  -32.5338   23.1036 H   0  0  0  0  0  0
  -25.0081  -33.9646   25.0352 H   0  0  0  0  0  0
  -22.7433  -31.2947   21.3843 H   0  0  0  0  0  0
  -23.3756  -35.9595   23.3296 H   0  0  0  0  0  0
  -24.3578  -36.8903   22.2057 H   0  0  0  0  0  0
  -23.7242  -37.6460   23.6680 H   0  0  0  0  0  0
  -26.1481  -31.4898   20.6156 H   0  0  0  0  0  0
  -26.8680  -30.7838   22.0279 H   0  0  0  0  0  0
  -28.1333  -28.8320   21.2385 H   0  0  0  0  0  0
  -25.9512  -25.8703   18.9890 H   0  0  0  0  0  0
  -23.9807  -27.3085   18.9785 H   0  0  0  0  0  0
  -23.8016  -30.5768   19.4002 H   0  0  0  0  0  0
  -22.7832  -29.2419   19.8451 H   0  0  0  0  0  0
  -25.1310  -36.1886   25.0810 H   0  0  0  0  0  0
  -21.0009  -28.3320   24.1358 H   0  0  0  0  0  0
  -20.5690  -26.2343   23.3619 H   0  0  0  0  0  0
  -21.6664  -26.7448   22.1203 H   0  0  0  0  0  0
  -19.6940  -25.6287   21.1263 H   0  0  0  0  0  0
  -19.6706  -27.3177   20.6727 H   0  0  0  0  0  0
  -17.4223  -26.6669   21.4025 H   0  0  0  0  0  0
  -18.0353  -26.0080   22.9024 H   0  0  0  0  0  0
  -19.7947  -30.7300   24.2240 H   0  0  0  0  0  0
  -17.5022  -31.6271   24.5163 H   0  0  0  0  0  0
  -15.5361  -30.2977   23.7666 H   0  0  0  0  0  0
  -15.8690  -28.0806   22.7086 H   0  0  0  0  0  0
  -24.5893  -30.7097   25.7744 H   0  0  0  0  0  0
  -24.8892  -32.2932   26.4804 H   0  0  0  0  0  0
  -25.7998  -30.8957   27.0232 H   0  0  0  0  0  0
  -26.2990  -29.6705   24.1275 H   0  0  0  0  0  0
  -27.3991  -29.7264   25.4847 H   0  0  0  0  0  0
  -27.8902  -30.4218   23.9595 H   0  0  0  0  0  0
  -27.2642  -33.3648   26.2048 H   0  0  0  0  0  0
  -28.3887  -32.6877   25.0359 H   0  0  0  0  0  0
  -28.0693  -31.8488   26.5466 H   0  0  0  0  0  0
  -28.2592  -38.0091   24.7510 H   0  0  0  0  0  0
  -28.1077  -36.2623   24.6299 H   0  0  0  0  0  0
  -27.2295  -37.1446   25.8867 H   0  0  0  0  0  0
  -20.9441  -29.8771   21.6790 H   0  0  0  0  0  0
  -26.0162  -38.2827   24.1403 H   0  0  0  0  0  0
  -29.8526  -23.5025   18.9830 H   0  0  0  0  0  0
  -30.3697  -21.0797   18.7426 H   0  0  0  0  0  0
  -25.2600  -21.2541   21.4897 H   0  0  0  0  0  0
  -25.2107  -22.9561   21.0459 H   0  0  0  0  0  0
  -24.6500  -22.4449   22.6356 H   0  0  0  0  0  0
  -28.0850  -25.0267   21.8858 H   0  0  0  0  0  0
  -26.7878  -24.7337   20.7991 H   0  0  0  0  0  0
  -29.2495  -18.6556   18.9781 H   0  0  0  0  0  0
  -28.0978  -18.4271   20.2278 H   0  0  0  0  0  0
  -26.9207  -23.4287   22.8914 H   0  0  0  0  0  0
  -26.9632  -21.7434   23.2571 H   0  0  0  0  0  0
  -30.0888  -17.7535   21.8085 H   0  0  0  0  0  0
  -31.1088  -17.7328   20.4118 H   0  0  0  0  0  0
  -28.7943  -15.8050   20.7147 H   0  0  0  0  0  0
  1 25  1  0  0  0
  1 30  2  0  0  0
  1 82  1  0  0  0
  2  3  1  0  0  0
  2 25  1  0  0  0
  2 83  1  0  0  0
  2 84  1  0  0  0
  3  4  1  0  0  0
  3 85  1  0  0  0
  3 86  1  0  0  0
  4  5  1  0  0  0
  4 87  1  0  0  0
  4 88  1  0  0  0
  5  6  1  0  0  0
  5 26  1  0  0  0
  5 89  1  0  0  0
  6 25  1  0  0  0
  6 90  1  0  0  0
  6 91  1  0  0  0
  7  8  2  0  0  0
  7 26  1  0  0  0
  7 29  1  0  0  0
  8  9  1  0  0  0
  8 22  1  0  0  0
  9 10  1  0  0  0
  9 27  2  0  0  0
 10 11  2  0  0  0
 10 15  1  0  0  0
 11 12  1  0  0  0
 11 92  1  0  0  0
 12 13  2  0  0  0
 12 93  1  0  0  0
 13 14  1  0  0  0
 13 31  1  0  0  0
 14 15  2  0  0  0
 14 94  1  0  0  0
 15 95  1  0  0  0
 16 17  2  0  0  0
 16 21  1  0  0  0
 16 31  1  0  0  0
 17 18  1  0  0  0
 17 96  1  0  0  0
 18 19  2  0  0  0
 18 97  1  0  0  0
 19 20  1  0  0  0
 19 24  1  0  0  0
 20 21  2  0  0  0
 20 98  1  0  0  0
 21 23  1  0  0  0
 22 28  1  0  0  0
 22 32  2  0  0  0
 26 27  1  0  0  0
 28 99  1  0  0  0
 28100  1  0  0  0
 29101  1  0  0  0
 29102  1  0  0  0
 33 34  1  0  0  0
 33 66  1  0  0  0
 33 70  2  0  0  0
 34 36  1  0  0  0
 34 59  1  0  0  0
 34103  1  0  0  0
 35 44  2  0  0  0
 35 45  1  0  0  0
 35 68  1  0  0  0
 36 56  1  0  0  0
 36104  1  0  0  0
 37 39  1  0  0  0
 37 47  1  0  0  0
 37 66  1  0  0  0
 37105  1  0  0  0
 38 43  2  0  0  0
 38 46  1  0  0  0
 38 47  1  0  0  0
 39 64  1  0  0  0
 39 67  2  0  0  0
 40 52  1  0  0  0
 40 53  2  0  0  0
 40 58  1  0  0  0
 41106  1  0  0  0
 41107  1  0  0  0
 41108  1  0  0  0
 41 48  1  0  0  0
 42 43  1  0  0  0
 42 66  1  0  0  0
 42109  1  0  0  0
 42110  1  0  0  0
 43 44  1  0  0  0
 44111  1  0  0  0
 45 46  2  0  0  0
 45112  1  0  0  0
 46113  1  0  0  0
 47114  1  0  0  0
 47115  1  0  0  0
 48 56  1  0  0  0
 48 65  1  0  0  0
 48116  1  0  0  0
 49 50  1  0  0  0
 49 53  1  0  0  0
 49 64  1  0  0  0
 49117  1  0  0  0
 50 51  1  0  0  0
 50118  1  0  0  0
 50119  1  0  0  0
 51 52  1  0  0  0
 51120  1  0  0  0
 51121  1  0  0  0
 52122  1  0  0  0
 52123  1  0  0  0
 53 54  1  0  0  0
 54 55  2  0  0  0
 54124  1  0  0  0
 55 57  1  0  0  0
 55125  1  0  0  0
 56 69  2  0  0  0
 57 58  2  0  0  0
 57126  1  0  0  0
 58127  1  0  0  0
 59 60  1  0  0  0
 59 61  1  0  0  0
 59 62  1  0  0  0
 60128  1  0  0  0
 60129  1  0  0  0
 60130  1  0  0  0
 61131  1  0  0  0
 61132  1  0  0  0
 61133  1  0  0  0
 62134  1  0  0  0
 62135  1  0  0  0
 62136  1  0  0  0
 63 65  1  0  0  0
 63137  1  0  0  0
 63138  1  0  0  0
 63139  1  0  0  0
 64140  1  0  0  0
 65141  1  0  0  0
 68 77  1  0  0  0
 71 72  2  0  0  0
 71 73  1  0  0  0
 71142  1  0  0  0
 72 74  1  0  0  0
 72143  1  0  0  0
 73 75  2  0  0  0
 73 77  1  0  0  0
 74 78  1  0  0  0
 74 81  2  0  0  0
 75 79  1  0  0  0
 75 81  1  0  0  0
 76 79  1  0  0  0
 76144  1  0  0  0
 76145  1  0  0  0
 76146  1  0  0  0
 77147  1  0  0  0
 77148  1  0  0  0
 78 80  1  0  0  0
 78149  1  0  0  0
 78150  1  0  0  0
 79151  1  0  0  0
 79152  1  0  0  0
 80 82  1  0  0  0
 80153  1  0  0  0
 80154  1  0  0  0
 82155  1  0  0  0
M  ISO  4   1 100  68 101  77 101  82 100
M  END
> <chiral flag>
0

> <version>
0

> <s_m_source_file>
/data/baiqing/PycharmProjects/Reinvent-master-3.2/result/LINK_invent/BTK/process_docking_weight1_custom_sum_contain_oxygen_bond_distance_aromatic_linkinvent_7_9_3/rearranged_h_0073.sdf

> <i_m_source_file_index>
31

> <r_mmod_Potential_Energy-OPLS-2005>
261.046905517578

> <r_mmod_Stretch_Energy-OPLS-2005>
200.500701904297

> <r_mmod_Bend_Energy-OPLS-2005>
254.447647094727

> <r_mmod_Torsional_Energy-OPLS-2005>
223.786376953125

> <r_mmod_Improper_Torsional_Energy-OPLS-2005>
6.2089409828186

> <r_mmod_Van_der_Waal_Energy-OPLS-2005>
135.115264892578

> <r_mmod_Electrostatic_Energy-OPLS-2005>
-493.775177001953

> <r_mmod_Solvation_Energy-OPLS-2005>
-221.814498901367

> <b_mmod_Minimization_Converged-OPLS-2005>
0

> <r_mmod_RMS_Derivative-OPLS-2005>
0.821112394332886

$$$$
31
                    3D
 Structure written by MMmdl.
166174  0  0  1  0            999 V2000
  -30.6221  -14.6837   20.5243 C   0  0  0  0  0  0
  -30.4230  -12.4444   19.4217 C   0  0  0  0  0  0
  -29.4815  -12.5447   18.1963 C   0  0  0  0  0  0
  -28.0005  -12.4012   18.5964 C   0  0  0  0  0  0
  -27.6448  -13.2217   19.8604 C   0  0  2  0  0  0
  -28.6963  -13.0032   20.9645 C   0  0  0  0  0  0
  -25.2463  -13.8165   20.5628 C   0  0  0  0  0  0
  -24.1764  -13.0406   20.9178 C   0  0  0  0  0  0
  -24.6367  -11.6909   20.8751 C   0  0  0  0  0  0
  -23.9052  -10.4280   21.0432 C   0  0  0  0  0  0
  -24.3617   -9.4174   21.9185 C   0  0  0  0  0  0
  -23.6278   -8.2211   22.0747 C   0  0  0  0  0  0
  -22.4251   -8.0254   21.3551 C   0  0  0  0  0  0
  -21.9909   -9.0228   20.4645 C   0  0  0  0  0  0
  -22.7237  -10.2112   20.3056 C   0  0  0  0  0  0
  -21.6825   -6.0722   22.5298 C   0  0  0  0  0  0
  -21.3985   -6.5641   23.8224 C   0  0  0  0  0  0
  -21.3681   -5.6808   24.9201 C   0  0  0  0  0  0
  -21.6055   -4.3064   24.7248 C   0  0  0  0  0  0
  -21.8825   -3.8152   23.4370 C   0  0  0  0  0  0
  -21.9185   -4.6959   22.3431 C   0  0  0  0  0  0
  -22.7795  -13.5172   21.1906 C   0  0  0  0  0  0
  -22.1644   -4.2150   21.1005 F   0  0  0  0  0  0
  -21.5665   -3.4554   25.7770 F   0  0  0  0  0  0
  -29.9916  -13.4512   20.4288 N   0  0  0  0  0  0
  -26.2920  -12.9367   20.3322 N   0  0  0  0  0  0
  -25.9284  -11.6516   20.5770 N   0  0  0  0  0  0
  -22.0471  -12.8097   22.0474 N   0  0  0  0  0  0
  -25.4061  -15.1859   20.3959 N   0  0  0  0  0  0
  -31.7632  -14.7593   20.0538 O   0  0  0  0  0  0
  -21.6603   -6.8860   21.4254 O   0  0  0  0  0  0
  -22.3470  -14.5485   20.6806 O   0  0  0  0  0  0
  -24.6302  -31.8587   23.1990 C   0  0  0  0  0  0
  -25.9128  -32.4783   23.8356 C   0  0  1  0  0  0
  -27.2343  -27.2986   20.1216 C   0  0  0  0  0  0
  -25.5907  -33.8582   24.2244 N   0  0  0  0  0  0
  -23.4265  -30.4802   21.5426 C   0  0  2  0  0  0
  -24.8755  -28.9209   20.1195 C   0  0  0  0  0  0
  -22.7497  -29.4644   22.4940 C   0  0  0  0  0  0
  -18.0298  -28.1397   22.8491 C   0  0  0  0  0  0
  -24.1480  -36.7301   23.2635 C   0  0  0  0  0  0
  -25.9714  -30.7846   21.3741 C   0  0  0  0  0  0
  -26.0484  -29.4099   20.7128 C   0  0  0  0  0  0
  -27.2363  -28.6158   20.6852 C   0  0  0  0  0  0
  -26.0384  -26.8565   19.5255 C   0  0  0  0  0  0
  -24.8738  -27.6503   19.5177 C   0  0  0  0  0  0
  -23.6435  -29.8036   20.1632 C   0  0  0  0  0  0
  -25.4117  -36.3080   24.0308 C   0  0  1  0  0  0
  -20.5906  -28.3724   23.1254 C   0  0  2  0  0  0
  -20.6774  -26.9429   22.5406 C   0  0  0  0  0  0
  -19.5733  -26.6384   21.5225 C   0  0  0  0  0  0
  -18.1921  -26.7936   22.1649 C   0  0  0  0  0  0
  -19.1560  -28.8881   23.2856 C   0  0  0  0  0  0
  -18.9472  -30.1481   23.8867 C   0  0  0  0  0  0
  -17.6470  -30.6586   24.0577 C   0  0  0  0  0  0
  -25.9061  -34.9453   23.5080 C   0  0  0  0  0  0
  -16.5358  -29.9079   23.6343 C   0  0  0  0  0  0
  -16.7291  -28.6512   23.0339 C   0  0  0  0  0  0
  -26.4450  -31.6622   25.0769 C   0  0  0  0  0  0
  -25.3628  -31.3784   26.1457 C   0  0  0  0  0  0
  -27.0321  -30.3018   24.6330 C   0  0  0  0  0  0
  -27.5958  -32.4406   25.7585 C   0  0  0  0  0  0
  -27.5581  -37.1806   24.8444 C   0  0  0  0  0  0
  -21.4218  -29.3071   22.3651 N   0  0  0  0  0  0
  -26.4293  -37.3788   23.9398 N   0  0  0  0  0  0
  -24.6951  -31.0574   22.0950 N   0  0  0  0  0  0
  -23.4197  -28.8220   23.3058 O   0  0  0  0  0  0
  -28.3482  -26.4405   20.1023 O   0  0  0  0  0  0
  -26.5657  -34.8928   22.4668 O   0  0  0  0  0  0
  -23.5441  -32.1437   23.7260 O   0  0  0  0  0  0
  -28.1259  -20.3282   20.9374 C   0  0  0  0  0  0
  -30.0627  -19.9562   20.0648 C   0  0  0  0  0  0
  -29.2543  -21.0423   20.4193 C   0  0  0  0  0  0
  -31.3327  -24.3345   19.6030 C   0  0  0  0  0  0
  -28.9824  -16.8610   18.8198 C   0  0  0  0  0  0
  -28.7517  -15.9397   21.9393 C   0  0  0  0  0  0
  -31.0988  -16.5936   22.1094 C   0  0  0  0  0  0
  -30.8053  -22.8922   19.5526 C   0  0  0  0  0  0
  -28.3845  -23.6763   19.9570 C   0  0  0  0  0  0
  -28.2374  -25.0920   20.7358 C   0  0  0  0  0  0
  -29.5303  -22.6176   20.3883 C   0  0  1  0  0  0
  -29.8791  -17.2869   19.9970 C   0  0  2  0  0  0
  -30.0370  -16.0900   21.0990 C   0  0  0  0  0  0
  -28.2471  -18.9922   20.8994 N   0  0  0  0  0  0
  -29.4706  -18.7128   20.3793 N   0  0  0  0  0  0
  -31.4514  -12.5834   19.0877 H   0  0  0  0  0  0
  -30.3995  -11.4387   19.8416 H   0  0  0  0  0  0
  -29.7342  -11.7877   17.4530 H   0  0  0  0  0  0
  -29.6222  -13.5067   17.6995 H   0  0  0  0  0  0
  -27.7896  -11.3458   18.7575 H   0  0  0  0  0  0
  -27.3616  -12.7172   17.7718 H   0  0  0  0  0  0
  -27.6753  -14.2665   19.5563 H   0  0  0  0  0  0
  -28.7363  -11.9387   21.2076 H   0  0  0  0  0  0
  -28.4105  -13.4509   21.9044 H   0  0  0  0  0  0
  -25.2775   -9.5656   22.4752 H   0  0  0  0  0  0
  -24.0009   -7.4607   22.7460 H   0  0  0  0  0  0
  -21.0856   -8.8727   19.8937 H   0  0  0  0  0  0
  -22.3677  -10.9640   19.6174 H   0  0  0  0  0  0
  -21.1905   -7.6136   23.9721 H   0  0  0  0  0  0
  -21.1521   -6.0538   25.9112 H   0  0  0  0  0  0
  -22.0572   -2.7602   23.2868 H   0  0  0  0  0  0
  -22.4091  -11.9684   22.4719 H   0  0  0  0  0  0
  -21.1117  -13.1101   22.2808 H   0  0  0  0  0  0
  -24.6359  -15.8357   20.5046 H   0  0  0  0  0  0
  -26.2701  -15.6415   20.1309 H   0  0  0  0  0  0
  -26.7221  -32.5445   23.1135 H   0  0  0  0  0  0
  -24.9941  -33.9729   25.0304 H   0  0  0  0  0  0
  -22.7212  -31.3011   21.3918 H   0  0  0  0  0  0
  -23.3760  -35.9618   23.3279 H   0  0  0  0  0  0
  -24.3545  -36.8978   22.2055 H   0  0  0  0  0  0
  -23.7239  -37.6481   23.6712 H   0  0  0  0  0  0
  -26.1116  -31.5550   20.6139 H   0  0  0  0  0  0
  -26.8457  -30.8257   22.0125 H   0  0  0  0  0  0
  -28.1481  -28.9992   21.1219 H   0  0  0  0  0  0
  -26.0060  -25.8779   19.0662 H   0  0  0  0  0  0
  -23.9725  -27.2627   19.0607 H   0  0  0  0  0  0
  -23.7638  -30.5770   19.4040 H   0  0  0  0  0  0
  -22.7624  -29.2332   19.8636 H   0  0  0  0  0  0
  -25.1299  -36.1911   25.0805 H   0  0  0  0  0  0
  -20.9989  -28.3312   24.1383 H   0  0  0  0  0  0
  -20.5675  -26.2342   23.3626 H   0  0  0  0  0  0
  -21.6638  -26.7434   22.1211 H   0  0  0  0  0  0
  -19.6876  -25.6295   21.1249 H   0  0  0  0  0  0
  -19.6632  -27.3190   20.6746 H   0  0  0  0  0  0
  -17.4179  -26.6720   21.4051 H   0  0  0  0  0  0
  -18.0285  -26.0083   22.9045 H   0  0  0  0  0  0
  -19.7949  -30.7319   24.2193 H   0  0  0  0  0  0
  -17.5020  -31.6253   24.5210 H   0  0  0  0  0  0
  -15.5353  -30.2964   23.7676 H   0  0  0  0  0  0
  -15.8703  -28.0824   22.7028 H   0  0  0  0  0  0
  -24.5793  -30.7160   25.7753 H   0  0  0  0  0  0
  -24.8822  -32.2964   26.4856 H   0  0  0  0  0  0
  -25.7894  -30.8956   27.0262 H   0  0  0  0  0  0
  -26.2972  -29.6789   24.1220 H   0  0  0  0  0  0
  -27.3799  -29.7260   25.4920 H   0  0  0  0  0  0
  -27.8920  -30.4254   23.9747 H   0  0  0  0  0  0
  -27.2502  -33.3706   26.2134 H   0  0  0  0  0  0
  -28.3798  -32.7009   25.0457 H   0  0  0  0  0  0
  -28.0614  -31.8589   26.5557 H   0  0  0  0  0  0
  -28.2532  -38.0149   24.7529 H   0  0  0  0  0  0
  -28.1134  -36.2684   24.6229 H   0  0  0  0  0  0
  -27.2283  -37.1388   25.8831 H   0  0  0  0  0  0
  -20.9399  -29.8774   21.6832 H   0  0  0  0  0  0
  -26.0154  -38.2856   24.1416 H   0  0  0  0  0  0
  -27.2172  -20.7395   21.3555 H   0  0  0  0  0  0
  -31.0385  -19.9606   19.5941 H   0  0  0  0  0  0
  -32.2354  -24.4260   18.9980 H   0  0  0  0  0  0
  -31.5824  -24.6329   20.6205 H   0  0  0  0  0  0
  -30.6167  -25.0568   19.2061 H   0  0  0  0  0  0
  -29.2939  -15.9149   18.3798 H   0  0  0  0  0  0
  -29.0274  -17.6088   18.0269 H   0  0  0  0  0  0
  -27.9413  -16.7681   19.1307 H   0  0  0  0  0  0
  -28.4484  -16.8812   22.3905 H   0  0  0  0  0  0
  -28.9070  -15.2639   22.7802 H   0  0  0  0  0  0
  -27.9072  -15.5945   21.3515 H   0  0  0  0  0  0
  -32.0684  -16.7472   21.6356 H   0  0  0  0  0  0
  -31.2514  -15.8785   22.9207 H   0  0  0  0  0  0
  -30.8149  -17.5480   22.5570 H   0  0  0  0  0  0
  -31.6150  -22.2471   19.8981 H   0  0  0  0  0  0
  -30.6215  -22.6174   18.5137 H   0  0  0  0  0  0
  -28.4409  -23.8624   18.8837 H   0  0  0  0  0  0
  -27.4306  -23.1660   20.0833 H   0  0  0  0  0  0
  -28.9831  -25.0986   21.5297 H   0  0  0  0  0  0
  -27.2949  -25.0586   21.2846 H   0  0  0  0  0  0
  -29.7817  -22.8856   21.4150 H   0  0  0  0  0  0
  -30.8749  -17.4005   19.5672 H   0  0  0  0  0  0
  1 25  1  0  0  0
  1 30  2  0  0  0
  1 83  1  0  0  0
  2  3  1  0  0  0
  2 25  1  0  0  0
  2 86  1  0  0  0
  2 87  1  0  0  0
  3  4  1  0  0  0
  3 88  1  0  0  0
  3 89  1  0  0  0
  4  5  1  0  0  0
  4 90  1  0  0  0
  4 91  1  0  0  0
  5  6  1  0  0  0
  5 26  1  0  0  0
  5 92  1  0  0  0
  6 25  1  0  0  0
  6 93  1  0  0  0
  6 94  1  0  0  0
  7  8  2  0  0  0
  7 26  1  0  0  0
  7 29  1  0  0  0
  8  9  1  0  0  0
  8 22  1  0  0  0
  9 10  1  0  0  0
  9 27  2  0  0  0
 10 11  2  0  0  0
 10 15  1  0  0  0
 11 12  1  0  0  0
 11 95  1  0  0  0
 12 13  2  0  0  0
 12 96  1  0  0  0
 13 14  1  0  0  0
 13 31  1  0  0  0
 14 15  2  0  0  0
 14 97  1  0  0  0
 15 98  1  0  0  0
 16 17  2  0  0  0
 16 21  1  0  0  0
 16 31  1  0  0  0
 17 18  1  0  0  0
 17 99  1  0  0  0
 18 19  2  0  0  0
 18100  1  0  0  0
 19 20  1  0  0  0
 19 24  1  0  0  0
 20 21  2  0  0  0
 20101  1  0  0  0
 21 23  1  0  0  0
 22 28  1  0  0  0
 22 32  2  0  0  0
 26 27  1  0  0  0
 28102  1  0  0  0
 28103  1  0  0  0
 29104  1  0  0  0
 29105  1  0  0  0
 33 34  1  0  0  0
 33 66  1  0  0  0
 33 70  2  0  0  0
 34 36  1  0  0  0
 34 59  1  0  0  0
 34106  1  0  0  0
 35 44  2  0  0  0
 35 45  1  0  0  0
 35 68  1  0  0  0
 36 56  1  0  0  0
 36107  1  0  0  0
 37 39  1  0  0  0
 37 47  1  0  0  0
 37 66  1  0  0  0
 37108  1  0  0  0
 38 43  2  0  0  0
 38 46  1  0  0  0
 38 47  1  0  0  0
 39 64  1  0  0  0
 39 67  2  0  0  0
 40 52  1  0  0  0
 40 53  2  0  0  0
 40 58  1  0  0  0
 41109  1  0  0  0
 41110  1  0  0  0
 41111  1  0  0  0
 41 48  1  0  0  0
 42 43  1  0  0  0
 42 66  1  0  0  0
 42112  1  0  0  0
 42113  1  0  0  0
 43 44  1  0  0  0
 44114  1  0  0  0
 45 46  2  0  0  0
 45115  1  0  0  0
 46116  1  0  0  0
 47117  1  0  0  0
 47118  1  0  0  0
 48 56  1  0  0  0
 48 65  1  0  0  0
 48119  1  0  0  0
 49 50  1  0  0  0
 49 53  1  0  0  0
 49 64  1  0  0  0
 49120  1  0  0  0
 50 51  1  0  0  0
 50121  1  0  0  0
 50122  1  0  0  0
 51 52  1  0  0  0
 51123  1  0  0  0
 51124  1  0  0  0
 52125  1  0  0  0
 52126  1  0  0  0
 53 54  1  0  0  0
 54 55  2  0  0  0
 54127  1  0  0  0
 55 57  1  0  0  0
 55128  1  0  0  0
 56 69  2  0  0  0
 57 58  2  0  0  0
 57129  1  0  0  0
 58130  1  0  0  0
 59 60  1  0  0  0
 59 61  1  0  0  0
 59 62  1  0  0  0
 60131  1  0  0  0
 60132  1  0  0  0
 60133  1  0  0  0
 61134  1  0  0  0
 61135  1  0  0  0
 61136  1  0  0  0
 62137  1  0  0  0
 62138  1  0  0  0
 62139  1  0  0  0
 63 65  1  0  0  0
 63140  1  0  0  0
 63141  1  0  0  0
 63142  1  0  0  0
 64143  1  0  0  0
 65144  1  0  0  0
 68 80  1  0  0  0
 71 73  1  0  0  0
 71 84  2  0  0  0
 71145  1  0  0  0
 72 73  2  0  0  0
 72 85  1  0  0  0
 72146  1  0  0  0
 73 81  1  0  0  0
 74 78  1  0  0  0
 74147  1  0  0  0
 74148  1  0  0  0
 74149  1  0  0  0
 75150  1  0  0  0
 75151  1  0  0  0
 75152  1  0  0  0
 75 82  1  0  0  0
 76153  1  0  0  0
 76154  1  0  0  0
 76155  1  0  0  0
 76 83  1  0  0  0
 77 83  1  0  0  0
 77156  1  0  0  0
 77157  1  0  0  0
 77158  1  0  0  0
 78159  1  0  0  0
 78160  1  0  0  0
 78 81  1  0  0  0
 79 80  1  0  0  0
 79 81  1  0  0  0
 79161  1  0  0  0
 79162  1  0  0  0
 80163  1  0  0  0
 80164  1  0  0  0
 81165  1  0  0  0
 82 83  1  0  0  0
 82 85  1  0  0  0
 82166  1  0  0  0
 84 85  1  0  0  0
M  ISO  4   1 100  68 101  80 101  83 100
M  END
> <chiral flag>
0

> <version>
0

> <s_m_source_file>
/data/baiqing/PycharmProjects/Reinvent-master-3.2/result/LINK_invent/BTK/process_docking_weight1_custom_sum_contain_oxygen_bond_distance_aromatic_linkinvent_7_9_3/rearranged_h_0073.sdf

> <i_m_source_file_index>
32

> <r_mmod_Potential_Energy-OPLS-2005>
260.850067138672

> <r_mmod_Stretch_Energy-OPLS-2005>
127.816093444824

> <r_mmod_Bend_Energy-OPLS-2005>
205.301132202148

> <r_mmod_Torsional_Energy-OPLS-2005>
245.622909545898

> <r_mmod_Improper_Torsional_Energy-OPLS-2005>
3.76288819313049

> <r_mmod_Van_der_Waal_Energy-OPLS-2005>
121.942863464355

> <r_mmod_Electrostatic_Energy-OPLS-2005>
-314.916290283203

> <r_mmod_Solvation_Energy-OPLS-2005>
-183.051055908203

> <b_mmod_Minimization_Converged-OPLS-2005>
0

> <r_mmod_RMS_Derivative-OPLS-2005>
4.58695316314697

$$$$
32
                    3D
 Structure written by MMmdl.
164172  0  0  1  0            999 V2000
  -30.7272  -14.6881   20.3729 C   0  0  0  0  0  0
  -30.4106  -12.4041   19.4686 C   0  0  0  0  0  0
  -29.4951  -12.4254   18.2287 C   0  0  0  0  0  0
  -28.0256  -12.2415   18.6545 C   0  0  0  0  0  0
  -27.6161  -13.1808   19.8133 C   0  0  2  0  0  0
  -28.6776  -13.2564   20.9360 C   0  0  0  0  0  0
  -25.2518  -13.8021   20.5751 C   0  0  0  0  0  0
  -24.1777  -13.0354   20.9281 C   0  0  0  0  0  0
  -24.6309  -11.6806   20.8815 C   0  0  0  0  0  0
  -23.8989  -10.4227   21.0478 C   0  0  0  0  0  0
  -24.3570   -9.4143   21.9237 C   0  0  0  0  0  0
  -23.6242   -8.2190   22.0792 C   0  0  0  0  0  0
  -22.4229   -8.0255   21.3567 C   0  0  0  0  0  0
  -21.9864   -9.0228   20.4673 C   0  0  0  0  0  0
  -22.7191  -10.2095   20.3094 C   0  0  0  0  0  0
  -21.6835   -6.0709   22.5267 C   0  0  0  0  0  0
  -21.4004   -6.5622   23.8194 C   0  0  0  0  0  0
  -21.3656   -5.6785   24.9161 C   0  0  0  0  0  0
  -21.6040   -4.3048   24.7229 C   0  0  0  0  0  0
  -21.8814   -3.8133   23.4353 C   0  0  0  0  0  0
  -21.9186   -4.6940   22.3400 C   0  0  0  0  0  0
  -22.7817  -13.5210   21.1903 C   0  0  0  0  0  0
  -22.1664   -4.2117   21.0983 F   0  0  0  0  0  0
  -21.5618   -3.4541   25.7751 F   0  0  0  0  0  0
  -29.9913  -13.5246   20.3366 N   0  0  0  0  0  0
  -26.2841  -12.9104   20.3254 N   0  0  0  0  0  0
  -25.9211  -11.6313   20.5791 N   0  0  0  0  0  0
  -22.0430  -12.8241   22.0450 N   0  0  0  0  0  0
  -25.4280  -15.1744   20.4176 N   0  0  0  0  0  0
  -31.9485  -14.5718   20.3232 O   0  0  0  0  0  0
  -21.6600   -6.8854   21.4238 O   0  0  0  0  0  0
  -22.3556  -14.5534   20.6732 O   0  0  0  0  0  0
  -24.6222  -31.8602   23.2031 C   0  0  0  0  0  0
  -25.9078  -32.4780   23.8359 C   0  0  1  0  0  0
  -27.2233  -27.3611   20.1221 C   0  0  0  0  0  0
  -25.5922  -33.8584   24.2293 N   0  0  0  0  0  0
  -23.4149  -30.4852   21.5430 C   0  0  2  0  0  0
  -24.8635  -28.9449   20.1085 C   0  0  0  0  0  0
  -22.7464  -29.4640   22.4929 C   0  0  0  0  0  0
  -18.0325  -28.1361   22.8524 C   0  0  0  0  0  0
  -24.1492  -36.7302   23.2644 C   0  0  0  0  0  0
  -25.9515  -30.8072   21.3673 C   0  0  0  0  0  0
  -26.0287  -29.4382   20.7108 C   0  0  0  0  0  0
  -27.2171  -28.6579   20.7045 C   0  0  0  0  0  0
  -26.0456  -26.9081   19.4909 C   0  0  0  0  0  0
  -24.8721  -27.6841   19.4893 C   0  0  0  0  0  0
  -23.6283  -29.8179   20.1585 C   0  0  0  0  0  0
  -25.4113  -36.3089   24.0334 C   0  0  1  0  0  0
  -20.5906  -28.3684   23.1308 C   0  0  2  0  0  0
  -20.6795  -26.9417   22.5401 C   0  0  0  0  0  0
  -19.5777  -26.6409   21.5194 C   0  0  0  0  0  0
  -18.1964  -26.7920   22.1634 C   0  0  0  0  0  0
  -19.1559  -28.8845   23.2924 C   0  0  0  0  0  0
  -18.9464  -30.1461   23.8907 C   0  0  0  0  0  0
  -17.6456  -30.6594   24.0541 C   0  0  0  0  0  0
  -25.9042  -34.9449   23.5105 C   0  0  0  0  0  0
  -16.5353  -29.9065   23.6322 C   0  0  0  0  0  0
  -16.7303  -28.6472   23.0377 C   0  0  0  0  0  0
  -26.4494  -31.6582   25.0719 C   0  0  0  0  0  0
  -25.3740  -31.3706   26.1458 C   0  0  0  0  0  0
  -27.0334  -30.3013   24.6142 C   0  0  0  0  0  0
  -27.6066  -32.4307   25.7482 C   0  0  0  0  0  0
  -27.5582  -37.1807   24.8467 C   0  0  0  0  0  0
  -21.4180  -29.3047   22.3691 N   0  0  0  0  0  0
  -26.4296  -37.3782   23.9402 N   0  0  0  0  0  0
  -24.6816  -31.0663   22.0952 N   0  0  0  0  0  0
  -23.4202  -28.8193   23.3001 O   0  0  0  0  0  0
  -28.3251  -26.5110   20.1663 O   0  0  0  0  0  0
  -26.5609  -34.8909   22.4676 O   0  0  0  0  0  0
  -23.5385  -32.1397   23.7349 O   0  0  0  0  0  0
  -30.0922  -20.7453   21.8271 C   0  0  0  0  0  0
  -28.9347  -21.2496   21.1925 C   0  0  0  0  0  0
  -28.1784  -20.2581   20.5243 C   0  0  0  0  0  0
  -29.6124  -18.5636   21.2216 C   0  0  0  0  0  0
  -25.6373  -20.2007   20.5053 C   0  0  0  0  0  0
  -28.9192  -16.1680   19.2053 C   0  0  0  0  0  0
  -28.4374  -22.7145   21.4368 C   0  0  0  0  0  0
  -26.9134  -20.5737   19.7430 C   0  0  0  0  0  0
  -29.8849  -17.0331   21.3895 C   0  0  0  0  0  0
  -28.7671  -23.9095   20.4570 C   0  0  0  0  0  0
  -28.1128  -25.2729   20.9254 C   0  0  0  0  0  0
  -30.1803  -16.1794   20.0954 C   0  0  1  0  0  0
  -31.2690  -16.9571   19.2620 C   0  0  0  0  0  0
  -30.4263  -19.4273   21.8287 N   0  0  0  0  0  0
  -28.5065  -18.9429   20.5809 N   0  0  0  0  0  0
  -31.6174  -16.2574   18.1777 F   0  0  0  0  0  0
  -32.3732  -17.1882   19.9771 F   0  0  0  0  0  0
  -30.8595  -18.1430   18.8063 F   0  0  0  0  0  0
  -31.4526  -12.4718   19.1537 H   0  0  0  0  0  0
  -30.3230  -11.4554   20.0016 H   0  0  0  0  0  0
  -29.7798  -11.6271   17.5423 H   0  0  0  0  0  0
  -29.6214  -13.3566   17.6766 H   0  0  0  0  0  0
  -27.9055  -11.2034   18.9676 H   0  0  0  0  0  0
  -27.3621  -12.3803   17.7999 H   0  0  0  0  0  0
  -27.5167  -14.1284   19.3180 H   0  0  0  0  0  0
  -28.7092  -12.3223   21.4973 H   0  0  0  0  0  0
  -28.4162  -14.0394   21.6503 H   0  0  0  0  0  0
  -25.2733   -9.5589   22.4795 H   0  0  0  0  0  0
  -23.9928   -7.4568   22.7525 H   0  0  0  0  0  0
  -21.0780   -8.8769   19.8985 H   0  0  0  0  0  0
  -22.3695  -10.9643   19.6192 H   0  0  0  0  0  0
  -21.2005   -7.6134   23.9678 H   0  0  0  0  0  0
  -21.1495   -6.0534   25.9054 H   0  0  0  0  0  0
  -22.0603   -2.7597   23.2861 H   0  0  0  0  0  0
  -22.3989  -11.9857   22.4795 H   0  0  0  0  0  0
  -21.1059  -13.1307   22.2640 H   0  0  0  0  0  0
  -24.6722  -15.8353   20.5568 H   0  0  0  0  0  0
  -26.2896  -15.6134   20.1240 H   0  0  0  0  0  0
  -26.7141  -32.5470   23.1108 H   0  0  0  0  0  0
  -25.0089  -33.9714   25.0452 H   0  0  0  0  0  0
  -22.7070  -31.3058   21.3994 H   0  0  0  0  0  0
  -23.3746  -35.9650   23.3311 H   0  0  0  0  0  0
  -24.3597  -36.8900   22.2060 H   0  0  0  0  0  0
  -23.7249  -37.6510   23.6648 H   0  0  0  0  0  0
  -26.0799  -31.5744   20.6016 H   0  0  0  0  0  0
  -26.8340  -30.8551   21.9930 H   0  0  0  0  0  0
  -28.1122  -29.0294   21.1834 H   0  0  0  0  0  0
  -26.0303  -25.9361   19.0180 H   0  0  0  0  0  0
  -23.9794  -27.3026   19.0119 H   0  0  0  0  0  0
  -23.7363  -30.5945   19.4005 H   0  0  0  0  0  0
  -22.7506  -29.2412   19.8613 H   0  0  0  0  0  0
  -25.1285  -36.1957   25.0830 H   0  0  0  0  0  0
  -21.0027  -28.3266   24.1422 H   0  0  0  0  0  0
  -20.5701  -26.2300   23.3606 H   0  0  0  0  0  0
  -21.6663  -26.7414   22.1191 H   0  0  0  0  0  0
  -19.6942  -25.6325   21.1204 H   0  0  0  0  0  0
  -19.6741  -27.3270   20.6757 H   0  0  0  0  0  0
  -17.4199  -26.6695   21.4057 H   0  0  0  0  0  0
  -18.0398  -26.0044   22.9017 H   0  0  0  0  0  0
  -19.7935  -30.7282   24.2283 H   0  0  0  0  0  0
  -17.5013  -31.6289   24.5120 H   0  0  0  0  0  0
  -15.5350  -30.2960   23.7620 H   0  0  0  0  0  0
  -15.8720  -28.0767   22.7077 H   0  0  0  0  0  0
  -24.5910  -30.7059   25.7789 H   0  0  0  0  0  0
  -24.8952  -32.2873   26.4912 H   0  0  0  0  0  0
  -25.8088  -30.8865   27.0215 H   0  0  0  0  0  0
  -26.2890  -29.6762   24.1189 H   0  0  0  0  0  0
  -27.4083  -29.7266   25.4626 H   0  0  0  0  0  0
  -27.8745  -30.4324   23.9327 H   0  0  0  0  0  0
  -27.2690  -33.3595   26.2095 H   0  0  0  0  0  0
  -28.3869  -32.6878   25.0304 H   0  0  0  0  0  0
  -28.0759  -31.8414   26.5367 H   0  0  0  0  0  0
  -28.2608  -38.0098   24.7495 H   0  0  0  0  0  0
  -28.1066  -36.2619   24.6306 H   0  0  0  0  0  0
  -27.2299  -37.1474   25.8874 H   0  0  0  0  0  0
  -20.9349  -29.8740   21.6875 H   0  0  0  0  0  0
  -26.0176  -38.2864   24.1382 H   0  0  0  0  0  0
  -30.7265  -21.3984   22.4074 H   0  0  0  0  0  0
  -24.7521  -20.4543   19.9224 H   0  0  0  0  0  0
  -25.5801  -20.7301   21.4560 H   0  0  0  0  0  0
  -25.6029  -19.1307   20.7142 H   0  0  0  0  0  0
  -28.7701  -17.1128   18.6854 H   0  0  0  0  0  0
  -28.0251  -16.0472   19.8105 H   0  0  0  0  0  0
  -28.9696  -15.4203   18.4185 H   0  0  0  0  0  0
  -28.7989  -23.0003   22.4251 H   0  0  0  0  0  0
  -27.3547  -22.6677   21.5631 H   0  0  0  0  0  0
  -26.9440  -20.0310   18.7967 H   0  0  0  0  0  0
  -26.8910  -21.6290   19.4731 H   0  0  0  0  0  0
  -29.0399  -16.5995   21.9242 H   0  0  0  0  0  0
  -30.7304  -16.9216   22.0688 H   0  0  0  0  0  0
  -28.4156  -23.6713   19.4526 H   0  0  0  0  0  0
  -29.8491  -24.0282   20.3848 H   0  0  0  0  0  0
  -28.4735  -25.4830   21.9319 H   0  0  0  0  0  0
  -27.0465  -25.0807   21.0567 H   0  0  0  0  0  0
  1 25  1  0  0  0
  1 30  2  0  0  0
  1 82  1  0  0  0
  2  3  1  0  0  0
  2 25  1  0  0  0
  2 89  1  0  0  0
  2 90  1  0  0  0
  3  4  1  0  0  0
  3 91  1  0  0  0
  3 92  1  0  0  0
  4  5  1  0  0  0
  4 93  1  0  0  0
  4 94  1  0  0  0
  5  6  1  0  0  0
  5 26  1  0  0  0
  5 95  1  0  0  0
  6 25  1  0  0  0
  6 96  1  0  0  0
  6 97  1  0  0  0
  7  8  2  0  0  0
  7 26  1  0  0  0
  7 29  1  0  0  0
  8  9  1  0  0  0
  8 22  1  0  0  0
  9 10  1  0  0  0
  9 27  2  0  0  0
 10 11  2  0  0  0
 10 15  1  0  0  0
 11 12  1  0  0  0
 11 98  1  0  0  0
 12 13  2  0  0  0
 12 99  1  0  0  0
 13 14  1  0  0  0
 13 31  1  0  0  0
 14 15  2  0  0  0
 14100  1  0  0  0
 15101  1  0  0  0
 16 17  2  0  0  0
 16 21  1  0  0  0
 16 31  1  0  0  0
 17 18  1  0  0  0
 17102  1  0  0  0
 18 19  2  0  0  0
 18103  1  0  0  0
 19 20  1  0  0  0
 19 24  1  0  0  0
 20 21  2  0  0  0
 20104  1  0  0  0
 21 23  1  0  0  0
 22 28  1  0  0  0
 22 32  2  0  0  0
 26 27  1  0  0  0
 28105  1  0  0  0
 28106  1  0  0  0
 29107  1  0  0  0
 29108  1  0  0  0
 33 34  1  0  0  0
 33 66  1  0  0  0
 33 70  2  0  0  0
 34 36  1  0  0  0
 34 59  1  0  0  0
 34109  1  0  0  0
 35 44  2  0  0  0
 35 45  1  0  0  0
 35 68  1  0  0  0
 36 56  1  0  0  0
 36110  1  0  0  0
 37 39  1  0  0  0
 37 47  1  0  0  0
 37 66  1  0  0  0
 37111  1  0  0  0
 38 43  2  0  0  0
 38 46  1  0  0  0
 38 47  1  0  0  0
 39 64  1  0  0  0
 39 67  2  0  0  0
 40 52  1  0  0  0
 40 53  2  0  0  0
 40 58  1  0  0  0
 41112  1  0  0  0
 41113  1  0  0  0
 41114  1  0  0  0
 41 48  1  0  0  0
 42 43  1  0  0  0
 42 66  1  0  0  0
 42115  1  0  0  0
 42116  1  0  0  0
 43 44  1  0  0  0
 44117  1  0  0  0
 45 46  2  0  0  0
 45118  1  0  0  0
 46119  1  0  0  0
 47120  1  0  0  0
 47121  1  0  0  0
 48 56  1  0  0  0
 48 65  1  0  0  0
 48122  1  0  0  0
 49 50  1  0  0  0
 49 53  1  0  0  0
 49 64  1  0  0  0
 49123  1  0  0  0
 50 51  1  0  0  0
 50124  1  0  0  0
 50125  1  0  0  0
 51 52  1  0  0  0
 51126  1  0  0  0
 51127  1  0  0  0
 52128  1  0  0  0
 52129  1  0  0  0
 53 54  1  0  0  0
 54 55  2  0  0  0
 54130  1  0  0  0
 55 57  1  0  0  0
 55131  1  0  0  0
 56 69  2  0  0  0
 57 58  2  0  0  0
 57132  1  0  0  0
 58133  1  0  0  0
 59 60  1  0  0  0
 59 61  1  0  0  0
 59 62  1  0  0  0
 60134  1  0  0  0
 60135  1  0  0  0
 60136  1  0  0  0
 61137  1  0  0  0
 61138  1  0  0  0
 61139  1  0  0  0
 62140  1  0  0  0
 62141  1  0  0  0
 62142  1  0  0  0
 63 65  1  0  0  0
 63143  1  0  0  0
 63144  1  0  0  0
 63145  1  0  0  0
 64146  1  0  0  0
 65147  1  0  0  0
 68 81  1  0  0  0
 71 72  2  0  0  0
 71 84  1  0  0  0
 71148  1  0  0  0
 72 73  1  0  0  0
 72 77  1  0  0  0
 73 78  1  0  0  0
 73 85  2  0  0  0
 74 79  1  0  0  0
 74 84  2  0  0  0
 74 85  1  0  0  0
 75 78  1  0  0  0
 75149  1  0  0  0
 75150  1  0  0  0
 75151  1  0  0  0
 76152  1  0  0  0
 76153  1  0  0  0
 76154  1  0  0  0
 76 82  1  0  0  0
 77 80  1  0  0  0
 77155  1  0  0  0
 77156  1  0  0  0
 78157  1  0  0  0
 78158  1  0  0  0
 79 82  1  0  0  0
 79159  1  0  0  0
 79160  1  0  0  0
 80 81  1  0  0  0
 80161  1  0  0  0
 80162  1  0  0  0
 81163  1  0  0  0
 81164  1  0  0  0
 82 83  1  0  0  0
 83 86  1  0  0  0
 83 87  1  0  0  0
 83 88  1  0  0  0
M  ISO  4   1 100  68 101  81 101  82 100
M  END
> <chiral flag>
0

> <version>
0

> <s_m_source_file>
/data/baiqing/PycharmProjects/Reinvent-master-3.2/result/LINK_invent/BTK/process_docking_weight1_custom_sum_contain_oxygen_bond_distance_aromatic_linkinvent_7_9_3/rearranged_h_0073.sdf

> <i_m_source_file_index>
33

> <r_mmod_Potential_Energy-OPLS-2005>
-313.256622314453

> <r_mmod_Stretch_Energy-OPLS-2005>
72.2977294921875

> <r_mmod_Bend_Energy-OPLS-2005>
153.142196655273

> <r_mmod_Torsional_Energy-OPLS-2005>
217.113265991211

> <r_mmod_Improper_Torsional_Energy-OPLS-2005>
10.3784847259521

> <r_mmod_Van_der_Waal_Energy-OPLS-2005>
165.253723144531

> <r_mmod_Electrostatic_Energy-OPLS-2005>
-808.263061523438

> <r_mmod_Solvation_Energy-OPLS-2005>
-202.889404296875

> <b_mmod_Minimization_Converged-OPLS-2005>
0

> <r_mmod_RMS_Derivative-OPLS-2005>
2.65920829772949

$$$$
33
                    3D
 Structure written by MMmdl.
179187  0  0  1  0            999 V2000
  -30.9014  -14.5697   20.3190 C   0  0  0  0  0  0
  -30.3456  -12.3654   19.4096 C   0  0  0  0  0  0
  -29.4305  -12.3761   18.1850 C   0  0  0  0  0  0
  -27.9747  -12.2014   18.6441 C   0  0  0  0  0  0
  -27.5848  -13.1360   19.8102 C   0  0  2  0  0  0
  -28.6957  -13.3241   20.8859 C   0  0  0  0  0  0
  -25.2487  -13.7904   20.5943 C   0  0  0  0  0  0
  -24.1709  -13.0233   20.9346 C   0  0  0  0  0  0
  -24.6206  -11.6699   20.8959 C   0  0  0  0  0  0
  -23.8874  -10.4178   21.0538 C   0  0  0  0  0  0
  -24.3485   -9.4099   21.9274 C   0  0  0  0  0  0
  -23.6187   -8.2132   22.0799 C   0  0  0  0  0  0
  -22.4175   -8.0202   21.3548 C   0  0  0  0  0  0
  -21.9798   -9.0173   20.4674 C   0  0  0  0  0  0
  -22.7103  -10.2056   20.3130 C   0  0  0  0  0  0
  -21.6837   -6.0681   22.5233 C   0  0  0  0  0  0
  -21.4002   -6.5605   23.8146 C   0  0  0  0  0  0
  -21.3672   -5.6789   24.9150 C   0  0  0  0  0  0
  -21.6035   -4.3068   24.7248 C   0  0  0  0  0  0
  -21.8852   -3.8121   23.4379 C   0  0  0  0  0  0
  -21.9228   -4.6893   22.3395 C   0  0  0  0  0  0
  -22.7796  -13.5114   21.1992 C   0  0  0  0  0  0
  -22.1699   -4.2089   21.1002 F   0  0  0  0  0  0
  -21.5606   -3.4551   25.7772 F   0  0  0  0  0  0
  -29.9821  -13.5544   20.2032 N   0  0  0  0  0  0
  -26.2760  -12.8838   20.3591 N   0  0  0  0  0  0
  -25.9117  -11.6105   20.6127 N   0  0  0  0  0  0
  -22.0534  -12.7980   22.0509 N   0  0  0  0  0  0
  -25.4162  -15.1638   20.4346 N   0  0  0  0  0  0
  -32.0572  -14.2039   20.4498 O   0  0  0  0  0  0
  -21.6581   -6.8790   21.4205 O   0  0  0  0  0  0
  -22.3492  -14.5476   20.6985 O   0  0  0  0  0  0
  -24.6088  -31.8682   23.2091 C   0  0  0  0  0  0
  -25.9003  -32.4826   23.8375 C   0  0  1  0  0  0
  -27.2293  -27.4187   20.1108 C   0  0  0  0  0  0
  -25.5889  -33.8627   24.2306 N   0  0  0  0  0  0
  -23.3972  -30.4863   21.5560 C   0  0  2  0  0  0
  -24.8471  -28.9487   20.1229 C   0  0  0  0  0  0
  -22.7363  -29.4646   22.5065 C   0  0  0  0  0  0
  -18.0229  -28.1355   22.8504 C   0  0  0  0  0  0
  -24.1516  -36.7292   23.2633 C   0  0  0  0  0  0
  -25.9298  -30.8228   21.3752 C   0  0  0  0  0  0
  -26.0066  -29.4596   20.7163 C   0  0  0  0  0  0
  -27.2028  -28.7007   20.7050 C   0  0  0  0  0  0
  -26.0490  -26.9237   19.5079 C   0  0  0  0  0  0
  -24.8606  -27.6775   19.5189 C   0  0  0  0  0  0
  -23.6052  -29.8119   20.1748 C   0  0  0  0  0  0
  -25.4151  -36.3120   24.0334 C   0  0  1  0  0  0
  -20.5823  -28.3665   23.1337 C   0  0  2  0  0  0
  -20.6761  -26.9425   22.5407 C   0  0  0  0  0  0
  -19.5752  -26.6370   21.5217 C   0  0  0  0  0  0
  -18.1901  -26.7900   22.1596 C   0  0  0  0  0  0
  -19.1476  -28.8842   23.2878 C   0  0  0  0  0  0
  -18.9419  -30.1463   23.8855 C   0  0  0  0  0  0
  -17.6427  -30.6600   24.0538 C   0  0  0  0  0  0
  -25.9077  -34.9470   23.5128 C   0  0  0  0  0  0
  -16.5320  -29.9090   23.6349 C   0  0  0  0  0  0
  -16.7227  -28.6484   23.0406 C   0  0  0  0  0  0
  -26.4439  -31.6594   25.0685 C   0  0  0  0  0  0
  -25.3685  -31.3685   26.1405 C   0  0  0  0  0  0
  -27.0324  -30.3043   24.6107 C   0  0  0  0  0  0
  -27.6008  -32.4327   25.7431 C   0  0  0  0  0  0
  -27.5625  -37.1779   24.8450 C   0  0  0  0  0  0
  -21.4106  -29.3009   22.3763 N   0  0  0  0  0  0
  -26.4342  -37.3802   23.9401 N   0  0  0  0  0  0
  -24.6631  -31.0755   22.1041 N   0  0  0  0  0  0
  -23.4114  -28.8194   23.3131 O   0  0  0  0  0  0
  -28.3876  -26.6685   20.1060 O   0  0  0  0  0  0
  -26.5639  -34.8909   22.4694 O   0  0  0  0  0  0
  -23.5301  -32.1462   23.7466 O   0  0  0  0  0  0
  -28.2788  -20.2445   21.6219 C   0  0  0  0  0  0
  -27.7193  -18.9784   21.7995 C   0  0  0  0  0  0
  -29.2556  -20.3787   20.6215 C   0  0  0  0  0  0
  -29.0937  -18.1308   20.1715 C   0  0  0  0  0  0
  -25.2079  -19.0953   21.8965 C   0  0  0  0  0  0
  -31.3271  -21.8088   20.6614 C   0  0  0  0  0  0
  -29.8568  -21.7832   18.6203 C   0  0  0  0  0  0
  -29.9303  -17.4756   17.8792 C   0  0  0  0  0  0
  -28.4196  -16.0759   19.0318 C   0  0  0  0  0  0
  -31.2874  -16.8354   21.3818 C   0  0  0  0  0  0
  -32.1329  -16.4254   19.1302 C   0  0  0  0  0  0
  -26.4948  -18.8137   22.6878 C   0  0  0  0  0  0
  -29.1849  -24.3050   20.0709 C   0  0  0  0  0  0
  -29.0072  -22.9079   20.7242 C   0  0  0  0  0  0
  -28.2922  -25.3789   20.7442 C   0  0  0  0  0  0
  -29.8629  -21.7207   20.1697 C   0  0  0  0  0  0
  -29.6195  -16.9409   19.3299 C   0  0  0  0  0  0
  -30.8599  -16.1558   20.0385 C   0  0  0  0  0  0
  -28.1317  -17.9239   21.0768 N   0  0  0  0  0  0
  -29.6917  -19.2950   19.9641 N   0  0  0  0  0  0
  -31.3858  -12.3465   19.0779 H   0  0  0  0  0  0
  -30.1904  -11.4522   19.9933 H   0  0  0  0  0  0
  -29.6848  -11.5590   17.5122 H   0  0  0  0  0  0
  -29.5608  -13.2965   17.6154 H   0  0  0  0  0  0
  -27.8358  -11.1633   18.9378 H   0  0  0  0  0  0
  -27.2963  -12.3597   17.8038 H   0  0  0  0  0  0
  -27.3757  -14.0067   19.2410 H   0  0  0  0  0  0
  -28.7652  -12.4320   21.5079 H   0  0  0  0  0  0
  -28.4641  -14.1532   21.5606 H   0  0  0  0  0  0
  -25.2665   -9.5527   22.4770 H   0  0  0  0  0  0
  -23.9949   -7.4477   22.7451 H   0  0  0  0  0  0
  -21.0762   -8.8646   19.8914 H   0  0  0  0  0  0
  -22.3625  -10.9574   19.6187 H   0  0  0  0  0  0
  -21.1988   -7.6101   23.9577 H   0  0  0  0  0  0
  -21.1435   -6.0574   25.9006 H   0  0  0  0  0  0
  -22.0644   -2.7604   23.2913 H   0  0  0  0  0  0
  -22.4294  -11.9565   22.4629 H   0  0  0  0  0  0
  -21.1205  -13.0919   22.3022 H   0  0  0  0  0  0
  -24.6738  -15.8233   20.6410 H   0  0  0  0  0  0
  -26.2929  -15.6267   20.2192 H   0  0  0  0  0  0
  -26.7024  -32.5529   23.1091 H   0  0  0  0  0  0
  -25.0059  -33.9808   25.0462 H   0  0  0  0  0  0
  -22.6845  -31.3014   21.4170 H   0  0  0  0  0  0
  -23.3829  -35.9573   23.3260 H   0  0  0  0  0  0
  -24.3596  -36.8945   22.2053 H   0  0  0  0  0  0
  -23.7205  -37.6449   23.6679 H   0  0  0  0  0  0
  -26.0544  -31.5950   20.6155 H   0  0  0  0  0  0
  -26.8096  -30.8600   22.0064 H   0  0  0  0  0  0
  -28.0987  -29.0833   21.1707 H   0  0  0  0  0  0
  -26.0465  -25.9492   19.0402 H   0  0  0  0  0  0
  -23.9623  -27.2742   19.0679 H   0  0  0  0  0  0
  -23.6992  -30.5818   19.4105 H   0  0  0  0  0  0
  -22.7311  -29.2250   19.8895 H   0  0  0  0  0  0
  -25.1336  -36.1996   25.0834 H   0  0  0  0  0  0
  -20.9846  -28.3218   24.1493 H   0  0  0  0  0  0
  -20.5763  -26.2258   23.3572 H   0  0  0  0  0  0
  -21.6630  -26.7522   22.1185 H   0  0  0  0  0  0
  -19.6955  -25.6270   21.1270 H   0  0  0  0  0  0
  -19.6712  -27.3169   20.6733 H   0  0  0  0  0  0
  -17.4199  -26.6665   21.3962 H   0  0  0  0  0  0
  -18.0280  -26.0010   22.8961 H   0  0  0  0  0  0
  -19.7904  -30.7297   24.2185 H   0  0  0  0  0  0
  -17.4995  -31.6297   24.5093 H   0  0  0  0  0  0
  -15.5330  -30.3013   23.7690 H   0  0  0  0  0  0
  -15.8592  -28.0797   22.7199 H   0  0  0  0  0  0
  -24.5855  -30.7069   25.7672 H   0  0  0  0  0  0
  -24.8869  -32.2845   26.4849 H   0  0  0  0  0  0
  -25.7988  -30.8800   27.0154 H   0  0  0  0  0  0
  -26.2918  -29.6754   24.1162 H   0  0  0  0  0  0
  -27.4088  -29.7323   25.4592 H   0  0  0  0  0  0
  -27.8730  -30.4364   23.9290 H   0  0  0  0  0  0
  -27.2635  -33.3633   26.2006 H   0  0  0  0  0  0
  -28.3793  -32.6887   25.0233 H   0  0  0  0  0  0
  -28.0703  -31.8454   26.5328 H   0  0  0  0  0  0
  -28.2588  -38.0136   24.7642 H   0  0  0  0  0  0
  -28.1191  -36.2671   24.6171 H   0  0  0  0  0  0
  -27.2302  -37.1279   25.8831 H   0  0  0  0  0  0
  -20.9294  -29.8704   21.6941 H   0  0  0  0  0  0
  -26.0241  -38.2873   24.1441 H   0  0  0  0  0  0
  -27.8990  -21.0727   22.2012 H   0  0  0  0  0  0
  -24.3141  -18.9724   22.5086 H   0  0  0  0  0  0
  -25.1232  -18.4271   21.0402 H   0  0  0  0  0  0
  -25.2133  -20.1141   21.5052 H   0  0  0  0  0  0
  -31.9653  -21.1225   20.0973 H   0  0  0  0  0  0
  -31.4183  -21.5348   21.7162 H   0  0  0  0  0  0
  -31.7427  -22.8082   20.5306 H   0  0  0  0  0  0
  -30.3216  -20.9085   18.1594 H   0  0  0  0  0  0
  -30.4224  -22.6389   18.2568 H   0  0  0  0  0  0
  -28.8398  -21.8428   18.2301 H   0  0  0  0  0  0
  -29.0612  -17.9556   17.4286 H   0  0  0  0  0  0
  -30.2158  -16.6839   17.1866 H   0  0  0  0  0  0
  -30.7099  -18.2391   17.8552 H   0  0  0  0  0  0
  -27.6120  -16.6131   18.5301 H   0  0  0  0  0  0
  -28.0204  -15.7327   19.9808 H   0  0  0  0  0  0
  -28.7084  -15.2483   18.3870 H   0  0  0  0  0  0
  -31.6580  -17.8466   21.1986 H   0  0  0  0  0  0
  -32.0949  -16.3123   21.8947 H   0  0  0  0  0  0
  -30.4703  -16.9099   22.0993 H   0  0  0  0  0  0
  -32.3464  -17.4864   19.0001 H   0  0  0  0  0  0
  -32.0545  -15.9633   18.1438 H   0  0  0  0  0  0
  -33.0713  -16.0595   19.5507 H   0  0  0  0  0  0
  -26.5747  -19.5140   23.5215 H   0  0  0  0  0  0
  -26.4706  -17.8200   23.1377 H   0  0  0  0  0  0
  -28.9222  -24.2509   19.0141 H   0  0  0  0  0  0
  -30.2331  -24.5944   20.1209 H   0  0  0  0  0  0
  -27.9529  -22.6579   20.5922 H   0  0  0  0  0  0
  -29.1644  -22.9785   21.8008 H   0  0  0  0  0  0
  -28.6068  -25.4962   21.7819 H   0  0  0  0  0  0
  -27.2657  -25.0095   20.7953 H   0  0  0  0  0  0
  1 25  1  0  0  0
  1 30  2  0  0  0
  1 88  1  0  0  0
  2  3  1  0  0  0
  2 25  1  0  0  0
  2 91  1  0  0  0
  2 92  1  0  0  0
  3  4  1  0  0  0
  3 93  1  0  0  0
  3 94  1  0  0  0
  4  5  1  0  0  0
  4 95  1  0  0  0
  4 96  1  0  0  0
  5  6  1  0  0  0
  5 26  1  0  0  0
  5 97  1  0  0  0
  6 25  1  0  0  0
  6 98  1  0  0  0
  6 99  1  0  0  0
  7  8  2  0  0  0
  7 26  1  0  0  0
  7 29  1  0  0  0
  8  9  1  0  0  0
  8 22  1  0  0  0
  9 10  1  0  0  0
  9 27  2  0  0  0
 10 11  2  0  0  0
 10 15  1  0  0  0
 11 12  1  0  0  0
 11100  1  0  0  0
 12 13  2  0  0  0
 12101  1  0  0  0
 13 14  1  0  0  0
 13 31  1  0  0  0
 14 15  2  0  0  0
 14102  1  0  0  0
 15103  1  0  0  0
 16 17  2  0  0  0
 16 21  1  0  0  0
 16 31  1  0  0  0
 17 18  1  0  0  0
 17104  1  0  0  0
 18 19  2  0  0  0
 18105  1  0  0  0
 19 20  1  0  0  0
 19 24  1  0  0  0
 20 21  2  0  0  0
 20106  1  0  0  0
 21 23  1  0  0  0
 22 28  1  0  0  0
 22 32  2  0  0  0
 26 27  1  0  0  0
 28107  1  0  0  0
 28108  1  0  0  0
 29109  1  0  0  0
 29110  1  0  0  0
 33 34  1  0  0  0
 33 66  1  0  0  0
 33 70  2  0  0  0
 34 36  1  0  0  0
 34 59  1  0  0  0
 34111  1  0  0  0
 35 44  2  0  0  0
 35 45  1  0  0  0
 35 68  1  0  0  0
 36 56  1  0  0  0
 36112  1  0  0  0
 37 39  1  0  0  0
 37 47  1  0  0  0
 37 66  1  0  0  0
 37113  1  0  0  0
 38 43  2  0  0  0
 38 46  1  0  0  0
 38 47  1  0  0  0
 39 64  1  0  0  0
 39 67  2  0  0  0
 40 52  1  0  0  0
 40 53  2  0  0  0
 40 58  1  0  0  0
 41114  1  0  0  0
 41115  1  0  0  0
 41116  1  0  0  0
 41 48  1  0  0  0
 42 43  1  0  0  0
 42 66  1  0  0  0
 42117  1  0  0  0
 42118  1  0  0  0
 43 44  1  0  0  0
 44119  1  0  0  0
 45 46  2  0  0  0
 45120  1  0  0  0
 46121  1  0  0  0
 47122  1  0  0  0
 47123  1  0  0  0
 48 56  1  0  0  0
 48 65  1  0  0  0
 48124  1  0  0  0
 49 50  1  0  0  0
 49 53  1  0  0  0
 49 64  1  0  0  0
 49125  1  0  0  0
 50 51  1  0  0  0
 50126  1  0  0  0
 50127  1  0  0  0
 51 52  1  0  0  0
 51128  1  0  0  0
 51129  1  0  0  0
 52130  1  0  0  0
 52131  1  0  0  0
 53 54  1  0  0  0
 54 55  2  0  0  0
 54132  1  0  0  0
 55 57  1  0  0  0
 55133  1  0  0  0
 56 69  2  0  0  0
 57 58  2  0  0  0
 57134  1  0  0  0
 58135  1  0  0  0
 59 60  1  0  0  0
 59 61  1  0  0  0
 59 62  1  0  0  0
 60136  1  0  0  0
 60137  1  0  0  0
 60138  1  0  0  0
 61139  1  0  0  0
 61140  1  0  0  0
 61141  1  0  0  0
 62142  1  0  0  0
 62143  1  0  0  0
 62144  1  0  0  0
 63 65  1  0  0  0
 63145  1  0  0  0
 63146  1  0  0  0
 63147  1  0  0  0
 64148  1  0  0  0
 65149  1  0  0  0
 68 85  1  0  0  0
 71 72  2  0  0  0
 71 73  1  0  0  0
 71150  1  0  0  0
 72 82  1  0  0  0
 72 89  1  0  0  0
 73 86  1  0  0  0
 73 90  2  0  0  0
 74 87  1  0  0  0
 74 89  2  0  0  0
 74 90  1  0  0  0
 75 82  1  0  0  0
 75151  1  0  0  0
 75152  1  0  0  0
 75153  1  0  0  0
 76154  1  0  0  0
 76155  1  0  0  0
 76156  1  0  0  0
 76 86  1  0  0  0
 77 86  1  0  0  0
 77157  1  0  0  0
 77158  1  0  0  0
 77159  1  0  0  0
 78160  1  0  0  0
 78161  1  0  0  0
 78162  1  0  0  0
 78 87  1  0  0  0
 79 87  1  0  0  0
 79163  1  0  0  0
 79164  1  0  0  0
 79165  1  0  0  0
 80166  1  0  0  0
 80167  1  0  0  0
 80168  1  0  0  0
 80 88  1  0  0  0
 81 88  1  0  0  0
 81169  1  0  0  0
 81170  1  0  0  0
 81171  1  0  0  0
 82172  1  0  0  0
 82173  1  0  0  0
 83 84  1  0  0  0
 83 85  1  0  0  0
 83174  1  0  0  0
 83175  1  0  0  0
 84 86  1  0  0  0
 84176  1  0  0  0
 84177  1  0  0  0
 85178  1  0  0  0
 85179  1  0  0  0
 87 88  1  0  0  0
M  ISO  4   1 100  68 101  85 101  88 100
M  END
> <chiral flag>
0

> <version>
0

> <s_m_source_file>
/data/baiqing/PycharmProjects/Reinvent-master-3.2/result/LINK_invent/BTK/process_docking_weight1_custom_sum_contain_oxygen_bond_distance_aromatic_linkinvent_7_9_3/rearranged_h_0073.sdf

> <i_m_source_file_index>
34

> <r_mmod_Potential_Energy-OPLS-2005>
-115.582595825195

> <r_mmod_Stretch_Energy-OPLS-2005>
71.3822326660156

> <r_mmod_Bend_Energy-OPLS-2005>
222.226760864258

> <r_mmod_Torsional_Energy-OPLS-2005>
232.992630004883

> <r_mmod_Improper_Torsional_Energy-OPLS-2005>
7.56583404541016

> <r_mmod_Van_der_Waal_Energy-OPLS-2005>
242.854873657227

> <r_mmod_Electrostatic_Energy-OPLS-2005>
-839.282104492188

> <r_mmod_Solvation_Energy-OPLS-2005>
-172.39372253418

> <b_mmod_Minimization_Converged-OPLS-2005>
0

> <r_mmod_RMS_Derivative-OPLS-2005>
7.61550378799438

$$$$
34
                    3D
 Structure written by MMmdl.
166174  0  0  1  0            999 V2000
  -30.6901  -14.5190   20.5553 C   0  0  0  0  0  0
  -30.4269  -12.3368   19.4214 C   0  0  0  0  0  0
  -29.4978  -12.5089   18.2028 C   0  0  0  0  0  0
  -28.0195  -12.3616   18.6136 C   0  0  0  0  0  0
  -27.6571  -13.2118   19.8616 C   0  0  2  0  0  0
  -28.7008  -13.0225   20.9842 C   0  0  0  0  0  0
  -25.2562  -13.8173   20.5650 C   0  0  0  0  0  0
  -24.1824  -13.0449   20.9171 C   0  0  0  0  0  0
  -24.6391  -11.6924   20.8718 C   0  0  0  0  0  0
  -23.9051  -10.4313   21.0409 C   0  0  0  0  0  0
  -24.3621   -9.4221   21.9178 C   0  0  0  0  0  0
  -23.6308   -8.2250   22.0748 C   0  0  0  0  0  0
  -22.4285   -8.0284   21.3541 C   0  0  0  0  0  0
  -21.9905   -9.0253   20.4641 C   0  0  0  0  0  0
  -22.7228  -10.2138   20.3052 C   0  0  0  0  0  0
  -21.6852   -6.0747   22.5288 C   0  0  0  0  0  0
  -21.4011   -6.5642   23.8221 C   0  0  0  0  0  0
  -21.3662   -5.6786   24.9178 C   0  0  0  0  0  0
  -21.6044   -4.3056   24.7221 C   0  0  0  0  0  0
  -21.8821   -3.8153   23.4341 C   0  0  0  0  0  0
  -21.9194   -4.6973   22.3405 C   0  0  0  0  0  0
  -22.7840  -13.5252   21.1834 C   0  0  0  0  0  0
  -22.1661   -4.2163   21.0982 F   0  0  0  0  0  0
  -21.5638   -3.4536   25.7732 F   0  0  0  0  0  0
  -30.0247  -13.3373   20.4241 N   0  0  0  0  0  0
  -26.3004  -12.9353   20.3290 N   0  0  0  0  0  0
  -25.9316  -11.6514   20.5710 N   0  0  0  0  0  0
  -22.0469  -12.8257   22.0388 N   0  0  0  0  0  0
  -25.4256  -15.1892   20.4069 N   0  0  0  0  0  0
  -31.8356  -14.6851   20.1283 O   0  0  0  0  0  0
  -21.6640   -6.8888   21.4251 O   0  0  0  0  0  0
  -22.3533  -14.5565   20.6684 O   0  0  0  0  0  0
  -24.6187  -31.8660   23.2057 C   0  0  0  0  0  0
  -25.9066  -32.4813   23.8365 C   0  0  1  0  0  0
  -27.2194  -27.3832   20.1041 C   0  0  0  0  0  0
  -25.5909  -33.8610   24.2302 N   0  0  0  0  0  0
  -23.4094  -30.4904   21.5466 C   0  0  2  0  0  0
  -24.8556  -28.9554   20.1099 C   0  0  0  0  0  0
  -22.7450  -29.4643   22.4940 C   0  0  0  0  0  0
  -18.0288  -28.1397   22.8494 C   0  0  0  0  0  0
  -24.1486  -36.7290   23.2638 C   0  0  0  0  0  0
  -25.9457  -30.8168   21.3682 C   0  0  0  0  0  0
  -26.0216  -29.4491   20.7105 C   0  0  0  0  0  0
  -27.2096  -28.6709   20.7031 C   0  0  0  0  0  0
  -26.0408  -26.9360   19.4676 C   0  0  0  0  0  0
  -24.8615  -27.6989   19.4843 C   0  0  0  0  0  0
  -23.6213  -29.8264   20.1608 C   0  0  0  0  0  0
  -25.4114  -36.3100   24.0333 C   0  0  1  0  0  0
  -20.5884  -28.3684   23.1308 C   0  0  2  0  0  0
  -20.6773  -26.9413   22.5420 C   0  0  0  0  0  0
  -19.5743  -26.6401   21.5225 C   0  0  0  0  0  0
  -18.1928  -26.7942   22.1640 C   0  0  0  0  0  0
  -19.1541  -28.8860   23.2896 C   0  0  0  0  0  0
  -18.9464  -30.1469   23.8903 C   0  0  0  0  0  0
  -17.6463  -30.6600   24.0582 C   0  0  0  0  0  0
  -25.9047  -34.9473   23.5119 C   0  0  0  0  0  0
  -16.5353  -29.9099   23.6344 C   0  0  0  0  0  0
  -16.7276  -28.6521   23.0357 C   0  0  0  0  0  0
  -26.4483  -31.6601   25.0707 C   0  0  0  0  0  0
  -25.3732  -31.3737   26.1442 C   0  0  0  0  0  0
  -27.0328  -30.3036   24.6118 C   0  0  0  0  0  0
  -27.6057  -32.4329   25.7471 C   0  0  0  0  0  0
  -27.5583  -37.1805   24.8471 C   0  0  0  0  0  0
  -21.4171  -29.3035   22.3694 N   0  0  0  0  0  0
  -26.4297  -37.3793   23.9411 N   0  0  0  0  0  0
  -24.6767  -31.0733   22.0973 N   0  0  0  0  0  0
  -23.4210  -28.8181   23.2992 O   0  0  0  0  0  0
  -28.3354  -26.5565   20.1347 O   0  0  0  0  0  0
  -26.5619  -34.8924   22.4682 O   0  0  0  0  0  0
  -23.5368  -32.1408   23.7434 O   0  0  0  0  0  0
  -30.7165  -24.1945   21.8335 C   0  0  0  0  0  0
  -31.4425  -23.3477   22.6252 C   0  0  0  0  0  0
  -30.1459  -22.1080   21.2737 C   0  0  0  0  0  0
  -32.4475  -23.6153   23.6971 C   0  0  0  0  0  0
  -30.0438  -18.0028   19.1087 C   0  0  0  0  0  0
  -28.1900  -17.9647   20.7950 C   0  0  0  0  0  0
  -29.5733  -20.8364   20.6463 C   0  0  0  0  0  0
  -30.1963  -19.4882   21.1852 C   0  0  0  0  0  0
  -28.9231  -24.0154   20.0834 C   0  0  0  0  0  0
  -30.4454  -16.9250   21.3615 C   0  0  0  0  0  0
  -28.0895  -25.2158   20.6641 C   0  0  0  0  0  0
  -29.7127  -18.1006   20.6098 C   0  0  0  0  0  0
  -29.8913  -23.4293   21.0469 N   0  0  0  0  0  0
  -31.0682  -22.0855   22.2486 N   0  3  0  0  0  0
  -29.9743  -15.5497   21.0605 N   0  0  0  0  0  0
  -31.4704  -12.4434   19.1216 H   0  0  0  0  0  0
  -30.3378  -11.3320   19.8364 H   0  0  0  0  0  0
  -29.7471  -11.7769   17.4331 H   0  0  0  0  0  0
  -29.6559  -13.4902   17.7528 H   0  0  0  0  0  0
  -27.8363  -11.3061   18.8162 H   0  0  0  0  0  0
  -27.3725  -12.6245   17.7761 H   0  0  0  0  0  0
  -27.6911  -14.2547   19.5462 H   0  0  0  0  0  0
  -28.6877  -11.9941   21.3483 H   0  0  0  0  0  0
  -28.4563  -13.6418   21.8477 H   0  0  0  0  0  0
  -25.2775   -9.5716   22.4728 H   0  0  0  0  0  0
  -24.0030   -7.4648   22.7467 H   0  0  0  0  0  0
  -21.0835   -8.8781   19.8943 H   0  0  0  0  0  0
  -22.3700  -10.9676   19.6155 H   0  0  0  0  0  0
  -21.1991   -7.6147   23.9739 H   0  0  0  0  0  0
  -21.1479   -6.0506   25.9085 H   0  0  0  0  0  0
  -22.0593   -2.7616   23.2832 H   0  0  0  0  0  0
  -22.4088  -11.9946   22.4822 H   0  0  0  0  0  0
  -21.1084  -13.1293   22.2577 H   0  0  0  0  0  0
  -24.6572  -15.8420   20.5113 H   0  0  0  0  0  0
  -26.2742  -15.6263   20.0729 H   0  0  0  0  0  0
  -26.7133  -32.5519   23.1122 H   0  0  0  0  0  0
  -25.0049  -33.9754   25.0437 H   0  0  0  0  0  0
  -22.6988  -31.3078   21.4065 H   0  0  0  0  0  0
  -23.3755  -35.9618   23.3314 H   0  0  0  0  0  0
  -24.3563  -36.8887   22.2047 H   0  0  0  0  0  0
  -23.7231  -37.6494   23.6640 H   0  0  0  0  0  0
  -26.0713  -31.5849   20.6036 H   0  0  0  0  0  0
  -26.8294  -30.8673   21.9926 H   0  0  0  0  0  0
  -28.1065  -29.0386   21.1813 H   0  0  0  0  0  0
  -26.0230  -25.9825   18.9586 H   0  0  0  0  0  0
  -23.9670  -27.3192   19.0104 H   0  0  0  0  0  0
  -23.7360  -30.6016   19.4028 H   0  0  0  0  0  0
  -22.7451  -29.2487   19.8610 H   0  0  0  0  0  0
  -25.1300  -36.1955   25.0830 H   0  0  0  0  0  0
  -21.0000  -28.3262   24.1418 H   0  0  0  0  0  0
  -20.5706  -26.2293   23.3613 H   0  0  0  0  0  0
  -21.6644  -26.7460   22.1204 H   0  0  0  0  0  0
  -19.6895  -25.6315   21.1248 H   0  0  0  0  0  0
  -19.6683  -27.3221   20.6759 H   0  0  0  0  0  0
  -17.4207  -26.6710   21.4031 H   0  0  0  0  0  0
  -18.0311  -26.0085   22.9036 H   0  0  0  0  0  0
  -19.7936  -30.7301   24.2263 H   0  0  0  0  0  0
  -17.5016  -31.6277   24.5191 H   0  0  0  0  0  0
  -15.5356  -30.3014   23.7654 H   0  0  0  0  0  0
  -15.8677  -28.0852   22.7054 H   0  0  0  0  0  0
  -24.5889  -30.7107   25.7765 H   0  0  0  0  0  0
  -24.8943  -32.2914   26.4874 H   0  0  0  0  0  0
  -25.8061  -30.8902   27.0206 H   0  0  0  0  0  0
  -26.2885  -29.6781   24.1178 H   0  0  0  0  0  0
  -27.4090  -29.7296   25.4598 H   0  0  0  0  0  0
  -27.8725  -30.4344   23.9287 H   0  0  0  0  0  0
  -27.2675  -33.3625   26.2063 H   0  0  0  0  0  0
  -28.3862  -32.6901   25.0297 H   0  0  0  0  0  0
  -28.0733  -31.8445   26.5373 H   0  0  0  0  0  0
  -28.2633  -38.0080   24.7533 H   0  0  0  0  0  0
  -28.1060  -36.2619   24.6303 H   0  0  0  0  0  0
  -27.2303  -37.1466   25.8877 H   0  0  0  0  0  0
  -20.9335  -29.8760   21.6915 H   0  0  0  0  0  0
  -26.0181  -38.2868   24.1415 H   0  0  0  0  0  0
  -30.7104  -25.2771   21.7927 H   0  0  0  0  0  0
  -32.0725  -23.2769   24.6627 H   0  0  0  0  0  0
  -32.6566  -24.6832   23.7672 H   0  0  0  0  0  0
  -33.3816  -23.0963   23.4834 H   0  0  0  0  0  0
  -29.5216  -18.7639   18.5294 H   0  0  0  0  0  0
  -29.7538  -17.0342   18.6994 H   0  0  0  0  0  0
  -31.1125  -18.1219   18.9261 H   0  0  0  0  0  0
  -27.6523  -18.7310   20.2369 H   0  0  0  0  0  0
  -27.9053  -18.0608   21.8428 H   0  0  0  0  0  0
  -27.8184  -17.0034   20.4400 H   0  0  0  0  0  0
  -29.7242  -20.9315   19.5714 H   0  0  0  0  0  0
  -28.5000  -20.8668   20.8267 H   0  0  0  0  0  0
  -30.0349  -19.4645   22.2640 H   0  0  0  0  0  0
  -31.2781  -19.5405   21.0577 H   0  0  0  0  0  0
  -29.4729  -24.3116   19.1901 H   0  0  0  0  0  0
  -28.2454  -23.2167   19.7798 H   0  0  0  0  0  0
  -30.3247  -17.0606   22.4381 H   0  0  0  0  0  0
  -31.5204  -17.0010   21.1868 H   0  0  0  0  0  0
  -28.2320  -25.2751   21.7432 H   0  0  0  0  0  0
  -27.0441  -24.9234   20.5804 H   0  0  0  0  0  0
  -31.4393  -21.2344   22.6529 H   0  0  0  0  0  0
  -29.0229  -15.3340   21.3153 H   0  0  0  0  0  0
  1 25  1  0  0  0
  1 30  2  0  0  0
  1 85  1  0  0  0
  2  3  1  0  0  0
  2 25  1  0  0  0
  2 86  1  0  0  0
  2 87  1  0  0  0
  3  4  1  0  0  0
  3 88  1  0  0  0
  3 89  1  0  0  0
  4  5  1  0  0  0
  4 90  1  0  0  0
  4 91  1  0  0  0
  5  6  1  0  0  0
  5 26  1  0  0  0
  5 92  1  0  0  0
  6 25  1  0  0  0
  6 93  1  0  0  0
  6 94  1  0  0  0
  7  8  2  0  0  0
  7 26  1  0  0  0
  7 29  1  0  0  0
  8  9  1  0  0  0
  8 22  1  0  0  0
  9 10  1  0  0  0
  9 27  2  0  0  0
 10 11  2  0  0  0
 10 15  1  0  0  0
 11 12  1  0  0  0
 11 95  1  0  0  0
 12 13  2  0  0  0
 12 96  1  0  0  0
 13 14  1  0  0  0
 13 31  1  0  0  0
 14 15  2  0  0  0
 14 97  1  0  0  0
 15 98  1  0  0  0
 16 17  2  0  0  0
 16 21  1  0  0  0
 16 31  1  0  0  0
 17 18  1  0  0  0
 17 99  1  0  0  0
 18 19  2  0  0  0
 18100  1  0  0  0
 19 20  1  0  0  0
 19 24  1  0  0  0
 20 21  2  0  0  0
 20101  1  0  0  0
 21 23  1  0  0  0
 22 28  1  0  0  0
 22 32  2  0  0  0
 26 27  1  0  0  0
 28102  1  0  0  0
 28103  1  0  0  0
 29104  1  0  0  0
 29105  1  0  0  0
 33 34  1  0  0  0
 33 66  1  0  0  0
 33 70  2  0  0  0
 34 36  1  0  0  0
 34 59  1  0  0  0
 34106  1  0  0  0
 35 44  2  0  0  0
 35 45  1  0  0  0
 35 68  1  0  0  0
 36 56  1  0  0  0
 36107  1  0  0  0
 37 39  1  0  0  0
 37 47  1  0  0  0
 37 66  1  0  0  0
 37108  1  0  0  0
 38 43  2  0  0  0
 38 46  1  0  0  0
 38 47  1  0  0  0
 39 64  1  0  0  0
 39 67  2  0  0  0
 40 52  1  0  0  0
 40 53  2  0  0  0
 40 58  1  0  0  0
 41109  1  0  0  0
 41110  1  0  0  0
 41111  1  0  0  0
 41 48  1  0  0  0
 42 43  1  0  0  0
 42 66  1  0  0  0
 42112  1  0  0  0
 42113  1  0  0  0
 43 44  1  0  0  0
 44114  1  0  0  0
 45 46  2  0  0  0
 45115  1  0  0  0
 46116  1  0  0  0
 47117  1  0  0  0
 47118  1  0  0  0
 48 56  1  0  0  0
 48 65  1  0  0  0
 48119  1  0  0  0
 49 50  1  0  0  0
 49 53  1  0  0  0
 49 64  1  0  0  0
 49120  1  0  0  0
 50 51  1  0  0  0
 50121  1  0  0  0
 50122  1  0  0  0
 51 52  1  0  0  0
 51123  1  0  0  0
 51124  1  0  0  0
 52125  1  0  0  0
 52126  1  0  0  0
 53 54  1  0  0  0
 54 55  2  0  0  0
 54127  1  0  0  0
 55 57  1  0  0  0
 55128  1  0  0  0
 56 69  2  0  0  0
 57 58  2  0  0  0
 57129  1  0  0  0
 58130  1  0  0  0
 59 60  1  0  0  0
 59 61  1  0  0  0
 59 62  1  0  0  0
 60131  1  0  0  0
 60132  1  0  0  0
 60133  1  0  0  0
 61134  1  0  0  0
 61135  1  0  0  0
 61136  1  0  0  0
 62137  1  0  0  0
 62138  1  0  0  0
 62139  1  0  0  0
 63 65  1  0  0  0
 63140  1  0  0  0
 63141  1  0  0  0
 63142  1  0  0  0
 64143  1  0  0  0
 65144  1  0  0  0
 68 81  1  0  0  0
 71 72  2  0  0  0
 71 83  1  0  0  0
 71145  1  0  0  0
 72 74  1  0  0  0
 72 84  1  0  0  0
 73 77  1  0  0  0
 73 83  1  0  0  0
 73 84  2  0  0  0
 74146  1  0  0  0
 74147  1  0  0  0
 74148  1  0  0  0
 75149  1  0  0  0
 75150  1  0  0  0
 75151  1  0  0  0
 75 82  1  0  0  0
 76 82  1  0  0  0
 76152  1  0  0  0
 76153  1  0  0  0
 76154  1  0  0  0
 77 78  1  0  0  0
 77155  1  0  0  0
 77156  1  0  0  0
 78 82  1  0  0  0
 78157  1  0  0  0
 78158  1  0  0  0
 79 81  1  0  0  0
 79 83  1  0  0  0
 79159  1  0  0  0
 79160  1  0  0  0
 80 82  1  0  0  0
 80 85  1  0  0  0
 80161  1  0  0  0
 80162  1  0  0  0
 81163  1  0  0  0
 81164  1  0  0  0
 84165  1  0  0  0
 85166  1  0  0  0
M  CHG  1  84   1
M  ISO  4   1 100  68 101  81 101  85 100
M  END
> <chiral flag>
0

> <version>
0

> <s_m_source_file>
/data/baiqing/PycharmProjects/Reinvent-master-3.2/result/LINK_invent/BTK/process_docking_weight1_custom_sum_contain_oxygen_bond_distance_aromatic_linkinvent_7_9_3/rearranged_h_0073.sdf

> <i_m_source_file_index>
35

> <r_mmod_Potential_Energy-OPLS-2005>
-100.236724853516

> <r_mmod_Stretch_Energy-OPLS-2005>
53.4516181945801

> <r_mmod_Bend_Energy-OPLS-2005>
117.137275695801

> <r_mmod_Torsional_Energy-OPLS-2005>
254.28076171875

> <r_mmod_Improper_Torsional_Energy-OPLS-2005>
3.03113651275635

> <r_mmod_Van_der_Waal_Energy-OPLS-2005>
126.322021484375

> <r_mmod_Electrostatic_Energy-OPLS-2005>
-272.139343261719

> <r_mmod_Solvation_Energy-OPLS-2005>
-406.106872558594

> <b_mmod_Minimization_Converged-OPLS-2005>
0

> <r_mmod_RMS_Derivative-OPLS-2005>
2.46665453910828

$$$$
35
                    3D
 Structure written by MMmdl.
166174  0  0  1  0            999 V2000
  -28.9196  -16.3360   20.7155 C   0  0  0  0  0  0
  -30.0711  -13.8266   19.7339 C   0  0  0  0  0  0
  -29.5004  -12.9602   18.5275 C   0  0  0  0  0  0
  -28.1588  -12.3156   18.8800 C   0  0  0  0  0  0
  -27.4411  -13.2848   19.8283 C   0  0  2  0  0  0
  -28.2320  -13.7350   21.0561 C   0  0  0  0  0  0
  -25.1518  -13.8085   20.5585 C   0  0  0  0  0  0
  -24.1096  -13.0236   20.9293 C   0  0  0  0  0  0
  -24.5861  -11.6769   20.8775 C   0  0  0  0  0  0
  -23.8786  -10.4170   21.0483 C   0  0  0  0  0  0
  -24.3500   -9.4145   21.9213 C   0  0  0  0  0  0
  -23.6242   -8.2156   22.0768 C   0  0  0  0  0  0
  -22.4220   -8.0189   21.3551 C   0  0  0  0  0  0
  -21.9788   -9.0123   20.4654 C   0  0  0  0  0  0
  -22.7043  -10.2012   20.3080 C   0  0  0  0  0  0
  -21.6822   -6.0703   22.5301 C   0  0  0  0  0  0
  -21.3984   -6.5623   23.8228 C   0  0  0  0  0  0
  -21.3637   -5.6777   24.9186 C   0  0  0  0  0  0
  -21.6040   -4.3043   24.7230 C   0  0  0  0  0  0
  -21.8833   -3.8135   23.4353 C   0  0  0  0  0  0
  -21.9195   -4.6947   22.3414 C   0  0  0  0  0  0
  -22.7256  -13.5080   21.2025 C   0  0  0  0  0  0
  -22.1674   -4.2144   21.0990 F   0  0  0  0  0  0
  -21.5623   -3.4535   25.7743 F   0  0  0  0  0  0
  -29.0316  -14.8020   20.4934 N   0  0  0  0  0  0
  -26.1597  -12.9186   20.2750 N   0  0  0  0  0  0
  -25.8658  -11.6328   20.5473 N   0  0  0  0  0  0
  -21.9996  -12.8096   22.0645 N   0  0  0  0  0  0
  -25.3160  -15.1873   20.4235 N   0  0  0  0  0  0
  -30.1910  -16.4723   20.5123 O   0  0  0  0  0  0
  -21.6596   -6.8802   21.4248 O   0  0  0  0  0  0
  -22.3011  -14.5392   20.6859 O   0  0  0  0  0  0
  -24.6806  -31.9276   23.2129 C   0  0  0  0  0  0
  -25.9585  -32.5134   23.8571 C   0  0  1  0  0  0
  -27.1056  -27.3826   20.1255 C   0  0  0  0  0  0
  -25.6320  -33.8843   24.2521 N   0  0  0  0  0  0
  -23.5063  -30.5615   21.5970 C   0  0  2  0  0  0
  -24.8591  -29.0529   20.0737 C   0  0  0  0  0  0
  -23.0637  -29.4855   22.5818 C   0  0  0  0  0  0
  -18.5384  -27.1402   23.2463 C   0  0  0  0  0  0
  -24.1494  -36.7371   23.2614 C   0  0  0  0  0  0
  -26.0145  -30.8654   21.3712 C   0  0  0  0  0  0
  -26.0422  -29.5085   20.6789 C   0  0  0  0  0  0
  -27.1937  -28.6830   20.6825 C   0  0  0  0  0  0
  -25.9734  -27.0292   19.3725 C   0  0  0  0  0  0
  -24.8287  -27.8303   19.3893 C   0  0  0  0  0  0
  -23.6494  -29.9438   20.1796 C   0  0  0  0  0  0
  -25.4115  -36.3216   24.0328 C   0  0  1  0  0  0
  -21.2941  -27.9374   22.5794 C   0  0  2  0  0  0
  -21.7500  -26.7703   20.9285 C   0  0  0  0  0  0
  -20.0869  -25.1269   20.7149 C   0  0  0  0  0  0
  -18.8074  -25.4730   22.3974 C   0  0  0  0  0  0
  -19.6997  -28.1449   23.4124 C   0  0  0  0  0  0
  -19.3209  -29.5198   23.8283 C   0  0  0  0  0  0
  -18.0004  -30.0522   23.9389 C   0  0  0  0  0  0
  -25.9138  -34.9645   23.5138 C   0  0  0  0  0  0
  -16.9382  -29.2040   23.6073 C   0  0  0  0  0  0
  -17.2187  -27.8276   23.2710 C   0  0  0  0  0  0
  -26.4708  -31.6723   25.0862 C   0  0  0  0  0  0
  -25.3857  -31.3836   26.1489 C   0  0  0  0  0  0
  -27.0504  -30.3155   24.6203 C   0  0  0  0  0  0
  -27.6276  -32.4340   25.7731 C   0  0  0  0  0  0
  -27.5581  -37.1873   24.8460 C   0  0  0  0  0  0
  -21.7938  -29.2571   22.5505 N   0  0  0  0  0  0
  -26.4272  -37.3915   23.9442 N   0  0  0  0  0  0
  -24.7571  -31.1603   22.0933 N   0  0  0  0  0  0
  -23.8029  -28.8095   23.2861 O   0  0  0  0  0  0
  -27.9584  -26.3671   20.4856 O   0  0  0  0  0  0
  -26.5569  -34.9075   22.4613 O   0  0  0  0  0  0
  -23.5925  -32.1895   23.7530 O   0  0  0  0  0  0
  -22.9122  -25.1943   22.9060 C   0  0  0  0  0  0
  -21.4775  -25.1801   22.4855 C   0  0  0  0  0  0
  -23.5488  -22.8380   22.0908 C   0  0  0  0  0  0
  -19.6148  -27.2001   21.1288 C   0  0  0  0  0  0
  -23.6794  -19.8308   22.0951 C   0  0  0  0  0  0
  -26.0238  -26.6165   22.8694 C   0  0  0  0  0  0
  -27.7655  -24.9505   23.4164 C   0  0  0  0  0  0
  -25.4547  -24.1279   22.9274 C   0  0  0  0  0  0
  -26.5115  -19.4166   21.1197 C   0  0  0  0  0  0
  -27.2165  -25.1815   21.0260 C   0  0  0  0  0  0
  -24.7710  -20.8821   21.8823 C   0  0  1  0  0  0
  -26.5530  -25.2309   22.4951 C   0  0  0  0  0  0
  -23.9510  -24.0966   22.5915 N   0  0  0  0  0  0
  -22.1009  -23.6069   22.0503 N   0  3  0  0  0  0
  -27.6390  -17.5852   21.0156 N   0  0  0  0  0  0
  -30.8745  -14.4425   19.3237 H   0  0  0  0  0  0
  -30.5872  -13.1883   20.4502 H   0  0  0  0  0  0
  -30.2296  -12.2133   18.2026 H   0  0  0  0  0  0
  -29.3527  -13.6228   17.6755 H   0  0  0  0  0  0
  -28.3270  -11.3611   19.3790 H   0  0  0  0  0  0
  -27.5676  -12.1147   17.9878 H   0  0  0  0  0  0
  -27.2464  -14.1395   19.1750 H   0  0  0  0  0  0
  -27.5924  -14.1894   21.8165 H   0  0  0  0  0  0
  -28.7712  -12.9340   21.5626 H   0  0  0  0  0  0
  -25.2655   -9.5690   22.4754 H   0  0  0  0  0  0
  -23.9986   -7.4566   22.7485 H   0  0  0  0  0  0
  -21.0724   -8.8630   19.8979 H   0  0  0  0  0  0
  -22.3510  -10.9561   19.6204 H   0  0  0  0  0  0
  -21.1966   -7.6134   23.9718 H   0  0  0  0  0  0
  -21.1434   -6.0512   25.9080 H   0  0  0  0  0  0
  -22.0631   -2.7607   23.2856 H   0  0  0  0  0  0
  -22.3678  -11.9765   22.4986 H   0  0  0  0  0  0
  -21.0633  -13.1130   22.2910 H   0  0  0  0  0  0
  -24.5504  -15.8241   20.6132 H   0  0  0  0  0  0
  -26.1549  -15.6717   20.1251 H   0  0  0  0  0  0
  -26.7755  -32.5798   23.1437 H   0  0  0  0  0  0
  -25.0419  -33.9947   25.0637 H   0  0  0  0  0  0
  -22.7420  -31.3409   21.5346 H   0  0  0  0  0  0
  -23.3778  -35.9681   23.3270 H   0  0  0  0  0  0
  -24.3599  -36.8982   22.2031 H   0  0  0  0  0  0
  -23.7218  -37.6567   23.6612 H   0  0  0  0  0  0
  -26.1678  -31.6429   20.6221 H   0  0  0  0  0  0
  -26.8935  -30.8776   22.0072 H   0  0  0  0  0  0
  -28.0869  -28.9833   21.2104 H   0  0  0  0  0  0
  -25.9209  -26.0862   18.8521 H   0  0  0  0  0  0
  -23.9294  -27.4991   18.8885 H   0  0  0  0  0  0
  -23.7731  -30.7528   19.4603 H   0  0  0  0  0  0
  -22.7412  -29.4251   19.8732 H   0  0  0  0  0  0
  -25.1271  -36.2049   25.0811 H   0  0  0  0  0  0
  -21.1160  -28.6605   21.7821 H   0  0  0  0  0  0
  -22.7918  -26.4358   20.8449 H   0  0  0  0  0  0
  -21.7921  -27.3822   20.0188 H   0  0  0  0  0  0
  -20.3661  -24.0862   20.5600 H   0  0  0  0  0  0
  -19.5469  -25.2418   19.7648 H   0  0  0  0  0  0
  -17.8162  -25.1128   22.1248 H   0  0  0  0  0  0
  -19.0928  -24.7948   23.2015 H   0  0  0  0  0  0
  -20.1028  -30.2463   23.9835 H   0  0  0  0  0  0
  -17.8282  -31.0876   24.2011 H   0  0  0  0  0  0
  -15.9206  -29.5718   23.6174 H   0  0  0  0  0  0
  -16.3586  -27.2289   22.9984 H   0  0  0  0  0  0
  -24.5972  -30.7333   25.7676 H   0  0  0  0  0  0
  -24.9180  -32.3027   26.5037 H   0  0  0  0  0  0
  -25.8118  -30.8838   27.0196 H   0  0  0  0  0  0
  -26.3225  -29.7169   24.0731 H   0  0  0  0  0  0
  -27.3749  -29.7108   25.4681 H   0  0  0  0  0  0
  -27.9240  -30.4494   23.9815 H   0  0  0  0  0  0
  -27.2999  -33.3765   26.2132 H   0  0  0  0  0  0
  -28.4275  -32.6668   25.0682 H   0  0  0  0  0  0
  -28.0695  -31.8495   26.5804 H   0  0  0  0  0  0
  -28.2575  -38.0194   24.7559 H   0  0  0  0  0  0
  -28.1100  -36.2735   24.6203 H   0  0  0  0  0  0
  -27.2323  -37.1436   25.8866 H   0  0  0  0  0  0
  -21.1979  -29.9484   22.1266 H   0  0  0  0  0  0
  -26.0153  -38.2970   24.1510 H   0  0  0  0  0  0
  -23.3581  -26.1053   23.2687 H   0  0  0  0  0  0
  -19.7819  -27.3456   20.0457 H   0  0  0  0  0  0
  -19.4179  -28.2737   21.2009 H   0  0  0  0  0  0
  -18.5758  -26.9670   20.8256 H   0  0  0  0  0  0
  -23.1603  -19.9847   23.0443 H   0  0  0  0  0  0
  -24.1092  -18.8270   22.1183 H   0  0  0  0  0  0
  -22.9430  -19.8659   21.2967 H   0  0  0  0  0  0
  -25.5220  -26.6087   23.8359 H   0  0  0  0  0  0
  -25.3183  -26.9755   22.1222 H   0  0  0  0  0  0
  -26.8449  -27.3284   22.9574 H   0  0  0  0  0  0
  -27.5592  -25.1642   24.4639 H   0  0  0  0  0  0
  -28.6306  -25.5468   23.1229 H   0  0  0  0  0  0
  -28.0721  -23.9016   23.3546 H   0  0  0  0  0  0
  -25.4537  -24.0934   24.0187 H   0  0  0  0  0  0
  -25.8694  -23.1644   22.6366 H   0  0  0  0  0  0
  -27.3607  -20.1017   21.1635 H   0  0  0  0  0  0
  -26.2442  -19.4376   20.0599 H   0  0  0  0  0  0
  -27.9482  -24.3705   21.0073 H   0  0  0  0  0  0
  -26.4844  -24.7808   20.3254 H   0  0  0  0  0  0
  -25.2227  -20.9828   22.8704 H   0  0  0  0  0  0
  -21.3866  -23.0234   21.6289 H   0  0  0  0  0  0
  -28.4501  -18.1533   21.2369 H   0  0  0  0  0  0
  1 25  1  0  0  0
  1 30  2  0  0  0
  1 85  1  0  0  0
  2  3  1  0  0  0
  2 25  1  0  0  0
  2 86  1  0  0  0
  2 87  1  0  0  0
  3  4  1  0  0  0
  3 88  1  0  0  0
  3 89  1  0  0  0
  4  5  1  0  0  0
  4 90  1  0  0  0
  4 91  1  0  0  0
  5  6  1  0  0  0
  5 26  1  0  0  0
  5 92  1  0  0  0
  6 25  1  0  0  0
  6 93  1  0  0  0
  6 94  1  0  0  0
  7  8  2  0  0  0
  7 26  1  0  0  0
  7 29  1  0  0  0
  8  9  1  0  0  0
  8 22  1  0  0  0
  9 10  1  0  0  0
  9 27  2  0  0  0
 10 11  2  0  0  0
 10 15  1  0  0  0
 11 12  1  0  0  0
 11 95  1  0  0  0
 12 13  2  0  0  0
 12 96  1  0  0  0
 13 14  1  0  0  0
 13 31  1  0  0  0
 14 15  2  0  0  0
 14 97  1  0  0  0
 15 98  1  0  0  0
 16 17  2  0  0  0
 16 21  1  0  0  0
 16 31  1  0  0  0
 17 18  1  0  0  0
 17 99  1  0  0  0
 18 19  2  0  0  0
 18100  1  0  0  0
 19 20  1  0  0  0
 19 24  1  0  0  0
 20 21  2  0  0  0
 20101  1  0  0  0
 21 23  1  0  0  0
 22 28  1  0  0  0
 22 32  2  0  0  0
 26 27  1  0  0  0
 28102  1  0  0  0
 28103  1  0  0  0
 29104  1  0  0  0
 29105  1  0  0  0
 33 34  1  0  0  0
 33 66  1  0  0  0
 33 70  2  0  0  0
 34 36  1  0  0  0
 34 59  1  0  0  0
 34106  1  0  0  0
 35 44  2  0  0  0
 35 45  1  0  0  0
 35 68  1  0  0  0
 36 56  1  0  0  0
 36107  1  0  0  0
 37 39  1  0  0  0
 37 47  1  0  0  0
 37 66  1  0  0  0
 37108  1  0  0  0
 38 43  2  0  0  0
 38 46  1  0  0  0
 38 47  1  0  0  0
 39 64  1  0  0  0
 39 67  2  0  0  0
 40 52  1  0  0  0
 40 53  2  0  0  0
 40 58  1  0  0  0
 41109  1  0  0  0
 41110  1  0  0  0
 41111  1  0  0  0
 41 48  1  0  0  0
 42 43  1  0  0  0
 42 66  1  0  0  0
 42112  1  0  0  0
 42113  1  0  0  0
 43 44  1  0  0  0
 44114  1  0  0  0
 45 46  2  0  0  0
 45115  1  0  0  0
 46116  1  0  0  0
 47117  1  0  0  0
 47118  1  0  0  0
 48 56  1  0  0  0
 48 65  1  0  0  0
 48119  1  0  0  0
 49 50  1  0  0  0
 49 53  1  0  0  0
 49 64  1  0  0  0
 49120  1  0  0  0
 50 51  1  0  0  0
 50121  1  0  0  0
 50122  1  0  0  0
 51 52  1  0  0  0
 51123  1  0  0  0
 51124  1  0  0  0
 52125  1  0  0  0
 52126  1  0  0  0
 53 54  1  0  0  0
 54 55  2  0  0  0
 54127  1  0  0  0
 55 57  1  0  0  0
 55128  1  0  0  0
 56 69  2  0  0  0
 57 58  2  0  0  0
 57129  1  0  0  0
 58130  1  0  0  0
 59 60  1  0  0  0
 59 61  1  0  0  0
 59 62  1  0  0  0
 60131  1  0  0  0
 60132  1  0  0  0
 60133  1  0  0  0
 61134  1  0  0  0
 61135  1  0  0  0
 61136  1  0  0  0
 62137  1  0  0  0
 62138  1  0  0  0
 62139  1  0  0  0
 63 65  1  0  0  0
 63140  1  0  0  0
 63141  1  0  0  0
 63142  1  0  0  0
 64143  1  0  0  0
 65144  1  0  0  0
 68 80  1  0  0  0
 71 72  2  0  0  0
 71 83  1  0  0  0
 71145  1  0  0  0
 72 74  1  0  0  0
 72 84  1  0  0  0
 73 81  1  0  0  0
 73 83  1  0  0  0
 73 84  2  0  0  0
 74146  1  0  0  0
 74147  1  0  0  0
 74148  1  0  0  0
 75149  1  0  0  0
 75150  1  0  0  0
 75151  1  0  0  0
 75 81  1  0  0  0
 76152  1  0  0  0
 76153  1  0  0  0
 76154  1  0  0  0
 76 82  1  0  0  0
 77 82  1  0  0  0
 77155  1  0  0  0
 77156  1  0  0  0
 77157  1  0  0  0
 78 82  1  0  0  0
 78 83  1  0  0  0
 78158  1  0  0  0
 78159  1  0  0  0
 79 81  1  0  0  0
 79 85  1  0  0  0
 79160  1  0  0  0
 79161  1  0  0  0
 80 82  1  0  0  0
 80162  1  0  0  0
 80163  1  0  0  0
 81164  1  0  0  0
 84165  1  0  0  0
 85166  1  0  0  0
M  CHG  1  84   1
M  ISO  4   1 100  68 101  80 101  85 100
M  END
> <chiral flag>
0

> <version>
0

> <s_m_source_file>
/data/baiqing/PycharmProjects/Reinvent-master-3.2/result/LINK_invent/BTK/process_docking_weight1_custom_sum_contain_oxygen_bond_distance_aromatic_linkinvent_7_9_3/rearranged_h_0073.sdf

> <i_m_source_file_index>
36

> <r_mmod_Potential_Energy-OPLS-2005>
16042.06640625

> <r_mmod_Stretch_Energy-OPLS-2005>
8598.158203125

> <r_mmod_Bend_Energy-OPLS-2005>
1915.44091796875

> <r_mmod_Torsional_Energy-OPLS-2005>
423.024169921875

> <r_mmod_Improper_Torsional_Energy-OPLS-2005>
36.5608901977539

> <r_mmod_Van_der_Waal_Energy-OPLS-2005>
1970.97888183594

> <r_mmod_Electrostatic_Energy-OPLS-2005>
-241.315399169922

> <r_mmod_Solvation_Energy-OPLS-2005>
-394.713500976562

> <b_mmod_Minimization_Converged-OPLS-2005>
0

> <r_mmod_RMS_Derivative-OPLS-2005>
11.6703128814697

$$$$
36
                    3D
 Structure written by MMmdl.
165173  0  0  1  0            999 V2000
  -30.6530  -14.6426   20.5527 C   0  0  0  0  0  0
  -30.4388  -12.4255   19.4266 C   0  0  0  0  0  0
  -29.4904  -12.5029   18.2110 C   0  0  0  0  0  0
  -28.0228  -12.3047   18.6440 C   0  0  0  0  0  0
  -27.6482  -13.1813   19.8639 C   0  0  2  0  0  0
  -28.7090  -13.0201   20.9797 C   0  0  0  0  0  0
  -25.2525  -13.8052   20.5644 C   0  0  0  0  0  0
  -24.1796  -13.0353   20.9223 C   0  0  0  0  0  0
  -24.6352  -11.6827   20.8805 C   0  0  0  0  0  0
  -23.9011  -10.4227   21.0446 C   0  0  0  0  0  0
  -24.3580   -9.4140   21.9213 C   0  0  0  0  0  0
  -23.6267   -8.2172   22.0760 C   0  0  0  0  0  0
  -22.4251   -8.0234   21.3545 C   0  0  0  0  0  0
  -21.9890   -9.0213   20.4656 C   0  0  0  0  0  0
  -22.7197  -10.2101   20.3073 C   0  0  0  0  0  0
  -21.6824   -6.0723   22.5273 C   0  0  0  0  0  0
  -21.3997   -6.5634   23.8215 C   0  0  0  0  0  0
  -21.3653   -5.6791   24.9183 C   0  0  0  0  0  0
  -21.6042   -4.3062   24.7233 C   0  0  0  0  0  0
  -21.8835   -3.8147   23.4357 C   0  0  0  0  0  0
  -21.9191   -4.6960   22.3407 C   0  0  0  0  0  0
  -22.7833  -13.5187   21.1879 C   0  0  0  0  0  0
  -22.1670   -4.2150   21.0983 F   0  0  0  0  0  0
  -21.5618   -3.4550   25.7743 F   0  0  0  0  0  0
  -29.9922  -13.4421   20.4081 N   0  0  0  0  0  0
  -26.2950  -12.9172   20.3376 N   0  0  0  0  0  0
  -25.9272  -11.6371   20.5866 N   0  0  0  0  0  0
  -22.0486  -12.8177   22.0446 N   0  0  0  0  0  0
  -25.4113  -15.1762   20.3903 N   0  0  0  0  0  0
  -31.8299  -14.7221   20.1847 O   0  0  0  0  0  0
  -21.6593   -6.8851   21.4224 O   0  0  0  0  0  0
  -22.3533  -14.5497   20.6727 O   0  0  0  0  0  0
  -24.6161  -31.8653   23.2032 C   0  0  0  0  0  0
  -25.9054  -32.4802   23.8347 C   0  0  1  0  0  0
  -27.2491  -27.3964   20.1319 C   0  0  0  0  0  0
  -25.5900  -33.8601   24.2283 N   0  0  0  0  0  0
  -23.4089  -30.4861   21.5439 C   0  0  2  0  0  0
  -24.8606  -28.9399   20.1132 C   0  0  0  0  0  0
  -22.7429  -29.4641   22.4958 C   0  0  0  0  0  0
  -18.0271  -28.1379   22.8462 C   0  0  0  0  0  0
  -24.1480  -36.7274   23.2636 C   0  0  0  0  0  0
  -25.9377  -30.8227   21.3591 C   0  0  0  0  0  0
  -26.0173  -29.4514   20.7123 C   0  0  0  0  0  0
  -27.2134  -28.6901   20.7094 C   0  0  0  0  0  0
  -26.0717  -26.9060   19.5181 C   0  0  0  0  0  0
  -24.8856  -27.6705   19.5062 C   0  0  0  0  0  0
  -23.6201  -29.8086   20.1617 C   0  0  0  0  0  0
  -25.4102  -36.3083   24.0328 C   0  0  1  0  0  0
  -20.5862  -28.3664   23.1279 C   0  0  2  0  0  0
  -20.6759  -26.9394   22.5413 C   0  0  0  0  0  0
  -19.5757  -26.6385   21.5185 C   0  0  0  0  0  0
  -18.1923  -26.7919   22.1586 C   0  0  0  0  0  0
  -19.1521  -28.8838   23.2861 C   0  0  0  0  0  0
  -18.9472  -30.1440   23.8874 C   0  0  0  0  0  0
  -17.6483  -30.6590   24.0558 C   0  0  0  0  0  0
  -25.9045  -34.9460   23.5107 C   0  0  0  0  0  0
  -16.5371  -29.9099   23.6327 C   0  0  0  0  0  0
  -16.7259  -28.6520   23.0326 C   0  0  0  0  0  0
  -26.4457  -31.6583   25.0688 C   0  0  0  0  0  0
  -25.3674  -31.3708   26.1406 C   0  0  0  0  0  0
  -27.0313  -30.3029   24.6070 C   0  0  0  0  0  0
  -27.6035  -32.4301   25.7432 C   0  0  0  0  0  0
  -27.5590  -37.1746   24.8442 C   0  0  0  0  0  0
  -21.4159  -29.3021   22.3675 N   0  0  0  0  0  0
  -26.4262  -37.3796   23.9448 N   0  0  0  0  0  0
  -24.6723  -31.0752   22.0938 N   0  0  0  0  0  0
  -23.4177  -28.8173   23.3011 O   0  0  0  0  0  0
  -28.4302  -26.6684   20.1900 O   0  0  0  0  0  0
  -26.5632  -34.8917   22.4685 O   0  0  0  0  0  0
  -23.5340  -32.1410   23.7413 O   0  0  0  0  0  0
  -29.9315  -22.4908   19.1810 C   0  0  0  0  0  0
  -30.0756  -21.1365   19.3446 C   0  0  0  0  0  0
  -29.7467  -23.0247   20.4910 C   0  0  0  0  0  0
  -30.6021  -24.5419   23.3347 C   0  0  0  0  0  0
  -30.9114  -25.2536   20.4636 C   0  0  0  0  0  0
  -28.5849  -16.1231   20.9304 C   0  0  0  0  0  0
  -29.3750  -24.7176   22.4136 C   0  0  0  0  0  0
  -30.6369  -18.3160   20.6656 C   0  0  0  0  0  0
  -30.0027  -19.5545   21.4043 C   0  0  0  0  0  0
  -30.7447  -16.9940   21.5304 C   0  0  0  0  0  0
  -28.4048  -25.2162   20.1236 C   0  0  0  0  0  0
  -29.6099  -24.5282   20.8788 C   0  0  2  0  0  0
  -29.7836  -22.0201   21.3850 N   0  0  0  0  0  0
  -29.9897  -20.8572   20.6930 N   0  0  0  0  0  0
  -30.0145  -15.7807   21.0342 N   0  0  0  0  0  0
  -31.4671  -12.5771   19.0963 H   0  0  0  0  0  0
  -30.4253  -11.4299   19.8729 H   0  0  0  0  0  0
  -29.7618  -11.7491   17.4685 H   0  0  0  0  0  0
  -29.5967  -13.4716   17.7208 H   0  0  0  0  0  0
  -27.8878  -11.2512   18.8967 H   0  0  0  0  0  0
  -27.3483  -12.5035   17.8091 H   0  0  0  0  0  0
  -27.6572  -14.1967   19.4836 H   0  0  0  0  0  0
  -28.7655  -11.9718   21.2772 H   0  0  0  0  0  0
  -28.4748  -13.5410   21.9048 H   0  0  0  0  0  0
  -25.2734   -9.5601   22.4779 H   0  0  0  0  0  0
  -23.9975   -7.4552   22.7474 H   0  0  0  0  0  0
  -21.0826   -8.8745   19.8950 H   0  0  0  0  0  0
  -22.3676  -10.9659   19.6183 H   0  0  0  0  0  0
  -21.1973   -7.6148   23.9714 H   0  0  0  0  0  0
  -21.1456   -6.0522   25.9082 H   0  0  0  0  0  0
  -22.0618   -2.7600   23.2852 H   0  0  0  0  0  0
  -22.4123  -11.9840   22.4813 H   0  0  0  0  0  0
  -21.1128  -13.1201   22.2713 H   0  0  0  0  0  0
  -24.6306  -15.8177   20.4813 H   0  0  0  0  0  0
  -26.2557  -15.6199   20.0548 H   0  0  0  0  0  0
  -26.7135  -32.5499   23.1121 H   0  0  0  0  0  0
  -25.0039  -33.9752   25.0425 H   0  0  0  0  0  0
  -22.6955  -31.2995   21.4005 H   0  0  0  0  0  0
  -23.3766  -35.9581   23.3276 H   0  0  0  0  0  0
  -24.3595  -36.8930   22.2058 H   0  0  0  0  0  0
  -23.7191  -37.6448   23.6676 H   0  0  0  0  0  0
  -26.0529  -31.5798   20.5824 H   0  0  0  0  0  0
  -26.8229  -30.8840   21.9780 H   0  0  0  0  0  0
  -28.1072  -29.0844   21.1745 H   0  0  0  0  0  0
  -26.0572  -25.9346   19.0451 H   0  0  0  0  0  0
  -23.9975  -27.2727   19.0341 H   0  0  0  0  0  0
  -23.7225  -30.5794   19.3977 H   0  0  0  0  0  0
  -22.7445  -29.2255   19.8724 H   0  0  0  0  0  0
  -25.1268  -36.1928   25.0813 H   0  0  0  0  0  0
  -20.9955  -28.3285   24.1391 H   0  0  0  0  0  0
  -20.5635  -26.2301   23.3629 H   0  0  0  0  0  0
  -21.6641  -26.7422   22.1228 H   0  0  0  0  0  0
  -19.6945  -25.6294   21.1210 H   0  0  0  0  0  0
  -19.6711  -27.3194   20.6705 H   0  0  0  0  0  0
  -17.4200  -26.6635   21.3980 H   0  0  0  0  0  0
  -18.0339  -26.0045   22.8961 H   0  0  0  0  0  0
  -19.7971  -30.7235   24.2232 H   0  0  0  0  0  0
  -17.5067  -31.6263   24.5196 H   0  0  0  0  0  0
  -15.5372  -30.3017   23.7693 H   0  0  0  0  0  0
  -15.8635  -28.0880   22.7018 H   0  0  0  0  0  0
  -24.5921  -30.6971   25.7748 H   0  0  0  0  0  0
  -24.8756  -32.2859   26.4706 H   0  0  0  0  0  0
  -25.7975  -30.9008   27.0257 H   0  0  0  0  0  0
  -26.2879  -29.6757   24.1131 H   0  0  0  0  0  0
  -27.4129  -29.7296   25.4530 H   0  0  0  0  0  0
  -27.8680  -30.4384   23.9203 H   0  0  0  0  0  0
  -27.2719  -33.3679   26.1891 H   0  0  0  0  0  0
  -28.3875  -32.6722   25.0242 H   0  0  0  0  0  0
  -28.0638  -31.8476   26.5414 H   0  0  0  0  0  0
  -28.2501  -38.0151   24.7677 H   0  0  0  0  0  0
  -28.1189  -36.2696   24.6035 H   0  0  0  0  0  0
  -27.2338  -37.1107   25.8843 H   0  0  0  0  0  0
  -20.9337  -29.8759   21.6894 H   0  0  0  0  0  0
  -26.0137  -38.2834   24.1608 H   0  0  0  0  0  0
  -29.9648  -23.0332   18.2459 H   0  0  0  0  0  0
  -30.2279  -20.3573   18.6093 H   0  0  0  0  0  0
  -30.2988  -24.5225   24.3825 H   0  0  0  0  0  0
  -31.3064  -25.3662   23.2258 H   0  0  0  0  0  0
  -31.1379  -23.6129   23.1325 H   0  0  0  0  0  0
  -31.7951  -24.7835   20.8949 H   0  0  0  0  0  0
  -30.9072  -26.2943   20.7928 H   0  0  0  0  0  0
  -31.0491  -25.2547   19.3814 H   0  0  0  0  0  0
  -28.3506  -17.0801   21.3975 H   0  0  0  0  0  0
  -27.9148  -15.4410   21.4345 H   0  0  0  0  0  0
  -28.2940  -16.2334   19.8856 H   0  0  0  0  0  0
  -28.9882  -25.7228   22.5971 H   0  0  0  0  0  0
  -28.5817  -24.0443   22.7418 H   0  0  0  0  0  0
  -31.6454  -18.5911   20.3536 H   0  0  0  0  0  0
  -30.0967  -18.1183   19.7397 H   0  0  0  0  0  0
  -30.5230  -19.7046   22.3512 H   0  0  0  0  0  0
  -28.9658  -19.3276   21.6588 H   0  0  0  0  0  0
  -31.7995  -16.7596   21.6859 H   0  0  0  0  0  0
  -30.3768  -17.1991   22.5373 H   0  0  0  0  0  0
  -27.4715  -24.8170   20.5238 H   0  0  0  0  0  0
  -28.4281  -24.9466   19.0676 H   0  0  0  0  0  0
  1 25  1  0  0  0
  1 30  2  0  0  0
  1 85  1  0  0  0
  2  3  1  0  0  0
  2 25  1  0  0  0
  2 86  1  0  0  0
  2 87  1  0  0  0
  3  4  1  0  0  0
  3 88  1  0  0  0
  3 89  1  0  0  0
  4  5  1  0  0  0
  4 90  1  0  0  0
  4 91  1  0  0  0
  5  6  1  0  0  0
  5 26  1  0  0  0
  5 92  1  0  0  0
  6 25  1  0  0  0
  6 93  1  0  0  0
  6 94  1  0  0  0
  7  8  2  0  0  0
  7 26  1  0  0  0
  7 29  1  0  0  0
  8  9  1  0  0  0
  8 22  1  0  0  0
  9 10  1  0  0  0
  9 27  2  0  0  0
 10 11  2  0  0  0
 10 15  1  0  0  0
 11 12  1  0  0  0
 11 95  1  0  0  0
 12 13  2  0  0  0
 12 96  1  0  0  0
 13 14  1  0  0  0
 13 31  1  0  0  0
 14 15  2  0  0  0
 14 97  1  0  0  0
 15 98  1  0  0  0
 16 17  2  0  0  0
 16 21  1  0  0  0
 16 31  1  0  0  0
 17 18  1  0  0  0
 17 99  1  0  0  0
 18 19  2  0  0  0
 18100  1  0  0  0
 19 20  1  0  0  0
 19 24  1  0  0  0
 20 21  2  0  0  0
 20101  1  0  0  0
 21 23  1  0  0  0
 22 28  1  0  0  0
 22 32  2  0  0  0
 26 27  1  0  0  0
 28102  1  0  0  0
 28103  1  0  0  0
 29104  1  0  0  0
 29105  1  0  0  0
 33 34  1  0  0  0
 33 66  1  0  0  0
 33 70  2  0  0  0
 34 36  1  0  0  0
 34 59  1  0  0  0
 34106  1  0  0  0
 35 44  2  0  0  0
 35 45  1  0  0  0
 35 68  1  0  0  0
 36 56  1  0  0  0
 36107  1  0  0  0
 37 39  1  0  0  0
 37 47  1  0  0  0
 37 66  1  0  0  0
 37108  1  0  0  0
 38 43  2  0  0  0
 38 46  1  0  0  0
 38 47  1  0  0  0
 39 64  1  0  0  0
 39 67  2  0  0  0
 40 52  1  0  0  0
 40 53  2  0  0  0
 40 58  1  0  0  0
 41109  1  0  0  0
 41110  1  0  0  0
 41111  1  0  0  0
 41 48  1  0  0  0
 42 43  1  0  0  0
 42 66  1  0  0  0
 42112  1  0  0  0
 42113  1  0  0  0
 43 44  1  0  0  0
 44114  1  0  0  0
 45 46  2  0  0  0
 45115  1  0  0  0
 46116  1  0  0  0
 47117  1  0  0  0
 47118  1  0  0  0
 48 56  1  0  0  0
 48 65  1  0  0  0
 48119  1  0  0  0
 49 50  1  0  0  0
 49 53  1  0  0  0
 49 64  1  0  0  0
 49120  1  0  0  0
 50 51  1  0  0  0
 50121  1  0  0  0
 50122  1  0  0  0
 51 52  1  0  0  0
 51123  1  0  0  0
 51124  1  0  0  0
 52125  1  0  0  0
 52126  1  0  0  0
 53 54  1  0  0  0
 54 55  2  0  0  0
 54127  1  0  0  0
 55 57  1  0  0  0
 55128  1  0  0  0
 56 69  2  0  0  0
 57 58  2  0  0  0
 57129  1  0  0  0
 58130  1  0  0  0
 59 60  1  0  0  0
 59 61  1  0  0  0
 59 62  1  0  0  0
 60131  1  0  0  0
 60132  1  0  0  0
 60133  1  0  0  0
 61134  1  0  0  0
 61135  1  0  0  0
 61136  1  0  0  0
 62137  1  0  0  0
 62138  1  0  0  0
 62139  1  0  0  0
 63 65  1  0  0  0
 63140  1  0  0  0
 63141  1  0  0  0
 63142  1  0  0  0
 64143  1  0  0  0
 65144  1  0  0  0
 68 81  1  0  0  0
 71 72  2  0  0  0
 71 73  1  0  0  0
 71145  1  0  0  0
 72 84  1  0  0  0
 72146  1  0  0  0
 73 82  1  0  0  0
 73 83  2  0  0  0
 74 77  1  0  0  0
 74147  1  0  0  0
 74148  1  0  0  0
 74149  1  0  0  0
 75150  1  0  0  0
 75151  1  0  0  0
 75152  1  0  0  0
 75 82  1  0  0  0
 76 85  1  0  0  0
 76153  1  0  0  0
 76154  1  0  0  0
 76155  1  0  0  0
 77 82  1  0  0  0
 77156  1  0  0  0
 77157  1  0  0  0
 78 79  1  0  0  0
 78 80  1  0  0  0
 78158  1  0  0  0
 78159  1  0  0  0
 79 84  1  0  0  0
 79160  1  0  0  0
 79161  1  0  0  0
 80 85  1  0  0  0
 80162  1  0  0  0
 80163  1  0  0  0
 81 82  1  0  0  0
 81164  1  0  0  0
 81165  1  0  0  0
 83 84  1  0  0  0
M  ISO  4   1 100  68 101  81 101  85 100
M  END
> <chiral flag>
0

> <version>
0

> <s_m_source_file>
/data/baiqing/PycharmProjects/Reinvent-master-3.2/result/LINK_invent/BTK/process_docking_weight1_custom_sum_contain_oxygen_bond_distance_aromatic_linkinvent_7_9_3/rearranged_h_0073.sdf

> <i_m_source_file_index>
37

> <r_mmod_Potential_Energy-OPLS-2005>
204.683837890625

> <r_mmod_Stretch_Energy-OPLS-2005>
67.3564605712891

> <r_mmod_Bend_Energy-OPLS-2005>
147.110229492188

> <r_mmod_Torsional_Energy-OPLS-2005>
303.156188964844

> <r_mmod_Improper_Torsional_Energy-OPLS-2005>
2.49355721473694

> <r_mmod_Van_der_Waal_Energy-OPLS-2005>
142.921127319336

> <r_mmod_Electrostatic_Energy-OPLS-2005>
-290.101379394531

> <r_mmod_Solvation_Energy-OPLS-2005>
-204.918701171875

> <b_mmod_Minimization_Converged-OPLS-2005>
0

> <r_mmod_RMS_Derivative-OPLS-2005>
3.75257802009583

$$$$
37
                    3D
 Structure written by MMmdl.
163171  0  0  1  0            999 V2000
  -30.6085  -14.6669   20.5080 C   0  0  0  0  0  0
  -30.4378  -12.4137   19.4518 C   0  0  0  0  0  0
  -29.5075  -12.5125   18.2228 C   0  0  0  0  0  0
  -28.0300  -12.3445   18.6337 C   0  0  0  0  0  0
  -27.6486  -13.2185   19.8589 C   0  0  2  0  0  0
  -28.6930  -13.0850   20.9887 C   0  0  0  0  0  0
  -25.2539  -13.8175   20.5676 C   0  0  0  0  0  0
  -24.1817  -13.0436   20.9199 C   0  0  0  0  0  0
  -24.6394  -11.6909   20.8746 C   0  0  0  0  0  0
  -23.9069  -10.4289   21.0406 C   0  0  0  0  0  0
  -24.3623   -9.4202   21.9181 C   0  0  0  0  0  0
  -23.6295   -8.2238   22.0753 C   0  0  0  0  0  0
  -22.4275   -8.0281   21.3546 C   0  0  0  0  0  0
  -21.9912   -9.0252   20.4647 C   0  0  0  0  0  0
  -22.7243  -10.2130   20.3054 C   0  0  0  0  0  0
  -21.6851   -6.0736   22.5279 C   0  0  0  0  0  0
  -21.4015   -6.5639   23.8214 C   0  0  0  0  0  0
  -21.3660   -5.6791   24.9176 C   0  0  0  0  0  0
  -21.6041   -4.3053   24.7223 C   0  0  0  0  0  0
  -21.8820   -3.8148   23.4345 C   0  0  0  0  0  0
  -21.9192   -4.6963   22.3403 C   0  0  0  0  0  0
  -22.7839  -13.5224   21.1860 C   0  0  0  0  0  0
  -22.1656   -4.2148   21.0978 F   0  0  0  0  0  0
  -21.5631   -3.4538   25.7737 F   0  0  0  0  0  0
  -30.0011  -13.4404   20.4196 N   0  0  0  0  0  0
  -26.2965  -12.9358   20.3295 N   0  0  0  0  0  0
  -25.9319  -11.6513   20.5748 N   0  0  0  0  0  0
  -22.0480  -12.8218   22.0418 N   0  0  0  0  0  0
  -25.4235  -15.1898   20.4085 N   0  0  0  0  0  0
  -31.7786  -14.8210   20.1480 O   0  0  0  0  0  0
  -21.6640   -6.8878   21.4243 O   0  0  0  0  0  0
  -22.3522  -14.5523   20.6699 O   0  0  0  0  0  0
  -24.6254  -31.8582   23.2001 C   0  0  0  0  0  0
  -25.9100  -32.4765   23.8340 C   0  0  1  0  0  0
  -27.2267  -27.3048   20.1419 C   0  0  0  0  0  0
  -25.5917  -33.8568   24.2265 N   0  0  0  0  0  0
  -23.4195  -30.4791   21.5420 C   0  0  2  0  0  0
  -24.8661  -28.9181   20.1229 C   0  0  0  0  0  0
  -22.7463  -29.4622   22.4939 C   0  0  0  0  0  0
  -18.0284  -28.1387   22.8490 C   0  0  0  0  0  0
  -24.1491  -36.7293   23.2641 C   0  0  0  0  0  0
  -25.9588  -30.7852   21.3711 C   0  0  0  0  0  0
  -26.0318  -29.4052   20.7270 C   0  0  0  0  0  0
  -27.2153  -28.6109   20.7218 C   0  0  0  0  0  0
  -26.0441  -26.8673   19.5118 C   0  0  0  0  0  0
  -24.8728  -27.6532   19.5089 C   0  0  0  0  0  0
  -23.6361  -29.8032   20.1612 C   0  0  0  0  0  0
  -25.4114  -36.3076   24.0328 C   0  0  1  0  0  0
  -20.5883  -28.3689   23.1289 C   0  0  2  0  0  0
  -20.6776  -26.9413   22.5413 C   0  0  0  0  0  0
  -19.5750  -26.6384   21.5215 C   0  0  0  0  0  0
  -18.1930  -26.7932   22.1626 C   0  0  0  0  0  0
  -19.1536  -28.8856   23.2887 C   0  0  0  0  0  0
  -18.9462  -30.1460   23.8897 C   0  0  0  0  0  0
  -17.6461  -30.6590   24.0570 C   0  0  0  0  0  0
  -25.9047  -34.9446   23.5098 C   0  0  0  0  0  0
  -16.5353  -29.9089   23.6332 C   0  0  0  0  0  0
  -16.7272  -28.6510   23.0348 C   0  0  0  0  0  0
  -26.4490  -31.6581   25.0713 C   0  0  0  0  0  0
  -25.3726  -31.3722   26.1444 C   0  0  0  0  0  0
  -27.0333  -30.3005   24.6166 C   0  0  0  0  0  0
  -27.6046  -32.4322   25.7486 C   0  0  0  0  0  0
  -27.5576  -37.1800   24.8463 C   0  0  0  0  0  0
  -21.4178  -29.3046   22.3686 N   0  0  0  0  0  0
  -26.4288  -37.3773   23.9408 N   0  0  0  0  0  0
  -24.6867  -31.0589   22.0948 N   0  0  0  0  0  0
  -23.4187  -28.8172   23.3030 O   0  0  0  0  0  0
  -28.3938  -26.5362   20.0613 O   0  0  0  0  0  0
  -26.5621  -34.8920   22.4668 O   0  0  0  0  0  0
  -23.5416  -32.1383   23.7327 O   0  0  0  0  0  0
  -29.8344  -20.8634   19.9169 C   0  0  0  0  0  0
  -29.0846  -19.7236   20.3263 C   0  0  0  0  0  0
  -27.3592  -21.2276   20.9224 C   0  0  0  0  0  0
  -28.1180  -22.3967   20.5203 C   0  0  0  0  0  0
  -25.1998  -19.9114   21.5712 C   0  0  0  0  0  0
  -26.4950  -24.2320   21.5072 C   0  0  0  0  0  0
  -31.4065  -17.5649   21.5641 C   0  0  0  0  0  0
  -29.4684  -18.2263   19.9835 C   0  0  0  0  0  0
  -25.9032  -21.2722   21.3926 C   0  0  0  0  0  0
  -28.5935  -25.1316   20.5341 C   0  0  0  0  0  0
  -27.5642  -23.9113   20.4360 C   0  0  1  0  0  0
  -29.9808  -17.2131   21.1045 C   0  0  1  0  0  0
  -29.3664  -22.1551   20.0121 N   0  0  0  0  0  0
  -27.8562  -19.9486   20.8498 N   0  0  0  0  0  0
  -29.7935  -15.7221   20.8517 N   0  0  0  0  0  0
  -31.4779  -12.5481   19.1504 H   0  0  0  0  0  0
  -30.3822  -11.4212   19.9008 H   0  0  0  0  0  0
  -29.7791  -11.7586   17.4830 H   0  0  0  0  0  0
  -29.6430  -13.4802   17.7368 H   0  0  0  0  0  0
  -27.8712  -11.2918   18.8685 H   0  0  0  0  0  0
  -27.3751  -12.5682   17.7907 H   0  0  0  0  0  0
  -27.6617  -14.2518   19.5125 H   0  0  0  0  0  0
  -28.7139  -12.0645   21.3741 H   0  0  0  0  0  0
  -28.4339  -13.7184   21.8387 H   0  0  0  0  0  0
  -25.2768   -9.5674   22.4757 H   0  0  0  0  0  0
  -24.0004   -7.4627   22.7470 H   0  0  0  0  0  0
  -21.0844   -8.8773   19.8952 H   0  0  0  0  0  0
  -22.3704  -10.9669   19.6164 H   0  0  0  0  0  0
  -21.2007   -7.6146   23.9719 H   0  0  0  0  0  0
  -21.1482   -6.0519   25.9077 H   0  0  0  0  0  0
  -22.0601   -2.7611   23.2845 H   0  0  0  0  0  0
  -22.4099  -11.9881   22.4811 H   0  0  0  0  0  0
  -21.1093  -13.1235   22.2613 H   0  0  0  0  0  0
  -24.6553  -15.8418   20.5206 H   0  0  0  0  0  0
  -26.2659  -15.6307   20.0629 H   0  0  0  0  0  0
  -26.7168  -32.5433   23.1089 H   0  0  0  0  0  0
  -25.0071  -33.9720   25.0415 H   0  0  0  0  0  0
  -22.7134  -31.2989   21.3925 H   0  0  0  0  0  0
  -23.3750  -35.9628   23.3300 H   0  0  0  0  0  0
  -24.3587  -36.8918   22.2056 H   0  0  0  0  0  0
  -23.7251  -37.6497   23.6667 H   0  0  0  0  0  0
  -26.0866  -31.5409   20.5946 H   0  0  0  0  0  0
  -26.8414  -30.8417   21.9972 H   0  0  0  0  0  0
  -28.1192  -28.9925   21.1752 H   0  0  0  0  0  0
  -26.0239  -25.9122   19.0096 H   0  0  0  0  0  0
  -23.9813  -27.2769   19.0262 H   0  0  0  0  0  0
  -23.7604  -30.5738   19.3990 H   0  0  0  0  0  0
  -22.7563  -29.2324   19.8591 H   0  0  0  0  0  0
  -25.1297  -36.1921   25.0819 H   0  0  0  0  0  0
  -20.9979  -28.3262   24.1408 H   0  0  0  0  0  0
  -20.5678  -26.2298   23.3612 H   0  0  0  0  0  0
  -21.6646  -26.7444   22.1203 H   0  0  0  0  0  0
  -19.6909  -25.6293   21.1248 H   0  0  0  0  0  0
  -19.6688  -27.3195   20.6745 H   0  0  0  0  0  0
  -17.4201  -26.6685   21.4028 H   0  0  0  0  0  0
  -18.0328  -26.0072   22.9019 H   0  0  0  0  0  0
  -19.7938  -30.7282   24.2260 H   0  0  0  0  0  0
  -17.5016  -31.6268   24.5176 H   0  0  0  0  0  0
  -15.5356  -30.2995   23.7652 H   0  0  0  0  0  0
  -15.8671  -28.0833   22.7053 H   0  0  0  0  0  0
  -24.5903  -30.7064   25.7784 H   0  0  0  0  0  0
  -24.8919  -32.2890   26.4864 H   0  0  0  0  0  0
  -25.8058  -30.8910   27.0220 H   0  0  0  0  0  0
  -26.2903  -29.6755   24.1197 H   0  0  0  0  0  0
  -27.4042  -29.7262   25.4666 H   0  0  0  0  0  0
  -27.8766  -30.4300   23.9379 H   0  0  0  0  0  0
  -27.2646  -33.3623   26.2056 H   0  0  0  0  0  0
  -28.3859  -32.6879   25.0315 H   0  0  0  0  0  0
  -28.0709  -31.8451   26.5408 H   0  0  0  0  0  0
  -28.2587  -38.0102   24.7509 H   0  0  0  0  0  0
  -28.1075  -36.2631   24.6281 H   0  0  0  0  0  0
  -27.2296  -37.1443   25.8867 H   0  0  0  0  0  0
  -20.9349  -29.8765   21.6896 H   0  0  0  0  0  0
  -26.0163  -38.2843   24.1413 H   0  0  0  0  0  0
  -30.7984  -20.7391   19.4452 H   0  0  0  0  0  0
  -24.1668  -20.0510   21.8905 H   0  0  0  0  0  0
  -25.6948  -19.3016   22.3281 H   0  0  0  0  0  0
  -25.1810  -19.3462   20.6388 H   0  0  0  0  0  0
  -25.5108  -23.8468   21.2557 H   0  0  0  0  0  0
  -26.3409  -25.3007   21.6355 H   0  0  0  0  0  0
  -26.7966  -23.8630   22.4875 H   0  0  0  0  0  0
  -31.4608  -18.5985   21.9073 H   0  0  0  0  0  0
  -32.1288  -17.4543   20.7547 H   0  0  0  0  0  0
  -31.7279  -16.9320   22.3918 H   0  0  0  0  0  0
  -30.2024  -18.2525   19.1777 H   0  0  0  0  0  0
  -28.5785  -17.7919   19.5273 H   0  0  0  0  0  0
  -25.3296  -21.8292   20.6537 H   0  0  0  0  0  0
  -25.8539  -21.8006   22.3431 H   0  0  0  0  0  0
  -29.4723  -24.8247   19.9683 H   0  0  0  0  0  0
  -28.9508  -25.1930   21.5628 H   0  0  0  0  0  0
  -27.0983  -23.9755   19.4533 H   0  0  0  0  0  0
  -29.3303  -17.3919   21.9622 H   0  0  0  0  0  0
  -28.8549  -15.4089   21.0499 H   0  0  0  0  0  0
  1 25  1  0  0  0
  1 30  2  0  0  0
  1 85  1  0  0  0
  2  3  1  0  0  0
  2 25  1  0  0  0
  2 86  1  0  0  0
  2 87  1  0  0  0
  3  4  1  0  0  0
  3 88  1  0  0  0
  3 89  1  0  0  0
  4  5  1  0  0  0
  4 90  1  0  0  0
  4 91  1  0  0  0
  5  6  1  0  0  0
  5 26  1  0  0  0
  5 92  1  0  0  0
  6 25  1  0  0  0
  6 93  1  0  0  0
  6 94  1  0  0  0
  7  8  2  0  0  0
  7 26  1  0  0  0
  7 29  1  0  0  0
  8  9  1  0  0  0
  8 22  1  0  0  0
  9 10  1  0  0  0
  9 27  2  0  0  0
 10 11  2  0  0  0
 10 15  1  0  0  0
 11 12  1  0  0  0
 11 95  1  0  0  0
 12 13  2  0  0  0
 12 96  1  0  0  0
 13 14  1  0  0  0
 13 31  1  0  0  0
 14 15  2  0  0  0
 14 97  1  0  0  0
 15 98  1  0  0  0
 16 17  2  0  0  0
 16 21  1  0  0  0
 16 31  1  0  0  0
 17 18  1  0  0  0
 17 99  1  0  0  0
 18 19  2  0  0  0
 18100  1  0  0  0
 19 20  1  0  0  0
 19 24  1  0  0  0
 20 21  2  0  0  0
 20101  1  0  0  0
 21 23  1  0  0  0
 22 28  1  0  0  0
 22 32  2  0  0  0
 26 27  1  0  0  0
 28102  1  0  0  0
 28103  1  0  0  0
 29104  1  0  0  0
 29105  1  0  0  0
 33 34  1  0  0  0
 33 66  1  0  0  0
 33 70  2  0  0  0
 34 36  1  0  0  0
 34 59  1  0  0  0
 34106  1  0  0  0
 35 44  2  0  0  0
 35 45  1  0  0  0
 35 68  1  0  0  0
 36 56  1  0  0  0
 36107  1  0  0  0
 37 39  1  0  0  0
 37 47  1  0  0  0
 37 66  1  0  0  0
 37108  1  0  0  0
 38 43  2  0  0  0
 38 46  1  0  0  0
 38 47  1  0  0  0
 39 64  1  0  0  0
 39 67  2  0  0  0
 40 52  1  0  0  0
 40 53  2  0  0  0
 40 58  1  0  0  0
 41109  1  0  0  0
 41110  1  0  0  0
 41111  1  0  0  0
 41 48  1  0  0  0
 42 43  1  0  0  0
 42 66  1  0  0  0
 42112  1  0  0  0
 42113  1  0  0  0
 43 44  1  0  0  0
 44114  1  0  0  0
 45 46  2  0  0  0
 45115  1  0  0  0
 46116  1  0  0  0
 47117  1  0  0  0
 47118  1  0  0  0
 48 56  1  0  0  0
 48 65  1  0  0  0
 48119  1  0  0  0
 49 50  1  0  0  0
 49 53  1  0  0  0
 49 64  1  0  0  0
 49120  1  0  0  0
 50 51  1  0  0  0
 50121  1  0  0  0
 50122  1  0  0  0
 51 52  1  0  0  0
 51123  1  0  0  0
 51124  1  0  0  0
 52125  1  0  0  0
 52126  1  0  0  0
 53 54  1  0  0  0
 54 55  2  0  0  0
 54127  1  0  0  0
 55 57  1  0  0  0
 55128  1  0  0  0
 56 69  2  0  0  0
 57 58  2  0  0  0
 57129  1  0  0  0
 58130  1  0  0  0
 59 60  1  0  0  0
 59 61  1  0  0  0
 59 62  1  0  0  0
 60131  1  0  0  0
 60132  1  0  0  0
 60133  1  0  0  0
 61134  1  0  0  0
 61135  1  0  0  0
 61136  1  0  0  0
 62137  1  0  0  0
 62138  1  0  0  0
 62139  1  0  0  0
 63 65  1  0  0  0
 63140  1  0  0  0
 63141  1  0  0  0
 63142  1  0  0  0
 64143  1  0  0  0
 65144  1  0  0  0
 68 80  1  0  0  0
 71 72  2  0  0  0
 71 83  1  0  0  0
 71145  1  0  0  0
 72 78  1  0  0  0
 72 84  1  0  0  0
 73 74  1  0  0  0
 73 79  1  0  0  0
 73 84  2  0  0  0
 74 81  1  0  0  0
 74 83  2  0  0  0
 75 79  1  0  0  0
 75146  1  0  0  0
 75147  1  0  0  0
 75148  1  0  0  0
 76149  1  0  0  0
 76150  1  0  0  0
 76151  1  0  0  0
 76 81  1  0  0  0
 77152  1  0  0  0
 77153  1  0  0  0
 77154  1  0  0  0
 77 82  1  0  0  0
 78 82  1  0  0  0
 78155  1  0  0  0
 78156  1  0  0  0
 79157  1  0  0  0
 79158  1  0  0  0
 80 81  1  0  0  0
 80159  1  0  0  0
 80160  1  0  0  0
 81161  1  0  0  0
 82 85  1  0  0  0
 82162  1  0  0  0
 85163  1  0  0  0
M  ISO  4   1 100  68 101  80 101  85 100
M  END
> <chiral flag>
0

> <version>
0

> <s_m_source_file>
/data/baiqing/PycharmProjects/Reinvent-master-3.2/result/LINK_invent/BTK/process_docking_weight1_custom_sum_contain_oxygen_bond_distance_aromatic_linkinvent_7_9_3/rearranged_h_0073.sdf

> <i_m_source_file_index>
38

> <r_mmod_Potential_Energy-OPLS-2005>
228.593719482422

> <r_mmod_Stretch_Energy-OPLS-2005>
105.44465637207

> <r_mmod_Bend_Energy-OPLS-2005>
205.079742431641

> <r_mmod_Torsional_Energy-OPLS-2005>
227.326416015625

> <r_mmod_Improper_Torsional_Energy-OPLS-2005>
6.07636022567749

> <r_mmod_Van_der_Waal_Energy-OPLS-2005>
148.983154296875

> <r_mmod_Electrostatic_Energy-OPLS-2005>
-300.640472412109

> <r_mmod_Solvation_Energy-OPLS-2005>
-213.349182128906

> <b_mmod_Minimization_Converged-OPLS-2005>
0

> <r_mmod_RMS_Derivative-OPLS-2005>
0.878944873809814

$$$$
38
                    3D
 Structure written by MMmdl.
174182  0  0  1  0            999 V2000
  -29.9306  -16.6778   20.2573 C   0  0  0  0  0  0
  -30.3094  -13.8533   19.5746 C   0  0  0  0  0  0
  -29.5799  -13.0018   18.4468 C   0  0  0  0  0  0
  -28.2498  -12.4173   18.9198 C   0  0  0  0  0  0
  -27.5713  -13.4596   19.8196 C   0  0  2  0  0  0
  -28.4909  -14.1959   20.8719 C   0  0  0  0  0  0
  -25.2121  -13.8544   20.5976 C   0  0  0  0  0  0
  -24.1668  -13.0470   20.9325 C   0  0  0  0  0  0
  -24.6594  -11.7065   20.8701 C   0  0  0  0  0  0
  -23.9320  -10.4325   21.0307 C   0  0  0  0  0  0
  -24.3789   -9.4223   21.9113 C   0  0  0  0  0  0
  -23.6398   -8.2287   22.0723 C   0  0  0  0  0  0
  -22.4365   -8.0333   21.3525 C   0  0  0  0  0  0
  -22.0047   -9.0327   20.4616 C   0  0  0  0  0  0
  -22.7455  -10.2164   20.2993 C   0  0  0  0  0  0
  -21.6883   -6.0787   22.5284 C   0  0  0  0  0  0
  -21.4048   -6.5670   23.8228 C   0  0  0  0  0  0
  -21.3658   -5.6806   24.9174 C   0  0  0  0  0  0
  -21.6031   -4.3071   24.7214 C   0  0  0  0  0  0
  -21.8820   -3.8175   23.4334 C   0  0  0  0  0  0
  -21.9211   -4.7005   22.3397 C   0  0  0  0  0  0
  -22.7632  -13.5040   21.1950 C   0  0  0  0  0  0
  -22.1663   -4.2193   21.0974 F   0  0  0  0  0  0
  -21.5619   -3.4540   25.7722 F   0  0  0  0  0  0
  -29.5283  -15.1188   20.2112 N   0  0  0  0  0  0
  -26.2807  -13.0215   20.3456 N   0  0  0  0  0  0
  -25.9598  -11.7095   20.5601 N   0  0  0  0  0  0
  -22.0381  -12.7975   22.0534 N   0  0  0  0  0  0
  -25.3379  -15.2328   20.4527 N   0  0  0  0  0  0
  -31.1524  -16.3760   20.0523 O   0  0  0  0  0  0
  -21.6676   -6.8957   21.4262 O   0  0  0  0  0  0
  -22.3199  -14.5295   20.6782 O   0  0  0  0  0  0
  -24.7522  -31.7162   23.0973 C   0  0  0  0  0  0
  -25.9732  -32.4053   23.7786 C   0  0  1  0  0  0
  -27.2715  -26.0059   20.2613 C   0  0  0  0  0  0
  -25.6014  -33.7926   24.1576 N   0  0  0  0  0  0
  -23.6137  -30.2829   21.4659 C   0  0  2  0  0  0
  -25.0874  -28.4810   20.1389 C   0  0  0  0  0  0
  -22.8084  -29.3847   22.4522 C   0  0  0  0  0  0
  -18.0388  -28.1463   22.8419 C   0  0  0  0  0  0
  -24.1508  -36.6981   23.2666 C   0  0  0  0  0  0
  -26.2161  -30.2084   21.4824 C   0  0  0  0  0  0
  -26.2781  -28.6947   20.8451 C   0  0  0  0  0  0
  -27.3123  -27.5032   20.8760 C   0  0  0  0  0  0
  -26.0684  -26.2077   19.4697 C   0  0  0  0  0  0
  -25.0651  -27.2649   19.4272 C   0  0  0  0  0  0
  -23.9130  -29.5148   20.1337 C   0  0  0  0  0  0
  -25.4176  -36.2654   24.0240 C   0  0  1  0  0  0
  -20.6059  -28.3860   23.1004 C   0  0  2  0  0  0
  -20.6814  -26.9449   22.5416 C   0  0  0  0  0  0
  -19.5800  -26.6346   21.5224 C   0  0  0  0  0  0
  -18.1986  -26.7975   22.1611 C   0  0  0  0  0  0
  -19.1671  -28.8996   23.2675 C   0  0  0  0  0  0
  -18.9567  -30.1560   23.8752 C   0  0  0  0  0  0
  -17.6548  -30.6623   24.0540 C   0  0  0  0  0  0
  -25.9198  -34.9054   23.4804 C   0  0  0  0  0  0
  -16.5431  -29.9098   23.6356 C   0  0  0  0  0  0
  -16.7367  -28.6524   23.0375 C   0  0  0  0  0  0
  -26.4702  -31.6400   25.0703 C   0  0  0  0  0  0
  -25.3588  -31.3921   26.1193 C   0  0  0  0  0  0
  -27.0724  -30.2648   24.7152 C   0  0  0  0  0  0
  -27.6027  -32.4437   25.7516 C   0  0  0  0  0  0
  -27.5557  -37.1627   24.8463 C   0  0  0  0  0  0
  -21.4666  -29.2957   22.3247 N   0  0  0  0  0  0
  -26.4242  -37.3495   23.9418 N   0  0  0  0  0  0
  -24.8927  -30.7871   22.0650 N   0  0  0  0  0  0
  -23.4183  -28.7577   23.3189 O   0  0  0  0  0  0
  -28.0011  -24.3586   20.3082 O   0  0  0  0  0  0
  -26.5946  -34.8767   22.4490 O   0  0  0  0  0  0
  -23.6375  -32.0568   23.5421 O   0  0  0  0  0  0
  -26.2341  -23.2238   20.6893 C   0  0  0  0  0  0
  -26.9064  -24.0385   22.0603 C   0  0  0  0  0  0
  -28.8587  -23.6678   22.2309 C   0  0  0  0  0  0
  -28.7685  -21.1981   20.3902 C   0  0  0  0  0  0
  -29.2869  -18.7812   22.1453 C   0  0  0  0  0  0
  -30.8812  -19.2399   20.2328 C   0  0  0  0  0  0
  -24.8592  -18.7235   17.2999 C   0  0  0  0  0  0
  -26.3524  -18.6512   19.2852 C   0  0  0  0  0  0
  -27.2882  -19.1740   16.9941 C   0  0  0  0  0  0
  -26.1252  -23.9626   23.2983 C   0  0  0  0  0  0
  -26.4467  -22.4880   23.4881 C   0  0  0  0  0  0
  -25.8055  -20.8852   18.1736 C   0  0  0  0  0  0
  -26.9960  -21.8325   18.4628 C   0  0  0  0  0  0
  -27.2697  -21.9762   22.2168 C   0  0  0  0  0  0
  -29.4262  -18.8718   20.6146 C   0  0  0  0  0  0
  -26.0964  -19.3735   17.9511 C   0  0  0  0  0  0
  -29.4261  -22.3022   21.2129 N   0  0  0  0  0  0
  -27.3146  -22.0155   19.8695 N   0  0  0  0  0  0
  -29.6001  -24.3093   22.9708 O   0  0  0  0  0  0
  -31.2302  -14.2103   19.1120 H   0  0  0  0  0  0
  -30.6723  -13.1898   20.3606 H   0  0  0  0  0  0
  -30.2345  -12.2084   18.0831 H   0  0  0  0  0  0
  -29.3959  -13.6551   17.5940 H   0  0  0  0  0  0
  -28.4414  -11.5071   19.4897 H   0  0  0  0  0  0
  -27.6187  -12.1384   18.0744 H   0  0  0  0  0  0
  -27.3081  -14.2441   19.1069 H   0  0  0  0  0  0
  -28.9277  -13.4854   21.5757 H   0  0  0  0  0  0
  -27.8681  -14.8387   21.4943 H   0  0  0  0  0  0
  -25.2941   -9.5667   22.4681 H   0  0  0  0  0  0
  -24.0092   -7.4682   22.7453 H   0  0  0  0  0  0
  -21.0973   -8.8896   19.8914 H   0  0  0  0  0  0
  -22.3950  -10.9706   19.6078 H   0  0  0  0  0  0
  -21.2057   -7.6179   23.9745 H   0  0  0  0  0  0
  -21.1457   -6.0523   25.9078 H   0  0  0  0  0  0
  -22.0596   -2.7640   23.2817 H   0  0  0  0  0  0
  -22.4135  -11.9712   22.4969 H   0  0  0  0  0  0
  -21.0939  -13.0841   22.2681 H   0  0  0  0  0  0
  -24.5462  -15.8534   20.5828 H   0  0  0  0  0  0
  -26.1769  -15.7176   20.1651 H   0  0  0  0  0  0
  -26.7933  -32.4412   23.0600 H   0  0  0  0  0  0
  -24.9918  -33.8859   24.9571 H   0  0  0  0  0  0
  -22.9825  -31.1348   21.2097 H   0  0  0  0  0  0
  -23.3815  -35.9258   23.3164 H   0  0  0  0  0  0
  -24.3579  -36.8851   22.2118 H   0  0  0  0  0  0
  -23.7221  -37.6066   23.6908 H   0  0  0  0  0  0
  -26.4942  -30.8836   20.6726 H   0  0  0  0  0  0
  -27.0421  -30.2952   22.1738 H   0  0  0  0  0  0
  -28.1669  -27.6880   21.5108 H   0  0  0  0  0  0
  -25.7995  -25.3458   18.8750 H   0  0  0  0  0  0
  -24.1956  -27.0763   18.8111 H   0  0  0  0  0  0
  -24.1454  -30.2452   19.3583 H   0  0  0  0  0  0
  -23.0095  -29.0108   19.7843 H   0  0  0  0  0  0
  -25.1409  -36.1321   25.0727 H   0  0  0  0  0  0
  -21.0118  -28.3535   24.1144 H   0  0  0  0  0  0
  -20.5606  -26.2508   23.3756 H   0  0  0  0  0  0
  -21.6674  -26.7279   22.1276 H   0  0  0  0  0  0
  -19.6961  -25.6216   21.1359 H   0  0  0  0  0  0
  -19.6757  -27.3065   20.6684 H   0  0  0  0  0  0
  -17.4257  -26.6709   21.4016 H   0  0  0  0  0  0
  -18.0368  -26.0156   22.9039 H   0  0  0  0  0  0
  -19.8043  -30.7410   24.2068 H   0  0  0  0  0  0
  -17.5098  -31.6290   24.5189 H   0  0  0  0  0  0
  -15.5433  -30.2968   23.7762 H   0  0  0  0  0  0
  -15.8762  -28.0806   22.7173 H   0  0  0  0  0  0
  -24.5795  -30.7276   25.7456 H   0  0  0  0  0  0
  -24.8778  -32.3207   26.4264 H   0  0  0  0  0  0
  -25.7598  -30.9281   27.0210 H   0  0  0  0  0  0
  -26.3552  -29.6025   24.2308 H   0  0  0  0  0  0
  -27.3968  -29.7427   25.6162 H   0  0  0  0  0  0
  -27.9612  -30.3576   24.0911 H   0  0  0  0  0  0
  -27.2490  -33.3888   26.1640 H   0  0  0  0  0  0
  -28.4027  -32.6765   25.0477 H   0  0  0  0  0  0
  -28.0496  -31.8903   26.5786 H   0  0  0  0  0  0
  -28.2463  -38.0020   24.7546 H   0  0  0  0  0  0
  -28.1154  -36.2530   24.6228 H   0  0  0  0  0  0
  -27.2278  -37.1170   25.8862 H   0  0  0  0  0  0
  -21.0164  -29.8512   21.6102 H   0  0  0  0  0  0
  -26.0006  -38.2506   24.1456 H   0  0  0  0  0  0
  -25.1782  -23.0184   20.5900 H   0  0  0  0  0  0
  -29.7595  -19.6383   22.6293 H   0  0  0  0  0  0
  -29.7424  -17.8812   22.5552 H   0  0  0  0  0  0
  -28.2388  -18.7773   22.4396 H   0  0  0  0  0  0
  -31.0590  -19.0051   19.1822 H   0  0  0  0  0  0
  -31.6270  -18.7135   20.8283 H   0  0  0  0  0  0
  -31.1004  -20.3001   20.3464 H   0  0  0  0  0  0
  -24.9837  -17.6471   17.1813 H   0  0  0  0  0  0
  -24.6635  -19.1378   16.3081 H   0  0  0  0  0  0
  -23.9593  -18.8797   17.8978 H   0  0  0  0  0  0
  -26.8650  -17.6977   19.1343 H   0  0  0  0  0  0
  -25.4257  -18.4438   19.8175 H   0  0  0  0  0  0
  -26.9573  -19.2469   19.9563 H   0  0  0  0  0  0
  -27.3410  -18.1444   16.6380 H   0  0  0  0  0  0
  -28.2441  -19.3945   17.4694 H   0  0  0  0  0  0
  -27.1999  -19.8135   16.1156 H   0  0  0  0  0  0
  -25.0678  -24.1660   23.1242 H   0  0  0  0  0  0
  -26.5229  -24.6108   24.0814 H   0  0  0  0  0  0
  -25.5324  -21.9137   23.6407 H   0  0  0  0  0  0
  -27.0356  -22.3637   24.3996 H   0  0  0  0  0  0
  -25.3531  -21.2588   17.2536 H   0  0  0  0  0  0
  -25.0337  -21.0164   18.9343 H   0  0  0  0  0  0
  -26.7380  -22.8239   18.0844 H   0  0  0  0  0  0
  -27.8896  -21.5503   17.9064 H   0  0  0  0  0  0
  -26.6048  -21.1607   21.8793 H   0  0  0  0  0  0
  -28.0116  -21.3722   22.7708 H   0  0  0  0  0  0
  1 25  1  0  0  0
  1 30  2  0  0  0
  1 85  1  0  0  0
  2  3  1  0  0  0
  2 25  1  0  0  0
  2 90  1  0  0  0
  2 91  1  0  0  0
  3  4  1  0  0  0
  3 92  1  0  0  0
  3 93  1  0  0  0
  4  5  1  0  0  0
  4 94  1  0  0  0
  4 95  1  0  0  0
  5  6  1  0  0  0
  5 26  1  0  0  0
  5 96  1  0  0  0
  6 25  1  0  0  0
  6 97  1  0  0  0
  6 98  1  0  0  0
  7  8  2  0  0  0
  7 26  1  0  0  0
  7 29  1  0  0  0
  8  9  1  0  0  0
  8 22  1  0  0  0
  9 10  1  0  0  0
  9 27  2  0  0  0
 10 11  2  0  0  0
 10 15  1  0  0  0
 11 12  1  0  0  0
 11 99  1  0  0  0
 12 13  2  0  0  0
 12100  1  0  0  0
 13 14  1  0  0  0
 13 31  1  0  0  0
 14 15  2  0  0  0
 14101  1  0  0  0
 15102  1  0  0  0
 16 17  2  0  0  0
 16 21  1  0  0  0
 16 31  1  0  0  0
 17 18  1  0  0  0
 17103  1  0  0  0
 18 19  2  0  0  0
 18104  1  0  0  0
 19 20  1  0  0  0
 19 24  1  0  0  0
 20 21  2  0  0  0
 20105  1  0  0  0
 21 23  1  0  0  0
 22 28  1  0  0  0
 22 32  2  0  0  0
 26 27  1  0  0  0
 28106  1  0  0  0
 28107  1  0  0  0
 29108  1  0  0  0
 29109  1  0  0  0
 33 34  1  0  0  0
 33 66  1  0  0  0
 33 70  2  0  0  0
 34 36  1  0  0  0
 34 59  1  0  0  0
 34110  1  0  0  0
 35 44  2  0  0  0
 35 45  1  0  0  0
 35 68  1  0  0  0
 36 56  1  0  0  0
 36111  1  0  0  0
 37 39  1  0  0  0
 37 47  1  0  0  0
 37 66  1  0  0  0
 37112  1  0  0  0
 38 43  2  0  0  0
 38 46  1  0  0  0
 38 47  1  0  0  0
 39 64  1  0  0  0
 39 67  2  0  0  0
 40 52  1  0  0  0
 40 53  2  0  0  0
 40 58  1  0  0  0
 41113  1  0  0  0
 41114  1  0  0  0
 41115  1  0  0  0
 41 48  1  0  0  0
 42 43  1  0  0  0
 42 66  1  0  0  0
 42116  1  0  0  0
 42117  1  0  0  0
 43 44  1  0  0  0
 44118  1  0  0  0
 45 46  2  0  0  0
 45119  1  0  0  0
 46120  1  0  0  0
 47121  1  0  0  0
 47122  1  0  0  0
 48 56  1  0  0  0
 48 65  1  0  0  0
 48123  1  0  0  0
 49 50  1  0  0  0
 49 53  1  0  0  0
 49 64  1  0  0  0
 49124  1  0  0  0
 50 51  1  0  0  0
 50125  1  0  0  0
 50126  1  0  0  0
 51 52  1  0  0  0
 51127  1  0  0  0
 51128  1  0  0  0
 52129  1  0  0  0
 52130  1  0  0  0
 53 54  1  0  0  0
 54 55  2  0  0  0
 54131  1  0  0  0
 55 57  1  0  0  0
 55132  1  0  0  0
 56 69  2  0  0  0
 57 58  2  0  0  0
 57133  1  0  0  0
 58134  1  0  0  0
 59 60  1  0  0  0
 59 61  1  0  0  0
 59 62  1  0  0  0
 60135  1  0  0  0
 60136  1  0  0  0
 60137  1  0  0  0
 61138  1  0  0  0
 61139  1  0  0  0
 61140  1  0  0  0
 62141  1  0  0  0
 62142  1  0  0  0
 62143  1  0  0  0
 63 65  1  0  0  0
 63144  1  0  0  0
 63145  1  0  0  0
 63146  1  0  0  0
 64147  1  0  0  0
 65148  1  0  0  0
 68 84  1  0  0  0
 71 72  2  0  0  0
 71 88  1  0  0  0
 71149  1  0  0  0
 72 73  1  0  0  0
 72 80  1  0  0  0
 73 87  1  0  0  0
 73 89  2  0  0  0
 74 85  1  0  0  0
 74 87  2  0  0  0
 74 88  1  0  0  0
 75150  1  0  0  0
 75151  1  0  0  0
 75152  1  0  0  0
 75 85  1  0  0  0
 76 85  1  0  0  0
 76153  1  0  0  0
 76154  1  0  0  0
 76155  1  0  0  0
 77156  1  0  0  0
 77157  1  0  0  0
 77158  1  0  0  0
 77 86  1  0  0  0
 78 86  1  0  0  0
 78159  1  0  0  0
 78160  1  0  0  0
 78161  1  0  0  0
 79 86  1  0  0  0
 79162  1  0  0  0
 79163  1  0  0  0
 79164  1  0  0  0
 80 81  1  0  0  0
 80165  1  0  0  0
 80166  1  0  0  0
 81 84  1  0  0  0
 81167  1  0  0  0
 81168  1  0  0  0
 82 83  1  0  0  0
 82 86  1  0  0  0
 82169  1  0  0  0
 82170  1  0  0  0
 83 88  1  0  0  0
 83171  1  0  0  0
 83172  1  0  0  0
 84173  1  0  0  0
 84174  1  0  0  0
M  ISO  4   1 100  68 101  84 101  85 100
M  END
> <chiral flag>
0

> <version>
0

> <s_m_source_file>
/data/baiqing/PycharmProjects/Reinvent-master-3.2/result/LINK_invent/BTK/process_docking_weight1_custom_sum_contain_oxygen_bond_distance_aromatic_linkinvent_7_9_3/rearranged_h_0073.sdf

> <i_m_source_file_index>
39

> <r_mmod_Potential_Energy-OPLS-2005>
14919.33203125

> <r_mmod_Stretch_Energy-OPLS-2005>
8463.154296875

> <r_mmod_Bend_Energy-OPLS-2005>
1317.46606445312

> <r_mmod_Torsional_Energy-OPLS-2005>
423.345550537109

> <r_mmod_Improper_Torsional_Energy-OPLS-2005>
27.0262298583984

> <r_mmod_Van_der_Waal_Energy-OPLS-2005>
2085.109375

> <r_mmod_Electrostatic_Energy-OPLS-2005>
-322.596069335938

> <r_mmod_Solvation_Energy-OPLS-2005>
-196.279907226562

> <b_mmod_Minimization_Converged-OPLS-2005>
0

> <r_mmod_RMS_Derivative-OPLS-2005>
7.61321449279785

$$$$
39
                    3D
 Structure written by MMmdl.
157165  0  0  1  0            999 V2000
  -30.6604  -14.6691   20.5668 C   0  0  0  0  0  0
  -30.4142  -12.4292   19.4582 C   0  0  0  0  0  0
  -29.5055  -12.5502   18.2149 C   0  0  0  0  0  0
  -28.0210  -12.3892   18.6018 C   0  0  0  0  0  0
  -27.6420  -13.2345   19.8469 C   0  0  2  0  0  0
  -28.6822  -13.0665   20.9743 C   0  0  0  0  0  0
  -25.2491  -13.8206   20.5645 C   0  0  0  0  0  0
  -24.1797  -13.0430   20.9153 C   0  0  0  0  0  0
  -24.6384  -11.6909   20.8664 C   0  0  0  0  0  0
  -23.9070  -10.4277   21.0346 C   0  0  0  0  0  0
  -24.3623   -9.4211   21.9146 C   0  0  0  0  0  0
  -23.6284   -8.2255   22.0750 C   0  0  0  0  0  0
  -22.4274   -8.0275   21.3544 C   0  0  0  0  0  0
  -21.9896   -9.0234   20.4651 C   0  0  0  0  0  0
  -22.7217  -10.2108   20.3019 C   0  0  0  0  0  0
  -21.6856   -6.0731   22.5284 C   0  0  0  0  0  0
  -21.4010   -6.5642   23.8220 C   0  0  0  0  0  0
  -21.3664   -5.6787   24.9185 C   0  0  0  0  0  0
  -21.6055   -4.3053   24.7236 C   0  0  0  0  0  0
  -21.8810   -3.8140   23.4351 C   0  0  0  0  0  0
  -21.9183   -4.6960   22.3405 C   0  0  0  0  0  0
  -22.7813  -13.5208   21.1871 C   0  0  0  0  0  0
  -22.1662   -4.2147   21.0973 F   0  0  0  0  0  0
  -21.5646   -3.4530   25.7748 F   0  0  0  0  0  0
  -29.9948  -13.4612   20.4428 N   0  0  0  0  0  0
  -26.2912  -12.9407   20.3171 N   0  0  0  0  0  0
  -25.9309  -11.6542   20.5625 N   0  0  0  0  0  0
  -22.0447  -12.8194   22.0419 N   0  0  0  0  0  0
  -25.4205  -15.1935   20.4210 N   0  0  0  0  0  0
  -31.7464  -14.7836   19.9866 O   0  0  0  0  0  0
  -21.6648   -6.8867   21.4245 O   0  0  0  0  0  0
  -22.3500  -14.5521   20.6747 O   0  0  0  0  0  0
  -24.6288  -31.8567   23.1999 C   0  0  0  0  0  0
  -25.9119  -32.4771   23.8329 C   0  0  1  0  0  0
  -27.2197  -27.2832   20.1070 C   0  0  0  0  0  0
  -25.5924  -33.8571   24.2259 N   0  0  0  0  0  0
  -23.4248  -30.4779   21.5438 C   0  0  2  0  0  0
  -24.8713  -28.9280   20.1140 C   0  0  0  0  0  0
  -22.7484  -29.4597   22.4946 C   0  0  0  0  0  0
  -18.0277  -28.1398   22.8484 C   0  0  0  0  0  0
  -24.1482  -36.7298   23.2632 C   0  0  0  0  0  0
  -25.9690  -30.7745   21.3767 C   0  0  0  0  0  0
  -26.0427  -29.3978   20.7209 C   0  0  0  0  0  0
  -27.2175  -28.5821   20.7169 C   0  0  0  0  0  0
  -26.0260  -26.8872   19.4612 C   0  0  0  0  0  0
  -24.8631  -27.6769   19.4832 C   0  0  0  0  0  0
  -23.6412  -29.8095   20.1623 C   0  0  0  0  0  0
  -25.4100  -36.3081   24.0329 C   0  0  1  0  0  0
  -20.5869  -28.3696   23.1284 C   0  0  2  0  0  0
  -20.6776  -26.9420   22.5417 C   0  0  0  0  0  0
  -19.5761  -26.6379   21.5217 C   0  0  0  0  0  0
  -18.1931  -26.7939   22.1617 C   0  0  0  0  0  0
  -19.1527  -28.8866   23.2881 C   0  0  0  0  0  0
  -18.9461  -30.1471   23.8895 C   0  0  0  0  0  0
  -17.6464  -30.6605   24.0558 C   0  0  0  0  0  0
  -25.9051  -34.9453   23.5101 C   0  0  0  0  0  0
  -16.5352  -29.9103   23.6331 C   0  0  0  0  0  0
  -16.7265  -28.6517   23.0354 C   0  0  0  0  0  0
  -26.4481  -31.6597   25.0717 C   0  0  0  0  0  0
  -25.3704  -31.3765   26.1443 C   0  0  0  0  0  0
  -27.0341  -30.3018   24.6200 C   0  0  0  0  0  0
  -27.6032  -32.4330   25.7499 C   0  0  0  0  0  0
  -27.5595  -37.1774   24.8439 C   0  0  0  0  0  0
  -21.4183  -29.3051   22.3683 N   0  0  0  0  0  0
  -26.4273  -37.3787   23.9436 N   0  0  0  0  0  0
  -24.6933  -31.0541   22.0971 N   0  0  0  0  0  0
  -23.4203  -28.8140   23.3043 O   0  0  0  0  0  0
  -28.3208  -26.3998   20.1549 O   0  0  0  0  0  0
  -26.5619  -34.8925   22.4664 O   0  0  0  0  0  0
  -23.5436  -32.1388   23.7294 O   0  0  0  0  0  0
  -29.0700  -17.7229   19.6140 C   0  0  0  0  0  0
  -30.1016  -18.6212   21.2784 C   0  0  0  0  0  0
  -29.8286  -17.3564   20.7716 C   0  0  0  0  0  0
  -30.5345  -24.1425   19.7974 C   0  0  0  0  0  0
  -28.7612  -22.2655   20.0735 C   0  0  0  0  0  0
  -29.7667  -21.1444   20.6353 C   0  0  0  0  0  0
  -28.0977  -24.9489   19.8584 C   0  0  0  0  0  0
  -30.2258  -15.9629   21.4242 C   0  0  1  0  0  0
  -29.1323  -23.8212   20.3433 C   0  0  2  0  0  0
  -29.4365  -15.7189   22.7249 C   0  0  0  0  0  0
  -28.9223  -19.0560   19.4438 N   0  0  0  0  0  0
  -29.5520  -19.6471   20.4924 N   0  0  0  0  0  0
  -28.1189  -15.7646   22.5254 F   0  0  0  0  0  0
  -29.7579  -16.6413   23.6349 F   0  0  0  0  0  0
  -31.4620  -12.5163   19.1701 H   0  0  0  0  0  0
  -30.3233  -11.4299   19.8885 H   0  0  0  0  0  0
  -29.7797  -11.8084   17.4639 H   0  0  0  0  0  0
  -29.6633  -13.5239   17.7497 H   0  0  0  0  0  0
  -27.8411  -11.3311   18.7987 H   0  0  0  0  0  0
  -27.3787  -12.6503   17.7572 H   0  0  0  0  0  0
  -27.6615  -14.2773   19.5306 H   0  0  0  0  0  0
  -28.7003  -12.0263   21.2985 H   0  0  0  0  0  0
  -28.3807  -13.6093   21.8570 H   0  0  0  0  0  0
  -25.2784   -9.5700   22.4708 H   0  0  0  0  0  0
  -23.9993   -7.4655   22.7489 H   0  0  0  0  0  0
  -21.0817   -8.8716   19.8974 H   0  0  0  0  0  0
  -22.3647  -10.9627   19.6116 H   0  0  0  0  0  0
  -21.2002   -7.6147   23.9717 H   0  0  0  0  0  0
  -21.1513   -6.0534   25.9097 H   0  0  0  0  0  0
  -22.0589   -2.7609   23.2852 H   0  0  0  0  0  0
  -22.4047  -11.9857   22.4829 H   0  0  0  0  0  0
  -21.1068  -13.1264   22.2599 H   0  0  0  0  0  0
  -24.6759  -15.8535   20.6152 H   0  0  0  0  0  0
  -26.3068  -15.6429   20.2313 H   0  0  0  0  0  0
  -26.7191  -32.5431   23.1077 H   0  0  0  0  0  0
  -25.0058  -33.9697   25.0400 H   0  0  0  0  0  0
  -22.7213  -31.3003   21.3948 H   0  0  0  0  0  0
  -23.3775  -35.9595   23.3203 H   0  0  0  0  0  0
  -24.3605  -36.9014   22.2070 H   0  0  0  0  0  0
  -23.7190  -37.6454   23.6709 H   0  0  0  0  0  0
  -26.0958  -31.5321   20.6014 H   0  0  0  0  0  0
  -26.8518  -30.8327   22.0024 H   0  0  0  0  0  0
  -28.1093  -28.9244   21.2210 H   0  0  0  0  0  0
  -25.9510  -25.9425   18.9438 H   0  0  0  0  0  0
  -23.9637  -27.3075   19.0101 H   0  0  0  0  0  0
  -23.7669  -30.5810   19.4032 H   0  0  0  0  0  0
  -22.7626  -29.2390   19.8589 H   0  0  0  0  0  0
  -25.1269  -36.1903   25.0818 H   0  0  0  0  0  0
  -20.9955  -28.3283   24.1408 H   0  0  0  0  0  0
  -20.5689  -26.2312   23.3622 H   0  0  0  0  0  0
  -21.6647  -26.7466   22.1212 H   0  0  0  0  0  0
  -19.6936  -25.6284   21.1265 H   0  0  0  0  0  0
  -19.6708  -27.3177   20.6740 H   0  0  0  0  0  0
  -17.4202  -26.6668   21.4018 H   0  0  0  0  0  0
  -18.0337  -26.0093   22.9028 H   0  0  0  0  0  0
  -19.7939  -30.7271   24.2288 H   0  0  0  0  0  0
  -17.5022  -31.6286   24.5160 H   0  0  0  0  0  0
  -15.5358  -30.3008   23.7677 H   0  0  0  0  0  0
  -15.8651  -28.0838   22.7088 H   0  0  0  0  0  0
  -24.5877  -30.7105   25.7784 H   0  0  0  0  0  0
  -24.8896  -32.2956   26.4820 H   0  0  0  0  0  0
  -25.8016  -30.8986   27.0251 H   0  0  0  0  0  0
  -26.2940  -29.6759   24.1198 H   0  0  0  0  0  0
  -27.4018  -29.7272   25.4713 H   0  0  0  0  0  0
  -27.8799  -30.4313   23.9438 H   0  0  0  0  0  0
  -27.2644  -33.3641   26.2051 H   0  0  0  0  0  0
  -28.3862  -32.6875   25.0345 H   0  0  0  0  0  0
  -28.0673  -31.8472   26.5448 H   0  0  0  0  0  0
  -28.2509  -38.0175   24.7638 H   0  0  0  0  0  0
  -28.1193  -36.2720   24.6047 H   0  0  0  0  0  0
  -27.2347  -37.1151   25.8843 H   0  0  0  0  0  0
  -20.9386  -29.8789   21.6878 H   0  0  0  0  0  0
  -26.0142  -38.2833   24.1539 H   0  0  0  0  0  0
  -28.6118  -17.0619   18.8910 H   0  0  0  0  0  0
  -30.6651  -18.8819   22.1620 H   0  0  0  0  0  0
  -31.3044  -23.6015   20.3498 H   0  0  0  0  0  0
  -30.7626  -25.2067   19.8915 H   0  0  0  0  0  0
  -30.6300  -23.8786   18.7432 H   0  0  0  0  0  0
  -27.7772  -22.0715   20.5012 H   0  0  0  0  0  0
  -28.6419  -22.1167   18.9993 H   0  0  0  0  0  0
  -29.8811  -21.3389   21.7024 H   0  0  0  0  0  0
  -30.7501  -21.3338   20.2089 H   0  0  0  0  0  0
  -27.1441  -24.6544   20.2970 H   0  0  0  0  0  0
  -27.9763  -24.8518   18.7774 H   0  0  0  0  0  0
  -31.2131  -16.1652   21.8409 H   0  0  0  0  0  0
  -29.1853  -23.9320   21.4262 H   0  0  0  0  0  0
  -29.6954  -14.7600   23.1764 H   0  0  0  0  0  0
  1 25  1  0  0  0
  1 30  2  0  0  0
  1 78  1  0  0  0
  2  3  1  0  0  0
  2 25  1  0  0  0
  2 85  1  0  0  0
  2 86  1  0  0  0
  3  4  1  0  0  0
  3 87  1  0  0  0
  3 88  1  0  0  0
  4  5  1  0  0  0
  4 89  1  0  0  0
  4 90  1  0  0  0
  5  6  1  0  0  0
  5 26  1  0  0  0
  5 91  1  0  0  0
  6 25  1  0  0  0
  6 92  1  0  0  0
  6 93  1  0  0  0
  7  8  2  0  0  0
  7 26  1  0  0  0
  7 29  1  0  0  0
  8  9  1  0  0  0
  8 22  1  0  0  0
  9 10  1  0  0  0
  9 27  2  0  0  0
 10 11  2  0  0  0
 10 15  1  0  0  0
 11 12  1  0  0  0
 11 94  1  0  0  0
 12 13  2  0  0  0
 12 95  1  0  0  0
 13 14  1  0  0  0
 13 31  1  0  0  0
 14 15  2  0  0  0
 14 96  1  0  0  0
 15 97  1  0  0  0
 16 17  2  0  0  0
 16 21  1  0  0  0
 16 31  1  0  0  0
 17 18  1  0  0  0
 17 98  1  0  0  0
 18 19  2  0  0  0
 18 99  1  0  0  0
 19 20  1  0  0  0
 19 24  1  0  0  0
 20 21  2  0  0  0
 20100  1  0  0  0
 21 23  1  0  0  0
 22 28  1  0  0  0
 22 32  2  0  0  0
 26 27  1  0  0  0
 28101  1  0  0  0
 28102  1  0  0  0
 29103  1  0  0  0
 29104  1  0  0  0
 33 34  1  0  0  0
 33 66  1  0  0  0
 33 70  2  0  0  0
 34 36  1  0  0  0
 34 59  1  0  0  0
 34105  1  0  0  0
 35 44  2  0  0  0
 35 45  1  0  0  0
 35 68  1  0  0  0
 36 56  1  0  0  0
 36106  1  0  0  0
 37 39  1  0  0  0
 37 47  1  0  0  0
 37 66  1  0  0  0
 37107  1  0  0  0
 38 43  2  0  0  0
 38 46  1  0  0  0
 38 47  1  0  0  0
 39 64  1  0  0  0
 39 67  2  0  0  0
 40 52  1  0  0  0
 40 53  2  0  0  0
 40 58  1  0  0  0
 41108  1  0  0  0
 41109  1  0  0  0
 41110  1  0  0  0
 41 48  1  0  0  0
 42 43  1  0  0  0
 42 66  1  0  0  0
 42111  1  0  0  0
 42112  1  0  0  0
 43 44  1  0  0  0
 44113  1  0  0  0
 45 46  2  0  0  0
 45114  1  0  0  0
 46115  1  0  0  0
 47116  1  0  0  0
 47117  1  0  0  0
 48 56  1  0  0  0
 48 65  1  0  0  0
 48118  1  0  0  0
 49 50  1  0  0  0
 49 53  1  0  0  0
 49 64  1  0  0  0
 49119  1  0  0  0
 50 51  1  0  0  0
 50120  1  0  0  0
 50121  1  0  0  0
 51 52  1  0  0  0
 51122  1  0  0  0
 51123  1  0  0  0
 52124  1  0  0  0
 52125  1  0  0  0
 53 54  1  0  0  0
 54 55  2  0  0  0
 54126  1  0  0  0
 55 57  1  0  0  0
 55127  1  0  0  0
 56 69  2  0  0  0
 57 58  2  0  0  0
 57128  1  0  0  0
 58129  1  0  0  0
 59 60  1  0  0  0
 59 61  1  0  0  0
 59 62  1  0  0  0
 60130  1  0  0  0
 60131  1  0  0  0
 60132  1  0  0  0
 61133  1  0  0  0
 61134  1  0  0  0
 61135  1  0  0  0
 62136  1  0  0  0
 62137  1  0  0  0
 62138  1  0  0  0
 63 65  1  0  0  0
 63139  1  0  0  0
 63140  1  0  0  0
 63141  1  0  0  0
 64142  1  0  0  0
 65143  1  0  0  0
 68 77  1  0  0  0
 71 73  1  0  0  0
 71 81  2  0  0  0
 71144  1  0  0  0
 72 73  2  0  0  0
 72 82  1  0  0  0
 72145  1  0  0  0
 73 78  1  0  0  0
 74146  1  0  0  0
 74147  1  0  0  0
 74148  1  0  0  0
 74 79  1  0  0  0
 75 76  1  0  0  0
 75 79  1  0  0  0
 75149  1  0  0  0
 75150  1  0  0  0
 76 82  1  0  0  0
 76151  1  0  0  0
 76152  1  0  0  0
 77 79  1  0  0  0
 77153  1  0  0  0
 77154  1  0  0  0
 78 80  1  0  0  0
 78155  1  0  0  0
 79156  1  0  0  0
 80 83  1  0  0  0
 80 84  1  0  0  0
 80157  1  0  0  0
 81 82  1  0  0  0
M  ISO  4   1 100  68 101  77 101  78 100
M  END
> <chiral flag>
0

> <version>
0

> <s_m_source_file>
/data/baiqing/PycharmProjects/Reinvent-master-3.2/result/LINK_invent/BTK/process_docking_weight1_custom_sum_contain_oxygen_bond_distance_aromatic_linkinvent_7_9_3/rearranged_h_0073.sdf

> <i_m_source_file_index>
40

> <r_mmod_Potential_Energy-OPLS-2005>
188.662689208984

> <r_mmod_Stretch_Energy-OPLS-2005>
109.910430908203

> <r_mmod_Bend_Energy-OPLS-2005>
204.7353515625

> <r_mmod_Torsional_Energy-OPLS-2005>
191.984390258789

> <r_mmod_Improper_Torsional_Energy-OPLS-2005>
2.66952538490295

> <r_mmod_Van_der_Waal_Energy-OPLS-2005>
121.612319946289

> <r_mmod_Electrostatic_Energy-OPLS-2005>
-298.516387939453

> <r_mmod_Solvation_Energy-OPLS-2005>
-203.502365112305

> <b_mmod_Minimization_Converged-OPLS-2005>
0

> <r_mmod_RMS_Derivative-OPLS-2005>
3.62431812286377

$$$$
40
                    3D
 Structure written by MMmdl.
161169  0  0  1  0            999 V2000
  -30.5911  -14.7416   20.4493 C   0  0  0  0  0  0
  -30.4301  -12.4550   19.4661 C   0  0  0  0  0  0
  -29.5064  -12.5185   18.2285 C   0  0  0  0  0  0
  -28.0283  -12.3555   18.6338 C   0  0  0  0  0  0
  -27.6410  -13.2349   19.8521 C   0  0  2  0  0  0
  -28.6866  -13.1571   20.9838 C   0  0  0  0  0  0
  -25.2542  -13.8208   20.5757 C   0  0  0  0  0  0
  -24.1812  -13.0453   20.9224 C   0  0  0  0  0  0
  -24.6392  -11.6931   20.8750 C   0  0  0  0  0  0
  -23.9068  -10.4307   21.0416 C   0  0  0  0  0  0
  -24.3614   -9.4231   21.9197 C   0  0  0  0  0  0
  -23.6297   -8.2250   22.0751 C   0  0  0  0  0  0
  -22.4285   -8.0281   21.3540 C   0  0  0  0  0  0
  -21.9916   -9.0253   20.4649 C   0  0  0  0  0  0
  -22.7231  -10.2150   20.3081 C   0  0  0  0  0  0
  -21.6857   -6.0750   22.5282 C   0  0  0  0  0  0
  -21.4020   -6.5651   23.8217 C   0  0  0  0  0  0
  -21.3656   -5.6800   24.9173 C   0  0  0  0  0  0
  -21.6053   -4.3055   24.7225 C   0  0  0  0  0  0
  -21.8822   -3.8156   23.4343 C   0  0  0  0  0  0
  -21.9196   -4.6968   22.3404 C   0  0  0  0  0  0
  -22.7836  -13.5264   21.1854 C   0  0  0  0  0  0
  -22.1664   -4.2162   21.0981 F   0  0  0  0  0  0
  -21.5627   -3.4542   25.7734 F   0  0  0  0  0  0
  -29.9847  -13.5085   20.4000 N   0  0  0  0  0  0
  -26.2945  -12.9407   20.3308 N   0  0  0  0  0  0
  -25.9313  -11.6553   20.5731 N   0  0  0  0  0  0
  -22.0453  -12.8262   22.0405 N   0  0  0  0  0  0
  -25.4298  -15.1925   20.4260 N   0  0  0  0  0  0
  -31.7805  -14.8612   20.1412 O   0  0  0  0  0  0
  -21.6652   -6.8868   21.4231 O   0  0  0  0  0  0
  -22.3538  -14.5564   20.6684 O   0  0  0  0  0  0
  -24.6283  -31.8564   23.2051 C   0  0  0  0  0  0
  -25.9135  -32.4748   23.8345 C   0  0  1  0  0  0
  -27.2119  -27.2930   20.1267 C   0  0  0  0  0  0
  -25.5946  -33.8555   24.2258 N   0  0  0  0  0  0
  -23.4175  -30.4835   21.5502 C   0  0  2  0  0  0
  -24.8614  -28.9235   20.1251 C   0  0  0  0  0  0
  -22.7456  -29.4629   22.5007 C   0  0  0  0  0  0
  -18.0314  -28.1296   22.8417 C   0  0  0  0  0  0
  -24.1475  -36.7287   23.2634 C   0  0  0  0  0  0
  -25.9613  -30.7802   21.3766 C   0  0  0  0  0  0
  -26.0343  -29.4050   20.7206 C   0  0  0  0  0  0
  -27.2177  -28.6023   20.7055 C   0  0  0  0  0  0
  -26.0148  -26.8626   19.5221 C   0  0  0  0  0  0
  -24.8533  -27.6569   19.5177 C   0  0  0  0  0  0
  -23.6347  -29.8131   20.1689 C   0  0  0  0  0  0
  -25.4097  -36.3076   24.0340 C   0  0  1  0  0  0
  -20.5905  -28.3607   23.1262 C   0  0  2  0  0  0
  -20.6821  -26.9371   22.5289 C   0  0  0  0  0  0
  -19.5806  -26.6471   21.5026 C   0  0  0  0  0  0
  -18.1974  -26.7890   22.1441 C   0  0  0  0  0  0
  -19.1564  -28.8747   23.2852 C   0  0  0  0  0  0
  -18.9473  -30.1324   23.8918 C   0  0  0  0  0  0
  -17.6475  -30.6478   24.0551 C   0  0  0  0  0  0
  -25.9045  -34.9442   23.5094 C   0  0  0  0  0  0
  -16.5372  -29.9007   23.6265 C   0  0  0  0  0  0
  -16.7304  -28.6425   23.0282 C   0  0  0  0  0  0
  -26.4505  -31.6558   25.0718 C   0  0  0  0  0  0
  -25.3712  -31.3779   26.1434 C   0  0  0  0  0  0
  -27.0356  -30.2963   24.6184 C   0  0  0  0  0  0
  -27.6046  -32.4299   25.7502 C   0  0  0  0  0  0
  -27.5580  -37.1823   24.8475 C   0  0  0  0  0  0
  -21.4179  -29.3042   22.3734 N   0  0  0  0  0  0
  -26.4277  -37.3769   23.9426 N   0  0  0  0  0  0
  -24.6880  -31.0567   22.1009 N   0  0  0  0  0  0
  -23.4156  -28.8166   23.3091 O   0  0  0  0  0  0
  -28.3215  -26.4333   20.0982 O   0  0  0  0  0  0
  -26.5619  -34.8938   22.4663 O   0  0  0  0  0  0
  -23.5458  -32.1393   23.7404 O   0  0  0  0  0  0
  -30.0498  -21.4335   22.7426 C   0  0  0  0  0  0
  -29.8961  -20.1484   22.2012 C   0  0  0  0  0  0
  -29.6116  -22.5541   22.0204 C   0  0  0  0  0  0
  -29.3198  -19.9756   20.9333 C   0  0  0  0  0  0
  -29.0214  -22.3974   20.7522 C   0  0  0  0  0  0
  -28.2875  -18.3955   19.1344 C   0  0  0  0  0  0
  -27.5432  -23.3442   18.9109 C   0  0  0  0  0  0
  -29.9403  -24.0700   19.1073 C   0  0  0  0  0  0
  -30.1667  -17.3348   20.5988 C   0  0  0  0  0  0
  -28.2061  -25.0600   20.6840 C   0  0  0  0  0  0
  -29.0070  -18.4688   20.4917 C   0  0  1  0  0  0
  -28.6726  -23.7090   19.8955 C   0  0  0  0  0  0
  -28.9123  -21.1055   20.2209 N   0  0  0  0  0  0
  -29.7882  -15.8541   20.6407 N   0  0  0  0  0  0
  -31.4688  -12.5907   19.1582 H   0  0  0  0  0  0
  -30.3740  -11.4785   19.9501 H   0  0  0  0  0  0
  -29.7861  -11.7475   17.5087 H   0  0  0  0  0  0
  -29.6345  -13.4745   17.7185 H   0  0  0  0  0  0
  -27.8622  -11.3041   18.8663 H   0  0  0  0  0  0
  -27.3812  -12.5960   17.7878 H   0  0  0  0  0  0
  -27.6326  -14.2616   19.4857 H   0  0  0  0  0  0
  -28.7235  -12.1624   21.4259 H   0  0  0  0  0  0
  -28.4276  -13.8413   21.7939 H   0  0  0  0  0  0
  -25.2753   -9.5749   22.4774 H   0  0  0  0  0  0
  -24.0020   -7.4680   22.7501 H   0  0  0  0  0  0
  -21.0834   -8.8801   19.8969 H   0  0  0  0  0  0
  -22.3677  -10.9708   19.6216 H   0  0  0  0  0  0
  -21.2013   -7.6167   23.9730 H   0  0  0  0  0  0
  -21.1477   -6.0526   25.9085 H   0  0  0  0  0  0
  -22.0605   -2.7618   23.2847 H   0  0  0  0  0  0
  -22.4020  -11.9868   22.4719 H   0  0  0  0  0  0
  -21.1110  -13.1372   22.2655 H   0  0  0  0  0  0
  -24.6626  -15.8468   20.5419 H   0  0  0  0  0  0
  -26.2754  -15.6315   20.0857 H   0  0  0  0  0  0
  -26.7206  -32.5406   23.1100 H   0  0  0  0  0  0
  -25.0120  -33.9657   25.0421 H   0  0  0  0  0  0
  -22.7104  -31.3035   21.4059 H   0  0  0  0  0  0
  -23.3740  -35.9621   23.3287 H   0  0  0  0  0  0
  -24.3562  -36.8898   22.2048 H   0  0  0  0  0  0
  -23.7227  -37.6498   23.6634 H   0  0  0  0  0  0
  -26.0942  -31.5423   20.6079 H   0  0  0  0  0  0
  -26.8418  -30.8230   22.0065 H   0  0  0  0  0  0
  -28.1238  -28.9687   21.1667 H   0  0  0  0  0  0
  -25.9763  -25.8914   19.0557 H   0  0  0  0  0  0
  -23.9527  -27.2773   19.0515 H   0  0  0  0  0  0
  -23.7706  -30.5844   19.4088 H   0  0  0  0  0  0
  -22.7500  -29.2576   19.8593 H   0  0  0  0  0  0
  -25.1271  -36.1906   25.0837 H   0  0  0  0  0  0
  -20.9971  -28.3121   24.1398 H   0  0  0  0  0  0
  -20.5694  -26.2194   23.3428 H   0  0  0  0  0  0
  -21.6684  -26.7421   22.1054 H   0  0  0  0  0  0
  -19.6977  -25.6452   21.0873 H   0  0  0  0  0  0
  -19.6732  -27.3426   20.6656 H   0  0  0  0  0  0
  -17.4310  -26.6752   21.3780 H   0  0  0  0  0  0
  -18.0350  -25.9890   22.8691 H   0  0  0  0  0  0
  -19.7962  -30.7066   24.2371 H   0  0  0  0  0  0
  -17.5041  -31.6127   24.5211 H   0  0  0  0  0  0
  -15.5377  -30.2905   23.7577 H   0  0  0  0  0  0
  -15.8695  -28.0752   22.7000 H   0  0  0  0  0  0
  -24.5845  -30.7140   25.7806 H   0  0  0  0  0  0
  -24.8964  -32.3011   26.4786 H   0  0  0  0  0  0
  -25.8017  -30.9015   27.0240 H   0  0  0  0  0  0
  -26.2976  -29.6731   24.1111 H   0  0  0  0  0  0
  -27.3952  -29.7176   25.4704 H   0  0  0  0  0  0
  -27.8870  -30.4247   23.9488 H   0  0  0  0  0  0
  -27.2599  -33.3570   26.2094 H   0  0  0  0  0  0
  -28.3866  -32.6896   25.0344 H   0  0  0  0  0  0
  -28.0672  -31.8390   26.5415 H   0  0  0  0  0  0
  -28.2609  -38.0109   24.7492 H   0  0  0  0  0  0
  -28.1073  -36.2655   24.6312 H   0  0  0  0  0  0
  -27.2320  -37.1461   25.8884 H   0  0  0  0  0  0
  -20.9353  -29.8817   21.6993 H   0  0  0  0  0  0
  -26.0166  -38.2851   24.1395 H   0  0  0  0  0  0
  -30.4937  -21.5643   23.7169 H   0  0  0  0  0  0
  -30.1928  -19.2896   22.7850 H   0  0  0  0  0  0
  -29.7734  -23.5256   22.4608 H   0  0  0  0  0  0
  -27.3597  -18.9695   19.1636 H   0  0  0  0  0  0
  -28.0160  -17.3704   18.8884 H   0  0  0  0  0  0
  -28.8994  -18.7837   18.3205 H   0  0  0  0  0  0
  -27.8777  -22.5843   18.2035 H   0  0  0  0  0  0
  -27.2171  -24.2048   18.3318 H   0  0  0  0  0  0
  -26.6779  -22.9408   19.4387 H   0  0  0  0  0  0
  -30.3186  -23.2145   18.5470 H   0  0  0  0  0  0
  -30.7368  -24.4004   19.7753 H   0  0  0  0  0  0
  -29.7397  -24.8821   18.4061 H   0  0  0  0  0  0
  -30.7341  -17.5123   21.5109 H   0  0  0  0  0  0
  -30.8780  -17.4857   19.7847 H   0  0  0  0  0  0
  -28.8181  -25.1520   21.5750 H   0  0  0  0  0  0
  -27.1975  -24.9167   21.0743 H   0  0  0  0  0  0
  -28.2617  -18.1690   21.2298 H   0  0  0  0  0  0
  -28.8231  -15.6537   20.8488 H   0  0  0  0  0  0
  1 25  1  0  0  0
  1 30  2  0  0  0
  1 84  1  0  0  0
  2  3  1  0  0  0
  2 25  1  0  0  0
  2 85  1  0  0  0
  2 86  1  0  0  0
  3  4  1  0  0  0
  3 87  1  0  0  0
  3 88  1  0  0  0
  4  5  1  0  0  0
  4 89  1  0  0  0
  4 90  1  0  0  0
  5  6  1  0  0  0
  5 26  1  0  0  0
  5 91  1  0  0  0
  6 25  1  0  0  0
  6 92  1  0  0  0
  6 93  1  0  0  0
  7  8  2  0  0  0
  7 26  1  0  0  0
  7 29  1  0  0  0
  8  9  1  0  0  0
  8 22  1  0  0  0
  9 10  1  0  0  0
  9 27  2  0  0  0
 10 11  2  0  0  0
 10 15  1  0  0  0
 11 12  1  0  0  0
 11 94  1  0  0  0
 12 13  2  0  0  0
 12 95  1  0  0  0
 13 14  1  0  0  0
 13 31  1  0  0  0
 14 15  2  0  0  0
 14 96  1  0  0  0
 15 97  1  0  0  0
 16 17  2  0  0  0
 16 21  1  0  0  0
 16 31  1  0  0  0
 17 18  1  0  0  0
 17 98  1  0  0  0
 18 19  2  0  0  0
 18 99  1  0  0  0
 19 20  1  0  0  0
 19 24  1  0  0  0
 20 21  2  0  0  0
 20100  1  0  0  0
 21 23  1  0  0  0
 22 28  1  0  0  0
 22 32  2  0  0  0
 26 27  1  0  0  0
 28101  1  0  0  0
 28102  1  0  0  0
 29103  1  0  0  0
 29104  1  0  0  0
 33 34  1  0  0  0
 33 66  1  0  0  0
 33 70  2  0  0  0
 34 36  1  0  0  0
 34 59  1  0  0  0
 34105  1  0  0  0
 35 44  2  0  0  0
 35 45  1  0  0  0
 35 68  1  0  0  0
 36 56  1  0  0  0
 36106  1  0  0  0
 37 39  1  0  0  0
 37 47  1  0  0  0
 37 66  1  0  0  0
 37107  1  0  0  0
 38 43  2  0  0  0
 38 46  1  0  0  0
 38 47  1  0  0  0
 39 64  1  0  0  0
 39 67  2  0  0  0
 40 52  1  0  0  0
 40 53  2  0  0  0
 40 58  1  0  0  0
 41108  1  0  0  0
 41109  1  0  0  0
 41110  1  0  0  0
 41 48  1  0  0  0
 42 43  1  0  0  0
 42 66  1  0  0  0
 42111  1  0  0  0
 42112  1  0  0  0
 43 44  1  0  0  0
 44113  1  0  0  0
 45 46  2  0  0  0
 45114  1  0  0  0
 46115  1  0  0  0
 47116  1  0  0  0
 47117  1  0  0  0
 48 56  1  0  0  0
 48 65  1  0  0  0
 48118  1  0  0  0
 49 50  1  0  0  0
 49 53  1  0  0  0
 49 64  1  0  0  0
 49119  1  0  0  0
 50 51  1  0  0  0
 50120  1  0  0  0
 50121  1  0  0  0
 51 52  1  0  0  0
 51122  1  0  0  0
 51123  1  0  0  0
 52124  1  0  0  0
 52125  1  0  0  0
 53 54  1  0  0  0
 54 55  2  0  0  0
 54126  1  0  0  0
 55 57  1  0  0  0
 55127  1  0  0  0
 56 69  2  0  0  0
 57 58  2  0  0  0
 57128  1  0  0  0
 58129  1  0  0  0
 59 60  1  0  0  0
 59 61  1  0  0  0
 59 62  1  0  0  0
 60130  1  0  0  0
 60131  1  0  0  0
 60132  1  0  0  0
 61133  1  0  0  0
 61134  1  0  0  0
 61135  1  0  0  0
 62136  1  0  0  0
 62137  1  0  0  0
 62138  1  0  0  0
 63 65  1  0  0  0
 63139  1  0  0  0
 63140  1  0  0  0
 63141  1  0  0  0
 64142  1  0  0  0
 65143  1  0  0  0
 68 80  1  0  0  0
 71 72  2  0  0  0
 71 73  1  0  0  0
 71144  1  0  0  0
 72 74  1  0  0  0
 72145  1  0  0  0
 73 75  2  0  0  0
 73146  1  0  0  0
 74 81  1  0  0  0
 74 83  2  0  0  0
 75 82  1  0  0  0
 75 83  1  0  0  0
 76147  1  0  0  0
 76148  1  0  0  0
 76149  1  0  0  0
 76 81  1  0  0  0
 77150  1  0  0  0
 77151  1  0  0  0
 77152  1  0  0  0
 77 82  1  0  0  0
 78 82  1  0  0  0
 78153  1  0  0  0
 78154  1  0  0  0
 78155  1  0  0  0
 79 81  1  0  0  0
 79 84  1  0  0  0
 79156  1  0  0  0
 79157  1  0  0  0
 80 82  1  0  0  0
 80158  1  0  0  0
 80159  1  0  0  0
 81160  1  0  0  0
 84161  1  0  0  0
M  ISO  4   1 100  68 101  80 101  84 100
M  END
> <chiral flag>
0

> <version>
0

> <s_m_source_file>
/data/baiqing/PycharmProjects/Reinvent-master-3.2/result/LINK_invent/BTK/process_docking_weight1_custom_sum_contain_oxygen_bond_distance_aromatic_linkinvent_7_9_3/rearranged_h_0073.sdf

> <i_m_source_file_index>
41

> <r_mmod_Potential_Energy-OPLS-2005>
-1.82063090801239

> <r_mmod_Stretch_Energy-OPLS-2005>
123.03694152832

> <r_mmod_Bend_Energy-OPLS-2005>
167.122970581055

> <r_mmod_Torsional_Energy-OPLS-2005>
241.437149047852

> <r_mmod_Improper_Torsional_Energy-OPLS-2005>
5.98108339309692

> <r_mmod_Van_der_Waal_Energy-OPLS-2005>
137.645370483398

> <r_mmod_Electrostatic_Energy-OPLS-2005>
-539.295532226562

> <r_mmod_Solvation_Energy-OPLS-2005>
-212.890914916992

> <b_mmod_Minimization_Converged-OPLS-2005>
0

> <r_mmod_RMS_Derivative-OPLS-2005>
4.54373121261597

$$$$
41
                    3D
 Structure written by MMmdl.
154162  0  0  1  0            999 V2000
  -30.6328  -14.6921   20.4832 C   0  0  0  0  0  0
  -30.4410  -12.4088   19.4612 C   0  0  0  0  0  0
  -29.5108  -12.4988   18.2298 C   0  0  0  0  0  0
  -28.0359  -12.3272   18.6454 C   0  0  0  0  0  0
  -27.6543  -13.2180   19.8557 C   0  0  2  0  0  0
  -28.7063  -13.1204   20.9850 C   0  0  0  0  0  0
  -25.2571  -13.8155   20.5688 C   0  0  0  0  0  0
  -24.1843  -13.0427   20.9180 C   0  0  0  0  0  0
  -24.6417  -11.6898   20.8732 C   0  0  0  0  0  0
  -23.9084  -10.4286   21.0397 C   0  0  0  0  0  0
  -24.3621   -9.4204   21.9184 C   0  0  0  0  0  0
  -23.6290   -8.2233   22.0754 C   0  0  0  0  0  0
  -22.4283   -8.0275   21.3529 C   0  0  0  0  0  0
  -21.9918   -9.0258   20.4635 C   0  0  0  0  0  0
  -22.7249  -10.2123   20.3048 C   0  0  0  0  0  0
  -21.6854   -6.0734   22.5273 C   0  0  0  0  0  0
  -21.4018   -6.5640   23.8218 C   0  0  0  0  0  0
  -21.3658   -5.6797   24.9184 C   0  0  0  0  0  0
  -21.6037   -4.3053   24.7230 C   0  0  0  0  0  0
  -21.8817   -3.8146   23.4361 C   0  0  0  0  0  0
  -21.9192   -4.6963   22.3410 C   0  0  0  0  0  0
  -22.7851  -13.5194   21.1860 C   0  0  0  0  0  0
  -22.1660   -4.2145   21.0988 F   0  0  0  0  0  0
  -21.5626   -3.4548   25.7749 F   0  0  0  0  0  0
  -30.0220  -13.4577   20.4187 N   0  0  0  0  0  0
  -26.3019  -12.9353   20.3318 N   0  0  0  0  0  0
  -25.9359  -11.6504   20.5763 N   0  0  0  0  0  0
  -22.0523  -12.8166   22.0407 N   0  0  0  0  0  0
  -25.4271  -15.1884   20.4095 N   0  0  0  0  0  0
  -31.7922  -14.8210   20.0766 O   0  0  0  0  0  0
  -21.6628   -6.8882   21.4238 O   0  0  0  0  0  0
  -22.3533  -14.5522   20.6736 O   0  0  0  0  0  0
  -24.6312  -31.8544   23.1985 C   0  0  0  0  0  0
  -25.9135  -32.4752   23.8327 C   0  0  1  0  0  0
  -27.2466  -27.2828   20.1285 C   0  0  0  0  0  0
  -25.5926  -33.8558   24.2259 N   0  0  0  0  0  0
  -23.4306  -30.4748   21.5377 C   0  0  2  0  0  0
  -24.8853  -28.9194   20.1145 C   0  0  0  0  0  0
  -22.7515  -29.4585   22.4872 C   0  0  0  0  0  0
  -18.0299  -28.1379   22.8470 C   0  0  0  0  0  0
  -24.1473  -36.7269   23.2639 C   0  0  0  0  0  0
  -25.9744  -30.7706   21.3795 C   0  0  0  0  0  0
  -26.0522  -29.3928   20.7262 C   0  0  0  0  0  0
  -27.2352  -28.5878   20.7215 C   0  0  0  0  0  0
  -26.0577  -26.8709   19.4871 C   0  0  0  0  0  0
  -24.8911  -27.6649   19.4841 C   0  0  0  0  0  0
  -23.6538  -29.8060   20.1548 C   0  0  0  0  0  0
  -25.4099  -36.3063   24.0335 C   0  0  1  0  0  0
  -20.5906  -28.3704   23.1248 C   0  0  2  0  0  0
  -20.6781  -26.9415   22.5403 C   0  0  0  0  0  0
  -19.5757  -26.6381   21.5193 C   0  0  0  0  0  0
  -18.1925  -26.7925   22.1606 C   0  0  0  0  0  0
  -19.1556  -28.8850   23.2851 C   0  0  0  0  0  0
  -18.9488  -30.1437   23.8902 C   0  0  0  0  0  0
  -17.6506  -30.6586   24.0557 C   0  0  0  0  0  0
  -25.9053  -34.9438   23.5100 C   0  0  0  0  0  0
  -16.5376  -29.9096   23.6330 C   0  0  0  0  0  0
  -16.7283  -28.6502   23.0354 C   0  0  0  0  0  0
  -26.4522  -31.6577   25.0712 C   0  0  0  0  0  0
  -25.3746  -31.3718   26.1435 C   0  0  0  0  0  0
  -27.0401  -30.3007   24.6187 C   0  0  0  0  0  0
  -27.6065  -32.4334   25.7495 C   0  0  0  0  0  0
  -27.5566  -37.1789   24.8467 C   0  0  0  0  0  0
  -21.4216  -29.3067   22.3643 N   0  0  0  0  0  0
  -26.4276  -37.3764   23.9424 N   0  0  0  0  0  0
  -24.6973  -31.0502   22.0949 N   0  0  0  0  0  0
  -23.4210  -28.8096   23.2964 O   0  0  0  0  0  0
  -28.3762  -26.4334   20.1308 O   0  0  0  0  0  0
  -26.5627  -34.8909   22.4661 O   0  0  0  0  0  0
  -23.5458  -32.1363   23.7269 O   0  0  0  0  0  0
  -29.5156  -18.4512   19.9993 C   0  0  0  0  0  0
  -30.0750  -19.7069   20.2375 C   0  0  0  0  0  0
  -31.1781  -19.3396   21.0725 C   0  0  0  0  0  0
  -32.2403  -20.2495   21.6268 C   0  0  0  0  0  0
  -29.7288  -21.1421   19.6564 C   0  0  0  0  0  0
  -29.8139  -15.9810   20.9582 C   0  0  0  0  0  0
  -29.2960  -22.3798   20.5910 C   0  0  0  0  0  0
  -29.2879  -23.8784   19.9655 C   0  0  0  0  0  0
  -28.2183  -24.9799   20.4670 C   0  0  0  0  0  0
  -31.2359  -18.0255   21.3467 N   0  0  0  0  0  0
  -30.2136  -17.4274   20.6786 N   0  0  0  0  0  0
  -31.4847  -12.5134   19.1610 H   0  0  0  0  0  0
  -30.3613  -11.4230   19.9216 H   0  0  0  0  0  0
  -29.7801  -11.7373   17.4958 H   0  0  0  0  0  0
  -29.6433  -13.4622   17.7356 H   0  0  0  0  0  0
  -27.8882  -11.2768   18.9001 H   0  0  0  0  0  0
  -27.3750  -12.5295   17.8011 H   0  0  0  0  0  0
  -27.6558  -14.2404   19.4812 H   0  0  0  0  0  0
  -28.7237  -12.1149   21.4062 H   0  0  0  0  0  0
  -28.4488  -13.7832   21.8114 H   0  0  0  0  0  0
  -25.2773   -9.5663   22.4754 H   0  0  0  0  0  0
  -24.0008   -7.4617   22.7474 H   0  0  0  0  0  0
  -21.0854   -8.8756   19.8939 H   0  0  0  0  0  0
  -22.3722  -10.9650   19.6147 H   0  0  0  0  0  0
  -21.2016   -7.6146   23.9718 H   0  0  0  0  0  0
  -21.1479   -6.0529   25.9081 H   0  0  0  0  0  0
  -22.0597   -2.7609   23.2864 H   0  0  0  0  0  0
  -22.4155  -11.9804   22.4748 H   0  0  0  0  0  0
  -21.1135  -13.1151   22.2643 H   0  0  0  0  0  0
  -24.6555  -15.8386   20.5092 H   0  0  0  0  0  0
  -26.2773  -15.6325   20.0898 H   0  0  0  0  0  0
  -26.7203  -32.5428   23.1071 H   0  0  0  0  0  0
  -25.0091  -33.9681   25.0425 H   0  0  0  0  0  0
  -22.7265  -31.2963   21.3832 H   0  0  0  0  0  0
  -23.3741  -35.9597   23.3324 H   0  0  0  0  0  0
  -24.3562  -36.8880   22.2051 H   0  0  0  0  0  0
  -23.7233  -37.6473   23.6666 H   0  0  0  0  0  0
  -26.1099  -31.5272   20.6071 H   0  0  0  0  0  0
  -26.8529  -30.8250   22.0106 H   0  0  0  0  0  0
  -28.1309  -28.9455   21.2095 H   0  0  0  0  0  0
  -26.0173  -25.9226   18.9700 H   0  0  0  0  0  0
  -24.0041  -27.2994   18.9857 H   0  0  0  0  0  0
  -23.7865  -30.5827   19.3997 H   0  0  0  0  0  0
  -22.7757  -29.2402   19.8403 H   0  0  0  0  0  0
  -25.1273  -36.1912   25.0832 H   0  0  0  0  0  0
  -20.9997  -28.3282   24.1367 H   0  0  0  0  0  0
  -20.5659  -26.2305   23.3606 H   0  0  0  0  0  0
  -21.6647  -26.7402   22.1213 H   0  0  0  0  0  0
  -19.6926  -25.6289   21.1230 H   0  0  0  0  0  0
  -19.6711  -27.3189   20.6722 H   0  0  0  0  0  0
  -17.4200  -26.6684   21.3998 H   0  0  0  0  0  0
  -18.0317  -26.0036   22.8976 H   0  0  0  0  0  0
  -19.7962  -30.7220   24.2300 H   0  0  0  0  0  0
  -17.5058  -31.6278   24.5140 H   0  0  0  0  0  0
  -15.5390  -30.3006   23.7640 H   0  0  0  0  0  0
  -15.8673  -28.0825   22.7088 H   0  0  0  0  0  0
  -24.5950  -30.7034   25.7766 H   0  0  0  0  0  0
  -24.8899  -32.2876   26.4821 H   0  0  0  0  0  0
  -25.8049  -30.8934   27.0240 H   0  0  0  0  0  0
  -26.2993  -29.6724   24.1233 H   0  0  0  0  0  0
  -27.4141  -29.7288   25.4689 H   0  0  0  0  0  0
  -27.8828  -30.4311   23.9400 H   0  0  0  0  0  0
  -27.2691  -33.3681   26.1986 H   0  0  0  0  0  0
  -28.3918  -32.6832   25.0348 H   0  0  0  0  0  0
  -28.0684  -31.8517   26.5481 H   0  0  0  0  0  0
  -28.2577  -38.0085   24.7503 H   0  0  0  0  0  0
  -28.1067  -36.2619   24.6309 H   0  0  0  0  0  0
  -27.2293  -37.1466   25.8870 H   0  0  0  0  0  0
  -20.9384  -29.8835   21.6898 H   0  0  0  0  0  0
  -26.0153  -38.2835   24.1432 H   0  0  0  0  0  0
  -28.6524  -18.1965   19.4001 H   0  0  0  0  0  0
  -33.2297  -19.9833   21.2492 H   0  0  0  0  0  0
  -32.2725  -20.2083   22.7162 H   0  0  0  0  0  0
  -32.0578  -21.2872   21.3471 H   0  0  0  0  0  0
  -28.9464  -21.0352   18.9048 H   0  0  0  0  0  0
  -30.5923  -21.4801   19.0815 H   0  0  0  0  0  0
  -28.8077  -15.8758   20.5627 H   0  0  0  0  0  0
  -29.7081  -15.8903   22.0384 H   0  0  0  0  0  0
  -29.9721  -22.3970   21.4493 H   0  0  0  0  0  0
  -28.3145  -22.1582   21.0114 H   0  0  0  0  0  0
  -29.1861  -23.7937   18.8834 H   0  0  0  0  0  0
  -30.2877  -24.2933   20.1128 H   0  0  0  0  0  0
  -28.1849  -24.9286   21.5557 H   0  0  0  0  0  0
  -27.2437  -24.6160   20.1471 H   0  0  0  0  0  0
  1 25  1  0  0  0
  1 30  2  0  0  0
  1 76  1  0  0  0
  2  3  1  0  0  0
  2 25  1  0  0  0
  2 82  1  0  0  0
  2 83  1  0  0  0
  3  4  1  0  0  0
  3 84  1  0  0  0
  3 85  1  0  0  0
  4  5  1  0  0  0
  4 86  1  0  0  0
  4 87  1  0  0  0
  5  6  1  0  0  0
  5 26  1  0  0  0
  5 88  1  0  0  0
  6 25  1  0  0  0
  6 89  1  0  0  0
  6 90  1  0  0  0
  7  8  2  0  0  0
  7 26  1  0  0  0
  7 29  1  0  0  0
  8  9  1  0  0  0
  8 22  1  0  0  0
  9 10  1  0  0  0
  9 27  2  0  0  0
 10 11  2  0  0  0
 10 15  1  0  0  0
 11 12  1  0  0  0
 11 91  1  0  0  0
 12 13  2  0  0  0
 12 92  1  0  0  0
 13 14  1  0  0  0
 13 31  1  0  0  0
 14 15  2  0  0  0
 14 93  1  0  0  0
 15 94  1  0  0  0
 16 17  2  0  0  0
 16 21  1  0  0  0
 16 31  1  0  0  0
 17 18  1  0  0  0
 17 95  1  0  0  0
 18 19  2  0  0  0
 18 96  1  0  0  0
 19 20  1  0  0  0
 19 24  1  0  0  0
 20 21  2  0  0  0
 20 97  1  0  0  0
 21 23  1  0  0  0
 22 28  1  0  0  0
 22 32  2  0  0  0
 26 27  1  0  0  0
 28 98  1  0  0  0
 28 99  1  0  0  0
 29100  1  0  0  0
 29101  1  0  0  0
 33 34  1  0  0  0
 33 66  1  0  0  0
 33 70  2  0  0  0
 34 36  1  0  0  0
 34 59  1  0  0  0
 34102  1  0  0  0
 35 44  2  0  0  0
 35 45  1  0  0  0
 35 68  1  0  0  0
 36 56  1  0  0  0
 36103  1  0  0  0
 37 39  1  0  0  0
 37 47  1  0  0  0
 37 66  1  0  0  0
 37104  1  0  0  0
 38 43  2  0  0  0
 38 46  1  0  0  0
 38 47  1  0  0  0
 39 64  1  0  0  0
 39 67  2  0  0  0
 40 52  1  0  0  0
 40 53  2  0  0  0
 40 58  1  0  0  0
 41105  1  0  0  0
 41106  1  0  0  0
 41107  1  0  0  0
 41 48  1  0  0  0
 42 43  1  0  0  0
 42 66  1  0  0  0
 42108  1  0  0  0
 42109  1  0  0  0
 43 44  1  0  0  0
 44110  1  0  0  0
 45 46  2  0  0  0
 45111  1  0  0  0
 46112  1  0  0  0
 47113  1  0  0  0
 47114  1  0  0  0
 48 56  1  0  0  0
 48 65  1  0  0  0
 48115  1  0  0  0
 49 50  1  0  0  0
 49 53  1  0  0  0
 49 64  1  0  0  0
 49116  1  0  0  0
 50 51  1  0  0  0
 50117  1  0  0  0
 50118  1  0  0  0
 51 52  1  0  0  0
 51119  1  0  0  0
 51120  1  0  0  0
 52121  1  0  0  0
 52122  1  0  0  0
 53 54  1  0  0  0
 54 55  2  0  0  0
 54123  1  0  0  0
 55 57  1  0  0  0
 55124  1  0  0  0
 56 69  2  0  0  0
 57 58  2  0  0  0
 57125  1  0  0  0
 58126  1  0  0  0
 59 60  1  0  0  0
 59 61  1  0  0  0
 59 62  1  0  0  0
 60127  1  0  0  0
 60128  1  0  0  0
 60129  1  0  0  0
 61130  1  0  0  0
 61131  1  0  0  0
 61132  1  0  0  0
 62133  1  0  0  0
 62134  1  0  0  0
 62135  1  0  0  0
 63 65  1  0  0  0
 63136  1  0  0  0
 63137  1  0  0  0
 63138  1  0  0  0
 64139  1  0  0  0
 65140  1  0  0  0
 68 79  1  0  0  0
 71 72  2  0  0  0
 71 81  1  0  0  0
 71141  1  0  0  0
 72 73  1  0  0  0
 72 75  1  0  0  0
 73 74  1  0  0  0
 73 80  2  0  0  0
 74142  1  0  0  0
 74143  1  0  0  0
 74144  1  0  0  0
 75 77  1  0  0  0
 75145  1  0  0  0
 75146  1  0  0  0
 76 81  1  0  0  0
 76147  1  0  0  0
 76148  1  0  0  0
 77 78  1  0  0  0
 77149  1  0  0  0
 77150  1  0  0  0
 78 79  1  0  0  0
 78151  1  0  0  0
 78152  1  0  0  0
 79153  1  0  0  0
 79154  1  0  0  0
 80 81  1  0  0  0
M  ISO  4   1 100  68 101  76 100  79 101
M  END
> <chiral flag>
0

> <version>
0

> <s_m_source_file>
/data/baiqing/PycharmProjects/Reinvent-master-3.2/result/LINK_invent/BTK/process_docking_weight1_custom_sum_contain_oxygen_bond_distance_aromatic_linkinvent_7_9_3/rearranged_h_0073.sdf

> <i_m_source_file_index>
42

> <r_mmod_Potential_Energy-OPLS-2005>
136.211502075195

> <r_mmod_Stretch_Energy-OPLS-2005>
110.839958190918

> <r_mmod_Bend_Energy-OPLS-2005>
159.760650634766

> <r_mmod_Torsional_Energy-OPLS-2005>
205.440383911133

> <r_mmod_Improper_Torsional_Energy-OPLS-2005>
4.83299160003662

> <r_mmod_Van_der_Waal_Energy-OPLS-2005>
110.476425170898

> <r_mmod_Electrostatic_Energy-OPLS-2005>
-293.803527832031

> <r_mmod_Solvation_Energy-OPLS-2005>
-223.977325439453

> <b_mmod_Minimization_Converged-OPLS-2005>
0

> <r_mmod_RMS_Derivative-OPLS-2005>
3.9570460319519

$$$$
42
                    3D
 Structure written by MMmdl.
165173  0  0  1  0            999 V2000
  -30.7338  -14.4282   20.5907 C   0  0  0  0  0  0
  -30.4234  -12.2807   19.4398 C   0  0  0  0  0  0
  -29.5215  -12.5239   18.2164 C   0  0  0  0  0  0
  -28.0279  -12.4250   18.5962 C   0  0  0  0  0  0
  -27.6700  -13.2200   19.8846 C   0  0  2  0  0  0
  -28.7071  -12.9688   21.0029 C   0  0  0  0  0  0
  -25.2625  -13.8168   20.5639 C   0  0  0  0  0  0
  -24.1884  -13.0437   20.9141 C   0  0  0  0  0  0
  -24.6459  -11.6913   20.8683 C   0  0  0  0  0  0
  -23.9108  -10.4305   21.0374 C   0  0  0  0  0  0
  -24.3653   -9.4232   21.9167 C   0  0  0  0  0  0
  -23.6316   -8.2281   22.0762 C   0  0  0  0  0  0
  -22.4291   -8.0298   21.3551 C   0  0  0  0  0  0
  -21.9919   -9.0274   20.4653 C   0  0  0  0  0  0
  -22.7266  -10.2144   20.3045 C   0  0  0  0  0  0
  -21.6890   -6.0730   22.5276 C   0  0  0  0  0  0
  -21.4027   -6.5639   23.8204 C   0  0  0  0  0  0
  -21.3674   -5.6800   24.9180 C   0  0  0  0  0  0
  -21.6064   -4.3059   24.7223 C   0  0  0  0  0  0
  -21.8837   -3.8146   23.4336 C   0  0  0  0  0  0
  -21.9213   -4.6965   22.3395 C   0  0  0  0  0  0
  -22.7909  -13.5234   21.1787 C   0  0  0  0  0  0
  -22.1683   -4.2162   21.0976 F   0  0  0  0  0  0
  -21.5626   -3.4532   25.7724 F   0  0  0  0  0  0
  -30.0478  -13.2611   20.4617 N   0  0  0  0  0  0
  -26.3094  -12.9370   20.3360 N   0  0  0  0  0  0
  -25.9379  -11.6507   20.5672 N   0  0  0  0  0  0
  -22.0543  -12.8250   22.0349 N   0  0  0  0  0  0
  -25.4271  -15.1903   20.4053 N   0  0  0  0  0  0
  -31.8758  -14.6038   20.1623 O   0  0  0  0  0  0
  -21.6673   -6.8872   21.4232 O   0  0  0  0  0  0
  -22.3602  -14.5540   20.6624 O   0  0  0  0  0  0
  -24.6102  -31.8704   23.2140 C   0  0  0  0  0  0
  -25.9014  -32.4839   23.8416 C   0  0  1  0  0  0
  -27.2428  -27.4760   20.0707 C   0  0  0  0  0  0
  -25.5891  -33.8647   24.2360 N   0  0  0  0  0  0
  -23.3970  -30.4944   21.5543 C   0  0  2  0  0  0
  -24.8441  -28.9592   20.1242 C   0  0  0  0  0  0
  -22.7389  -29.4658   22.5000 C   0  0  0  0  0  0
  -18.0263  -28.1385   22.8486 C   0  0  0  0  0  0
  -24.1485  -36.7320   23.2632 C   0  0  0  0  0  0
  -25.9208  -30.8463   21.3613 C   0  0  0  0  0  0
  -26.0040  -29.4819   20.7131 C   0  0  0  0  0  0
  -27.2073  -28.7458   20.6876 C   0  0  0  0  0  0
  -26.0687  -26.9594   19.4839 C   0  0  0  0  0  0
  -24.8669  -27.6924   19.5153 C   0  0  0  0  0  0
  -23.6046  -29.8261   20.1711 C   0  0  0  0  0  0
  -25.4102  -36.3135   24.0346 C   0  0  1  0  0  0
  -20.5853  -28.3665   23.1337 C   0  0  2  0  0  0
  -20.6751  -26.9403   22.5415 C   0  0  0  0  0  0
  -19.5728  -26.6399   21.5207 C   0  0  0  0  0  0
  -18.1911  -26.7930   22.1616 C   0  0  0  0  0  0
  -19.1509  -28.8833   23.2912 C   0  0  0  0  0  0
  -18.9440  -30.1440   23.8922 C   0  0  0  0  0  0
  -17.6448  -30.6586   24.0579 C   0  0  0  0  0  0
  -25.9034  -34.9500   23.5142 C   0  0  0  0  0  0
  -16.5342  -29.9100   23.6330 C   0  0  0  0  0  0
  -16.7256  -28.6520   23.0345 C   0  0  0  0  0  0
  -26.4458  -31.6623   25.0733 C   0  0  0  0  0  0
  -25.3745  -31.3720   26.1503 C   0  0  0  0  0  0
  -27.0272  -30.3078   24.6059 C   0  0  0  0  0  0
  -27.6044  -32.4348   25.7477 C   0  0  0  0  0  0
  -27.5588  -37.1807   24.8467 C   0  0  0  0  0  0
  -21.4114  -29.3042   22.3758 N   0  0  0  0  0  0
  -26.4293  -37.3811   23.9420 N   0  0  0  0  0  0
  -24.6615  -31.0835   22.1028 N   0  0  0  0  0  0
  -23.4165  -28.8190   23.3038 O   0  0  0  0  0  0
  -28.4307  -26.7972   19.9385 O   0  0  0  0  0  0
  -26.5575  -34.8937   22.4691 O   0  0  0  0  0  0
  -23.5313  -32.1436   23.7566 O   0  0  0  0  0  0
  -31.4515  -20.1218   19.7346 C   0  0  0  0  0  0
  -29.3955  -20.8220   19.6028 C   0  0  0  0  0  0
  -30.5989  -19.0349   19.7203 C   0  0  0  0  0  0
  -31.6704  -17.0417   17.3357 C   0  0  0  0  0  0
  -27.5122  -25.0185   21.4651 C   0  0  0  0  0  0
  -30.5273  -16.9252   18.3611 C   0  0  0  0  0  0
  -30.2556  -23.5607   20.6442 C   0  0  0  0  0  0
  -29.5304  -24.7022   19.8972 C   0  0  0  0  0  0
  -31.0989  -22.6547   19.7075 C   0  0  0  0  0  0
  -30.3152  -16.8900   21.0317 C   0  0  0  0  0  0
  -30.8987  -17.5493   19.7360 C   0  0  2  0  0  0
  -28.7293  -25.6828   20.7881 C   0  0  1  0  0  0
  -29.2828  -19.4999   19.6284 N   0  0  0  0  0  0
  -30.6553  -21.2672   19.7008 N   0  0  0  0  0  0
  -29.9920  -15.4526   21.0258 N   0  0  0  0  0  0
  -31.4768  -12.3585   19.1660 H   0  0  0  0  0  0
  -30.2853  -11.2698   19.8284 H   0  0  0  0  0  0
  -29.7589  -11.8059   17.4318 H   0  0  0  0  0  0
  -29.7368  -13.5087   17.8013 H   0  0  0  0  0  0
  -27.7880  -11.3679   18.7174 H   0  0  0  0  0  0
  -27.4185  -12.7856   17.7672 H   0  0  0  0  0  0
  -27.7138  -14.2811   19.6357 H   0  0  0  0  0  0
  -28.6651  -11.9282   21.3285 H   0  0  0  0  0  0
  -28.4759  -13.5584   21.8905 H   0  0  0  0  0  0
  -25.2800   -9.5736   22.4725 H   0  0  0  0  0  0
  -24.0065   -7.4682   22.7486 H   0  0  0  0  0  0
  -21.0828   -8.8774   19.8927 H   0  0  0  0  0  0
  -22.3714  -10.9679   19.6141 H   0  0  0  0  0  0
  -21.2013   -7.6145   23.9693 H   0  0  0  0  0  0
  -21.1475   -6.0525   25.9079 H   0  0  0  0  0  0
  -22.0593   -2.7596   23.2828 H   0  0  0  0  0  0
  -22.4172  -11.9922   22.4755 H   0  0  0  0  0  0
  -21.1150  -13.1256   22.2476 H   0  0  0  0  0  0
  -24.6423  -15.8264   20.4880 H   0  0  0  0  0  0
  -26.2739  -15.6430   20.0785 H   0  0  0  0  0  0
  -26.7075  -32.5591   23.1190 H   0  0  0  0  0  0
  -25.0093  -33.9804   25.0531 H   0  0  0  0  0  0
  -22.6850  -31.3095   21.4160 H   0  0  0  0  0  0
  -23.3756  -35.9643   23.3297 H   0  0  0  0  0  0
  -24.3590  -36.8918   22.2048 H   0  0  0  0  0  0
  -23.7224  -37.6519   23.6630 H   0  0  0  0  0  0
  -26.0220  -31.6135   20.5926 H   0  0  0  0  0  0
  -26.8137  -30.9073   21.9706 H   0  0  0  0  0  0
  -28.1131  -29.1554   21.1111 H   0  0  0  0  0  0
  -26.0907  -25.9990   18.9882 H   0  0  0  0  0  0
  -23.9750  -27.2853   19.0599 H   0  0  0  0  0  0
  -23.7116  -30.6015   19.4108 H   0  0  0  0  0  0
  -22.7299  -29.2447   19.8742 H   0  0  0  0  0  0
  -25.1269  -36.2002   25.0834 H   0  0  0  0  0  0
  -20.9935  -28.3211   24.1465 H   0  0  0  0  0  0
  -20.5675  -26.2247   23.3581 H   0  0  0  0  0  0
  -21.6621  -26.7463   22.1188 H   0  0  0  0  0  0
  -19.6895  -25.6320   21.1213 H   0  0  0  0  0  0
  -19.6694  -27.3227   20.6750 H   0  0  0  0  0  0
  -17.4183  -26.6700   21.4020 H   0  0  0  0  0  0
  -18.0314  -26.0069   22.9004 H   0  0  0  0  0  0
  -19.7923  -30.7246   24.2310 H   0  0  0  0  0  0
  -17.5016  -31.6278   24.5174 H   0  0  0  0  0  0
  -15.5348  -30.3028   23.7633 H   0  0  0  0  0  0
  -15.8648  -28.0867   22.7035 H   0  0  0  0  0  0
  -24.5912  -30.7055   25.7874 H   0  0  0  0  0  0
  -24.8928  -32.2866   26.4982 H   0  0  0  0  0  0
  -25.8132  -30.8895   27.0250 H   0  0  0  0  0  0
  -26.2784  -29.6858   24.1137 H   0  0  0  0  0  0
  -27.4087  -29.7307   25.4494 H   0  0  0  0  0  0
  -27.8605  -30.4415   23.9154 H   0  0  0  0  0  0
  -27.2658  -33.3645   26.2069 H   0  0  0  0  0  0
  -28.3831  -32.6924   25.0286 H   0  0  0  0  0  0
  -28.0724  -31.8467   26.5376 H   0  0  0  0  0  0
  -28.2598  -38.0113   24.7542 H   0  0  0  0  0  0
  -28.1094  -36.2653   24.6263 H   0  0  0  0  0  0
  -27.2315  -37.1422   25.8871 H   0  0  0  0  0  0
  -20.9256  -29.8795   21.7017 H   0  0  0  0  0  0
  -26.0198  -38.2882   24.1456 H   0  0  0  0  0  0
  -32.5309  -20.1753   19.7649 H   0  0  0  0  0  0
  -28.5428  -21.4823   19.5286 H   0  0  0  0  0  0
  -32.0177  -18.0700   17.2309 H   0  0  0  0  0  0
  -31.3591  -16.6948   16.3486 H   0  0  0  0  0  0
  -32.5213  -16.4308   17.6394 H   0  0  0  0  0  0
  -27.8289  -24.2475   22.1654 H   0  0  0  0  0  0
  -26.8387  -24.5578   20.7430 H   0  0  0  0  0  0
  -26.9420  -25.7425   22.0491 H   0  0  0  0  0  0
  -30.2911  -15.8708   18.4297 H   0  0  0  0  0  0
  -29.6224  -17.3821   17.9675 H   0  0  0  0  0  0
  -29.5236  -22.9730   21.1999 H   0  0  0  0  0  0
  -30.9164  -23.9870   21.4008 H   0  0  0  0  0  0
  -28.8687  -24.2852   19.1361 H   0  0  0  0  0  0
  -30.2856  -25.2708   19.3512 H   0  0  0  0  0  0
  -32.1437  -22.6761   20.0207 H   0  0  0  0  0  0
  -31.0849  -23.0242   18.6803 H   0  0  0  0  0  0
  -29.3783  -17.3847   21.2881 H   0  0  0  0  0  0
  -30.9879  -17.1027   21.8661 H   0  0  0  0  0  0
  -31.9793  -17.4301   19.8385 H   0  0  0  0  0  0
  -29.3874  -26.0671   21.5688 H   0  0  0  0  0  0
  -29.0632  -15.2104   21.3400 H   0  0  0  0  0  0
  1 25  1  0  0  0
  1 30  2  0  0  0
  1 85  1  0  0  0
  2  3  1  0  0  0
  2 25  1  0  0  0
  2 86  1  0  0  0
  2 87  1  0  0  0
  3  4  1  0  0  0
  3 88  1  0  0  0
  3 89  1  0  0  0
  4  5  1  0  0  0
  4 90  1  0  0  0
  4 91  1  0  0  0
  5  6  1  0  0  0
  5 26  1  0  0  0
  5 92  1  0  0  0
  6 25  1  0  0  0
  6 93  1  0  0  0
  6 94  1  0  0  0
  7  8  2  0  0  0
  7 26  1  0  0  0
  7 29  1  0  0  0
  8  9  1  0  0  0
  8 22  1  0  0  0
  9 10  1  0  0  0
  9 27  2  0  0  0
 10 11  2  0  0  0
 10 15  1  0  0  0
 11 12  1  0  0  0
 11 95  1  0  0  0
 12 13  2  0  0  0
 12 96  1  0  0  0
 13 14  1  0  0  0
 13 31  1  0  0  0
 14 15  2  0  0  0
 14 97  1  0  0  0
 15 98  1  0  0  0
 16 17  2  0  0  0
 16 21  1  0  0  0
 16 31  1  0  0  0
 17 18  1  0  0  0
 17 99  1  0  0  0
 18 19  2  0  0  0
 18100  1  0  0  0
 19 20  1  0  0  0
 19 24  1  0  0  0
 20 21  2  0  0  0
 20101  1  0  0  0
 21 23  1  0  0  0
 22 28  1  0  0  0
 22 32  2  0  0  0
 26 27  1  0  0  0
 28102  1  0  0  0
 28103  1  0  0  0
 29104  1  0  0  0
 29105  1  0  0  0
 33 34  1  0  0  0
 33 66  1  0  0  0
 33 70  2  0  0  0
 34 36  1  0  0  0
 34 59  1  0  0  0
 34106  1  0  0  0
 35 44  2  0  0  0
 35 45  1  0  0  0
 35 68  1  0  0  0
 36 56  1  0  0  0
 36107  1  0  0  0
 37 39  1  0  0  0
 37 47  1  0  0  0
 37 66  1  0  0  0
 37108  1  0  0  0
 38 43  2  0  0  0
 38 46  1  0  0  0
 38 47  1  0  0  0
 39 64  1  0  0  0
 39 67  2  0  0  0
 40 52  1  0  0  0
 40 53  2  0  0  0
 40 58  1  0  0  0
 41109  1  0  0  0
 41110  1  0  0  0
 41111  1  0  0  0
 41 48  1  0  0  0
 42 43  1  0  0  0
 42 66  1  0  0  0
 42112  1  0  0  0
 42113  1  0  0  0
 43 44  1  0  0  0
 44114  1  0  0  0
 45 46  2  0  0  0
 45115  1  0  0  0
 46116  1  0  0  0
 47117  1  0  0  0
 47118  1  0  0  0
 48 56  1  0  0  0
 48 65  1  0  0  0
 48119  1  0  0  0
 49 50  1  0  0  0
 49 53  1  0  0  0
 49 64  1  0  0  0
 49120  1  0  0  0
 50 51  1  0  0  0
 50121  1  0  0  0
 50122  1  0  0  0
 51 52  1  0  0  0
 51123  1  0  0  0
 51124  1  0  0  0
 52125  1  0  0  0
 52126  1  0  0  0
 53 54  1  0  0  0
 54 55  2  0  0  0
 54127  1  0  0  0
 55 57  1  0  0  0
 55128  1  0  0  0
 56 69  2  0  0  0
 57 58  2  0  0  0
 57129  1  0  0  0
 58130  1  0  0  0
 59 60  1  0  0  0
 59 61  1  0  0  0
 59 62  1  0  0  0
 60131  1  0  0  0
 60132  1  0  0  0
 60133  1  0  0  0
 61134  1  0  0  0
 61135  1  0  0  0
 61136  1  0  0  0
 62137  1  0  0  0
 62138  1  0  0  0
 62139  1  0  0  0
 63 65  1  0  0  0
 63140  1  0  0  0
 63141  1  0  0  0
 63142  1  0  0  0
 64143  1  0  0  0
 65144  1  0  0  0
 68 82  1  0  0  0
 71 73  2  0  0  0
 71 84  1  0  0  0
 71145  1  0  0  0
 72 83  2  0  0  0
 72 84  1  0  0  0
 72146  1  0  0  0
 73 81  1  0  0  0
 73 83  1  0  0  0
 74 76  1  0  0  0
 74147  1  0  0  0
 74148  1  0  0  0
 74149  1  0  0  0
 75150  1  0  0  0
 75151  1  0  0  0
 75152  1  0  0  0
 75 82  1  0  0  0
 76153  1  0  0  0
 76154  1  0  0  0
 76 81  1  0  0  0
 77 78  1  0  0  0
 77 79  1  0  0  0
 77155  1  0  0  0
 77156  1  0  0  0
 78 82  1  0  0  0
 78157  1  0  0  0
 78158  1  0  0  0
 79 84  1  0  0  0
 79159  1  0  0  0
 79160  1  0  0  0
 80 81  1  0  0  0
 80 85  1  0  0  0
 80161  1  0  0  0
 80162  1  0  0  0
 81163  1  0  0  0
 82164  1  0  0  0
 85165  1  0  0  0
M  ISO  4   1 100  68 101  82 101  85 100
M  END
> <chiral flag>
0

> <version>
0

> <s_m_source_file>
/data/baiqing/PycharmProjects/Reinvent-master-3.2/result/LINK_invent/BTK/process_docking_weight1_custom_sum_contain_oxygen_bond_distance_aromatic_linkinvent_7_9_3/rearranged_h_0073.sdf

> <i_m_source_file_index>
43

> <r_mmod_Potential_Energy-OPLS-2005>
-36.2321891784668

> <r_mmod_Stretch_Energy-OPLS-2005>
35.9975776672363

> <r_mmod_Bend_Energy-OPLS-2005>
122.735572814941

> <r_mmod_Torsional_Energy-OPLS-2005>
253.227981567383

> <r_mmod_Improper_Torsional_Energy-OPLS-2005>
5.38450193405151

> <r_mmod_Van_der_Waal_Energy-OPLS-2005>
131.347106933594

> <r_mmod_Electrostatic_Energy-OPLS-2005>
-387.160583496094

> <r_mmod_Solvation_Energy-OPLS-2005>
-209.440490722656

> <b_mmod_Minimization_Converged-OPLS-2005>
0

> <r_mmod_RMS_Derivative-OPLS-2005>
4.71974182128906

$$$$
43
                    3D
 Structure written by MMmdl.
166174  0  0  1  0            999 V2000
  -30.5816  -14.7669   20.4329 C   0  0  0  0  0  0
  -30.4541  -12.4637   19.4663 C   0  0  0  0  0  0
  -29.5131  -12.4939   18.2361 C   0  0  0  0  0  0
  -28.0313  -12.3287   18.6461 C   0  0  0  0  0  0
  -27.6429  -13.2014   19.8682 C   0  0  2  0  0  0
  -28.7076  -13.0800   20.9806 C   0  0  0  0  0  0
  -25.2488  -13.8093   20.5682 C   0  0  0  0  0  0
  -24.1777  -13.0370   20.9227 C   0  0  0  0  0  0
  -24.6363  -11.6845   20.8809 C   0  0  0  0  0  0
  -23.9043  -10.4236   21.0450 C   0  0  0  0  0  0
  -24.3596   -9.4148   21.9216 C   0  0  0  0  0  0
  -23.6264   -8.2187   22.0760 C   0  0  0  0  0  0
  -22.4248   -8.0245   21.3543 C   0  0  0  0  0  0
  -21.9899   -9.0224   20.4649 C   0  0  0  0  0  0
  -22.7233  -10.2098   20.3072 C   0  0  0  0  0  0
  -21.6824   -6.0714   22.5276 C   0  0  0  0  0  0
  -21.4002   -6.5630   23.8215 C   0  0  0  0  0  0
  -21.3651   -5.6790   24.9176 C   0  0  0  0  0  0
  -21.6046   -4.3052   24.7236 C   0  0  0  0  0  0
  -21.8820   -3.8135   23.4353 C   0  0  0  0  0  0
  -21.9187   -4.6942   22.3406 C   0  0  0  0  0  0
  -22.7796  -13.5162   21.1877 C   0  0  0  0  0  0
  -22.1660   -4.2123   21.0982 F   0  0  0  0  0  0
  -21.5636   -3.4551   25.7759 F   0  0  0  0  0  0
  -29.9958  -13.5095   20.4124 N   0  0  0  0  0  0
  -26.2940  -12.9246   20.3423 N   0  0  0  0  0  0
  -25.9298  -11.6425   20.5887 N   0  0  0  0  0  0
  -22.0458  -12.8153   22.0446 N   0  0  0  0  0  0
  -25.4097  -15.1818   20.3977 N   0  0  0  0  0  0
  -31.7838  -14.8402   20.1626 O   0  0  0  0  0  0
  -21.6604   -6.8846   21.4234 O   0  0  0  0  0  0
  -22.3478  -14.5462   20.6708 O   0  0  0  0  0  0
  -24.6288  -31.8576   23.1973 C   0  0  0  0  0  0
  -25.9122  -32.4768   23.8324 C   0  0  1  0  0  0
  -27.2372  -27.2904   20.1172 C   0  0  0  0  0  0
  -25.5940  -33.8564   24.2268 N   0  0  0  0  0  0
  -23.4246  -30.4777   21.5403 C   0  0  2  0  0  0
  -24.8742  -28.9274   20.1081 C   0  0  0  0  0  0
  -22.7495  -29.4614   22.4922 C   0  0  0  0  0  0
  -18.0293  -28.1377   22.8482 C   0  0  0  0  0  0
  -24.1499  -36.7283   23.2638 C   0  0  0  0  0  0
  -25.9672  -30.7787   21.3726 C   0  0  0  0  0  0
  -26.0416  -29.4028   20.7156 C   0  0  0  0  0  0
  -27.2200  -28.5951   20.7120 C   0  0  0  0  0  0
  -26.0396  -26.8717   19.4914 C   0  0  0  0  0  0
  -24.8781  -27.6703   19.4853 C   0  0  0  0  0  0
  -23.6390  -29.8046   20.1582 C   0  0  0  0  0  0
  -25.4124  -36.3079   24.0332 C   0  0  1  0  0  0
  -20.5899  -28.3697   23.1259 C   0  0  2  0  0  0
  -20.6789  -26.9415   22.5394 C   0  0  0  0  0  0
  -19.5761  -26.6380   21.5202 C   0  0  0  0  0  0
  -18.1942  -26.7920   22.1618 C   0  0  0  0  0  0
  -19.1544  -28.8853   23.2863 C   0  0  0  0  0  0
  -18.9463  -30.1454   23.8880 C   0  0  0  0  0  0
  -17.6461  -30.6578   24.0560 C   0  0  0  0  0  0
  -25.9054  -34.9451   23.5099 C   0  0  0  0  0  0
  -16.5355  -29.9073   23.6325 C   0  0  0  0  0  0
  -16.7276  -28.6490   23.0346 C   0  0  0  0  0  0
  -26.4496  -31.6577   25.0705 C   0  0  0  0  0  0
  -25.3698  -31.3732   26.1406 C   0  0  0  0  0  0
  -27.0359  -30.3004   24.6177 C   0  0  0  0  0  0
  -27.6046  -32.4323   25.7482 C   0  0  0  0  0  0
  -27.5585  -37.1803   24.8463 C   0  0  0  0  0  0
  -21.4206  -29.3050   22.3656 N   0  0  0  0  0  0
  -26.4304  -37.3770   23.9397 N   0  0  0  0  0  0
  -24.6922  -31.0558   22.0932 N   0  0  0  0  0  0
  -23.4199  -28.8168   23.3031 O   0  0  0  0  0  0
  -28.3774  -26.4613   20.2043 O   0  0  0  0  0  0
  -26.5618  -34.8916   22.4660 O   0  0  0  0  0  0
  -23.5444  -32.1380   23.7294 O   0  0  0  0  0  0
  -29.5216  -19.4520   22.0520 C   0  0  0  0  0  0
  -29.1488  -20.7637   21.8564 C   0  0  0  0  0  0
  -29.4339  -21.0478   20.4825 C   0  0  0  0  0  0
  -28.5856  -21.6851   22.9030 C   0  0  0  0  0  0
  -30.6046  -22.6881   18.9740 C   0  0  0  0  0  0
  -28.1927  -22.0927   18.5573 C   0  0  0  0  0  0
  -28.7215  -16.1762   21.6431 C   0  0  0  0  0  0
  -29.0548  -16.3993   19.1349 C   0  0  0  0  0  0
  -28.7956  -23.7628   20.4047 C   0  0  0  0  0  0
  -30.6461  -17.5288   20.6868 C   0  0  0  0  0  0
  -28.5107  -25.1189   19.5627 C   0  0  0  0  0  0
  -29.2457  -22.3928   19.6422 C   0  0  0  0  0  0
  -29.7650  -16.1815   20.5001 C   0  0  0  0  0  0
  -29.9245  -19.8992   19.9173 N   0  0  0  0  0  0
  -29.9883  -18.8986   20.8743 N   0  0  0  0  0  0
  -31.4874  -12.6142   19.1477 H   0  0  0  0  0  0
  -30.4390  -11.4817   19.9434 H   0  0  0  0  0  0
  -29.7949  -11.7067   17.5357 H   0  0  0  0  0  0
  -29.6445  -13.4336   17.6987 H   0  0  0  0  0  0
  -27.8739  -11.2777   18.8905 H   0  0  0  0  0  0
  -27.3738  -12.5453   17.8030 H   0  0  0  0  0  0
  -27.6218  -14.2238   19.5190 H   0  0  0  0  0  0
  -28.7706  -12.0421   21.3110 H   0  0  0  0  0  0
  -28.4535  -13.6165   21.8901 H   0  0  0  0  0  0
  -25.2750   -9.5604   22.4786 H   0  0  0  0  0  0
  -23.9962   -7.4565   22.7472 H   0  0  0  0  0  0
  -21.0836   -8.8740   19.8943 H   0  0  0  0  0  0
  -22.3707  -10.9635   19.6171 H   0  0  0  0  0  0
  -21.1986   -7.6144   23.9706 H   0  0  0  0  0  0
  -21.1484   -6.0529   25.9082 H   0  0  0  0  0  0
  -22.0610   -2.7594   23.2870 H   0  0  0  0  0  0
  -22.4095  -11.9801   22.4800 H   0  0  0  0  0  0
  -21.1075  -13.1158   22.2704 H   0  0  0  0  0  0
  -24.6323  -15.8267   20.4921 H   0  0  0  0  0  0
  -26.2611  -15.6286   20.0840 H   0  0  0  0  0  0
  -26.7194  -32.5430   23.1068 H   0  0  0  0  0  0
  -25.0145  -33.9709   25.0458 H   0  0  0  0  0  0
  -22.7199  -31.2985   21.3925 H   0  0  0  0  0  0
  -23.3775  -35.9598   23.3299 H   0  0  0  0  0  0
  -24.3590  -36.8904   22.2050 H   0  0  0  0  0  0
  -23.7237  -37.6478   23.6659 H   0  0  0  0  0  0
  -26.1017  -31.5387   20.6019 H   0  0  0  0  0  0
  -26.8459  -30.8292   22.0037 H   0  0  0  0  0  0
  -28.1148  -28.9596   21.1972 H   0  0  0  0  0  0
  -25.9456  -25.9073   19.0216 H   0  0  0  0  0  0
  -23.9836  -27.2995   19.0044 H   0  0  0  0  0  0
  -23.7464  -30.5725   19.3916 H   0  0  0  0  0  0
  -22.7624  -29.2227   19.8677 H   0  0  0  0  0  0
  -25.1305  -36.1940   25.0827 H   0  0  0  0  0  0
  -20.9987  -28.3287   24.1380 H   0  0  0  0  0  0
  -20.5704  -26.2311   23.3605 H   0  0  0  0  0  0
  -21.6660  -26.7454   22.1188 H   0  0  0  0  0  0
  -19.6934  -25.6287   21.1234 H   0  0  0  0  0  0
  -19.6692  -27.3188   20.6728 H   0  0  0  0  0  0
  -17.4215  -26.6661   21.4018 H   0  0  0  0  0  0
  -18.0346  -26.0052   22.9006 H   0  0  0  0  0  0
  -19.7934  -30.7270   24.2260 H   0  0  0  0  0  0
  -17.5008  -31.6255   24.5164 H   0  0  0  0  0  0
  -15.5351  -30.2969   23.7642 H   0  0  0  0  0  0
  -15.8679  -28.0790   22.7080 H   0  0  0  0  0  0
  -24.5877  -30.7094   25.7707 H   0  0  0  0  0  0
  -24.8881  -32.2907   26.4796 H   0  0  0  0  0  0
  -25.7978  -30.8912   27.0201 H   0  0  0  0  0  0
  -26.2955  -29.6747   24.1184 H   0  0  0  0  0  0
  -27.4045  -29.7272   25.4691 H   0  0  0  0  0  0
  -27.8818  -30.4306   23.9424 H   0  0  0  0  0  0
  -27.2654  -33.3629   26.2042 H   0  0  0  0  0  0
  -28.3856  -32.6876   25.0308 H   0  0  0  0  0  0
  -28.0710  -31.8459   26.5406 H   0  0  0  0  0  0
  -28.2600  -38.0105   24.7524 H   0  0  0  0  0  0
  -28.1093  -36.2637   24.6291 H   0  0  0  0  0  0
  -27.2296  -37.1443   25.8864 H   0  0  0  0  0  0
  -20.9408  -29.8747   21.6826 H   0  0  0  0  0  0
  -26.0198  -38.2853   24.1371 H   0  0  0  0  0  0
  -29.5069  -18.8643   22.9598 H   0  0  0  0  0  0
  -28.5329  -21.2072   23.8819 H   0  0  0  0  0  0
  -27.5722  -22.0038   22.6607 H   0  0  0  0  0  0
  -29.1946  -22.5802   23.0261 H   0  0  0  0  0  0
  -30.9494  -21.8463   18.3730 H   0  0  0  0  0  0
  -31.3710  -22.8851   19.7238 H   0  0  0  0  0  0
  -30.5654  -23.5455   18.3054 H   0  0  0  0  0  0
  -28.4769  -21.2272   17.9575 H   0  0  0  0  0  0
  -28.0630  -22.9222   17.8633 H   0  0  0  0  0  0
  -27.2223  -21.8725   19.0038 H   0  0  0  0  0  0
  -28.2788  -17.1541   21.8071 H   0  0  0  0  0  0
  -29.1539  -15.8553   22.5905 H   0  0  0  0  0  0
  -27.8631  -15.5530   21.4237 H   0  0  0  0  0  0
  -28.0592  -16.8262   19.2555 H   0  0  0  0  0  0
  -28.9660  -15.4949   18.5379 H   0  0  0  0  0  0
  -29.6083  -17.0889   18.4963 H   0  0  0  0  0  0
  -27.8891  -23.5566   20.9703 H   0  0  0  0  0  0
  -29.5586  -23.9906   21.1494 H   0  0  0  0  0  0
  -31.3551  -17.6151   19.8626 H   0  0  0  0  0  0
  -31.2798  -17.3783   21.5619 H   0  0  0  0  0  0
  -27.7016  -24.9229   18.8694 H   0  0  0  0  0  0
  -29.3645  -25.2679   18.9059 H   0  0  0  0  0  0
  1 25  1  0  0  0
  1 30  2  0  0  0
  1 83  1  0  0  0
  2  3  1  0  0  0
  2 25  1  0  0  0
  2 86  1  0  0  0
  2 87  1  0  0  0
  3  4  1  0  0  0
  3 88  1  0  0  0
  3 89  1  0  0  0
  4  5  1  0  0  0
  4 90  1  0  0  0
  4 91  1  0  0  0
  5  6  1  0  0  0
  5 26  1  0  0  0
  5 92  1  0  0  0
  6 25  1  0  0  0
  6 93  1  0  0  0
  6 94  1  0  0  0
  7  8  2  0  0  0
  7 26  1  0  0  0
  7 29  1  0  0  0
  8  9  1  0  0  0
  8 22  1  0  0  0
  9 10  1  0  0  0
  9 27  2  0  0  0
 10 11  2  0  0  0
 10 15  1  0  0  0
 11 12  1  0  0  0
 11 95  1  0  0  0
 12 13  2  0  0  0
 12 96  1  0  0  0
 13 14  1  0  0  0
 13 31  1  0  0  0
 14 15  2  0  0  0
 14 97  1  0  0  0
 15 98  1  0  0  0
 16 17  2  0  0  0
 16 21  1  0  0  0
 16 31  1  0  0  0
 17 18  1  0  0  0
 17 99  1  0  0  0
 18 19  2  0  0  0
 18100  1  0  0  0
 19 20  1  0  0  0
 19 24  1  0  0  0
 20 21  2  0  0  0
 20101  1  0  0  0
 21 23  1  0  0  0
 22 28  1  0  0  0
 22 32  2  0  0  0
 26 27  1  0  0  0
 28102  1  0  0  0
 28103  1  0  0  0
 29104  1  0  0  0
 29105  1  0  0  0
 33 34  1  0  0  0
 33 66  1  0  0  0
 33 70  2  0  0  0
 34 36  1  0  0  0
 34 59  1  0  0  0
 34106  1  0  0  0
 35 44  2  0  0  0
 35 45  1  0  0  0
 35 68  1  0  0  0
 36 56  1  0  0  0
 36107  1  0  0  0
 37 39  1  0  0  0
 37 47  1  0  0  0
 37 66  1  0  0  0
 37108  1  0  0  0
 38 43  2  0  0  0
 38 46  1  0  0  0
 38 47  1  0  0  0
 39 64  1  0  0  0
 39 67  2  0  0  0
 40 52  1  0  0  0
 40 53  2  0  0  0
 40 58  1  0  0  0
 41109  1  0  0  0
 41110  1  0  0  0
 41111  1  0  0  0
 41 48  1  0  0  0
 42 43  1  0  0  0
 42 66  1  0  0  0
 42112  1  0  0  0
 42113  1  0  0  0
 43 44  1  0  0  0
 44114  1  0  0  0
 45 46  2  0  0  0
 45115  1  0  0  0
 46116  1  0  0  0
 47117  1  0  0  0
 47118  1  0  0  0
 48 56  1  0  0  0
 48 65  1  0  0  0
 48119  1  0  0  0
 49 50  1  0  0  0
 49 53  1  0  0  0
 49 64  1  0  0  0
 49120  1  0  0  0
 50 51  1  0  0  0
 50121  1  0  0  0
 50122  1  0  0  0
 51 52  1  0  0  0
 51123  1  0  0  0
 51124  1  0  0  0
 52125  1  0  0  0
 52126  1  0  0  0
 53 54  1  0  0  0
 54 55  2  0  0  0
 54127  1  0  0  0
 55 57  1  0  0  0
 55128  1  0  0  0
 56 69  2  0  0  0
 57 58  2  0  0  0
 57129  1  0  0  0
 58130  1  0  0  0
 59 60  1  0  0  0
 59 61  1  0  0  0
 59 62  1  0  0  0
 60131  1  0  0  0
 60132  1  0  0  0
 60133  1  0  0  0
 61134  1  0  0  0
 61135  1  0  0  0
 61136  1  0  0  0
 62137  1  0  0  0
 62138  1  0  0  0
 62139  1  0  0  0
 63 65  1  0  0  0
 63140  1  0  0  0
 63141  1  0  0  0
 63142  1  0  0  0
 64143  1  0  0  0
 65144  1  0  0  0
 68 81  1  0  0  0
 71 72  2  0  0  0
 71 85  1  0  0  0
 71145  1  0  0  0
 72 73  1  0  0  0
 72 74  1  0  0  0
 73 82  1  0  0  0
 73 84  2  0  0  0
 74146  1  0  0  0
 74147  1  0  0  0
 74148  1  0  0  0
 75149  1  0  0  0
 75150  1  0  0  0
 75151  1  0  0  0
 75 82  1  0  0  0
 76 82  1  0  0  0
 76152  1  0  0  0
 76153  1  0  0  0
 76154  1  0  0  0
 77155  1  0  0  0
 77156  1  0  0  0
 77157  1  0  0  0
 77 83  1  0  0  0
 78 83  1  0  0  0
 78158  1  0  0  0
 78159  1  0  0  0
 78160  1  0  0  0
 79 81  1  0  0  0
 79 82  1  0  0  0
 79161  1  0  0  0
 79162  1  0  0  0
 80 83  1  0  0  0
 80 85  1  0  0  0
 80163  1  0  0  0
 80164  1  0  0  0
 81165  1  0  0  0
 81166  1  0  0  0
 84 85  1  0  0  0
M  ISO  4   1 100  68 101  81 101  83 100
M  END
> <chiral flag>
0

> <version>
0

> <s_m_source_file>
/data/baiqing/PycharmProjects/Reinvent-master-3.2/result/LINK_invent/BTK/process_docking_weight1_custom_sum_contain_oxygen_bond_distance_aromatic_linkinvent_7_9_3/rearranged_h_0073.sdf

> <i_m_source_file_index>
44

> <r_mmod_Potential_Energy-OPLS-2005>
204.225280761719

> <r_mmod_Stretch_Energy-OPLS-2005>
132.4208984375

> <r_mmod_Bend_Energy-OPLS-2005>
196.60888671875

> <r_mmod_Torsional_Energy-OPLS-2005>
209.913269042969

> <r_mmod_Improper_Torsional_Energy-OPLS-2005>
6.69941568374634

> <r_mmod_Van_der_Waal_Energy-OPLS-2005>
131.580902099609

> <r_mmod_Electrostatic_Energy-OPLS-2005>
-356.278717041016

> <r_mmod_Solvation_Energy-OPLS-2005>
-193.786193847656

> <b_mmod_Minimization_Converged-OPLS-2005>
0

> <r_mmod_RMS_Derivative-OPLS-2005>
1.73844659328461

$$$$
44
                    3D
 Structure written by MMmdl.
162170  0  0  1  0            999 V2000
  -30.5916  -14.7450   20.4772 C   0  0  0  0  0  0
  -30.4372  -12.4598   19.4638 C   0  0  0  0  0  0
  -29.5112  -12.5173   18.2292 C   0  0  0  0  0  0
  -28.0360  -12.3379   18.6401 C   0  0  0  0  0  0
  -27.6431  -13.2279   19.8500 C   0  0  2  0  0  0
  -28.6877  -13.1430   20.9828 C   0  0  0  0  0  0
  -25.2525  -13.8190   20.5682 C   0  0  0  0  0  0
  -24.1815  -13.0435   20.9199 C   0  0  0  0  0  0
  -24.6404  -11.6915   20.8738 C   0  0  0  0  0  0
  -23.9076  -10.4300   21.0410 C   0  0  0  0  0  0
  -24.3627   -9.4214   21.9191 C   0  0  0  0  0  0
  -23.6298   -8.2253   22.0761 C   0  0  0  0  0  0
  -22.4284   -8.0282   21.3548 C   0  0  0  0  0  0
  -21.9915   -9.0258   20.4653 C   0  0  0  0  0  0
  -22.7244  -10.2139   20.3061 C   0  0  0  0  0  0
  -21.6854   -6.0738   22.5286 C   0  0  0  0  0  0
  -21.4011   -6.5645   23.8216 C   0  0  0  0  0  0
  -21.3665   -5.6796   24.9179 C   0  0  0  0  0  0
  -21.6048   -4.3060   24.7227 C   0  0  0  0  0  0
  -21.8822   -3.8152   23.4350 C   0  0  0  0  0  0
  -21.9194   -4.6968   22.3404 C   0  0  0  0  0  0
  -22.7833  -13.5216   21.1853 C   0  0  0  0  0  0
  -22.1657   -4.2152   21.0979 F   0  0  0  0  0  0
  -21.5633   -3.4539   25.7741 F   0  0  0  0  0  0
  -29.9867  -13.5099   20.4044 N   0  0  0  0  0  0
  -26.2944  -12.9390   20.3259 N   0  0  0  0  0  0
  -25.9331  -11.6535   20.5732 N   0  0  0  0  0  0
  -22.0481  -12.8215   22.0419 N   0  0  0  0  0  0
  -25.4209  -15.1918   20.4092 N   0  0  0  0  0  0
  -31.7768  -14.8633   20.1520 O   0  0  0  0  0  0
  -21.6643   -6.8884   21.4249 O   0  0  0  0  0  0
  -22.3519  -14.5518   20.6687 O   0  0  0  0  0  0
  -24.6307  -31.8551   23.1980 C   0  0  0  0  0  0
  -25.9139  -32.4755   23.8327 C   0  0  1  0  0  0
  -27.2230  -27.2630   20.1463 C   0  0  0  0  0  0
  -25.5947  -33.8560   24.2260 N   0  0  0  0  0  0
  -23.4271  -30.4745   21.5409 C   0  0  2  0  0  0
  -24.8749  -28.9112   20.1214 C   0  0  0  0  0  0
  -22.7490  -29.4605   22.4927 C   0  0  0  0  0  0
  -18.0291  -28.1396   22.8490 C   0  0  0  0  0  0
  -24.1484  -36.7277   23.2637 C   0  0  0  0  0  0
  -25.9698  -30.7699   21.3743 C   0  0  0  0  0  0
  -26.0443  -29.3866   20.7283 C   0  0  0  0  0  0
  -27.2236  -28.5767   20.7261 C   0  0  0  0  0  0
  -26.0345  -26.8474   19.5163 C   0  0  0  0  0  0
  -24.8738  -27.6489   19.5044 C   0  0  0  0  0  0
  -23.6461  -29.8000   20.1605 C   0  0  0  0  0  0
  -25.4111  -36.3068   24.0329 C   0  0  1  0  0  0
  -20.5889  -28.3703   23.1280 C   0  0  2  0  0  0
  -20.6782  -26.9426   22.5413 C   0  0  0  0  0  0
  -19.5754  -26.6391   21.5224 C   0  0  0  0  0  0
  -18.1934  -26.7938   22.1631 C   0  0  0  0  0  0
  -19.1543  -28.8869   23.2875 C   0  0  0  0  0  0
  -18.9463  -30.1472   23.8890 C   0  0  0  0  0  0
  -17.6461  -30.6594   24.0568 C   0  0  0  0  0  0
  -25.9056  -34.9440   23.5090 C   0  0  0  0  0  0
  -16.5353  -29.9089   23.6335 C   0  0  0  0  0  0
  -16.7279  -28.6507   23.0357 C   0  0  0  0  0  0
  -26.4523  -31.6578   25.0707 C   0  0  0  0  0  0
  -25.3749  -31.3717   26.1423 C   0  0  0  0  0  0
  -27.0390  -30.3005   24.6185 C   0  0  0  0  0  0
  -27.6074  -32.4325   25.7480 C   0  0  0  0  0  0
  -27.5573  -37.1791   24.8470 C   0  0  0  0  0  0
  -21.4201  -29.3045   22.3666 N   0  0  0  0  0  0
  -26.4284  -37.3768   23.9414 N   0  0  0  0  0  0
  -24.6948  -31.0517   22.0947 N   0  0  0  0  0  0
  -23.4192  -28.8151   23.3034 O   0  0  0  0  0  0
  -28.3445  -26.4127   20.1007 O   0  0  0  0  0  0
  -26.5613  -34.8915   22.4651 O   0  0  0  0  0  0
  -23.5461  -32.1372   23.7271 O   0  0  0  0  0  0
  -29.3508  -17.9357   18.5155 C   0  0  0  0  0  0
  -28.7612  -19.9884   18.5481 C   0  0  0  0  0  0
  -29.4870  -18.3408   19.8266 C   0  0  0  0  0  0
  -31.4320  -17.6899   21.3441 C   0  0  0  0  0  0
  -28.6348  -23.8941   18.5330 C   0  0  0  0  0  0
  -26.8443  -23.0954   20.0964 C   0  0  0  0  0  0
  -29.2848  -22.4291   20.5630 C   0  0  0  0  0  0
  -28.9382  -20.8495   20.8615 C   0  0  0  0  0  0
  -28.3582  -25.0648   20.7660 C   0  0  0  0  0  0
  -29.9867  -17.3595   20.9430 C   0  0  2  0  0  0
  -28.2915  -23.6138   20.0090 C   0  0  0  0  0  0
  -28.8874  -18.9684   17.7128 N   0  0  0  0  0  0
  -29.1111  -19.7593   19.8220 N   0  0  0  0  0  0
  -29.7818  -15.8427   20.7448 N   0  0  0  0  0  0
  -31.4763  -12.5961   19.1597 H   0  0  0  0  0  0
  -30.3896  -11.4780   19.9378 H   0  0  0  0  0  0
  -29.7935  -11.7481   17.5096 H   0  0  0  0  0  0
  -29.6368  -13.4744   17.7212 H   0  0  0  0  0  0
  -27.8914  -11.2855   18.8874 H   0  0  0  0  0  0
  -27.3797  -12.5411   17.7932 H   0  0  0  0  0  0
  -27.6415  -14.2538   19.4806 H   0  0  0  0  0  0
  -28.7293  -12.1363   21.4000 H   0  0  0  0  0  0
  -28.4195  -13.8040   21.8087 H   0  0  0  0  0  0
  -25.2782   -9.5675   22.4759 H   0  0  0  0  0  0
  -24.0009   -7.4645   22.7476 H   0  0  0  0  0  0
  -21.0848   -8.8774   19.8955 H   0  0  0  0  0  0
  -22.3712  -10.9674   19.6162 H   0  0  0  0  0  0
  -21.1999   -7.6154   23.9713 H   0  0  0  0  0  0
  -21.1479   -6.0530   25.9079 H   0  0  0  0  0  0
  -22.0594   -2.7612   23.2846 H   0  0  0  0  0  0
  -22.4082  -11.9868   22.4801 H   0  0  0  0  0  0
  -21.1105  -13.1235   22.2627 H   0  0  0  0  0  0
  -24.6484  -15.8401   20.5192 H   0  0  0  0  0  0
  -26.2588  -15.6361   20.0563 H   0  0  0  0  0  0
  -26.7196  -32.5411   23.1064 H   0  0  0  0  0  0
  -25.0145  -33.9717   25.0440 H   0  0  0  0  0  0
  -22.7240  -31.2966   21.3901 H   0  0  0  0  0  0
  -23.3758  -35.9598   23.3299 H   0  0  0  0  0  0
  -24.3570  -36.8903   22.2051 H   0  0  0  0  0  0
  -23.7230  -37.6473   23.6666 H   0  0  0  0  0  0
  -26.0973  -31.5237   20.5964 H   0  0  0  0  0  0
  -26.8515  -30.8284   22.0009 H   0  0  0  0  0  0
  -28.1254  -28.9441   21.1942 H   0  0  0  0  0  0
  -26.0041  -25.8908   19.0182 H   0  0  0  0  0  0
  -23.9802  -27.2813   19.0188 H   0  0  0  0  0  0
  -23.7703  -30.5717   19.4000 H   0  0  0  0  0  0
  -22.7658  -29.2300   19.8579 H   0  0  0  0  0  0
  -25.1293  -36.1905   25.0822 H   0  0  0  0  0  0
  -20.9980  -28.3274   24.1400 H   0  0  0  0  0  0
  -20.5699  -26.2321   23.3617 H   0  0  0  0  0  0
  -21.6648  -26.7464   22.1193 H   0  0  0  0  0  0
  -19.6909  -25.6297   21.1261 H   0  0  0  0  0  0
  -19.6680  -27.3198   20.6749 H   0  0  0  0  0  0
  -17.4207  -26.6706   21.4025 H   0  0  0  0  0  0
  -18.0313  -26.0079   22.9021 H   0  0  0  0  0  0
  -19.7938  -30.7296   24.2251 H   0  0  0  0  0  0
  -17.5012  -31.6272   24.5174 H   0  0  0  0  0  0
  -15.5351  -30.2987   23.7668 H   0  0  0  0  0  0
  -15.8682  -28.0824   22.7078 H   0  0  0  0  0  0
  -24.5931  -30.7069   25.7733 H   0  0  0  0  0  0
  -24.8938  -32.2883   26.4839 H   0  0  0  0  0  0
  -25.8054  -30.8887   27.0203 H   0  0  0  0  0  0
  -26.2978  -29.6723   24.1229 H   0  0  0  0  0  0
  -27.4117  -29.7288   25.4695 H   0  0  0  0  0  0
  -27.8826  -30.4304   23.9401 H   0  0  0  0  0  0
  -27.2691  -33.3638   26.2032 H   0  0  0  0  0  0
  -28.3890  -32.6868   25.0310 H   0  0  0  0  0  0
  -28.0740  -31.8470   26.5412 H   0  0  0  0  0  0
  -28.2592  -38.0086   24.7514 H   0  0  0  0  0  0
  -28.1070  -36.2621   24.6298 H   0  0  0  0  0  0
  -27.2295  -37.1431   25.8873 H   0  0  0  0  0  0
  -20.9391  -29.8747   21.6847 H   0  0  0  0  0  0
  -26.0164  -38.2839   24.1422 H   0  0  0  0  0  0
  -29.5409  -16.9583   18.0938 H   0  0  0  0  0  0
  -28.3679  -20.9358   18.2199 H   0  0  0  0  0  0
  -31.5183  -18.7239   21.6782 H   0  0  0  0  0  0
  -32.1156  -17.5585   20.5046 H   0  0  0  0  0  0
  -31.7752  -17.0554   22.1612 H   0  0  0  0  0  0
  -28.5622  -23.0110   17.9044 H   0  0  0  0  0  0
  -29.6482  -24.2829   18.4345 H   0  0  0  0  0  0
  -27.9640  -24.6413   18.1078 H   0  0  0  0  0  0
  -26.7054  -22.1822   19.5175 H   0  0  0  0  0  0
  -26.1234  -23.8202   19.7239 H   0  0  0  0  0  0
  -26.5678  -22.8731   21.1282 H   0  0  0  0  0  0
  -30.2202  -22.4624   20.0027 H   0  0  0  0  0  0
  -29.5860  -22.7946   21.5454 H   0  0  0  0  0  0
  -27.9217  -20.7712   21.2465 H   0  0  0  0  0  0
  -29.5674  -20.5462   21.6977 H   0  0  0  0  0  0
  -29.3119  -25.0771   21.2930 H   0  0  0  0  0  0
  -27.6229  -25.0804   21.5722 H   0  0  0  0  0  0
  -29.3863  -17.5802   21.8267 H   0  0  0  0  0  0
  -28.8308  -15.5586   20.9241 H   0  0  0  0  0  0
  1 25  1  0  0  0
  1 30  2  0  0  0
  1 84  1  0  0  0
  2  3  1  0  0  0
  2 25  1  0  0  0
  2 85  1  0  0  0
  2 86  1  0  0  0
  3  4  1  0  0  0
  3 87  1  0  0  0
  3 88  1  0  0  0
  4  5  1  0  0  0
  4 89  1  0  0  0
  4 90  1  0  0  0
  5  6  1  0  0  0
  5 26  1  0  0  0
  5 91  1  0  0  0
  6 25  1  0  0  0
  6 92  1  0  0  0
  6 93  1  0  0  0
  7  8  2  0  0  0
  7 26  1  0  0  0
  7 29  1  0  0  0
  8  9  1  0  0  0
  8 22  1  0  0  0
  9 10  1  0  0  0
  9 27  2  0  0  0
 10 11  2  0  0  0
 10 15  1  0  0  0
 11 12  1  0  0  0
 11 94  1  0  0  0
 12 13  2  0  0  0
 12 95  1  0  0  0
 13 14  1  0  0  0
 13 31  1  0  0  0
 14 15  2  0  0  0
 14 96  1  0  0  0
 15 97  1  0  0  0
 16 17  2  0  0  0
 16 21  1  0  0  0
 16 31  1  0  0  0
 17 18  1  0  0  0
 17 98  1  0  0  0
 18 19  2  0  0  0
 18 99  1  0  0  0
 19 20  1  0  0  0
 19 24  1  0  0  0
 20 21  2  0  0  0
 20100  1  0  0  0
 21 23  1  0  0  0
 22 28  1  0  0  0
 22 32  2  0  0  0
 26 27  1  0  0  0
 28101  1  0  0  0
 28102  1  0  0  0
 29103  1  0  0  0
 29104  1  0  0  0
 33 34  1  0  0  0
 33 66  1  0  0  0
 33 70  2  0  0  0
 34 36  1  0  0  0
 34 59  1  0  0  0
 34105  1  0  0  0
 35 44  2  0  0  0
 35 45  1  0  0  0
 35 68  1  0  0  0
 36 56  1  0  0  0
 36106  1  0  0  0
 37 39  1  0  0  0
 37 47  1  0  0  0
 37 66  1  0  0  0
 37107  1  0  0  0
 38 43  2  0  0  0
 38 46  1  0  0  0
 38 47  1  0  0  0
 39 64  1  0  0  0
 39 67  2  0  0  0
 40 52  1  0  0  0
 40 53  2  0  0  0
 40 58  1  0  0  0
 41108  1  0  0  0
 41109  1  0  0  0
 41110  1  0  0  0
 41 48  1  0  0  0
 42 43  1  0  0  0
 42 66  1  0  0  0
 42111  1  0  0  0
 42112  1  0  0  0
 43 44  1  0  0  0
 44113  1  0  0  0
 45 46  2  0  0  0
 45114  1  0  0  0
 46115  1  0  0  0
 47116  1  0  0  0
 47117  1  0  0  0
 48 56  1  0  0  0
 48 65  1  0  0  0
 48118  1  0  0  0
 49 50  1  0  0  0
 49 53  1  0  0  0
 49 64  1  0  0  0
 49119  1  0  0  0
 50 51  1  0  0  0
 50120  1  0  0  0
 50121  1  0  0  0
 51 52  1  0  0  0
 51122  1  0  0  0
 51123  1  0  0  0
 52124  1  0  0  0
 52125  1  0  0  0
 53 54  1  0  0  0
 54 55  2  0  0  0
 54126  1  0  0  0
 55 57  1  0  0  0
 55127  1  0  0  0
 56 69  2  0  0  0
 57 58  2  0  0  0
 57128  1  0  0  0
 58129  1  0  0  0
 59 60  1  0  0  0
 59 61  1  0  0  0
 59 62  1  0  0  0
 60130  1  0  0  0
 60131  1  0  0  0
 60132  1  0  0  0
 61133  1  0  0  0
 61134  1  0  0  0
 61135  1  0  0  0
 62136  1  0  0  0
 62137  1  0  0  0
 62138  1  0  0  0
 63 65  1  0  0  0
 63139  1  0  0  0
 63140  1  0  0  0
 63141  1  0  0  0
 64142  1  0  0  0
 65143  1  0  0  0
 68 79  1  0  0  0
 71 73  2  0  0  0
 71 82  1  0  0  0
 71144  1  0  0  0
 72 82  2  0  0  0
 72 83  1  0  0  0
 72145  1  0  0  0
 73 80  1  0  0  0
 73 83  1  0  0  0
 74146  1  0  0  0
 74147  1  0  0  0
 74148  1  0  0  0
 74 80  1  0  0  0
 75149  1  0  0  0
 75150  1  0  0  0
 75151  1  0  0  0
 75 81  1  0  0  0
 76 81  1  0  0  0
 76152  1  0  0  0
 76153  1  0  0  0
 76154  1  0  0  0
 77 78  1  0  0  0
 77 81  1  0  0  0
 77155  1  0  0  0
 77156  1  0  0  0
 78 83  1  0  0  0
 78157  1  0  0  0
 78158  1  0  0  0
 79 81  1  0  0  0
 79159  1  0  0  0
 79160  1  0  0  0
 80 84  1  0  0  0
 80161  1  0  0  0
 84162  1  0  0  0
M  ISO  4   1 100  68 101  79 101  84 100
M  END
> <chiral flag>
0

> <version>
0

> <s_m_source_file>
/data/baiqing/PycharmProjects/Reinvent-master-3.2/result/LINK_invent/BTK/process_docking_weight1_custom_sum_contain_oxygen_bond_distance_aromatic_linkinvent_7_9_3/rearranged_h_0073.sdf

> <i_m_source_file_index>
45

> <r_mmod_Potential_Energy-OPLS-2005>
247.049728393555

> <r_mmod_Stretch_Energy-OPLS-2005>
143.181228637695

> <r_mmod_Bend_Energy-OPLS-2005>
235.520889282227

> <r_mmod_Torsional_Energy-OPLS-2005>
261.261199951172

> <r_mmod_Improper_Torsional_Energy-OPLS-2005>
4.63282680511475

> <r_mmod_Van_der_Waal_Energy-OPLS-2005>
104.231857299805

> <r_mmod_Electrostatic_Energy-OPLS-2005>
-360.546264648438

> <r_mmod_Solvation_Energy-OPLS-2005>
-220.122009277344

> <b_mmod_Minimization_Converged-OPLS-2005>
0

> <r_mmod_RMS_Derivative-OPLS-2005>
1.43513369560242

$$$$
45
                    3D
 Structure written by MMmdl.
160168  0  0  1  0            999 V2000
  -30.7160  -14.6030   20.4347 C   0  0  0  0  0  0
  -30.4121  -12.3622   19.4587 C   0  0  0  0  0  0
  -29.4969  -12.4697   18.2226 C   0  0  0  0  0  0
  -28.0176  -12.3415   18.6314 C   0  0  0  0  0  0
  -27.6435  -13.2314   19.8483 C   0  0  2  0  0  0
  -28.6949  -13.1502   20.9778 C   0  0  0  0  0  0
  -25.2513  -13.8217   20.5698 C   0  0  0  0  0  0
  -24.1795  -13.0442   20.9208 C   0  0  0  0  0  0
  -24.6391  -11.6931   20.8726 C   0  0  0  0  0  0
  -23.9057  -10.4292   21.0387 C   0  0  0  0  0  0
  -24.3613   -9.4208   21.9173 C   0  0  0  0  0  0
  -23.6279   -8.2239   22.0750 C   0  0  0  0  0  0
  -22.4262   -8.0276   21.3541 C   0  0  0  0  0  0
  -21.9904   -9.0241   20.4640 C   0  0  0  0  0  0
  -22.7231  -10.2112   20.3040 C   0  0  0  0  0  0
  -21.6851   -6.0723   22.5271 C   0  0  0  0  0  0
  -21.4010   -6.5631   23.8208 C   0  0  0  0  0  0
  -21.3666   -5.6787   24.9169 C   0  0  0  0  0  0
  -21.6048   -4.3048   24.7223 C   0  0  0  0  0  0
  -21.8832   -3.8141   23.4342 C   0  0  0  0  0  0
  -21.9180   -4.6946   22.3390 C   0  0  0  0  0  0
  -22.7814  -13.5201   21.1849 C   0  0  0  0  0  0
  -22.1654   -4.2140   21.0966 F   0  0  0  0  0  0
  -21.5628   -3.4532   25.7728 F   0  0  0  0  0  0
  -30.0065  -13.4344   20.3864 N   0  0  0  0  0  0
  -26.2957  -12.9431   20.3307 N   0  0  0  0  0  0
  -25.9323  -11.6568   20.5759 N   0  0  0  0  0  0
  -22.0463  -12.8188   22.0417 N   0  0  0  0  0  0
  -25.4172  -15.1934   20.4123 N   0  0  0  0  0  0
  -31.9216  -14.6140   20.1930 O   0  0  0  0  0  0
  -21.6641   -6.8858   21.4236 O   0  0  0  0  0  0
  -22.3477  -14.5488   20.6671 O   0  0  0  0  0  0
  -24.6259  -31.8607   23.2041 C   0  0  0  0  0  0
  -25.9097  -32.4802   23.8372 C   0  0  1  0  0  0
  -27.2392  -27.3204   20.1392 C   0  0  0  0  0  0
  -25.5967  -33.8605   24.2324 N   0  0  0  0  0  0
  -23.4258  -30.4873   21.5421 C   0  0  2  0  0  0
  -24.8809  -28.9517   20.1096 C   0  0  0  0  0  0
  -22.7488  -29.4649   22.4877 C   0  0  0  0  0  0
  -18.0304  -28.1408   22.8512 C   0  0  0  0  0  0
  -24.1494  -36.7297   23.2643 C   0  0  0  0  0  0
  -25.9663  -30.7996   21.3746 C   0  0  0  0  0  0
  -26.0474  -29.4238   20.7253 C   0  0  0  0  0  0
  -27.2307  -28.6219   20.7348 C   0  0  0  0  0  0
  -26.0494  -26.9225   19.4787 C   0  0  0  0  0  0
  -24.8854  -27.7073   19.4711 C   0  0  0  0  0  0
  -23.6475  -29.8285   20.1558 C   0  0  0  0  0  0
  -25.4129  -36.3104   24.0336 C   0  0  1  0  0  0
  -20.5918  -28.3712   23.1286 C   0  0  2  0  0  0
  -20.6827  -26.9441   22.5399 C   0  0  0  0  0  0
  -19.5773  -26.6413   21.5241 C   0  0  0  0  0  0
  -18.1948  -26.7965   22.1651 C   0  0  0  0  0  0
  -19.1565  -28.8876   23.2901 C   0  0  0  0  0  0
  -18.9472  -30.1481   23.8892 C   0  0  0  0  0  0
  -17.6465  -30.6591   24.0587 C   0  0  0  0  0  0
  -25.9066  -34.9465   23.5128 C   0  0  0  0  0  0
  -16.5356  -29.9093   23.6340 C   0  0  0  0  0  0
  -16.7284  -28.6533   23.0327 C   0  0  0  0  0  0
  -26.4499  -31.6582   25.0710 C   0  0  0  0  0  0
  -25.3756  -31.3701   26.1444 C   0  0  0  0  0  0
  -27.0334  -30.3015   24.6122 C   0  0  0  0  0  0
  -27.6063  -32.4286   25.7487 C   0  0  0  0  0  0
  -27.5594  -37.1810   24.8472 C   0  0  0  0  0  0
  -21.4200  -29.3079   22.3659 N   0  0  0  0  0  0
  -26.4294  -37.3812   23.9431 N   0  0  0  0  0  0
  -24.6915  -31.0646   22.0979 N   0  0  0  0  0  0
  -23.4214  -28.8168   23.2949 O   0  0  0  0  0  0
  -28.3310  -26.4290   20.2212 O   0  0  0  0  0  0
  -26.5568  -34.8926   22.4652 O   0  0  0  0  0  0
  -23.5413  -32.1339   23.7385 O   0  0  0  0  0  0
  -30.2518  -20.7315   20.4601 C   0  0  0  0  0  0
  -28.1337  -19.7149   20.5402 C   0  0  0  0  0  0
  -28.8648  -20.9335   20.5898 C   0  0  0  0  0  0
  -30.0056  -18.4210   20.2833 C   0  0  0  0  0  0
  -30.8666  -16.9959   18.3893 C   0  0  0  0  0  0
  -26.7418  -22.2784   20.2397 C   0  0  0  0  0  0
  -27.9556  -22.3301   22.4169 C   0  0  0  0  0  0
  -28.9076  -23.7097   20.4993 C   0  0  0  0  0  0
  -27.9570  -24.9922   20.3238 C   0  0  0  0  0  0
  -30.6682  -17.0595   19.9233 C   0  0  2  0  0  0
  -28.1585  -22.3215   20.8869 C   0  0  0  0  0  0
  -30.8005  -19.4956   20.3085 N   0  0  0  0  0  0
  -28.6862  -18.4853   20.3821 N   0  0  0  0  0  0
  -30.0399  -15.7870   20.4178 N   0  0  0  0  0  0
  -31.4570  -12.4368   19.1535 H   0  0  0  0  0  0
  -30.3135  -11.3860   19.9363 H   0  0  0  0  0  0
  -29.7532  -11.6971   17.4969 H   0  0  0  0  0  0
  -29.6635  -13.4264   17.7225 H   0  0  0  0  0  0
  -27.8356  -11.2923   18.8692 H   0  0  0  0  0  0
  -27.3727  -12.5769   17.7846 H   0  0  0  0  0  0
  -27.6422  -14.2572   19.4788 H   0  0  0  0  0  0
  -28.6951  -12.1586   21.4340 H   0  0  0  0  0  0
  -28.4616  -13.8589   21.7735 H   0  0  0  0  0  0
  -25.2757   -9.5676   22.4747 H   0  0  0  0  0  0
  -23.9995   -7.4624   22.7465 H   0  0  0  0  0  0
  -21.0842   -8.8736   19.8936 H   0  0  0  0  0  0
  -22.3686  -10.9637   19.6139 H   0  0  0  0  0  0
  -21.2018   -7.6142   23.9706 H   0  0  0  0  0  0
  -21.1475   -6.0516   25.9072 H   0  0  0  0  0  0
  -22.0608   -2.7604   23.2838 H   0  0  0  0  0  0
  -22.4082  -11.9845   22.4793 H   0  0  0  0  0  0
  -21.1065  -13.1188   22.2601 H   0  0  0  0  0  0
  -24.6500  -15.8454   20.5360 H   0  0  0  0  0  0
  -26.2646  -15.6401   20.0884 H   0  0  0  0  0  0
  -26.7175  -32.5489   23.1143 H   0  0  0  0  0  0
  -25.0256  -33.9791   25.0564 H   0  0  0  0  0  0
  -22.7210  -31.3075   21.3967 H   0  0  0  0  0  0
  -23.3765  -35.9622   23.3278 H   0  0  0  0  0  0
  -24.3596  -36.8905   22.2066 H   0  0  0  0  0  0
  -23.7208  -37.6493   23.6628 H   0  0  0  0  0  0
  -26.0891  -31.5566   20.5980 H   0  0  0  0  0  0
  -26.8533  -30.8617   21.9921 H   0  0  0  0  0  0
  -28.1150  -28.9843   21.2423 H   0  0  0  0  0  0
  -25.9714  -25.9887   18.9488 H   0  0  0  0  0  0
  -24.0042  -27.3416   18.9614 H   0  0  0  0  0  0
  -23.7641  -30.6050   19.4000 H   0  0  0  0  0  0
  -22.7734  -29.2515   19.8509 H   0  0  0  0  0  0
  -25.1303  -36.1977   25.0823 H   0  0  0  0  0  0
  -21.0021  -28.3270   24.1401 H   0  0  0  0  0  0
  -20.5826  -26.2308   23.3589 H   0  0  0  0  0  0
  -21.6685  -26.7525   22.1111 H   0  0  0  0  0  0
  -19.6910  -25.6336   21.1223 H   0  0  0  0  0  0
  -19.6672  -27.3277   20.6816 H   0  0  0  0  0  0
  -17.4229  -26.6730   21.4030 H   0  0  0  0  0  0
  -18.0280  -26.0112   22.9041 H   0  0  0  0  0  0
  -19.7933  -30.7336   24.2216 H   0  0  0  0  0  0
  -17.5001  -31.6255   24.5212 H   0  0  0  0  0  0
  -15.5351  -30.2982   23.7682 H   0  0  0  0  0  0
  -15.8690  -28.0863   22.6992 H   0  0  0  0  0  0
  -24.5986  -30.6980   25.7795 H   0  0  0  0  0  0
  -24.8906  -32.2867   26.4797 H   0  0  0  0  0  0
  -25.8122  -30.8951   27.0240 H   0  0  0  0  0  0
  -26.2893  -29.6778   24.1163 H   0  0  0  0  0  0
  -27.4086  -29.7249   25.4584 H   0  0  0  0  0  0
  -27.8736  -30.4325   23.9304 H   0  0  0  0  0  0
  -27.2693  -33.3615   26.2016 H   0  0  0  0  0  0
  -28.3919  -32.6776   25.0342 H   0  0  0  0  0  0
  -28.0670  -31.8417   26.5440 H   0  0  0  0  0  0
  -28.2595  -38.0131   24.7559 H   0  0  0  0  0  0
  -28.1091  -36.2646   24.6231 H   0  0  0  0  0  0
  -27.2298  -37.1406   25.8872 H   0  0  0  0  0  0
  -20.9318  -29.8830   21.6926 H   0  0  0  0  0  0
  -26.0155  -38.2883   24.1422 H   0  0  0  0  0  0
  -30.9424  -21.5603   20.4969 H   0  0  0  0  0  0
  -27.0619  -19.6939   20.6497 H   0  0  0  0  0  0
  -31.4206  -17.8687   18.0380 H   0  0  0  0  0  0
  -29.9118  -16.9760   17.8618 H   0  0  0  0  0  0
  -31.4399  -16.1228   18.0794 H   0  0  0  0  0  0
  -26.0841  -21.5678   20.7438 H   0  0  0  0  0  0
  -26.7825  -22.0049   19.1827 H   0  0  0  0  0  0
  -26.1816  -23.2089   20.3104 H   0  0  0  0  0  0
  -27.4884  -21.4054   22.7609 H   0  0  0  0  0  0
  -27.3153  -23.1469   22.7443 H   0  0  0  0  0  0
  -28.9022  -22.4163   22.9522 H   0  0  0  0  0  0
  -29.6838  -23.9159   21.2403 H   0  0  0  0  0  0
  -29.4440  -23.5817   19.5575 H   0  0  0  0  0  0
  -27.2170  -24.9476   21.1250 H   0  0  0  0  0  0
  -27.4641  -24.7503   19.3886 H   0  0  0  0  0  0
  -31.6603  -17.1121   20.3755 H   0  0  0  0  0  0
  -29.0439  -15.8119   20.5754 H   0  0  0  0  0  0
  1 25  1  0  0  0
  1 30  2  0  0  0
  1 84  1  0  0  0
  2  3  1  0  0  0
  2 25  1  0  0  0
  2 85  1  0  0  0
  2 86  1  0  0  0
  3  4  1  0  0  0
  3 87  1  0  0  0
  3 88  1  0  0  0
  4  5  1  0  0  0
  4 89  1  0  0  0
  4 90  1  0  0  0
  5  6  1  0  0  0
  5 26  1  0  0  0
  5 91  1  0  0  0
  6 25  1  0  0  0
  6 92  1  0  0  0
  6 93  1  0  0  0
  7  8  2  0  0  0
  7 26  1  0  0  0
  7 29  1  0  0  0
  8  9  1  0  0  0
  8 22  1  0  0  0
  9 10  1  0  0  0
  9 27  2  0  0  0
 10 11  2  0  0  0
 10 15  1  0  0  0
 11 12  1  0  0  0
 11 94  1  0  0  0
 12 13  2  0  0  0
 12 95  1  0  0  0
 13 14  1  0  0  0
 13 31  1  0  0  0
 14 15  2  0  0  0
 14 96  1  0  0  0
 15 97  1  0  0  0
 16 17  2  0  0  0
 16 21  1  0  0  0
 16 31  1  0  0  0
 17 18  1  0  0  0
 17 98  1  0  0  0
 18 19  2  0  0  0
 18 99  1  0  0  0
 19 20  1  0  0  0
 19 24  1  0  0  0
 20 21  2  0  0  0
 20100  1  0  0  0
 21 23  1  0  0  0
 22 28  1  0  0  0
 22 32  2  0  0  0
 26 27  1  0  0  0
 28101  1  0  0  0
 28102  1  0  0  0
 29103  1  0  0  0
 29104  1  0  0  0
 33 34  1  0  0  0
 33 66  1  0  0  0
 33 70  2  0  0  0
 34 36  1  0  0  0
 34 59  1  0  0  0
 34105  1  0  0  0
 35 44  2  0  0  0
 35 45  1  0  0  0
 35 68  1  0  0  0
 36 56  1  0  0  0
 36106  1  0  0  0
 37 39  1  0  0  0
 37 47  1  0  0  0
 37 66  1  0  0  0
 37107  1  0  0  0
 38 43  2  0  0  0
 38 46  1  0  0  0
 38 47  1  0  0  0
 39 64  1  0  0  0
 39 67  2  0  0  0
 40 52  1  0  0  0
 40 53  2  0  0  0
 40 58  1  0  0  0
 41108  1  0  0  0
 41109  1  0  0  0
 41110  1  0  0  0
 41 48  1  0  0  0
 42 43  1  0  0  0
 42 66  1  0  0  0
 42111  1  0  0  0
 42112  1  0  0  0
 43 44  1  0  0  0
 44113  1  0  0  0
 45 46  2  0  0  0
 45114  1  0  0  0
 46115  1  0  0  0
 47116  1  0  0  0
 47117  1  0  0  0
 48 56  1  0  0  0
 48 65  1  0  0  0
 48118  1  0  0  0
 49 50  1  0  0  0
 49 53  1  0  0  0
 49 64  1  0  0  0
 49119  1  0  0  0
 50 51  1  0  0  0
 50120  1  0  0  0
 50121  1  0  0  0
 51 52  1  0  0  0
 51122  1  0  0  0
 51123  1  0  0  0
 52124  1  0  0  0
 52125  1  0  0  0
 53 54  1  0  0  0
 54 55  2  0  0  0
 54126  1  0  0  0
 55 57  1  0  0  0
 55127  1  0  0  0
 56 69  2  0  0  0
 57 58  2  0  0  0
 57128  1  0  0  0
 58129  1  0  0  0
 59 60  1  0  0  0
 59 61  1  0  0  0
 59 62  1  0  0  0
 60130  1  0  0  0
 60131  1  0  0  0
 60132  1  0  0  0
 61133  1  0  0  0
 61134  1  0  0  0
 61135  1  0  0  0
 62136  1  0  0  0
 62137  1  0  0  0
 62138  1  0  0  0
 63 65  1  0  0  0
 63139  1  0  0  0
 63140  1  0  0  0
 63141  1  0  0  0
 64142  1  0  0  0
 65143  1  0  0  0
 68 79  1  0  0  0
 71 73  2  0  0  0
 71 82  1  0  0  0
 71144  1  0  0  0
 72 73  1  0  0  0
 72 83  2  0  0  0
 72145  1  0  0  0
 73 81  1  0  0  0
 74 80  1  0  0  0
 74 82  2  0  0  0
 74 83  1  0  0  0
 75146  1  0  0  0
 75147  1  0  0  0
 75148  1  0  0  0
 75 80  1  0  0  0
 76149  1  0  0  0
 76150  1  0  0  0
 76151  1  0  0  0
 76 81  1  0  0  0
 77 81  1  0  0  0
 77152  1  0  0  0
 77153  1  0  0  0
 77154  1  0  0  0
 78 79  1  0  0  0
 78 81  1  0  0  0
 78155  1  0  0  0
 78156  1  0  0  0
 79157  1  0  0  0
 79158  1  0  0  0
 80 84  1  0  0  0
 80159  1  0  0  0
 84160  1  0  0  0
M  ISO  4   1 100  68 101  79 101  84 100
M  END
> <chiral flag>
0

> <version>
0

> <s_m_source_file>
/data/baiqing/PycharmProjects/Reinvent-master-3.2/result/LINK_invent/BTK/process_docking_weight1_custom_sum_contain_oxygen_bond_distance_aromatic_linkinvent_7_9_3/rearranged_h_0073.sdf

> <i_m_source_file_index>
46

> <r_mmod_Potential_Energy-OPLS-2005>
-380.949249267578

> <r_mmod_Stretch_Energy-OPLS-2005>
84.2958831787109

> <r_mmod_Bend_Energy-OPLS-2005>
165.437805175781

> <r_mmod_Torsional_Energy-OPLS-2005>
212.922424316406

> <r_mmod_Improper_Torsional_Energy-OPLS-2005>
9.7516975402832

> <r_mmod_Van_der_Waal_Energy-OPLS-2005>
174.958709716797

> <r_mmod_Electrostatic_Energy-OPLS-2005>
-874.263916015625

> <r_mmod_Solvation_Energy-OPLS-2005>
-211.364593505859

> <b_mmod_Minimization_Converged-OPLS-2005>
0

> <r_mmod_RMS_Derivative-OPLS-2005>
4.73247241973877

$$$$
46
                    3D
 Structure written by MMmdl.
174182  0  0  1  0            999 V2000
  -30.7196  -14.4369   20.6241 C   0  0  0  0  0  0
  -30.4192  -12.2987   19.4152 C   0  0  0  0  0  0
  -29.4983  -12.5200   18.1999 C   0  0  0  0  0  0
  -28.0168  -12.3816   18.6046 C   0  0  0  0  0  0
  -27.6607  -13.2107   19.8662 C   0  0  2  0  0  0
  -28.6976  -12.9772   20.9860 C   0  0  0  0  0  0
  -25.2569  -13.8182   20.5661 C   0  0  0  0  0  0
  -24.1825  -13.0454   20.9168 C   0  0  0  0  0  0
  -24.6378  -11.6915   20.8707 C   0  0  0  0  0  0
  -23.9050  -10.4306   21.0398 C   0  0  0  0  0  0
  -24.3605   -9.4219   21.9169 C   0  0  0  0  0  0
  -23.6285   -8.2243   22.0736 C   0  0  0  0  0  0
  -22.4270   -8.0275   21.3531 C   0  0  0  0  0  0
  -21.9904   -9.0246   20.4631 C   0  0  0  0  0  0
  -22.7224  -10.2134   20.3041 C   0  0  0  0  0  0
  -21.6847   -6.0731   22.5284 C   0  0  0  0  0  0
  -21.4011   -6.5633   23.8218 C   0  0  0  0  0  0
  -21.3661   -5.6788   24.9183 C   0  0  0  0  0  0
  -21.6053   -4.3048   24.7236 C   0  0  0  0  0  0
  -21.8819   -3.8143   23.4350 C   0  0  0  0  0  0
  -21.9192   -4.6958   22.3413 C   0  0  0  0  0  0
  -22.7843  -13.5228   21.1884 C   0  0  0  0  0  0
  -22.1661   -4.2141   21.0991 F   0  0  0  0  0  0
  -21.5634   -3.4535   25.7750 F   0  0  0  0  0  0
  -30.0353  -13.2740   20.4458 N   0  0  0  0  0  0
  -26.3003  -12.9355   20.3295 N   0  0  0  0  0  0
  -25.9302  -11.6512   20.5690 N   0  0  0  0  0  0
  -22.0477  -12.8195   22.0420 N   0  0  0  0  0  0
  -25.4330  -15.1902   20.4101 N   0  0  0  0  0  0
  -31.8274  -14.6025   20.1089 O   0  0  0  0  0  0
  -21.6629   -6.8872   21.4247 O   0  0  0  0  0  0
  -22.3521  -14.5547   20.6765 O   0  0  0  0  0  0
  -24.6091  -31.8724   23.2124 C   0  0  0  0  0  0
  -25.9006  -32.4847   23.8409 C   0  0  1  0  0  0
  -27.2441  -27.4756   20.1033 C   0  0  0  0  0  0
  -25.5887  -33.8646   24.2339 N   0  0  0  0  0  0
  -23.3948  -30.4936   21.5522 C   0  0  2  0  0  0
  -24.8460  -28.9623   20.1167 C   0  0  0  0  0  0
  -22.7375  -29.4672   22.5017 C   0  0  0  0  0  0
  -18.0261  -28.1372   22.8489 C   0  0  0  0  0  0
  -24.1499  -36.7328   23.2637 C   0  0  0  0  0  0
  -25.9165  -30.8550   21.3566 C   0  0  0  0  0  0
  -25.9984  -29.4877   20.7125 C   0  0  0  0  0  0
  -27.2006  -28.7507   20.7095 C   0  0  0  0  0  0
  -26.0841  -26.9679   19.4846 C   0  0  0  0  0  0
  -24.8792  -27.6967   19.5014 C   0  0  0  0  0  0
  -23.6017  -29.8212   20.1670 C   0  0  0  0  0  0
  -25.4104  -36.3108   24.0330 C   0  0  1  0  0  0
  -20.5840  -28.3658   23.1336 C   0  0  2  0  0  0
  -20.6752  -26.9403   22.5410 C   0  0  0  0  0  0
  -19.5736  -26.6380   21.5200 C   0  0  0  0  0  0
  -18.1915  -26.7919   22.1610 C   0  0  0  0  0  0
  -19.1510  -28.8826   23.2911 C   0  0  0  0  0  0
  -18.9445  -30.1440   23.8907 C   0  0  0  0  0  0
  -17.6453  -30.6587   24.0567 C   0  0  0  0  0  0
  -25.9023  -34.9483   23.5116 C   0  0  0  0  0  0
  -16.5337  -29.9087   23.6328 C   0  0  0  0  0  0
  -16.7252  -28.6502   23.0337 C   0  0  0  0  0  0
  -26.4461  -31.6610   25.0720 C   0  0  0  0  0  0
  -25.3741  -31.3702   26.1476 C   0  0  0  0  0  0
  -27.0299  -30.3064   24.6048 C   0  0  0  0  0  0
  -27.6030  -32.4342   25.7491 C   0  0  0  0  0  0
  -27.5574  -37.1796   24.8461 C   0  0  0  0  0  0
  -21.4106  -29.3041   22.3763 N   0  0  0  0  0  0
  -26.4289  -37.3779   23.9401 N   0  0  0  0  0  0
  -24.6579  -31.0857   22.1004 N   0  0  0  0  0  0
  -23.4171  -28.8211   23.3042 O   0  0  0  0  0  0
  -28.3864  -26.7119   20.0583 O   0  0  0  0  0  0
  -26.5582  -34.8920   22.4679 O   0  0  0  0  0  0
  -23.5292  -32.1479   23.7535 O   0  0  0  0  0  0
  -31.3385  -18.3970   18.4644 C   0  0  0  0  0  0
  -30.8446  -17.8282   20.4214 C   0  0  0  0  0  0
  -31.8622  -18.3486   17.0701 C   0  0  0  0  0  0
  -32.1939  -16.7738   22.2691 C   0  0  0  0  0  0
  -29.9669  -17.6059   22.8455 C   0  0  0  0  0  0
  -27.2978  -25.0238   22.2728 C   0  0  0  0  0  0
  -29.6066  -25.0914   23.2448 C   0  0  0  0  0  0
  -30.0499  -15.5785   21.4362 C   0  0  0  0  0  0
  -29.0184  -22.5615   21.4387 C   0  0  0  0  0  0
  -29.6508  -21.5277   20.4862 C   0  0  0  0  0  0
  -29.2420  -24.0177   20.9606 C   0  0  0  0  0  0
  -29.6364  -20.0719   21.0277 C   0  0  0  0  0  0
  -29.0933  -26.5289   21.2873 C   0  0  0  0  0  0
  -30.7689  -16.9591   21.6913 C   0  0  0  0  0  0
  -28.7978  -25.1479   21.9324 C   0  0  0  0  0  0
  -31.4723  -17.3694   19.3364 N   0  0  0  0  0  0
  -30.6901  -19.4519   18.9319 N   0  0  0  0  0  0
  -30.3862  -19.0992   20.2126 N   0  0  0  0  0  0
  -31.4651  -12.3871   19.1174 H   0  0  0  0  0  0
  -30.3059  -11.2845   19.8015 H   0  0  0  0  0  0
  -29.7409  -11.8093   17.4084 H   0  0  0  0  0  0
  -29.6756  -13.5134   17.7835 H   0  0  0  0  0  0
  -27.8209  -11.3263   18.7938 H   0  0  0  0  0  0
  -27.3748  -12.6700   17.7715 H   0  0  0  0  0  0
  -27.7081  -14.2612   19.5784 H   0  0  0  0  0  0
  -28.6628  -11.9382   21.3177 H   0  0  0  0  0  0
  -28.4412  -13.5667   21.8643 H   0  0  0  0  0  0
  -25.2759   -9.5689   22.4731 H   0  0  0  0  0  0
  -24.0009   -7.4629   22.7433 H   0  0  0  0  0  0
  -21.0846   -8.8755   19.8927 H   0  0  0  0  0  0
  -22.3682  -10.9665   19.6138 H   0  0  0  0  0  0
  -21.1989   -7.6135   23.9721 H   0  0  0  0  0  0
  -21.1488   -6.0516   25.9089 H   0  0  0  0  0  0
  -22.0597   -2.7600   23.2863 H   0  0  0  0  0  0
  -22.4087  -11.9863   22.4827 H   0  0  0  0  0  0
  -21.1074  -13.1199   22.2612 H   0  0  0  0  0  0
  -24.6765  -15.8574   20.5162 H   0  0  0  0  0  0
  -26.2948  -15.6197   20.0983 H   0  0  0  0  0  0
  -26.7083  -32.5597   23.1185 H   0  0  0  0  0  0
  -25.0096  -33.9848   25.0520 H   0  0  0  0  0  0
  -22.6789  -31.3060   21.4104 H   0  0  0  0  0  0
  -23.3746  -35.9680   23.3320 H   0  0  0  0  0  0
  -24.3592  -36.8937   22.2050 H   0  0  0  0  0  0
  -23.7280  -37.6541   23.6661 H   0  0  0  0  0  0
  -26.0082  -31.6202   20.5848 H   0  0  0  0  0  0
  -26.8099  -30.9223   21.9647 H   0  0  0  0  0  0
  -28.0890  -29.1703   21.1599 H   0  0  0  0  0  0
  -26.1109  -25.9995   19.0068 H   0  0  0  0  0  0
  -23.9926  -27.2854   19.0386 H   0  0  0  0  0  0
  -23.7013  -30.5942   19.4039 H   0  0  0  0  0  0
  -22.7311  -29.2307   19.8773 H   0  0  0  0  0  0
  -25.1275  -36.1954   25.0817 H   0  0  0  0  0  0
  -20.9925  -28.3219   24.1461 H   0  0  0  0  0  0
  -20.5655  -26.2277   23.3600 H   0  0  0  0  0  0
  -21.6640  -26.7469   22.1219 H   0  0  0  0  0  0
  -19.6933  -25.6284   21.1259 H   0  0  0  0  0  0
  -19.6696  -27.3186   20.6728 H   0  0  0  0  0  0
  -17.4195  -26.6681   21.4004 H   0  0  0  0  0  0
  -18.0310  -26.0060   22.9005 H   0  0  0  0  0  0
  -19.7934  -30.7237   24.2305 H   0  0  0  0  0  0
  -17.5016  -31.6274   24.5154 H   0  0  0  0  0  0
  -15.5332  -30.2986   23.7654 H   0  0  0  0  0  0
  -15.8657  -28.0823   22.7033 H   0  0  0  0  0  0
  -24.5914  -30.7042   25.7824 H   0  0  0  0  0  0
  -24.8931  -32.2858   26.4927 H   0  0  0  0  0  0
  -25.8098  -30.8886   27.0233 H   0  0  0  0  0  0
  -26.2839  -29.6810   24.1123 H   0  0  0  0  0  0
  -27.4138  -29.7283   25.4459 H   0  0  0  0  0  0
  -27.8627  -30.4419   23.9141 H   0  0  0  0  0  0
  -27.2644  -33.3641   26.2062 H   0  0  0  0  0  0
  -28.3836  -32.6893   25.0322 H   0  0  0  0  0  0
  -28.0694  -31.8482   26.5418 H   0  0  0  0  0  0
  -28.2567  -38.0112   24.7494 H   0  0  0  0  0  0
  -28.1081  -36.2627   24.6288 H   0  0  0  0  0  0
  -27.2300  -37.1452   25.8869 H   0  0  0  0  0  0
  -20.9259  -29.8798   21.7019 H   0  0  0  0  0  0
  -26.0181  -38.2857   24.1395 H   0  0  0  0  0  0
  -32.7359  -17.6988   17.0130 H   0  0  0  0  0  0
  -32.1533  -19.3422   16.7291 H   0  0  0  0  0  0
  -31.0987  -17.9597   16.3965 H   0  0  0  0  0  0
  -32.6157  -17.7290   22.5837 H   0  0  0  0  0  0
  -32.8933  -16.3577   21.5456 H   0  0  0  0  0  0
  -32.1925  -16.1146   23.1376 H   0  0  0  0  0  0
  -30.4599  -18.4877   23.2490 H   0  0  0  0  0  0
  -29.8899  -16.9292   23.6976 H   0  0  0  0  0  0
  -28.9483  -17.8605   22.5525 H   0  0  0  0  0  0
  -27.0932  -24.1487   22.8894 H   0  0  0  0  0  0
  -26.6917  -24.9386   21.3715 H   0  0  0  0  0  0
  -26.9422  -25.8942   22.8261 H   0  0  0  0  0  0
  -29.4675  -24.1568   23.7848 H   0  0  0  0  0  0
  -29.3014  -25.8898   23.9231 H   0  0  0  0  0  0
  -30.6752  -25.2102   23.0604 H   0  0  0  0  0  0
  -29.0772  -15.7744   20.9850 H   0  0  0  0  0  0
  -29.8523  -15.1315   22.4092 H   0  0  0  0  0  0
  -29.4506  -22.4254   22.4284 H   0  0  0  0  0  0
  -27.9509  -22.3599   21.5398 H   0  0  0  0  0  0
  -30.6849  -21.8227   20.3022 H   0  0  0  0  0  0
  -29.1445  -21.5754   19.5222 H   0  0  0  0  0  0
  -28.7293  -24.1470   20.0063 H   0  0  0  0  0  0
  -30.3005  -24.1553   20.7353 H   0  0  0  0  0  0
  -28.6084  -19.7206   21.1264 H   0  0  0  0  0  0
  -30.0715  -20.1100   22.0208 H   0  0  0  0  0  0
  -30.1572  -26.6049   21.0591 H   0  0  0  0  0  0
  -28.9030  -27.3181   22.0159 H   0  0  0  0  0  0
  1 25  1  0  0  0
  1 30  2  0  0  0
  1 78  1  0  0  0
  2  3  1  0  0  0
  2 25  1  0  0  0
  2 89  1  0  0  0
  2 90  1  0  0  0
  3  4  1  0  0  0
  3 91  1  0  0  0
  3 92  1  0  0  0
  4  5  1  0  0  0
  4 93  1  0  0  0
  4 94  1  0  0  0
  5  6  1  0  0  0
  5 26  1  0  0  0
  5 95  1  0  0  0
  6 25  1  0  0  0
  6 96  1  0  0  0
  6 97  1  0  0  0
  7  8  2  0  0  0
  7 26  1  0  0  0
  7 29  1  0  0  0
  8  9  1  0  0  0
  8 22  1  0  0  0
  9 10  1  0  0  0
  9 27  2  0  0  0
 10 11  2  0  0  0
 10 15  1  0  0  0
 11 12  1  0  0  0
 11 98  1  0  0  0
 12 13  2  0  0  0
 12 99  1  0  0  0
 13 14  1  0  0  0
 13 31  1  0  0  0
 14 15  2  0  0  0
 14100  1  0  0  0
 15101  1  0  0  0
 16 17  2  0  0  0
 16 21  1  0  0  0
 16 31  1  0  0  0
 17 18  1  0  0  0
 17102  1  0  0  0
 18 19  2  0  0  0
 18103  1  0  0  0
 19 20  1  0  0  0
 19 24  1  0  0  0
 20 21  2  0  0  0
 20104  1  0  0  0
 21 23  1  0  0  0
 22 28  1  0  0  0
 22 32  2  0  0  0
 26 27  1  0  0  0
 28105  1  0  0  0
 28106  1  0  0  0
 29107  1  0  0  0
 29108  1  0  0  0
 33 34  1  0  0  0
 33 66  1  0  0  0
 33 70  2  0  0  0
 34 36  1  0  0  0
 34 59  1  0  0  0
 34109  1  0  0  0
 35 44  2  0  0  0
 35 45  1  0  0  0
 35 68  1  0  0  0
 36 56  1  0  0  0
 36110  1  0  0  0
 37 39  1  0  0  0
 37 47  1  0  0  0
 37 66  1  0  0  0
 37111  1  0  0  0
 38 43  2  0  0  0
 38 46  1  0  0  0
 38 47  1  0  0  0
 39 64  1  0  0  0
 39 67  2  0  0  0
 40 52  1  0  0  0
 40 53  2  0  0  0
 40 58  1  0  0  0
 41112  1  0  0  0
 41113  1  0  0  0
 41114  1  0  0  0
 41 48  1  0  0  0
 42 43  1  0  0  0
 42 66  1  0  0  0
 42115  1  0  0  0
 42116  1  0  0  0
 43 44  1  0  0  0
 44117  1  0  0  0
 45 46  2  0  0  0
 45118  1  0  0  0
 46119  1  0  0  0
 47120  1  0  0  0
 47121  1  0  0  0
 48 56  1  0  0  0
 48 65  1  0  0  0
 48122  1  0  0  0
 49 50  1  0  0  0
 49 53  1  0  0  0
 49 64  1  0  0  0
 49123  1  0  0  0
 50 51  1  0  0  0
 50124  1  0  0  0
 50125  1  0  0  0
 51 52  1  0  0  0
 51126  1  0  0  0
 51127  1  0  0  0
 52128  1  0  0  0
 52129  1  0  0  0
 53 54  1  0  0  0
 54 55  2  0  0  0
 54130  1  0  0  0
 55 57  1  0  0  0
 55131  1  0  0  0
 56 69  2  0  0  0
 57 58  2  0  0  0
 57132  1  0  0  0
 58133  1  0  0  0
 59 60  1  0  0  0
 59 61  1  0  0  0
 59 62  1  0  0  0
 60134  1  0  0  0
 60135  1  0  0  0
 60136  1  0  0  0
 61137  1  0  0  0
 61138  1  0  0  0
 61139  1  0  0  0
 62140  1  0  0  0
 62141  1  0  0  0
 62142  1  0  0  0
 63 65  1  0  0  0
 63143  1  0  0  0
 63144  1  0  0  0
 63145  1  0  0  0
 64146  1  0  0  0
 65147  1  0  0  0
 68 83  1  0  0  0
 71 73  1  0  0  0
 71 86  1  0  0  0
 71 87  2  0  0  0
 72 84  1  0  0  0
 72 86  2  0  0  0
 72 88  1  0  0  0
 73148  1  0  0  0
 73149  1  0  0  0
 73150  1  0  0  0
 74151  1  0  0  0
 74152  1  0  0  0
 74153  1  0  0  0
 74 84  1  0  0  0
 75 84  1  0  0  0
 75154  1  0  0  0
 75155  1  0  0  0
 75156  1  0  0  0
 76157  1  0  0  0
 76158  1  0  0  0
 76159  1  0  0  0
 76 85  1  0  0  0
 77 85  1  0  0  0
 77160  1  0  0  0
 77161  1  0  0  0
 77162  1  0  0  0
 78 84  1  0  0  0
 78163  1  0  0  0
 78164  1  0  0  0
 79 80  1  0  0  0
 79 81  1  0  0  0
 79165  1  0  0  0
 79166  1  0  0  0
 80 82  1  0  0  0
 80167  1  0  0  0
 80168  1  0  0  0
 81 85  1  0  0  0
 81169  1  0  0  0
 81170  1  0  0  0
 82 88  1  0  0  0
 82171  1  0  0  0
 82172  1  0  0  0
 83 85  1  0  0  0
 83173  1  0  0  0
 83174  1  0  0  0
 87 88  1  0  0  0
M  ISO  4   1 100  68 101  78 100  83 101
M  END
> <chiral flag>
0

> <version>
0

> <s_m_source_file>
/data/baiqing/PycharmProjects/Reinvent-master-3.2/result/LINK_invent/BTK/process_docking_weight1_custom_sum_contain_oxygen_bond_distance_aromatic_linkinvent_7_9_3/rearranged_h_0073.sdf

> <i_m_source_file_index>
47

> <r_mmod_Potential_Energy-OPLS-2005>
-38.4116516113281

> <r_mmod_Stretch_Energy-OPLS-2005>
43.2983627319336

> <r_mmod_Bend_Energy-OPLS-2005>
137.838470458984

> <r_mmod_Torsional_Energy-OPLS-2005>
194.738555908203

> <r_mmod_Improper_Torsional_Energy-OPLS-2005>
2.07247090339661

> <r_mmod_Van_der_Waal_Energy-OPLS-2005>
144.957244873047

> <r_mmod_Electrostatic_Energy-OPLS-2005>
-366.149993896484

> <r_mmod_Solvation_Energy-OPLS-2005>
-203.837692260742

> <b_mmod_Minimization_Converged-OPLS-2005>
0

> <r_mmod_RMS_Derivative-OPLS-2005>
2.67762541770935

$$$$
47
                    3D
 Structure written by MMmdl.
169177  0  0  1  0            999 V2000
  -30.6542  -14.5441   20.5999 C   0  0  0  0  0  0
  -30.4422  -12.3652   19.4144 C   0  0  0  0  0  0
  -29.5005  -12.5236   18.2005 C   0  0  0  0  0  0
  -28.0218  -12.3691   18.6137 C   0  0  0  0  0  0
  -27.6619  -13.2043   19.8704 C   0  0  2  0  0  0
  -28.7071  -12.9824   20.9861 C   0  0  0  0  0  0
  -25.2617  -13.8158   20.5656 C   0  0  0  0  0  0
  -24.1866  -13.0442   20.9167 C   0  0  0  0  0  0
  -24.6407  -11.6898   20.8722 C   0  0  0  0  0  0
  -23.9064  -10.4291   21.0388 C   0  0  0  0  0  0
  -24.3615   -9.4208   21.9162 C   0  0  0  0  0  0
  -23.6289   -8.2247   22.0751 C   0  0  0  0  0  0
  -22.4268   -8.0282   21.3549 C   0  0  0  0  0  0
  -21.9901   -9.0252   20.4645 C   0  0  0  0  0  0
  -22.7232  -10.2131   20.3043 C   0  0  0  0  0  0
  -21.6857   -6.0726   22.5269 C   0  0  0  0  0  0
  -21.4012   -6.5627   23.8204 C   0  0  0  0  0  0
  -21.3661   -5.6777   24.9168 C   0  0  0  0  0  0
  -21.6056   -4.3040   24.7223 C   0  0  0  0  0  0
  -21.8828   -3.8134   23.4339 C   0  0  0  0  0  0
  -21.9204   -4.6954   22.3395 C   0  0  0  0  0  0
  -22.7890  -13.5239   21.1828 C   0  0  0  0  0  0
  -22.1671   -4.2134   21.0977 F   0  0  0  0  0  0
  -21.5637   -3.4526   25.7739 F   0  0  0  0  0  0
  -30.0274  -13.3409   20.4373 N   0  0  0  0  0  0
  -26.3030  -12.9311   20.3331 N   0  0  0  0  0  0
  -25.9327  -11.6479   20.5726 N   0  0  0  0  0  0
  -22.0545  -12.8224   22.0385 N   0  0  0  0  0  0
  -25.4419  -15.1872   20.4031 N   0  0  0  0  0  0
  -31.7795  -14.7649   20.1424 O   0  0  0  0  0  0
  -21.6654   -6.8866   21.4225 O   0  0  0  0  0  0
  -22.3572  -14.5550   20.6691 O   0  0  0  0  0  0
  -24.6179  -31.8632   23.2062 C   0  0  0  0  0  0
  -25.9055  -32.4785   23.8388 C   0  0  1  0  0  0
  -27.2324  -27.3922   20.1106 C   0  0  0  0  0  0
  -25.5890  -33.8588   24.2305 N   0  0  0  0  0  0
  -23.4073  -30.4859   21.5461 C   0  0  2  0  0  0
  -24.8533  -28.9360   20.1214 C   0  0  0  0  0  0
  -22.7416  -29.4648   22.4971 C   0  0  0  0  0  0
  -18.0277  -28.1393   22.8495 C   0  0  0  0  0  0
  -24.1490  -36.7313   23.2646 C   0  0  0  0  0  0
  -25.9401  -30.8149   21.3659 C   0  0  0  0  0  0
  -26.0154  -29.4452   20.7146 C   0  0  0  0  0  0
  -27.2101  -28.6840   20.6959 C   0  0  0  0  0  0
  -26.0532  -26.8986   19.5186 C   0  0  0  0  0  0
  -24.8683  -27.6639   19.5201 C   0  0  0  0  0  0
  -23.6183  -29.8110   20.1641 C   0  0  0  0  0  0
  -25.4106  -36.3089   24.0339 C   0  0  1  0  0  0
  -20.5867  -28.3682   23.1299 C   0  0  2  0  0  0
  -20.6767  -26.9415   22.5406 C   0  0  0  0  0  0
  -19.5746  -26.6397   21.5204 C   0  0  0  0  0  0
  -18.1922  -26.7941   22.1617 C   0  0  0  0  0  0
  -19.1524  -28.8854   23.2901 C   0  0  0  0  0  0
  -18.9456  -30.1465   23.8916 C   0  0  0  0  0  0
  -17.6456  -30.6599   24.0568 C   0  0  0  0  0  0
  -25.9034  -34.9454   23.5120 C   0  0  0  0  0  0
  -16.5351  -29.9095   23.6340 C   0  0  0  0  0  0
  -16.7266  -28.6511   23.0359 C   0  0  0  0  0  0
  -26.4466  -31.6588   25.0742 C   0  0  0  0  0  0
  -25.3745  -31.3674   26.1506 C   0  0  0  0  0  0
  -27.0319  -30.3032   24.6159 C   0  0  0  0  0  0
  -27.6044  -32.4328   25.7486 C   0  0  0  0  0  0
  -27.5577  -37.1804   24.8467 C   0  0  0  0  0  0
  -21.4142  -29.3042   22.3703 N   0  0  0  0  0  0
  -26.4288  -37.3773   23.9415 N   0  0  0  0  0  0
  -24.6733  -31.0708   22.0973 N   0  0  0  0  0  0
  -23.4167  -28.8208   23.3043 O   0  0  0  0  0  0
  -28.4138  -26.6709   20.0526 O   0  0  0  0  0  0
  -26.5598  -34.8906   22.4690 O   0  0  0  0  0  0
  -23.5362  -32.1408   23.7433 O   0  0  0  0  0  0
  -29.5099  -19.8858   18.7123 C   0  0  0  0  0  0
  -29.9933  -18.6083   18.4043 C   0  0  0  0  0  0
  -29.1761  -20.1554   20.0468 C   0  0  0  0  0  0
  -29.7963  -17.9628   20.5935 C   0  0  0  0  0  0
  -30.4037  -18.2444   16.9939 C   0  0  0  0  0  0
  -29.1260  -17.0206   22.8608 C   0  0  0  0  0  0
  -31.5374  -17.0978   22.2233 C   0  0  0  0  0  0
  -30.0770  -25.4542   21.0567 C   0  0  0  0  0  0
  -27.7679  -25.2831   22.0091 C   0  0  0  0  0  0
  -28.5061  -21.5050   20.4416 C   0  0  0  0  0  0
  -29.1530  -22.8179   19.8672 C   0  0  0  0  0  0
  -28.2858  -24.1444   19.7613 C   0  0  0  0  0  0
  -30.1105  -16.8834   21.6779 C   0  0  0  0  0  0
  -28.5819  -25.3751   20.7031 C   0  0  0  0  0  0
  -30.1192  -17.6532   19.3430 N   0  0  0  0  0  0
  -29.3583  -19.1820   20.9815 N   0  0  0  0  0  0
  -29.9048  -15.4751   21.2352 N   0  0  0  0  0  0
  -31.4790  -12.5077   19.1039 H   0  0  0  0  0  0
  -30.3854  -11.3522   19.8156 H   0  0  0  0  0  0
  -29.7510  -11.7939   17.4285 H   0  0  0  0  0  0
  -29.6533  -13.5048   17.7475 H   0  0  0  0  0  0
  -27.8397  -11.3111   18.8074 H   0  0  0  0  0  0
  -27.3700  -12.6442   17.7832 H   0  0  0  0  0  0
  -27.7041  -14.2532   19.5749 H   0  0  0  0  0  0
  -28.7124  -11.9355   21.2967 H   0  0  0  0  0  0
  -28.4498  -13.5434   21.8855 H   0  0  0  0  0  0
  -25.2777   -9.5687   22.4710 H   0  0  0  0  0  0
  -24.0024   -7.4638   22.7451 H   0  0  0  0  0  0
  -21.0852   -8.8754   19.8933 H   0  0  0  0  0  0
  -22.3697  -10.9661   19.6134 H   0  0  0  0  0  0
  -21.1991   -7.6133   23.9692 H   0  0  0  0  0  0
  -21.1477   -6.0513   25.9066 H   0  0  0  0  0  0
  -22.0611   -2.7595   23.2849 H   0  0  0  0  0  0
  -22.4180  -11.9891   22.4790 H   0  0  0  0  0  0
  -21.1139  -13.1207   22.2559 H   0  0  0  0  0  0
  -24.6819  -15.8517   20.5074 H   0  0  0  0  0  0
  -26.2884  -15.6097   20.0437 H   0  0  0  0  0  0
  -26.7117  -32.5467   23.1139 H   0  0  0  0  0  0
  -25.0067  -33.9751   25.0467 H   0  0  0  0  0  0
  -22.7009  -31.3058   21.4000 H   0  0  0  0  0  0
  -23.3741  -35.9655   23.3313 H   0  0  0  0  0  0
  -24.3601  -36.8931   22.2061 H   0  0  0  0  0  0
  -23.7245  -37.6520   23.6668 H   0  0  0  0  0  0
  -26.0634  -31.5771   20.5954 H   0  0  0  0  0  0
  -26.8239  -30.8643   21.9906 H   0  0  0  0  0  0
  -28.1144  -29.0785   21.1390 H   0  0  0  0  0  0
  -26.0540  -25.9280   19.0446 H   0  0  0  0  0  0
  -23.9740  -27.2668   19.0590 H   0  0  0  0  0  0
  -23.7318  -30.5831   19.4017 H   0  0  0  0  0  0
  -22.7403  -29.2327   19.8681 H   0  0  0  0  0  0
  -25.1269  -36.1955   25.0824 H   0  0  0  0  0  0
  -20.9964  -28.3258   24.1417 H   0  0  0  0  0  0
  -20.5665  -26.2291   23.3598 H   0  0  0  0  0  0
  -21.6640  -26.7460   22.1200 H   0  0  0  0  0  0
  -19.6911  -25.6302   21.1244 H   0  0  0  0  0  0
  -19.6694  -27.3201   20.6726 H   0  0  0  0  0  0
  -17.4188  -26.6707   21.4019 H   0  0  0  0  0  0
  -18.0341  -26.0069   22.8997 H   0  0  0  0  0  0
  -19.7929  -30.7280   24.2296 H   0  0  0  0  0  0
  -17.5006  -31.6279   24.5170 H   0  0  0  0  0  0
  -15.5348  -30.2997   23.7663 H   0  0  0  0  0  0
  -15.8668  -28.0836   22.7069 H   0  0  0  0  0  0
  -24.5924  -30.7001   25.7858 H   0  0  0  0  0  0
  -24.8927  -32.2811   26.4996 H   0  0  0  0  0  0
  -25.8122  -30.8833   27.0248 H   0  0  0  0  0  0
  -26.2879  -29.6766   24.1224 H   0  0  0  0  0  0
  -27.4084  -29.7286   25.4633 H   0  0  0  0  0  0
  -27.8710  -30.4346   23.9327 H   0  0  0  0  0  0
  -27.2675  -33.3633   26.2072 H   0  0  0  0  0  0
  -28.3838  -32.6889   25.0295 H   0  0  0  0  0  0
  -28.0740  -31.8459   26.5392 H   0  0  0  0  0  0
  -28.2578  -38.0112   24.7513 H   0  0  0  0  0  0
  -28.1081  -36.2642   24.6286 H   0  0  0  0  0  0
  -27.2314  -37.1453   25.8874 H   0  0  0  0  0  0
  -20.9315  -29.8745   21.6901 H   0  0  0  0  0  0
  -26.0180  -38.2853   24.1405 H   0  0  0  0  0  0
  -29.3806  -20.6264   17.9346 H   0  0  0  0  0  0
  -29.7927  -18.7718   16.2613 H   0  0  0  0  0  0
  -30.2995  -17.1744   16.8138 H   0  0  0  0  0  0
  -31.4453  -18.5176   16.8272 H   0  0  0  0  0  0
  -29.2123  -17.9895   23.3526 H   0  0  0  0  0  0
  -29.3075  -16.2596   23.6210 H   0  0  0  0  0  0
  -28.0923  -16.9186   22.5309 H   0  0  0  0  0  0
  -31.6396  -18.0956   22.6493 H   0  0  0  0  0  0
  -32.2855  -17.0179   21.4346 H   0  0  0  0  0  0
  -31.7829  -16.3790   23.0057 H   0  0  0  0  0  0
  -30.3199  -26.3946   21.5526 H   0  0  0  0  0  0
  -30.6970  -25.3924   20.1614 H   0  0  0  0  0  0
  -30.3753  -24.6567   21.7375 H   0  0  0  0  0  0
  -28.0052  -24.3716   22.5579 H   0  0  0  0  0  0
  -26.6941  -25.2739   21.8207 H   0  0  0  0  0  0
  -27.9818  -26.1253   22.6681 H   0  0  0  0  0  0
  -28.4395  -21.5771   21.5279 H   0  0  0  0  0  0
  -27.4781  -21.4392   20.0829 H   0  0  0  0  0  0
  -29.4374  -22.6049   18.8383 H   0  0  0  0  0  0
  -30.1076  -22.9783   20.3609 H   0  0  0  0  0  0
  -27.2228  -23.9001   19.7954 H   0  0  0  0  0  0
  -28.4324  -24.5106   18.7438 H   0  0  0  0  0  0
  -28.9966  -15.1240   21.4859 H   0  0  0  0  0  0
  1 25  1  0  0  0
  1 30  2  0  0  0
  1 87  1  0  0  0
  2  3  1  0  0  0
  2 25  1  0  0  0
  2 88  1  0  0  0
  2 89  1  0  0  0
  3  4  1  0  0  0
  3 90  1  0  0  0
  3 91  1  0  0  0
  4  5  1  0  0  0
  4 92  1  0  0  0
  4 93  1  0  0  0
  5  6  1  0  0  0
  5 26  1  0  0  0
  5 94  1  0  0  0
  6 25  1  0  0  0
  6 95  1  0  0  0
  6 96  1  0  0  0
  7  8  2  0  0  0
  7 26  1  0  0  0
  7 29  1  0  0  0
  8  9  1  0  0  0
  8 22  1  0  0  0
  9 10  1  0  0  0
  9 27  2  0  0  0
 10 11  2  0  0  0
 10 15  1  0  0  0
 11 12  1  0  0  0
 11 97  1  0  0  0
 12 13  2  0  0  0
 12 98  1  0  0  0
 13 14  1  0  0  0
 13 31  1  0  0  0
 14 15  2  0  0  0
 14 99  1  0  0  0
 15100  1  0  0  0
 16 17  2  0  0  0
 16 21  1  0  0  0
 16 31  1  0  0  0
 17 18  1  0  0  0
 17101  1  0  0  0
 18 19  2  0  0  0
 18102  1  0  0  0
 19 20  1  0  0  0
 19 24  1  0  0  0
 20 21  2  0  0  0
 20103  1  0  0  0
 21 23  1  0  0  0
 22 28  1  0  0  0
 22 32  2  0  0  0
 26 27  1  0  0  0
 28104  1  0  0  0
 28105  1  0  0  0
 29106  1  0  0  0
 29107  1  0  0  0
 33 34  1  0  0  0
 33 66  1  0  0  0
 33 70  2  0  0  0
 34 36  1  0  0  0
 34 59  1  0  0  0
 34108  1  0  0  0
 35 44  2  0  0  0
 35 45  1  0  0  0
 35 68  1  0  0  0
 36 56  1  0  0  0
 36109  1  0  0  0
 37 39  1  0  0  0
 37 47  1  0  0  0
 37 66  1  0  0  0
 37110  1  0  0  0
 38 43  2  0  0  0
 38 46  1  0  0  0
 38 47  1  0  0  0
 39 64  1  0  0  0
 39 67  2  0  0  0
 40 52  1  0  0  0
 40 53  2  0  0  0
 40 58  1  0  0  0
 41111  1  0  0  0
 41112  1  0  0  0
 41113  1  0  0  0
 41 48  1  0  0  0
 42 43  1  0  0  0
 42 66  1  0  0  0
 42114  1  0  0  0
 42115  1  0  0  0
 43 44  1  0  0  0
 44116  1  0  0  0
 45 46  2  0  0  0
 45117  1  0  0  0
 46118  1  0  0  0
 47119  1  0  0  0
 47120  1  0  0  0
 48 56  1  0  0  0
 48 65  1  0  0  0
 48121  1  0  0  0
 49 50  1  0  0  0
 49 53  1  0  0  0
 49 64  1  0  0  0
 49122  1  0  0  0
 50 51  1  0  0  0
 50123  1  0  0  0
 50124  1  0  0  0
 51 52  1  0  0  0
 51125  1  0  0  0
 51126  1  0  0  0
 52127  1  0  0  0
 52128  1  0  0  0
 53 54  1  0  0  0
 54 55  2  0  0  0
 54129  1  0  0  0
 55 57  1  0  0  0
 55130  1  0  0  0
 56 69  2  0  0  0
 57 58  2  0  0  0
 57131  1  0  0  0
 58132  1  0  0  0
 59 60  1  0  0  0
 59 61  1  0  0  0
 59 62  1  0  0  0
 60133  1  0  0  0
 60134  1  0  0  0
 60135  1  0  0  0
 61136  1  0  0  0
 61137  1  0  0  0
 61138  1  0  0  0
 62139  1  0  0  0
 62140  1  0  0  0
 62141  1  0  0  0
 63 65  1  0  0  0
 63142  1  0  0  0
 63143  1  0  0  0
 63144  1  0  0  0
 64145  1  0  0  0
 65146  1  0  0  0
 68 84  1  0  0  0
 71 72  2  0  0  0
 71 73  1  0  0  0
 71147  1  0  0  0
 72 75  1  0  0  0
 72 85  1  0  0  0
 73 80  1  0  0  0
 73 86  2  0  0  0
 74 83  1  0  0  0
 74 85  2  0  0  0
 74 86  1  0  0  0
 75148  1  0  0  0
 75149  1  0  0  0
 75150  1  0  0  0
 76151  1  0  0  0
 76152  1  0  0  0
 76153  1  0  0  0
 76 83  1  0  0  0
 77 83  1  0  0  0
 77154  1  0  0  0
 77155  1  0  0  0
 77156  1  0  0  0
 78157  1  0  0  0
 78158  1  0  0  0
 78159  1  0  0  0
 78 84  1  0  0  0
 79 84  1  0  0  0
 79160  1  0  0  0
 79161  1  0  0  0
 79162  1  0  0  0
 80 81  1  0  0  0
 80163  1  0  0  0
 80164  1  0  0  0
 81 82  1  0  0  0
 81165  1  0  0  0
 81166  1  0  0  0
 82 84  1  0  0  0
 82167  1  0  0  0
 82168  1  0  0  0
 83 87  1  0  0  0
 87169  1  0  0  0
M  ISO  4   1 100  68 101  84 101  87 100
M  END
> <chiral flag>
0

> <version>
0

> <s_m_source_file>
/data/baiqing/PycharmProjects/Reinvent-master-3.2/result/LINK_invent/BTK/process_docking_weight1_custom_sum_contain_oxygen_bond_distance_aromatic_linkinvent_7_9_3/rearranged_h_0073.sdf

> <i_m_source_file_index>
48

> <r_mmod_Potential_Energy-OPLS-2005>
-584.635681152344

> <r_mmod_Stretch_Energy-OPLS-2005>
57.3976211547852

> <r_mmod_Bend_Energy-OPLS-2005>
152.408493041992

> <r_mmod_Torsional_Energy-OPLS-2005>
213.686096191406

> <r_mmod_Improper_Torsional_Energy-OPLS-2005>
3.20832943916321

> <r_mmod_Van_der_Waal_Energy-OPLS-2005>
153.593368530273

> <r_mmod_Electrostatic_Energy-OPLS-2005>
-967.578674316406

> <r_mmod_Solvation_Energy-OPLS-2005>
-217.672637939453

> <b_mmod_Minimization_Converged-OPLS-2005>
0

> <r_mmod_RMS_Derivative-OPLS-2005>
2.52500820159912

$$$$
48
                    3D
 Structure written by MMmdl.
158166  0  0  1  0            999 V2000
  -30.5270  -14.9818   20.4624 C   0  0  0  0  0  0
  -30.4583  -12.6198   19.4846 C   0  0  0  0  0  0
  -29.5223  -12.5492   18.2522 C   0  0  0  0  0  0
  -28.0583  -12.3063   18.6720 C   0  0  0  0  0  0
  -27.6372  -13.2174   19.8505 C   0  0  2  0  0  0
  -28.6985  -13.1975   20.9792 C   0  0  0  0  0  0
  -25.2408  -13.8080   20.5607 C   0  0  0  0  0  0
  -24.1745  -13.0341   20.9206 C   0  0  0  0  0  0
  -24.6377  -11.6842   20.8782 C   0  0  0  0  0  0
  -23.9060  -10.4238   21.0429 C   0  0  0  0  0  0
  -24.3611   -9.4158   21.9204 C   0  0  0  0  0  0
  -23.6281   -8.2200   22.0762 C   0  0  0  0  0  0
  -22.4264   -8.0253   21.3548 C   0  0  0  0  0  0
  -21.9903   -9.0228   20.4651 C   0  0  0  0  0  0
  -22.7239  -10.2099   20.3066 C   0  0  0  0  0  0
  -21.6841   -6.0721   22.5281 C   0  0  0  0  0  0
  -21.4003   -6.5629   23.8214 C   0  0  0  0  0  0
  -21.3656   -5.6785   24.9178 C   0  0  0  0  0  0
  -21.6045   -4.3048   24.7229 C   0  0  0  0  0  0
  -21.8819   -3.8138   23.4352 C   0  0  0  0  0  0
  -21.9189   -4.6951   22.3406 C   0  0  0  0  0  0
  -22.7772  -13.5143   21.1867 C   0  0  0  0  0  0
  -22.1659   -4.2140   21.0983 F   0  0  0  0  0  0
  -21.5637   -3.4533   25.7742 F   0  0  0  0  0  0
  -29.9575  -13.6956   20.3976 N   0  0  0  0  0  0
  -26.2908  -12.9302   20.3313 N   0  0  0  0  0  0
  -25.9318  -11.6463   20.5821 N   0  0  0  0  0  0
  -22.0427  -12.8163   22.0450 N   0  0  0  0  0  0
  -25.3825  -15.1791   20.3836 N   0  0  0  0  0  0
  -31.7106  -15.0240   20.1059 O   0  0  0  0  0  0
  -21.6626   -6.8857   21.4241 O   0  0  0  0  0  0
  -22.3458  -14.5452   20.6713 O   0  0  0  0  0  0
  -24.6427  -31.8447   23.1889 C   0  0  0  0  0  0
  -25.9204  -32.4698   23.8276 C   0  0  1  0  0  0
  -27.2299  -27.1492   20.1481 C   0  0  0  0  0  0
  -25.5955  -33.8505   24.2190 N   0  0  0  0  0  0
  -23.4464  -30.4637   21.5347 C   0  0  2  0  0  0
  -24.8974  -28.8901   20.1143 C   0  0  0  0  0  0
  -22.7565  -29.4552   22.4870 C   0  0  0  0  0  0
  -18.0304  -28.1397   22.8479 C   0  0  0  0  0  0
  -24.1490  -36.7254   23.2643 C   0  0  0  0  0  0
  -26.0021  -30.7222   21.3865 C   0  0  0  0  0  0
  -26.0752  -29.3343   20.7283 C   0  0  0  0  0  0
  -27.2417  -28.4816   20.7254 C   0  0  0  0  0  0
  -26.0210  -26.8022   19.5020 C   0  0  0  0  0  0
  -24.8824  -27.6362   19.4866 C   0  0  0  0  0  0
  -23.6730  -29.7910   20.1551 C   0  0  0  0  0  0
  -25.4124  -36.3033   24.0314 C   0  0  1  0  0  0
  -20.5916  -28.3722   23.1237 C   0  0  2  0  0  0
  -20.6789  -26.9426   22.5405 C   0  0  0  0  0  0
  -19.5763  -26.6381   21.5214 C   0  0  0  0  0  0
  -18.1944  -26.7934   22.1624 C   0  0  0  0  0  0
  -19.1561  -28.8878   23.2849 C   0  0  0  0  0  0
  -18.9478  -30.1474   23.8874 C   0  0  0  0  0  0
  -17.6475  -30.6593   24.0560 C   0  0  0  0  0  0
  -25.9074  -34.9409   23.5059 C   0  0  0  0  0  0
  -16.5364  -29.9085   23.6338 C   0  0  0  0  0  0
  -16.7288  -28.6504   23.0359 C   0  0  0  0  0  0
  -26.4525  -31.6569   25.0719 C   0  0  0  0  0  0
  -25.3709  -31.3761   26.1413 C   0  0  0  0  0  0
  -27.0394  -30.2966   24.6303 C   0  0  0  0  0  0
  -27.6051  -32.4341   25.7507 C   0  0  0  0  0  0
  -27.5574  -37.1786   24.8466 C   0  0  0  0  0  0
  -21.4259  -29.3048   22.3612 N   0  0  0  0  0  0
  -26.4285  -37.3747   23.9407 N   0  0  0  0  0  0
  -24.7168  -31.0311   22.0919 N   0  0  0  0  0  0
  -23.4207  -28.8103   23.3023 O   0  0  0  0  0  0
  -28.3050  -26.1871   20.1945 O   0  0  0  0  0  0
  -26.5660  -34.8905   22.4638 O   0  0  0  0  0  0
  -23.5547  -32.1320   23.7113 O   0  0  0  0  0  0
  -31.3287  -18.1330   19.5311 C   0  0  0  0  0  0
  -30.1814  -17.9414   20.3286 C   0  0  0  0  0  0
  -30.9613  -20.4573   19.3398 C   0  0  0  0  0  0
  -29.7753  -20.4228   20.1278 C   0  0  0  0  0  0
  -31.4968  -21.7237   18.7057 C   0  0  0  0  0  0
  -28.2715  -16.3913   20.6953 C   0  0  0  0  0  0
  -30.0515  -16.5267   22.4417 C   0  0  0  0  0  0
  -28.8022  -21.7503   20.3407 C   0  0  0  0  0  0
  -29.1683  -23.3996   20.2090 C   0  0  0  0  0  0
  -28.0453  -24.6523   20.2111 C   0  0  0  0  0  0
  -29.7909  -16.4437   20.9243 C   0  0  0  0  0  0
  -31.7062  -19.3508   19.0624 N   0  0  0  0  0  0
  -29.4337  -19.1300   20.6166 N   0  0  0  0  0  0
  -31.4811  -12.8024   19.1527 H   0  0  0  0  0  0
  -30.4940  -11.6572   19.9974 H   0  0  0  0  0  0
  -29.8516  -11.7645   17.5699 H   0  0  0  0  0  0
  -29.5901  -13.4852   17.6956 H   0  0  0  0  0  0
  -27.9632  -11.2599   18.9649 H   0  0  0  0  0  0
  -27.3904  -12.4482   17.8217 H   0  0  0  0  0  0
  -27.5998  -14.2095   19.4137 H   0  0  0  0  0  0
  -28.8205  -12.1793   21.3517 H   0  0  0  0  0  0
  -28.4100  -13.7610   21.8631 H   0  0  0  0  0  0
  -25.2751   -9.5632   22.4786 H   0  0  0  0  0  0
  -23.9984   -7.4585   22.7478 H   0  0  0  0  0  0
  -21.0836   -8.8748   19.8957 H   0  0  0  0  0  0
  -22.3704  -10.9642   19.6178 H   0  0  0  0  0  0
  -21.1986   -7.6135   23.9711 H   0  0  0  0  0  0
  -21.1485   -6.0519   25.9082 H   0  0  0  0  0  0
  -22.0604   -2.7601   23.2857 H   0  0  0  0  0  0
  -22.4042  -11.9834   22.4856 H   0  0  0  0  0  0
  -21.1050  -13.1200   22.2661 H   0  0  0  0  0  0
  -24.6037  -15.8176   20.5001 H   0  0  0  0  0  0
  -26.2317  -15.6404   20.0859 H   0  0  0  0  0  0
  -26.7270  -32.5308   23.1006 H   0  0  0  0  0  0
  -25.0083  -33.9621   25.0325 H   0  0  0  0  0  0
  -22.7484  -31.2892   21.3796 H   0  0  0  0  0  0
  -23.3757  -35.9581   23.3297 H   0  0  0  0  0  0
  -24.3573  -36.8896   22.2059 H   0  0  0  0  0  0
  -23.7240  -37.6445   23.6686 H   0  0  0  0  0  0
  -26.1580  -31.4774   20.6149 H   0  0  0  0  0  0
  -26.8717  -30.7707   22.0303 H   0  0  0  0  0  0
  -28.1405  -28.8216   21.2203 H   0  0  0  0  0  0
  -25.9195  -25.8503   19.0059 H   0  0  0  0  0  0
  -23.9837  -27.2900   18.9943 H   0  0  0  0  0  0
  -23.8092  -30.5646   19.3985 H   0  0  0  0  0  0
  -22.7881  -29.2325   19.8448 H   0  0  0  0  0  0
  -25.1313  -36.1859   25.0806 H   0  0  0  0  0  0
  -21.0007  -28.3311   24.1359 H   0  0  0  0  0  0
  -20.5688  -26.2335   23.3623 H   0  0  0  0  0  0
  -21.6654  -26.7436   22.1200 H   0  0  0  0  0  0
  -19.6925  -25.6287   21.1258 H   0  0  0  0  0  0
  -19.6698  -27.3179   20.6733 H   0  0  0  0  0  0
  -17.4213  -26.6679   21.4028 H   0  0  0  0  0  0
  -18.0343  -26.0081   22.9026 H   0  0  0  0  0  0
  -19.7954  -30.7298   24.2230 H   0  0  0  0  0  0
  -17.5028  -31.6271   24.5165 H   0  0  0  0  0  0
  -15.5364  -30.2980   23.7678 H   0  0  0  0  0  0
  -15.8687  -28.0815   22.7088 H   0  0  0  0  0  0
  -24.5884  -30.7116   25.7732 H   0  0  0  0  0  0
  -24.8905  -32.2946   26.4793 H   0  0  0  0  0  0
  -25.7988  -30.8959   27.0222 H   0  0  0  0  0  0
  -26.3017  -29.6689   24.1291 H   0  0  0  0  0  0
  -27.3986  -29.7266   25.4882 H   0  0  0  0  0  0
  -27.8931  -30.4204   23.9636 H   0  0  0  0  0  0
  -27.2633  -33.3653   26.2037 H   0  0  0  0  0  0
  -28.3885  -32.6887   25.0357 H   0  0  0  0  0  0
  -28.0692  -31.8503   26.5465 H   0  0  0  0  0  0
  -28.2587  -38.0087   24.7509 H   0  0  0  0  0  0
  -28.1073  -36.2614   24.6297 H   0  0  0  0  0  0
  -27.2289  -37.1439   25.8869 H   0  0  0  0  0  0
  -20.9472  -29.8751   21.6781 H   0  0  0  0  0  0
  -26.0150  -38.2813   24.1412 H   0  0  0  0  0  0
  -31.9753  -17.3138   19.2604 H   0  0  0  0  0  0
  -30.7848  -22.1153   17.9801 H   0  0  0  0  0  0
  -32.4315  -21.5408   18.1742 H   0  0  0  0  0  0
  -31.7029  -22.4764   19.4659 H   0  0  0  0  0  0
  -27.7727  -17.2836   21.0721 H   0  0  0  0  0  0
  -27.7876  -15.5976   21.2416 H   0  0  0  0  0  0
  -28.0374  -16.3301   19.6331 H   0  0  0  0  0  0
  -29.4803  -17.3336   22.9021 H   0  0  0  0  0  0
  -31.1058  -16.7183   22.6452 H   0  0  0  0  0  0
  -29.7798  -15.6036   22.9552 H   0  0  0  0  0  0
  -28.3532  -21.6174   21.3249 H   0  0  0  0  0  0
  -27.9793  -21.5800   19.6469 H   0  0  0  0  0  0
  -29.6946  -23.5460   19.2710 H   0  0  0  0  0  0
  -29.9009  -23.6215   20.9848 H   0  0  0  0  0  0
  -27.4003  -24.4845   21.0743 H   0  0  0  0  0  0
  -27.4208  -24.4334   19.3474 H   0  0  0  0  0  0
  1 25  1  0  0  0
  1 30  2  0  0  0
  1 81  1  0  0  0
  2  3  1  0  0  0
  2 25  1  0  0  0
  2 84  1  0  0  0
  2 85  1  0  0  0
  3  4  1  0  0  0
  3 86  1  0  0  0
  3 87  1  0  0  0
  4  5  1  0  0  0
  4 88  1  0  0  0
  4 89  1  0  0  0
  5  6  1  0  0  0
  5 26  1  0  0  0
  5 90  1  0  0  0
  6 25  1  0  0  0
  6 91  1  0  0  0
  6 92  1  0  0  0
  7  8  2  0  0  0
  7 26  1  0  0  0
  7 29  1  0  0  0
  8  9  1  0  0  0
  8 22  1  0  0  0
  9 10  1  0  0  0
  9 27  2  0  0  0
 10 11  2  0  0  0
 10 15  1  0  0  0
 11 12  1  0  0  0
 11 93  1  0  0  0
 12 13  2  0  0  0
 12 94  1  0  0  0
 13 14  1  0  0  0
 13 31  1  0  0  0
 14 15  2  0  0  0
 14 95  1  0  0  0
 15 96  1  0  0  0
 16 17  2  0  0  0
 16 21  1  0  0  0
 16 31  1  0  0  0
 17 18  1  0  0  0
 17 97  1  0  0  0
 18 19  2  0  0  0
 18 98  1  0  0  0
 19 20  1  0  0  0
 19 24  1  0  0  0
 20 21  2  0  0  0
 20 99  1  0  0  0
 21 23  1  0  0  0
 22 28  1  0  0  0
 22 32  2  0  0  0
 26 27  1  0  0  0
 28100  1  0  0  0
 28101  1  0  0  0
 29102  1  0  0  0
 29103  1  0  0  0
 33 34  1  0  0  0
 33 66  1  0  0  0
 33 70  2  0  0  0
 34 36  1  0  0  0
 34 59  1  0  0  0
 34104  1  0  0  0
 35 44  2  0  0  0
 35 45  1  0  0  0
 35 68  1  0  0  0
 36 56  1  0  0  0
 36105  1  0  0  0
 37 39  1  0  0  0
 37 47  1  0  0  0
 37 66  1  0  0  0
 37106  1  0  0  0
 38 43  2  0  0  0
 38 46  1  0  0  0
 38 47  1  0  0  0
 39 64  1  0  0  0
 39 67  2  0  0  0
 40 52  1  0  0  0
 40 53  2  0  0  0
 40 58  1  0  0  0
 41107  1  0  0  0
 41108  1  0  0  0
 41109  1  0  0  0
 41 48  1  0  0  0
 42 43  1  0  0  0
 42 66  1  0  0  0
 42110  1  0  0  0
 42111  1  0  0  0
 43 44  1  0  0  0
 44112  1  0  0  0
 45 46  2  0  0  0
 45113  1  0  0  0
 46114  1  0  0  0
 47115  1  0  0  0
 47116  1  0  0  0
 48 56  1  0  0  0
 48 65  1  0  0  0
 48117  1  0  0  0
 49 50  1  0  0  0
 49 53  1  0  0  0
 49 64  1  0  0  0
 49118  1  0  0  0
 50 51  1  0  0  0
 50119  1  0  0  0
 50120  1  0  0  0
 51 52  1  0  0  0
 51121  1  0  0  0
 51122  1  0  0  0
 52123  1  0  0  0
 52124  1  0  0  0
 53 54  1  0  0  0
 54 55  2  0  0  0
 54125  1  0  0  0
 55 57  1  0  0  0
 55126  1  0  0  0
 56 69  2  0  0  0
 57 58  2  0  0  0
 57127  1  0  0  0
 58128  1  0  0  0
 59 60  1  0  0  0
 59 61  1  0  0  0
 59 62  1  0  0  0
 60129  1  0  0  0
 60130  1  0  0  0
 60131  1  0  0  0
 61132  1  0  0  0
 61133  1  0  0  0
 61134  1  0  0  0
 62135  1  0  0  0
 62136  1  0  0  0
 62137  1  0  0  0
 63 65  1  0  0  0
 63138  1  0  0  0
 63139  1  0  0  0
 63140  1  0  0  0
 64141  1  0  0  0
 65142  1  0  0  0
 68 80  1  0  0  0
 71 72  2  0  0  0
 71 82  1  0  0  0
 71143  1  0  0  0
 72 81  1  0  0  0
 72 83  1  0  0  0
 73 74  1  0  0  0
 73 75  1  0  0  0
 73 82  2  0  0  0
 74 78  1  0  0  0
 74 83  2  0  0  0
 75144  1  0  0  0
 75145  1  0  0  0
 75146  1  0  0  0
 76147  1  0  0  0
 76148  1  0  0  0
 76149  1  0  0  0
 76 81  1  0  0  0
 77 81  1  0  0  0
 77150  1  0  0  0
 77151  1  0  0  0
 77152  1  0  0  0
 78 79  1  0  0  0
 78153  1  0  0  0
 78154  1  0  0  0
 79 80  1  0  0  0
 79155  1  0  0  0
 79156  1  0  0  0
 80157  1  0  0  0
 80158  1  0  0  0
M  ISO  4   1 100  68 101  80 101  81 100
M  END
> <chiral flag>
0

> <version>
0

> <s_m_source_file>
/data/baiqing/PycharmProjects/Reinvent-master-3.2/result/LINK_invent/BTK/process_docking_weight1_custom_sum_contain_oxygen_bond_distance_aromatic_linkinvent_7_9_3/rearranged_h_0073.sdf

> <i_m_source_file_index>
49

> <r_mmod_Potential_Energy-OPLS-2005>
630.902038574219

> <r_mmod_Stretch_Energy-OPLS-2005>
289.652465820312

> <r_mmod_Bend_Energy-OPLS-2005>
285.242553710938

> <r_mmod_Torsional_Energy-OPLS-2005>
185.982879638672

> <r_mmod_Improper_Torsional_Energy-OPLS-2005>
1.96167123317719

> <r_mmod_Van_der_Waal_Energy-OPLS-2005>
152.883666992188

> <r_mmod_Electrostatic_Energy-OPLS-2005>
-269.684112548828

> <r_mmod_Solvation_Energy-OPLS-2005>
-200.936904907227

> <b_mmod_Minimization_Converged-OPLS-2005>
0

> <r_mmod_RMS_Derivative-OPLS-2005>
0.438251376152039

$$$$
49
                    3D
 Structure written by MMmdl.
162170  0  0  1  0            999 V2000
  -30.5801  -14.7428   20.4488 C   0  0  0  0  0  0
  -30.4411  -12.4568   19.4569 C   0  0  0  0  0  0
  -29.5069  -12.5058   18.2257 C   0  0  0  0  0  0
  -28.0320  -12.3327   18.6418 C   0  0  0  0  0  0
  -27.6441  -13.2231   19.8530 C   0  0  2  0  0  0
  -28.6931  -13.1311   20.9833 C   0  0  0  0  0  0
  -25.2535  -13.8174   20.5732 C   0  0  0  0  0  0
  -24.1811  -13.0432   20.9219 C   0  0  0  0  0  0
  -24.6381  -11.6909   20.8757 C   0  0  0  0  0  0
  -23.9050  -10.4291   21.0409 C   0  0  0  0  0  0
  -24.3600   -9.4207   21.9184 C   0  0  0  0  0  0
  -23.6285   -8.2237   22.0751 C   0  0  0  0  0  0
  -22.4269   -8.0276   21.3538 C   0  0  0  0  0  0
  -21.9916   -9.0243   20.4631 C   0  0  0  0  0  0
  -22.7229  -10.2128   20.3051 C   0  0  0  0  0  0
  -21.6857   -6.0738   22.5273 C   0  0  0  0  0  0
  -21.4015   -6.5635   23.8202 C   0  0  0  0  0  0
  -21.3665   -5.6781   24.9161 C   0  0  0  0  0  0
  -21.6044   -4.3045   24.7213 C   0  0  0  0  0  0
  -21.8823   -3.8147   23.4338 C   0  0  0  0  0  0
  -21.9194   -4.6968   22.3397 C   0  0  0  0  0  0
  -22.7833  -13.5242   21.1845 C   0  0  0  0  0  0
  -22.1668   -4.2149   21.0979 F   0  0  0  0  0  0
  -21.5633   -3.4538   25.7730 F   0  0  0  0  0  0
  -29.9882  -13.5014   20.4019 N   0  0  0  0  0  0
  -26.2938  -12.9352   20.3296 N   0  0  0  0  0  0
  -25.9307  -11.6507   20.5763 N   0  0  0  0  0  0
  -22.0441  -12.8245   22.0376 N   0  0  0  0  0  0
  -25.4247  -15.1886   20.4151 N   0  0  0  0  0  0
  -31.7659  -14.8769   20.1325 O   0  0  0  0  0  0
  -21.6637   -6.8875   21.4229 O   0  0  0  0  0  0
  -22.3532  -14.5555   20.6696 O   0  0  0  0  0  0
  -24.6335  -31.8541   23.1950 C   0  0  0  0  0  0
  -25.9159  -32.4751   23.8307 C   0  0  1  0  0  0
  -27.2231  -27.2569   20.1140 C   0  0  0  0  0  0
  -25.5964  -33.8547   24.2243 N   0  0  0  0  0  0
  -23.4286  -30.4765   21.5384 C   0  0  2  0  0  0
  -24.8740  -28.9169   20.1076 C   0  0  0  0  0  0
  -22.7503  -29.4600   22.4892 C   0  0  0  0  0  0
  -18.0293  -28.1393   22.8488 C   0  0  0  0  0  0
  -24.1491  -36.7284   23.2645 C   0  0  0  0  0  0
  -25.9743  -30.7630   21.3746 C   0  0  0  0  0  0
  -26.0434  -29.3832   20.7189 C   0  0  0  0  0  0
  -27.2165  -28.5630   20.7125 C   0  0  0  0  0  0
  -26.0269  -26.8544   19.4793 C   0  0  0  0  0  0
  -24.8706  -27.6622   19.4776 C   0  0  0  0  0  0
  -23.6449  -29.8042   20.1557 C   0  0  0  0  0  0
  -25.4117  -36.3063   24.0324 C   0  0  1  0  0  0
  -20.5895  -28.3714   23.1243 C   0  0  2  0  0  0
  -20.6788  -26.9426   22.5394 C   0  0  0  0  0  0
  -19.5750  -26.6379   21.5212 C   0  0  0  0  0  0
  -18.1928  -26.7939   22.1618 C   0  0  0  0  0  0
  -19.1549  -28.8863   23.2869 C   0  0  0  0  0  0
  -18.9481  -30.1463   23.8892 C   0  0  0  0  0  0
  -17.6483  -30.6600   24.0560 C   0  0  0  0  0  0
  -25.9055  -34.9437   23.5081 C   0  0  0  0  0  0
  -16.5372  -29.9099   23.6332 C   0  0  0  0  0  0
  -16.7285  -28.6510   23.0369 C   0  0  0  0  0  0
  -26.4520  -31.6597   25.0718 C   0  0  0  0  0  0
  -25.3729  -31.3769   26.1433 C   0  0  0  0  0  0
  -27.0399  -30.3020   24.6228 C   0  0  0  0  0  0
  -27.6057  -32.4357   25.7510 C   0  0  0  0  0  0
  -27.5579  -37.1797   24.8462 C   0  0  0  0  0  0
  -21.4208  -29.3062   22.3636 N   0  0  0  0  0  0
  -26.4286  -37.3772   23.9412 N   0  0  0  0  0  0
  -24.6981  -31.0499   22.0930 N   0  0  0  0  0  0
  -23.4200  -28.8148   23.2999 O   0  0  0  0  0  0
  -28.3543  -26.4090   20.1719 O   0  0  0  0  0  0
  -26.5611  -34.8915   22.4644 O   0  0  0  0  0  0
  -23.5479  -32.1364   23.7246 O   0  0  0  0  0  0
  -29.7580  -21.7575   19.4436 C   0  0  0  0  0  0
  -28.3536  -21.0274   20.8930 C   0  0  0  0  0  0
  -28.7918  -22.2523   20.3795 C   0  0  0  0  0  0
  -29.4658  -24.1458   21.8730 C   0  0  0  0  0  0
  -27.0317  -23.7548   21.4683 C   0  0  0  0  0  0
  -28.0886  -18.1479   21.8596 C   0  0  0  0  0  0
  -27.8116  -17.9940   19.3887 C   0  0  0  0  0  0
  -30.0410  -17.3444   20.4486 C   0  0  0  0  0  0
  -28.4021  -24.9657   19.7265 C   0  0  0  0  0  0
  -28.4233  -23.7590   20.8104 C   0  0  0  0  0  0
  -28.7926  -18.3889   20.5087 C   0  0  0  0  0  0
  -29.8893  -20.4143   19.4196 N   0  0  0  0  0  0
  -29.0449  -19.9076   20.3560 N   0  0  0  0  0  0
  -29.7612  -15.8439   20.6350 N   0  0  0  0  0  0
  -31.4774  -12.6042   19.1464 H   0  0  0  0  0  0
  -30.4099  -11.4761   19.9314 H   0  0  0  0  0  0
  -29.7850  -11.7305   17.5087 H   0  0  0  0  0  0
  -29.6288  -13.4580   17.7064 H   0  0  0  0  0  0
  -27.8812  -11.2830   18.8941 H   0  0  0  0  0  0
  -27.3742  -12.5393   17.7967 H   0  0  0  0  0  0
  -27.6435  -14.2490   19.4833 H   0  0  0  0  0  0
  -28.7343  -12.1176   21.3871 H   0  0  0  0  0  0
  -28.4332  -13.7805   21.8207 H   0  0  0  0  0  0
  -25.2734   -9.5707   22.4765 H   0  0  0  0  0  0
  -23.9994   -7.4642   22.7487 H   0  0  0  0  0  0
  -21.0850   -8.8755   19.8933 H   0  0  0  0  0  0
  -22.3684  -10.9661   19.6170 H   0  0  0  0  0  0
  -21.2004   -7.6136   23.9713 H   0  0  0  0  0  0
  -21.1489   -6.0510   25.9069 H   0  0  0  0  0  0
  -22.0605   -2.7615   23.2832 H   0  0  0  0  0  0
  -22.4054  -11.9925   22.4786 H   0  0  0  0  0  0
  -21.1044  -13.1280   22.2530 H   0  0  0  0  0  0
  -24.6584  -15.8427   20.5281 H   0  0  0  0  0  0
  -26.2588  -15.6161   20.0377 H   0  0  0  0  0  0
  -26.7232  -32.5401   23.1053 H   0  0  0  0  0  0
  -25.0185  -33.9680   25.0438 H   0  0  0  0  0  0
  -22.7284  -31.3009   21.3876 H   0  0  0  0  0  0
  -23.3750  -35.9623   23.3297 H   0  0  0  0  0  0
  -24.3567  -36.8927   22.2061 H   0  0  0  0  0  0
  -23.7235  -37.6479   23.6669 H   0  0  0  0  0  0
  -26.1095  -31.5198   20.6003 H   0  0  0  0  0  0
  -26.8545  -30.8150   22.0053 H   0  0  0  0  0  0
  -28.1153  -28.9138   21.2007 H   0  0  0  0  0  0
  -25.9464  -25.8997   18.9847 H   0  0  0  0  0  0
  -23.9755  -27.3016   18.9898 H   0  0  0  0  0  0
  -23.7679  -30.5749   19.3948 H   0  0  0  0  0  0
  -22.7644  -29.2346   19.8522 H   0  0  0  0  0  0
  -25.1290  -36.1920   25.0813 H   0  0  0  0  0  0
  -20.9997  -28.3315   24.1362 H   0  0  0  0  0  0
  -20.5688  -26.2343   23.3617 H   0  0  0  0  0  0
  -21.6658  -26.7455   22.1187 H   0  0  0  0  0  0
  -19.6915  -25.6277   21.1268 H   0  0  0  0  0  0
  -19.6687  -27.3173   20.6722 H   0  0  0  0  0  0
  -17.4206  -26.6704   21.4015 H   0  0  0  0  0  0
  -18.0315  -26.0077   22.9000 H   0  0  0  0  0  0
  -19.7959  -30.7267   24.2278 H   0  0  0  0  0  0
  -17.5043  -31.6277   24.5171 H   0  0  0  0  0  0
  -15.5366  -30.3012   23.7654 H   0  0  0  0  0  0
  -15.8679  -28.0817   22.7112 H   0  0  0  0  0  0
  -24.5880  -30.7155   25.7748 H   0  0  0  0  0  0
  -24.8954  -32.2966   26.4827 H   0  0  0  0  0  0
  -25.8022  -30.8950   27.0230 H   0  0  0  0  0  0
  -26.3011  -29.6733   24.1253 H   0  0  0  0  0  0
  -27.4097  -29.7309   25.4753 H   0  0  0  0  0  0
  -27.8862  -30.4300   23.9475 H   0  0  0  0  0  0
  -27.2641  -33.3658   26.2061 H   0  0  0  0  0  0
  -28.3889  -32.6931   25.0368 H   0  0  0  0  0  0
  -28.0707  -31.8516   26.5464 H   0  0  0  0  0  0
  -28.2578  -38.0111   24.7514 H   0  0  0  0  0  0
  -28.1088  -36.2635   24.6276 H   0  0  0  0  0  0
  -27.2292  -37.1442   25.8865 H   0  0  0  0  0  0
  -20.9404  -29.8827   21.6866 H   0  0  0  0  0  0
  -26.0162  -38.2849   24.1420 H   0  0  0  0  0  0
  -30.3935  -22.3396   18.7906 H   0  0  0  0  0  0
  -27.5896  -20.8649   21.6389 H   0  0  0  0  0  0
  -29.4743  -23.4350   22.7002 H   0  0  0  0  0  0
  -29.2698  -25.1329   22.2928 H   0  0  0  0  0  0
  -30.4695  -24.1646   21.4458 H   0  0  0  0  0  0
  -26.9779  -23.0723   22.3160 H   0  0  0  0  0  0
  -26.2618  -23.4640   20.7535 H   0  0  0  0  0  0
  -26.7684  -24.7469   21.8380 H   0  0  0  0  0  0
  -27.8614  -17.0946   22.0221 H   0  0  0  0  0  0
  -27.1390  -18.6797   21.9260 H   0  0  0  0  0  0
  -28.7149  -18.4776   22.6887 H   0  0  0  0  0  0
  -27.5111  -16.9501   19.4549 H   0  0  0  0  0  0
  -28.2587  -18.1403   18.4049 H   0  0  0  0  0  0
  -26.9026  -18.5959   19.4260 H   0  0  0  0  0  0
  -30.7676  -17.6349   21.2080 H   0  0  0  0  0  0
  -30.5515  -17.4714   19.4938 H   0  0  0  0  0  0
  -27.6595  -24.7487   18.9625 H   0  0  0  0  0  0
  -29.3442  -24.8967   19.1812 H   0  0  0  0  0  0
  -28.8096  -15.6151   20.8749 H   0  0  0  0  0  0
  1 25  1  0  0  0
  1 30  2  0  0  0
  1 84  1  0  0  0
  2  3  1  0  0  0
  2 25  1  0  0  0
  2 85  1  0  0  0
  2 86  1  0  0  0
  3  4  1  0  0  0
  3 87  1  0  0  0
  3 88  1  0  0  0
  4  5  1  0  0  0
  4 89  1  0  0  0
  4 90  1  0  0  0
  5  6  1  0  0  0
  5 26  1  0  0  0
  5 91  1  0  0  0
  6 25  1  0  0  0
  6 92  1  0  0  0
  6 93  1  0  0  0
  7  8  2  0  0  0
  7 26  1  0  0  0
  7 29  1  0  0  0
  8  9  1  0  0  0
  8 22  1  0  0  0
  9 10  1  0  0  0
  9 27  2  0  0  0
 10 11  2  0  0  0
 10 15  1  0  0  0
 11 12  1  0  0  0
 11 94  1  0  0  0
 12 13  2  0  0  0
 12 95  1  0  0  0
 13 14  1  0  0  0
 13 31  1  0  0  0
 14 15  2  0  0  0
 14 96  1  0  0  0
 15 97  1  0  0  0
 16 17  2  0  0  0
 16 21  1  0  0  0
 16 31  1  0  0  0
 17 18  1  0  0  0
 17 98  1  0  0  0
 18 19  2  0  0  0
 18 99  1  0  0  0
 19 20  1  0  0  0
 19 24  1  0  0  0
 20 21  2  0  0  0
 20100  1  0  0  0
 21 23  1  0  0  0
 22 28  1  0  0  0
 22 32  2  0  0  0
 26 27  1  0  0  0
 28101  1  0  0  0
 28102  1  0  0  0
 29103  1  0  0  0
 29104  1  0  0  0
 33 34  1  0  0  0
 33 66  1  0  0  0
 33 70  2  0  0  0
 34 36  1  0  0  0
 34 59  1  0  0  0
 34105  1  0  0  0
 35 44  2  0  0  0
 35 45  1  0  0  0
 35 68  1  0  0  0
 36 56  1  0  0  0
 36106  1  0  0  0
 37 39  1  0  0  0
 37 47  1  0  0  0
 37 66  1  0  0  0
 37107  1  0  0  0
 38 43  2  0  0  0
 38 46  1  0  0  0
 38 47  1  0  0  0
 39 64  1  0  0  0
 39 67  2  0  0  0
 40 52  1  0  0  0
 40 53  2  0  0  0
 40 58  1  0  0  0
 41108  1  0  0  0
 41109  1  0  0  0
 41110  1  0  0  0
 41 48  1  0  0  0
 42 43  1  0  0  0
 42 66  1  0  0  0
 42111  1  0  0  0
 42112  1  0  0  0
 43 44  1  0  0  0
 44113  1  0  0  0
 45 46  2  0  0  0
 45114  1  0  0  0
 46115  1  0  0  0
 47116  1  0  0  0
 47117  1  0  0  0
 48 56  1  0  0  0
 48 65  1  0  0  0
 48118  1  0  0  0
 49 50  1  0  0  0
 49 53  1  0  0  0
 49 64  1  0  0  0
 49119  1  0  0  0
 50 51  1  0  0  0
 50120  1  0  0  0
 50121  1  0  0  0
 51 52  1  0  0  0
 51122  1  0  0  0
 51123  1  0  0  0
 52124  1  0  0  0
 52125  1  0  0  0
 53 54  1  0  0  0
 54 55  2  0  0  0
 54126  1  0  0  0
 55 57  1  0  0  0
 55127  1  0  0  0
 56 69  2  0  0  0
 57 58  2  0  0  0
 57128  1  0  0  0
 58129  1  0  0  0
 59 60  1  0  0  0
 59 61  1  0  0  0
 59 62  1  0  0  0
 60130  1  0  0  0
 60131  1  0  0  0
 60132  1  0  0  0
 61133  1  0  0  0
 61134  1  0  0  0
 61135  1  0  0  0
 62136  1  0  0  0
 62137  1  0  0  0
 62138  1  0  0  0
 63 65  1  0  0  0
 63139  1  0  0  0
 63140  1  0  0  0
 63141  1  0  0  0
 64142  1  0  0  0
 65143  1  0  0  0
 68 79  1  0  0  0
 71 73  1  0  0  0
 71 82  2  0  0  0
 71144  1  0  0  0
 72 73  2  0  0  0
 72 83  1  0  0  0
 72145  1  0  0  0
 73 80  1  0  0  0
 74146  1  0  0  0
 74147  1  0  0  0
 74148  1  0  0  0
 74 80  1  0  0  0
 75 80  1  0  0  0
 75149  1  0  0  0
 75150  1  0  0  0
 75151  1  0  0  0
 76152  1  0  0  0
 76153  1  0  0  0
 76154  1  0  0  0
 76 81  1  0  0  0
 77 81  1  0  0  0
 77155  1  0  0  0
 77156  1  0  0  0
 77157  1  0  0  0
 78 81  1  0  0  0
 78 84  1  0  0  0
 78158  1  0  0  0
 78159  1  0  0  0
 79 80  1  0  0  0
 79160  1  0  0  0
 79161  1  0  0  0
 81 83  1  0  0  0
 82 83  1  0  0  0
 84162  1  0  0  0
M  ISO  4   1 100  68 101  79 101  84 100
M  END
> <chiral flag>
0

> <version>
0

> <s_m_source_file>
/data/baiqing/PycharmProjects/Reinvent-master-3.2/result/LINK_invent/BTK/process_docking_weight1_custom_sum_contain_oxygen_bond_distance_aromatic_linkinvent_7_9_3/rearranged_h_0073.sdf

> <i_m_source_file_index>
50

> <r_mmod_Potential_Energy-OPLS-2005>
116.245765686035

> <r_mmod_Stretch_Energy-OPLS-2005>
130.129806518555

> <r_mmod_Bend_Energy-OPLS-2005>
183.729614257812

> <r_mmod_Torsional_Energy-OPLS-2005>
245.398223876953

> <r_mmod_Improper_Torsional_Energy-OPLS-2005>
6.65810632705688

> <r_mmod_Van_der_Waal_Energy-OPLS-2005>
109.03589630127

> <r_mmod_Electrostatic_Energy-OPLS-2005>
-428.050537109375

> <r_mmod_Solvation_Energy-OPLS-2005>
-213.327682495117

> <b_mmod_Minimization_Converged-OPLS-2005>
0

> <r_mmod_RMS_Derivative-OPLS-2005>
2.44073963165283

$$$$
50
                    3D
 Structure written by MMmdl.
165173  0  0  1  0            999 V2000
  -30.6939  -14.7983   20.3035 C   0  0  0  0  0  0
  -30.4177  -12.4828   19.4377 C   0  0  0  0  0  0
  -29.4804  -12.3826   18.2175 C   0  0  0  0  0  0
  -28.0204  -12.2238   18.6801 C   0  0  0  0  0  0
  -27.6174  -13.2094   19.8067 C   0  0  2  0  0  0
  -28.6847  -13.3214   20.9119 C   0  0  0  0  0  0
  -25.2545  -13.8133   20.5745 C   0  0  0  0  0  0
  -24.1793  -13.0410   20.9221 C   0  0  0  0  0  0
  -24.6345  -11.6885   20.8797 C   0  0  0  0  0  0
  -23.9010  -10.4284   21.0432 C   0  0  0  0  0  0
  -24.3572   -9.4214   21.9211 C   0  0  0  0  0  0
  -23.6286   -8.2222   22.0763 C   0  0  0  0  0  0
  -22.4278   -8.0253   21.3535 C   0  0  0  0  0  0
  -21.9908   -9.0211   20.4636 C   0  0  0  0  0  0
  -22.7198  -10.2117   20.3075 C   0  0  0  0  0  0
  -21.6837   -6.0731   22.5271 C   0  0  0  0  0  0
  -21.4004   -6.5628   23.8213 C   0  0  0  0  0  0
  -21.3671   -5.6776   24.9165 C   0  0  0  0  0  0
  -21.6047   -4.3040   24.7215 C   0  0  0  0  0  0
  -21.8819   -3.8148   23.4322 C   0  0  0  0  0  0
  -21.9187   -4.6962   22.3392 C   0  0  0  0  0  0
  -22.7827  -13.5233   21.1863 C   0  0  0  0  0  0
  -22.1667   -4.2168   21.0964 F   0  0  0  0  0  0
  -21.5658   -3.4534   25.7726 F   0  0  0  0  0  0
  -29.9649  -13.6266   20.2632 N   0  0  0  0  0  0
  -26.2891  -12.9271   20.3294 N   0  0  0  0  0  0
  -25.9274  -11.6448   20.5861 N   0  0  0  0  0  0
  -22.0460  -12.8224   22.0422 N   0  0  0  0  0  0
  -25.4298  -15.1859   20.4207 N   0  0  0  0  0  0
  -31.9069  -14.6462   20.4562 O   0  0  0  0  0  0
  -21.6621   -6.8866   21.4239 O   0  0  0  0  0  0
  -22.3523  -14.5512   20.6669 O   0  0  0  0  0  0
  -24.6309  -31.8569   23.1950 C   0  0  0  0  0  0
  -25.9144  -32.4758   23.8302 C   0  0  1  0  0  0
  -27.2260  -27.2696   20.1284 C   0  0  0  0  0  0
  -25.5927  -33.8552   24.2237 N   0  0  0  0  0  0
  -23.4257  -30.4789   21.5388 C   0  0  2  0  0  0
  -24.8732  -28.9254   20.1120 C   0  0  0  0  0  0
  -22.7525  -29.4604   22.4892 C   0  0  0  0  0  0
  -18.0304  -28.1390   22.8462 C   0  0  0  0  0  0
  -24.1487  -36.7310   23.2623 C   0  0  0  0  0  0
  -25.9699  -30.7765   21.3689 C   0  0  0  0  0  0
  -26.0438  -29.3953   20.7185 C   0  0  0  0  0  0
  -27.2189  -28.5786   20.7193 C   0  0  0  0  0  0
  -26.0267  -26.8665   19.4940 C   0  0  0  0  0  0
  -24.8697  -27.6689   19.4916 C   0  0  0  0  0  0
  -23.6439  -29.8104   20.1567 C   0  0  0  0  0  0
  -25.4111  -36.3076   24.0309 C   0  0  1  0  0  0
  -20.5917  -28.3694   23.1259 C   0  0  2  0  0  0
  -20.6789  -26.9410   22.5396 C   0  0  0  0  0  0
  -19.5756  -26.6385   21.5205 C   0  0  0  0  0  0
  -18.1937  -26.7920   22.1621 C   0  0  0  0  0  0
  -19.1563  -28.8858   23.2843 C   0  0  0  0  0  0
  -18.9472  -30.1452   23.8863 C   0  0  0  0  0  0
  -17.6472  -30.6580   24.0556 C   0  0  0  0  0  0
  -25.9061  -34.9444   23.5089 C   0  0  0  0  0  0
  -16.5364  -29.9080   23.6325 C   0  0  0  0  0  0
  -16.7295  -28.6512   23.0328 C   0  0  0  0  0  0
  -26.4510  -31.6556   25.0665 C   0  0  0  0  0  0
  -25.3708  -31.3666   26.1361 C   0  0  0  0  0  0
  -27.0381  -30.2992   24.6097 C   0  0  0  0  0  0
  -27.6081  -32.4283   25.7456 C   0  0  0  0  0  0
  -27.5603  -37.1794   24.8457 C   0  0  0  0  0  0
  -21.4231  -29.3044   22.3662 N   0  0  0  0  0  0
  -26.4304  -37.3766   23.9403 N   0  0  0  0  0  0
  -24.6955  -31.0552   22.0913 N   0  0  0  0  0  0
  -23.4250  -28.8164   23.2989 O   0  0  0  0  0  0
  -28.3518  -26.4184   20.2047 O   0  0  0  0  0  0
  -26.5646  -34.8928   22.4663 O   0  0  0  0  0  0
  -23.5455  -32.1389   23.7244 O   0  0  0  0  0  0
  -29.6477  -17.4626   20.4446 C   0  0  0  0  0  0
  -28.1750  -18.7014   21.3388 C   0  0  0  0  0  0
  -26.9648  -19.1578   22.0909 C   0  0  0  0  0  0
  -31.6269  -16.8122   19.0523 C   0  0  0  0  0  0
  -29.4161  -16.0724   18.3731 C   0  0  0  0  0  0
  -27.6630  -23.8890   21.9569 C   0  0  0  0  0  0
  -30.1014  -24.0735   21.4164 C   0  0  0  0  0  0
  -28.6943  -22.2495   20.2607 C   0  0  0  0  0  0
  -29.3203  -21.0500   21.1472 C   0  0  0  0  0  0
  -28.3632  -24.9718   19.7834 C   0  0  0  0  0  0
  -30.2835  -16.2544   19.6370 C   0  0  0  0  0  0
  -28.7056  -23.7836   20.8307 C   0  0  0  0  0  0
  -28.4459  -17.4016   21.1016 N   0  0  0  0  0  0
  -30.0532  -18.7566   20.2695 N   0  0  0  0  0  0
  -29.1038  -19.5623   20.8705 N   0  0  0  0  0  0
  -31.4479  -12.5996   19.0958 H   0  0  0  0  0  0
  -30.3910  -11.5595   20.0182 H   0  0  0  0  0  0
  -29.7665  -11.5265   17.6062 H   0  0  0  0  0  0
  -29.5745  -13.2395   17.5582 H   0  0  0  0  0  0
  -27.9237  -11.1990   19.0428 H   0  0  0  0  0  0
  -27.3320  -12.3077   17.8397 H   0  0  0  0  0  0
  -27.5391  -14.1723   19.3218 H   0  0  0  0  0  0
  -28.7558  -12.3998   21.4908 H   0  0  0  0  0  0
  -28.4175  -14.1176   21.6102 H   0  0  0  0  0  0
  -25.2704   -9.5735   22.4794 H   0  0  0  0  0  0
  -24.0018   -7.4613   22.7463 H   0  0  0  0  0  0
  -21.0865   -8.8679   19.8928 H   0  0  0  0  0  0
  -22.3615  -10.9639   19.6202 H   0  0  0  0  0  0
  -21.1990   -7.6137   23.9724 H   0  0  0  0  0  0
  -21.1519   -6.0503   25.9062 H   0  0  0  0  0  0
  -22.0602   -2.7618   23.2790 H   0  0  0  0  0  0
  -22.4051  -11.9881   22.4804 H   0  0  0  0  0  0
  -21.1077  -13.1252   22.2586 H   0  0  0  0  0  0
  -24.6711  -15.8441   20.5610 H   0  0  0  0  0  0
  -26.3198  -15.6362   20.2377 H   0  0  0  0  0  0
  -26.7199  -32.5408   23.1043 H   0  0  0  0  0  0
  -25.0038  -33.9678   25.0362 H   0  0  0  0  0  0
  -22.7158  -31.2950   21.3858 H   0  0  0  0  0  0
  -23.3754  -35.9639   23.3249 H   0  0  0  0  0  0
  -24.3543  -36.8999   22.2043 H   0  0  0  0  0  0
  -23.7282  -37.6499   23.6692 H   0  0  0  0  0  0
  -26.0933  -31.5288   20.5885 H   0  0  0  0  0  0
  -26.8547  -30.8413   21.9906 H   0  0  0  0  0  0
  -28.1162  -28.9313   21.2095 H   0  0  0  0  0  0
  -25.9261  -25.9155   19.0005 H   0  0  0  0  0  0
  -23.9725  -27.2984   19.0146 H   0  0  0  0  0  0
  -23.7656  -30.5798   19.3931 H   0  0  0  0  0  0
  -22.7635  -29.2387   19.8560 H   0  0  0  0  0  0
  -25.1292  -36.1913   25.0799 H   0  0  0  0  0  0
  -20.9981  -28.3269   24.1393 H   0  0  0  0  0  0
  -20.5719  -26.2289   23.3595 H   0  0  0  0  0  0
  -21.6654  -26.7439   22.1181 H   0  0  0  0  0  0
  -19.6917  -25.6297   21.1242 H   0  0  0  0  0  0
  -19.6716  -27.3183   20.6727 H   0  0  0  0  0  0
  -17.4218  -26.6672   21.4011 H   0  0  0  0  0  0
  -18.0308  -26.0058   22.9009 H   0  0  0  0  0  0
  -19.7946  -30.7259   24.2249 H   0  0  0  0  0  0
  -17.5034  -31.6259   24.5169 H   0  0  0  0  0  0
  -15.5365  -30.2981   23.7662 H   0  0  0  0  0  0
  -15.8693  -28.0854   22.7033 H   0  0  0  0  0  0
  -24.5958  -30.6939   25.7660 H   0  0  0  0  0  0
  -24.8790  -32.2797   26.4708 H   0  0  0  0  0  0
  -25.8013  -30.8914   27.0188 H   0  0  0  0  0  0
  -26.2952  -29.6673   24.1200 H   0  0  0  0  0  0
  -27.4208  -29.7296   25.4579 H   0  0  0  0  0  0
  -27.8746  -30.4294   23.9230 H   0  0  0  0  0  0
  -27.2744  -33.3636   26.1951 H   0  0  0  0  0  0
  -28.3935  -32.6749   25.0301 H   0  0  0  0  0  0
  -28.0665  -31.8428   26.5427 H   0  0  0  0  0  0
  -28.2576  -38.0138   24.7556 H   0  0  0  0  0  0
  -28.1188  -36.2678   24.6252 H   0  0  0  0  0  0
  -27.2302  -37.1369   25.8854 H   0  0  0  0  0  0
  -20.9431  -29.8800   21.6893 H   0  0  0  0  0  0
  -26.0198  -38.2845   24.1416 H   0  0  0  0  0  0
  -26.3946  -18.3001   22.4529 H   0  0  0  0  0  0
  -26.3193  -19.7470   21.4395 H   0  0  0  0  0  0
  -27.2477  -19.7634   22.9504 H   0  0  0  0  0  0
  -31.4746  -17.6743   18.4012 H   0  0  0  0  0  0
  -32.1625  -16.0793   18.4486 H   0  0  0  0  0  0
  -32.2980  -17.1381   19.8485 H   0  0  0  0  0  0
  -29.4259  -16.9665   17.7517 H   0  0  0  0  0  0
  -28.3692  -15.9064   18.6055 H   0  0  0  0  0  0
  -29.7867  -15.2734   17.7416 H   0  0  0  0  0  0
  -27.8681  -23.1976   22.7745 H   0  0  0  0  0  0
  -26.6574  -23.6796   21.5874 H   0  0  0  0  0  0
  -27.6461  -24.8975   22.3749 H   0  0  0  0  0  0
  -30.3657  -23.3692   22.2070 H   0  0  0  0  0  0
  -30.1523  -25.0708   21.8555 H   0  0  0  0  0  0
  -30.8727  -24.0136   20.6492 H   0  0  0  0  0  0
  -27.6648  -21.9823   20.0240 H   0  0  0  0  0  0
  -29.2141  -22.2406   19.3019 H   0  0  0  0  0  0
  -28.9846  -21.2071   22.1708 H   0  0  0  0  0  0
  -30.3980  -21.2007   21.1961 H   0  0  0  0  0  0
  -27.4646  -24.6753   19.2539 H   0  0  0  0  0  0
  -29.1312  -24.9299   19.0099 H   0  0  0  0  0  0
  1 25  1  0  0  0
  1 30  2  0  0  0
  1 81  1  0  0  0
  2  3  1  0  0  0
  2 25  1  0  0  0
  2 86  1  0  0  0
  2 87  1  0  0  0
  3  4  1  0  0  0
  3 88  1  0  0  0
  3 89  1  0  0  0
  4  5  1  0  0  0
  4 90  1  0  0  0
  4 91  1  0  0  0
  5  6  1  0  0  0
  5 26  1  0  0  0
  5 92  1  0  0  0
  6 25  1  0  0  0
  6 93  1  0  0  0
  6 94  1  0  0  0
  7  8  2  0  0  0
  7 26  1  0  0  0
  7 29  1  0  0  0
  8  9  1  0  0  0
  8 22  1  0  0  0
  9 10  1  0  0  0
  9 27  2  0  0  0
 10 11  2  0  0  0
 10 15  1  0  0  0
 11 12  1  0  0  0
 11 95  1  0  0  0
 12 13  2  0  0  0
 12 96  1  0  0  0
 13 14  1  0  0  0
 13 31  1  0  0  0
 14 15  2  0  0  0
 14 97  1  0  0  0
 15 98  1  0  0  0
 16 17  2  0  0  0
 16 21  1  0  0  0
 16 31  1  0  0  0
 17 18  1  0  0  0
 17 99  1  0  0  0
 18 19  2  0  0  0
 18100  1  0  0  0
 19 20  1  0  0  0
 19 24  1  0  0  0
 20 21  2  0  0  0
 20101  1  0  0  0
 21 23  1  0  0  0
 22 28  1  0  0  0
 22 32  2  0  0  0
 26 27  1  0  0  0
 28102  1  0  0  0
 28103  1  0  0  0
 29104  1  0  0  0
 29105  1  0  0  0
 33 34  1  0  0  0
 33 66  1  0  0  0
 33 70  2  0  0  0
 34 36  1  0  0  0
 34 59  1  0  0  0
 34106  1  0  0  0
 35 44  2  0  0  0
 35 45  1  0  0  0
 35 68  1  0  0  0
 36 56  1  0  0  0
 36107  1  0  0  0
 37 39  1  0  0  0
 37 47  1  0  0  0
 37 66  1  0  0  0
 37108  1  0  0  0
 38 43  2  0  0  0
 38 46  1  0  0  0
 38 47  1  0  0  0
 39 64  1  0  0  0
 39 67  2  0  0  0
 40 52  1  0  0  0
 40 53  2  0  0  0
 40 58  1  0  0  0
 41109  1  0  0  0
 41110  1  0  0  0
 41111  1  0  0  0
 41 48  1  0  0  0
 42 43  1  0  0  0
 42 66  1  0  0  0
 42112  1  0  0  0
 42113  1  0  0  0
 43 44  1  0  0  0
 44114  1  0  0  0
 45 46  2  0  0  0
 45115  1  0  0  0
 46116  1  0  0  0
 47117  1  0  0  0
 47118  1  0  0  0
 48 56  1  0  0  0
 48 65  1  0  0  0
 48119  1  0  0  0
 49 50  1  0  0  0
 49 53  1  0  0  0
 49 64  1  0  0  0
 49120  1  0  0  0
 50 51  1  0  0  0
 50121  1  0  0  0
 50122  1  0  0  0
 51 52  1  0  0  0
 51123  1  0  0  0
 51124  1  0  0  0
 52125  1  0  0  0
 52126  1  0  0  0
 53 54  1  0  0  0
 54 55  2  0  0  0
 54127  1  0  0  0
 55 57  1  0  0  0
 55128  1  0  0  0
 56 69  2  0  0  0
 57 58  2  0  0  0
 57129  1  0  0  0
 58130  1  0  0  0
 59 60  1  0  0  0
 59 61  1  0  0  0
 59 62  1  0  0  0
 60131  1  0  0  0
 60132  1  0  0  0
 60133  1  0  0  0
 61134  1  0  0  0
 61135  1  0  0  0
 61136  1  0  0  0
 62137  1  0  0  0
 62138  1  0  0  0
 62139  1  0  0  0
 63 65  1  0  0  0
 63140  1  0  0  0
 63141  1  0  0  0
 63142  1  0  0  0
 64143  1  0  0  0
 65144  1  0  0  0
 68 80  1  0  0  0
 71 81  1  0  0  0
 71 83  1  0  0  0
 71 84  2  0  0  0
 72 73  1  0  0  0
 72 83  2  0  0  0
 72 85  1  0  0  0
 73145  1  0  0  0
 73146  1  0  0  0
 73147  1  0  0  0
 74148  1  0  0  0
 74149  1  0  0  0
 74150  1  0  0  0
 74 81  1  0  0  0
 75 81  1  0  0  0
 75151  1  0  0  0
 75152  1  0  0  0
 75153  1  0  0  0
 76154  1  0  0  0
 76155  1  0  0  0
 76156  1  0  0  0
 76 82  1  0  0  0
 77 82  1  0  0  0
 77157  1  0  0  0
 77158  1  0  0  0
 77159  1  0  0  0
 78 79  1  0  0  0
 78 82  1  0  0  0
 78160  1  0  0  0
 78161  1  0  0  0
 79 85  1  0  0  0
 79162  1  0  0  0
 79163  1  0  0  0
 80 82  1  0  0  0
 80164  1  0  0  0
 80165  1  0  0  0
 84 85  1  0  0  0
M  ISO  4   1 100  68 101  80 101  81 100
M  END
> <chiral flag>
0

> <version>
0

> <s_m_source_file>
/data/baiqing/PycharmProjects/Reinvent-master-3.2/result/LINK_invent/BTK/process_docking_weight1_custom_sum_contain_oxygen_bond_distance_aromatic_linkinvent_7_9_3/rearranged_h_0073.sdf

> <i_m_source_file_index>
51

> <r_mmod_Potential_Energy-OPLS-2005>
402.255828857422

> <r_mmod_Stretch_Energy-OPLS-2005>
140.544723510742

> <r_mmod_Bend_Energy-OPLS-2005>
229.96598815918

> <r_mmod_Torsional_Energy-OPLS-2005>
248.318939208984

> <r_mmod_Improper_Torsional_Energy-OPLS-2005>
20.2654190063477

> <r_mmod_Van_der_Waal_Energy-OPLS-2005>
131.281265258789

> <r_mmod_Electrostatic_Energy-OPLS-2005>
-314.937591552734

> <r_mmod_Solvation_Energy-OPLS-2005>
-187.292526245117

> <b_mmod_Minimization_Converged-OPLS-2005>
0

> <r_mmod_RMS_Derivative-OPLS-2005>
3.6505823135376

$$$$
51
                    3D
 Structure written by MMmdl.
173181  0  0  1  0            999 V2000
  -30.5823  -14.7450   20.4806 C   0  0  0  0  0  0
  -30.4412  -12.4635   19.4533 C   0  0  0  0  0  0
  -29.5050  -12.4844   18.2265 C   0  0  0  0  0  0
  -28.0277  -12.3216   18.6401 C   0  0  0  0  0  0
  -27.6369  -13.2217   19.8424 C   0  0  2  0  0  0
  -28.6841  -13.1381   20.9722 C   0  0  0  0  0  0
  -25.2519  -13.8260   20.5732 C   0  0  0  0  0  0
  -24.1784  -13.0491   20.9263 C   0  0  0  0  0  0
  -24.6344  -11.6971   20.8790 C   0  0  0  0  0  0
  -23.9024  -10.4316   21.0436 C   0  0  0  0  0  0
  -24.3589   -9.4241   21.9217 C   0  0  0  0  0  0
  -23.6286   -8.2251   22.0766 C   0  0  0  0  0  0
  -22.4273   -8.0262   21.3561 C   0  0  0  0  0  0
  -21.9889   -9.0232   20.4682 C   0  0  0  0  0  0
  -22.7189  -10.2128   20.3096 C   0  0  0  0  0  0
  -21.6880   -6.0707   22.5268 C   0  0  0  0  0  0
  -21.4039   -6.5608   23.8197 C   0  0  0  0  0  0
  -21.3655   -5.6767   24.9146 C   0  0  0  0  0  0
  -21.6021   -4.3017   24.7205 C   0  0  0  0  0  0
  -21.8840   -3.8107   23.4323 C   0  0  0  0  0  0
  -21.9232   -4.6933   22.3378 C   0  0  0  0  0  0
  -22.7808  -13.5315   21.1855 C   0  0  0  0  0  0
  -22.1697   -4.2129   21.0955 F   0  0  0  0  0  0
  -21.5633   -3.4495   25.7707 F   0  0  0  0  0  0
  -29.9771  -13.5128   20.3858 N   0  0  0  0  0  0
  -26.2892  -12.9402   20.3234 N   0  0  0  0  0  0
  -25.9263  -11.6574   20.5758 N   0  0  0  0  0  0
  -22.0384  -12.8340   22.0388 N   0  0  0  0  0  0
  -25.4232  -15.1971   20.4207 N   0  0  0  0  0  0
  -31.7760  -14.8763   20.1973 O   0  0  0  0  0  0
  -21.6670   -6.8832   21.4214 O   0  0  0  0  0  0
  -22.3458  -14.5554   20.6646 O   0  0  0  0  0  0
  -24.6299  -31.8489   23.1927 C   0  0  0  0  0  0
  -25.9088  -32.4776   23.8286 C   0  0  1  0  0  0
  -27.2853  -27.2765   20.1581 C   0  0  0  0  0  0
  -25.5810  -33.8572   24.2251 N   0  0  0  0  0  0
  -23.4350  -30.4629   21.5247 C   0  0  2  0  0  0
  -24.9030  -28.8949   20.1093 C   0  0  0  0  0  0
  -22.7446  -29.4620   22.4823 C   0  0  0  0  0  0
  -18.0245  -28.1424   22.8433 C   0  0  0  0  0  0
  -24.1462  -36.7286   23.2649 C   0  0  0  0  0  0
  -25.9710  -30.7731   21.3662 C   0  0  0  0  0  0
  -26.0584  -29.3876   20.7186 C   0  0  0  0  0  0
  -27.2441  -28.5895   20.7336 C   0  0  0  0  0  0
  -26.1051  -26.8381   19.5199 C   0  0  0  0  0  0
  -24.9288  -27.6248   19.4957 C   0  0  0  0  0  0
  -23.6638  -29.7720   20.1487 C   0  0  0  0  0  0
  -25.4097  -36.3116   24.0340 C   0  0  1  0  0  0
  -20.5835  -28.3745   23.1198 C   0  0  2  0  0  0
  -20.6707  -26.9463   22.5353 C   0  0  0  0  0  0
  -19.5746  -26.6400   21.5111 C   0  0  0  0  0  0
  -18.1928  -26.7964   22.1553 C   0  0  0  0  0  0
  -19.1493  -28.8883   23.2815 C   0  0  0  0  0  0
  -18.9464  -30.1463   23.8898 C   0  0  0  0  0  0
  -17.6488  -30.6621   24.0615 C   0  0  0  0  0  0
  -25.9017  -34.9483   23.5130 C   0  0  0  0  0  0
  -16.5373  -29.9156   23.6365 C   0  0  0  0  0  0
  -16.7242  -28.6554   23.0386 C   0  0  0  0  0  0
  -26.4475  -31.6630   25.0677 C   0  0  0  0  0  0
  -25.3669  -31.3723   26.1352 C   0  0  0  0  0  0
  -27.0310  -30.3065   24.6168 C   0  0  0  0  0  0
  -27.6059  -32.4332   25.7422 C   0  0  0  0  0  0
  -27.5584  -37.1786   24.8465 C   0  0  0  0  0  0
  -21.4125  -29.3111   22.3560 N   0  0  0  0  0  0
  -26.4294  -37.3782   23.9407 N   0  0  0  0  0  0
  -24.6961  -31.0452   22.0881 N   0  0  0  0  0  0
  -23.4114  -28.8201   23.2983 O   0  0  0  0  0  0
  -28.4396  -26.4654   20.2847 O   0  0  0  0  0  0
  -26.5654  -34.8973   22.4756 O   0  0  0  0  0  0
  -23.5456  -32.1276   23.7258 O   0  0  0  0  0  0
  -28.6053  -20.6951   18.8050 C   0  0  0  0  0  0
  -28.8258  -18.2963   19.1672 C   0  0  0  0  0  0
  -28.3698  -19.3767   18.3801 C   0  0  0  0  0  0
  -29.3165  -20.9504   19.9913 C   0  0  0  0  0  0
  -29.5433  -18.5314   20.3561 C   0  0  0  0  0  0
  -27.6241  -19.1418   17.0792 C   0  0  0  0  0  0
  -28.3389  -17.9509   24.7692 C   0  0  0  0  0  0
  -27.2260  -18.1481   22.5292 C   0  0  0  0  0  0
  -29.0332  -24.1951   22.1162 C   0  0  0  0  0  0
  -27.2047  -23.1800   20.6801 C   0  0  0  0  0  0
  -29.6990  -22.4765   20.3070 C   0  0  0  0  0  0
  -29.6299  -17.2429   22.7109 C   0  0  0  0  0  0
  -28.6639  -25.0693   19.7666 C   0  0  0  0  0  0
  -30.0737  -17.2656   21.2009 C   0  0  2  0  0  0
  -28.5714  -18.2285   23.2719 C   0  0  0  0  0  0
  -28.6538  -23.7103   20.6899 C   0  0  0  0  0  0
  -29.7971  -19.8610   20.7285 N   0  0  0  0  0  0
  -29.7737  -15.8443   20.7120 N   0  0  0  0  0  0
  -31.4668  -12.6371   19.1250 H   0  0  0  0  0  0
  -30.4416  -11.4875   19.9387 H   0  0  0  0  0  0
  -29.7897  -11.6914   17.5337 H   0  0  0  0  0  0
  -29.6306  -13.4236   17.6872 H   0  0  0  0  0  0
  -27.8801  -11.2733   18.9019 H   0  0  0  0  0  0
  -27.3728  -12.5182   17.7911 H   0  0  0  0  0  0
  -27.6377  -14.2431   19.4610 H   0  0  0  0  0  0
  -28.7303  -12.1307   21.3879 H   0  0  0  0  0  0
  -28.4152  -13.8096   21.7909 H   0  0  0  0  0  0
  -25.2698   -9.5707   22.4856 H   0  0  0  0  0  0
  -24.0016   -7.4601   22.7446 H   0  0  0  0  0  0
  -21.0843   -8.8667   19.8991 H   0  0  0  0  0  0
  -22.3560  -10.9657   19.6225 H   0  0  0  0  0  0
  -21.2029   -7.6118   23.9680 H   0  0  0  0  0  0
  -21.1486   -6.0502   25.9053 H   0  0  0  0  0  0
  -22.0650   -2.7589   23.2825 H   0  0  0  0  0  0
  -22.3902  -11.9978   22.4799 H   0  0  0  0  0  0
  -21.1050  -13.1561   22.2523 H   0  0  0  0  0  0
  -24.6690  -15.8623   20.5666 H   0  0  0  0  0  0
  -26.2756  -15.6372   20.1001 H   0  0  0  0  0  0
  -26.7160  -32.5511   23.1027 H   0  0  0  0  0  0
  -24.9804  -33.9650   25.0321 H   0  0  0  0  0  0
  -22.7349  -31.2796   21.3477 H   0  0  0  0  0  0
  -23.3759  -35.9576   23.3335 H   0  0  0  0  0  0
  -24.3527  -36.8882   22.2045 H   0  0  0  0  0  0
  -23.7163  -37.6477   23.6667 H   0  0  0  0  0  0
  -26.0922  -31.5350   20.5968 H   0  0  0  0  0  0
  -26.8573  -30.8417   21.9838 H   0  0  0  0  0  0
  -28.1239  -28.9716   21.2319 H   0  0  0  0  0  0
  -26.0802  -25.8580   19.0695 H   0  0  0  0  0  0
  -24.0526  -27.2278   18.9989 H   0  0  0  0  0  0
  -23.7739  -30.5249   19.3628 H   0  0  0  0  0  0
  -22.8025  -29.1598   19.8842 H   0  0  0  0  0  0
  -25.1303  -36.1941   25.0818 H   0  0  0  0  0  0
  -20.9929  -28.3334   24.1321 H   0  0  0  0  0  0
  -20.5448  -26.2396   23.3549 H   0  0  0  0  0  0
  -21.6615  -26.7410   22.1298 H   0  0  0  0  0  0
  -19.6955  -25.6265   21.1254 H   0  0  0  0  0  0
  -19.6793  -27.3085   20.6541 H   0  0  0  0  0  0
  -17.4177  -26.6596   21.4015 H   0  0  0  0  0  0
  -18.0521  -26.0124   22.8997 H   0  0  0  0  0  0
  -19.7939  -30.7233   24.2362 H   0  0  0  0  0  0
  -17.5077  -31.6350   24.5147 H   0  0  0  0  0  0
  -15.5404  -30.3157   23.7640 H   0  0  0  0  0  0
  -15.8585  -28.0910   22.7190 H   0  0  0  0  0  0
  -24.5903  -30.7020   25.7610 H   0  0  0  0  0  0
  -24.8785  -32.2848   26.4772 H   0  0  0  0  0  0
  -25.7938  -30.8873   27.0128 H   0  0  0  0  0  0
  -26.2878  -29.6772   24.1240 H   0  0  0  0  0  0
  -27.4011  -29.7376   25.4700 H   0  0  0  0  0  0
  -27.8756  -30.4372   23.9401 H   0  0  0  0  0  0
  -27.2769  -33.3672   26.1997 H   0  0  0  0  0  0
  -28.3879  -32.6794   25.0226 H   0  0  0  0  0  0
  -28.0733  -31.8414   26.5306 H   0  0  0  0  0  0
  -28.2637  -38.0066   24.7566 H   0  0  0  0  0  0
  -28.1058  -36.2606   24.6265 H   0  0  0  0  0  0
  -27.2301  -37.1399   25.8868 H   0  0  0  0  0  0
  -20.9228  -29.8905   21.6862 H   0  0  0  0  0  0
  -26.0204  -38.2861   24.1409 H   0  0  0  0  0  0
  -28.2492  -21.5112   18.1922 H   0  0  0  0  0  0
  -28.6363  -17.2848   18.8393 H   0  0  0  0  0  0
  -28.0738  -19.7118   16.2634 H   0  0  0  0  0  0
  -26.5836  -19.4573   17.1659 H   0  0  0  0  0  0
  -27.6371  -18.0918   16.7949 H   0  0  0  0  0  0
  -27.6977  -18.7142   25.2082 H   0  0  0  0  0  0
  -29.2784  -17.9661   25.3215 H   0  0  0  0  0  0
  -27.8631  -16.9835   24.9535 H   0  0  0  0  0  0
  -26.4036  -18.5310   23.1347 H   0  0  0  0  0  0
  -26.9697  -17.1233   22.2563 H   0  0  0  0  0  0
  -27.2360  -18.7457   21.6172 H   0  0  0  0  0  0
  -28.3016  -24.8983   22.5182 H   0  0  0  0  0  0
  -29.9980  -24.7018   22.1184 H   0  0  0  0  0  0
  -29.1219  -23.3902   22.8460 H   0  0  0  0  0  0
  -27.0858  -22.2851   21.2902 H   0  0  0  0  0  0
  -26.8965  -22.9320   19.6640 H   0  0  0  0  0  0
  -26.4911  -23.9118   21.0587 H   0  0  0  0  0  0
  -30.2801  -22.7989   19.4399 H   0  0  0  0  0  0
  -30.4585  -22.4003   21.0860 H   0  0  0  0  0  0
  -30.5249  -17.3396   23.3259 H   0  0  0  0  0  0
  -29.2851  -16.2422   22.9797 H   0  0  0  0  0  0
  -28.0824  -24.9260   18.8572 H   0  0  0  0  0  0
  -29.6983  -25.1547   19.4234 H   0  0  0  0  0  0
  -31.1632  -17.3656   21.1814 H   0  0  0  0  0  0
  -28.9560  -19.2480   23.2038 H   0  0  0  0  0  0
  -28.7941  -15.6186   20.7515 H   0  0  0  0  0  0
  1 25  1  0  0  0
  1 30  2  0  0  0
  1 88  1  0  0  0
  2  3  1  0  0  0
  2 25  1  0  0  0
  2 89  1  0  0  0
  2 90  1  0  0  0
  3  4  1  0  0  0
  3 91  1  0  0  0
  3 92  1  0  0  0
  4  5  1  0  0  0
  4 93  1  0  0  0
  4 94  1  0  0  0
  5  6  1  0  0  0
  5 26  1  0  0  0
  5 95  1  0  0  0
  6 25  1  0  0  0
  6 96  1  0  0  0
  6 97  1  0  0  0
  7  8  2  0  0  0
  7 26  1  0  0  0
  7 29  1  0  0  0
  8  9  1  0  0  0
  8 22  1  0  0  0
  9 10  1  0  0  0
  9 27  2  0  0  0
 10 11  2  0  0  0
 10 15  1  0  0  0
 11 12  1  0  0  0
 11 98  1  0  0  0
 12 13  2  0  0  0
 12 99  1  0  0  0
 13 14  1  0  0  0
 13 31  1  0  0  0
 14 15  2  0  0  0
 14100  1  0  0  0
 15101  1  0  0  0
 16 17  2  0  0  0
 16 21  1  0  0  0
 16 31  1  0  0  0
 17 18  1  0  0  0
 17102  1  0  0  0
 18 19  2  0  0  0
 18103  1  0  0  0
 19 20  1  0  0  0
 19 24  1  0  0  0
 20 21  2  0  0  0
 20104  1  0  0  0
 21 23  1  0  0  0
 22 28  1  0  0  0
 22 32  2  0  0  0
 26 27  1  0  0  0
 28105  1  0  0  0
 28106  1  0  0  0
 29107  1  0  0  0
 29108  1  0  0  0
 33 34  1  0  0  0
 33 66  1  0  0  0
 33 70  2  0  0  0
 34 36  1  0  0  0
 34 59  1  0  0  0
 34109  1  0  0  0
 35 44  2  0  0  0
 35 45  1  0  0  0
 35 68  1  0  0  0
 36 56  1  0  0  0
 36110  1  0  0  0
 37 39  1  0  0  0
 37 47  1  0  0  0
 37 66  1  0  0  0
 37111  1  0  0  0
 38 43  2  0  0  0
 38 46  1  0  0  0
 38 47  1  0  0  0
 39 64  1  0  0  0
 39 67  2  0  0  0
 40 52  1  0  0  0
 40 53  2  0  0  0
 40 58  1  0  0  0
 41112  1  0  0  0
 41113  1  0  0  0
 41114  1  0  0  0
 41 48  1  0  0  0
 42 43  1  0  0  0
 42 66  1  0  0  0
 42115  1  0  0  0
 42116  1  0  0  0
 43 44  1  0  0  0
 44117  1  0  0  0
 45 46  2  0  0  0
 45118  1  0  0  0
 46119  1  0  0  0
 47120  1  0  0  0
 47121  1  0  0  0
 48 56  1  0  0  0
 48 65  1  0  0  0
 48122  1  0  0  0
 49 50  1  0  0  0
 49 53  1  0  0  0
 49 64  1  0  0  0
 49123  1  0  0  0
 50 51  1  0  0  0
 50124  1  0  0  0
 50125  1  0  0  0
 51 52  1  0  0  0
 51126  1  0  0  0
 51127  1  0  0  0
 52128  1  0  0  0
 52129  1  0  0  0
 53 54  1  0  0  0
 54 55  2  0  0  0
 54130  1  0  0  0
 55 57  1  0  0  0
 55131  1  0  0  0
 56 69  2  0  0  0
 57 58  2  0  0  0
 57132  1  0  0  0
 58133  1  0  0  0
 59 60  1  0  0  0
 59 61  1  0  0  0
 59 62  1  0  0  0
 60134  1  0  0  0
 60135  1  0  0  0
 60136  1  0  0  0
 61137  1  0  0  0
 61138  1  0  0  0
 61139  1  0  0  0
 62140  1  0  0  0
 62141  1  0  0  0
 62142  1  0  0  0
 63 65  1  0  0  0
 63143  1  0  0  0
 63144  1  0  0  0
 63145  1  0  0  0
 64146  1  0  0  0
 65147  1  0  0  0
 68 83  1  0  0  0
 71 73  2  0  0  0
 71 74  1  0  0  0
 71148  1  0  0  0
 72 73  1  0  0  0
 72 75  2  0  0  0
 72149  1  0  0  0
 73 76  1  0  0  0
 74 81  1  0  0  0
 74 87  2  0  0  0
 75 84  1  0  0  0
 75 87  1  0  0  0
 76150  1  0  0  0
 76151  1  0  0  0
 76152  1  0  0  0
 77153  1  0  0  0
 77154  1  0  0  0
 77155  1  0  0  0
 77 85  1  0  0  0
 78 85  1  0  0  0
 78156  1  0  0  0
 78157  1  0  0  0
 78158  1  0  0  0
 79159  1  0  0  0
 79160  1  0  0  0
 79161  1  0  0  0
 79 86  1  0  0  0
 80 86  1  0  0  0
 80162  1  0  0  0
 80163  1  0  0  0
 80164  1  0  0  0
 81 86  1  0  0  0
 81165  1  0  0  0
 81166  1  0  0  0
 82 85  1  0  0  0
 82167  1  0  0  0
 82168  1  0  0  0
 82 84  1  0  0  0
 83 86  1  0  0  0
 83169  1  0  0  0
 83170  1  0  0  0
 84 88  1  0  0  0
 84171  1  0  0  0
 85172  1  0  0  0
 88173  1  0  0  0
M  ISO  4   1 100  68 101  83 101  88 100
M  END
> <chiral flag>
0

> <version>
0

> <s_m_source_file>
/data/baiqing/PycharmProjects/Reinvent-master-3.2/result/LINK_invent/BTK/process_docking_weight1_custom_sum_contain_oxygen_bond_distance_aromatic_linkinvent_7_9_3/rearranged_h_0073.sdf

> <i_m_source_file_index>
52

> <r_mmod_Potential_Energy-OPLS-2005>
44.4110946655273

> <r_mmod_Stretch_Energy-OPLS-2005>
150.968597412109

> <r_mmod_Bend_Energy-OPLS-2005>
232.391342163086

> <r_mmod_Torsional_Energy-OPLS-2005>
221.31462097168

> <r_mmod_Improper_Torsional_Energy-OPLS-2005>
5.24024724960327

> <r_mmod_Van_der_Waal_Energy-OPLS-2005>
124.032989501953

> <r_mmod_Electrostatic_Energy-OPLS-2005>
-570.554504394531

> <r_mmod_Solvation_Energy-OPLS-2005>
-204.619750976562

> <b_mmod_Minimization_Converged-OPLS-2005>
0

> <r_mmod_RMS_Derivative-OPLS-2005>
8.41351222991943

$$$$
52
                    3D
 Structure written by MMmdl.
172180  0  0  1  0            999 V2000
  -30.7166  -14.4624   20.5820 C   0  0  0  0  0  0
  -30.4178  -12.3076   19.4202 C   0  0  0  0  0  0
  -29.4913  -12.5108   18.2047 C   0  0  0  0  0  0
  -28.0131  -12.3718   18.6177 C   0  0  0  0  0  0
  -27.6609  -13.2111   19.8756 C   0  0  2  0  0  0
  -28.7028  -12.9966   20.9965 C   0  0  0  0  0  0
  -25.2587  -13.8180   20.5690 C   0  0  0  0  0  0
  -24.1843  -13.0450   20.9183 C   0  0  0  0  0  0
  -24.6399  -11.6918   20.8740 C   0  0  0  0  0  0
  -23.9066  -10.4300   21.0408 C   0  0  0  0  0  0
  -24.3619   -9.4213   21.9185 C   0  0  0  0  0  0
  -23.6296   -8.2250   22.0755 C   0  0  0  0  0  0
  -22.4278   -8.0287   21.3546 C   0  0  0  0  0  0
  -21.9912   -9.0260   20.4649 C   0  0  0  0  0  0
  -22.7240  -10.2140   20.3057 C   0  0  0  0  0  0
  -21.6851   -6.0740   22.5279 C   0  0  0  0  0  0
  -21.4016   -6.5643   23.8214 C   0  0  0  0  0  0
  -21.3660   -5.6794   24.9176 C   0  0  0  0  0  0
  -21.6042   -4.3057   24.7224 C   0  0  0  0  0  0
  -21.8819   -3.8150   23.4346 C   0  0  0  0  0  0
  -21.9194   -4.6969   22.3402 C   0  0  0  0  0  0
  -22.7866  -13.5248   21.1845 C   0  0  0  0  0  0
  -22.1660   -4.2155   21.0979 F   0  0  0  0  0  0
  -21.5629   -3.4539   25.7736 F   0  0  0  0  0  0
  -30.0332  -13.2949   20.4410 N   0  0  0  0  0  0
  -26.3025  -12.9357   20.3378 N   0  0  0  0  0  0
  -25.9328  -11.6510   20.5774 N   0  0  0  0  0  0
  -22.0503  -12.8236   22.0396 N   0  0  0  0  0  0
  -25.4307  -15.1897   20.4090 N   0  0  0  0  0  0
  -31.8373  -14.6442   20.0991 O   0  0  0  0  0  0
  -21.6639   -6.8884   21.4243 O   0  0  0  0  0  0
  -22.3551  -14.5556   20.6698 O   0  0  0  0  0  0
  -24.6147  -31.8673   23.2101 C   0  0  0  0  0  0
  -25.9035  -32.4813   23.8392 C   0  0  1  0  0  0
  -27.2259  -27.4173   20.1018 C   0  0  0  0  0  0
  -25.5903  -33.8615   24.2323 N   0  0  0  0  0  0
  -23.4027  -30.4911   21.5511 C   0  0  2  0  0  0
  -24.8473  -28.9565   20.1152 C   0  0  0  0  0  0
  -22.7409  -29.4643   22.4989 C   0  0  0  0  0  0
  -18.0266  -28.1367   22.8478 C   0  0  0  0  0  0
  -24.1493  -36.7313   23.2637 C   0  0  0  0  0  0
  -25.9334  -30.8274   21.3658 C   0  0  0  0  0  0
  -26.0081  -29.4610   20.7141 C   0  0  0  0  0  0
  -27.2004  -28.6993   20.7030 C   0  0  0  0  0  0
  -26.0528  -26.9421   19.4776 C   0  0  0  0  0  0
  -24.8664  -27.6974   19.4924 C   0  0  0  0  0  0
  -23.6109  -29.8254   20.1649 C   0  0  0  0  0  0
  -25.4111  -36.3108   24.0338 C   0  0  1  0  0  0
  -20.5857  -28.3647   23.1319 C   0  0  2  0  0  0
  -20.6756  -26.9385   22.5414 C   0  0  0  0  0  0
  -19.5737  -26.6375   21.5203 C   0  0  0  0  0  0
  -18.1916  -26.7910   22.1614 C   0  0  0  0  0  0
  -19.1519  -28.8823   23.2892 C   0  0  0  0  0  0
  -18.9451  -30.1431   23.8900 C   0  0  0  0  0  0
  -17.6458  -30.6575   24.0555 C   0  0  0  0  0  0
  -25.9041  -34.9471   23.5125 C   0  0  0  0  0  0
  -16.5342  -29.9077   23.6328 C   0  0  0  0  0  0
  -16.7257  -28.6494   23.0345 C   0  0  0  0  0  0
  -26.4461  -31.6595   25.0725 C   0  0  0  0  0  0
  -25.3729  -31.3702   26.1479 C   0  0  0  0  0  0
  -27.0290  -30.3041   24.6092 C   0  0  0  0  0  0
  -27.6038  -32.4310   25.7489 C   0  0  0  0  0  0
  -27.5582  -37.1811   24.8464 C   0  0  0  0  0  0
  -21.4135  -29.3020   22.3734 N   0  0  0  0  0  0
  -26.4297  -37.3797   23.9411 N   0  0  0  0  0  0
  -24.6687  -31.0768   22.1001 N   0  0  0  0  0  0
  -23.4178  -28.8184   23.3032 O   0  0  0  0  0  0
  -28.3965  -26.6801   20.1046 O   0  0  0  0  0  0
  -26.5604  -34.8918   22.4686 O   0  0  0  0  0  0
  -23.5341  -32.1430   23.7489 O   0  0  0  0  0  0
  -29.4200  -22.0107   19.7075 C   0  0  0  0  0  0
  -28.3095  -22.7615   20.1642 C   0  0  0  0  0  0
  -27.4508  -20.8394   21.1417 C   0  0  0  0  0  0
  -28.5379  -20.0667   20.6345 C   0  0  0  0  0  0
  -26.3195  -20.2370   21.9544 C   0  0  0  0  0  0
  -28.7087  -17.8807   19.3652 C   0  0  0  0  0  0
  -30.4205  -19.0158   22.5518 C   0  0  0  0  0  0
  -28.7213  -17.2657   22.9925 C   0  0  0  0  0  0
  -29.9212  -25.2385   21.1303 C   0  0  0  0  0  0
  -27.5803  -25.3168   22.0061 C   0  0  0  0  0  0
  -28.0768  -24.2176   19.7232 C   0  0  0  0  0  0
  -30.5942  -16.8295   21.3601 C   0  0  0  0  0  0
  -28.6068  -18.5195   20.7670 C   0  0  1  0  0  0
  -29.5771  -17.9103   21.8750 C   0  0  0  0  0  0
  -28.4424  -25.3633   20.7235 C   0  0  0  0  0  0
  -29.5365  -20.6763   19.9390 N   0  0  0  0  0  0
  -27.3367  -22.1715   20.9024 N   0  0  0  0  0  0
  -30.0551  -15.4696   21.1794 N   0  0  0  0  0  0
  -31.4628  -12.3994   19.1185 H   0  0  0  0  0  0
  -30.3122  -11.2973   19.8184 H   0  0  0  0  0  0
  -29.7300  -11.7895   17.4221 H   0  0  0  0  0  0
  -29.6600  -13.4986   17.7727 H   0  0  0  0  0  0
  -27.8210  -11.3158   18.8109 H   0  0  0  0  0  0
  -27.3626  -12.6509   17.7879 H   0  0  0  0  0  0
  -27.7043  -14.2593   19.5791 H   0  0  0  0  0  0
  -28.6778  -11.9633   21.3460 H   0  0  0  0  0  0
  -28.4664  -13.6051   21.8706 H   0  0  0  0  0  0
  -25.2768   -9.5688   22.4754 H   0  0  0  0  0  0
  -24.0007   -7.4640   22.7473 H   0  0  0  0  0  0
  -21.0844   -8.8782   19.8953 H   0  0  0  0  0  0
  -22.3705  -10.9680   19.6163 H   0  0  0  0  0  0
  -21.2008   -7.6150   23.9721 H   0  0  0  0  0  0
  -21.1480   -6.0522   25.9078 H   0  0  0  0  0  0
  -22.0598   -2.7613   23.2843 H   0  0  0  0  0  0
  -22.4115  -11.9890   22.4774 H   0  0  0  0  0  0
  -21.1125  -13.1268   22.2609 H   0  0  0  0  0  0
  -24.6609  -15.8422   20.5079 H   0  0  0  0  0  0
  -26.2789  -15.6249   20.0708 H   0  0  0  0  0  0
  -26.7095  -32.5519   23.1147 H   0  0  0  0  0  0
  -25.0083  -33.9774   25.0487 H   0  0  0  0  0  0
  -22.6914  -31.3074   21.4116 H   0  0  0  0  0  0
  -23.3753  -35.9651   23.3319 H   0  0  0  0  0  0
  -24.3581  -36.8916   22.2049 H   0  0  0  0  0  0
  -23.7251  -37.6524   23.6640 H   0  0  0  0  0  0
  -26.0500  -31.5924   20.5967 H   0  0  0  0  0  0
  -26.8198  -30.8787   21.9865 H   0  0  0  0  0  0
  -28.0974  -29.0833   21.1677 H   0  0  0  0  0  0
  -26.0390  -26.0012   18.9554 H   0  0  0  0  0  0
  -23.9792  -27.3102   19.0100 H   0  0  0  0  0  0
  -23.7199  -30.6006   19.4056 H   0  0  0  0  0  0
  -22.7340  -29.2468   19.8684 H   0  0  0  0  0  0
  -25.1289  -36.1977   25.0833 H   0  0  0  0  0  0
  -20.9936  -28.3201   24.1445 H   0  0  0  0  0  0
  -20.5659  -26.2246   23.3595 H   0  0  0  0  0  0
  -21.6627  -26.7430   22.1207 H   0  0  0  0  0  0
  -19.6908  -25.6292   21.1224 H   0  0  0  0  0  0
  -19.6689  -27.3191   20.6742 H   0  0  0  0  0  0
  -17.4187  -26.6652   21.4015 H   0  0  0  0  0  0
  -18.0314  -26.0053   22.9013 H   0  0  0  0  0  0
  -19.7935  -30.7235   24.2274 H   0  0  0  0  0  0
  -17.5019  -31.6260   24.5149 H   0  0  0  0  0  0
  -15.5341  -30.2983   23.7658 H   0  0  0  0  0  0
  -15.8653  -28.0818   22.7061 H   0  0  0  0  0  0
  -24.5901  -30.7047   25.7828 H   0  0  0  0  0  0
  -24.8919  -32.2858   26.4932 H   0  0  0  0  0  0
  -25.8089  -30.8875   27.0236 H   0  0  0  0  0  0
  -26.2832  -29.6811   24.1144 H   0  0  0  0  0  0
  -27.4073  -29.7262   25.4535 H   0  0  0  0  0  0
  -27.8659  -30.4375   23.9232 H   0  0  0  0  0  0
  -27.2660  -33.3600   26.2089 H   0  0  0  0  0  0
  -28.3836  -32.6887   25.0313 H   0  0  0  0  0  0
  -28.0713  -31.8422   26.5388 H   0  0  0  0  0  0
  -28.2605  -38.0105   24.7511 H   0  0  0  0  0  0
  -28.1070  -36.2635   24.6290 H   0  0  0  0  0  0
  -27.2293  -37.1469   25.8865 H   0  0  0  0  0  0
  -20.9289  -29.8764   21.6981 H   0  0  0  0  0  0
  -26.0188  -38.2877   24.1407 H   0  0  0  0  0  0
  -30.1917  -22.4685   19.1052 H   0  0  0  0  0  0
  -25.7185  -19.5692   21.3375 H   0  0  0  0  0  0
  -25.6592  -21.0080   22.3527 H   0  0  0  0  0  0
  -26.7116  -19.6744   22.8003 H   0  0  0  0  0  0
  -27.9274  -18.2681   18.7105 H   0  0  0  0  0  0
  -28.5829  -16.7996   19.3968 H   0  0  0  0  0  0
  -29.6639  -18.0994   18.8879 H   0  0  0  0  0  0
  -31.0324  -18.6164   23.3614 H   0  0  0  0  0  0
  -29.7981  -19.7961   22.9910 H   0  0  0  0  0  0
  -31.1020  -19.4899   21.8446 H   0  0  0  0  0  0
  -29.3445  -16.7723   23.7399 H   0  0  0  0  0  0
  -28.0276  -16.5199   22.6022 H   0  0  0  0  0  0
  -28.1252  -18.0101   23.5194 H   0  0  0  0  0  0
  -30.1211  -24.3050   21.6579 H   0  0  0  0  0  0
  -30.2189  -26.0534   21.7911 H   0  0  0  0  0  0
  -30.5751  -25.2718   20.2582 H   0  0  0  0  0  0
  -27.8013  -26.1560   22.6664 H   0  0  0  0  0  0
  -27.7611  -24.4032   22.5729 H   0  0  0  0  0  0
  -26.5136  -25.3446   21.7807 H   0  0  0  0  0  0
  -27.0268  -24.2710   19.4527 H   0  0  0  0  0  0
  -28.6239  -24.3754   18.7931 H   0  0  0  0  0  0
  -31.4016  -16.7212   22.0869 H   0  0  0  0  0  0
  -31.0871  -17.1714   20.4486 H   0  0  0  0  0  0
  -27.6031  -18.2219   21.0624 H   0  0  0  0  0  0
  -29.1321  -15.2768   21.5357 H   0  0  0  0  0  0
  1 25  1  0  0  0
  1 30  2  0  0  0
  1 88  1  0  0  0
  2  3  1  0  0  0
  2 25  1  0  0  0
  2 89  1  0  0  0
  2 90  1  0  0  0
  3  4  1  0  0  0
  3 91  1  0  0  0
  3 92  1  0  0  0
  4  5  1  0  0  0
  4 93  1  0  0  0
  4 94  1  0  0  0
  5  6  1  0  0  0
  5 26  1  0  0  0
  5 95  1  0  0  0
  6 25  1  0  0  0
  6 96  1  0  0  0
  6 97  1  0  0  0
  7  8  2  0  0  0
  7 26  1  0  0  0
  7 29  1  0  0  0
  8  9  1  0  0  0
  8 22  1  0  0  0
  9 10  1  0  0  0
  9 27  2  0  0  0
 10 11  2  0  0  0
 10 15  1  0  0  0
 11 12  1  0  0  0
 11 98  1  0  0  0
 12 13  2  0  0  0
 12 99  1  0  0  0
 13 14  1  0  0  0
 13 31  1  0  0  0
 14 15  2  0  0  0
 14100  1  0  0  0
 15101  1  0  0  0
 16 17  2  0  0  0
 16 21  1  0  0  0
 16 31  1  0  0  0
 17 18  1  0  0  0
 17102  1  0  0  0
 18 19  2  0  0  0
 18103  1  0  0  0
 19 20  1  0  0  0
 19 24  1  0  0  0
 20 21  2  0  0  0
 20104  1  0  0  0
 21 23  1  0  0  0
 22 28  1  0  0  0
 22 32  2  0  0  0
 26 27  1  0  0  0
 28105  1  0  0  0
 28106  1  0  0  0
 29107  1  0  0  0
 29108  1  0  0  0
 33 34  1  0  0  0
 33 66  1  0  0  0
 33 70  2  0  0  0
 34 36  1  0  0  0
 34 59  1  0  0  0
 34109  1  0  0  0
 35 44  2  0  0  0
 35 45  1  0  0  0
 35 68  1  0  0  0
 36 56  1  0  0  0
 36110  1  0  0  0
 37 39  1  0  0  0
 37 47  1  0  0  0
 37 66  1  0  0  0
 37111  1  0  0  0
 38 43  2  0  0  0
 38 46  1  0  0  0
 38 47  1  0  0  0
 39 64  1  0  0  0
 39 67  2  0  0  0
 40 52  1  0  0  0
 40 53  2  0  0  0
 40 58  1  0  0  0
 41112  1  0  0  0
 41113  1  0  0  0
 41114  1  0  0  0
 41 48  1  0  0  0
 42 43  1  0  0  0
 42 66  1  0  0  0
 42115  1  0  0  0
 42116  1  0  0  0
 43 44  1  0  0  0
 44117  1  0  0  0
 45 46  2  0  0  0
 45118  1  0  0  0
 46119  1  0  0  0
 47120  1  0  0  0
 47121  1  0  0  0
 48 56  1  0  0  0
 48 65  1  0  0  0
 48122  1  0  0  0
 49 50  1  0  0  0
 49 53  1  0  0  0
 49 64  1  0  0  0
 49123  1  0  0  0
 50 51  1  0  0  0
 50124  1  0  0  0
 50125  1  0  0  0
 51 52  1  0  0  0
 51126  1  0  0  0
 51127  1  0  0  0
 52128  1  0  0  0
 52129  1  0  0  0
 53 54  1  0  0  0
 54 55  2  0  0  0
 54130  1  0  0  0
 55 57  1  0  0  0
 55131  1  0  0  0
 56 69  2  0  0  0
 57 58  2  0  0  0
 57132  1  0  0  0
 58133  1  0  0  0
 59 60  1  0  0  0
 59 61  1  0  0  0
 59 62  1  0  0  0
 60134  1  0  0  0
 60135  1  0  0  0
 60136  1  0  0  0
 61137  1  0  0  0
 61138  1  0  0  0
 61139  1  0  0  0
 62140  1  0  0  0
 62141  1  0  0  0
 62142  1  0  0  0
 63 65  1  0  0  0
 63143  1  0  0  0
 63144  1  0  0  0
 63145  1  0  0  0
 64146  1  0  0  0
 65147  1  0  0  0
 68 85  1  0  0  0
 71 72  2  0  0  0
 71 86  1  0  0  0
 71148  1  0  0  0
 72 81  1  0  0  0
 72 87  1  0  0  0
 73 74  1  0  0  0
 73 75  1  0  0  0
 73 87  2  0  0  0
 74 83  1  0  0  0
 74 86  2  0  0  0
 75149  1  0  0  0
 75150  1  0  0  0
 75151  1  0  0  0
 76152  1  0  0  0
 76153  1  0  0  0
 76154  1  0  0  0
 76 83  1  0  0  0
 77155  1  0  0  0
 77156  1  0  0  0
 77157  1  0  0  0
 77 84  1  0  0  0
 78 84  1  0  0  0
 78158  1  0  0  0
 78159  1  0  0  0
 78160  1  0  0  0
 79161  1  0  0  0
 79162  1  0  0  0
 79163  1  0  0  0
 79 85  1  0  0  0
 80 85  1  0  0  0
 80164  1  0  0  0
 80165  1  0  0  0
 80166  1  0  0  0
 81 85  1  0  0  0
 81167  1  0  0  0
 81168  1  0  0  0
 82 84  1  0  0  0
 82 88  1  0  0  0
 82169  1  0  0  0
 82170  1  0  0  0
 83 84  1  0  0  0
 83171  1  0  0  0
 88172  1  0  0  0
M  ISO  4   1 100  68 101  85 101  88 100
M  END
> <chiral flag>
0

> <version>
0

> <s_m_source_file>
/data/baiqing/PycharmProjects/Reinvent-master-3.2/result/LINK_invent/BTK/process_docking_weight1_custom_sum_contain_oxygen_bond_distance_aromatic_linkinvent_7_9_3/rearranged_h_0073.sdf

> <i_m_source_file_index>
53

> <r_mmod_Potential_Energy-OPLS-2005>
4.55840349197388

> <r_mmod_Stretch_Energy-OPLS-2005>
52.2560615539551

> <r_mmod_Bend_Energy-OPLS-2005>
128.450836181641

> <r_mmod_Torsional_Energy-OPLS-2005>
218.068908691406

> <r_mmod_Improper_Torsional_Energy-OPLS-2005>
3.36587524414062

> <r_mmod_Van_der_Waal_Energy-OPLS-2005>
161.285095214844

> <r_mmod_Electrostatic_Energy-OPLS-2005>
-368.098388671875

> <r_mmod_Solvation_Energy-OPLS-2005>
-203.716705322266

> <b_mmod_Minimization_Converged-OPLS-2005>
0

> <r_mmod_RMS_Derivative-OPLS-2005>
0.893929362297058

$$$$
53
                    3D
 Structure written by MMmdl.
150157  0  0  1  0            999 V2000
  -30.1979  -15.8739   20.3078 C   0  0  0  0  0  0
  -30.4118  -13.2421   19.5719 C   0  0  0  0  0  0
  -29.5667  -12.7253   18.3632 C   0  0  0  0  0  0
  -28.1553  -12.3166   18.8034 C   0  0  0  0  0  0
  -27.5905  -13.3375   19.8121 C   0  0  2  0  0  0
  -28.5831  -13.7597   20.9269 C   0  0  0  0  0  0
  -25.2287  -13.8336   20.5809 C   0  0  0  0  0  0
  -24.1699  -13.0445   20.9272 C   0  0  0  0  0  0
  -24.6437  -11.6966   20.8732 C   0  0  0  0  0  0
  -23.9145  -10.4298   21.0369 C   0  0  0  0  0  0
  -24.3665   -9.4214   21.9164 C   0  0  0  0  0  0
  -23.6317   -8.2262   22.0753 C   0  0  0  0  0  0
  -22.4300   -8.0293   21.3544 C   0  0  0  0  0  0
  -21.9947   -9.0268   20.4643 C   0  0  0  0  0  0
  -22.7298  -10.2137   20.3037 C   0  0  0  0  0  0
  -21.6863   -6.0739   22.5273 C   0  0  0  0  0  0
  -21.4025   -6.5638   23.8206 C   0  0  0  0  0  0
  -21.3664   -5.6789   24.9166 C   0  0  0  0  0  0
  -21.6045   -4.3053   24.7218 C   0  0  0  0  0  0
  -21.8819   -3.8144   23.4338 C   0  0  0  0  0  0
  -21.9195   -4.6963   22.3396 C   0  0  0  0  0  0
  -22.7706  -13.5150   21.1909 C   0  0  0  0  0  0
  -22.1661   -4.2146   21.0974 F   0  0  0  0  0  0
  -21.5627   -3.4538   25.7731 F   0  0  0  0  0  0
  -29.7428  -14.4469   20.2901 N   0  0  0  0  0  0
  -26.2766  -12.9722   20.3239 N   0  0  0  0  0  0
  -25.9400  -11.6759   20.5661 N   0  0  0  0  0  0
  -22.0387  -12.8124   22.0469 N   0  0  0  0  0  0
  -25.3867  -15.2086   20.4295 N   0  0  0  0  0  0
  -31.4200  -15.7671   20.0577 O   0  0  0  0  0  0
  -21.6658   -6.8891   21.4241 O   0  0  0  0  0  0
  -22.3367  -14.5445   20.6748 O   0  0  0  0  0  0
  -24.6993  -31.7789   23.1349 C   0  0  0  0  0  0
  -25.9497  -32.4354   23.7960 C   0  0  1  0  0  0
  -27.2364  -26.5281   20.2288 C   0  0  0  0  0  0
  -25.6008  -33.8190   24.1830 N   0  0  0  0  0  0
  -23.5343  -30.3722   21.4921 C   0  0  2  0  0  0
  -24.9953  -28.6769   20.1161 C   0  0  0  0  0  0
  -22.7839  -29.4198   22.4645 C   0  0  0  0  0  0
  -18.0351  -28.1437   22.8452 C   0  0  0  0  0  0
  -24.1492  -36.7102   23.2657 C   0  0  0  0  0  0
  -26.1209  -30.4526   21.4275 C   0  0  0  0  0  0
  -26.1840  -28.9990   20.7798 C   0  0  0  0  0  0
  -27.2769  -27.9559   20.8032 C   0  0  0  0  0  0
  -26.0177  -26.4622   19.4939 C   0  0  0  0  0  0
  -24.9619  -27.4372   19.4490 C   0  0  0  0  0  0
  -23.7980  -29.6522   20.1339 C   0  0  0  0  0  0
  -25.4149  -36.2824   24.0267 C   0  0  1  0  0  0
  -20.5997  -28.3802   23.1112 C   0  0  2  0  0  0
  -20.6812  -26.9445   22.5413 C   0  0  0  0  0  0
  -19.5788  -26.6369   21.5229 C   0  0  0  0  0  0
  -18.1968  -26.7961   22.1622 C   0  0  0  0  0  0
  -19.1624  -28.8948   23.2757 C   0  0  0  0  0  0
  -18.9528  -30.1527   23.8811 C   0  0  0  0  0  0
  -17.6517  -30.6617   24.0550 C   0  0  0  0  0  0
  -25.9150  -34.9224   23.4899 C   0  0  0  0  0  0
  -16.5404  -29.9095   23.6360 C   0  0  0  0  0  0
  -16.7331  -28.6519   23.0375 C   0  0  0  0  0  0
  -26.4620  -31.6469   25.0662 C   0  0  0  0  0  0
  -25.3630  -31.3848   26.1237 C   0  0  0  0  0  0
  -27.0582  -30.2784   24.6698 C   0  0  0  0  0  0
  -27.6031  -32.4380   25.7487 C   0  0  0  0  0  0
  -27.5556  -37.1693   24.8459 C   0  0  0  0  0  0
  -21.4472  -29.3007   22.3400 N   0  0  0  0  0  0
  -26.4248  -37.3615   23.9425 N   0  0  0  0  0  0
  -24.8101  -30.9061   22.0698 N   0  0  0  0  0  0
  -23.4202  -28.7830   23.3072 O   0  0  0  0  0  0
  -28.1750  -25.2331   20.3603 O   0  0  0  0  0  0
  -26.5816  -34.8845   22.4535 O   0  0  0  0  0  0
  -23.5979  -32.0951   23.6191 O   0  0  0  0  0  0
  -29.9596  -17.9285   22.0789 C   0  0  0  0  0  0
  -30.6317  -19.8516   19.3750 C   0  0  0  0  0  0
  -28.2474  -19.4023   18.8415 C   0  0  0  0  0  0
  -28.7682  -21.5200   20.5736 C   0  0  0  0  0  0
  -28.2198  -23.4162   19.9911 C   0  0  0  0  0  0
  -29.4587  -17.6732   20.6509 C   0  0  1  0  0  0
  -29.2454  -19.6065   19.9898 C   0  0  0  0  0  0
  -31.3967  -13.5169   19.1935 H   0  0  0  0  0  0
  -30.6095  -12.4297   20.2735 H   0  0  0  0  0  0
  -30.0663  -11.8881   17.8746 H   0  0  0  0  0  0
  -29.4962  -13.5187   17.6179 H   0  0  0  0  0  0
  -28.2181  -11.3354   19.2755 H   0  0  0  0  0  0
  -27.4944  -12.2069   17.9425 H   0  0  0  0  0  0
  -27.4278  -14.2321   19.2090 H   0  0  0  0  0  0
  -28.8779  -12.9130   21.5486 H   0  0  0  0  0  0
  -28.1007  -14.4713   21.5988 H   0  0  0  0  0  0
  -25.2807   -9.5685   22.4746 H   0  0  0  0  0  0
  -24.0009   -7.4661   22.7490 H   0  0  0  0  0  0
  -21.0870   -8.8796   19.8955 H   0  0  0  0  0  0
  -22.3751  -10.9670   19.6142 H   0  0  0  0  0  0
  -21.2027   -7.6147   23.9705 H   0  0  0  0  0  0
  -21.1484   -6.0522   25.9068 H   0  0  0  0  0  0
  -22.0595   -2.7605   23.2839 H   0  0  0  0  0  0
  -22.4037  -11.9801   22.4856 H   0  0  0  0  0  0
  -21.0999  -13.1117   22.2683 H   0  0  0  0  0  0
  -24.6172  -15.8577   20.5524 H   0  0  0  0  0  0
  -26.2385  -15.6579   20.1184 H   0  0  0  0  0  0
  -26.7594  -32.4776   23.0678 H   0  0  0  0  0  0
  -25.0040  -33.9199   24.9905 H   0  0  0  0  0  0
  -22.8700  -31.2143   21.2866 H   0  0  0  0  0  0
  -23.3780  -35.9400   23.3232 H   0  0  0  0  0  0
  -24.3558  -36.8861   22.2088 H   0  0  0  0  0  0
  -23.7226  -37.6239   23.6806 H   0  0  0  0  0  0
  -26.3449  -31.1653   20.6326 H   0  0  0  0  0  0
  -26.9643  -30.5249   22.1012 H   0  0  0  0  0  0
  -28.1609  -28.2108   21.3699 H   0  0  0  0  0  0
  -25.8239  -25.5336   18.9759 H   0  0  0  0  0  0
  -24.0698  -27.1800   18.8946 H   0  0  0  0  0  0
  -23.9845  -30.4052   19.3676 H   0  0  0  0  0  0
  -22.8999  -29.1255   19.8066 H   0  0  0  0  0  0
  -25.1359  -36.1543   25.0752 H   0  0  0  0  0  0
  -21.0083  -28.3449   24.1238 H   0  0  0  0  0  0
  -20.5680  -26.2428   23.3693 H   0  0  0  0  0  0
  -21.6668  -26.7369   22.1227 H   0  0  0  0  0  0
  -19.6943  -25.6257   21.1314 H   0  0  0  0  0  0
  -19.6738  -27.3136   20.6728 H   0  0  0  0  0  0
  -17.4243  -26.6719   21.4018 H   0  0  0  0  0  0
  -18.0336  -26.0123   22.9036 H   0  0  0  0  0  0
  -19.8004  -30.7364   24.2140 H   0  0  0  0  0  0
  -17.5068  -31.6286   24.5170 H   0  0  0  0  0  0
  -15.5402  -30.2972   23.7733 H   0  0  0  0  0  0
  -15.8731  -28.0807   22.7144 H   0  0  0  0  0  0
  -24.5856  -30.7165   25.7520 H   0  0  0  0  0  0
  -24.8783  -32.3090   26.4392 H   0  0  0  0  0  0
  -25.7750  -30.9180   27.0192 H   0  0  0  0  0  0
  -26.3329  -29.6338   24.1724 H   0  0  0  0  0  0
  -27.3968  -29.7313   25.5505 H   0  0  0  0  0  0
  -27.9323  -30.3862   24.0276 H   0  0  0  0  0  0
  -27.2545  -33.3780   26.1783 H   0  0  0  0  0  0
  -28.3974  -32.6789   25.0408 H   0  0  0  0  0  0
  -28.0551  -31.8706   26.5633 H   0  0  0  0  0  0
  -28.2491  -38.0063   24.7556 H   0  0  0  0  0  0
  -28.1129  -36.2586   24.6210 H   0  0  0  0  0  0
  -27.2284  -37.1230   25.8861 H   0  0  0  0  0  0
  -20.9819  -29.8629   21.6410 H   0  0  0  0  0  0
  -26.0047  -38.2638   24.1490 H   0  0  0  0  0  0
  -29.3172  -18.6411   22.5957 H   0  0  0  0  0  0
  -30.9701  -18.3369   22.0670 H   0  0  0  0  0  0
  -29.9793  -17.0154   22.6757 H   0  0  0  0  0  0
  -30.6394  -20.7385   18.7401 H   0  0  0  0  0  0
  -30.9576  -19.0071   18.7664 H   0  0  0  0  0  0
  -31.3793  -20.0009   20.1543 H   0  0  0  0  0  0
  -28.1934  -20.2782   18.1939 H   0  0  0  0  0  0
  -27.2457  -19.2186   19.2309 H   0  0  0  0  0  0
  -28.5185  -18.5482   18.2198 H   0  0  0  0  0  0
  -27.9937  -21.3166   21.3133 H   0  0  0  0  0  0
  -29.6341  -21.7528   21.1942 H   0  0  0  0  0  0
  -27.1896  -23.2585   19.6713 H   0  0  0  0  0  0
  -28.7611  -23.4772   19.0474 H   0  0  0  0  0  0
  -28.4144  -17.3798   20.7631 H   0  0  0  0  0  0
  1 25  1  0  0  0
  1 30  2  0  0  0
  1 76  1  0  0  0
  2  3  1  0  0  0
  2 25  1  0  0  0
  2 78  1  0  0  0
  2 79  1  0  0  0
  3  4  1  0  0  0
  3 80  1  0  0  0
  3 81  1  0  0  0
  4  5  1  0  0  0
  4 82  1  0  0  0
  4 83  1  0  0  0
  5  6  1  0  0  0
  5 26  1  0  0  0
  5 84  1  0  0  0
  6 25  1  0  0  0
  6 85  1  0  0  0
  6 86  1  0  0  0
  7  8  2  0  0  0
  7 26  1  0  0  0
  7 29  1  0  0  0
  8  9  1  0  0  0
  8 22  1  0  0  0
  9 10  1  0  0  0
  9 27  2  0  0  0
 10 11  2  0  0  0
 10 15  1  0  0  0
 11 12  1  0  0  0
 11 87  1  0  0  0
 12 13  2  0  0  0
 12 88  1  0  0  0
 13 14  1  0  0  0
 13 31  1  0  0  0
 14 15  2  0  0  0
 14 89  1  0  0  0
 15 90  1  0  0  0
 16 17  2  0  0  0
 16 21  1  0  0  0
 16 31  1  0  0  0
 17 18  1  0  0  0
 17 91  1  0  0  0
 18 19  2  0  0  0
 18 92  1  0  0  0
 19 20  1  0  0  0
 19 24  1  0  0  0
 20 21  2  0  0  0
 20 93  1  0  0  0
 21 23  1  0  0  0
 22 28  1  0  0  0
 22 32  2  0  0  0
 26 27  1  0  0  0
 28 94  1  0  0  0
 28 95  1  0  0  0
 29 96  1  0  0  0
 29 97  1  0  0  0
 33 34  1  0  0  0
 33 66  1  0  0  0
 33 70  2  0  0  0
 34 36  1  0  0  0
 34 59  1  0  0  0
 34 98  1  0  0  0
 35 44  2  0  0  0
 35 45  1  0  0  0
 35 68  1  0  0  0
 36 56  1  0  0  0
 36 99  1  0  0  0
 37 39  1  0  0  0
 37 47  1  0  0  0
 37 66  1  0  0  0
 37100  1  0  0  0
 38 43  2  0  0  0
 38 46  1  0  0  0
 38 47  1  0  0  0
 39 64  1  0  0  0
 39 67  2  0  0  0
 40 52  1  0  0  0
 40 53  2  0  0  0
 40 58  1  0  0  0
 41101  1  0  0  0
 41102  1  0  0  0
 41103  1  0  0  0
 41 48  1  0  0  0
 42 43  1  0  0  0
 42 66  1  0  0  0
 42104  1  0  0  0
 42105  1  0  0  0
 43 44  1  0  0  0
 44106  1  0  0  0
 45 46  2  0  0  0
 45107  1  0  0  0
 46108  1  0  0  0
 47109  1  0  0  0
 47110  1  0  0  0
 48 56  1  0  0  0
 48 65  1  0  0  0
 48111  1  0  0  0
 49 50  1  0  0  0
 49 53  1  0  0  0
 49 64  1  0  0  0
 49112  1  0  0  0
 50 51  1  0  0  0
 50113  1  0  0  0
 50114  1  0  0  0
 51 52  1  0  0  0
 51115  1  0  0  0
 51116  1  0  0  0
 52117  1  0  0  0
 52118  1  0  0  0
 53 54  1  0  0  0
 54 55  2  0  0  0
 54119  1  0  0  0
 55 57  1  0  0  0
 55120  1  0  0  0
 56 69  2  0  0  0
 57 58  2  0  0  0
 57121  1  0  0  0
 58122  1  0  0  0
 59 60  1  0  0  0
 59 61  1  0  0  0
 59 62  1  0  0  0
 60123  1  0  0  0
 60124  1  0  0  0
 60125  1  0  0  0
 61126  1  0  0  0
 61127  1  0  0  0
 61128  1  0  0  0
 62129  1  0  0  0
 62130  1  0  0  0
 62131  1  0  0  0
 63 65  1  0  0  0
 63132  1  0  0  0
 63133  1  0  0  0
 63134  1  0  0  0
 64135  1  0  0  0
 65136  1  0  0  0
 68 75  1  0  0  0
 71137  1  0  0  0
 71138  1  0  0  0
 71139  1  0  0  0
 71 76  1  0  0  0
 72140  1  0  0  0
 72141  1  0  0  0
 72142  1  0  0  0
 72 77  1  0  0  0
 73 77  1  0  0  0
 73143  1  0  0  0
 73144  1  0  0  0
 73145  1  0  0  0
 74 75  1  0  0  0
 74 77  1  0  0  0
 74146  1  0  0  0
 74147  1  0  0  0
 75148  1  0  0  0
 75149  1  0  0  0
 76 77  1  0  0  0
 76150  1  0  0  0
M  ISO  4   1 100  68 101  75 101  76 100
M  END
> <chiral flag>
0

> <version>
0

> <s_m_source_file>
/data/baiqing/PycharmProjects/Reinvent-master-3.2/result/LINK_invent/BTK/process_docking_weight1_custom_sum_contain_oxygen_bond_distance_aromatic_linkinvent_7_9_3/rearranged_h_0073.sdf

> <i_m_source_file_index>
54

> <r_mmod_Potential_Energy-OPLS-2005>
3746.57788085938

> <r_mmod_Stretch_Energy-OPLS-2005>
1771.90991210938

> <r_mmod_Bend_Energy-OPLS-2005>
842.451049804688

> <r_mmod_Torsional_Energy-OPLS-2005>
194.205841064453

> <r_mmod_Improper_Torsional_Energy-OPLS-2005>
1.74782609939575

> <r_mmod_Van_der_Waal_Energy-OPLS-2005>
107.09188079834

> <r_mmod_Electrostatic_Energy-OPLS-2005>
-279.284301757812

> <r_mmod_Solvation_Energy-OPLS-2005>
-185.845169067383

> <b_mmod_Minimization_Converged-OPLS-2005>
0

> <r_mmod_RMS_Derivative-OPLS-2005>
0.819213151931763

$$$$
54
                    3D
 Structure written by MMmdl.
166174  0  0  1  0            999 V2000
  -30.5903  -14.7622   20.4709 C   0  0  0  0  0  0
  -30.4387  -12.4705   19.4684 C   0  0  0  0  0  0
  -29.5117  -12.5108   18.2329 C   0  0  0  0  0  0
  -28.0388  -12.3265   18.6487 C   0  0  0  0  0  0
  -27.6413  -13.2268   19.8481 C   0  0  2  0  0  0
  -28.6858  -13.1594   20.9828 C   0  0  0  0  0  0
  -25.2513  -13.8185   20.5668 C   0  0  0  0  0  0
  -24.1808  -13.0441   20.9213 C   0  0  0  0  0  0
  -24.6395  -11.6917   20.8760 C   0  0  0  0  0  0
  -23.9067  -10.4295   21.0413 C   0  0  0  0  0  0
  -24.3621   -9.4209   21.9186 C   0  0  0  0  0  0
  -23.6301   -8.2241   22.0751 C   0  0  0  0  0  0
  -22.4281   -8.0285   21.3542 C   0  0  0  0  0  0
  -21.9916   -9.0258   20.4643 C   0  0  0  0  0  0
  -22.7242  -10.2138   20.3057 C   0  0  0  0  0  0
  -21.6858   -6.0743   22.5280 C   0  0  0  0  0  0
  -21.4014   -6.5643   23.8215 C   0  0  0  0  0  0
  -21.3658   -5.6792   24.9174 C   0  0  0  0  0  0
  -21.6045   -4.3057   24.7222 C   0  0  0  0  0  0
  -21.8820   -3.8150   23.4343 C   0  0  0  0  0  0
  -21.9193   -4.6970   22.3402 C   0  0  0  0  0  0
  -22.7828  -13.5230   21.1871 C   0  0  0  0  0  0
  -22.1658   -4.2155   21.0981 F   0  0  0  0  0  0
  -21.5632   -3.4542   25.7735 F   0  0  0  0  0  0
  -29.9831  -13.5276   20.4005 N   0  0  0  0  0  0
  -26.2933  -12.9378   20.3259 N   0  0  0  0  0  0
  -25.9321  -11.6528   20.5745 N   0  0  0  0  0  0
  -22.0466  -12.8222   22.0424 N   0  0  0  0  0  0
  -25.4193  -15.1908   20.4041 N   0  0  0  0  0  0
  -31.7776  -14.8728   20.1565 O   0  0  0  0  0  0
  -21.6639   -6.8888   21.4243 O   0  0  0  0  0  0
  -22.3518  -14.5538   20.6714 O   0  0  0  0  0  0
  -24.6313  -31.8544   23.1958 C   0  0  0  0  0  0
  -25.9135  -32.4753   23.8316 C   0  0  1  0  0  0
  -27.2248  -27.2573   20.1491 C   0  0  0  0  0  0
  -25.5939  -33.8553   24.2252 N   0  0  0  0  0  0
  -23.4291  -30.4725   21.5397 C   0  0  2  0  0  0
  -24.8770  -28.9080   20.1205 C   0  0  0  0  0  0
  -22.7498  -29.4587   22.4921 C   0  0  0  0  0  0
  -18.0286  -28.1381   22.8484 C   0  0  0  0  0  0
  -24.1488  -36.7277   23.2637 C   0  0  0  0  0  0
  -25.9721  -30.7674   21.3729 C   0  0  0  0  0  0
  -26.0467  -29.3841   20.7273 C   0  0  0  0  0  0
  -27.2257  -28.5719   20.7253 C   0  0  0  0  0  0
  -26.0361  -26.8418   19.5191 C   0  0  0  0  0  0
  -24.8757  -27.6448   19.5053 C   0  0  0  0  0  0
  -23.6486  -29.7976   20.1593 C   0  0  0  0  0  0
  -25.4115  -36.3069   24.0326 C   0  0  1  0  0  0
  -20.5890  -28.3691   23.1272 C   0  0  2  0  0  0
  -20.6774  -26.9408   22.5409 C   0  0  0  0  0  0
  -19.5751  -26.6379   21.5210 C   0  0  0  0  0  0
  -18.1932  -26.7926   22.1625 C   0  0  0  0  0  0
  -19.1541  -28.8853   23.2871 C   0  0  0  0  0  0
  -18.9464  -30.1453   23.8891 C   0  0  0  0  0  0
  -17.6464  -30.6583   24.0557 C   0  0  0  0  0  0
  -25.9059  -34.9441   23.5093 C   0  0  0  0  0  0
  -16.5352  -29.9082   23.6325 C   0  0  0  0  0  0
  -16.7273  -28.6496   23.0352 C   0  0  0  0  0  0
  -26.4503  -31.6571   25.0700 C   0  0  0  0  0  0
  -25.3724  -31.3720   26.1417 C   0  0  0  0  0  0
  -27.0341  -30.2995   24.6162 C   0  0  0  0  0  0
  -27.6065  -32.4301   25.7473 C   0  0  0  0  0  0
  -27.5576  -37.1794   24.8464 C   0  0  0  0  0  0
  -21.4203  -29.3040   22.3668 N   0  0  0  0  0  0
  -26.4288  -37.3777   23.9411 N   0  0  0  0  0  0
  -24.6969  -31.0498   22.0937 N   0  0  0  0  0  0
  -23.4193  -28.8134   23.3029 O   0  0  0  0  0  0
  -28.3481  -26.4063   20.1011 O   0  0  0  0  0  0
  -26.5624  -34.8916   22.4659 O   0  0  0  0  0  0
  -23.5459  -32.1361   23.7251 O   0  0  0  0  0  0
  -28.4815  -19.9472   18.5503 C   0  0  0  0  0  0
  -28.5580  -18.7943   17.8181 C   0  0  0  0  0  0
  -29.3767  -18.3600   19.8648 C   0  0  0  0  0  0
  -28.1332  -18.4884   16.4188 C   0  0  0  0  0  0
  -31.4954  -17.7431   21.1561 C   0  0  0  0  0  0
  -28.5590  -23.8722   18.5310 C   0  0  0  0  0  0
  -26.8237  -23.0979   20.1767 C   0  0  0  0  0  0
  -29.2853  -22.4053   20.5196 C   0  0  0  0  0  0
  -28.9575  -20.8268   20.8569 C   0  0  0  0  0  0
  -28.3732  -25.0573   20.7684 C   0  0  0  0  0  0
  -30.0166  -17.3896   20.9244 C   0  0  2  0  0  0
  -28.2712  -23.6005   20.0199 C   0  0  0  0  0  0
  -28.9996  -19.7115   19.8007 N   0  0  0  0  0  0
  -29.1208  -17.8651   18.6482 N   0  3  0  0  0  0
  -29.7828  -15.8722   20.7082 N   0  0  0  0  0  0
  -31.4775  -12.6100   19.1626 H   0  0  0  0  0  0
  -30.3968  -11.4932   19.9520 H   0  0  0  0  0  0
  -29.8001  -11.7363   17.5214 H   0  0  0  0  0  0
  -29.6298  -13.4625   17.7125 H   0  0  0  0  0  0
  -27.9050  -11.2783   18.9172 H   0  0  0  0  0  0
  -27.3780  -12.5074   17.8009 H   0  0  0  0  0  0
  -27.6349  -14.2471   19.4659 H   0  0  0  0  0  0
  -28.7290  -12.1579   21.4128 H   0  0  0  0  0  0
  -28.4137  -13.8303   21.7996 H   0  0  0  0  0  0
  -25.2766   -9.5690   22.4759 H   0  0  0  0  0  0
  -24.0017   -7.4635   22.7472 H   0  0  0  0  0  0
  -21.0846   -8.8776   19.8954 H   0  0  0  0  0  0
  -22.3700  -10.9677   19.6169 H   0  0  0  0  0  0
  -21.1996   -7.6149   23.9721 H   0  0  0  0  0  0
  -21.1480   -6.0518   25.9079 H   0  0  0  0  0  0
  -22.0599   -2.7613   23.2837 H   0  0  0  0  0  0
  -22.4071  -11.9887   22.4821 H   0  0  0  0  0  0
  -21.1080  -13.1244   22.2626 H   0  0  0  0  0  0
  -24.6418  -15.8354   20.4986 H   0  0  0  0  0  0
  -26.2467  -15.6267   20.0213 H   0  0  0  0  0  0
  -26.7201  -32.5409   23.1060 H   0  0  0  0  0  0
  -25.0121  -33.9695   25.0424 H   0  0  0  0  0  0
  -22.7260  -31.2942   21.3887 H   0  0  0  0  0  0
  -23.3756  -35.9600   23.3295 H   0  0  0  0  0  0
  -24.3575  -36.8902   22.2051 H   0  0  0  0  0  0
  -23.7228  -37.6475   23.6656 H   0  0  0  0  0  0
  -26.1021  -31.5224   20.5960 H   0  0  0  0  0  0
  -26.8531  -30.8271   22.0006 H   0  0  0  0  0  0
  -28.1295  -28.9397   21.1905 H   0  0  0  0  0  0
  -26.0055  -25.8844   19.0218 H   0  0  0  0  0  0
  -23.9825  -27.2780   19.0191 H   0  0  0  0  0  0
  -23.7752  -30.5684   19.3982 H   0  0  0  0  0  0
  -22.7680  -29.2292   19.8562 H   0  0  0  0  0  0
  -25.1299  -36.1921   25.0817 H   0  0  0  0  0  0
  -20.9972  -28.3265   24.1397 H   0  0  0  0  0  0
  -20.5669  -26.2300   23.3614 H   0  0  0  0  0  0
  -21.6645  -26.7429   22.1209 H   0  0  0  0  0  0
  -19.6912  -25.6289   21.1243 H   0  0  0  0  0  0
  -19.6690  -27.3187   20.6736 H   0  0  0  0  0  0
  -17.4201  -26.6660   21.4026 H   0  0  0  0  0  0
  -18.0332  -26.0070   22.9026 H   0  0  0  0  0  0
  -19.7940  -30.7261   24.2262 H   0  0  0  0  0  0
  -17.5021  -31.6264   24.5159 H   0  0  0  0  0  0
  -15.5354  -30.2985   23.7648 H   0  0  0  0  0  0
  -15.8673  -28.0809   22.7078 H   0  0  0  0  0  0
  -24.5894  -30.7084   25.7732 H   0  0  0  0  0  0
  -24.8921  -32.2892   26.4839 H   0  0  0  0  0  0
  -25.8038  -30.8890   27.0197 H   0  0  0  0  0  0
  -26.2916  -29.6752   24.1180 H   0  0  0  0  0  0
  -27.4033  -29.7245   25.4666 H   0  0  0  0  0  0
  -27.8790  -30.4284   23.9393 H   0  0  0  0  0  0
  -27.2684  -33.3601   26.2059 H   0  0  0  0  0  0
  -28.3876  -32.6858   25.0298 H   0  0  0  0  0  0
  -28.0736  -31.8418   26.5385 H   0  0  0  0  0  0
  -28.2596  -38.0090   24.7520 H   0  0  0  0  0  0
  -28.1070  -36.2625   24.6283 H   0  0  0  0  0  0
  -27.2292  -37.1436   25.8866 H   0  0  0  0  0  0
  -20.9387  -29.8770   21.6880 H   0  0  0  0  0  0
  -26.0166  -38.2847   24.1422 H   0  0  0  0  0  0
  -28.0783  -20.9072   18.2700 H   0  0  0  0  0  0
  -27.1523  -18.0129   16.4202 H   0  0  0  0  0  0
  -28.8448  -17.8201   15.9355 H   0  0  0  0  0  0
  -28.0689  -19.4043   15.8313 H   0  0  0  0  0  0
  -31.6048  -18.7853   21.4573 H   0  0  0  0  0  0
  -32.0843  -17.6046   20.2489 H   0  0  0  0  0  0
  -31.9351  -17.1301   21.9427 H   0  0  0  0  0  0
  -28.4777  -22.9811   17.9144 H   0  0  0  0  0  0
  -29.5668  -24.2669   18.3946 H   0  0  0  0  0  0
  -27.8693  -24.6096   18.1195 H   0  0  0  0  0  0
  -26.6436  -22.1840   19.6126 H   0  0  0  0  0  0
  -26.0971  -23.8336   19.8349 H   0  0  0  0  0  0
  -26.5954  -22.8864   21.2220 H   0  0  0  0  0  0
  -30.1779  -22.4208   19.8929 H   0  0  0  0  0  0
  -29.6613  -22.7765   21.4735 H   0  0  0  0  0  0
  -27.9846  -20.7564   21.3432 H   0  0  0  0  0  0
  -29.6707  -20.5114   21.6190 H   0  0  0  0  0  0
  -29.3411  -25.0636   21.2694 H   0  0  0  0  0  0
  -27.6626  -25.0839   21.5960 H   0  0  0  0  0  0
  -29.4835  -17.6325   21.8438 H   0  0  0  0  0  0
  -29.3196  -16.9049   18.3947 H   0  0  0  0  0  0
  -28.8282  -15.6022   20.8911 H   0  0  0  0  0  0
  1 25  1  0  0  0
  1 30  2  0  0  0
  1 85  1  0  0  0
  2  3  1  0  0  0
  2 25  1  0  0  0
  2 86  1  0  0  0
  2 87  1  0  0  0
  3  4  1  0  0  0
  3 88  1  0  0  0
  3 89  1  0  0  0
  4  5  1  0  0  0
  4 90  1  0  0  0
  4 91  1  0  0  0
  5  6  1  0  0  0
  5 26  1  0  0  0
  5 92  1  0  0  0
  6 25  1  0  0  0
  6 93  1  0  0  0
  6 94  1  0  0  0
  7  8  2  0  0  0
  7 26  1  0  0  0
  7 29  1  0  0  0
  8  9  1  0  0  0
  8 22  1  0  0  0
  9 10  1  0  0  0
  9 27  2  0  0  0
 10 11  2  0  0  0
 10 15  1  0  0  0
 11 12  1  0  0  0
 11 95  1  0  0  0
 12 13  2  0  0  0
 12 96  1  0  0  0
 13 14  1  0  0  0
 13 31  1  0  0  0
 14 15  2  0  0  0
 14 97  1  0  0  0
 15 98  1  0  0  0
 16 17  2  0  0  0
 16 21  1  0  0  0
 16 31  1  0  0  0
 17 18  1  0  0  0
 17 99  1  0  0  0
 18 19  2  0  0  0
 18100  1  0  0  0
 19 20  1  0  0  0
 19 24  1  0  0  0
 20 21  2  0  0  0
 20101  1  0  0  0
 21 23  1  0  0  0
 22 28  1  0  0  0
 22 32  2  0  0  0
 26 27  1  0  0  0
 28102  1  0  0  0
 28103  1  0  0  0
 29104  1  0  0  0
 29105  1  0  0  0
 33 34  1  0  0  0
 33 66  1  0  0  0
 33 70  2  0  0  0
 34 36  1  0  0  0
 34 59  1  0  0  0
 34106  1  0  0  0
 35 44  2  0  0  0
 35 45  1  0  0  0
 35 68  1  0  0  0
 36 56  1  0  0  0
 36107  1  0  0  0
 37 39  1  0  0  0
 37 47  1  0  0  0
 37 66  1  0  0  0
 37108  1  0  0  0
 38 43  2  0  0  0
 38 46  1  0  0  0
 38 47  1  0  0  0
 39 64  1  0  0  0
 39 67  2  0  0  0
 40 52  1  0  0  0
 40 53  2  0  0  0
 40 58  1  0  0  0
 41109  1  0  0  0
 41110  1  0  0  0
 41111  1  0  0  0
 41 48  1  0  0  0
 42 43  1  0  0  0
 42 66  1  0  0  0
 42112  1  0  0  0
 42113  1  0  0  0
 43 44  1  0  0  0
 44114  1  0  0  0
 45 46  2  0  0  0
 45115  1  0  0  0
 46116  1  0  0  0
 47117  1  0  0  0
 47118  1  0  0  0
 48 56  1  0  0  0
 48 65  1  0  0  0
 48119  1  0  0  0
 49 50  1  0  0  0
 49 53  1  0  0  0
 49 64  1  0  0  0
 49120  1  0  0  0
 50 51  1  0  0  0
 50121  1  0  0  0
 50122  1  0  0  0
 51 52  1  0  0  0
 51123  1  0  0  0
 51124  1  0  0  0
 52125  1  0  0  0
 52126  1  0  0  0
 53 54  1  0  0  0
 54 55  2  0  0  0
 54127  1  0  0  0
 55 57  1  0  0  0
 55128  1  0  0  0
 56 69  2  0  0  0
 57 58  2  0  0  0
 57129  1  0  0  0
 58130  1  0  0  0
 59 60  1  0  0  0
 59 61  1  0  0  0
 59 62  1  0  0  0
 60131  1  0  0  0
 60132  1  0  0  0
 60133  1  0  0  0
 61134  1  0  0  0
 61135  1  0  0  0
 61136  1  0  0  0
 62137  1  0  0  0
 62138  1  0  0  0
 62139  1  0  0  0
 63 65  1  0  0  0
 63140  1  0  0  0
 63141  1  0  0  0
 63142  1  0  0  0
 64143  1  0  0  0
 65144  1  0  0  0
 68 80  1  0  0  0
 71 72  2  0  0  0
 71 83  1  0  0  0
 71145  1  0  0  0
 72 74  1  0  0  0
 72 84  1  0  0  0
 73 81  1  0  0  0
 73 83  1  0  0  0
 73 84  2  0  0  0
 74146  1  0  0  0
 74147  1  0  0  0
 74148  1  0  0  0
 75149  1  0  0  0
 75150  1  0  0  0
 75151  1  0  0  0
 75 81  1  0  0  0
 76152  1  0  0  0
 76153  1  0  0  0
 76154  1  0  0  0
 76 82  1  0  0  0
 77 82  1  0  0  0
 77155  1  0  0  0
 77156  1  0  0  0
 77157  1  0  0  0
 78 79  1  0  0  0
 78 82  1  0  0  0
 78158  1  0  0  0
 78159  1  0  0  0
 79 83  1  0  0  0
 79160  1  0  0  0
 79161  1  0  0  0
 80 82  1  0  0  0
 80162  1  0  0  0
 80163  1  0  0  0
 81 85  1  0  0  0
 81164  1  0  0  0
 84165  1  0  0  0
 85166  1  0  0  0
M  CHG  1  84   1
M  ISO  4   1 100  68 101  80 101  85 100
M  END
> <chiral flag>
0

> <version>
0

> <s_m_source_file>
/data/baiqing/PycharmProjects/Reinvent-master-3.2/result/LINK_invent/BTK/process_docking_weight1_custom_sum_contain_oxygen_bond_distance_aromatic_linkinvent_7_9_3/rearranged_h_0073.sdf

> <i_m_source_file_index>
55

> <r_mmod_Potential_Energy-OPLS-2005>
185.098541259766

> <r_mmod_Stretch_Energy-OPLS-2005>
147.119903564453

> <r_mmod_Bend_Energy-OPLS-2005>
238.333465576172

> <r_mmod_Torsional_Energy-OPLS-2005>
267.490509033203

> <r_mmod_Improper_Torsional_Energy-OPLS-2005>
5.22020292282104

> <r_mmod_Van_der_Waal_Energy-OPLS-2005>
101.437774658203

> <r_mmod_Electrostatic_Energy-OPLS-2005>
-245.635482788086

> <r_mmod_Solvation_Energy-OPLS-2005>
-413.8916015625

> <b_mmod_Minimization_Converged-OPLS-2005>
0

> <r_mmod_RMS_Derivative-OPLS-2005>
1.18738353252411

$$$$
55
                    3D
 Structure written by MMmdl.
164172  0  0  1  0            999 V2000
  -30.6976  -14.7726   20.5628 C   0  0  0  0  0  0
  -30.4116  -12.4749   19.5091 C   0  0  0  0  0  0
  -29.5108  -12.5090   18.2546 C   0  0  0  0  0  0
  -28.0371  -12.3213   18.6492 C   0  0  0  0  0  0
  -27.6413  -13.2349   19.8370 C   0  0  2  0  0  0
  -28.6742  -13.1733   20.9807 C   0  0  0  0  0  0
  -25.2494  -13.8248   20.5675 C   0  0  0  0  0  0
  -24.1796  -13.0539   20.9174 C   0  0  0  0  0  0
  -24.6352  -11.6985   20.8636 C   0  0  0  0  0  0
  -23.8992  -10.4379   21.0330 C   0  0  0  0  0  0
  -24.3586   -9.4337   21.9155 C   0  0  0  0  0  0
  -23.6312   -8.2345   22.0730 C   0  0  0  0  0  0
  -22.4302   -8.0314   21.3504 C   0  0  0  0  0  0
  -21.9901   -9.0264   20.4612 C   0  0  0  0  0  0
  -22.7156  -10.2169   20.2997 C   0  0  0  0  0  0
  -21.6931   -6.0725   22.5243 C   0  0  0  0  0  0
  -21.4063   -6.5639   23.8178 C   0  0  0  0  0  0
  -21.3637   -5.6793   24.9159 C   0  0  0  0  0  0
  -21.5996   -4.3041   24.7195 C   0  0  0  0  0  0
  -21.8854   -3.8134   23.4332 C   0  0  0  0  0  0
  -21.9225   -4.6947   22.3383 C   0  0  0  0  0  0
  -22.7799  -13.5259   21.1840 C   0  0  0  0  0  0
  -22.1712   -4.2132   21.0966 F   0  0  0  0  0  0
  -21.5585   -3.4536   25.7717 F   0  0  0  0  0  0
  -29.9950  -13.5634   20.4519 N   0  0  0  0  0  0
  -26.2937  -12.9480   20.3233 N   0  0  0  0  0  0
  -25.9288  -11.6610   20.5657 N   0  0  0  0  0  0
  -22.0487  -12.8216   22.0387 N   0  0  0  0  0  0
  -25.4231  -15.2021   20.4036 N   0  0  0  0  0  0
  -31.7449  -14.8227   19.9078 O   0  0  0  0  0  0
  -21.6692   -6.8882   21.4208 O   0  0  0  0  0  0
  -22.3419  -14.5518   20.6640 O   0  0  0  0  0  0
  -24.6416  -31.8553   23.1953 C   0  0  0  0  0  0
  -25.9218  -32.4716   23.8342 C   0  0  1  0  0  0
  -27.1931  -27.1522   20.1575 C   0  0  0  0  0  0
  -25.6003  -33.8543   24.2246 N   0  0  0  0  0  0
  -23.4404  -30.4767   21.5395 C   0  0  2  0  0  0
  -24.8862  -28.9160   20.0970 C   0  0  0  0  0  0
  -22.7558  -29.4629   22.4879 C   0  0  0  0  0  0
  -18.0348  -28.1376   22.8466 C   0  0  0  0  0  0
  -24.1468  -36.7222   23.2643 C   0  0  0  0  0  0
  -25.9948  -30.7220   21.4022 C   0  0  0  0  0  0
  -26.0584  -29.3417   20.7331 C   0  0  0  0  0  0
  -27.2090  -28.4755   20.7543 C   0  0  0  0  0  0
  -26.0025  -26.8313   19.4694 C   0  0  0  0  0  0
  -24.8714  -27.6725   19.4449 C   0  0  0  0  0  0
  -23.6610  -29.8170   20.1517 C   0  0  0  0  0  0
  -25.4121  -36.3078   24.0334 C   0  0  1  0  0  0
  -20.5937  -28.3753   23.1206 C   0  0  2  0  0  0
  -20.6817  -26.9470   22.5352 C   0  0  0  0  0  0
  -19.5809  -26.6416   21.5156 C   0  0  0  0  0  0
  -18.1999  -26.7926   22.1585 C   0  0  0  0  0  0
  -19.1600  -28.8892   23.2824 C   0  0  0  0  0  0
  -18.9507  -30.1490   23.8851 C   0  0  0  0  0  0
  -17.6502  -30.6561   24.0590 C   0  0  0  0  0  0
  -25.9099  -34.9434   23.5103 C   0  0  0  0  0  0
  -16.5396  -29.9076   23.6345 C   0  0  0  0  0  0
  -16.7357  -28.6481   23.0362 C   0  0  0  0  0  0
  -26.4577  -31.6581   25.0774 C   0  0  0  0  0  0
  -25.3765  -31.3708   26.1429 C   0  0  0  0  0  0
  -27.0498  -30.3022   24.6354 C   0  0  0  0  0  0
  -27.6123  -32.4344   25.7539 C   0  0  0  0  0  0
  -27.5585  -37.1770   24.8488 C   0  0  0  0  0  0
  -21.4259  -29.3129   22.3590 N   0  0  0  0  0  0
  -26.4316  -37.3780   23.9415 N   0  0  0  0  0  0
  -24.7120  -31.0400   22.1008 N   0  0  0  0  0  0
  -23.4210  -28.8207   23.3039 O   0  0  0  0  0  0
  -28.2439  -26.1730   20.2069 O   0  0  0  0  0  0
  -26.5635  -34.8939   22.4660 O   0  0  0  0  0  0
  -23.5542  -32.1462   23.7102 O   0  0  0  0  0  0
  -29.0894  -20.3597   20.6740 C   0  0  0  0  0  0
  -29.5872  -19.4556   19.6716 C   0  0  0  0  0  0
  -29.0892  -19.6820   21.9326 C   0  0  0  0  0  0
  -29.8951  -17.5664   21.1189 C   0  0  0  0  0  0
  -29.6838  -19.9075   18.2310 C   0  0  0  0  0  0
  -29.6387  -21.5052   23.6189 C   0  0  0  0  0  0
  -29.7048  -15.5918   22.8305 C   0  0  0  0  0  0
  -31.8930  -16.3247   22.1399 C   0  0  0  0  0  0
  -28.3412  -21.8120   20.4430 C   0  0  0  0  0  0
  -28.6744  -20.3835   23.2145 C   0  0  0  0  0  0
  -28.9346  -23.3465   20.2270 C   0  0  0  0  0  0
  -27.9101  -24.6628   20.3284 C   0  0  0  0  0  0
  -30.4655  -16.0705   21.5646 C   0  0  0  0  0  0
  -29.9899  -18.1384   19.8982 N   0  0  0  0  0  0
  -29.4939  -18.3792   22.1191 N   0  0  0  0  0  0
  -31.4575  -12.5367   19.2164 H   0  0  0  0  0  0
  -30.3291  -11.4998   19.9948 H   0  0  0  0  0  0
  -29.8221  -11.7283   17.5568 H   0  0  0  0  0  0
  -29.6301  -13.4505   17.7196 H   0  0  0  0  0  0
  -27.9002  -11.2730   18.9150 H   0  0  0  0  0  0
  -27.3930  -12.4869   17.7848 H   0  0  0  0  0  0
  -27.6435  -14.2514   19.4438 H   0  0  0  0  0  0
  -28.7041  -12.1606   21.3894 H   0  0  0  0  0  0
  -28.3378  -13.7968   21.7997 H   0  0  0  0  0  0
  -25.2786   -9.5870   22.4648 H   0  0  0  0  0  0
  -24.0037   -7.4778   22.7472 H   0  0  0  0  0  0
  -21.0839   -8.8738   19.8927 H   0  0  0  0  0  0
  -22.3625  -10.9643   19.6020 H   0  0  0  0  0  0
  -21.2125   -7.6162   23.9709 H   0  0  0  0  0  0
  -21.1394   -6.0501   25.9041 H   0  0  0  0  0  0
  -22.0652   -2.7601   23.2838 H   0  0  0  0  0  0
  -22.4217  -11.9900   22.4709 H   0  0  0  0  0  0
  -21.1061  -13.1093   22.2596 H   0  0  0  0  0  0
  -24.6527  -15.8581   20.4861 H   0  0  0  0  0  0
  -26.2803  -15.6364   20.0840 H   0  0  0  0  0  0
  -26.7312  -32.5310   23.1060 H   0  0  0  0  0  0
  -25.0233  -33.9679   25.0430 H   0  0  0  0  0  0
  -22.7391  -31.3008   21.3908 H   0  0  0  0  0  0
  -23.3776  -35.9506   23.3368 H   0  0  0  0  0  0
  -24.3523  -36.8811   22.2054 H   0  0  0  0  0  0
  -23.7145  -37.6411   23.6629 H   0  0  0  0  0  0
  -26.1590  -31.4889   20.6415 H   0  0  0  0  0  0
  -26.8596  -30.7561   22.0541 H   0  0  0  0  0  0
  -28.0834  -28.7971   21.2970 H   0  0  0  0  0  0
  -25.9110  -25.8983   18.9414 H   0  0  0  0  0  0
  -23.9890  -27.3325   18.9170 H   0  0  0  0  0  0
  -23.7955  -30.6028   19.4066 H   0  0  0  0  0  0
  -22.7721  -29.2672   19.8406 H   0  0  0  0  0  0
  -25.1262  -36.1963   25.0832 H   0  0  0  0  0  0
  -21.0027  -28.3342   24.1327 H   0  0  0  0  0  0
  -20.5666  -26.2435   23.3598 H   0  0  0  0  0  0
  -21.6725  -26.7469   22.1183 H   0  0  0  0  0  0
  -19.7010  -25.6323   21.1241 H   0  0  0  0  0  0
  -19.6705  -27.3186   20.6640 H   0  0  0  0  0  0
  -17.4265  -26.6712   21.3990 H   0  0  0  0  0  0
  -18.0410  -26.0040   22.8925 H   0  0  0  0  0  0
  -19.8007  -30.7319   24.2155 H   0  0  0  0  0  0
  -17.5081  -31.6229   24.5218 H   0  0  0  0  0  0
  -15.5402  -30.2965   23.7678 H   0  0  0  0  0  0
  -15.8753  -28.0794   22.7065 H   0  0  0  0  0  0
  -24.5910  -30.7173   25.7644 H   0  0  0  0  0  0
  -24.8993  -32.2885   26.4929 H   0  0  0  0  0  0
  -25.7995  -30.8729   27.0166 H   0  0  0  0  0  0
  -26.3171  -29.6622   24.1444 H   0  0  0  0  0  0
  -27.4287  -29.7439   25.4933 H   0  0  0  0  0  0
  -27.8989  -30.4335   23.9627 H   0  0  0  0  0  0
  -27.2757  -33.3606   26.2204 H   0  0  0  0  0  0
  -28.3839  -32.7007   25.0301 H   0  0  0  0  0  0
  -28.0953  -31.8435   26.5341 H   0  0  0  0  0  0
  -28.2591  -38.0068   24.7487 H   0  0  0  0  0  0
  -28.1051  -36.2575   24.6334 H   0  0  0  0  0  0
  -27.2278  -37.1470   25.8886 H   0  0  0  0  0  0
  -20.9441  -29.8905   21.6828 H   0  0  0  0  0  0
  -26.0191  -38.2882   24.1358 H   0  0  0  0  0  0
  -30.3351  -20.7767   18.1498 H   0  0  0  0  0  0
  -28.7030  -20.1865   17.8402 H   0  0  0  0  0  0
  -30.0813  -19.1204   17.5910 H   0  0  0  0  0  0
  -30.6840  -21.2440   23.4375 H   0  0  0  0  0  0
  -29.4167  -22.4270   23.0875 H   0  0  0  0  0  0
  -29.5185  -21.7189   24.6814 H   0  0  0  0  0  0
  -29.9735  -16.1765   23.7111 H   0  0  0  0  0  0
  -28.6346  -15.7147   22.7112 H   0  0  0  0  0  0
  -29.9309  -14.5531   23.0979 H   0  0  0  0  0  0
  -31.8647  -16.9757   23.0144 H   0  0  0  0  0  0
  -32.5576  -16.8179   21.4367 H   0  0  0  0  0  0
  -32.3776  -15.3955   22.4620 H   0  0  0  0  0  0
  -27.6729  -21.9270   21.2930 H   0  0  0  0  0  0
  -27.6436  -21.6365   19.6238 H   0  0  0  0  0  0
  -28.6774  -19.6560   24.0237 H   0  0  0  0  0  0
  -27.6464  -20.7477   23.1592 H   0  0  0  0  0  0
  -29.4097  -23.3846   19.2448 H   0  0  0  0  0  0
  -29.7513  -23.5017   20.9271 H   0  0  0  0  0  0
  -27.4338  -24.5850   21.3033 H   0  0  0  0  0  0
  -27.1066  -24.4120   19.6402 H   0  0  0  0  0  0
  1 25  1  0  0  0
  1 30  2  0  0  0
  1 83  1  0  0  0
  2  3  1  0  0  0
  2 25  1  0  0  0
  2 86  1  0  0  0
  2 87  1  0  0  0
  3  4  1  0  0  0
  3 88  1  0  0  0
  3 89  1  0  0  0
  4  5  1  0  0  0
  4 90  1  0  0  0
  4 91  1  0  0  0
  5  6  1  0  0  0
  5 26  1  0  0  0
  5 92  1  0  0  0
  6 25  1  0  0  0
  6 93  1  0  0  0
  6 94  1  0  0  0
  7  8  2  0  0  0
  7 26  1  0  0  0
  7 29  1  0  0  0
  8  9  1  0  0  0
  8 22  1  0  0  0
  9 10  1  0  0  0
  9 27  2  0  0  0
 10 11  2  0  0  0
 10 15  1  0  0  0
 11 12  1  0  0  0
 11 95  1  0  0  0
 12 13  2  0  0  0
 12 96  1  0  0  0
 13 14  1  0  0  0
 13 31  1  0  0  0
 14 15  2  0  0  0
 14 97  1  0  0  0
 15 98  1  0  0  0
 16 17  2  0  0  0
 16 21  1  0  0  0
 16 31  1  0  0  0
 17 18  1  0  0  0
 17 99  1  0  0  0
 18 19  2  0  0  0
 18100  1  0  0  0
 19 20  1  0  0  0
 19 24  1  0  0  0
 20 21  2  0  0  0
 20101  1  0  0  0
 21 23  1  0  0  0
 22 28  1  0  0  0
 22 32  2  0  0  0
 26 27  1  0  0  0
 28102  1  0  0  0
 28103  1  0  0  0
 29104  1  0  0  0
 29105  1  0  0  0
 33 34  1  0  0  0
 33 66  1  0  0  0
 33 70  2  0  0  0
 34 36  1  0  0  0
 34 59  1  0  0  0
 34106  1  0  0  0
 35 44  2  0  0  0
 35 45  1  0  0  0
 35 68  1  0  0  0
 36 56  1  0  0  0
 36107  1  0  0  0
 37 39  1  0  0  0
 37 47  1  0  0  0
 37 66  1  0  0  0
 37108  1  0  0  0
 38 43  2  0  0  0
 38 46  1  0  0  0
 38 47  1  0  0  0
 39 64  1  0  0  0
 39 67  2  0  0  0
 40 52  1  0  0  0
 40 53  2  0  0  0
 40 58  1  0  0  0
 41109  1  0  0  0
 41110  1  0  0  0
 41111  1  0  0  0
 41 48  1  0  0  0
 42 43  1  0  0  0
 42 66  1  0  0  0
 42112  1  0  0  0
 42113  1  0  0  0
 43 44  1  0  0  0
 44114  1  0  0  0
 45 46  2  0  0  0
 45115  1  0  0  0
 46116  1  0  0  0
 47117  1  0  0  0
 47118  1  0  0  0
 48 56  1  0  0  0
 48 65  1  0  0  0
 48119  1  0  0  0
 49 50  1  0  0  0
 49 53  1  0  0  0
 49 64  1  0  0  0
 49120  1  0  0  0
 50 51  1  0  0  0
 50121  1  0  0  0
 50122  1  0  0  0
 51 52  1  0  0  0
 51123  1  0  0  0
 51124  1  0  0  0
 52125  1  0  0  0
 52126  1  0  0  0
 53 54  1  0  0  0
 54 55  2  0  0  0
 54127  1  0  0  0
 55 57  1  0  0  0
 55128  1  0  0  0
 56 69  2  0  0  0
 57 58  2  0  0  0
 57129  1  0  0  0
 58130  1  0  0  0
 59 60  1  0  0  0
 59 61  1  0  0  0
 59 62  1  0  0  0
 60131  1  0  0  0
 60132  1  0  0  0
 60133  1  0  0  0
 61134  1  0  0  0
 61135  1  0  0  0
 61136  1  0  0  0
 62137  1  0  0  0
 62138  1  0  0  0
 62139  1  0  0  0
 63 65  1  0  0  0
 63140  1  0  0  0
 63141  1  0  0  0
 63142  1  0  0  0
 64143  1  0  0  0
 65144  1  0  0  0
 68 82  1  0  0  0
 71 72  2  0  0  0
 71 73  1  0  0  0
 71 79  1  0  0  0
 72 75  1  0  0  0
 72 84  1  0  0  0
 73 80  1  0  0  0
 73 85  2  0  0  0
 74 83  1  0  0  0
 74 84  2  0  0  0
 74 85  1  0  0  0
 75145  1  0  0  0
 75146  1  0  0  0
 75147  1  0  0  0
 76 80  1  0  0  0
 76148  1  0  0  0
 76149  1  0  0  0
 76150  1  0  0  0
 77151  1  0  0  0
 77152  1  0  0  0
 77153  1  0  0  0
 77 83  1  0  0  0
 78 83  1  0  0  0
 78154  1  0  0  0
 78155  1  0  0  0
 78156  1  0  0  0
 79 81  1  0  0  0
 79157  1  0  0  0
 79158  1  0  0  0
 80159  1  0  0  0
 80160  1  0  0  0
 81 82  1  0  0  0
 81161  1  0  0  0
 81162  1  0  0  0
 82163  1  0  0  0
 82164  1  0  0  0
M  ISO  4   1 100  68 101  82 101  83 100
M  END
> <chiral flag>
0

> <version>
0

> <s_m_source_file>
/data/baiqing/PycharmProjects/Reinvent-master-3.2/result/LINK_invent/BTK/process_docking_weight1_custom_sum_contain_oxygen_bond_distance_aromatic_linkinvent_7_9_3/rearranged_h_0073.sdf

> <i_m_source_file_index>
56

> <r_mmod_Potential_Energy-OPLS-2005>
169.518417358398

> <r_mmod_Stretch_Energy-OPLS-2005>
230.148345947266

> <r_mmod_Bend_Energy-OPLS-2005>
308.967529296875

> <r_mmod_Torsional_Energy-OPLS-2005>
184.63801574707

> <r_mmod_Improper_Torsional_Energy-OPLS-2005>
6.60236549377441

> <r_mmod_Van_der_Waal_Energy-OPLS-2005>
160.407669067383

> <r_mmod_Electrostatic_Energy-OPLS-2005>
-641.54052734375

> <r_mmod_Solvation_Energy-OPLS-2005>
-207.540405273438

> <b_mmod_Minimization_Converged-OPLS-2005>
0

> <r_mmod_RMS_Derivative-OPLS-2005>
9.98805904388428

$$$$
56
                    3D
 Structure written by MMmdl.
155163  0  0  1  0            999 V2000
  -30.5894  -14.7580   20.5197 C   0  0  0  0  0  0
  -30.4413  -12.4921   19.4585 C   0  0  0  0  0  0
  -29.5080  -12.5437   18.2261 C   0  0  0  0  0  0
  -28.0339  -12.3536   18.6332 C   0  0  0  0  0  0
  -27.6371  -13.2349   19.8486 C   0  0  2  0  0  0
  -28.6817  -13.1412   20.9809 C   0  0  0  0  0  0
  -25.2449  -13.8224   20.5621 C   0  0  0  0  0  0
  -24.1765  -13.0473   20.9189 C   0  0  0  0  0  0
  -24.6373  -11.6946   20.8705 C   0  0  0  0  0  0
  -23.9071  -10.4315   21.0389 C   0  0  0  0  0  0
  -24.3611   -9.4219   21.9150 C   0  0  0  0  0  0
  -23.6279   -8.2258   22.0739 C   0  0  0  0  0  0
  -22.4252   -8.0298   21.3554 C   0  0  0  0  0  0
  -21.9900   -9.0263   20.4639 C   0  0  0  0  0  0
  -22.7237  -10.2137   20.3037 C   0  0  0  0  0  0
  -21.6854   -6.0726   22.5284 C   0  0  0  0  0  0
  -21.4016   -6.5625   23.8227 C   0  0  0  0  0  0
  -21.3660   -5.6763   24.9179 C   0  0  0  0  0  0
  -21.6063   -4.3038   24.7217 C   0  0  0  0  0  0
  -21.8821   -3.8131   23.4342 C   0  0  0  0  0  0
  -21.9188   -4.6954   22.3397 C   0  0  0  0  0  0
  -22.7785  -13.5246   21.1887 C   0  0  0  0  0  0
  -22.1663   -4.2138   21.0968 F   0  0  0  0  0  0
  -21.5633   -3.4528   25.7727 F   0  0  0  0  0  0
  -29.9846  -13.5228   20.4152 N   0  0  0  0  0  0
  -26.2878  -12.9434   20.3222 N   0  0  0  0  0  0
  -25.9293  -11.6583   20.5673 N   0  0  0  0  0  0
  -22.0419  -12.8217   22.0439 N   0  0  0  0  0  0
  -25.4162  -15.1922   20.4048 N   0  0  0  0  0  0
  -31.7720  -14.9012   20.2047 O   0  0  0  0  0  0
  -21.6652   -6.8867   21.4247 O   0  0  0  0  0  0
  -22.3454  -14.5554   20.6766 O   0  0  0  0  0  0
  -24.6325  -31.8579   23.2003 C   0  0  0  0  0  0
  -25.9165  -32.4758   23.8341 C   0  0  1  0  0  0
  -27.2004  -27.2483   20.1387 C   0  0  0  0  0  0
  -25.5960  -33.8559   24.2261 N   0  0  0  0  0  0
  -23.4300  -30.4849   21.5410 C   0  0  2  0  0  0
  -24.8743  -28.9369   20.1091 C   0  0  0  0  0  0
  -22.7516  -29.4622   22.4867 C   0  0  0  0  0  0
  -18.0318  -28.1408   22.8505 C   0  0  0  0  0  0
  -24.1497  -36.7274   23.2639 C   0  0  0  0  0  0
  -25.9791  -30.7683   21.3847 C   0  0  0  0  0  0
  -26.0482  -29.3921   20.7226 C   0  0  0  0  0  0
  -27.2154  -28.5616   20.7245 C   0  0  0  0  0  0
  -26.0059  -26.8705   19.4862 C   0  0  0  0  0  0
  -24.8592  -27.6862   19.4763 C   0  0  0  0  0  0
  -23.6522  -29.8296   20.1535 C   0  0  0  0  0  0
  -25.4125  -36.3061   24.0322 C   0  0  1  0  0  0
  -20.5921  -28.3737   23.1267 C   0  0  2  0  0  0
  -20.6803  -26.9454   22.5416 C   0  0  0  0  0  0
  -19.5766  -26.6399   21.5233 C   0  0  0  0  0  0
  -18.1943  -26.7961   22.1642 C   0  0  0  0  0  0
  -19.1576  -28.8882   23.2877 C   0  0  0  0  0  0
  -18.9487  -30.1475   23.8916 C   0  0  0  0  0  0
  -17.6475  -30.6604   24.0578 C   0  0  0  0  0  0
  -25.9068  -34.9438   23.5076 C   0  0  0  0  0  0
  -16.5361  -29.9113   23.6326 C   0  0  0  0  0  0
  -16.7294  -28.6519   23.0359 C   0  0  0  0  0  0
  -26.4518  -31.6576   25.0727 C   0  0  0  0  0  0
  -25.3726  -31.3753   26.1435 C   0  0  0  0  0  0
  -27.0386  -30.2994   24.6240 C   0  0  0  0  0  0
  -27.6061  -32.4324   25.7511 C   0  0  0  0  0  0
  -27.5578  -37.1801   24.8466 C   0  0  0  0  0  0
  -21.4219  -29.3064   22.3633 N   0  0  0  0  0  0
  -26.4287  -37.3764   23.9404 N   0  0  0  0  0  0
  -24.6998  -31.0550   22.0976 N   0  0  0  0  0  0
  -23.4213  -28.8166   23.2969 O   0  0  0  0  0  0
  -28.2817  -26.3381   20.1986 O   0  0  0  0  0  0
  -26.5620  -34.8910   22.4642 O   0  0  0  0  0  0
  -23.5469  -32.1402   23.7289 O   0  0  0  0  0  0
  -29.5540  -21.1909   19.7723 C   0  0  0  0  0  0
  -29.3369  -20.0056   20.4820 C   0  0  0  0  0  0
  -30.5578  -18.4087   18.9247 C   0  0  0  0  0  0
  -28.1509  -18.0320   19.4757 C   0  0  0  0  0  0
  -29.2323  -23.8042   20.3389 C   0  0  0  0  0  0
  -30.0107  -17.3329   21.1042 C   0  0  0  0  0  0
  -28.0057  -24.8520   20.2642 C   0  0  0  0  0  0
  -29.5086  -18.4686   20.0514 C   0  0  0  0  0  0
  -28.6600  -20.4420   21.6339 N   0  0  0  0  0  0
  -28.5404  -21.7579   21.6661 N   0  0  0  0  0  0
  -29.0600  -22.2876   20.5241 N   0  0  0  0  0  0
  -29.7732  -15.8390   20.8158 N   0  0  0  0  0  0
  -31.4740  -12.6608   19.1488 H   0  0  0  0  0  0
  -30.4222  -11.5061   19.9262 H   0  0  0  0  0  0
  -29.8068  -11.7866   17.4988 H   0  0  0  0  0  0
  -29.6188  -13.5060   17.7218 H   0  0  0  0  0  0
  -27.8877  -11.2979   18.8687 H   0  0  0  0  0  0
  -27.3834  -12.5739   17.7851 H   0  0  0  0  0  0
  -27.6369  -14.2629   19.4887 H   0  0  0  0  0  0
  -28.7185  -12.1318   21.3932 H   0  0  0  0  0  0
  -28.3960  -13.7918   21.8084 H   0  0  0  0  0  0
  -25.2767   -9.5706   22.4712 H   0  0  0  0  0  0
  -24.0012   -7.4652   22.7439 H   0  0  0  0  0  0
  -21.0849   -8.8779   19.8917 H   0  0  0  0  0  0
  -22.3705  -10.9671   19.6124 H   0  0  0  0  0  0
  -21.2017   -7.6134   23.9723 H   0  0  0  0  0  0
  -21.1485   -6.0495   25.9075 H   0  0  0  0  0  0
  -22.0597   -2.7602   23.2844 H   0  0  0  0  0  0
  -22.4048  -11.9884   22.4846 H   0  0  0  0  0  0
  -21.1025  -13.1237   22.2646 H   0  0  0  0  0  0
  -24.6528  -15.8495   20.5149 H   0  0  0  0  0  0
  -26.2607  -15.6287   20.0606 H   0  0  0  0  0  0
  -26.7237  -32.5415   23.1082 H   0  0  0  0  0  0
  -25.0137  -33.9707   25.0427 H   0  0  0  0  0  0
  -22.7269  -31.3075   21.3973 H   0  0  0  0  0  0
  -23.3753  -35.9609   23.3300 H   0  0  0  0  0  0
  -24.3580  -36.8898   22.2052 H   0  0  0  0  0  0
  -23.7251  -37.6474   23.6667 H   0  0  0  0  0  0
  -26.1253  -31.5332   20.6228 H   0  0  0  0  0  0
  -26.8514  -30.8095   22.0225 H   0  0  0  0  0  0
  -28.1100  -28.9020   21.2273 H   0  0  0  0  0  0
  -25.9213  -25.9225   18.9818 H   0  0  0  0  0  0
  -23.9629  -27.3377   18.9819 H   0  0  0  0  0  0
  -23.7912  -30.6127   19.4061 H   0  0  0  0  0  0
  -22.7686  -29.2727   19.8347 H   0  0  0  0  0  0
  -25.1309  -36.1898   25.0807 H   0  0  0  0  0  0
  -21.0025  -28.3320   24.1376 H   0  0  0  0  0  0
  -20.5748  -26.2334   23.3624 H   0  0  0  0  0  0
  -21.6669  -26.7496   22.1175 H   0  0  0  0  0  0
  -19.6928  -25.6303   21.1277 H   0  0  0  0  0  0
  -19.6702  -27.3204   20.6760 H   0  0  0  0  0  0
  -17.4222  -26.6726   21.4028 H   0  0  0  0  0  0
  -18.0324  -26.0097   22.9034 H   0  0  0  0  0  0
  -19.7944  -30.7295   24.2291 H   0  0  0  0  0  0
  -17.5025  -31.6297   24.5181 H   0  0  0  0  0  0
  -15.5367  -30.3020   23.7643 H   0  0  0  0  0  0
  -15.8688  -28.0842   22.7072 H   0  0  0  0  0  0
  -24.5900  -30.7101   25.7753 H   0  0  0  0  0  0
  -24.8925  -32.2946   26.4804 H   0  0  0  0  0  0
  -25.8029  -30.8958   27.0236 H   0  0  0  0  0  0
  -26.2997  -29.6713   24.1249 H   0  0  0  0  0  0
  -27.4050  -29.7273   25.4770 H   0  0  0  0  0  0
  -27.8875  -30.4252   23.9515 H   0  0  0  0  0  0
  -27.2660  -33.3635   26.2054 H   0  0  0  0  0  0
  -28.3903  -32.6865   25.0366 H   0  0  0  0  0  0
  -28.0694  -31.8468   26.5460 H   0  0  0  0  0  0
  -28.2592  -38.0100   24.7497 H   0  0  0  0  0  0
  -28.1076  -36.2628   24.6315 H   0  0  0  0  0  0
  -27.2292  -37.1476   25.8866 H   0  0  0  0  0  0
  -20.9405  -29.8781   21.6840 H   0  0  0  0  0  0
  -26.0162  -38.2830   24.1397 H   0  0  0  0  0  0
  -30.0059  -21.3484   18.8014 H   0  0  0  0  0  0
  -30.2767  -19.0204   18.0700 H   0  0  0  0  0  0
  -30.7056  -17.3898   18.5651 H   0  0  0  0  0  0
  -31.5225  -18.7679   19.2838 H   0  0  0  0  0  0
  -27.8371  -18.7047   18.6789 H   0  0  0  0  0  0
  -27.3748  -18.0598   20.2402 H   0  0  0  0  0  0
  -28.1763  -17.0276   19.0547 H   0  0  0  0  0  0
  -29.8760  -24.1338   21.1553 H   0  0  0  0  0  0
  -29.8231  -23.9461   19.4344 H   0  0  0  0  0  0
  -31.0655  -17.4815   21.3463 H   0  0  0  0  0  0
  -29.4802  -17.5255   22.0414 H   0  0  0  0  0  0
  -27.3492  -24.6809   21.1194 H   0  0  0  0  0  0
  -27.4288  -24.5546   19.3899 H   0  0  0  0  0  0
  -28.8120  -15.5665   20.9621 H   0  0  0  0  0  0
  1 25  1  0  0  0
  1 30  2  0  0  0
  1 82  1  0  0  0
  2  3  1  0  0  0
  2 25  1  0  0  0
  2 83  1  0  0  0
  2 84  1  0  0  0
  3  4  1  0  0  0
  3 85  1  0  0  0
  3 86  1  0  0  0
  4  5  1  0  0  0
  4 87  1  0  0  0
  4 88  1  0  0  0
  5  6  1  0  0  0
  5 26  1  0  0  0
  5 89  1  0  0  0
  6 25  1  0  0  0
  6 90  1  0  0  0
  6 91  1  0  0  0
  7  8  2  0  0  0
  7 26  1  0  0  0
  7 29  1  0  0  0
  8  9  1  0  0  0
  8 22  1  0  0  0
  9 10  1  0  0  0
  9 27  2  0  0  0
 10 11  2  0  0  0
 10 15  1  0  0  0
 11 12  1  0  0  0
 11 92  1  0  0  0
 12 13  2  0  0  0
 12 93  1  0  0  0
 13 14  1  0  0  0
 13 31  1  0  0  0
 14 15  2  0  0  0
 14 94  1  0  0  0
 15 95  1  0  0  0
 16 17  2  0  0  0
 16 21  1  0  0  0
 16 31  1  0  0  0
 17 18  1  0  0  0
 17 96  1  0  0  0
 18 19  2  0  0  0
 18 97  1  0  0  0
 19 20  1  0  0  0
 19 24  1  0  0  0
 20 21  2  0  0  0
 20 98  1  0  0  0
 21 23  1  0  0  0
 22 28  1  0  0  0
 22 32  2  0  0  0
 26 27  1  0  0  0
 28 99  1  0  0  0
 28100  1  0  0  0
 29101  1  0  0  0
 29102  1  0  0  0
 33 34  1  0  0  0
 33 66  1  0  0  0
 33 70  2  0  0  0
 34 36  1  0  0  0
 34 59  1  0  0  0
 34103  1  0  0  0
 35 44  2  0  0  0
 35 45  1  0  0  0
 35 68  1  0  0  0
 36 56  1  0  0  0
 36104  1  0  0  0
 37 39  1  0  0  0
 37 47  1  0  0  0
 37 66  1  0  0  0
 37105  1  0  0  0
 38 43  2  0  0  0
 38 46  1  0  0  0
 38 47  1  0  0  0
 39 64  1  0  0  0
 39 67  2  0  0  0
 40 52  1  0  0  0
 40 53  2  0  0  0
 40 58  1  0  0  0
 41106  1  0  0  0
 41107  1  0  0  0
 41108  1  0  0  0
 41 48  1  0  0  0
 42 43  1  0  0  0
 42 66  1  0  0  0
 42109  1  0  0  0
 42110  1  0  0  0
 43 44  1  0  0  0
 44111  1  0  0  0
 45 46  2  0  0  0
 45112  1  0  0  0
 46113  1  0  0  0
 47114  1  0  0  0
 47115  1  0  0  0
 48 56  1  0  0  0
 48 65  1  0  0  0
 48116  1  0  0  0
 49 50  1  0  0  0
 49 53  1  0  0  0
 49 64  1  0  0  0
 49117  1  0  0  0
 50 51  1  0  0  0
 50118  1  0  0  0
 50119  1  0  0  0
 51 52  1  0  0  0
 51120  1  0  0  0
 51121  1  0  0  0
 52122  1  0  0  0
 52123  1  0  0  0
 53 54  1  0  0  0
 54 55  2  0  0  0
 54124  1  0  0  0
 55 57  1  0  0  0
 55125  1  0  0  0
 56 69  2  0  0  0
 57 58  2  0  0  0
 57126  1  0  0  0
 58127  1  0  0  0
 59 60  1  0  0  0
 59 61  1  0  0  0
 59 62  1  0  0  0
 60128  1  0  0  0
 60129  1  0  0  0
 60130  1  0  0  0
 61131  1  0  0  0
 61132  1  0  0  0
 61133  1  0  0  0
 62134  1  0  0  0
 62135  1  0  0  0
 62136  1  0  0  0
 63 65  1  0  0  0
 63137  1  0  0  0
 63138  1  0  0  0
 63139  1  0  0  0
 64140  1  0  0  0
 65141  1  0  0  0
 68 77  1  0  0  0
 71 72  2  0  0  0
 71 81  1  0  0  0
 71142  1  0  0  0
 72 78  1  0  0  0
 72 79  1  0  0  0
 73143  1  0  0  0
 73144  1  0  0  0
 73145  1  0  0  0
 73 78  1  0  0  0
 74 78  1  0  0  0
 74146  1  0  0  0
 74147  1  0  0  0
 74148  1  0  0  0
 75 77  1  0  0  0
 75 81  1  0  0  0
 75149  1  0  0  0
 75150  1  0  0  0
 76 78  1  0  0  0
 76 82  1  0  0  0
 76151  1  0  0  0
 76152  1  0  0  0
 77153  1  0  0  0
 77154  1  0  0  0
 79 80  2  0  0  0
 80 81  1  0  0  0
 82155  1  0  0  0
M  ISO  4   1 100  68 101  77 101  82 100
M  END
> <chiral flag>
0

> <version>
0

> <s_m_source_file>
/data/baiqing/PycharmProjects/Reinvent-master-3.2/result/LINK_invent/BTK/process_docking_weight1_custom_sum_contain_oxygen_bond_distance_aromatic_linkinvent_7_9_3/rearranged_h_0073.sdf

> <i_m_source_file_index>
57

> <r_mmod_Potential_Energy-OPLS-2005>
76.7735290527344

> <r_mmod_Stretch_Energy-OPLS-2005>
127.685249328613

> <r_mmod_Bend_Energy-OPLS-2005>
182.841033935547

> <r_mmod_Torsional_Energy-OPLS-2005>
220.719085693359

> <r_mmod_Improper_Torsional_Energy-OPLS-2005>
5.76595735549927

> <r_mmod_Van_der_Waal_Energy-OPLS-2005>
113.549507141113

> <r_mmod_Electrostatic_Energy-OPLS-2005>
-445.663482666016

> <r_mmod_Solvation_Energy-OPLS-2005>
-222.688339233398

> <b_mmod_Minimization_Converged-OPLS-2005>
0

> <r_mmod_RMS_Derivative-OPLS-2005>
4.86428928375244

$$$$
57
                    3D
 Structure written by MMmdl.
172180  0  0  1  0            999 V2000
  -30.7190  -14.6128   20.5133 C   0  0  0  0  0  0
  -30.4020  -12.3828   19.4604 C   0  0  0  0  0  0
  -29.4927  -12.5010   18.2225 C   0  0  0  0  0  0
  -28.0171  -12.3522   18.6335 C   0  0  0  0  0  0
  -27.6421  -13.2352   19.8558 C   0  0  2  0  0  0
  -28.6876  -13.1385   20.9901 C   0  0  0  0  0  0
  -25.2493  -13.8225   20.5706 C   0  0  0  0  0  0
  -24.1796  -13.0458   20.9212 C   0  0  0  0  0  0
  -24.6394  -11.6929   20.8749 C   0  0  0  0  0  0
  -23.9084  -10.4292   21.0406 C   0  0  0  0  0  0
  -24.3645   -9.4204   21.9179 C   0  0  0  0  0  0
  -23.6309   -8.2246   22.0759 C   0  0  0  0  0  0
  -22.4284   -8.0284   21.3552 C   0  0  0  0  0  0
  -21.9928   -9.0258   20.4647 C   0  0  0  0  0  0
  -22.7261  -10.2129   20.3053 C   0  0  0  0  0  0
  -21.6861   -6.0751   22.5282 C   0  0  0  0  0  0
  -21.4018   -6.5655   23.8215 C   0  0  0  0  0  0
  -21.3656   -5.6805   24.9183 C   0  0  0  0  0  0
  -21.6028   -4.3067   24.7228 C   0  0  0  0  0  0
  -21.8819   -3.8160   23.4352 C   0  0  0  0  0  0
  -21.9192   -4.6981   22.3405 C   0  0  0  0  0  0
  -22.7811  -13.5212   21.1855 C   0  0  0  0  0  0
  -22.1654   -4.2163   21.0983 F   0  0  0  0  0  0
  -21.5631   -3.4545   25.7742 F   0  0  0  0  0  0
  -30.0003  -13.4469   20.4096 N   0  0  0  0  0  0
  -26.2936  -12.9437   20.3331 N   0  0  0  0  0  0
  -25.9327  -11.6567   20.5787 N   0  0  0  0  0  0
  -22.0467  -12.8201   22.0414 N   0  0  0  0  0  0
  -25.4188  -15.1949   20.4105 N   0  0  0  0  0  0
  -31.8759  -14.6168   20.1143 O   0  0  0  0  0  0
  -21.6642   -6.8889   21.4245 O   0  0  0  0  0  0
  -22.3486  -14.5511   20.6687 O   0  0  0  0  0  0
  -24.6270  -31.8639   23.2090 C   0  0  0  0  0  0
  -25.9114  -32.4811   23.8421 C   0  0  1  0  0  0
  -27.2030  -27.3206   20.1106 C   0  0  0  0  0  0
  -25.5925  -33.8613   24.2340 N   0  0  0  0  0  0
  -23.4195  -30.4944   21.5521 C   0  0  2  0  0  0
  -24.8630  -28.9647   20.1086 C   0  0  0  0  0  0
  -22.7480  -29.4660   22.4939 C   0  0  0  0  0  0
  -18.0281  -28.1403   22.8484 C   0  0  0  0  0  0
  -24.1481  -36.7294   23.2644 C   0  0  0  0  0  0
  -25.9649  -30.7960   21.3850 C   0  0  0  0  0  0
  -26.0350  -29.4269   20.7213 C   0  0  0  0  0  0
  -27.2096  -28.6140   20.7203 C   0  0  0  0  0  0
  -26.0125  -26.9373   19.4454 C   0  0  0  0  0  0
  -24.8541  -27.7254   19.4611 C   0  0  0  0  0  0
  -23.6335  -29.8446   20.1631 C   0  0  0  0  0  0
  -25.4107  -36.3120   24.0350 C   0  0  1  0  0  0
  -20.5891  -28.3711   23.1269 C   0  0  2  0  0  0
  -20.6780  -26.9430   22.5412 C   0  0  0  0  0  0
  -19.5749  -26.6395   21.5224 C   0  0  0  0  0  0
  -18.1923  -26.7948   22.1626 C   0  0  0  0  0  0
  -19.1537  -28.8866   23.2880 C   0  0  0  0  0  0
  -18.9463  -30.1467   23.8905 C   0  0  0  0  0  0
  -17.6462  -30.6603   24.0565 C   0  0  0  0  0  0
  -25.9041  -34.9478   23.5148 C   0  0  0  0  0  0
  -16.5351  -29.9103   23.6334 C   0  0  0  0  0  0
  -16.7268  -28.6524   23.0351 C   0  0  0  0  0  0
  -26.4494  -31.6598   25.0775 C   0  0  0  0  0  0
  -25.3713  -31.3698   26.1481 C   0  0  0  0  0  0
  -27.0349  -30.3033   24.6231 C   0  0  0  0  0  0
  -27.6087  -32.4306   25.7520 C   0  0  0  0  0  0
  -27.5586  -37.1803   24.8465 C   0  0  0  0  0  0
  -21.4190  -29.3071   22.3666 N   0  0  0  0  0  0
  -26.4293  -37.3806   23.9421 N   0  0  0  0  0  0
  -24.6893  -31.0665   22.1051 N   0  0  0  0  0  0
  -23.4195  -28.8168   23.2999 O   0  0  0  0  0  0
  -28.2817  -26.4193   20.1884 O   0  0  0  0  0  0
  -26.5610  -34.8932   22.4710 O   0  0  0  0  0  0
  -23.5429  -32.1426   23.7420 O   0  0  0  0  0  0
  -28.9258  -20.4482   21.7722 C   0  0  0  0  0  0
  -28.7420  -20.9652   20.4734 C   0  0  0  0  0  0
  -29.0266  -20.0165   19.4537 C   0  0  0  0  0  0
  -29.6908  -18.3984   20.9809 C   0  0  0  0  0  0
  -27.0537  -20.0710   16.0844 C   0  0  0  0  0  0
  -33.0450  -16.7326   22.0783 C   0  0  0  0  0  0
  -32.4702  -19.0034   21.3714 C   0  0  0  0  0  0
  -32.6543  -17.2871   19.6092 C   0  0  0  0  0  0
  -28.0654  -22.3644   20.2273 C   0  0  0  0  0  0
  -28.7618  -20.2874   17.9818 C   0  0  0  0  0  0
  -27.3485  -19.8357   17.5705 C   0  0  0  0  0  0
  -28.8256  -23.7524   20.4235 C   0  0  0  0  0  0
  -27.9379  -24.9902   19.9753 C   0  0  0  0  0  0
  -30.6170  -17.1548   21.2669 C   0  0  2  0  0  0
  -32.1634  -17.5107   21.0669 C   0  0  0  0  0  0
  -29.3840  -19.1932   22.0114 N   0  0  0  0  0  0
  -29.4866  -18.7633   19.7160 N   0  0  0  0  0  0
  -30.0987  -15.7648   20.9211 N   0  0  0  0  0  0
  -31.4473  -12.4478   19.1570 H   0  0  0  0  0  0
  -30.2992  -11.4022   19.9263 H   0  0  0  0  0  0
  -29.7534  -11.7399   17.4857 H   0  0  0  0  0  0
  -29.6506  -13.4655   17.7373 H   0  0  0  0  0  0
  -27.8458  -11.3006   18.8679 H   0  0  0  0  0  0
  -27.3661  -12.5816   17.7890 H   0  0  0  0  0  0
  -27.6460  -14.2649   19.4989 H   0  0  0  0  0  0
  -28.6898  -12.1348   21.4209 H   0  0  0  0  0  0
  -28.4413  -13.8195   21.8062 H   0  0  0  0  0  0
  -25.2787   -9.5686   22.4762 H   0  0  0  0  0  0
  -24.0017   -7.4642   22.7483 H   0  0  0  0  0  0
  -21.0859   -8.8772   19.8947 H   0  0  0  0  0  0
  -22.3718  -10.9677   19.6165 H   0  0  0  0  0  0
  -21.2012   -7.6159   23.9731 H   0  0  0  0  0  0
  -21.1476   -6.0532   25.9082 H   0  0  0  0  0  0
  -22.0600   -2.7622   23.2851 H   0  0  0  0  0  0
  -22.4082  -11.9866   22.4806 H   0  0  0  0  0  0
  -21.1085  -13.1226   22.2615 H   0  0  0  0  0  0
  -24.6528  -15.8512   20.5157 H   0  0  0  0  0  0
  -26.2669  -15.6277   20.0664 H   0  0  0  0  0  0
  -26.7189  -32.5492   23.1181 H   0  0  0  0  0  0
  -25.0054  -33.9751   25.0475 H   0  0  0  0  0  0
  -22.7157  -31.3178   21.4160 H   0  0  0  0  0  0
  -23.3774  -35.9593   23.3299 H   0  0  0  0  0  0
  -24.3579  -36.8912   22.2059 H   0  0  0  0  0  0
  -23.7185  -37.6480   23.6653 H   0  0  0  0  0  0
  -26.1041  -31.5649   20.6232 H   0  0  0  0  0  0
  -26.8429  -30.8374   22.0178 H   0  0  0  0  0  0
  -28.1020  -28.9564   21.2262 H   0  0  0  0  0  0
  -25.9287  -26.0048   18.9107 H   0  0  0  0  0  0
  -23.9609  -27.3738   18.9644 H   0  0  0  0  0  0
  -23.7561  -30.6296   19.4161 H   0  0  0  0  0  0
  -22.7512  -29.2812   19.8547 H   0  0  0  0  0  0
  -25.1282  -36.2002   25.0845 H   0  0  0  0  0  0
  -20.9988  -28.3301   24.1385 H   0  0  0  0  0  0
  -20.5692  -26.2326   23.3617 H   0  0  0  0  0  0
  -21.6641  -26.7456   22.1192 H   0  0  0  0  0  0
  -19.6903  -25.6299   21.1263 H   0  0  0  0  0  0
  -19.6692  -27.3201   20.6747 H   0  0  0  0  0  0
  -17.4193  -26.6701   21.4029 H   0  0  0  0  0  0
  -18.0306  -26.0097   22.9024 H   0  0  0  0  0  0
  -19.7934  -30.7290   24.2285 H   0  0  0  0  0  0
  -17.5011  -31.6289   24.5160 H   0  0  0  0  0  0
  -15.5353  -30.3013   23.7656 H   0  0  0  0  0  0
  -15.8664  -28.0854   22.7062 H   0  0  0  0  0  0
  -24.5931  -30.7012   25.7772 H   0  0  0  0  0  0
  -24.8842  -32.2833   26.4907 H   0  0  0  0  0  0
  -25.8019  -30.8870   27.0263 H   0  0  0  0  0  0
  -26.2938  -29.6774   24.1252 H   0  0  0  0  0  0
  -27.4044  -29.7304   25.4747 H   0  0  0  0  0  0
  -27.8809  -30.4338   23.9477 H   0  0  0  0  0  0
  -27.2766  -33.3632   26.2099 H   0  0  0  0  0  0
  -28.3890  -32.6811   25.0314 H   0  0  0  0  0  0
  -28.0770  -31.8414   26.5420 H   0  0  0  0  0  0
  -28.2601  -38.0108   24.7560 H   0  0  0  0  0  0
  -28.1092  -36.2647   24.6249 H   0  0  0  0  0  0
  -27.2304  -37.1396   25.8866 H   0  0  0  0  0  0
  -20.9358  -29.8823   21.6905 H   0  0  0  0  0  0
  -26.0196  -38.2886   24.1442 H   0  0  0  0  0  0
  -28.6751  -21.0412   22.6402 H   0  0  0  0  0  0
  -26.0720  -19.6776   15.8167 H   0  0  0  0  0  0
  -27.7925  -19.5758   15.4528 H   0  0  0  0  0  0
  -27.0621  -21.1343   15.8475 H   0  0  0  0  0  0
  -34.0994  -16.9942   21.9688 H   0  0  0  0  0  0
  -32.9808  -15.6532   21.9852 H   0  0  0  0  0  0
  -32.7647  -16.9682   23.1054 H   0  0  0  0  0  0
  -33.5395  -19.2120   21.3223 H   0  0  0  0  0  0
  -32.1401  -19.2966   22.3693 H   0  0  0  0  0  0
  -31.9991  -19.6777   20.6543 H   0  0  0  0  0  0
  -33.3676  -16.4660   19.5357 H   0  0  0  0  0  0
  -33.1704  -18.1542   19.1933 H   0  0  0  0  0  0
  -31.8232  -17.0718   18.9356 H   0  0  0  0  0  0
  -27.1871  -22.3839   20.8749 H   0  0  0  0  0  0
  -27.6354  -22.3627   19.2276 H   0  0  0  0  0  0
  -29.4996  -19.7437   17.3911 H   0  0  0  0  0  0
  -28.9272  -21.3393   17.7496 H   0  0  0  0  0  0
  -27.2326  -18.7753   17.7962 H   0  0  0  0  0  0
  -26.6055  -20.3568   18.1734 H   0  0  0  0  0  0
  -29.7505  -23.7540   19.8458 H   0  0  0  0  0  0
  -29.1104  -23.8643   21.4697 H   0  0  0  0  0  0
  -26.9770  -24.8080   20.4607 H   0  0  0  0  0  0
  -27.7819  -24.8661   18.9033 H   0  0  0  0  0  0
  -30.5306  -17.0883   22.3520 H   0  0  0  0  0  0
  -29.1135  -15.6655   21.1048 H   0  0  0  0  0  0
  1 25  1  0  0  0
  1 30  2  0  0  0
  1 88  1  0  0  0
  2  3  1  0  0  0
  2 25  1  0  0  0
  2 89  1  0  0  0
  2 90  1  0  0  0
  3  4  1  0  0  0
  3 91  1  0  0  0
  3 92  1  0  0  0
  4  5  1  0  0  0
  4 93  1  0  0  0
  4 94  1  0  0  0
  5  6  1  0  0  0
  5 26  1  0  0  0
  5 95  1  0  0  0
  6 25  1  0  0  0
  6 96  1  0  0  0
  6 97  1  0  0  0
  7  8  2  0  0  0
  7 26  1  0  0  0
  7 29  1  0  0  0
  8  9  1  0  0  0
  8 22  1  0  0  0
  9 10  1  0  0  0
  9 27  2  0  0  0
 10 11  2  0  0  0
 10 15  1  0  0  0
 11 12  1  0  0  0
 11 98  1  0  0  0
 12 13  2  0  0  0
 12 99  1  0  0  0
 13 14  1  0  0  0
 13 31  1  0  0  0
 14 15  2  0  0  0
 14100  1  0  0  0
 15101  1  0  0  0
 16 17  2  0  0  0
 16 21  1  0  0  0
 16 31  1  0  0  0
 17 18  1  0  0  0
 17102  1  0  0  0
 18 19  2  0  0  0
 18103  1  0  0  0
 19 20  1  0  0  0
 19 24  1  0  0  0
 20 21  2  0  0  0
 20104  1  0  0  0
 21 23  1  0  0  0
 22 28  1  0  0  0
 22 32  2  0  0  0
 26 27  1  0  0  0
 28105  1  0  0  0
 28106  1  0  0  0
 29107  1  0  0  0
 29108  1  0  0  0
 33 34  1  0  0  0
 33 66  1  0  0  0
 33 70  2  0  0  0
 34 36  1  0  0  0
 34 59  1  0  0  0
 34109  1  0  0  0
 35 44  2  0  0  0
 35 45  1  0  0  0
 35 68  1  0  0  0
 36 56  1  0  0  0
 36110  1  0  0  0
 37 39  1  0  0  0
 37 47  1  0  0  0
 37 66  1  0  0  0
 37111  1  0  0  0
 38 43  2  0  0  0
 38 46  1  0  0  0
 38 47  1  0  0  0
 39 64  1  0  0  0
 39 67  2  0  0  0
 40 52  1  0  0  0
 40 53  2  0  0  0
 40 58  1  0  0  0
 41112  1  0  0  0
 41113  1  0  0  0
 41114  1  0  0  0
 41 48  1  0  0  0
 42 43  1  0  0  0
 42 66  1  0  0  0
 42115  1  0  0  0
 42116  1  0  0  0
 43 44  1  0  0  0
 44117  1  0  0  0
 45 46  2  0  0  0
 45118  1  0  0  0
 46119  1  0  0  0
 47120  1  0  0  0
 47121  1  0  0  0
 48 56  1  0  0  0
 48 65  1  0  0  0
 48122  1  0  0  0
 49 50  1  0  0  0
 49 53  1  0  0  0
 49 64  1  0  0  0
 49123  1  0  0  0
 50 51  1  0  0  0
 50124  1  0  0  0
 50125  1  0  0  0
 51 52  1  0  0  0
 51126  1  0  0  0
 51127  1  0  0  0
 52128  1  0  0  0
 52129  1  0  0  0
 53 54  1  0  0  0
 54 55  2  0  0  0
 54130  1  0  0  0
 55 57  1  0  0  0
 55131  1  0  0  0
 56 69  2  0  0  0
 57 58  2  0  0  0
 57132  1  0  0  0
 58133  1  0  0  0
 59 60  1  0  0  0
 59 61  1  0  0  0
 59 62  1  0  0  0
 60134  1  0  0  0
 60135  1  0  0  0
 60136  1  0  0  0
 61137  1  0  0  0
 61138  1  0  0  0
 61139  1  0  0  0
 62140  1  0  0  0
 62141  1  0  0  0
 62142  1  0  0  0
 63 65  1  0  0  0
 63143  1  0  0  0
 63144  1  0  0  0
 63145  1  0  0  0
 64146  1  0  0  0
 65147  1  0  0  0
 68 83  1  0  0  0
 71 72  2  0  0  0
 71 86  1  0  0  0
 71148  1  0  0  0
 72 73  1  0  0  0
 72 79  1  0  0  0
 73 80  1  0  0  0
 73 87  2  0  0  0
 74 84  1  0  0  0
 74 86  2  0  0  0
 74 87  1  0  0  0
 75 81  1  0  0  0
 75149  1  0  0  0
 75150  1  0  0  0
 75151  1  0  0  0
 76152  1  0  0  0
 76153  1  0  0  0
 76154  1  0  0  0
 76 85  1  0  0  0
 77 85  1  0  0  0
 77155  1  0  0  0
 77156  1  0  0  0
 77157  1  0  0  0
 78 85  1  0  0  0
 78158  1  0  0  0
 78159  1  0  0  0
 78160  1  0  0  0
 79 82  1  0  0  0
 79161  1  0  0  0
 79162  1  0  0  0
 80 81  1  0  0  0
 80163  1  0  0  0
 80164  1  0  0  0
 81165  1  0  0  0
 81166  1  0  0  0
 82 83  1  0  0  0
 82167  1  0  0  0
 82168  1  0  0  0
 83169  1  0  0  0
 83170  1  0  0  0
 84 85  1  0  0  0
 84 88  1  0  0  0
 84171  1  0  0  0
 88172  1  0  0  0
M  ISO  4   1 100  68 101  83 101  88 100
M  END
> <chiral flag>
0

> <version>
0

> <s_m_source_file>
/data/baiqing/PycharmProjects/Reinvent-master-3.2/result/LINK_invent/BTK/process_docking_weight1_custom_sum_contain_oxygen_bond_distance_aromatic_linkinvent_7_9_3/rearranged_h_0073.sdf

> <i_m_source_file_index>
58

> <r_mmod_Potential_Energy-OPLS-2005>
-299.779754638672

> <r_mmod_Stretch_Energy-OPLS-2005>
87.5010070800781

> <r_mmod_Bend_Energy-OPLS-2005>
188.751525878906

> <r_mmod_Torsional_Energy-OPLS-2005>
204.114135742188

> <r_mmod_Improper_Torsional_Energy-OPLS-2005>
6.41471910476685

> <r_mmod_Van_der_Waal_Energy-OPLS-2005>
175.032669067383

> <r_mmod_Electrostatic_Energy-OPLS-2005>
-806.148376464844

> <r_mmod_Solvation_Energy-OPLS-2005>
-208.952590942383

> <b_mmod_Minimization_Converged-OPLS-2005>
0

> <r_mmod_RMS_Derivative-OPLS-2005>
2.33363819122314

$$$$
58
                    3D
 Structure written by MMmdl.
171179  0  0  1  0            999 V2000
  -30.7652  -14.7348   20.5701 C   0  0  0  0  0  0
  -30.4047  -12.4735   19.5493 C   0  0  0  0  0  0
  -29.5508  -12.4886   18.2482 C   0  0  0  0  0  0
  -28.0482  -12.7601   18.5142 C   0  0  0  0  0  0
  -27.7138  -12.7932   20.0151 C   0  0  2  0  0  0
  -28.6947  -13.3764   21.0527 C   0  0  0  0  0  0
  -25.2981  -13.7603   20.5627 C   0  0  0  0  0  0
  -24.1771  -13.0440   20.9090 C   0  0  0  0  0  0
  -24.5687  -11.6750   20.8783 C   0  0  0  0  0  0
  -23.8334  -10.4316   21.0557 C   0  0  0  0  0  0
  -24.3056   -9.4253   21.9267 C   0  0  0  0  0  0
  -23.5992   -8.2172   22.0725 C   0  0  0  0  0  0
  -22.4007   -8.0171   21.3506 C   0  0  0  0  0  0
  -21.9568   -9.0074   20.4584 C   0  0  0  0  0  0
  -22.6670  -10.2061   20.3060 C   0  0  0  0  0  0
  -21.6759   -6.0673   22.5242 C   0  0  0  0  0  0
  -21.3926   -6.5584   23.8176 C   0  0  0  0  0  0
  -21.3666   -5.6745   24.9157 C   0  0  0  0  0  0
  -21.6080   -4.3009   24.7215 C   0  0  0  0  0  0
  -21.8821   -3.8138   23.4322 C   0  0  0  0  0  0
  -21.9179   -4.6965   22.3388 C   0  0  0  0  0  0
  -22.7877  -13.5469   21.1876 C   0  0  0  0  0  0
  -22.1640   -4.2174   21.0954 F   0  0  0  0  0  0
  -21.5645   -3.4434   25.7706 F   0  0  0  0  0  0
  -30.0064  -13.5946   20.4509 N   0  0  0  0  0  0
  -26.2986  -12.8037   20.3703 N   0  0  0  0  0  0
  -25.8296  -11.5627   20.5672 N   0  0  0  0  0  0
  -22.0492  -12.8399   22.0367 N   0  0  0  0  0  0
  -25.5448  -15.1231   20.3995 N   0  0  0  0  0  0
  -31.7881  -14.7879   19.8847 O   0  0  0  0  0  0
  -21.6497   -6.8722   21.4148 O   0  0  0  0  0  0
  -22.3674  -14.5828   20.6745 O   0  0  0  0  0  0
  -24.6297  -31.8553   23.1987 C   0  0  0  0  0  0
  -25.9122  -32.4753   23.8320 C   0  0  1  0  0  0
  -27.2311  -27.2558   20.1539 C   0  0  0  0  0  0
  -25.5937  -33.8552   24.2233 N   0  0  0  0  0  0
  -23.4289  -30.4731   21.5424 C   0  0  2  0  0  0
  -24.8826  -28.9241   20.1188 C   0  0  0  0  0  0
  -22.7509  -29.4563   22.4922 C   0  0  0  0  0  0
  -18.0276  -28.1383   22.8492 C   0  0  0  0  0  0
  -24.1492  -36.7276   23.2640 C   0  0  0  0  0  0
  -25.9752  -30.7731   21.3817 C   0  0  0  0  0  0
  -26.0553  -29.3953   20.7225 C   0  0  0  0  0  0
  -27.2341  -28.5793   20.7213 C   0  0  0  0  0  0
  -26.0346  -26.8652   19.5041 C   0  0  0  0  0  0
  -24.8801  -27.6682   19.4973 C   0  0  0  0  0  0
  -23.6506  -29.8090   20.1574 C   0  0  0  0  0  0
  -25.4126  -36.3055   24.0305 C   0  0  1  0  0  0
  -20.5879  -28.3674   23.1289 C   0  0  2  0  0  0
  -20.6764  -26.9392   22.5405 C   0  0  0  0  0  0
  -19.5747  -26.6369   21.5205 C   0  0  0  0  0  0
  -18.1934  -26.7920   22.1624 C   0  0  0  0  0  0
  -19.1536  -28.8846   23.2882 C   0  0  0  0  0  0
  -18.9460  -30.1450   23.8878 C   0  0  0  0  0  0
  -17.6454  -30.6577   24.0545 C   0  0  0  0  0  0
  -25.9071  -34.9432   23.5074 C   0  0  0  0  0  0
  -16.5338  -29.9064   23.6340 C   0  0  0  0  0  0
  -16.7262  -28.6490   23.0367 C   0  0  0  0  0  0
  -26.4503  -31.6593   25.0721 C   0  0  0  0  0  0
  -25.3727  -31.3737   26.1442 C   0  0  0  0  0  0
  -27.0356  -30.2997   24.6223 C   0  0  0  0  0  0
  -27.6028  -32.4361   25.7518 C   0  0  0  0  0  0
  -27.5569  -37.1801   24.8465 C   0  0  0  0  0  0
  -21.4214  -29.3035   22.3694 N   0  0  0  0  0  0
  -26.4287  -37.3754   23.9400 N   0  0  0  0  0  0
  -24.6967  -31.0508   22.0967 N   0  0  0  0  0  0
  -23.4226  -28.8119   23.3018 O   0  0  0  0  0  0
  -28.3103  -26.3359   20.2459 O   0  0  0  0  0  0
  -26.5629  -34.8910   22.4636 O   0  0  0  0  0  0
  -23.5458  -32.1361   23.7308 O   0  0  0  0  0  0
  -27.9494  -17.5567   23.1863 C   0  0  0  0  0  0
  -29.0729  -18.2304   21.5615 C   0  0  0  0  0  0
  -27.1645  -17.6034   24.4470 C   0  0  0  0  0  0
  -26.4539  -20.6464   19.9467 C   0  0  0  0  0  0
  -28.6645  -22.4779   23.4082 C   0  0  0  0  0  0
  -31.8891  -16.8199   21.7165 C   0  0  0  0  0  0
  -29.5512  -19.2736   20.5095 C   0  0  0  0  0  0
  -27.5043  -21.7358   19.6617 C   0  0  0  0  0  0
  -27.8149  -22.1010   22.1728 C   0  0  0  0  0  0
  -29.6919  -20.8867   20.8212 C   0  0  0  0  0  0
  -29.0457  -23.6186   20.4948 C   0  0  0  0  0  0
  -27.9929  -24.8567   20.2611 C   0  0  0  0  0  0
  -30.6126  -15.9531   21.6184 C   0  0  1  0  0  0
  -28.5383  -22.0693   20.7879 C   0  0  0  0  0  0
  -28.1005  -18.6285   22.3742 N   0  0  0  0  0  0
  -28.6397  -16.4822   22.8460 N   0  0  0  0  0  0
  -29.4273  -16.8911   21.8147 N   0  0  0  0  0  0
  -31.4718  -12.4764   19.3100 H   0  0  0  0  0  0
  -30.2587  -11.5444   20.0982 H   0  0  0  0  0  0
  -29.6787  -11.5375   17.7226 H   0  0  0  0  0  0
  -29.9527  -13.2541   17.5805 H   0  0  0  0  0  0
  -27.4249  -12.0086   18.0203 H   0  0  0  0  0  0
  -27.7649  -13.7089   18.0621 H   0  0  0  0  0  0
  -27.9923  -11.7498   20.1897 H   0  0  0  0  0  0
  -28.8210  -12.7106   21.9093 H   0  0  0  0  0  0
  -28.2948  -14.3026   21.4619 H   0  0  0  0  0  0
  -25.2259   -9.5718   22.4713 H   0  0  0  0  0  0
  -23.9880   -7.4472   22.7214 H   0  0  0  0  0  0
  -21.0694   -8.8386   19.8672 H   0  0  0  0  0  0
  -22.3169  -10.9480   19.6048 H   0  0  0  0  0  0
  -21.1838   -7.6072   23.9669 H   0  0  0  0  0  0
  -21.1540   -6.0478   25.9031 H   0  0  0  0  0  0
  -22.0632   -2.7614   23.2742 H   0  0  0  0  0  0
  -22.4214  -12.0067   22.4728 H   0  0  0  0  0  0
  -21.1109  -13.1345   22.2800 H   0  0  0  0  0  0
  -24.8066  -15.8106   20.4576 H   0  0  0  0  0  0
  -26.4448  -15.5109   20.1361 H   0  0  0  0  0  0
  -26.7191  -32.5403   23.1075 H   0  0  0  0  0  0
  -25.0081  -33.9697   25.0372 H   0  0  0  0  0  0
  -22.7246  -31.2923   21.3940 H   0  0  0  0  0  0
  -23.3740  -35.9622   23.3330 H   0  0  0  0  0  0
  -24.3562  -36.8879   22.2047 H   0  0  0  0  0  0
  -23.7280  -37.6494   23.6664 H   0  0  0  0  0  0
  -26.1218  -31.5429   20.6210 H   0  0  0  0  0  0
  -26.8502  -30.8179   22.0185 H   0  0  0  0  0  0
  -28.1320  -28.9391   21.2065 H   0  0  0  0  0  0
  -25.9496  -25.9107   19.0073 H   0  0  0  0  0  0
  -23.9854  -27.2995   19.0183 H   0  0  0  0  0  0
  -23.7871  -30.5871   19.4052 H   0  0  0  0  0  0
  -22.7722  -29.2400   19.8479 H   0  0  0  0  0  0
  -25.1325  -36.1883   25.0790 H   0  0  0  0  0  0
  -20.9956  -28.3233   24.1418 H   0  0  0  0  0  0
  -20.5681  -26.2258   23.3612 H   0  0  0  0  0  0
  -21.6643  -26.7427   22.1202 H   0  0  0  0  0  0
  -19.6910  -25.6285   21.1256 H   0  0  0  0  0  0
  -19.6697  -27.3168   20.6747 H   0  0  0  0  0  0
  -17.4198  -26.6656   21.4027 H   0  0  0  0  0  0
  -18.0328  -26.0047   22.9020 H   0  0  0  0  0  0
  -19.7934  -30.7269   24.2248 H   0  0  0  0  0  0
  -17.5012  -31.6273   24.5141 H   0  0  0  0  0  0
  -15.5359  -30.2968   23.7673 H   0  0  0  0  0  0
  -15.8667  -28.0801   22.7111 H   0  0  0  0  0  0
  -24.5903  -30.7090   25.7768 H   0  0  0  0  0  0
  -24.8933  -32.2907   26.4867 H   0  0  0  0  0  0
  -25.8060  -30.8914   27.0212 H   0  0  0  0  0  0
  -26.2939  -29.6750   24.1230 H   0  0  0  0  0  0
  -27.4001  -29.7261   25.4759 H   0  0  0  0  0  0
  -27.8841  -30.4253   23.9491 H   0  0  0  0  0  0
  -27.2577  -33.3642   26.2085 H   0  0  0  0  0  0
  -28.3852  -32.6958   25.0376 H   0  0  0  0  0  0
  -28.0676  -31.8500   26.5456 H   0  0  0  0  0  0
  -28.2598  -38.0083   24.7476 H   0  0  0  0  0  0
  -28.1054  -36.2611   24.6350 H   0  0  0  0  0  0
  -27.2273  -37.1515   25.8862 H   0  0  0  0  0  0
  -20.9392  -29.8743   21.6888 H   0  0  0  0  0  0
  -26.0162  -38.2817   24.1401 H   0  0  0  0  0  0
  -26.6680  -18.5679   24.5521 H   0  0  0  0  0  0
  -27.8241  -17.4698   25.3039 H   0  0  0  0  0  0
  -26.4240  -16.8045   24.4587 H   0  0  0  0  0  0
  -25.8299  -20.4762   19.0692 H   0  0  0  0  0  0
  -25.7817  -20.9484   20.7446 H   0  0  0  0  0  0
  -26.8899  -19.6891   20.2106 H   0  0  0  0  0  0
  -28.0347  -22.4882   24.2941 H   0  0  0  0  0  0
  -29.1160  -23.4689   23.3454 H   0  0  0  0  0  0
  -29.4581  -21.7622   23.6232 H   0  0  0  0  0  0
  -31.8370  -17.4916   22.5786 H   0  0  0  0  0  0
  -32.0149  -17.4258   20.8188 H   0  0  0  0  0  0
  -32.7871  -16.2186   21.8397 H   0  0  0  0  0  0
  -28.9751  -19.1014   19.5984 H   0  0  0  0  0  0
  -30.5509  -18.9369   20.2460 H   0  0  0  0  0  0
  -26.9189  -22.6220   19.4213 H   0  0  0  0  0  0
  -28.0286  -21.4839   18.7418 H   0  0  0  0  0  0
  -26.9707  -22.7938   22.1330 H   0  0  0  0  0  0
  -27.3882  -21.1216   22.3870 H   0  0  0  0  0  0
  -30.4098  -21.2023   20.0643 H   0  0  0  0  0  0
  -30.2660  -20.9617   21.7418 H   0  0  0  0  0  0
  -29.7222  -23.9195   21.2916 H   0  0  0  0  0  0
  -29.6808  -23.5981   19.6068 H   0  0  0  0  0  0
  -27.1739  -24.7283   20.9716 H   0  0  0  0  0  0
  -27.5815  -24.6512   19.2764 H   0  0  0  0  0  0
  -30.6746  -15.3637   22.5413 H   0  0  0  0  0  0
  1 25  1  0  0  0
  1 30  2  0  0  0
  1 83  1  0  0  0
  2  3  1  0  0  0
  2 25  1  0  0  0
  2 88  1  0  0  0
  2 89  1  0  0  0
  3  4  1  0  0  0
  3 90  1  0  0  0
  3 91  1  0  0  0
  4  5  1  0  0  0
  4 92  1  0  0  0
  4 93  1  0  0  0
  5  6  1  0  0  0
  5 26  1  0  0  0
  5 94  1  0  0  0
  6 25  1  0  0  0
  6 95  1  0  0  0
  6 96  1  0  0  0
  7  8  2  0  0  0
  7 26  1  0  0  0
  7 29  1  0  0  0
  8  9  1  0  0  0
  8 22  1  0  0  0
  9 10  1  0  0  0
  9 27  2  0  0  0
 10 11  2  0  0  0
 10 15  1  0  0  0
 11 12  1  0  0  0
 11 97  1  0  0  0
 12 13  2  0  0  0
 12 98  1  0  0  0
 13 14  1  0  0  0
 13 31  1  0  0  0
 14 15  2  0  0  0
 14 99  1  0  0  0
 15100  1  0  0  0
 16 17  2  0  0  0
 16 21  1  0  0  0
 16 31  1  0  0  0
 17 18  1  0  0  0
 17101  1  0  0  0
 18 19  2  0  0  0
 18102  1  0  0  0
 19 20  1  0  0  0
 19 24  1  0  0  0
 20 21  2  0  0  0
 20103  1  0  0  0
 21 23  1  0  0  0
 22 28  1  0  0  0
 22 32  2  0  0  0
 26 27  1  0  0  0
 28104  1  0  0  0
 28105  1  0  0  0
 29106  1  0  0  0
 29107  1  0  0  0
 33 34  1  0  0  0
 33 66  1  0  0  0
 33 70  2  0  0  0
 34 36  1  0  0  0
 34 59  1  0  0  0
 34108  1  0  0  0
 35 44  2  0  0  0
 35 45  1  0  0  0
 35 68  1  0  0  0
 36 56  1  0  0  0
 36109  1  0  0  0
 37 39  1  0  0  0
 37 47  1  0  0  0
 37 66  1  0  0  0
 37110  1  0  0  0
 38 43  2  0  0  0
 38 46  1  0  0  0
 38 47  1  0  0  0
 39 64  1  0  0  0
 39 67  2  0  0  0
 40 52  1  0  0  0
 40 53  2  0  0  0
 40 58  1  0  0  0
 41111  1  0  0  0
 41112  1  0  0  0
 41113  1  0  0  0
 41 48  1  0  0  0
 42 43  1  0  0  0
 42 66  1  0  0  0
 42114  1  0  0  0
 42115  1  0  0  0
 43 44  1  0  0  0
 44116  1  0  0  0
 45 46  2  0  0  0
 45117  1  0  0  0
 46118  1  0  0  0
 47119  1  0  0  0
 47120  1  0  0  0
 48 56  1  0  0  0
 48 65  1  0  0  0
 48121  1  0  0  0
 49 50  1  0  0  0
 49 53  1  0  0  0
 49 64  1  0  0  0
 49122  1  0  0  0
 50 51  1  0  0  0
 50123  1  0  0  0
 50124  1  0  0  0
 51 52  1  0  0  0
 51125  1  0  0  0
 51126  1  0  0  0
 52127  1  0  0  0
 52128  1  0  0  0
 53 54  1  0  0  0
 54 55  2  0  0  0
 54129  1  0  0  0
 55 57  1  0  0  0
 55130  1  0  0  0
 56 69  2  0  0  0
 57 58  2  0  0  0
 57131  1  0  0  0
 58132  1  0  0  0
 59 60  1  0  0  0
 59 61  1  0  0  0
 59 62  1  0  0  0
 60133  1  0  0  0
 60134  1  0  0  0
 60135  1  0  0  0
 61136  1  0  0  0
 61137  1  0  0  0
 61138  1  0  0  0
 62139  1  0  0  0
 62140  1  0  0  0
 62141  1  0  0  0
 63 65  1  0  0  0
 63142  1  0  0  0
 63143  1  0  0  0
 63144  1  0  0  0
 64145  1  0  0  0
 65146  1  0  0  0
 68 82  1  0  0  0
 71 73  1  0  0  0
 71 85  1  0  0  0
 71 86  2  0  0  0
 72 77  1  0  0  0
 72 85  2  0  0  0
 72 87  1  0  0  0
 73147  1  0  0  0
 73148  1  0  0  0
 73149  1  0  0  0
 74 78  1  0  0  0
 74150  1  0  0  0
 74151  1  0  0  0
 74152  1  0  0  0
 75 79  1  0  0  0
 75153  1  0  0  0
 75154  1  0  0  0
 75155  1  0  0  0
 76156  1  0  0  0
 76157  1  0  0  0
 76158  1  0  0  0
 76 83  1  0  0  0
 77 80  1  0  0  0
 77159  1  0  0  0
 77160  1  0  0  0
 78161  1  0  0  0
 78162  1  0  0  0
 78 84  1  0  0  0
 79 84  1  0  0  0
 79163  1  0  0  0
 79164  1  0  0  0
 80 84  1  0  0  0
 80165  1  0  0  0
 80166  1  0  0  0
 81 82  1  0  0  0
 81 84  1  0  0  0
 81167  1  0  0  0
 81168  1  0  0  0
 82169  1  0  0  0
 82170  1  0  0  0
 83 87  1  0  0  0
 83171  1  0  0  0
 86 87  1  0  0  0
M  ISO  4   1 100  68 101  82 101  83 100
M  END
> <chiral flag>
0

> <version>
0

> <s_m_source_file>
/data/baiqing/PycharmProjects/Reinvent-master-3.2/result/LINK_invent/BTK/process_docking_weight1_custom_sum_contain_oxygen_bond_distance_aromatic_linkinvent_7_9_3/rearranged_h_0073.sdf

> <i_m_source_file_index>
59

> <r_mmod_Potential_Energy-OPLS-2005>
535.882995605469

> <r_mmod_Stretch_Energy-OPLS-2005>
164.19841003418

> <r_mmod_Bend_Energy-OPLS-2005>
344.923400878906

> <r_mmod_Torsional_Energy-OPLS-2005>
275.617980957031

> <r_mmod_Improper_Torsional_Energy-OPLS-2005>
6.09350347518921

> <r_mmod_Van_der_Waal_Energy-OPLS-2005>
134.988159179688

> <r_mmod_Electrostatic_Energy-OPLS-2005>
-352.816589355469

> <r_mmod_Solvation_Energy-OPLS-2005>
-185.478698730469

> <b_mmod_Minimization_Converged-OPLS-2005>
0

> <r_mmod_RMS_Derivative-OPLS-2005>
9.00532627105713

$$$$
59
                    3D
 Structure written by MMmdl.
156164  0  0  1  0            999 V2000
  -30.5513  -14.9528   20.3959 C   0  0  0  0  0  0
  -30.4303  -12.5915   19.4817 C   0  0  0  0  0  0
  -29.5072  -12.5164   18.2443 C   0  0  0  0  0  0
  -28.0438  -12.3059   18.6727 C   0  0  0  0  0  0
  -27.6239  -13.2471   19.8318 C   0  0  2  0  0  0
  -28.6715  -13.2969   20.9642 C   0  0  0  0  0  0
  -25.2441  -13.8223   20.5722 C   0  0  0  0  0  0
  -24.1768  -13.0439   20.9256 C   0  0  0  0  0  0
  -24.6384  -11.6919   20.8756 C   0  0  0  0  0  0
  -23.9061  -10.4294   21.0414 C   0  0  0  0  0  0
  -24.3614   -9.4210   21.9188 C   0  0  0  0  0  0
  -23.6285   -8.2244   22.0752 C   0  0  0  0  0  0
  -22.4268   -8.0278   21.3543 C   0  0  0  0  0  0
  -21.9912   -9.0254   20.4641 C   0  0  0  0  0  0
  -22.7237  -10.2135   20.3059 C   0  0  0  0  0  0
  -21.6859   -6.0725   22.5268 C   0  0  0  0  0  0
  -21.4020   -6.5636   23.8199 C   0  0  0  0  0  0
  -21.3650   -5.6787   24.9163 C   0  0  0  0  0  0
  -21.6051   -4.3056   24.7216 C   0  0  0  0  0  0
  -21.8817   -3.8139   23.4341 C   0  0  0  0  0  0
  -21.9200   -4.6954   22.3390 C   0  0  0  0  0  0
  -22.7789  -13.5207   21.1885 C   0  0  0  0  0  0
  -22.1668   -4.2134   21.0967 F   0  0  0  0  0  0
  -21.5623   -3.4541   25.7732 F   0  0  0  0  0  0
  -29.9370  -13.7026   20.3434 N   0  0  0  0  0  0
  -26.2855  -12.9445   20.3249 N   0  0  0  0  0  0
  -25.9316  -11.6578   20.5755 N   0  0  0  0  0  0
  -22.0436  -12.8186   22.0442 N   0  0  0  0  0  0
  -25.4084  -15.1931   20.4116 N   0  0  0  0  0  0
  -31.7686  -14.9637   20.1735 O   0  0  0  0  0  0
  -21.6643   -6.8864   21.4227 O   0  0  0  0  0  0
  -22.3476  -14.5523   20.6735 O   0  0  0  0  0  0
  -24.6450  -31.8422   23.1877 C   0  0  0  0  0  0
  -25.9217  -32.4711   23.8264 C   0  0  1  0  0  0
  -27.2308  -27.1236   20.1578 C   0  0  0  0  0  0
  -25.5933  -33.8512   24.2169 N   0  0  0  0  0  0
  -23.4524  -30.4560   21.5317 C   0  0  2  0  0  0
  -24.9080  -28.8821   20.1094 C   0  0  0  0  0  0
  -22.7595  -29.4514   22.4865 C   0  0  0  0  0  0
  -18.0287  -28.1359   22.8483 C   0  0  0  0  0  0
  -24.1492  -36.7256   23.2637 C   0  0  0  0  0  0
  -26.0081  -30.7134   21.3910 C   0  0  0  0  0  0
  -26.0838  -29.3208   20.7336 C   0  0  0  0  0  0
  -27.2460  -28.4585   20.7397 C   0  0  0  0  0  0
  -26.0276  -26.7893   19.4979 C   0  0  0  0  0  0
  -24.8954  -27.6313   19.4725 C   0  0  0  0  0  0
  -23.6813  -29.7809   20.1509 C   0  0  0  0  0  0
  -25.4129  -36.3051   24.0304 C   0  0  1  0  0  0
  -20.5915  -28.3713   23.1229 C   0  0  2  0  0  0
  -20.6792  -26.9417   22.5402 C   0  0  0  0  0  0
  -19.5775  -26.6350   21.5211 C   0  0  0  0  0  0
  -18.1939  -26.7914   22.1598 C   0  0  0  0  0  0
  -19.1542  -28.8846   23.2856 C   0  0  0  0  0  0
  -18.9462  -30.1438   23.8894 C   0  0  0  0  0  0
  -17.6473  -30.6588   24.0535 C   0  0  0  0  0  0
  -25.9077  -34.9427   23.5058 C   0  0  0  0  0  0
  -16.5367  -29.9079   23.6324 C   0  0  0  0  0  0
  -16.7280  -28.6475   23.0381 C   0  0  0  0  0  0
  -26.4525  -31.6586   25.0711 C   0  0  0  0  0  0
  -25.3689  -31.3760   26.1396 C   0  0  0  0  0  0
  -27.0393  -30.2983   24.6296 C   0  0  0  0  0  0
  -27.6038  -32.4368   25.7506 C   0  0  0  0  0  0
  -27.5590  -37.1784   24.8459 C   0  0  0  0  0  0
  -21.4281  -29.3040   22.3625 N   0  0  0  0  0  0
  -26.4296  -37.3764   23.9407 N   0  0  0  0  0  0
  -24.7209  -31.0247   22.0924 N   0  0  0  0  0  0
  -23.4248  -28.8078   23.3026 O   0  0  0  0  0  0
  -28.2842  -26.1329   20.2367 O   0  0  0  0  0  0
  -26.5673  -34.8927   22.4644 O   0  0  0  0  0  0
  -23.5559  -32.1284   23.7078 O   0  0  0  0  0  0
  -29.2924  -18.8468   20.3374 C   0  0  0  0  0  0
  -31.8707  -19.1927   20.9681 C   0  0  0  0  0  0
  -29.7159  -20.2787   20.4639 C   0  0  0  0  0  0
  -31.0994  -20.3739   20.8192 C   0  0  0  0  0  0
  -30.1612  -17.6449   20.5241 C   0  0  0  0  0  0
  -32.4346  -22.2079   19.6935 C   0  0  0  0  0  0
  -28.7501  -21.6234   20.1912 C   0  0  0  0  0  0
  -29.0493  -23.2928   20.4291 C   0  0  0  0  0  0
  -28.0343  -24.5967   20.0396 C   0  0  0  0  0  0
  -31.8391  -21.6969   21.0122 C   0  0  2  0  0  0
  -31.4383  -17.9235   20.8338 N   0  0  0  0  0  0
  -29.7849  -16.1609   20.4382 N   0  0  0  0  0  0
  -32.8916  -21.6088   21.9601 O   0  0  0  0  0  0
  -31.4621  -12.7427   19.1594 H   0  0  0  0  0  0
  -30.4244  -11.6489   20.0301 H   0  0  0  0  0  0
  -29.8222  -11.7069   17.5856 H   0  0  0  0  0  0
  -29.5907  -13.4353   17.6630 H   0  0  0  0  0  0
  -27.9442  -11.2673   18.9898 H   0  0  0  0  0  0
  -27.3737  -12.4286   17.8208 H   0  0  0  0  0  0
  -27.5780  -14.2446   19.3913 H   0  0  0  0  0  0
  -28.7648  -12.3306   21.4622 H   0  0  0  0  0  0
  -28.3739  -14.0178   21.7295 H   0  0  0  0  0  0
  -25.2752   -9.5693   22.4777 H   0  0  0  0  0  0
  -23.9989   -7.4640   22.7495 H   0  0  0  0  0  0
  -21.0826   -8.8774   19.8951 H   0  0  0  0  0  0
  -22.3681  -10.9679   19.6173 H   0  0  0  0  0  0
  -21.2017   -7.6144   23.9689 H   0  0  0  0  0  0
  -21.1474   -6.0525   25.9059 H   0  0  0  0  0  0
  -22.0607   -2.7600   23.2845 H   0  0  0  0  0  0
  -22.4069  -11.9841   22.4796 H   0  0  0  0  0  0
  -21.1059  -13.1198   22.2653 H   0  0  0  0  0  0
  -24.6340  -15.8396   20.5214 H   0  0  0  0  0  0
  -26.2343  -15.6333   20.0287 H   0  0  0  0  0  0
  -26.7291  -32.5313   23.0995 H   0  0  0  0  0  0
  -25.0037  -33.9603   25.0292 H   0  0  0  0  0  0
  -22.7543  -31.2797   21.3707 H   0  0  0  0  0  0
  -23.3784  -35.9570   23.3290 H   0  0  0  0  0  0
  -24.3559  -36.8913   22.2058 H   0  0  0  0  0  0
  -23.7236  -37.6424   23.6701 H   0  0  0  0  0  0
  -26.1608  -31.4701   20.6213 H   0  0  0  0  0  0
  -26.8786  -30.7686   22.0340 H   0  0  0  0  0  0
  -28.1425  -28.7824   21.2523 H   0  0  0  0  0  0
  -25.9287  -25.8267   19.0203 H   0  0  0  0  0  0
  -24.0017  -27.2922   18.9686 H   0  0  0  0  0  0
  -23.8181  -30.5516   19.3902 H   0  0  0  0  0  0
  -22.8005  -29.2135   19.8465 H   0  0  0  0  0  0
  -25.1337  -36.1868   25.0799 H   0  0  0  0  0  0
  -20.9949  -28.3292   24.1366 H   0  0  0  0  0  0
  -20.5671  -26.2319   23.3613 H   0  0  0  0  0  0
  -21.6662  -26.7428   22.1210 H   0  0  0  0  0  0
  -19.6940  -25.6263   21.1237 H   0  0  0  0  0  0
  -19.6697  -27.3162   20.6757 H   0  0  0  0  0  0
  -17.4213  -26.6645   21.4000 H   0  0  0  0  0  0
  -18.0333  -26.0051   22.8966 H   0  0  0  0  0  0
  -19.7956  -30.7199   24.2310 H   0  0  0  0  0  0
  -17.5055  -31.6282   24.5106 H   0  0  0  0  0  0
  -15.5378  -30.2986   23.7670 H   0  0  0  0  0  0
  -15.8665  -28.0786   22.7159 H   0  0  0  0  0  0
  -24.5878  -30.7115   25.7683 H   0  0  0  0  0  0
  -24.8843  -32.2927   26.4776 H   0  0  0  0  0  0
  -25.7952  -30.8932   27.0207 H   0  0  0  0  0  0
  -26.3012  -29.6691   24.1311 H   0  0  0  0  0  0
  -27.4016  -29.7323   25.4884 H   0  0  0  0  0  0
  -27.8932  -30.4229   23.9645 H   0  0  0  0  0  0
  -27.2644  -33.3724   26.2001 H   0  0  0  0  0  0
  -28.3912  -32.6852   25.0366 H   0  0  0  0  0  0
  -28.0665  -31.8536   26.5487 H   0  0  0  0  0  0
  -28.2589  -38.0099   24.7532 H   0  0  0  0  0  0
  -28.1096  -36.2615   24.6277 H   0  0  0  0  0  0
  -27.2274  -37.1442   25.8849 H   0  0  0  0  0  0
  -20.9509  -29.8749   21.6794 H   0  0  0  0  0  0
  -26.0159  -38.2828   24.1411 H   0  0  0  0  0  0
  -28.2574  -18.6729   20.0766 H   0  0  0  0  0  0
  -32.9227  -19.2489   21.2030 H   0  0  0  0  0  0
  -31.6628  -22.3343   18.9340 H   0  0  0  0  0  0
  -33.1689  -21.5103   19.2896 H   0  0  0  0  0  0
  -32.9205  -23.1746   19.8245 H   0  0  0  0  0  0
  -27.8322  -21.4079   20.7386 H   0  0  0  0  0  0
  -28.4617  -21.5295   19.1440 H   0  0  0  0  0  0
  -29.9777  -23.5267   19.9143 H   0  0  0  0  0  0
  -29.2585  -23.4182   21.4910 H   0  0  0  0  0  0
  -27.0862  -24.3818   20.5334 H   0  0  0  0  0  0
  -27.8274  -24.4885   18.9739 H   0  0  0  0  0  0
  -31.1683  -22.4270   21.4449 H   0  0  0  0  0  0
  -28.7931  -15.9951   20.4128 H   0  0  0  0  0  0
  -33.6911  -21.9267   21.5415 H   0  0  0  0  0  0
  1 25  1  0  0  0
  1 30  2  0  0  0
  1 82  1  0  0  0
  2  3  1  0  0  0
  2 25  1  0  0  0
  2 84  1  0  0  0
  2 85  1  0  0  0
  3  4  1  0  0  0
  3 86  1  0  0  0
  3 87  1  0  0  0
  4  5  1  0  0  0
  4 88  1  0  0  0
  4 89  1  0  0  0
  5  6  1  0  0  0
  5 26  1  0  0  0
  5 90  1  0  0  0
  6 25  1  0  0  0
  6 91  1  0  0  0
  6 92  1  0  0  0
  7  8  2  0  0  0
  7 26  1  0  0  0
  7 29  1  0  0  0
  8  9  1  0  0  0
  8 22  1  0  0  0
  9 10  1  0  0  0
  9 27  2  0  0  0
 10 11  2  0  0  0
 10 15  1  0  0  0
 11 12  1  0  0  0
 11 93  1  0  0  0
 12 13  2  0  0  0
 12 94  1  0  0  0
 13 14  1  0  0  0
 13 31  1  0  0  0
 14 15  2  0  0  0
 14 95  1  0  0  0
 15 96  1  0  0  0
 16 17  2  0  0  0
 16 21  1  0  0  0
 16 31  1  0  0  0
 17 18  1  0  0  0
 17 97  1  0  0  0
 18 19  2  0  0  0
 18 98  1  0  0  0
 19 20  1  0  0  0
 19 24  1  0  0  0
 20 21  2  0  0  0
 20 99  1  0  0  0
 21 23  1  0  0  0
 22 28  1  0  0  0
 22 32  2  0  0  0
 26 27  1  0  0  0
 28100  1  0  0  0
 28101  1  0  0  0
 29102  1  0  0  0
 29103  1  0  0  0
 33 34  1  0  0  0
 33 66  1  0  0  0
 33 70  2  0  0  0
 34 36  1  0  0  0
 34 59  1  0  0  0
 34104  1  0  0  0
 35 44  2  0  0  0
 35 45  1  0  0  0
 35 68  1  0  0  0
 36 56  1  0  0  0
 36105  1  0  0  0
 37 39  1  0  0  0
 37 47  1  0  0  0
 37 66  1  0  0  0
 37106  1  0  0  0
 38 43  2  0  0  0
 38 46  1  0  0  0
 38 47  1  0  0  0
 39 64  1  0  0  0
 39 67  2  0  0  0
 40 52  1  0  0  0
 40 53  2  0  0  0
 40 58  1  0  0  0
 41107  1  0  0  0
 41108  1  0  0  0
 41109  1  0  0  0
 41 48  1  0  0  0
 42 43  1  0  0  0
 42 66  1  0  0  0
 42110  1  0  0  0
 42111  1  0  0  0
 43 44  1  0  0  0
 44112  1  0  0  0
 45 46  2  0  0  0
 45113  1  0  0  0
 46114  1  0  0  0
 47115  1  0  0  0
 47116  1  0  0  0
 48 56  1  0  0  0
 48 65  1  0  0  0
 48117  1  0  0  0
 49 50  1  0  0  0
 49 53  1  0  0  0
 49 64  1  0  0  0
 49118  1  0  0  0
 50 51  1  0  0  0
 50119  1  0  0  0
 50120  1  0  0  0
 51 52  1  0  0  0
 51121  1  0  0  0
 51122  1  0  0  0
 52123  1  0  0  0
 52124  1  0  0  0
 53 54  1  0  0  0
 54 55  2  0  0  0
 54125  1  0  0  0
 55 57  1  0  0  0
 55126  1  0  0  0
 56 69  2  0  0  0
 57 58  2  0  0  0
 57127  1  0  0  0
 58128  1  0  0  0
 59 60  1  0  0  0
 59 61  1  0  0  0
 59 62  1  0  0  0
 60129  1  0  0  0
 60130  1  0  0  0
 60131  1  0  0  0
 61132  1  0  0  0
 61133  1  0  0  0
 61134  1  0  0  0
 62135  1  0  0  0
 62136  1  0  0  0
 62137  1  0  0  0
 63 65  1  0  0  0
 63138  1  0  0  0
 63139  1  0  0  0
 63140  1  0  0  0
 64141  1  0  0  0
 65142  1  0  0  0
 68 79  1  0  0  0
 71 73  2  0  0  0
 71 75  1  0  0  0
 71143  1  0  0  0
 72 74  2  0  0  0
 72 81  1  0  0  0
 72144  1  0  0  0
 73 74  1  0  0  0
 73 77  1  0  0  0
 74 80  1  0  0  0
 75 81  2  0  0  0
 75 82  1  0  0  0
 76145  1  0  0  0
 76146  1  0  0  0
 76147  1  0  0  0
 76 80  1  0  0  0
 77 78  1  0  0  0
 77148  1  0  0  0
 77149  1  0  0  0
 78 79  1  0  0  0
 78150  1  0  0  0
 78151  1  0  0  0
 79152  1  0  0  0
 79153  1  0  0  0
 80 83  1  0  0  0
 80154  1  0  0  0
 82155  1  0  0  0
 83156  1  0  0  0
M  ISO  4   1 100  68 101  79 101  82 100
M  END
> <chiral flag>
0

> <version>
0

> <s_m_source_file>
/data/baiqing/PycharmProjects/Reinvent-master-3.2/result/LINK_invent/BTK/process_docking_weight1_custom_sum_contain_oxygen_bond_distance_aromatic_linkinvent_7_9_3/rearranged_h_0073.sdf

> <i_m_source_file_index>
60

> <r_mmod_Potential_Energy-OPLS-2005>
388.684875488281

> <r_mmod_Stretch_Energy-OPLS-2005>
290.006378173828

> <r_mmod_Bend_Energy-OPLS-2005>
267.028106689453

> <r_mmod_Torsional_Energy-OPLS-2005>
210.22265625

> <r_mmod_Improper_Torsional_Energy-OPLS-2005>
6.02440214157104

> <r_mmod_Van_der_Waal_Energy-OPLS-2005>
144.558074951172

> <r_mmod_Electrostatic_Energy-OPLS-2005>
-466.576538085938

> <r_mmod_Solvation_Energy-OPLS-2005>
-263.133056640625

> <b_mmod_Minimization_Converged-OPLS-2005>
0

> <r_mmod_RMS_Derivative-OPLS-2005>
2.94098591804504

$$$$
60
                    3D
 Structure written by MMmdl.
167175  0  0  1  0            999 V2000
  -30.6338  -14.8447   20.5823 C   0  0  0  0  0  0
  -30.4307  -12.5461   19.4983 C   0  0  0  0  0  0
  -29.5152  -12.5585   18.2506 C   0  0  0  0  0  0
  -28.0415  -12.3557   18.6480 C   0  0  0  0  0  0
  -27.6406  -13.2411   19.8517 C   0  0  2  0  0  0
  -28.6760  -13.1579   20.9874 C   0  0  0  0  0  0
  -25.2520  -13.8220   20.5695 C   0  0  0  0  0  0
  -24.1807  -13.0450   20.9186 C   0  0  0  0  0  0
  -24.6400  -11.6935   20.8724 C   0  0  0  0  0  0
  -23.9085  -10.4307   21.0404 C   0  0  0  0  0  0
  -24.3649   -9.4224   21.9176 C   0  0  0  0  0  0
  -23.6340   -8.2249   22.0735 C   0  0  0  0  0  0
  -22.4315   -8.0283   21.3531 C   0  0  0  0  0  0
  -21.9943   -9.0248   20.4630 C   0  0  0  0  0  0
  -22.7262  -10.2135   20.3052 C   0  0  0  0  0  0
  -21.6864   -6.0753   22.5274 C   0  0  0  0  0  0
  -21.4020   -6.5655   23.8206 C   0  0  0  0  0  0
  -21.3663   -5.6793   24.9161 C   0  0  0  0  0  0
  -21.6044   -4.3063   24.7206 C   0  0  0  0  0  0
  -21.8825   -3.8163   23.4327 C   0  0  0  0  0  0
  -21.9205   -4.6982   22.3390 C   0  0  0  0  0  0
  -22.7838  -13.5221   21.1860 C   0  0  0  0  0  0
  -22.1686   -4.2178   21.0966 F   0  0  0  0  0  0
  -21.5617   -3.4534   25.7716 F   0  0  0  0  0  0
  -29.9792  -13.6079   20.4576 N   0  0  0  0  0  0
  -26.2926  -12.9418   20.3245 N   0  0  0  0  0  0
  -25.9334  -11.6559   20.5730 N   0  0  0  0  0  0
  -22.0528  -12.8177   22.0434 N   0  0  0  0  0  0
  -25.4253  -15.1945   20.4170 N   0  0  0  0  0  0
  -31.6893  -14.9240   19.9411 O   0  0  0  0  0  0
  -21.6661   -6.8896   21.4242 O   0  0  0  0  0  0
  -22.3503  -14.5508   20.6695 O   0  0  0  0  0  0
  -24.6377  -31.8465   23.1904 C   0  0  0  0  0  0
  -25.9170  -32.4700   23.8271 C   0  0  1  0  0  0
  -27.2219  -27.1907   20.1520 C   0  0  0  0  0  0
  -25.5948  -33.8500   24.2199 N   0  0  0  0  0  0
  -23.4392  -30.4665   21.5341 C   0  0  2  0  0  0
  -24.8881  -28.8932   20.1153 C   0  0  0  0  0  0
  -22.7529  -29.4561   22.4868 C   0  0  0  0  0  0
  -18.0296  -28.1384   22.8459 C   0  0  0  0  0  0
  -24.1500  -36.7264   23.2643 C   0  0  0  0  0  0
  -25.9888  -30.7404   21.3767 C   0  0  0  0  0  0
  -26.0625  -29.3540   20.7241 C   0  0  0  0  0  0
  -27.2358  -28.5195   20.7187 C   0  0  0  0  0  0
  -26.0226  -26.8053   19.5214 C   0  0  0  0  0  0
  -24.8767  -27.6300   19.4999 C   0  0  0  0  0  0
  -23.6624  -29.7909   20.1538 C   0  0  0  0  0  0
  -25.4128  -36.3031   24.0311 C   0  0  1  0  0  0
  -20.5905  -28.3703   23.1245 C   0  0  2  0  0  0
  -20.6786  -26.9415   22.5397 C   0  0  0  0  0  0
  -19.5771  -26.6379   21.5195 C   0  0  0  0  0  0
  -18.1954  -26.7922   22.1606 C   0  0  0  0  0  0
  -19.1550  -28.8863   23.2840 C   0  0  0  0  0  0
  -18.9474  -30.1461   23.8866 C   0  0  0  0  0  0
  -17.6472  -30.6587   24.0554 C   0  0  0  0  0  0
  -25.9070  -34.9398   23.5063 C   0  0  0  0  0  0
  -16.5363  -29.9080   23.6330 C   0  0  0  0  0  0
  -16.7280  -28.6500   23.0339 C   0  0  0  0  0  0
  -26.4518  -31.6528   25.0676 C   0  0  0  0  0  0
  -25.3732  -31.3679   26.1387 C   0  0  0  0  0  0
  -27.0372  -30.2942   24.6190 C   0  0  0  0  0  0
  -27.6078  -32.4276   25.7442 C   0  0  0  0  0  0
  -27.5575  -37.1785   24.8465 C   0  0  0  0  0  0
  -21.4230  -29.3043   22.3617 N   0  0  0  0  0  0
  -26.4303  -37.3739   23.9401 N   0  0  0  0  0  0
  -24.7089  -31.0376   22.0900 N   0  0  0  0  0  0
  -23.4186  -28.8108   23.3009 O   0  0  0  0  0  0
  -28.3125  -26.2730   20.1266 O   0  0  0  0  0  0
  -26.5645  -34.8896   22.4638 O   0  0  0  0  0  0
  -23.5516  -32.1280   23.7177 O   0  0  0  0  0  0
  -29.8442  -19.6337   19.7808 C   0  0  0  0  0  0
  -29.2459  -20.5431   20.7286 C   0  0  0  0  0  0
  -29.0880  -18.5903   22.1379 C   0  0  0  0  0  0
  -29.7025  -17.6490   21.1971 C   0  0  0  0  0  0
  -31.9056  -20.2424   18.4227 C   0  0  0  0  0  0
  -28.0991  -19.3887   24.4412 C   0  0  0  0  0  0
  -31.7380  -16.5378   22.0852 C   0  0  0  0  0  0
  -29.6804  -15.5216   22.8677 C   0  0  0  0  0  0
  -30.3743  -20.1484   18.4536 C   0  0  0  0  0  0
  -28.8056  -18.2886   23.6170 C   0  0  0  0  0  0
  -29.3336  -22.1809   20.8141 C   0  0  0  0  0  0
  -28.5042  -23.3838   20.0255 C   0  0  0  0  0  0
  -28.2183  -24.8676   20.7295 C   0  0  0  0  0  0
  -30.3169  -16.1383   21.5948 C   0  0  0  0  0  0
  -28.8521  -19.9274   21.8725 N   0  0  0  0  0  0
  -30.0369  -18.2612   20.0017 N   0  0  0  0  0  0
  -31.4710  -12.6634   19.1935 H   0  0  0  0  0  0
  -30.3967  -11.5659   19.9773 H   0  0  0  0  0  0
  -29.8188  -11.7806   17.5500 H   0  0  0  0  0  0
  -29.6283  -13.5102   17.7289 H   0  0  0  0  0  0
  -27.9024  -11.3035   18.9019 H   0  0  0  0  0  0
  -27.3860  -12.5541   17.7982 H   0  0  0  0  0  0
  -27.6396  -14.2694   19.4898 H   0  0  0  0  0  0
  -28.7460  -12.1329   21.3553 H   0  0  0  0  0  0
  -28.3081  -13.7283   21.8279 H   0  0  0  0  0  0
  -25.2794   -9.5712   22.4745 H   0  0  0  0  0  0
  -24.0062   -7.4638   22.7443 H   0  0  0  0  0  0
  -21.0866   -8.8747   19.8943 H   0  0  0  0  0  0
  -22.3699  -10.9665   19.6167 H   0  0  0  0  0  0
  -21.2018   -7.6162   23.9712 H   0  0  0  0  0  0
  -21.1485   -6.0528   25.9058 H   0  0  0  0  0  0
  -22.0609   -2.7631   23.2806 H   0  0  0  0  0  0
  -22.4176  -11.9866   22.4833 H   0  0  0  0  0  0
  -21.1143  -13.1156   22.2640 H   0  0  0  0  0  0
  -24.6694  -15.8610   20.5308 H   0  0  0  0  0  0
  -26.2876  -15.6265   20.1087 H   0  0  0  0  0  0
  -26.7233  -32.5332   23.0999 H   0  0  0  0  0  0
  -25.0082  -33.9617   25.0335 H   0  0  0  0  0  0
  -22.7406  -31.2910   21.3787 H   0  0  0  0  0  0
  -23.3759  -35.9602   23.3282 H   0  0  0  0  0  0
  -24.3601  -36.8902   22.2064 H   0  0  0  0  0  0
  -23.7247  -37.6456   23.6687 H   0  0  0  0  0  0
  -26.1349  -31.4953   20.6023 H   0  0  0  0  0  0
  -26.8646  -30.7948   22.0124 H   0  0  0  0  0  0
  -28.1441  -28.8734   21.1872 H   0  0  0  0  0  0
  -25.9661  -25.8357   19.0466 H   0  0  0  0  0  0
  -23.9776  -27.2712   19.0180 H   0  0  0  0  0  0
  -23.7960  -30.5599   19.3919 H   0  0  0  0  0  0
  -22.7789  -29.2265   19.8495 H   0  0  0  0  0  0
  -25.1318  -36.1864   25.0807 H   0  0  0  0  0  0
  -20.9995  -28.3295   24.1362 H   0  0  0  0  0  0
  -20.5682  -26.2322   23.3609 H   0  0  0  0  0  0
  -21.6664  -26.7433   22.1206 H   0  0  0  0  0  0
  -19.6945  -25.6285   21.1241 H   0  0  0  0  0  0
  -19.6720  -27.3178   20.6720 H   0  0  0  0  0  0
  -17.4218  -26.6638   21.4015 H   0  0  0  0  0  0
  -18.0371  -26.0072   22.9018 H   0  0  0  0  0  0
  -19.7954  -30.7281   24.2227 H   0  0  0  0  0  0
  -17.5028  -31.6266   24.5158 H   0  0  0  0  0  0
  -15.5363  -30.2975   23.7682 H   0  0  0  0  0  0
  -15.8675  -28.0826   22.7064 H   0  0  0  0  0  0
  -24.5961  -30.6972   25.7702 H   0  0  0  0  0  0
  -24.8870  -32.2839   26.4763 H   0  0  0  0  0  0
  -25.8047  -30.8892   27.0186 H   0  0  0  0  0  0
  -26.2954  -29.6666   24.1252 H   0  0  0  0  0  0
  -27.4075  -29.7239   25.4713 H   0  0  0  0  0  0
  -27.8812  -30.4196   23.9409 H   0  0  0  0  0  0
  -27.2711  -33.3616   26.1950 H   0  0  0  0  0  0
  -28.3914  -32.6755   25.0269 H   0  0  0  0  0  0
  -28.0707  -31.8426   26.5397 H   0  0  0  0  0  0
  -28.2587  -38.0091   24.7525 H   0  0  0  0  0  0
  -28.1076  -36.2618   24.6284 H   0  0  0  0  0  0
  -27.2292  -37.1410   25.8870 H   0  0  0  0  0  0
  -20.9439  -29.8738   21.6783 H   0  0  0  0  0  0
  -26.0154  -38.2806   24.1416 H   0  0  0  0  0  0
  -32.2470  -20.5828   17.4450 H   0  0  0  0  0  0
  -32.3684  -19.2742   18.6190 H   0  0  0  0  0  0
  -32.2708  -20.9462   19.1718 H   0  0  0  0  0  0
  -27.9756  -19.0636   25.4752 H   0  0  0  0  0  0
  -27.1083  -19.6119   24.0439 H   0  0  0  0  0  0
  -28.6763  -20.3145   24.4675 H   0  0  0  0  0  0
  -31.7062  -17.2540   22.9047 H   0  0  0  0  0  0
  -32.3127  -17.0157   21.2901 H   0  0  0  0  0  0
  -32.3149  -15.6785   22.4332 H   0  0  0  0  0  0
  -29.9885  -16.0046   23.7903 H   0  0  0  0  0  0
  -30.0009  -14.4929   23.0371 H   0  0  0  0  0  0
  -28.5934  -15.5347   22.8243 H   0  0  0  0  0  0
  -29.9434  -21.1268   18.2431 H   0  0  0  0  0  0
  -30.0232  -19.4901   17.6589 H   0  0  0  0  0  0
  -29.7569  -18.0829   24.1052 H   0  0  0  0  0  0
  -28.1677  -17.4138   23.6915 H   0  0  0  0  0  0
  -30.3916  -22.4146   20.6892 H   0  0  0  0  0  0
  -29.1573  -22.3902   21.8712 H   0  0  0  0  0  0
  -29.0033  -23.5490   19.0708 H   0  0  0  0  0  0
  -27.5287  -22.9867   19.7466 H   0  0  0  0  0  0
  -27.2490  -24.7970   21.2263 H   0  0  0  0  0  0
  -28.9217  -24.9244   21.5609 H   0  0  0  0  0  0
  1 25  1  0  0  0
  1 30  2  0  0  0
  1 84  1  0  0  0
  2  3  1  0  0  0
  2 25  1  0  0  0
  2 87  1  0  0  0
  2 88  1  0  0  0
  3  4  1  0  0  0
  3 89  1  0  0  0
  3 90  1  0  0  0
  4  5  1  0  0  0
  4 91  1  0  0  0
  4 92  1  0  0  0
  5  6  1  0  0  0
  5 26  1  0  0  0
  5 93  1  0  0  0
  6 25  1  0  0  0
  6 94  1  0  0  0
  6 95  1  0  0  0
  7  8  2  0  0  0
  7 26  1  0  0  0
  7 29  1  0  0  0
  8  9  1  0  0  0
  8 22  1  0  0  0
  9 10  1  0  0  0
  9 27  2  0  0  0
 10 11  2  0  0  0
 10 15  1  0  0  0
 11 12  1  0  0  0
 11 96  1  0  0  0
 12 13  2  0  0  0
 12 97  1  0  0  0
 13 14  1  0  0  0
 13 31  1  0  0  0
 14 15  2  0  0  0
 14 98  1  0  0  0
 15 99  1  0  0  0
 16 17  2  0  0  0
 16 21  1  0  0  0
 16 31  1  0  0  0
 17 18  1  0  0  0
 17100  1  0  0  0
 18 19  2  0  0  0
 18101  1  0  0  0
 19 20  1  0  0  0
 19 24  1  0  0  0
 20 21  2  0  0  0
 20102  1  0  0  0
 21 23  1  0  0  0
 22 28  1  0  0  0
 22 32  2  0  0  0
 26 27  1  0  0  0
 28103  1  0  0  0
 28104  1  0  0  0
 29105  1  0  0  0
 29106  1  0  0  0
 33 34  1  0  0  0
 33 66  1  0  0  0
 33 70  2  0  0  0
 34 36  1  0  0  0
 34 59  1  0  0  0
 34107  1  0  0  0
 35 44  2  0  0  0
 35 45  1  0  0  0
 35 68  1  0  0  0
 36 56  1  0  0  0
 36108  1  0  0  0
 37 39  1  0  0  0
 37 47  1  0  0  0
 37 66  1  0  0  0
 37109  1  0  0  0
 38 43  2  0  0  0
 38 46  1  0  0  0
 38 47  1  0  0  0
 39 64  1  0  0  0
 39 67  2  0  0  0
 40 52  1  0  0  0
 40 53  2  0  0  0
 40 58  1  0  0  0
 41110  1  0  0  0
 41111  1  0  0  0
 41112  1  0  0  0
 41 48  1  0  0  0
 42 43  1  0  0  0
 42 66  1  0  0  0
 42113  1  0  0  0
 42114  1  0  0  0
 43 44  1  0  0  0
 44115  1  0  0  0
 45 46  2  0  0  0
 45116  1  0  0  0
 46117  1  0  0  0
 47118  1  0  0  0
 47119  1  0  0  0
 48 56  1  0  0  0
 48 65  1  0  0  0
 48120  1  0  0  0
 49 50  1  0  0  0
 49 53  1  0  0  0
 49 64  1  0  0  0
 49121  1  0  0  0
 50 51  1  0  0  0
 50122  1  0  0  0
 50123  1  0  0  0
 51 52  1  0  0  0
 51124  1  0  0  0
 51125  1  0  0  0
 52126  1  0  0  0
 52127  1  0  0  0
 53 54  1  0  0  0
 54 55  2  0  0  0
 54128  1  0  0  0
 55 57  1  0  0  0
 55129  1  0  0  0
 56 69  2  0  0  0
 57 58  2  0  0  0
 57130  1  0  0  0
 58131  1  0  0  0
 59 60  1  0  0  0
 59 61  1  0  0  0
 59 62  1  0  0  0
 60132  1  0  0  0
 60133  1  0  0  0
 60134  1  0  0  0
 61135  1  0  0  0
 61136  1  0  0  0
 61137  1  0  0  0
 62138  1  0  0  0
 62139  1  0  0  0
 62140  1  0  0  0
 63 65  1  0  0  0
 63141  1  0  0  0
 63142  1  0  0  0
 63143  1  0  0  0
 64144  1  0  0  0
 65145  1  0  0  0
 68 83  1  0  0  0
 71 72  2  0  0  0
 71 79  1  0  0  0
 71 86  1  0  0  0
 72 81  1  0  0  0
 72 85  1  0  0  0
 73 74  1  0  0  0
 73 80  1  0  0  0
 73 85  2  0  0  0
 74 84  1  0  0  0
 74 86  2  0  0  0
 75 79  1  0  0  0
 75146  1  0  0  0
 75147  1  0  0  0
 75148  1  0  0  0
 76 80  1  0  0  0
 76149  1  0  0  0
 76150  1  0  0  0
 76151  1  0  0  0
 77152  1  0  0  0
 77153  1  0  0  0
 77154  1  0  0  0
 77 84  1  0  0  0
 78 84  1  0  0  0
 78155  1  0  0  0
 78156  1  0  0  0
 78157  1  0  0  0
 79158  1  0  0  0
 79159  1  0  0  0
 80160  1  0  0  0
 80161  1  0  0  0
 81 82  1  0  0  0
 81162  1  0  0  0
 81163  1  0  0  0
 82 83  1  0  0  0
 82164  1  0  0  0
 82165  1  0  0  0
 83166  1  0  0  0
 83167  1  0  0  0
M  ISO  4   1 100  68 101  83 101  84 100
M  END
> <chiral flag>
0

> <version>
0

> <s_m_source_file>
/data/baiqing/PycharmProjects/Reinvent-master-3.2/result/LINK_invent/BTK/process_docking_weight1_custom_sum_contain_oxygen_bond_distance_aromatic_linkinvent_7_9_3/rearranged_h_0073.sdf

> <i_m_source_file_index>
61

> <r_mmod_Potential_Energy-OPLS-2005>
629.748962402344

> <r_mmod_Stretch_Energy-OPLS-2005>
241.825408935547

> <r_mmod_Bend_Energy-OPLS-2005>
334.022033691406

> <r_mmod_Torsional_Energy-OPLS-2005>
219.309326171875

> <r_mmod_Improper_Torsional_Energy-OPLS-2005>
8.75386810302734

> <r_mmod_Van_der_Waal_Energy-OPLS-2005>
167.200454711914

> <r_mmod_Electrostatic_Energy-OPLS-2005>
-267.810882568359

> <r_mmod_Solvation_Energy-OPLS-2005>
-197.379730224609

> <b_mmod_Minimization_Converged-OPLS-2005>
0

> <r_mmod_RMS_Derivative-OPLS-2005>
2.86454796791077

$$$$
61
                    3D
 Structure written by MMmdl.
161169  0  0  1  0            999 V2000
  -30.7105  -14.4867   20.5323 C   0  0  0  0  0  0
  -30.4204  -12.3006   19.4402 C   0  0  0  0  0  0
  -29.4977  -12.4785   18.2166 C   0  0  0  0  0  0
  -28.0184  -12.3457   18.6322 C   0  0  0  0  0  0
  -27.6600  -13.2104   19.8704 C   0  0  2  0  0  0
  -28.7029  -13.0377   20.9974 C   0  0  0  0  0  0
  -25.2590  -13.8189   20.5676 C   0  0  0  0  0  0
  -24.1836  -13.0449   20.9141 C   0  0  0  0  0  0
  -24.6403  -11.6918   20.8733 C   0  0  0  0  0  0
  -23.9073  -10.4302   21.0418 C   0  0  0  0  0  0
  -24.3621   -9.4206   21.9192 C   0  0  0  0  0  0
  -23.6291   -8.2240   22.0750 C   0  0  0  0  0  0
  -22.4272   -8.0286   21.3543 C   0  0  0  0  0  0
  -21.9923   -9.0272   20.4648 C   0  0  0  0  0  0
  -22.7250  -10.2143   20.3069 C   0  0  0  0  0  0
  -21.6861   -6.0748   22.5289 C   0  0  0  0  0  0
  -21.4020   -6.5655   23.8216 C   0  0  0  0  0  0
  -21.3656   -5.6805   24.9174 C   0  0  0  0  0  0
  -21.6033   -4.3068   24.7220 C   0  0  0  0  0  0
  -21.8820   -3.8165   23.4344 C   0  0  0  0  0  0
  -21.9193   -4.6982   22.3402 C   0  0  0  0  0  0
  -22.7868  -13.5243   21.1818 C   0  0  0  0  0  0
  -22.1665   -4.2170   21.0979 F   0  0  0  0  0  0
  -21.5602   -3.4546   25.7731 F   0  0  0  0  0  0
  -30.0310  -13.3145   20.4322 N   0  0  0  0  0  0
  -26.3029  -12.9356   20.3373 N   0  0  0  0  0  0
  -25.9329  -11.6518   20.5782 N   0  0  0  0  0  0
  -22.0530  -12.8228   22.0381 N   0  0  0  0  0  0
  -25.4335  -15.1901   20.4084 N   0  0  0  0  0  0
  -31.8555  -14.6335   20.1051 O   0  0  0  0  0  0
  -21.6626   -6.8891   21.4248 O   0  0  0  0  0  0
  -22.3559  -14.5571   20.6698 O   0  0  0  0  0  0
  -24.6166  -31.8693   23.2151 C   0  0  0  0  0  0
  -25.9059  -32.4825   23.8423 C   0  0  1  0  0  0
  -27.2260  -27.4259   20.0829 C   0  0  0  0  0  0
  -25.5919  -33.8624   24.2350 N   0  0  0  0  0  0
  -23.4038  -30.4966   21.5549 C   0  0  2  0  0  0
  -24.8451  -28.9621   20.1133 C   0  0  0  0  0  0
  -22.7397  -29.4707   22.5020 C   0  0  0  0  0  0
  -18.0296  -28.1366   22.8493 C   0  0  0  0  0  0
  -24.1481  -36.7311   23.2642 C   0  0  0  0  0  0
  -25.9350  -30.8261   21.3724 C   0  0  0  0  0  0
  -26.0066  -29.4630   20.7128 C   0  0  0  0  0  0
  -27.1976  -28.7011   20.6959 C   0  0  0  0  0  0
  -26.0444  -26.9472   19.4693 C   0  0  0  0  0  0
  -24.8588  -27.7044   19.4880 C   0  0  0  0  0  0
  -23.6106  -29.8315   20.1676 C   0  0  0  0  0  0
  -25.4104  -36.3109   24.0343 C   0  0  1  0  0  0
  -20.5871  -28.3704   23.1321 C   0  0  2  0  0  0
  -20.6796  -26.9437   22.5428 C   0  0  0  0  0  0
  -19.5790  -26.6396   21.5222 C   0  0  0  0  0  0
  -18.1963  -26.7920   22.1609 C   0  0  0  0  0  0
  -19.1529  -28.8847   23.2922 C   0  0  0  0  0  0
  -18.9441  -30.1457   23.8913 C   0  0  0  0  0  0
  -17.6444  -30.6586   24.0544 C   0  0  0  0  0  0
  -25.9037  -34.9479   23.5137 C   0  0  0  0  0  0
  -16.5351  -29.9057   23.6306 C   0  0  0  0  0  0
  -16.7281  -28.6473   23.0343 C   0  0  0  0  0  0
  -26.4483  -31.6618   25.0751 C   0  0  0  0  0  0
  -25.3755  -31.3723   26.1506 C   0  0  0  0  0  0
  -27.0335  -30.3065   24.6148 C   0  0  0  0  0  0
  -27.6072  -32.4338   25.7496 C   0  0  0  0  0  0
  -27.5587  -37.1813   24.8470 C   0  0  0  0  0  0
  -21.4120  -29.3122   22.3764 N   0  0  0  0  0  0
  -26.4305  -37.3787   23.9402 N   0  0  0  0  0  0
  -24.6702  -31.0783   22.1055 N   0  0  0  0  0  0
  -23.4158  -28.8207   23.3042 O   0  0  0  0  0  0
  -28.4045  -26.7028   20.1104 O   0  0  0  0  0  0
  -26.5580  -34.8940   22.4686 O   0  0  0  0  0  0
  -23.5356  -32.1470   23.7527 O   0  0  0  0  0  0
  -27.5119  -19.7715   21.8606 C   0  0  0  0  0  0
  -27.1144  -18.6182   22.5435 C   0  0  0  0  0  0
  -28.7171  -19.7017   21.1492 C   0  0  0  0  0  0
  -29.0288  -17.5528   21.8953 C   0  0  0  0  0  0
  -25.7766  -18.5354   23.2410 C   0  0  0  0  0  0
  -31.3107  -16.7077   22.5657 C   0  0  0  0  0  0
  -27.7256  -24.3215   20.5580 C   0  0  0  0  0  0
  -27.8895  -22.8370   20.1239 C   0  0  0  0  0  0
  -28.4417  -25.3438   19.6379 C   0  0  0  0  0  0
  -29.0220  -22.0874   20.8648 C   0  0  0  0  0  0
  -29.9205  -16.3137   22.0233 C   0  0  2  0  0  0
  -27.8916  -17.5236   22.5772 N   0  0  0  0  0  0
  -29.4501  -18.5661   21.1341 N   0  0  0  0  0  0
  -29.9629  -15.5735   20.7635 N   0  0  0  0  0  0
  -29.2399  -20.7431   20.4075 O   0  0  0  0  0  0
  -31.4661  -12.3823   19.1412 H   0  0  0  0  0  0
  -30.3072  -11.3025   19.8637 H   0  0  0  0  0  0
  -29.7335  -11.7360   17.4542 H   0  0  0  0  0  0
  -29.6733  -13.4544   17.7635 H   0  0  0  0  0  0
  -27.8301  -11.2950   18.8493 H   0  0  0  0  0  0
  -27.3679  -12.6015   17.7972 H   0  0  0  0  0  0
  -27.6902  -14.2482   19.5403 H   0  0  0  0  0  0
  -28.6758  -12.0239   21.3992 H   0  0  0  0  0  0
  -28.4734  -13.7011   21.8345 H   0  0  0  0  0  0
  -25.2772   -9.5664   22.4772 H   0  0  0  0  0  0
  -23.9995   -7.4619   22.7470 H   0  0  0  0  0  0
  -21.0860   -8.8813   19.8955 H   0  0  0  0  0  0
  -22.3732  -10.9687   19.6186 H   0  0  0  0  0  0
  -21.2024   -7.6168   23.9731 H   0  0  0  0  0  0
  -21.1477   -6.0527   25.9070 H   0  0  0  0  0  0
  -22.0603   -2.7634   23.2835 H   0  0  0  0  0  0
  -22.4151  -11.9851   22.4707 H   0  0  0  0  0  0
  -21.1171  -13.1290   22.2636 H   0  0  0  0  0  0
  -24.6830  -15.8589   20.5427 H   0  0  0  0  0  0
  -26.3159  -15.6256   20.1729 H   0  0  0  0  0  0
  -26.7125  -32.5510   23.1186 H   0  0  0  0  0  0
  -25.0077  -33.9780   25.0505 H   0  0  0  0  0  0
  -22.6954  -31.3173   21.4166 H   0  0  0  0  0  0
  -23.3742  -35.9648   23.3312 H   0  0  0  0  0  0
  -24.3583  -36.8900   22.2053 H   0  0  0  0  0  0
  -23.7245  -37.6530   23.6638 H   0  0  0  0  0  0
  -26.0589  -31.5946   20.6078 H   0  0  0  0  0  0
  -26.8205  -30.8709   21.9956 H   0  0  0  0  0  0
  -28.0971  -29.0827   21.1608 H   0  0  0  0  0  0
  -26.0122  -25.9924   18.9645 H   0  0  0  0  0  0
  -23.9672  -27.3171   19.0154 H   0  0  0  0  0  0
  -23.7255  -30.6074   19.4117 H   0  0  0  0  0  0
  -22.7317  -29.2569   19.8707 H   0  0  0  0  0  0
  -25.1284  -36.1976   25.0838 H   0  0  0  0  0  0
  -20.9939  -28.3248   24.1447 H   0  0  0  0  0  0
  -20.5699  -26.2296   23.3609 H   0  0  0  0  0  0
  -21.6671  -26.7462   22.1230 H   0  0  0  0  0  0
  -19.7013  -25.6317   21.1243 H   0  0  0  0  0  0
  -19.6750  -27.3175   20.6742 H   0  0  0  0  0  0
  -17.4237  -26.6689   21.4008 H   0  0  0  0  0  0
  -18.0366  -26.0053   22.8981 H   0  0  0  0  0  0
  -19.7888  -30.7305   24.2301 H   0  0  0  0  0  0
  -17.4970  -31.6288   24.5103 H   0  0  0  0  0  0
  -15.5351  -30.2946   23.7629 H   0  0  0  0  0  0
  -15.8703  -28.0785   22.7011 H   0  0  0  0  0  0
  -24.5908  -30.7097   25.7831 H   0  0  0  0  0  0
  -24.8987  -32.2889   26.4995 H   0  0  0  0  0  0
  -25.8121  -30.8850   27.0237 H   0  0  0  0  0  0
  -26.2899  -29.6809   24.1198 H   0  0  0  0  0  0
  -27.4103  -29.7319   25.4620 H   0  0  0  0  0  0
  -27.8733  -30.4389   23.9323 H   0  0  0  0  0  0
  -27.2699  -33.3614   26.2134 H   0  0  0  0  0  0
  -28.3849  -32.6937   25.0298 H   0  0  0  0  0  0
  -28.0790  -31.8431   26.5362 H   0  0  0  0  0  0
  -28.2615  -38.0095   24.7492 H   0  0  0  0  0  0
  -28.1067  -36.2632   24.6317 H   0  0  0  0  0  0
  -27.2305  -37.1482   25.8873 H   0  0  0  0  0  0
  -20.9266  -29.8865   21.7017 H   0  0  0  0  0  0
  -26.0191  -38.2870   24.1387 H   0  0  0  0  0  0
  -26.8936  -20.6578   21.8642 H   0  0  0  0  0  0
  -25.0486  -18.0762   22.5719 H   0  0  0  0  0  0
  -25.4096  -19.5244   23.5125 H   0  0  0  0  0  0
  -25.8391  -17.9323   24.1479 H   0  0  0  0  0  0
  -31.2108  -17.2782   23.4875 H   0  0  0  0  0  0
  -31.8508  -17.3336   21.8533 H   0  0  0  0  0  0
  -31.9240  -15.8355   22.7892 H   0  0  0  0  0  0
  -28.0605  -24.4450   21.5883 H   0  0  0  0  0  0
  -26.6606  -24.5487   20.5814 H   0  0  0  0  0  0
  -28.0408  -22.7788   19.0439 H   0  0  0  0  0  0
  -26.9511  -22.3158   20.3087 H   0  0  0  0  0  0
  -28.0720  -25.2764   18.6125 H   0  0  0  0  0  0
  -29.4933  -25.0653   19.5796 H   0  0  0  0  0  0
  -28.8597  -22.1152   21.9423 H   0  0  0  0  0  0
  -29.9569  -22.6251   20.7017 H   0  0  0  0  0  0
  -29.4671  -15.6569   22.7663 H   0  0  0  0  0  0
  -30.0362  -16.2500   20.0196 H   0  0  0  0  0  0
  1 25  1  0  0  0
  1 30  2  0  0  0
  1 84  1  0  0  0
  2  3  1  0  0  0
  2 25  1  0  0  0
  2 86  1  0  0  0
  2 87  1  0  0  0
  3  4  1  0  0  0
  3 88  1  0  0  0
  3 89  1  0  0  0
  4  5  1  0  0  0
  4 90  1  0  0  0
  4 91  1  0  0  0
  5  6  1  0  0  0
  5 26  1  0  0  0
  5 92  1  0  0  0
  6 25  1  0  0  0
  6 93  1  0  0  0
  6 94  1  0  0  0
  7  8  2  0  0  0
  7 26  1  0  0  0
  7 29  1  0  0  0
  8  9  1  0  0  0
  8 22  1  0  0  0
  9 10  1  0  0  0
  9 27  2  0  0  0
 10 11  2  0  0  0
 10 15  1  0  0  0
 11 12  1  0  0  0
 11 95  1  0  0  0
 12 13  2  0  0  0
 12 96  1  0  0  0
 13 14  1  0  0  0
 13 31  1  0  0  0
 14 15  2  0  0  0
 14 97  1  0  0  0
 15 98  1  0  0  0
 16 17  2  0  0  0
 16 21  1  0  0  0
 16 31  1  0  0  0
 17 18  1  0  0  0
 17 99  1  0  0  0
 18 19  2  0  0  0
 18100  1  0  0  0
 19 20  1  0  0  0
 19 24  1  0  0  0
 20 21  2  0  0  0
 20101  1  0  0  0
 21 23  1  0  0  0
 22 28  1  0  0  0
 22 32  2  0  0  0
 26 27  1  0  0  0
 28102  1  0  0  0
 28103  1  0  0  0
 29104  1  0  0  0
 29105  1  0  0  0
 33 34  1  0  0  0
 33 66  1  0  0  0
 33 70  2  0  0  0
 34 36  1  0  0  0
 34 59  1  0  0  0
 34106  1  0  0  0
 35 44  2  0  0  0
 35 45  1  0  0  0
 35 68  1  0  0  0
 36 56  1  0  0  0
 36107  1  0  0  0
 37 39  1  0  0  0
 37 47  1  0  0  0
 37 66  1  0  0  0
 37108  1  0  0  0
 38 43  2  0  0  0
 38 46  1  0  0  0
 38 47  1  0  0  0
 39 64  1  0  0  0
 39 67  2  0  0  0
 40 52  1  0  0  0
 40 53  2  0  0  0
 40 58  1  0  0  0
 41109  1  0  0  0
 41110  1  0  0  0
 41111  1  0  0  0
 41 48  1  0  0  0
 42 43  1  0  0  0
 42 66  1  0  0  0
 42112  1  0  0  0
 42113  1  0  0  0
 43 44  1  0  0  0
 44114  1  0  0  0
 45 46  2  0  0  0
 45115  1  0  0  0
 46116  1  0  0  0
 47117  1  0  0  0
 47118  1  0  0  0
 48 56  1  0  0  0
 48 65  1  0  0  0
 48119  1  0  0  0
 49 50  1  0  0  0
 49 53  1  0  0  0
 49 64  1  0  0  0
 49120  1  0  0  0
 50 51  1  0  0  0
 50121  1  0  0  0
 50122  1  0  0  0
 51 52  1  0  0  0
 51123  1  0  0  0
 51124  1  0  0  0
 52125  1  0  0  0
 52126  1  0  0  0
 53 54  1  0  0  0
 54 55  2  0  0  0
 54127  1  0  0  0
 55 57  1  0  0  0
 55128  1  0  0  0
 56 69  2  0  0  0
 57 58  2  0  0  0
 57129  1  0  0  0
 58130  1  0  0  0
 59 60  1  0  0  0
 59 61  1  0  0  0
 59 62  1  0  0  0
 60131  1  0  0  0
 60132  1  0  0  0
 60133  1  0  0  0
 61134  1  0  0  0
 61135  1  0  0  0
 61136  1  0  0  0
 62137  1  0  0  0
 62138  1  0  0  0
 62139  1  0  0  0
 63 65  1  0  0  0
 63140  1  0  0  0
 63141  1  0  0  0
 63142  1  0  0  0
 64143  1  0  0  0
 65144  1  0  0  0
 68 79  1  0  0  0
 71 72  2  0  0  0
 71 73  1  0  0  0
 71145  1  0  0  0
 72 75  1  0  0  0
 72 82  1  0  0  0
 73 83  2  0  0  0
 73 85  1  0  0  0
 74 81  1  0  0  0
 74 82  2  0  0  0
 74 83  1  0  0  0
 75146  1  0  0  0
 75147  1  0  0  0
 75148  1  0  0  0
 76149  1  0  0  0
 76150  1  0  0  0
 76151  1  0  0  0
 76 81  1  0  0  0
 77 78  1  0  0  0
 77 79  1  0  0  0
 77152  1  0  0  0
 77153  1  0  0  0
 78 80  1  0  0  0
 78154  1  0  0  0
 78155  1  0  0  0
 79156  1  0  0  0
 79157  1  0  0  0
 80 85  1  0  0  0
 80158  1  0  0  0
 80159  1  0  0  0
 81 84  1  0  0  0
 81160  1  0  0  0
 84161  1  0  0  0
M  ISO  4   1 100  68 101  79 101  84 100
M  END
> <chiral flag>
0

> <version>
0

> <s_m_source_file>
/data/baiqing/PycharmProjects/Reinvent-master-3.2/result/LINK_invent/BTK/process_docking_weight1_custom_sum_contain_oxygen_bond_distance_aromatic_linkinvent_7_9_3/rearranged_h_0073.sdf

> <i_m_source_file_index>
62

> <r_mmod_Potential_Energy-OPLS-2005>
-609.461181640625

> <r_mmod_Stretch_Energy-OPLS-2005>
35.3850364685059

> <r_mmod_Bend_Energy-OPLS-2005>
118.710182189941

> <r_mmod_Torsional_Energy-OPLS-2005>
261.677215576172

> <r_mmod_Improper_Torsional_Energy-OPLS-2005>
14.4269981384277

> <r_mmod_Van_der_Waal_Energy-OPLS-2005>
158.449203491211

> <r_mmod_Electrostatic_Energy-OPLS-2005>
-999.542419433594

> <r_mmod_Solvation_Energy-OPLS-2005>
-215.433486938477

> <b_mmod_Minimization_Converged-OPLS-2005>
0

> <r_mmod_RMS_Derivative-OPLS-2005>
2.97626638412476

$$$$
62
                    3D
 Structure written by MMmdl.
163171  0  0  1  0            999 V2000
  -30.6101  -14.7029   20.4988 C   0  0  0  0  0  0
  -30.4233  -12.4455   19.4306 C   0  0  0  0  0  0
  -29.4916  -12.5390   18.1998 C   0  0  0  0  0  0
  -28.0083  -12.3805   18.5993 C   0  0  0  0  0  0
  -27.6385  -13.2127   19.8552 C   0  0  2  0  0  0
  -28.6949  -13.0268   20.9657 C   0  0  0  0  0  0
  -25.2429  -13.8090   20.5664 C   0  0  0  0  0  0
  -24.1749  -13.0343   20.9182 C   0  0  0  0  0  0
  -24.6370  -11.6819   20.8732 C   0  0  0  0  0  0
  -23.9080  -10.4201   21.0403 C   0  0  0  0  0  0
  -24.3616   -9.4121   21.9200 C   0  0  0  0  0  0
  -23.6268   -8.2179   22.0784 C   0  0  0  0  0  0
  -22.4259   -8.0231   21.3555 C   0  0  0  0  0  0
  -21.9902   -9.0212   20.4668 C   0  0  0  0  0  0
  -22.7249  -10.2069   20.3064 C   0  0  0  0  0  0
  -21.6835   -6.0698   22.5276 C   0  0  0  0  0  0
  -21.3988   -6.5613   23.8210 C   0  0  0  0  0  0
  -21.3681   -5.6783   24.9185 C   0  0  0  0  0  0
  -21.6054   -4.3049   24.7249 C   0  0  0  0  0  0
  -21.8811   -3.8125   23.4380 C   0  0  0  0  0  0
  -21.9182   -4.6921   22.3414 C   0  0  0  0  0  0
  -22.7770  -13.5125   21.1858 C   0  0  0  0  0  0
  -22.1641   -4.2102   21.0998 F   0  0  0  0  0  0
  -21.5668   -3.4542   25.7780 F   0  0  0  0  0  0
  -29.9848  -13.4688   20.4179 N   0  0  0  0  0  0
  -26.2890  -12.9303   20.3289 N   0  0  0  0  0  0
  -25.9286  -11.6448   20.5710 N   0  0  0  0  0  0
  -22.0415  -12.8132   22.0422 N   0  0  0  0  0  0
  -25.4014  -15.1836   20.4102 N   0  0  0  0  0  0
  -31.7588  -14.7755   20.0471 O   0  0  0  0  0  0
  -21.6615   -6.8839   21.4244 O   0  0  0  0  0  0
  -22.3446  -14.5440   20.6726 O   0  0  0  0  0  0
  -24.6270  -31.8621   23.2063 C   0  0  0  0  0  0
  -25.9117  -32.4791   23.8390 C   0  0  1  0  0  0
  -27.2118  -27.3115   20.1047 C   0  0  0  0  0  0
  -25.5940  -33.8594   24.2328 N   0  0  0  0  0  0
  -23.4198  -30.4904   21.5495 C   0  0  2  0  0  0
  -24.8636  -28.9547   20.1047 C   0  0  0  0  0  0
  -22.7473  -29.4659   22.4933 C   0  0  0  0  0  0
  -18.0289  -28.1405   22.8472 C   0  0  0  0  0  0
  -24.1490  -36.7291   23.2636 C   0  0  0  0  0  0
  -25.9642  -30.7854   21.3860 C   0  0  0  0  0  0
  -26.0334  -29.4159   20.7213 C   0  0  0  0  0  0
  -27.2086  -28.6036   20.7192 C   0  0  0  0  0  0
  -26.0208  -26.9209   19.4434 C   0  0  0  0  0  0
  -24.8608  -27.7129   19.4559 C   0  0  0  0  0  0
  -23.6334  -29.8371   20.1601 C   0  0  0  0  0  0
  -25.4113  -36.3105   24.0343 C   0  0  1  0  0  0
  -20.5884  -28.3723   23.1260 C   0  0  2  0  0  0
  -20.6794  -26.9446   22.5402 C   0  0  0  0  0  0
  -19.5777  -26.6395   21.5207 C   0  0  0  0  0  0
  -18.1945  -26.7948   22.1606 C   0  0  0  0  0  0
  -19.1540  -28.8881   23.2861 C   0  0  0  0  0  0
  -18.9467  -30.1474   23.8895 C   0  0  0  0  0  0
  -17.6471  -30.6603   24.0570 C   0  0  0  0  0  0
  -25.9053  -34.9464   23.5138 C   0  0  0  0  0  0
  -16.5362  -29.9111   23.6332 C   0  0  0  0  0  0
  -16.7276  -28.6529   23.0344 C   0  0  0  0  0  0
  -26.4503  -31.6584   25.0750 C   0  0  0  0  0  0
  -25.3721  -31.3711   26.1461 C   0  0  0  0  0  0
  -27.0382  -30.3013   24.6220 C   0  0  0  0  0  0
  -27.6092  -32.4313   25.7492 C   0  0  0  0  0  0
  -27.5595  -37.1796   24.8469 C   0  0  0  0  0  0
  -21.4191  -29.3069   22.3650 N   0  0  0  0  0  0
  -26.4302  -37.3795   23.9422 N   0  0  0  0  0  0
  -24.6887  -31.0624   22.1029 N   0  0  0  0  0  0
  -23.4182  -28.8189   23.3013 O   0  0  0  0  0  0
  -28.3116  -26.4315   20.1703 O   0  0  0  0  0  0
  -26.5614  -34.8927   22.4698 O   0  0  0  0  0  0
  -23.5433  -32.1442   23.7372 O   0  0  0  0  0  0
  -29.2360  -19.3116   21.4699 C   0  0  0  0  0  0
  -29.1375  -21.0254   20.1332 C   0  0  0  0  0  0
  -29.5839  -19.8971   19.4344 C   0  0  0  0  0  0
  -29.9256  -19.8308   17.9768 C   0  0  0  0  0  0
  -28.7212  -16.8659   18.9099 C   0  0  0  0  0  0
  -28.6985  -15.9769   21.8666 C   0  0  0  0  0  0
  -31.0695  -16.6050   22.0750 C   0  0  0  0  0  0
  -28.6157  -22.4029   19.6141 C   0  0  0  0  0  0
  -29.0320  -23.8022   20.2573 C   0  0  0  0  0  0
  -28.0699  -25.0030   19.8347 C   0  0  0  0  0  0
  -29.8166  -17.2797   19.9238 C   0  0  2  0  0  0
  -30.0105  -16.1162   21.0555 C   0  0  0  0  0  0
  -28.9440  -20.6189   21.4485 N   0  0  0  0  0  0
  -29.5772  -18.7508   20.2912 N   0  0  0  0  0  0
  -31.4570  -12.5756   19.1133 H   0  0  0  0  0  0
  -30.3892  -11.4432   19.8588 H   0  0  0  0  0  0
  -29.7600  -11.7793   17.4628 H   0  0  0  0  0  0
  -29.6368  -13.5016   17.7063 H   0  0  0  0  0  0
  -27.8160  -11.3232   18.7802 H   0  0  0  0  0  0
  -27.3682  -12.6672   17.7638 H   0  0  0  0  0  0
  -27.6469  -14.2487   19.5311 H   0  0  0  0  0  0
  -28.7476  -11.9702   21.2315 H   0  0  0  0  0  0
  -28.4264  -13.5023   21.9001 H   0  0  0  0  0  0
  -25.2732   -9.5557   22.4828 H   0  0  0  0  0  0
  -23.9944   -7.4547   22.7501 H   0  0  0  0  0  0
  -21.0848   -8.8722   19.8973 H   0  0  0  0  0  0
  -22.3701  -10.9624   19.6198 H   0  0  0  0  0  0
  -21.1949   -7.6112   23.9679 H   0  0  0  0  0  0
  -21.1544   -6.0539   25.9089 H   0  0  0  0  0  0
  -22.0593   -2.7589   23.2897 H   0  0  0  0  0  0
  -22.4023  -11.9803   22.4828 H   0  0  0  0  0  0
  -21.1031  -13.1166   22.2626 H   0  0  0  0  0  0
  -24.6408  -15.8341   20.5690 H   0  0  0  0  0  0
  -26.2662  -15.6360   20.1446 H   0  0  0  0  0  0
  -26.7178  -32.5463   23.1136 H   0  0  0  0  0  0
  -25.0119  -33.9743   25.0496 H   0  0  0  0  0  0
  -22.7142  -31.3121   21.4132 H   0  0  0  0  0  0
  -23.3781  -35.9593   23.3285 H   0  0  0  0  0  0
  -24.3595  -36.8914   22.2054 H   0  0  0  0  0  0
  -23.7194  -37.6471   23.6655 H   0  0  0  0  0  0
  -26.1072  -31.5527   20.6245 H   0  0  0  0  0  0
  -26.8400  -30.8240   22.0210 H   0  0  0  0  0  0
  -28.1004  -28.9476   21.2244 H   0  0  0  0  0  0
  -25.9478  -25.9864   18.9074 H   0  0  0  0  0  0
  -23.9711  -27.3627   18.9509 H   0  0  0  0  0  0
  -23.7533  -30.6220   19.4131 H   0  0  0  0  0  0
  -22.7502  -29.2739   19.8544 H   0  0  0  0  0  0
  -25.1281  -36.1989   25.0836 H   0  0  0  0  0  0
  -20.9969  -28.3323   24.1383 H   0  0  0  0  0  0
  -20.5721  -26.2339   23.3606 H   0  0  0  0  0  0
  -21.6664  -26.7503   22.1193 H   0  0  0  0  0  0
  -19.6954  -25.6302   21.1254 H   0  0  0  0  0  0
  -19.6716  -27.3186   20.6718 H   0  0  0  0  0  0
  -17.4216  -26.6681   21.4008 H   0  0  0  0  0  0
  -18.0353  -26.0096   22.9012 H   0  0  0  0  0  0
  -19.7943  -30.7284   24.2261 H   0  0  0  0  0  0
  -17.5034  -31.6274   24.5187 H   0  0  0  0  0  0
  -15.5370  -30.3025   23.7657 H   0  0  0  0  0  0
  -15.8670  -28.0858   22.7062 H   0  0  0  0  0  0
  -24.5904  -30.7064   25.7763 H   0  0  0  0  0  0
  -24.8891  -32.2866   26.4888 H   0  0  0  0  0  0
  -25.8012  -30.8871   27.0239 H   0  0  0  0  0  0
  -26.2983  -29.6716   24.1264 H   0  0  0  0  0  0
  -27.4113  -29.7314   25.4741 H   0  0  0  0  0  0
  -27.8833  -30.4325   23.9459 H   0  0  0  0  0  0
  -27.2750  -33.3630   26.2065 H   0  0  0  0  0  0
  -28.3877  -32.6827   25.0278 H   0  0  0  0  0  0
  -28.0785  -31.8427   26.5384 H   0  0  0  0  0  0
  -28.2604  -38.0106   24.7566 H   0  0  0  0  0  0
  -28.1105  -36.2645   24.6248 H   0  0  0  0  0  0
  -27.2321  -37.1389   25.8871 H   0  0  0  0  0  0
  -20.9372  -29.8771   21.6840 H   0  0  0  0  0  0
  -26.0201  -38.2876   24.1426 H   0  0  0  0  0  0
  -29.1400  -18.7687   22.3919 H   0  0  0  0  0  0
  -30.4152  -20.7490   17.6531 H   0  0  0  0  0  0
  -29.0275  -19.7126   17.3719 H   0  0  0  0  0  0
  -30.6034  -19.0082   17.7482 H   0  0  0  0  0  0
  -28.8442  -15.8460   18.5554 H   0  0  0  0  0  0
  -28.7292  -17.4855   18.0181 H   0  0  0  0  0  0
  -27.7224  -16.9619   19.3361 H   0  0  0  0  0  0
  -28.2842  -16.9221   22.1954 H   0  0  0  0  0  0
  -28.8520  -15.3972   22.7753 H   0  0  0  0  0  0
  -27.8986  -15.5342   21.2881 H   0  0  0  0  0  0
  -30.6865  -17.3489   22.7698 H   0  0  0  0  0  0
  -31.9378  -17.0332   21.5735 H   0  0  0  0  0  0
  -31.4230  -15.7847   22.7015 H   0  0  0  0  0  0
  -27.5260  -22.3588   19.6587 H   0  0  0  0  0  0
  -28.8242  -22.4748   18.5465 H   0  0  0  0  0  0
  -30.0623  -24.0312   19.9871 H   0  0  0  0  0  0
  -29.0165  -23.7101   21.3416 H   0  0  0  0  0  0
  -27.1011  -24.7193   20.2508 H   0  0  0  0  0  0
  -27.9713  -24.9588   18.7503 H   0  0  0  0  0  0
  -30.7535  -17.2838   19.3663 H   0  0  0  0  0  0
  1 25  1  0  0  0
  1 30  2  0  0  0
  1 82  1  0  0  0
  2  3  1  0  0  0
  2 25  1  0  0  0
  2 85  1  0  0  0
  2 86  1  0  0  0
  3  4  1  0  0  0
  3 87  1  0  0  0
  3 88  1  0  0  0
  4  5  1  0  0  0
  4 89  1  0  0  0
  4 90  1  0  0  0
  5  6  1  0  0  0
  5 26  1  0  0  0
  5 91  1  0  0  0
  6 25  1  0  0  0
  6 92  1  0  0  0
  6 93  1  0  0  0
  7  8  2  0  0  0
  7 26  1  0  0  0
  7 29  1  0  0  0
  8  9  1  0  0  0
  8 22  1  0  0  0
  9 10  1  0  0  0
  9 27  2  0  0  0
 10 11  2  0  0  0
 10 15  1  0  0  0
 11 12  1  0  0  0
 11 94  1  0  0  0
 12 13  2  0  0  0
 12 95  1  0  0  0
 13 14  1  0  0  0
 13 31  1  0  0  0
 14 15  2  0  0  0
 14 96  1  0  0  0
 15 97  1  0  0  0
 16 17  2  0  0  0
 16 21  1  0  0  0
 16 31  1  0  0  0
 17 18  1  0  0  0
 17 98  1  0  0  0
 18 19  2  0  0  0
 18 99  1  0  0  0
 19 20  1  0  0  0
 19 24  1  0  0  0
 20 21  2  0  0  0
 20100  1  0  0  0
 21 23  1  0  0  0
 22 28  1  0  0  0
 22 32  2  0  0  0
 26 27  1  0  0  0
 28101  1  0  0  0
 28102  1  0  0  0
 29103  1  0  0  0
 29104  1  0  0  0
 33 34  1  0  0  0
 33 66  1  0  0  0
 33 70  2  0  0  0
 34 36  1  0  0  0
 34 59  1  0  0  0
 34105  1  0  0  0
 35 44  2  0  0  0
 35 45  1  0  0  0
 35 68  1  0  0  0
 36 56  1  0  0  0
 36106  1  0  0  0
 37 39  1  0  0  0
 37 47  1  0  0  0
 37 66  1  0  0  0
 37107  1  0  0  0
 38 43  2  0  0  0
 38 46  1  0  0  0
 38 47  1  0  0  0
 39 64  1  0  0  0
 39 67  2  0  0  0
 40 52  1  0  0  0
 40 53  2  0  0  0
 40 58  1  0  0  0
 41108  1  0  0  0
 41109  1  0  0  0
 41110  1  0  0  0
 41 48  1  0  0  0
 42 43  1  0  0  0
 42 66  1  0  0  0
 42111  1  0  0  0
 42112  1  0  0  0
 43 44  1  0  0  0
 44113  1  0  0  0
 45 46  2  0  0  0
 45114  1  0  0  0
 46115  1  0  0  0
 47116  1  0  0  0
 47117  1  0  0  0
 48 56  1  0  0  0
 48 65  1  0  0  0
 48118  1  0  0  0
 49 50  1  0  0  0
 49 53  1  0  0  0
 49 64  1  0  0  0
 49119  1  0  0  0
 50 51  1  0  0  0
 50120  1  0  0  0
 50121  1  0  0  0
 51 52  1  0  0  0
 51122  1  0  0  0
 51123  1  0  0  0
 52124  1  0  0  0
 52125  1  0  0  0
 53 54  1  0  0  0
 54 55  2  0  0  0
 54126  1  0  0  0
 55 57  1  0  0  0
 55127  1  0  0  0
 56 69  2  0  0  0
 57 58  2  0  0  0
 57128  1  0  0  0
 58129  1  0  0  0
 59 60  1  0  0  0
 59 61  1  0  0  0
 59 62  1  0  0  0
 60130  1  0  0  0
 60131  1  0  0  0
 60132  1  0  0  0
 61133  1  0  0  0
 61134  1  0  0  0
 61135  1  0  0  0
 62136  1  0  0  0
 62137  1  0  0  0
 62138  1  0  0  0
 63 65  1  0  0  0
 63139  1  0  0  0
 63140  1  0  0  0
 63141  1  0  0  0
 64142  1  0  0  0
 65143  1  0  0  0
 68 80  1  0  0  0
 71 83  2  0  0  0
 71 84  1  0  0  0
 71144  1  0  0  0
 72 73  2  0  0  0
 72 78  1  0  0  0
 72 83  1  0  0  0
 73 74  1  0  0  0
 73 84  1  0  0  0
 74145  1  0  0  0
 74146  1  0  0  0
 74147  1  0  0  0
 75148  1  0  0  0
 75149  1  0  0  0
 75150  1  0  0  0
 75 81  1  0  0  0
 76151  1  0  0  0
 76152  1  0  0  0
 76153  1  0  0  0
 76 82  1  0  0  0
 77 82  1  0  0  0
 77154  1  0  0  0
 77155  1  0  0  0
 77156  1  0  0  0
 78 79  1  0  0  0
 78157  1  0  0  0
 78158  1  0  0  0
 79 80  1  0  0  0
 79159  1  0  0  0
 79160  1  0  0  0
 80161  1  0  0  0
 80162  1  0  0  0
 81 82  1  0  0  0
 81 84  1  0  0  0
 81163  1  0  0  0
M  ISO  4   1 100  68 101  80 101  82 100
M  END
> <chiral flag>
0

> <version>
0

> <s_m_source_file>
/data/baiqing/PycharmProjects/Reinvent-master-3.2/result/LINK_invent/BTK/process_docking_weight1_custom_sum_contain_oxygen_bond_distance_aromatic_linkinvent_7_9_3/rearranged_h_0073.sdf

> <i_m_source_file_index>
63

> <r_mmod_Potential_Energy-OPLS-2005>
193.958267211914

> <r_mmod_Stretch_Energy-OPLS-2005>
114.250938415527

> <r_mmod_Bend_Energy-OPLS-2005>
194.490798950195

> <r_mmod_Torsional_Energy-OPLS-2005>
208.037414550781

> <r_mmod_Improper_Torsional_Energy-OPLS-2005>
3.77144312858582

> <r_mmod_Van_der_Waal_Energy-OPLS-2005>
142.011871337891

> <r_mmod_Electrostatic_Energy-OPLS-2005>
-325.740173339844

> <r_mmod_Solvation_Energy-OPLS-2005>
-203.176422119141

> <b_mmod_Minimization_Converged-OPLS-2005>
0

> <r_mmod_RMS_Derivative-OPLS-2005>
3.5858850479126

$$$$
63
                    3D
 Structure written by MMmdl.
173181  0  0  1  0            999 V2000
  -30.7666  -14.4541   20.6290 C   0  0  0  0  0  0
  -30.4088  -12.3149   19.4394 C   0  0  0  0  0  0
  -29.4924  -12.5127   18.2157 C   0  0  0  0  0  0
  -28.0143  -12.3742   18.6223 C   0  0  0  0  0  0
  -27.6570  -13.2193   19.8729 C   0  0  2  0  0  0
  -28.6932  -13.0172   20.9986 C   0  0  0  0  0  0
  -25.2518  -13.8173   20.5670 C   0  0  0  0  0  0
  -24.1803  -13.0430   20.9194 C   0  0  0  0  0  0
  -24.6392  -11.6918   20.8749 C   0  0  0  0  0  0
  -23.9081  -10.4296   21.0408 C   0  0  0  0  0  0
  -24.3626   -9.4214   21.9178 C   0  0  0  0  0  0
  -23.6299   -8.2250   22.0743 C   0  0  0  0  0  0
  -22.4279   -8.0291   21.3536 C   0  0  0  0  0  0
  -21.9923   -9.0270   20.4628 C   0  0  0  0  0  0
  -22.7259  -10.2141   20.3043 C   0  0  0  0  0  0
  -21.6864   -6.0753   22.5289 C   0  0  0  0  0  0
  -21.4020   -6.5644   23.8229 C   0  0  0  0  0  0
  -21.3662   -5.6780   24.9181 C   0  0  0  0  0  0
  -21.6052   -4.3050   24.7222 C   0  0  0  0  0  0
  -21.8821   -3.8151   23.4334 C   0  0  0  0  0  0
  -21.9194   -4.6980   22.3402 C   0  0  0  0  0  0
  -22.7821  -13.5220   21.1854 C   0  0  0  0  0  0
  -22.1652   -4.2170   21.0977 F   0  0  0  0  0  0
  -21.5634   -3.4525   25.7730 F   0  0  0  0  0  0
  -30.0317  -13.3132   20.4593 N   0  0  0  0  0  0
  -26.2990  -12.9387   20.3361 N   0  0  0  0  0  0
  -25.9326  -11.6532   20.5781 N   0  0  0  0  0  0
  -22.0457  -12.8208   22.0401 N   0  0  0  0  0  0
  -25.4127  -15.1876   20.4044 N   0  0  0  0  0  0
  -31.8471  -14.6084   20.0481 O   0  0  0  0  0  0
  -21.6636   -6.8894   21.4252 O   0  0  0  0  0  0
  -22.3501  -14.5529   20.6719 O   0  0  0  0  0  0
  -24.6143  -31.8686   23.2116 C   0  0  0  0  0  0
  -25.9050  -32.4819   23.8403 C   0  0  1  0  0  0
  -27.2320  -27.4302   20.1102 C   0  0  0  0  0  0
  -25.5918  -33.8619   24.2336 N   0  0  0  0  0  0
  -23.4028  -30.4916   21.5514 C   0  0  2  0  0  0
  -24.8506  -28.9532   20.1230 C   0  0  0  0  0  0
  -22.7413  -29.4672   22.5003 C   0  0  0  0  0  0
  -18.0281  -28.1384   22.8490 C   0  0  0  0  0  0
  -24.1491  -36.7317   23.2641 C   0  0  0  0  0  0
  -25.9309  -30.8303   21.3682 C   0  0  0  0  0  0
  -26.0092  -29.4597   20.7270 C   0  0  0  0  0  0
  -27.2043  -28.7028   20.7244 C   0  0  0  0  0  0
  -26.0650  -26.9428   19.4885 C   0  0  0  0  0  0
  -24.8719  -27.6897   19.5051 C   0  0  0  0  0  0
  -23.6130  -29.8210   20.1677 C   0  0  0  0  0  0
  -25.4111  -36.3111   24.0344 C   0  0  1  0  0  0
  -20.5870  -28.3670   23.1326 C   0  0  2  0  0  0
  -20.6779  -26.9407   22.5427 C   0  0  0  0  0  0
  -19.5763  -26.6386   21.5226 C   0  0  0  0  0  0
  -18.1935  -26.7928   22.1623 C   0  0  0  0  0  0
  -19.1529  -28.8846   23.2899 C   0  0  0  0  0  0
  -18.9454  -30.1448   23.8912 C   0  0  0  0  0  0
  -17.6458  -30.6589   24.0568 C   0  0  0  0  0  0
  -25.9043  -34.9475   23.5136 C   0  0  0  0  0  0
  -16.5352  -29.9092   23.6319 C   0  0  0  0  0  0
  -16.7268  -28.6510   23.0336 C   0  0  0  0  0  0
  -26.4480  -31.6580   25.0721 C   0  0  0  0  0  0
  -25.3741  -31.3680   26.1462 C   0  0  0  0  0  0
  -27.0320  -30.3024   24.6100 C   0  0  0  0  0  0
  -27.6069  -32.4277   25.7489 C   0  0  0  0  0  0
  -27.5582  -37.1809   24.8466 C   0  0  0  0  0  0
  -21.4150  -29.3034   22.3738 N   0  0  0  0  0  0
  -26.4293  -37.3793   23.9411 N   0  0  0  0  0  0
  -24.6673  -31.0784   22.1018 N   0  0  0  0  0  0
  -23.4185  -28.8223   23.3053 O   0  0  0  0  0  0
  -28.3880  -26.6913   20.0175 O   0  0  0  0  0  0
  -26.5593  -34.8928   22.4692 O   0  0  0  0  0  0
  -23.5345  -32.1451   23.7514 O   0  0  0  0  0  0
  -28.5310  -21.2143   22.2211 C   0  0  0  0  0  0
  -28.2898  -23.2680   21.7391 C   0  0  0  0  0  0
  -25.2783  -21.4415   21.8668 C   0  0  0  0  0  0
  -26.6224  -25.0345   22.3541 C   0  0  0  0  0  0
  -29.7394  -19.0196   19.7994 C   0  0  0  0  0  0
  -28.0579  -17.2998   20.5029 C   0  0  0  0  0  0
  -30.0863  -15.3698   22.7678 C   0  0  0  0  0  0
  -28.2148  -19.7537   22.4850 C   0  0  0  0  0  0
  -29.3360  -18.6991   22.2514 C   0  0  0  0  0  0
  -26.4347  -21.7266   20.8892 C   0  0  0  0  0  0
  -30.5445  -16.8887   20.8752 C   0  0  0  0  0  0
  -28.6946  -25.7442   21.0587 C   0  0  0  0  0  0
  -27.6669  -24.5948   21.3131 C   0  0  1  0  0  0
  -29.4004  -17.9651   20.8735 C   0  0  0  0  0  0
  -29.5656  -21.8495   22.7832 N   0  0  0  0  0  0
  -29.3995  -23.1844   22.4855 N   0  0  0  0  0  0
  -27.6882  -22.0565   21.5669 N   0  0  0  0  0  0
  -30.2103  -15.4986   21.3100 N   0  0  0  0  0  0
  -31.4564  -12.3848   19.1413 H   0  0  0  0  0  0
  -30.2918  -11.3086   19.8427 H   0  0  0  0  0  0
  -29.7367  -11.7841   17.4412 H   0  0  0  0  0  0
  -29.6663  -13.4961   17.7795 H   0  0  0  0  0  0
  -27.8254  -11.3198   18.8244 H   0  0  0  0  0  0
  -27.3647  -12.6435   17.7885 H   0  0  0  0  0  0
  -27.6956  -14.2667   19.5726 H   0  0  0  0  0  0
  -28.6646  -11.9897   21.3625 H   0  0  0  0  0  0
  -28.4243  -13.6361   21.8510 H   0  0  0  0  0  0
  -25.2775   -9.5696   22.4746 H   0  0  0  0  0  0
  -24.0023   -7.4643   22.7447 H   0  0  0  0  0  0
  -21.0863   -8.8807   19.8912 H   0  0  0  0  0  0
  -22.3742  -10.9689   19.6145 H   0  0  0  0  0  0
  -21.2004   -7.6148   23.9758 H   0  0  0  0  0  0
  -21.1480   -6.0486   25.9092 H   0  0  0  0  0  0
  -22.0589   -2.7622   23.2821 H   0  0  0  0  0  0
  -22.4075  -11.9910   22.4853 H   0  0  0  0  0  0
  -21.1068  -13.1235   22.2568 H   0  0  0  0  0  0
  -24.6433  -15.8359   20.5265 H   0  0  0  0  0  0
  -26.2743  -15.6377   20.1240 H   0  0  0  0  0  0
  -26.7125  -32.5545   23.1172 H   0  0  0  0  0  0
  -25.0058  -33.9769   25.0476 H   0  0  0  0  0  0
  -22.6915  -31.3084   21.4096 H   0  0  0  0  0  0
  -23.3748  -35.9654   23.3315 H   0  0  0  0  0  0
  -24.3592  -36.8923   22.2053 H   0  0  0  0  0  0
  -23.7249  -37.6534   23.6639 H   0  0  0  0  0  0
  -26.0425  -31.5902   20.5926 H   0  0  0  0  0  0
  -26.8194  -30.8888   21.9839 H   0  0  0  0  0  0
  -28.1024  -29.0948   21.1817 H   0  0  0  0  0  0
  -26.0807  -25.9855   18.9882 H   0  0  0  0  0  0
  -23.9832  -27.2959   19.0302 H   0  0  0  0  0  0
  -23.7227  -30.5932   19.4056 H   0  0  0  0  0  0
  -22.7365  -29.2420   19.8710 H   0  0  0  0  0  0
  -25.1280  -36.1981   25.0834 H   0  0  0  0  0  0
  -20.9940  -28.3236   24.1453 H   0  0  0  0  0  0
  -20.5717  -26.2268   23.3612 H   0  0  0  0  0  0
  -21.6644  -26.7474   22.1201 H   0  0  0  0  0  0
  -19.6931  -25.6302   21.1244 H   0  0  0  0  0  0
  -19.6708  -27.3198   20.6762 H   0  0  0  0  0  0
  -17.4205  -26.6684   21.4016 H   0  0  0  0  0  0
  -18.0325  -26.0074   22.9018 H   0  0  0  0  0  0
  -19.7934  -30.7257   24.2287 H   0  0  0  0  0  0
  -17.5019  -31.6270   24.5171 H   0  0  0  0  0  0
  -15.5350  -30.3001   23.7653 H   0  0  0  0  0  0
  -15.8667  -28.0851   22.7029 H   0  0  0  0  0  0
  -24.5920  -30.7026   25.7788 H   0  0  0  0  0  0
  -24.8921  -32.2827   26.4914 H   0  0  0  0  0  0
  -25.8087  -30.8841   27.0215 H   0  0  0  0  0  0
  -26.2869  -29.6773   24.1160 H   0  0  0  0  0  0
  -27.4102  -29.7272   25.4565 H   0  0  0  0  0  0
  -27.8698  -30.4356   23.9254 H   0  0  0  0  0  0
  -27.2708  -33.3564   26.2110 H   0  0  0  0  0  0
  -28.3861  -32.6842   25.0299 H   0  0  0  0  0  0
  -28.0745  -31.8357   26.5365 H   0  0  0  0  0  0
  -28.2597  -38.0104   24.7496 H   0  0  0  0  0  0
  -28.1071  -36.2631   24.6293 H   0  0  0  0  0  0
  -27.2296  -37.1464   25.8868 H   0  0  0  0  0  0
  -20.9328  -29.8728   21.6927 H   0  0  0  0  0  0
  -26.0193  -38.2882   24.1389 H   0  0  0  0  0  0
  -24.3541  -21.2614   21.3175 H   0  0  0  0  0  0
  -25.0925  -22.2731   22.5437 H   0  0  0  0  0  0
  -25.4589  -20.5645   22.4864 H   0  0  0  0  0  0
  -25.8097  -24.3168   22.4237 H   0  0  0  0  0  0
  -26.1744  -25.9966   22.1156 H   0  0  0  0  0  0
  -27.0729  -25.1219   23.3434 H   0  0  0  0  0  0
  -28.9874  -19.8075   19.7483 H   0  0  0  0  0  0
  -29.7958  -18.5765   18.8034 H   0  0  0  0  0  0
  -30.7006  -19.4969   19.9989 H   0  0  0  0  0  0
  -27.2758  -18.0293   20.2949 H   0  0  0  0  0  0
  -27.6980  -16.6565   21.3060 H   0  0  0  0  0  0
  -28.1582  -16.6874   19.6051 H   0  0  0  0  0  0
  -29.0668  -15.5916   23.0835 H   0  0  0  0  0  0
  -30.7578  -16.0541   23.2872 H   0  0  0  0  0  0
  -30.3245  -14.3655   23.1214 H   0  0  0  0  0  0
  -27.3169  -19.4553   21.9542 H   0  0  0  0  0  0
  -27.9350  -19.7048   23.5383 H   0  0  0  0  0  0
  -29.1793  -17.9347   23.0102 H   0  0  0  0  0  0
  -30.3021  -19.1386   22.5019 H   0  0  0  0  0  0
  -26.1539  -22.5323   20.2149 H   0  0  0  0  0  0
  -26.6068  -20.8617   20.2473 H   0  0  0  0  0  0
  -31.4052  -17.2496   21.4402 H   0  0  0  0  0  0
  -30.9139  -16.8400   19.8489 H   0  0  0  0  0  0
  -29.6354  -25.2979   20.7340 H   0  0  0  0  0  0
  -28.9292  -26.2700   21.9853 H   0  0  0  0  0  0
  -27.1721  -24.4185   20.3612 H   0  0  0  0  0  0
  1 25  1  0  0  0
  1 30  2  0  0  0
  1 88  1  0  0  0
  2  3  1  0  0  0
  2 25  1  0  0  0
  2 89  1  0  0  0
  2 90  1  0  0  0
  3  4  1  0  0  0
  3 91  1  0  0  0
  3 92  1  0  0  0
  4  5  1  0  0  0
  4 93  1  0  0  0
  4 94  1  0  0  0
  5  6  1  0  0  0
  5 26  1  0  0  0
  5 95  1  0  0  0
  6 25  1  0  0  0
  6 96  1  0  0  0
  6 97  1  0  0  0
  7  8  2  0  0  0
  7 26  1  0  0  0
  7 29  1  0  0  0
  8  9  1  0  0  0
  8 22  1  0  0  0
  9 10  1  0  0  0
  9 27  2  0  0  0
 10 11  2  0  0  0
 10 15  1  0  0  0
 11 12  1  0  0  0
 11 98  1  0  0  0
 12 13  2  0  0  0
 12 99  1  0  0  0
 13 14  1  0  0  0
 13 31  1  0  0  0
 14 15  2  0  0  0
 14100  1  0  0  0
 15101  1  0  0  0
 16 17  2  0  0  0
 16 21  1  0  0  0
 16 31  1  0  0  0
 17 18  1  0  0  0
 17102  1  0  0  0
 18 19  2  0  0  0
 18103  1  0  0  0
 19 20  1  0  0  0
 19 24  1  0  0  0
 20 21  2  0  0  0
 20104  1  0  0  0
 21 23  1  0  0  0
 22 28  1  0  0  0
 22 32  2  0  0  0
 26 27  1  0  0  0
 28105  1  0  0  0
 28106  1  0  0  0
 29107  1  0  0  0
 29108  1  0  0  0
 33 34  1  0  0  0
 33 66  1  0  0  0
 33 70  2  0  0  0
 34 36  1  0  0  0
 34 59  1  0  0  0
 34109  1  0  0  0
 35 44  2  0  0  0
 35 45  1  0  0  0
 35 68  1  0  0  0
 36 56  1  0  0  0
 36110  1  0  0  0
 37 39  1  0  0  0
 37 47  1  0  0  0
 37 66  1  0  0  0
 37111  1  0  0  0
 38 43  2  0  0  0
 38 46  1  0  0  0
 38 47  1  0  0  0
 39 64  1  0  0  0
 39 67  2  0  0  0
 40 52  1  0  0  0
 40 53  2  0  0  0
 40 58  1  0  0  0
 41112  1  0  0  0
 41113  1  0  0  0
 41114  1  0  0  0
 41 48  1  0  0  0
 42 43  1  0  0  0
 42 66  1  0  0  0
 42115  1  0  0  0
 42116  1  0  0  0
 43 44  1  0  0  0
 44117  1  0  0  0
 45 46  2  0  0  0
 45118  1  0  0  0
 46119  1  0  0  0
 47120  1  0  0  0
 47121  1  0  0  0
 48 56  1  0  0  0
 48 65  1  0  0  0
 48122  1  0  0  0
 49 50  1  0  0  0
 49 53  1  0  0  0
 49 64  1  0  0  0
 49123  1  0  0  0
 50 51  1  0  0  0
 50124  1  0  0  0
 50125  1  0  0  0
 51 52  1  0  0  0
 51126  1  0  0  0
 51127  1  0  0  0
 52128  1  0  0  0
 52129  1  0  0  0
 53 54  1  0  0  0
 54 55  2  0  0  0
 54130  1  0  0  0
 55 57  1  0  0  0
 55131  1  0  0  0
 56 69  2  0  0  0
 57 58  2  0  0  0
 57132  1  0  0  0
 58133  1  0  0  0
 59 60  1  0  0  0
 59 61  1  0  0  0
 59 62  1  0  0  0
 60134  1  0  0  0
 60135  1  0  0  0
 60136  1  0  0  0
 61137  1  0  0  0
 61138  1  0  0  0
 61139  1  0  0  0
 62140  1  0  0  0
 62141  1  0  0  0
 62142  1  0  0  0
 63 65  1  0  0  0
 63143  1  0  0  0
 63144  1  0  0  0
 63145  1  0  0  0
 64146  1  0  0  0
 65147  1  0  0  0
 68 82  1  0  0  0
 71 78  1  0  0  0
 71 85  2  0  0  0
 71 87  1  0  0  0
 72 83  1  0  0  0
 72 86  2  0  0  0
 72 87  1  0  0  0
 73 80  1  0  0  0
 73148  1  0  0  0
 73149  1  0  0  0
 73150  1  0  0  0
 74151  1  0  0  0
 74152  1  0  0  0
 74153  1  0  0  0
 74 83  1  0  0  0
 75154  1  0  0  0
 75155  1  0  0  0
 75156  1  0  0  0
 75 84  1  0  0  0
 76 84  1  0  0  0
 76157  1  0  0  0
 76158  1  0  0  0
 76159  1  0  0  0
 77 88  1  0  0  0
 77160  1  0  0  0
 77161  1  0  0  0
 77162  1  0  0  0
 78 79  1  0  0  0
 78163  1  0  0  0
 78164  1  0  0  0
 79 84  1  0  0  0
 79165  1  0  0  0
 79166  1  0  0  0
 80 87  1  0  0  0
 80167  1  0  0  0
 80168  1  0  0  0
 81 84  1  0  0  0
 81 88  1  0  0  0
 81169  1  0  0  0
 81170  1  0  0  0
 82 83  1  0  0  0
 82171  1  0  0  0
 82172  1  0  0  0
 83173  1  0  0  0
 85 86  1  0  0  0
M  ISO  4   1 100  68 101  82 101  88 100
M  END
> <chiral flag>
0

> <version>
0

> <s_m_source_file>
/data/baiqing/PycharmProjects/Reinvent-master-3.2/result/LINK_invent/BTK/process_docking_weight1_custom_sum_contain_oxygen_bond_distance_aromatic_linkinvent_7_9_3/rearranged_h_0073.sdf

> <i_m_source_file_index>
64

> <r_mmod_Potential_Energy-OPLS-2005>
130.445999145508

> <r_mmod_Stretch_Energy-OPLS-2005>
47.7678642272949

> <r_mmod_Bend_Energy-OPLS-2005>
140.925308227539

> <r_mmod_Torsional_Energy-OPLS-2005>
334.013977050781

> <r_mmod_Improper_Torsional_Energy-OPLS-2005>
8.68603229522705

> <r_mmod_Van_der_Waal_Energy-OPLS-2005>
127.379493713379

> <r_mmod_Electrostatic_Energy-OPLS-2005>
-327.590118408203

> <r_mmod_Solvation_Energy-OPLS-2005>
-212.20361328125

> <b_mmod_Minimization_Converged-OPLS-2005>
0

> <r_mmod_RMS_Derivative-OPLS-2005>
1.89411687850952

$$$$
64
                    3D
 Structure written by MMmdl.
164172  0  0  1  0            999 V2000
  -30.7899  -14.4157   20.7091 C   0  0  0  0  0  0
  -30.4118  -12.3222   19.4255 C   0  0  0  0  0  0
  -29.4920  -12.5296   18.2075 C   0  0  0  0  0  0
  -28.0173  -12.3625   18.6129 C   0  0  0  0  0  0
  -27.6614  -13.2028   19.8634 C   0  0  2  0  0  0
  -28.6964  -12.9913   20.9888 C   0  0  0  0  0  0
  -25.2602  -13.8153   20.5640 C   0  0  0  0  0  0
  -24.1853  -13.0436   20.9161 C   0  0  0  0  0  0
  -24.6397  -11.6902   20.8718 C   0  0  0  0  0  0
  -23.9057  -10.4295   21.0399 C   0  0  0  0  0  0
  -24.3610   -9.4216   21.9180 C   0  0  0  0  0  0
  -23.6287   -8.2250   22.0757 C   0  0  0  0  0  0
  -22.4270   -8.0281   21.3546 C   0  0  0  0  0  0
  -21.9903   -9.0254   20.4648 C   0  0  0  0  0  0
  -22.7229  -10.2133   20.3054 C   0  0  0  0  0  0
  -21.6853   -6.0734   22.5279 C   0  0  0  0  0  0
  -21.4015   -6.5639   23.8214 C   0  0  0  0  0  0
  -21.3659   -5.6791   24.9177 C   0  0  0  0  0  0
  -21.6044   -4.3053   24.7226 C   0  0  0  0  0  0
  -21.8820   -3.8145   23.4348 C   0  0  0  0  0  0
  -21.9192   -4.6961   22.3405 C   0  0  0  0  0  0
  -22.7881  -13.5246   21.1833 C   0  0  0  0  0  0
  -22.1659   -4.2146   21.0980 F   0  0  0  0  0  0
  -21.5628   -3.4537   25.7740 F   0  0  0  0  0  0
  -30.0407  -13.2941   20.4750 N   0  0  0  0  0  0
  -26.3022  -12.9312   20.3281 N   0  0  0  0  0  0
  -25.9316  -11.6476   20.5712 N   0  0  0  0  0  0
  -22.0517  -12.8243   22.0394 N   0  0  0  0  0  0
  -25.4329  -15.1864   20.4032 N   0  0  0  0  0  0
  -31.7716  -14.6424   19.9934 O   0  0  0  0  0  0
  -21.6637   -6.8876   21.4241 O   0  0  0  0  0  0
  -22.3561  -14.5549   20.6679 O   0  0  0  0  0  0
  -24.6152  -31.8690   23.2115 C   0  0  0  0  0  0
  -25.9049  -32.4828   23.8407 C   0  0  1  0  0  0
  -27.2264  -27.4234   20.0890 C   0  0  0  0  0  0
  -25.5901  -33.8628   24.2331 N   0  0  0  0  0  0
  -23.4026  -30.4949   21.5536 C   0  0  2  0  0  0
  -24.8458  -28.9667   20.1130 C   0  0  0  0  0  0
  -22.7417  -29.4658   22.4993 C   0  0  0  0  0  0
  -18.0275  -28.1366   22.8491 C   0  0  0  0  0  0
  -24.1486  -36.7318   23.2637 C   0  0  0  0  0  0
  -25.9347  -30.8311   21.3677 C   0  0  0  0  0  0
  -26.0102  -29.4677   20.7082 C   0  0  0  0  0  0
  -27.2036  -28.7056   20.6903 C   0  0  0  0  0  0
  -26.0369  -26.9470   19.4838 C   0  0  0  0  0  0
  -24.8551  -27.7064   19.4973 C   0  0  0  0  0  0
  -23.6093  -29.8338   20.1663 C   0  0  0  0  0  0
  -25.4107  -36.3115   24.0334 C   0  0  1  0  0  0
  -20.5863  -28.3657   23.1312 C   0  0  2  0  0  0
  -20.6760  -26.9394   22.5413 C   0  0  0  0  0  0
  -19.5743  -26.6381   21.5204 C   0  0  0  0  0  0
  -18.1922  -26.7915   22.1619 C   0  0  0  0  0  0
  -19.1523  -28.8828   23.2898 C   0  0  0  0  0  0
  -18.9453  -30.1433   23.8907 C   0  0  0  0  0  0
  -17.6456  -30.6576   24.0558 C   0  0  0  0  0  0
  -25.9038  -34.9480   23.5129 C   0  0  0  0  0  0
  -16.5346  -29.9075   23.6319 C   0  0  0  0  0  0
  -16.7266  -28.6489   23.0346 C   0  0  0  0  0  0
  -26.4468  -31.6609   25.0741 C   0  0  0  0  0  0
  -25.3728  -31.3712   26.1483 C   0  0  0  0  0  0
  -27.0313  -30.3053   24.6131 C   0  0  0  0  0  0
  -27.6040  -32.4337   25.7503 C   0  0  0  0  0  0
  -27.5585  -37.1811   24.8459 C   0  0  0  0  0  0
  -21.4145  -29.3027   22.3728 N   0  0  0  0  0  0
  -26.4291  -37.3802   23.9410 N   0  0  0  0  0  0
  -24.6693  -31.0787   22.1021 N   0  0  0  0  0  0
  -23.4192  -28.8193   23.3028 O   0  0  0  0  0  0
  -28.3874  -26.6660   20.1135 O   0  0  0  0  0  0
  -26.5607  -34.8931   22.4695 O   0  0  0  0  0  0
  -23.5343  -32.1447   23.7502 O   0  0  0  0  0  0
  -29.9032  -19.6429   19.6366 C   0  0  0  0  0  0
  -29.6389  -18.2784   19.8844 C   0  0  0  0  0  0
  -30.0787  -20.4943   20.7474 C   0  0  0  0  0  0
  -29.5716  -17.8476   21.2278 C   0  0  0  0  0  0
  -28.1385  -16.3347   22.6411 C   0  0  0  0  0  0
  -30.4647  -14.6819   23.2497 C   0  0  0  0  0  0
  -31.8186  -16.2999   22.0511 C   0  0  0  0  0  0
  -30.3967  -21.9817   20.5750 C   0  0  0  0  0  0
  -29.1543  -22.8853   20.4002 C   0  0  0  0  0  0
  -29.4607  -24.4081   20.3539 C   0  0  0  0  0  0
  -28.2165  -25.2420   19.9813 C   0  0  0  0  0  0
  -29.2718  -16.3728   21.5851 C   0  0  2  0  0  0
  -30.5275  -15.4355   21.8874 C   0  0  0  0  0  0
  -29.9945  -20.0252   22.0185 N   0  0  0  0  0  0
  -29.7605  -18.7253   22.2526 N   0  0  0  0  0  0
  -31.4576  -12.3983   19.1238 H   0  0  0  0  0  0
  -30.3014  -11.3076   19.8120 H   0  0  0  0  0  0
  -29.7458  -11.8206   17.4185 H   0  0  0  0  0  0
  -29.6520  -13.5250   17.7905 H   0  0  0  0  0  0
  -27.8427  -11.3046   18.8140 H   0  0  0  0  0  0
  -27.3633  -12.6259   17.7810 H   0  0  0  0  0  0
  -27.7043  -14.2483   19.5598 H   0  0  0  0  0  0
  -28.6653  -11.9636   21.3539 H   0  0  0  0  0  0
  -28.4031  -13.6076   21.8220 H   0  0  0  0  0  0
  -25.2756   -9.5693   22.4752 H   0  0  0  0  0  0
  -23.9997   -7.4646   22.7480 H   0  0  0  0  0  0
  -21.0835   -8.8768   19.8955 H   0  0  0  0  0  0
  -22.3684  -10.9669   19.6159 H   0  0  0  0  0  0
  -21.2010   -7.6145   23.9717 H   0  0  0  0  0  0
  -21.1480   -6.0520   25.9079 H   0  0  0  0  0  0
  -22.0599   -2.7607   23.2849 H   0  0  0  0  0  0
  -22.4119  -11.9893   22.4776 H   0  0  0  0  0  0
  -21.1145  -13.1286   22.2603 H   0  0  0  0  0  0
  -24.6673  -15.8426   20.5108 H   0  0  0  0  0  0
  -26.2839  -15.6232   20.0750 H   0  0  0  0  0  0
  -26.7124  -32.5531   23.1173 H   0  0  0  0  0  0
  -25.0041  -33.9791   25.0468 H   0  0  0  0  0  0
  -22.6907  -31.3115   21.4186 H   0  0  0  0  0  0
  -23.3752  -35.9646   23.3290 H   0  0  0  0  0  0
  -24.3584  -36.8951   22.2056 H   0  0  0  0  0  0
  -23.7234  -37.6516   23.6663 H   0  0  0  0  0  0
  -26.0534  -31.6008   20.6040 H   0  0  0  0  0  0
  -26.8195  -30.8771   21.9907 H   0  0  0  0  0  0
  -28.1017  -29.0892   21.1545 H   0  0  0  0  0  0
  -25.9921  -25.9870   18.9919 H   0  0  0  0  0  0
  -23.9601  -27.3171   19.0311 H   0  0  0  0  0  0
  -23.7175  -30.6116   19.4098 H   0  0  0  0  0  0
  -22.7323  -29.2555   19.8701 H   0  0  0  0  0  0
  -25.1280  -36.1982   25.0826 H   0  0  0  0  0  0
  -20.9950  -28.3221   24.1435 H   0  0  0  0  0  0
  -20.5657  -26.2265   23.3599 H   0  0  0  0  0  0
  -21.6633  -26.7436   22.1213 H   0  0  0  0  0  0
  -19.6902  -25.6296   21.1226 H   0  0  0  0  0  0
  -19.6676  -27.3193   20.6733 H   0  0  0  0  0  0
  -17.4191  -26.6663   21.4020 H   0  0  0  0  0  0
  -18.0323  -26.0048   22.9006 H   0  0  0  0  0  0
  -19.7931  -30.7237   24.2290 H   0  0  0  0  0  0
  -17.5015  -31.6257   24.5161 H   0  0  0  0  0  0
  -15.5347  -30.2980   23.7633 H   0  0  0  0  0  0
  -15.8668  -28.0810   22.7054 H   0  0  0  0  0  0
  -24.5892  -30.7073   25.7805 H   0  0  0  0  0  0
  -24.8927  -32.2867   26.4946 H   0  0  0  0  0  0
  -25.8074  -30.8862   27.0232 H   0  0  0  0  0  0
  -26.2869  -29.6813   24.1168 H   0  0  0  0  0  0
  -27.4060  -29.7294   25.4602 H   0  0  0  0  0  0
  -27.8713  -30.4376   23.9307 H   0  0  0  0  0  0
  -27.2656  -33.3626   26.2104 H   0  0  0  0  0  0
  -28.3831  -32.6918   25.0319 H   0  0  0  0  0  0
  -28.0727  -31.8450   26.5400 H   0  0  0  0  0  0
  -28.2587  -38.0125   24.7542 H   0  0  0  0  0  0
  -28.1099  -36.2662   24.6239 H   0  0  0  0  0  0
  -27.2311  -37.1407   25.8862 H   0  0  0  0  0  0
  -20.9303  -29.8776   21.6975 H   0  0  0  0  0  0
  -26.0181  -38.2876   24.1424 H   0  0  0  0  0  0
  -29.9725  -20.0235   18.6279 H   0  0  0  0  0  0
  -29.4961  -17.5856   19.0675 H   0  0  0  0  0  0
  -27.2943  -16.9439   22.3164 H   0  0  0  0  0  0
  -28.4743  -16.7349   23.5977 H   0  0  0  0  0  0
  -27.7424  -15.3410   22.8274 H   0  0  0  0  0  0
  -30.5177  -15.3798   24.0858 H   0  0  0  0  0  0
  -31.3102  -14.0007   23.3581 H   0  0  0  0  0  0
  -29.5736  -14.0883   23.4212 H   0  0  0  0  0  0
  -31.7430  -16.9895   22.8921 H   0  0  0  0  0  0
  -32.0448  -16.8962   21.1657 H   0  0  0  0  0  0
  -32.6964  -15.6800   22.2408 H   0  0  0  0  0  0
  -31.0597  -22.0970   19.7168 H   0  0  0  0  0  0
  -30.9698  -22.3150   21.4414 H   0  0  0  0  0  0
  -28.4578  -22.6915   21.2168 H   0  0  0  0  0  0
  -28.6368  -22.5894   19.4865 H   0  0  0  0  0  0
  -30.2535  -24.6089   19.6323 H   0  0  0  0  0  0
  -29.8380  -24.7287   21.3255 H   0  0  0  0  0  0
  -27.3926  -24.9186   20.6210 H   0  0  0  0  0  0
  -27.9457  -25.0028   18.9517 H   0  0  0  0  0  0
  -28.7988  -15.9850   20.6830 H   0  0  0  0  0  0
  1 25  1  0  0  0
  1 30  2  0  0  0
  1 83  1  0  0  0
  2  3  1  0  0  0
  2 25  1  0  0  0
  2 86  1  0  0  0
  2 87  1  0  0  0
  3  4  1  0  0  0
  3 88  1  0  0  0
  3 89  1  0  0  0
  4  5  1  0  0  0
  4 90  1  0  0  0
  4 91  1  0  0  0
  5  6  1  0  0  0
  5 26  1  0  0  0
  5 92  1  0  0  0
  6 25  1  0  0  0
  6 93  1  0  0  0
  6 94  1  0  0  0
  7  8  2  0  0  0
  7 26  1  0  0  0
  7 29  1  0  0  0
  8  9  1  0  0  0
  8 22  1  0  0  0
  9 10  1  0  0  0
  9 27  2  0  0  0
 10 11  2  0  0  0
 10 15  1  0  0  0
 11 12  1  0  0  0
 11 95  1  0  0  0
 12 13  2  0  0  0
 12 96  1  0  0  0
 13 14  1  0  0  0
 13 31  1  0  0  0
 14 15  2  0  0  0
 14 97  1  0  0  0
 15 98  1  0  0  0
 16 17  2  0  0  0
 16 21  1  0  0  0
 16 31  1  0  0  0
 17 18  1  0  0  0
 17 99  1  0  0  0
 18 19  2  0  0  0
 18100  1  0  0  0
 19 20  1  0  0  0
 19 24  1  0  0  0
 20 21  2  0  0  0
 20101  1  0  0  0
 21 23  1  0  0  0
 22 28  1  0  0  0
 22 32  2  0  0  0
 26 27  1  0  0  0
 28102  1  0  0  0
 28103  1  0  0  0
 29104  1  0  0  0
 29105  1  0  0  0
 33 34  1  0  0  0
 33 66  1  0  0  0
 33 70  2  0  0  0
 34 36  1  0  0  0
 34 59  1  0  0  0
 34106  1  0  0  0
 35 44  2  0  0  0
 35 45  1  0  0  0
 35 68  1  0  0  0
 36 56  1  0  0  0
 36107  1  0  0  0
 37 39  1  0  0  0
 37 47  1  0  0  0
 37 66  1  0  0  0
 37108  1  0  0  0
 38 43  2  0  0  0
 38 46  1  0  0  0
 38 47  1  0  0  0
 39 64  1  0  0  0
 39 67  2  0  0  0
 40 52  1  0  0  0
 40 53  2  0  0  0
 40 58  1  0  0  0
 41109  1  0  0  0
 41110  1  0  0  0
 41111  1  0  0  0
 41 48  1  0  0  0
 42 43  1  0  0  0
 42 66  1  0  0  0
 42112  1  0  0  0
 42113  1  0  0  0
 43 44  1  0  0  0
 44114  1  0  0  0
 45 46  2  0  0  0
 45115  1  0  0  0
 46116  1  0  0  0
 47117  1  0  0  0
 47118  1  0  0  0
 48 56  1  0  0  0
 48 65  1  0  0  0
 48119  1  0  0  0
 49 50  1  0  0  0
 49 53  1  0  0  0
 49 64  1  0  0  0
 49120  1  0  0  0
 50 51  1  0  0  0
 50121  1  0  0  0
 50122  1  0  0  0
 51 52  1  0  0  0
 51123  1  0  0  0
 51124  1  0  0  0
 52125  1  0  0  0
 52126  1  0  0  0
 53 54  1  0  0  0
 54 55  2  0  0  0
 54127  1  0  0  0
 55 57  1  0  0  0
 55128  1  0  0  0
 56 69  2  0  0  0
 57 58  2  0  0  0
 57129  1  0  0  0
 58130  1  0  0  0
 59 60  1  0  0  0
 59 61  1  0  0  0
 59 62  1  0  0  0
 60131  1  0  0  0
 60132  1  0  0  0
 60133  1  0  0  0
 61134  1  0  0  0
 61135  1  0  0  0
 61136  1  0  0  0
 62137  1  0  0  0
 62138  1  0  0  0
 62139  1  0  0  0
 63 65  1  0  0  0
 63140  1  0  0  0
 63141  1  0  0  0
 63142  1  0  0  0
 64143  1  0  0  0
 65144  1  0  0  0
 68 81  1  0  0  0
 71 72  2  0  0  0
 71 73  1  0  0  0
 71145  1  0  0  0
 72 74  1  0  0  0
 72146  1  0  0  0
 73 78  1  0  0  0
 73 84  2  0  0  0
 74 82  1  0  0  0
 74 85  2  0  0  0
 75147  1  0  0  0
 75148  1  0  0  0
 75149  1  0  0  0
 75 82  1  0  0  0
 76150  1  0  0  0
 76151  1  0  0  0
 76152  1  0  0  0
 76 83  1  0  0  0
 77 83  1  0  0  0
 77153  1  0  0  0
 77154  1  0  0  0
 77155  1  0  0  0
 78 79  1  0  0  0
 78156  1  0  0  0
 78157  1  0  0  0
 79 80  1  0  0  0
 79158  1  0  0  0
 79159  1  0  0  0
 80 81  1  0  0  0
 80160  1  0  0  0
 80161  1  0  0  0
 81162  1  0  0  0
 81163  1  0  0  0
 82 83  1  0  0  0
 82164  1  0  0  0
 84 85  1  0  0  0
M  ISO  4   1 100  68 101  81 101  83 100
M  END
> <chiral flag>
0

> <version>
0

> <s_m_source_file>
/data/baiqing/PycharmProjects/Reinvent-master-3.2/result/LINK_invent/BTK/process_docking_weight1_custom_sum_contain_oxygen_bond_distance_aromatic_linkinvent_7_9_3/rearranged_h_0073.sdf

> <i_m_source_file_index>
65

> <r_mmod_Potential_Energy-OPLS-2005>
33.4591331481934

> <r_mmod_Stretch_Energy-OPLS-2005>
52.3616180419922

> <r_mmod_Bend_Energy-OPLS-2005>
120.109519958496

> <r_mmod_Torsional_Energy-OPLS-2005>
176.780960083008

> <r_mmod_Improper_Torsional_Energy-OPLS-2005>
1.77501511573792

> <r_mmod_Van_der_Waal_Energy-OPLS-2005>
171.260925292969

> <r_mmod_Electrostatic_Energy-OPLS-2005>
-297.688598632812

> <r_mmod_Solvation_Energy-OPLS-2005>
-203.620910644531

> <b_mmod_Minimization_Converged-OPLS-2005>
0

> <r_mmod_RMS_Derivative-OPLS-2005>
0.679877161979675

$$$$
65
                    3D
 Structure written by MMmdl.
157165  0  0  1  0            999 V2000
  -30.6195  -14.7249   20.4651 C   0  0  0  0  0  0
  -30.4322  -12.4438   19.4670 C   0  0  0  0  0  0
  -29.5080  -12.5071   18.2310 C   0  0  0  0  0  0
  -28.0345  -12.3316   18.6461 C   0  0  0  0  0  0
  -27.6433  -13.2278   19.8514 C   0  0  2  0  0  0
  -28.6889  -13.1531   20.9856 C   0  0  0  0  0  0
  -25.2527  -13.8191   20.5697 C   0  0  0  0  0  0
  -24.1810  -13.0439   20.9201 C   0  0  0  0  0  0
  -24.6391  -11.6916   20.8736 C   0  0  0  0  0  0
  -23.9064  -10.4296   21.0396 C   0  0  0  0  0  0
  -24.3622   -9.4216   21.9175 C   0  0  0  0  0  0
  -23.6301   -8.2250   22.0749 C   0  0  0  0  0  0
  -22.4282   -8.0284   21.3541 C   0  0  0  0  0  0
  -21.9915   -9.0253   20.4642 C   0  0  0  0  0  0
  -22.7237  -10.2135   20.3047 C   0  0  0  0  0  0
  -21.6861   -6.0736   22.5276 C   0  0  0  0  0  0
  -21.4022   -6.5638   23.8210 C   0  0  0  0  0  0
  -21.3660   -5.6788   24.9169 C   0  0  0  0  0  0
  -21.6042   -4.3050   24.7219 C   0  0  0  0  0  0
  -21.8824   -3.8146   23.4342 C   0  0  0  0  0  0
  -21.9200   -4.6965   22.3399 C   0  0  0  0  0  0
  -22.7838  -13.5231   21.1857 C   0  0  0  0  0  0
  -22.1671   -4.2152   21.0978 F   0  0  0  0  0  0
  -21.5624   -3.4534   25.7732 F   0  0  0  0  0  0
  -29.9910  -13.5023   20.4034 N   0  0  0  0  0  0
  -26.2949  -12.9386   20.3287 N   0  0  0  0  0  0
  -25.9321  -11.6531   20.5744 N   0  0  0  0  0  0
  -22.0493  -12.8211   22.0414 N   0  0  0  0  0  0
  -25.4216  -15.1916   20.4118 N   0  0  0  0  0  0
  -31.8063  -14.8277   20.1474 O   0  0  0  0  0  0
  -21.6650   -6.8882   21.4238 O   0  0  0  0  0  0
  -22.3524  -14.5531   20.6697 O   0  0  0  0  0  0
  -24.6335  -31.8555   23.2002 C   0  0  0  0  0  0
  -25.9163  -32.4747   23.8341 C   0  0  1  0  0  0
  -27.2091  -27.2544   20.1148 C   0  0  0  0  0  0
  -25.5957  -33.8551   24.2260 N   0  0  0  0  0  0
  -23.4284  -30.4815   21.5461 C   0  0  2  0  0  0
  -24.8707  -28.9332   20.1092 C   0  0  0  0  0  0
  -22.7515  -29.4608   22.4927 C   0  0  0  0  0  0
  -18.0295  -28.1377   22.8486 C   0  0  0  0  0  0
  -24.1493  -36.7276   23.2639 C   0  0  0  0  0  0
  -25.9789  -30.7639   21.3840 C   0  0  0  0  0  0
  -26.0472  -29.3899   20.7175 C   0  0  0  0  0  0
  -27.2204  -28.5654   20.7056 C   0  0  0  0  0  0
  -26.0036  -26.8733   19.4788 C   0  0  0  0  0  0
  -24.8554  -27.6836   19.4781 C   0  0  0  0  0  0
  -23.6440  -29.8219   20.1606 C   0  0  0  0  0  0
  -25.4120  -36.3063   24.0326 C   0  0  1  0  0  0
  -20.5902  -28.3694   23.1268 C   0  0  2  0  0  0
  -20.6786  -26.9412   22.5404 C   0  0  0  0  0  0
  -19.5756  -26.6380   21.5213 C   0  0  0  0  0  0
  -18.1937  -26.7920   22.1625 C   0  0  0  0  0  0
  -19.1549  -28.8854   23.2869 C   0  0  0  0  0  0
  -18.9466  -30.1458   23.8881 C   0  0  0  0  0  0
  -17.6460  -30.6579   24.0555 C   0  0  0  0  0  0
  -25.9064  -34.9435   23.5093 C   0  0  0  0  0  0
  -16.5354  -29.9069   23.6332 C   0  0  0  0  0  0
  -16.7279  -28.6486   23.0355 C   0  0  0  0  0  0
  -26.4517  -31.6575   25.0737 C   0  0  0  0  0  0
  -25.3736  -31.3726   26.1455 C   0  0  0  0  0  0
  -27.0373  -30.2985   24.6257 C   0  0  0  0  0  0
  -27.6058  -32.4336   25.7508 C   0  0  0  0  0  0
  -27.5580  -37.1793   24.8466 C   0  0  0  0  0  0
  -21.4222  -29.3039   22.3661 N   0  0  0  0  0  0
  -26.4291  -37.3764   23.9410 N   0  0  0  0  0  0
  -24.6996  -31.0518   22.0986 N   0  0  0  0  0  0
  -23.4213  -28.8149   23.3028 O   0  0  0  0  0  0
  -28.2949  -26.3420   20.1651 O   0  0  0  0  0  0
  -26.5631  -34.8910   22.4661 O   0  0  0  0  0  0
  -23.5485  -32.1392   23.7290 O   0  0  0  0  0  0
  -29.1288  -20.5341   18.2014 C   0  0  0  0  0  0
  -29.2023  -21.0249   19.4824 C   0  0  0  0  0  0
  -29.1209  -22.7382   18.0086 C   0  0  0  0  0  0
  -29.2174  -24.0593   17.3025 C   0  0  0  0  0  0
  -29.4352  -20.0804   20.7031 C   0  0  0  0  0  0
  -29.1203  -18.4807   20.5535 C   0  0  0  0  0  0
  -29.0822  -23.6705   20.3023 C   0  0  0  0  0  0
  -30.2605  -17.3305   20.5736 C   0  0  0  0  0  0
  -27.9930  -24.8640   20.0912 C   0  0  0  0  0  0
  -29.0897  -22.4604   19.3370 N   0  0  0  0  0  0
  -29.0857  -21.5856   17.3458 N   0  3  0  0  0  0
  -29.8497  -15.8579   20.6714 N   0  0  0  0  0  0
  -31.4731  -12.5669   19.1649 H   0  0  0  0  0  0
  -30.3721  -11.4642   19.9438 H   0  0  0  0  0  0
  -29.7862  -11.7371   17.5105 H   0  0  0  0  0  0
  -29.6351  -13.4647   17.7223 H   0  0  0  0  0  0
  -27.8911  -11.2821   18.9053 H   0  0  0  0  0  0
  -27.3764  -12.5286   17.7985 H   0  0  0  0  0  0
  -27.6398  -14.2505   19.4745 H   0  0  0  0  0  0
  -28.7213  -12.1527   21.4189 H   0  0  0  0  0  0
  -28.4258  -13.8308   21.7996 H   0  0  0  0  0  0
  -25.2773   -9.5700   22.4740 H   0  0  0  0  0  0
  -24.0020   -7.4644   22.7465 H   0  0  0  0  0  0
  -21.0850   -8.8762   19.8948 H   0  0  0  0  0  0
  -22.3688  -10.9670   19.6155 H   0  0  0  0  0  0
  -21.2013   -7.6149   23.9711 H   0  0  0  0  0  0
  -21.1478   -6.0520   25.9070 H   0  0  0  0  0  0
  -22.0602   -2.7612   23.2838 H   0  0  0  0  0  0
  -22.4135  -11.9884   22.4814 H   0  0  0  0  0  0
  -21.1099  -13.1212   22.2599 H   0  0  0  0  0  0
  -24.6505  -15.8416   20.5168 H   0  0  0  0  0  0
  -26.2626  -15.6327   20.0628 H   0  0  0  0  0  0
  -26.7224  -32.5377   23.1072 H   0  0  0  0  0  0
  -25.0105  -33.9684   25.0408 H   0  0  0  0  0  0
  -22.7242  -31.3044   21.4048 H   0  0  0  0  0  0
  -23.3758  -35.9605   23.3300 H   0  0  0  0  0  0
  -24.3580  -36.8901   22.2052 H   0  0  0  0  0  0
  -23.7242  -37.6475   23.6666 H   0  0  0  0  0  0
  -26.1304  -31.5290   20.6209 H   0  0  0  0  0  0
  -26.8521  -30.7993   22.0244 H   0  0  0  0  0  0
  -28.1214  -28.9112   21.1921 H   0  0  0  0  0  0
  -25.8972  -25.9262   18.9766 H   0  0  0  0  0  0
  -23.9564  -27.3297   18.9916 H   0  0  0  0  0  0
  -23.7677  -30.6026   19.4092 H   0  0  0  0  0  0
  -22.7602  -29.2595   19.8532 H   0  0  0  0  0  0
  -25.1299  -36.1905   25.0817 H   0  0  0  0  0  0
  -20.9987  -28.3268   24.1391 H   0  0  0  0  0  0
  -20.5703  -26.2299   23.3607 H   0  0  0  0  0  0
  -21.6650  -26.7445   22.1183 H   0  0  0  0  0  0
  -19.6920  -25.6293   21.1236 H   0  0  0  0  0  0
  -19.6686  -27.3194   20.6746 H   0  0  0  0  0  0
  -17.4210  -26.6675   21.4024 H   0  0  0  0  0  0
  -18.0334  -26.0058   22.9016 H   0  0  0  0  0  0
  -19.7939  -30.7286   24.2237 H   0  0  0  0  0  0
  -17.5009  -31.6256   24.5161 H   0  0  0  0  0  0
  -15.5351  -30.2957   23.7666 H   0  0  0  0  0  0
  -15.8684  -28.0795   22.7078 H   0  0  0  0  0  0
  -24.5905  -30.7082   25.7787 H   0  0  0  0  0  0
  -24.8934  -32.2890   26.4891 H   0  0  0  0  0  0
  -25.8049  -30.8893   27.0229 H   0  0  0  0  0  0
  -26.2968  -29.6719   24.1269 H   0  0  0  0  0  0
  -27.4020  -29.7262   25.4799 H   0  0  0  0  0  0
  -27.8864  -30.4247   23.9537 H   0  0  0  0  0  0
  -27.2647  -33.3636   26.2071 H   0  0  0  0  0  0
  -28.3863  -32.6907   25.0332 H   0  0  0  0  0  0
  -28.0738  -31.8483   26.5433 H   0  0  0  0  0  0
  -28.2593  -38.0094   24.7519 H   0  0  0  0  0  0
  -28.1079  -36.2625   24.6285 H   0  0  0  0  0  0
  -27.2299  -37.1432   25.8869 H   0  0  0  0  0  0
  -20.9418  -29.8739   21.6842 H   0  0  0  0  0  0
  -26.0169  -38.2839   24.1402 H   0  0  0  0  0  0
  -29.1604  -19.5180   17.8339 H   0  0  0  0  0  0
  -28.2146  -24.4096   17.0587 H   0  0  0  0  0  0
  -29.7760  -23.9197   16.3775 H   0  0  0  0  0  0
  -29.7472  -24.7797   17.9237 H   0  0  0  0  0  0
  -28.8307  -20.4719   21.5220 H   0  0  0  0  0  0
  -30.4672  -20.2042   21.0309 H   0  0  0  0  0  0
  -28.4663  -18.3148   19.6979 H   0  0  0  0  0  0
  -28.4769  -18.2450   21.4021 H   0  0  0  0  0  0
  -28.9874  -23.2747   21.3130 H   0  0  0  0  0  0
  -30.0824  -24.1010   20.2539 H   0  0  0  0  0  0
  -30.9335  -17.5271   21.4095 H   0  0  0  0  0  0
  -30.8738  -17.4420   19.6778 H   0  0  0  0  0  0
  -27.2088  -24.6816   20.8278 H   0  0  0  0  0  0
  -27.5040  -24.6677   19.1440 H   0  0  0  0  0  0
  -29.0785  -21.5010   16.3359 H   0  0  0  0  0  0
  -28.8813  -15.6796   20.8903 H   0  0  0  0  0  0
  1 25  1  0  0  0
  1 30  2  0  0  0
  1 82  1  0  0  0
  2  3  1  0  0  0
  2 25  1  0  0  0
  2 83  1  0  0  0
  2 84  1  0  0  0
  3  4  1  0  0  0
  3 85  1  0  0  0
  3 86  1  0  0  0
  4  5  1  0  0  0
  4 87  1  0  0  0
  4 88  1  0  0  0
  5  6  1  0  0  0
  5 26  1  0  0  0
  5 89  1  0  0  0
  6 25  1  0  0  0
  6 90  1  0  0  0
  6 91  1  0  0  0
  7  8  2  0  0  0
  7 26  1  0  0  0
  7 29  1  0  0  0
  8  9  1  0  0  0
  8 22  1  0  0  0
  9 10  1  0  0  0
  9 27  2  0  0  0
 10 11  2  0  0  0
 10 15  1  0  0  0
 11 12  1  0  0  0
 11 92  1  0  0  0
 12 13  2  0  0  0
 12 93  1  0  0  0
 13 14  1  0  0  0
 13 31  1  0  0  0
 14 15  2  0  0  0
 14 94  1  0  0  0
 15 95  1  0  0  0
 16 17  2  0  0  0
 16 21  1  0  0  0
 16 31  1  0  0  0
 17 18  1  0  0  0
 17 96  1  0  0  0
 18 19  2  0  0  0
 18 97  1  0  0  0
 19 20  1  0  0  0
 19 24  1  0  0  0
 20 21  2  0  0  0
 20 98  1  0  0  0
 21 23  1  0  0  0
 22 28  1  0  0  0
 22 32  2  0  0  0
 26 27  1  0  0  0
 28 99  1  0  0  0
 28100  1  0  0  0
 29101  1  0  0  0
 29102  1  0  0  0
 33 34  1  0  0  0
 33 66  1  0  0  0
 33 70  2  0  0  0
 34 36  1  0  0  0
 34 59  1  0  0  0
 34103  1  0  0  0
 35 44  2  0  0  0
 35 45  1  0  0  0
 35 68  1  0  0  0
 36 56  1  0  0  0
 36104  1  0  0  0
 37 39  1  0  0  0
 37 47  1  0  0  0
 37 66  1  0  0  0
 37105  1  0  0  0
 38 43  2  0  0  0
 38 46  1  0  0  0
 38 47  1  0  0  0
 39 64  1  0  0  0
 39 67  2  0  0  0
 40 52  1  0  0  0
 40 53  2  0  0  0
 40 58  1  0  0  0
 41106  1  0  0  0
 41107  1  0  0  0
 41108  1  0  0  0
 41 48  1  0  0  0
 42 43  1  0  0  0
 42 66  1  0  0  0
 42109  1  0  0  0
 42110  1  0  0  0
 43 44  1  0  0  0
 44111  1  0  0  0
 45 46  2  0  0  0
 45112  1  0  0  0
 46113  1  0  0  0
 47114  1  0  0  0
 47115  1  0  0  0
 48 56  1  0  0  0
 48 65  1  0  0  0
 48116  1  0  0  0
 49 50  1  0  0  0
 49 53  1  0  0  0
 49 64  1  0  0  0
 49117  1  0  0  0
 50 51  1  0  0  0
 50118  1  0  0  0
 50119  1  0  0  0
 51 52  1  0  0  0
 51120  1  0  0  0
 51121  1  0  0  0
 52122  1  0  0  0
 52123  1  0  0  0
 53 54  1  0  0  0
 54 55  2  0  0  0
 54124  1  0  0  0
 55 57  1  0  0  0
 55125  1  0  0  0
 56 69  2  0  0  0
 57 58  2  0  0  0
 57126  1  0  0  0
 58127  1  0  0  0
 59 60  1  0  0  0
 59 61  1  0  0  0
 59 62  1  0  0  0
 60128  1  0  0  0
 60129  1  0  0  0
 60130  1  0  0  0
 61131  1  0  0  0
 61132  1  0  0  0
 61133  1  0  0  0
 62134  1  0  0  0
 62135  1  0  0  0
 62136  1  0  0  0
 63 65  1  0  0  0
 63137  1  0  0  0
 63138  1  0  0  0
 63139  1  0  0  0
 64140  1  0  0  0
 65141  1  0  0  0
 68 79  1  0  0  0
 71 72  2  0  0  0
 71 81  1  0  0  0
 71142  1  0  0  0
 72 75  1  0  0  0
 72 80  1  0  0  0
 73 74  1  0  0  0
 73 80  1  0  0  0
 73 81  2  0  0  0
 74143  1  0  0  0
 74144  1  0  0  0
 74145  1  0  0  0
 75 76  1  0  0  0
 75146  1  0  0  0
 75147  1  0  0  0
 76 78  1  0  0  0
 76148  1  0  0  0
 76149  1  0  0  0
 77 79  1  0  0  0
 77 80  1  0  0  0
 77150  1  0  0  0
 77151  1  0  0  0
 78 82  1  0  0  0
 78152  1  0  0  0
 78153  1  0  0  0
 79154  1  0  0  0
 79155  1  0  0  0
 81156  1  0  0  0
 82157  1  0  0  0
M  CHG  1  81   1
M  ISO  4   1 100  68 101  79 101  82 100
M  END
> <chiral flag>
0

> <version>
0

> <s_m_source_file>
/data/baiqing/PycharmProjects/Reinvent-master-3.2/result/LINK_invent/BTK/process_docking_weight1_custom_sum_contain_oxygen_bond_distance_aromatic_linkinvent_7_9_3/rearranged_h_0073.sdf

> <i_m_source_file_index>
66

> <r_mmod_Potential_Energy-OPLS-2005>
104.042640686035

> <r_mmod_Stretch_Energy-OPLS-2005>
136.112655639648

> <r_mmod_Bend_Energy-OPLS-2005>
186.080215454102

> <r_mmod_Torsional_Energy-OPLS-2005>
236.284210205078

> <r_mmod_Improper_Torsional_Energy-OPLS-2005>
5.55051851272583

> <r_mmod_Van_der_Waal_Energy-OPLS-2005>
126.127517700195

> <r_mmod_Electrostatic_Energy-OPLS-2005>
-236.329010009766

> <r_mmod_Solvation_Energy-OPLS-2005>
-433.5625

> <b_mmod_Minimization_Converged-OPLS-2005>
0

> <r_mmod_RMS_Derivative-OPLS-2005>
1.19071710109711

$$$$
66
                    3D
 Structure written by MMmdl.
166174  0  0  1  0            999 V2000
  -30.7340  -14.4424   20.7463 C   0  0  0  0  0  0
  -30.4240  -12.3552   19.4187 C   0  0  0  0  0  0
  -29.4921  -12.5556   18.2068 C   0  0  0  0  0  0
  -28.0150  -12.3867   18.6099 C   0  0  0  0  0  0
  -27.6625  -13.2031   19.8797 C   0  0  2  0  0  0
  -28.7000  -12.9345   20.9903 C   0  0  0  0  0  0
  -25.2579  -13.8147   20.5661 C   0  0  0  0  0  0
  -24.1837  -13.0443   20.9164 C   0  0  0  0  0  0
  -24.6382  -11.6894   20.8714 C   0  0  0  0  0  0
  -23.9044  -10.4291   21.0381 C   0  0  0  0  0  0
  -24.3606   -9.4218   21.9168 C   0  0  0  0  0  0
  -23.6290   -8.2252   22.0756 C   0  0  0  0  0  0
  -22.4264   -8.0278   21.3550 C   0  0  0  0  0  0
  -21.9897   -9.0243   20.4645 C   0  0  0  0  0  0
  -22.7211  -10.2126   20.3039 C   0  0  0  0  0  0
  -21.6857   -6.0735   22.5289 C   0  0  0  0  0  0
  -21.4022   -6.5641   23.8219 C   0  0  0  0  0  0
  -21.3654   -5.6787   24.9187 C   0  0  0  0  0  0
  -21.6040   -4.3050   24.7223 C   0  0  0  0  0  0
  -21.8827   -3.8145   23.4350 C   0  0  0  0  0  0
  -21.9195   -4.6969   22.3403 C   0  0  0  0  0  0
  -22.7855  -13.5238   21.1832 C   0  0  0  0  0  0
  -22.1661   -4.2155   21.0981 F   0  0  0  0  0  0
  -21.5622   -3.4530   25.7735 F   0  0  0  0  0  0
  -30.0296  -13.2971   20.4880 N   0  0  0  0  0  0
  -26.3016  -12.9314   20.3359 N   0  0  0  0  0  0
  -25.9300  -11.6477   20.5731 N   0  0  0  0  0  0
  -22.0503  -12.8231   22.0394 N   0  0  0  0  0  0
  -25.4309  -15.1875   20.4067 N   0  0  0  0  0  0
  -31.7142  -14.7038   20.0377 O   0  0  0  0  0  0
  -21.6639   -6.8882   21.4243 O   0  0  0  0  0  0
  -22.3522  -14.5544   20.6682 O   0  0  0  0  0  0
  -24.6177  -31.8652   23.2110 C   0  0  0  0  0  0
  -25.9066  -32.4809   23.8400 C   0  0  1  0  0  0
  -27.2308  -27.3992   20.0940 C   0  0  0  0  0  0
  -25.5877  -33.8604   24.2312 N   0  0  0  0  0  0
  -23.4069  -30.4904   21.5524 C   0  0  2  0  0  0
  -24.8509  -28.9554   20.1131 C   0  0  0  0  0  0
  -22.7424  -29.4645   22.4978 C   0  0  0  0  0  0
  -18.0262  -28.1382   22.8460 C   0  0  0  0  0  0
  -24.1483  -36.7317   23.2627 C   0  0  0  0  0  0
  -25.9401  -30.8175   21.3722 C   0  0  0  0  0  0
  -26.0127  -29.4521   20.7147 C   0  0  0  0  0  0
  -27.1999  -28.6793   20.7041 C   0  0  0  0  0  0
  -26.0481  -26.9369   19.4662 C   0  0  0  0  0  0
  -24.8658  -27.7010   19.4834 C   0  0  0  0  0  0
  -23.6159  -29.8266   20.1656 C   0  0  0  0  0  0
  -25.4104  -36.3096   24.0320 C   0  0  1  0  0  0
  -20.5851  -28.3669   23.1293 C   0  0  2  0  0  0
  -20.6757  -26.9394   22.5412 C   0  0  0  0  0  0
  -19.5771  -26.6376   21.5176 C   0  0  0  0  0  0
  -18.1929  -26.7934   22.1560 C   0  0  0  0  0  0
  -19.1509  -28.8837   23.2885 C   0  0  0  0  0  0
  -18.9440  -30.1424   23.8922 C   0  0  0  0  0  0
  -17.6450  -30.6577   24.0547 C   0  0  0  0  0  0
  -25.9032  -34.9466   23.5127 C   0  0  0  0  0  0
  -16.5335  -29.9077   23.6319 C   0  0  0  0  0  0
  -16.7248  -28.6493   23.0341 C   0  0  0  0  0  0
  -26.4508  -31.6603   25.0744 C   0  0  0  0  0  0
  -25.3742  -31.3681   26.1454 C   0  0  0  0  0  0
  -27.0355  -30.3033   24.6178 C   0  0  0  0  0  0
  -27.6121  -32.4311   25.7447 C   0  0  0  0  0  0
  -27.5620  -37.1762   24.8424 C   0  0  0  0  0  0
  -21.4146  -29.3032   22.3714 N   0  0  0  0  0  0
  -26.4284  -37.3799   23.9441 N   0  0  0  0  0  0
  -24.6740  -31.0726   22.1029 N   0  0  0  0  0  0
  -23.4183  -28.8167   23.3021 O   0  0  0  0  0  0
  -28.4106  -26.6660   20.1479 O   0  0  0  0  0  0
  -26.5615  -34.8925   22.4697 O   0  0  0  0  0  0
  -23.5351  -32.1431   23.7463 O   0  0  0  0  0  0
  -29.5001  -18.4634   20.3930 C   0  0  0  0  0  0
  -29.3179  -17.8596   21.6553 C   0  0  0  0  0  0
  -29.7390  -20.4979   21.4191 C   0  0  0  0  0  0
  -27.9601  -16.0614   22.8009 C   0  0  0  0  0  0
  -30.1855  -22.7830   18.9174 C   0  0  0  0  0  0
  -30.4926  -14.6337   23.2929 C   0  0  0  0  0  0
  -31.6714  -16.3779   22.0844 C   0  0  0  0  0  0
  -30.1640  -21.9812   21.3353 C   0  0  0  0  0  0
  -29.2756  -24.3803   20.7010 C   0  0  0  0  0  0
  -28.4649  -25.2830   19.7224 C   0  0  0  0  0  0
  -29.1133  -16.3255   21.7906 C   0  0  2  0  0  0
  -29.4386  -22.8783   20.2697 C   0  0  1  0  0  0
  -30.4370  -15.4304   21.9598 C   0  0  0  0  0  0
  -29.7334  -19.7916   20.2822 N   0  0  0  0  0  0
  -29.3596  -18.6410   22.7714 N   0  0  0  0  0  0
  -29.5516  -19.9705   22.6478 N   0  0  0  0  0  0
  -31.4650  -12.4743   19.1148 H   0  0  0  0  0  0
  -30.3527  -11.3292   19.7850 H   0  0  0  0  0  0
  -29.7479  -11.8546   17.4121 H   0  0  0  0  0  0
  -29.6463  -13.5542   17.7941 H   0  0  0  0  0  0
  -27.8317  -11.3259   18.7871 H   0  0  0  0  0  0
  -27.3631  -12.6721   17.7834 H   0  0  0  0  0  0
  -27.7187  -14.2573   19.6103 H   0  0  0  0  0  0
  -28.6896  -11.8765   21.2608 H   0  0  0  0  0  0
  -28.4251  -13.4486   21.8932 H   0  0  0  0  0  0
  -25.2765   -9.5707   22.4717 H   0  0  0  0  0  0
  -24.0010   -7.4656   22.7471 H   0  0  0  0  0  0
  -21.0834   -8.8746   19.8942 H   0  0  0  0  0  0
  -22.3668  -10.9657   19.6130 H   0  0  0  0  0  0
  -21.2026   -7.6148   23.9733 H   0  0  0  0  0  0
  -21.1459   -6.0511   25.9088 H   0  0  0  0  0  0
  -22.0613   -2.7607   23.2841 H   0  0  0  0  0  0
  -22.4104  -11.9876   22.4773 H   0  0  0  0  0  0
  -21.1128  -13.1259   22.2617 H   0  0  0  0  0  0
  -24.6689  -15.8468   20.5194 H   0  0  0  0  0  0
  -26.2901  -15.6238   20.1015 H   0  0  0  0  0  0
  -26.7139  -32.5520   23.1153 H   0  0  0  0  0  0
  -24.9977  -33.9740   25.0426 H   0  0  0  0  0  0
  -22.6951  -31.3085   21.4160 H   0  0  0  0  0  0
  -23.3756  -35.9632   23.3210 H   0  0  0  0  0  0
  -24.3594  -36.9026   22.2059 H   0  0  0  0  0  0
  -23.7205  -37.6475   23.6718 H   0  0  0  0  0  0
  -26.0584  -31.5841   20.6059 H   0  0  0  0  0  0
  -26.8258  -30.8675   21.9936 H   0  0  0  0  0  0
  -28.0960  -29.0568   21.1772 H   0  0  0  0  0  0
  -25.9934  -25.9934   18.9480 H   0  0  0  0  0  0
  -23.9723  -27.3222   19.0039 H   0  0  0  0  0  0
  -23.7272  -30.6037   19.4087 H   0  0  0  0  0  0
  -22.7394  -29.2465   19.8720 H   0  0  0  0  0  0
  -25.1276  -36.1935   25.0805 H   0  0  0  0  0  0
  -20.9930  -28.3240   24.1420 H   0  0  0  0  0  0
  -20.5597  -26.2274   23.3600 H   0  0  0  0  0  0
  -21.6651  -26.7418   22.1257 H   0  0  0  0  0  0
  -19.6922  -25.6279   21.1219 H   0  0  0  0  0  0
  -19.6732  -27.3165   20.6689 H   0  0  0  0  0  0
  -17.4212  -26.6661   21.3947 H   0  0  0  0  0  0
  -18.0328  -26.0071   22.8953 H   0  0  0  0  0  0
  -19.7921  -30.7213   24.2326 H   0  0  0  0  0  0
  -17.5013  -31.6257   24.5147 H   0  0  0  0  0  0
  -15.5343  -30.2982   23.7647 H   0  0  0  0  0  0
  -15.8646  -28.0804   22.7071 H   0  0  0  0  0  0
  -24.5969  -30.6990   25.7740 H   0  0  0  0  0  0
  -24.8855  -32.2811   26.4876 H   0  0  0  0  0  0
  -25.8067  -30.8856   27.0223 H   0  0  0  0  0  0
  -26.2913  -29.6706   24.1327 H   0  0  0  0  0  0
  -27.4190  -29.7374   25.4677 H   0  0  0  0  0  0
  -27.8733  -30.4318   23.9311 H   0  0  0  0  0  0
  -27.2830  -33.3625   26.2051 H   0  0  0  0  0  0
  -28.3890  -32.6816   25.0215 H   0  0  0  0  0  0
  -28.0859  -31.8410   26.5297 H   0  0  0  0  0  0
  -28.2513  -38.0182   24.7671 H   0  0  0  0  0  0
  -28.1235  -36.2731   24.5991 H   0  0  0  0  0  0
  -27.2373  -37.1098   25.8820 H   0  0  0  0  0  0
  -20.9296  -29.8755   21.6939 H   0  0  0  0  0  0
  -26.0150  -38.2834   24.1584 H   0  0  0  0  0  0
  -29.4904  -17.8802   19.4847 H   0  0  0  0  0  0
  -27.1219  -16.7352   22.6153 H   0  0  0  0  0  0
  -28.2741  -16.2271   23.8319 H   0  0  0  0  0  0
  -27.5365  -15.0646   22.7494 H   0  0  0  0  0  0
  -30.3750  -21.7473   18.6366 H   0  0  0  0  0  0
  -31.1561  -23.2829   18.9558 H   0  0  0  0  0  0
  -29.6136  -23.2178   18.0994 H   0  0  0  0  0  0
  -30.5313  -15.3011   24.1546 H   0  0  0  0  0  0
  -31.3933  -14.0183   23.3368 H   0  0  0  0  0  0
  -29.6563  -13.9648   23.4665 H   0  0  0  0  0  0
  -31.5955  -17.0444   22.9451 H   0  0  0  0  0  0
  -31.8099  -17.0019   21.2008 H   0  0  0  0  0  0
  -32.5977  -15.8167   22.2174 H   0  0  0  0  0  0
  -31.2424  -21.9994   21.1694 H   0  0  0  0  0  0
  -30.0309  -22.4182   22.3263 H   0  0  0  0  0  0
  -28.7772  -24.4121   21.6709 H   0  0  0  0  0  0
  -30.2592  -24.8232   20.8623 H   0  0  0  0  0  0
  -27.4950  -24.8077   19.6050 H   0  0  0  0  0  0
  -28.9325  -25.2772   18.7379 H   0  0  0  0  0  0
  -28.6879  -16.0534   20.8259 H   0  0  0  0  0  0
  -28.4308  -22.4761   20.1417 H   0  0  0  0  0  0
  1 25  1  0  0  0
  1 30  2  0  0  0
  1 83  1  0  0  0
  2  3  1  0  0  0
  2 25  1  0  0  0
  2 87  1  0  0  0
  2 88  1  0  0  0
  3  4  1  0  0  0
  3 89  1  0  0  0
  3 90  1  0  0  0
  4  5  1  0  0  0
  4 91  1  0  0  0
  4 92  1  0  0  0
  5  6  1  0  0  0
  5 26  1  0  0  0
  5 93  1  0  0  0
  6 25  1  0  0  0
  6 94  1  0  0  0
  6 95  1  0  0  0
  7  8  2  0  0  0
  7 26  1  0  0  0
  7 29  1  0  0  0
  8  9  1  0  0  0
  8 22  1  0  0  0
  9 10  1  0  0  0
  9 27  2  0  0  0
 10 11  2  0  0  0
 10 15  1  0  0  0
 11 12  1  0  0  0
 11 96  1  0  0  0
 12 13  2  0  0  0
 12 97  1  0  0  0
 13 14  1  0  0  0
 13 31  1  0  0  0
 14 15  2  0  0  0
 14 98  1  0  0  0
 15 99  1  0  0  0
 16 17  2  0  0  0
 16 21  1  0  0  0
 16 31  1  0  0  0
 17 18  1  0  0  0
 17100  1  0  0  0
 18 19  2  0  0  0
 18101  1  0  0  0
 19 20  1  0  0  0
 19 24  1  0  0  0
 20 21  2  0  0  0
 20102  1  0  0  0
 21 23  1  0  0  0
 22 28  1  0  0  0
 22 32  2  0  0  0
 26 27  1  0  0  0
 28103  1  0  0  0
 28104  1  0  0  0
 29105  1  0  0  0
 29106  1  0  0  0
 33 34  1  0  0  0
 33 66  1  0  0  0
 33 70  2  0  0  0
 34 36  1  0  0  0
 34 59  1  0  0  0
 34107  1  0  0  0
 35 44  2  0  0  0
 35 45  1  0  0  0
 35 68  1  0  0  0
 36 56  1  0  0  0
 36108  1  0  0  0
 37 39  1  0  0  0
 37 47  1  0  0  0
 37 66  1  0  0  0
 37109  1  0  0  0
 38 43  2  0  0  0
 38 46  1  0  0  0
 38 47  1  0  0  0
 39 64  1  0  0  0
 39 67  2  0  0  0
 40 52  1  0  0  0
 40 53  2  0  0  0
 40 58  1  0  0  0
 41110  1  0  0  0
 41111  1  0  0  0
 41112  1  0  0  0
 41 48  1  0  0  0
 42 43  1  0  0  0
 42 66  1  0  0  0
 42113  1  0  0  0
 42114  1  0  0  0
 43 44  1  0  0  0
 44115  1  0  0  0
 45 46  2  0  0  0
 45116  1  0  0  0
 46117  1  0  0  0
 47118  1  0  0  0
 47119  1  0  0  0
 48 56  1  0  0  0
 48 65  1  0  0  0
 48120  1  0  0  0
 49 50  1  0  0  0
 49 53  1  0  0  0
 49 64  1  0  0  0
 49121  1  0  0  0
 50 51  1  0  0  0
 50122  1  0  0  0
 50123  1  0  0  0
 51 52  1  0  0  0
 51124  1  0  0  0
 51125  1  0  0  0
 52126  1  0  0  0
 52127  1  0  0  0
 53 54  1  0  0  0
 54 55  2  0  0  0
 54128  1  0  0  0
 55 57  1  0  0  0
 55129  1  0  0  0
 56 69  2  0  0  0
 57 58  2  0  0  0
 57130  1  0  0  0
 58131  1  0  0  0
 59 60  1  0  0  0
 59 61  1  0  0  0
 59 62  1  0  0  0
 60132  1  0  0  0
 60133  1  0  0  0
 60134  1  0  0  0
 61135  1  0  0  0
 61136  1  0  0  0
 61137  1  0  0  0
 62138  1  0  0  0
 62139  1  0  0  0
 62140  1  0  0  0
 63 65  1  0  0  0
 63141  1  0  0  0
 63142  1  0  0  0
 63143  1  0  0  0
 64144  1  0  0  0
 65145  1  0  0  0
 68 80  1  0  0  0
 71 72  2  0  0  0
 71 84  1  0  0  0
 71146  1  0  0  0
 72 81  1  0  0  0
 72 85  1  0  0  0
 73 78  1  0  0  0
 73 84  2  0  0  0
 73 86  1  0  0  0
 74147  1  0  0  0
 74148  1  0  0  0
 74149  1  0  0  0
 74 81  1  0  0  0
 75150  1  0  0  0
 75151  1  0  0  0
 75152  1  0  0  0
 75 82  1  0  0  0
 76153  1  0  0  0
 76154  1  0  0  0
 76155  1  0  0  0
 76 83  1  0  0  0
 77 83  1  0  0  0
 77156  1  0  0  0
 77157  1  0  0  0
 77158  1  0  0  0
 78 82  1  0  0  0
 78159  1  0  0  0
 78160  1  0  0  0
 79 80  1  0  0  0
 79 82  1  0  0  0
 79161  1  0  0  0
 79162  1  0  0  0
 80163  1  0  0  0
 80164  1  0  0  0
 81 83  1  0  0  0
 81165  1  0  0  0
 82166  1  0  0  0
 85 86  2  0  0  0
M  ISO  4   1 100  68 101  80 101  83 100
M  END
> <chiral flag>
0

> <version>
0

> <s_m_source_file>
/data/baiqing/PycharmProjects/Reinvent-master-3.2/result/LINK_invent/BTK/process_docking_weight1_custom_sum_contain_oxygen_bond_distance_aromatic_linkinvent_7_9_3/rearranged_h_0073.sdf

> <i_m_source_file_index>
67

> <r_mmod_Potential_Energy-OPLS-2005>
105.275650024414

> <r_mmod_Stretch_Energy-OPLS-2005>
65.9095458984375

> <r_mmod_Bend_Energy-OPLS-2005>
144.738677978516

> <r_mmod_Torsional_Energy-OPLS-2005>
184.145202636719

> <r_mmod_Improper_Torsional_Energy-OPLS-2005>
2.65494918823242

> <r_mmod_Van_der_Waal_Energy-OPLS-2005>
177.495300292969

> <r_mmod_Electrostatic_Energy-OPLS-2005>
-281.742004394531

> <r_mmod_Solvation_Energy-OPLS-2005>
-203.952178955078

> <b_mmod_Minimization_Converged-OPLS-2005>
0

> <r_mmod_RMS_Derivative-OPLS-2005>
3.35384964942932

$$$$
67
                    3D
 Structure written by MMmdl.
172180  0  0  1  0            999 V2000
  -30.6800  -14.5622   20.5459 C   0  0  0  0  0  0
  -30.4280  -12.3618   19.4301 C   0  0  0  0  0  0
  -29.4994  -12.5124   18.2072 C   0  0  0  0  0  0
  -28.0214  -12.3633   18.6201 C   0  0  0  0  0  0
  -27.6554  -13.2181   19.8642 C   0  0  2  0  0  0
  -28.7020  -13.0494   20.9871 C   0  0  0  0  0  0
  -25.2572  -13.8181   20.5692 C   0  0  0  0  0  0
  -24.1836  -13.0444   20.9184 C   0  0  0  0  0  0
  -24.6400  -11.6917   20.8737 C   0  0  0  0  0  0
  -23.9067  -10.4298   21.0410 C   0  0  0  0  0  0
  -24.3622   -9.4213   21.9185 C   0  0  0  0  0  0
  -23.6299   -8.2246   22.0754 C   0  0  0  0  0  0
  -22.4278   -8.0282   21.3542 C   0  0  0  0  0  0
  -21.9909   -9.0257   20.4649 C   0  0  0  0  0  0
  -22.7238  -10.2139   20.3059 C   0  0  0  0  0  0
  -21.6849   -6.0738   22.5282 C   0  0  0  0  0  0
  -21.4017   -6.5642   23.8214 C   0  0  0  0  0  0
  -21.3662   -5.6794   24.9170 C   0  0  0  0  0  0
  -21.6044   -4.3054   24.7224 C   0  0  0  0  0  0
  -21.8819   -3.8147   23.4339 C   0  0  0  0  0  0
  -21.9192   -4.6968   22.3395 C   0  0  0  0  0  0
  -22.7858  -13.5244   21.1845 C   0  0  0  0  0  0
  -22.1663   -4.2156   21.0974 F   0  0  0  0  0  0
  -21.5622   -3.4538   25.7732 F   0  0  0  0  0  0
  -30.0192  -13.3741   20.4183 N   0  0  0  0  0  0
  -26.3006  -12.9370   20.3324 N   0  0  0  0  0  0
  -25.9333  -11.6521   20.5746 N   0  0  0  0  0  0
  -22.0492  -12.8244   22.0402 N   0  0  0  0  0  0
  -25.4286  -15.1904   20.4139 N   0  0  0  0  0  0
  -31.8449  -14.7053   20.1674 O   0  0  0  0  0  0
  -21.6637   -6.8882   21.4240 O   0  0  0  0  0  0
  -22.3554  -14.5550   20.6689 O   0  0  0  0  0  0
  -24.6245  -31.8646   23.2092 C   0  0  0  0  0  0
  -25.9121  -32.4800   23.8387 C   0  0  1  0  0  0
  -27.2083  -27.3399   20.1012 C   0  0  0  0  0  0
  -25.5961  -33.8598   24.2324 N   0  0  0  0  0  0
  -23.4136  -30.4957   21.5525 C   0  0  2  0  0  0
  -24.8537  -28.9641   20.1105 C   0  0  0  0  0  0
  -22.7459  -29.4663   22.4953 C   0  0  0  0  0  0
  -18.0291  -28.1380   22.8490 C   0  0  0  0  0  0
  -24.1487  -36.7295   23.2633 C   0  0  0  0  0  0
  -25.9559  -30.8026   21.3762 C   0  0  0  0  0  0
  -26.0260  -29.4346   20.7148 C   0  0  0  0  0  0
  -27.2060  -28.6358   20.7021 C   0  0  0  0  0  0
  -26.0084  -26.9354   19.4668 C   0  0  0  0  0  0
  -24.8453  -27.7165   19.4803 C   0  0  0  0  0  0
  -23.6242  -29.8424   20.1641 C   0  0  0  0  0  0
  -25.4112  -36.3098   24.0334 C   0  0  1  0  0  0
  -20.5888  -28.3686   23.1281 C   0  0  2  0  0  0
  -20.6781  -26.9412   22.5397 C   0  0  0  0  0  0
  -19.5753  -26.6394   21.5201 C   0  0  0  0  0  0
  -18.1937  -26.7927   22.1621 C   0  0  0  0  0  0
  -19.1541  -28.8848   23.2885 C   0  0  0  0  0  0
  -18.9462  -30.1455   23.8899 C   0  0  0  0  0  0
  -17.6459  -30.6580   24.0565 C   0  0  0  0  0  0
  -25.9046  -34.9463   23.5113 C   0  0  0  0  0  0
  -16.5350  -29.9084   23.6327 C   0  0  0  0  0  0
  -16.7279  -28.6500   23.0351 C   0  0  0  0  0  0
  -26.4505  -31.6584   25.0734 C   0  0  0  0  0  0
  -25.3751  -31.3713   26.1471 C   0  0  0  0  0  0
  -27.0323  -30.3011   24.6146 C   0  0  0  0  0  0
  -27.6084  -32.4287   25.7508 C   0  0  0  0  0  0
  -27.5581  -37.1809   24.8469 C   0  0  0  0  0  0
  -21.4180  -29.3055   22.3683 N   0  0  0  0  0  0
  -26.4291  -37.3795   23.9414 N   0  0  0  0  0  0
  -24.6842  -31.0687   22.1034 N   0  0  0  0  0  0
  -23.4205  -28.8191   23.3006 O   0  0  0  0  0  0
  -28.3355  -26.4987   20.1620 O   0  0  0  0  0  0
  -26.5585  -34.8914   22.4664 O   0  0  0  0  0  0
  -23.5419  -32.1435   23.7449 O   0  0  0  0  0  0
  -29.8428  -22.3121   22.8016 C   0  0  0  0  0  0
  -29.9223  -21.2426   23.6493 C   0  0  0  0  0  0
  -29.6580  -20.4464   21.5801 C   0  0  0  0  0  0
  -30.4143  -17.6262   18.9144 C   0  0  0  0  0  0
  -31.9031  -18.8077   20.5049 C   0  0  0  0  0  0
  -27.9071  -24.6595   18.5573 C   0  0  0  0  0  0
  -27.1511  -24.4944   21.0431 C   0  0  0  0  0  0
  -29.5404  -24.2577   20.4154 C   0  0  0  0  0  0
  -29.5440  -22.6601   20.2836 C   0  0  0  0  0  0
  -30.4197  -16.9743   21.4007 C   0  0  0  0  0  0
  -29.4251  -19.3708   20.5035 C   0  0  2  0  0  0
  -27.9611  -18.8827   20.5232 C   0  0  0  0  0  0
  -30.4951  -18.1805   20.3570 C   0  0  0  0  0  0
  -28.2120  -25.0209   20.0374 C   0  0  0  0  0  0
  -29.6752  -21.8201   21.5238 N   0  0  0  0  0  0
  -29.7968  -20.1276   22.8746 N   0  3  0  0  0  0
  -29.9448  -15.6206   20.9767 N   0  0  0  0  0  0
  -27.1298  -19.9144   20.3688 F   0  0  0  0  0  0
  -27.6585  -18.2486   21.6558 F   0  0  0  0  0  0
  -31.4709  -12.4715   19.1294 H   0  0  0  0  0  0
  -30.3438  -11.3619   19.8578 H   0  0  0  0  0  0
  -29.7535  -11.7712   17.4487 H   0  0  0  0  0  0
  -29.6536  -13.4881   17.7435 H   0  0  0  0  0  0
  -27.8442  -11.3088   18.8315 H   0  0  0  0  0  0
  -27.3711  -12.6185   17.7825 H   0  0  0  0  0  0
  -27.6810  -14.2600   19.5450 H   0  0  0  0  0  0
  -28.7008  -12.0251   21.3632 H   0  0  0  0  0  0
  -28.4600  -13.6785   21.8440 H   0  0  0  0  0  0
  -25.2775   -9.5683   22.4757 H   0  0  0  0  0  0
  -24.0005   -7.4638   22.7480 H   0  0  0  0  0  0
  -21.0832   -8.8782   19.8964 H   0  0  0  0  0  0
  -22.3699  -10.9680   19.6168 H   0  0  0  0  0  0
  -21.2016   -7.6158   23.9717 H   0  0  0  0  0  0
  -21.1484   -6.0524   25.9074 H   0  0  0  0  0  0
  -22.0596   -2.7616   23.2832 H   0  0  0  0  0  0
  -22.4094  -11.9907   22.4806 H   0  0  0  0  0  0
  -21.1113  -13.1286   22.2599 H   0  0  0  0  0  0
  -24.6658  -15.8461   20.5414 H   0  0  0  0  0  0
  -26.2819  -15.6333   20.1003 H   0  0  0  0  0  0
  -26.7198  -32.5482   23.1145 H   0  0  0  0  0  0
  -25.0165  -33.9752   25.0506 H   0  0  0  0  0  0
  -22.7050  -31.3159   21.4183 H   0  0  0  0  0  0
  -23.3748  -35.9629   23.3298 H   0  0  0  0  0  0
  -24.3582  -36.8900   22.2046 H   0  0  0  0  0  0
  -23.7232  -37.6501   23.6635 H   0  0  0  0  0  0
  -26.0826  -31.5667   20.6078 H   0  0  0  0  0  0
  -26.8399  -30.8493   22.0005 H   0  0  0  0  0  0
  -28.1025  -28.9918   21.1888 H   0  0  0  0  0  0
  -25.9050  -25.9874   18.9696 H   0  0  0  0  0  0
  -23.9467  -27.3492   19.0035 H   0  0  0  0  0  0
  -23.7446  -30.6227   19.4119 H   0  0  0  0  0  0
  -22.7433  -29.2758   19.8582 H   0  0  0  0  0  0
  -25.1288  -36.1958   25.0827 H   0  0  0  0  0  0
  -20.9995  -28.3251   24.1396 H   0  0  0  0  0  0
  -20.5681  -26.2292   23.3592 H   0  0  0  0  0  0
  -21.6654  -26.7438   22.1191 H   0  0  0  0  0  0
  -19.6905  -25.6315   21.1217 H   0  0  0  0  0  0
  -19.6688  -27.3208   20.6732 H   0  0  0  0  0  0
  -17.4206  -26.6680   21.4019 H   0  0  0  0  0  0
  -18.0345  -26.0055   22.9003 H   0  0  0  0  0  0
  -19.7934  -30.7278   24.2264 H   0  0  0  0  0  0
  -17.5010  -31.6262   24.5172 H   0  0  0  0  0  0
  -15.5353  -30.2990   23.7646 H   0  0  0  0  0  0
  -15.8680  -28.0826   22.7060 H   0  0  0  0  0  0
  -24.5951  -30.7021   25.7827 H   0  0  0  0  0  0
  -24.8905  -32.2867   26.4880 H   0  0  0  0  0  0
  -25.8105  -30.8938   27.0255 H   0  0  0  0  0  0
  -26.2875  -29.6801   24.1154 H   0  0  0  0  0  0
  -27.4019  -29.7232   25.4623 H   0  0  0  0  0  0
  -27.8759  -30.4309   23.9360 H   0  0  0  0  0  0
  -27.2731  -33.3615   26.2054 H   0  0  0  0  0  0
  -28.3929  -32.6782   25.0351 H   0  0  0  0  0  0
  -28.0699  -31.8405   26.5449 H   0  0  0  0  0  0
  -28.2611  -38.0095   24.7519 H   0  0  0  0  0  0
  -28.1062  -36.2626   24.6299 H   0  0  0  0  0  0
  -27.2295  -37.1474   25.8871 H   0  0  0  0  0  0
  -20.9340  -29.8804   21.6928 H   0  0  0  0  0  0
  -26.0170  -38.2872   24.1416 H   0  0  0  0  0  0
  -29.8916  -23.3607   23.0493 H   0  0  0  0  0  0
  -30.0460  -21.1963   24.7235 H   0  0  0  0  0  0
  -30.4718  -18.4194   18.1677 H   0  0  0  0  0  0
  -29.4870  -17.0842   18.7322 H   0  0  0  0  0  0
  -31.2333  -16.9375   18.7059 H   0  0  0  0  0  0
  -32.6906  -18.0866   20.2790 H   0  0  0  0  0  0
  -32.0896  -19.1670   21.5169 H   0  0  0  0  0  0
  -32.0417  -19.6542   19.8298 H   0  0  0  0  0  0
  -26.9824  -24.0893   18.4621 H   0  0  0  0  0  0
  -28.6904  -24.0590   18.0924 H   0  0  0  0  0  0
  -27.8239  -25.5468   17.9293 H   0  0  0  0  0  0
  -26.1398  -24.8515   20.8693 H   0  0  0  0  0  0
  -27.4148  -24.7781   22.0628 H   0  0  0  0  0  0
  -27.0775  -23.4075   21.0256 H   0  0  0  0  0  0
  -30.3175  -24.6292   19.7462 H   0  0  0  0  0  0
  -29.8831  -24.5933   21.3899 H   0  0  0  0  0  0
  -30.3890  -22.3799   19.6541 H   0  0  0  0  0  0
  -28.6583  -22.3105   19.7521 H   0  0  0  0  0  0
  -29.8155  -17.2708   22.2555 H   0  0  0  0  0  0
  -31.4071  -16.8128   21.8377 H   0  0  0  0  0  0
  -29.5194  -19.9530   19.5866 H   0  0  0  0  0  0
  -27.7565  -18.1930   19.7051 H   0  0  0  0  0  0
  -29.7843  -19.1847   23.2414 H   0  0  0  0  0  0
  -28.9794  -15.4102   21.1820 H   0  0  0  0  0  0
  1 25  1  0  0  0
  1 30  2  0  0  0
  1 87  1  0  0  0
  2  3  1  0  0  0
  2 25  1  0  0  0
  2 90  1  0  0  0
  2 91  1  0  0  0
  3  4  1  0  0  0
  3 92  1  0  0  0
  3 93  1  0  0  0
  4  5  1  0  0  0
  4 94  1  0  0  0
  4 95  1  0  0  0
  5  6  1  0  0  0
  5 26  1  0  0  0
  5 96  1  0  0  0
  6 25  1  0  0  0
  6 97  1  0  0  0
  6 98  1  0  0  0
  7  8  2  0  0  0
  7 26  1  0  0  0
  7 29  1  0  0  0
  8  9  1  0  0  0
  8 22  1  0  0  0
  9 10  1  0  0  0
  9 27  2  0  0  0
 10 11  2  0  0  0
 10 15  1  0  0  0
 11 12  1  0  0  0
 11 99  1  0  0  0
 12 13  2  0  0  0
 12100  1  0  0  0
 13 14  1  0  0  0
 13 31  1  0  0  0
 14 15  2  0  0  0
 14101  1  0  0  0
 15102  1  0  0  0
 16 17  2  0  0  0
 16 21  1  0  0  0
 16 31  1  0  0  0
 17 18  1  0  0  0
 17103  1  0  0  0
 18 19  2  0  0  0
 18104  1  0  0  0
 19 20  1  0  0  0
 19 24  1  0  0  0
 20 21  2  0  0  0
 20105  1  0  0  0
 21 23  1  0  0  0
 22 28  1  0  0  0
 22 32  2  0  0  0
 26 27  1  0  0  0
 28106  1  0  0  0
 28107  1  0  0  0
 29108  1  0  0  0
 29109  1  0  0  0
 33 34  1  0  0  0
 33 66  1  0  0  0
 33 70  2  0  0  0
 34 36  1  0  0  0
 34 59  1  0  0  0
 34110  1  0  0  0
 35 44  2  0  0  0
 35 45  1  0  0  0
 35 68  1  0  0  0
 36 56  1  0  0  0
 36111  1  0  0  0
 37 39  1  0  0  0
 37 47  1  0  0  0
 37 66  1  0  0  0
 37112  1  0  0  0
 38 43  2  0  0  0
 38 46  1  0  0  0
 38 47  1  0  0  0
 39 64  1  0  0  0
 39 67  2  0  0  0
 40 52  1  0  0  0
 40 53  2  0  0  0
 40 58  1  0  0  0
 41113  1  0  0  0
 41114  1  0  0  0
 41115  1  0  0  0
 41 48  1  0  0  0
 42 43  1  0  0  0
 42 66  1  0  0  0
 42116  1  0  0  0
 42117  1  0  0  0
 43 44  1  0  0  0
 44118  1  0  0  0
 45 46  2  0  0  0
 45119  1  0  0  0
 46120  1  0  0  0
 47121  1  0  0  0
 47122  1  0  0  0
 48 56  1  0  0  0
 48 65  1  0  0  0
 48123  1  0  0  0
 49 50  1  0  0  0
 49 53  1  0  0  0
 49 64  1  0  0  0
 49124  1  0  0  0
 50 51  1  0  0  0
 50125  1  0  0  0
 50126  1  0  0  0
 51 52  1  0  0  0
 51127  1  0  0  0
 51128  1  0  0  0
 52129  1  0  0  0
 52130  1  0  0  0
 53 54  1  0  0  0
 54 55  2  0  0  0
 54131  1  0  0  0
 55 57  1  0  0  0
 55132  1  0  0  0
 56 69  2  0  0  0
 57 58  2  0  0  0
 57133  1  0  0  0
 58134  1  0  0  0
 59 60  1  0  0  0
 59 61  1  0  0  0
 59 62  1  0  0  0
 60135  1  0  0  0
 60136  1  0  0  0
 60137  1  0  0  0
 61138  1  0  0  0
 61139  1  0  0  0
 61140  1  0  0  0
 62141  1  0  0  0
 62142  1  0  0  0
 62143  1  0  0  0
 63 65  1  0  0  0
 63144  1  0  0  0
 63145  1  0  0  0
 63146  1  0  0  0
 64147  1  0  0  0
 65148  1  0  0  0
 68 84  1  0  0  0
 71 72  2  0  0  0
 71 85  1  0  0  0
 71149  1  0  0  0
 72 86  1  0  0  0
 72150  1  0  0  0
 73 85  1  0  0  0
 73 86  2  0  0  0
 73 81  1  0  0  0
 74151  1  0  0  0
 74152  1  0  0  0
 74153  1  0  0  0
 74 83  1  0  0  0
 75 83  1  0  0  0
 75154  1  0  0  0
 75155  1  0  0  0
 75156  1  0  0  0
 76157  1  0  0  0
 76158  1  0  0  0
 76159  1  0  0  0
 76 84  1  0  0  0
 77 84  1  0  0  0
 77160  1  0  0  0
 77161  1  0  0  0
 77162  1  0  0  0
 78 79  1  0  0  0
 78 84  1  0  0  0
 78163  1  0  0  0
 78164  1  0  0  0
 79 85  1  0  0  0
 79165  1  0  0  0
 79166  1  0  0  0
 80 83  1  0  0  0
 80 87  1  0  0  0
 80167  1  0  0  0
 80168  1  0  0  0
 81 82  1  0  0  0
 81 83  1  0  0  0
 81169  1  0  0  0
 82 88  1  0  0  0
 82 89  1  0  0  0
 82170  1  0  0  0
 86171  1  0  0  0
 87172  1  0  0  0
M  CHG  1  86   1
M  ISO  4   1 100  68 101  84 101  87 100
M  END
> <chiral flag>
0

> <version>
0

> <s_m_source_file>
/data/baiqing/PycharmProjects/Reinvent-master-3.2/result/LINK_invent/BTK/process_docking_weight1_custom_sum_contain_oxygen_bond_distance_aromatic_linkinvent_7_9_3/rearranged_h_0073.sdf

> <i_m_source_file_index>
68

> <r_mmod_Potential_Energy-OPLS-2005>
24.7531604766846

> <r_mmod_Stretch_Energy-OPLS-2005>
81.3698883056641

> <r_mmod_Bend_Energy-OPLS-2005>
159.226303100586

> <r_mmod_Torsional_Energy-OPLS-2005>
283.345031738281

> <r_mmod_Improper_Torsional_Energy-OPLS-2005>
3.53195548057556

> <r_mmod_Van_der_Waal_Energy-OPLS-2005>
141.568298339844

> <r_mmod_Electrostatic_Energy-OPLS-2005>
-257.683898925781

> <r_mmod_Solvation_Energy-OPLS-2005>
-422.143005371094

> <b_mmod_Minimization_Converged-OPLS-2005>
0

> <r_mmod_RMS_Derivative-OPLS-2005>
1.88913631439209

$$$$
68
                    3D
 Structure written by MMmdl.
159167  0  0  1  0            999 V2000
  -30.6026  -14.7462   20.4831 C   0  0  0  0  0  0
  -30.4362  -12.4591   19.4843 C   0  0  0  0  0  0
  -29.5161  -12.5237   18.2432 C   0  0  0  0  0  0
  -28.0394  -12.3501   18.6473 C   0  0  0  0  0  0
  -27.6456  -13.2349   19.8601 C   0  0  2  0  0  0
  -28.6869  -13.1528   20.9984 C   0  0  0  0  0  0
  -25.2522  -13.8193   20.5719 C   0  0  0  0  0  0
  -24.1815  -13.0442   20.9207 C   0  0  0  0  0  0
  -24.6399  -11.6924   20.8736 C   0  0  0  0  0  0
  -23.9074  -10.4305   21.0420 C   0  0  0  0  0  0
  -24.3635   -9.4207   21.9190 C   0  0  0  0  0  0
  -23.6312   -8.2240   22.0752 C   0  0  0  0  0  0
  -22.4283   -8.0285   21.3553 C   0  0  0  0  0  0
  -21.9922   -9.0250   20.4637 C   0  0  0  0  0  0
  -22.7253  -10.2133   20.3053 C   0  0  0  0  0  0
  -21.6852   -6.0746   22.5286 C   0  0  0  0  0  0
  -21.4013   -6.5650   23.8217 C   0  0  0  0  0  0
  -21.3648   -5.6799   24.9176 C   0  0  0  0  0  0
  -21.6044   -4.3063   24.7223 C   0  0  0  0  0  0
  -21.8825   -3.8156   23.4349 C   0  0  0  0  0  0
  -21.9197   -4.6975   22.3406 C   0  0  0  0  0  0
  -22.7837  -13.5214   21.1881 C   0  0  0  0  0  0
  -22.1677   -4.2163   21.0982 F   0  0  0  0  0  0
  -21.5617   -3.4547   25.7729 F   0  0  0  0  0  0
  -29.9937  -13.5109   20.4321 N   0  0  0  0  0  0
  -26.2955  -12.9413   20.3310 N   0  0  0  0  0  0
  -25.9330  -11.6557   20.5742 N   0  0  0  0  0  0
  -22.0497  -12.8174   22.0418 N   0  0  0  0  0  0
  -25.4214  -15.1922   20.4182 N   0  0  0  0  0  0
  -31.7694  -14.8729   20.1021 O   0  0  0  0  0  0
  -21.6647   -6.8884   21.4243 O   0  0  0  0  0  0
  -22.3517  -14.5532   20.6751 O   0  0  0  0  0  0
  -24.6291  -31.8562   23.1995 C   0  0  0  0  0  0
  -25.9129  -32.4767   23.8336 C   0  0  1  0  0  0
  -27.2236  -27.2669   20.1394 C   0  0  0  0  0  0
  -25.5939  -33.8574   24.2272 N   0  0  0  0  0  0
  -23.4263  -30.4768   21.5423 C   0  0  2  0  0  0
  -24.8759  -28.9243   20.1104 C   0  0  0  0  0  0
  -22.7492  -29.4593   22.4919 C   0  0  0  0  0  0
  -18.0281  -28.1375   22.8475 C   0  0  0  0  0  0
  -24.1497  -36.7279   23.2636 C   0  0  0  0  0  0
  -25.9707  -30.7719   21.3776 C   0  0  0  0  0  0
  -26.0454  -29.3941   20.7203 C   0  0  0  0  0  0
  -27.2223  -28.5782   20.7211 C   0  0  0  0  0  0
  -26.0327  -26.8644   19.4949 C   0  0  0  0  0  0
  -24.8743  -27.6672   19.4850 C   0  0  0  0  0  0
  -23.6458  -29.8094   20.1584 C   0  0  0  0  0  0
  -25.4124  -36.3081   24.0322 C   0  0  1  0  0  0
  -20.5880  -28.3691   23.1267 C   0  0  2  0  0  0
  -20.6774  -26.9413   22.5406 C   0  0  0  0  0  0
  -19.5758  -26.6375   21.5205 C   0  0  0  0  0  0
  -18.1935  -26.7914   22.1609 C   0  0  0  0  0  0
  -19.1532  -28.8846   23.2868 C   0  0  0  0  0  0
  -18.9461  -30.1441   23.8898 C   0  0  0  0  0  0
  -17.6466  -30.6586   24.0550 C   0  0  0  0  0  0
  -25.9057  -34.9449   23.5101 C   0  0  0  0  0  0
  -16.5354  -29.9084   23.6326 C   0  0  0  0  0  0
  -16.7270  -28.6492   23.0362 C   0  0  0  0  0  0
  -26.4505  -31.6579   25.0714 C   0  0  0  0  0  0
  -25.3723  -31.3712   26.1423 C   0  0  0  0  0  0
  -27.0363  -30.3001   24.6191 C   0  0  0  0  0  0
  -27.6071  -32.4309   25.7489 C   0  0  0  0  0  0
  -27.5591  -37.1796   24.8461 C   0  0  0  0  0  0
  -21.4195  -29.3041   22.3662 N   0  0  0  0  0  0
  -26.4303  -37.3781   23.9406 N   0  0  0  0  0  0
  -24.6948  -31.0521   22.0972 N   0  0  0  0  0  0
  -23.4187  -28.8134   23.3026 O   0  0  0  0  0  0
  -28.3232  -26.3805   20.2155 O   0  0  0  0  0  0
  -26.5634  -34.8924   22.4672 O   0  0  0  0  0  0
  -23.5440  -32.1373   23.7295 O   0  0  0  0  0  0
  -28.2946  -21.5228   19.5652 C   0  0  0  0  0  0
  -29.6328  -21.2263   21.2228 C   0  0  0  0  0  0
  -29.0504  -22.2835   20.5117 C   0  0  0  0  0  0
  -30.2698  -18.5608   22.5829 C   0  0  0  0  0  0
  -30.5463  -24.2154   19.9265 C   0  0  0  0  0  0
  -29.3904  -24.2023   22.1542 C   0  0  0  0  0  0
  -30.0022  -17.3236   20.3357 C   0  0  0  0  0  0
  -28.1156  -24.8924   20.0826 C   0  0  0  0  0  0
  -29.4518  -18.5233   21.2810 C   0  0  2  0  0  0
  -29.2365  -23.8720   20.6565 C   0  0  0  0  0  0
  -28.4078  -20.1868   19.6956 N   0  0  0  0  0  0
  -29.2566  -19.9502   20.7283 N   0  0  0  0  0  0
  -29.8178  -15.8565   20.7581 N   0  0  0  0  0  0
  -31.4777  -12.5874   19.1862 H   0  0  0  0  0  0
  -30.3803  -11.4783   19.9579 H   0  0  0  0  0  0
  -29.7973  -11.7571   17.5197 H   0  0  0  0  0  0
  -29.6454  -13.4812   17.7351 H   0  0  0  0  0  0
  -27.8830  -11.2987   18.8894 H   0  0  0  0  0  0
  -27.3886  -12.5633   17.7983 H   0  0  0  0  0  0
  -27.6432  -14.2618   19.4944 H   0  0  0  0  0  0
  -28.7187  -12.1487   21.4244 H   0  0  0  0  0  0
  -28.4171  -13.8203   21.8182 H   0  0  0  0  0  0
  -25.2784   -9.5672   22.4750 H   0  0  0  0  0  0
  -24.0023   -7.4622   22.7464 H   0  0  0  0  0  0
  -21.0862   -8.8759   19.8940 H   0  0  0  0  0  0
  -22.3718  -10.9665   19.6162 H   0  0  0  0  0  0
  -21.2005   -7.6163   23.9720 H   0  0  0  0  0  0
  -21.1467   -6.0534   25.9076 H   0  0  0  0  0  0
  -22.0610   -2.7623   23.2842 H   0  0  0  0  0  0
  -22.4161  -11.9853   22.4782 H   0  0  0  0  0  0
  -21.1108  -13.1152   22.2646 H   0  0  0  0  0  0
  -24.6506  -15.8422   20.5206 H   0  0  0  0  0  0
  -26.2662  -15.6309   20.0756 H   0  0  0  0  0  0
  -26.7194  -32.5436   23.1079 H   0  0  0  0  0  0
  -25.0100  -33.9717   25.0424 H   0  0  0  0  0  0
  -22.7221  -31.2990   21.3971 H   0  0  0  0  0  0
  -23.3779  -35.9592   23.3282 H   0  0  0  0  0  0
  -24.3583  -36.8919   22.2054 H   0  0  0  0  0  0
  -23.7228  -37.6461   23.6670 H   0  0  0  0  0  0
  -26.1084  -31.5349   20.6088 H   0  0  0  0  0  0
  -26.8467  -30.8210   22.0136 H   0  0  0  0  0  0
  -28.1167  -28.9323   21.2154 H   0  0  0  0  0  0
  -25.9715  -25.9039   19.0040 H   0  0  0  0  0  0
  -23.9778  -27.3003   19.0040 H   0  0  0  0  0  0
  -23.7701  -30.5859   19.4029 H   0  0  0  0  0  0
  -22.7634  -29.2411   19.8560 H   0  0  0  0  0  0
  -25.1311  -36.1932   25.0815 H   0  0  0  0  0  0
  -20.9964  -28.3282   24.1390 H   0  0  0  0  0  0
  -20.5676  -26.2312   23.3612 H   0  0  0  0  0  0
  -21.6651  -26.7450   22.1213 H   0  0  0  0  0  0
  -19.6930  -25.6283   21.1253 H   0  0  0  0  0  0
  -19.6700  -27.3171   20.6727 H   0  0  0  0  0  0
  -17.4208  -26.6650   21.4012 H   0  0  0  0  0  0
  -18.0337  -26.0056   22.9006 H   0  0  0  0  0  0
  -19.7943  -30.7239   24.2288 H   0  0  0  0  0  0
  -17.5030  -31.6272   24.5145 H   0  0  0  0  0  0
  -15.5356  -30.2996   23.7641 H   0  0  0  0  0  0
  -15.8662  -28.0807   22.7094 H   0  0  0  0  0  0
  -24.5916  -30.7056   25.7727 H   0  0  0  0  0  0
  -24.8888  -32.2868   26.4835 H   0  0  0  0  0  0
  -25.8016  -30.8889   27.0211 H   0  0  0  0  0  0
  -26.2948  -29.6733   24.1224 H   0  0  0  0  0  0
  -27.4059  -29.7282   25.4711 H   0  0  0  0  0  0
  -27.8820  -30.4283   23.9434 H   0  0  0  0  0  0
  -27.2705  -33.3625   26.2045 H   0  0  0  0  0  0
  -28.3888  -32.6829   25.0313 H   0  0  0  0  0  0
  -28.0727  -31.8438   26.5409 H   0  0  0  0  0  0
  -28.2595  -38.0115   24.7552 H   0  0  0  0  0  0
  -28.1106  -36.2643   24.6245 H   0  0  0  0  0  0
  -27.2304  -37.1393   25.8865 H   0  0  0  0  0  0
  -20.9369  -29.8775   21.6881 H   0  0  0  0  0  0
  -26.0178  -38.2853   24.1431 H   0  0  0  0  0  0
  -27.6609  -21.9033   18.7772 H   0  0  0  0  0  0
  -30.2981  -21.2849   22.0745 H   0  0  0  0  0  0
  -30.2927  -17.5818   23.0631 H   0  0  0  0  0  0
  -29.8433  -19.2621   23.3021 H   0  0  0  0  0  0
  -31.3014  -18.8590   22.3923 H   0  0  0  0  0  0
  -31.3943  -23.6590   20.3271 H   0  0  0  0  0  0
  -30.7843  -25.2768   20.0037 H   0  0  0  0  0  0
  -30.4702  -23.9785   18.8644 H   0  0  0  0  0  0
  -30.2090  -23.6517   22.6188 H   0  0  0  0  0  0
  -28.4805  -23.9641   22.7048 H   0  0  0  0  0  0
  -29.5911  -25.2638   22.3111 H   0  0  0  0  0  0
  -31.0595  -17.5030   20.1285 H   0  0  0  0  0  0
  -29.5034  -17.4180   19.3709 H   0  0  0  0  0  0
  -27.1717  -24.6323   20.5616 H   0  0  0  0  0  0
  -27.9816  -24.6836   19.0209 H   0  0  0  0  0  0
  -28.4473  -18.2167   21.5759 H   0  0  0  0  0  0
  -28.8943  -15.6269   21.0935 H   0  0  0  0  0  0
  1 25  1  0  0  0
  1 30  2  0  0  0
  1 83  1  0  0  0
  2  3  1  0  0  0
  2 25  1  0  0  0
  2 84  1  0  0  0
  2 85  1  0  0  0
  3  4  1  0  0  0
  3 86  1  0  0  0
  3 87  1  0  0  0
  4  5  1  0  0  0
  4 88  1  0  0  0
  4 89  1  0  0  0
  5  6  1  0  0  0
  5 26  1  0  0  0
  5 90  1  0  0  0
  6 25  1  0  0  0
  6 91  1  0  0  0
  6 92  1  0  0  0
  7  8  2  0  0  0
  7 26  1  0  0  0
  7 29  1  0  0  0
  8  9  1  0  0  0
  8 22  1  0  0  0
  9 10  1  0  0  0
  9 27  2  0  0  0
 10 11  2  0  0  0
 10 15  1  0  0  0
 11 12  1  0  0  0
 11 93  1  0  0  0
 12 13  2  0  0  0
 12 94  1  0  0  0
 13 14  1  0  0  0
 13 31  1  0  0  0
 14 15  2  0  0  0
 14 95  1  0  0  0
 15 96  1  0  0  0
 16 17  2  0  0  0
 16 21  1  0  0  0
 16 31  1  0  0  0
 17 18  1  0  0  0
 17 97  1  0  0  0
 18 19  2  0  0  0
 18 98  1  0  0  0
 19 20  1  0  0  0
 19 24  1  0  0  0
 20 21  2  0  0  0
 20 99  1  0  0  0
 21 23  1  0  0  0
 22 28  1  0  0  0
 22 32  2  0  0  0
 26 27  1  0  0  0
 28100  1  0  0  0
 28101  1  0  0  0
 29102  1  0  0  0
 29103  1  0  0  0
 33 34  1  0  0  0
 33 66  1  0  0  0
 33 70  2  0  0  0
 34 36  1  0  0  0
 34 59  1  0  0  0
 34104  1  0  0  0
 35 44  2  0  0  0
 35 45  1  0  0  0
 35 68  1  0  0  0
 36 56  1  0  0  0
 36105  1  0  0  0
 37 39  1  0  0  0
 37 47  1  0  0  0
 37 66  1  0  0  0
 37106  1  0  0  0
 38 43  2  0  0  0
 38 46  1  0  0  0
 38 47  1  0  0  0
 39 64  1  0  0  0
 39 67  2  0  0  0
 40 52  1  0  0  0
 40 53  2  0  0  0
 40 58  1  0  0  0
 41107  1  0  0  0
 41108  1  0  0  0
 41109  1  0  0  0
 41 48  1  0  0  0
 42 43  1  0  0  0
 42 66  1  0  0  0
 42110  1  0  0  0
 42111  1  0  0  0
 43 44  1  0  0  0
 44112  1  0  0  0
 45 46  2  0  0  0
 45113  1  0  0  0
 46114  1  0  0  0
 47115  1  0  0  0
 47116  1  0  0  0
 48 56  1  0  0  0
 48 65  1  0  0  0
 48117  1  0  0  0
 49 50  1  0  0  0
 49 53  1  0  0  0
 49 64  1  0  0  0
 49118  1  0  0  0
 50 51  1  0  0  0
 50119  1  0  0  0
 50120  1  0  0  0
 51 52  1  0  0  0
 51121  1  0  0  0
 51122  1  0  0  0
 52123  1  0  0  0
 52124  1  0  0  0
 53 54  1  0  0  0
 54 55  2  0  0  0
 54125  1  0  0  0
 55 57  1  0  0  0
 55126  1  0  0  0
 56 69  2  0  0  0
 57 58  2  0  0  0
 57127  1  0  0  0
 58128  1  0  0  0
 59 60  1  0  0  0
 59 61  1  0  0  0
 59 62  1  0  0  0
 60129  1  0  0  0
 60130  1  0  0  0
 60131  1  0  0  0
 61132  1  0  0  0
 61133  1  0  0  0
 61134  1  0  0  0
 62135  1  0  0  0
 62136  1  0  0  0
 62137  1  0  0  0
 63 65  1  0  0  0
 63138  1  0  0  0
 63139  1  0  0  0
 63140  1  0  0  0
 64141  1  0  0  0
 65142  1  0  0  0
 68 78  1  0  0  0
 71 73  1  0  0  0
 71 81  2  0  0  0
 71143  1  0  0  0
 72 73  2  0  0  0
 72 82  1  0  0  0
 72144  1  0  0  0
 73 80  1  0  0  0
 74145  1  0  0  0
 74146  1  0  0  0
 74147  1  0  0  0
 74 79  1  0  0  0
 75148  1  0  0  0
 75149  1  0  0  0
 75150  1  0  0  0
 75 80  1  0  0  0
 76 80  1  0  0  0
 76151  1  0  0  0
 76152  1  0  0  0
 76153  1  0  0  0
 77 79  1  0  0  0
 77 83  1  0  0  0
 77154  1  0  0  0
 77155  1  0  0  0
 78 80  1  0  0  0
 78156  1  0  0  0
 78157  1  0  0  0
 79 82  1  0  0  0
 79158  1  0  0  0
 81 82  1  0  0  0
 83159  1  0  0  0
M  ISO  4   1 100  68 101  78 101  83 100
M  END
> <chiral flag>
0

> <version>
0

> <s_m_source_file>
/data/baiqing/PycharmProjects/Reinvent-master-3.2/result/LINK_invent/BTK/process_docking_weight1_custom_sum_contain_oxygen_bond_distance_aromatic_linkinvent_7_9_3/rearranged_h_0073.sdf

> <i_m_source_file_index>
69

> <r_mmod_Potential_Energy-OPLS-2005>
119.048706054688

> <r_mmod_Stretch_Energy-OPLS-2005>
126.002258300781

> <r_mmod_Bend_Energy-OPLS-2005>
163.842346191406

> <r_mmod_Torsional_Energy-OPLS-2005>
239.647644042969

> <r_mmod_Improper_Torsional_Energy-OPLS-2005>
6.59607172012329

> <r_mmod_Van_der_Waal_Energy-OPLS-2005>
114.233116149902

> <r_mmod_Electrostatic_Energy-OPLS-2005>
-399.762603759766

> <r_mmod_Solvation_Energy-OPLS-2005>
-214.85871887207

> <b_mmod_Minimization_Converged-OPLS-2005>
0

> <r_mmod_RMS_Derivative-OPLS-2005>
2.35252022743225

$$$$
69
                    3D
 Structure written by MMmdl.
166174  0  0  1  0            999 V2000
  -30.5891  -14.9799   20.4638 C   0  0  0  0  0  0
  -30.4333  -12.6180   19.5172 C   0  0  0  0  0  0
  -29.5170  -12.5622   18.2716 C   0  0  0  0  0  0
  -28.0440  -12.3681   18.6717 C   0  0  0  0  0  0
  -27.6329  -13.2729   19.8606 C   0  0  2  0  0  0
  -28.6780  -13.2876   20.9987 C   0  0  0  0  0  0
  -25.2417  -13.8278   20.5739 C   0  0  0  0  0  0
  -24.1771  -13.0447   20.9203 C   0  0  0  0  0  0
  -24.6413  -11.6938   20.8723 C   0  0  0  0  0  0
  -23.9098  -10.4306   21.0356 C   0  0  0  0  0  0
  -24.3638   -9.4215   21.9150 C   0  0  0  0  0  0
  -23.6318   -8.2248   22.0736 C   0  0  0  0  0  0
  -22.4288   -8.0275   21.3527 C   0  0  0  0  0  0
  -21.9920   -9.0243   20.4623 C   0  0  0  0  0  0
  -22.7240  -10.2129   20.3019 C   0  0  0  0  0  0
  -21.6866   -6.0711   22.5263 C   0  0  0  0  0  0
  -21.4027   -6.5607   23.8201 C   0  0  0  0  0  0
  -21.3667   -5.6770   24.9163 C   0  0  0  0  0  0
  -21.6054   -4.3032   24.7211 C   0  0  0  0  0  0
  -21.8837   -3.8109   23.4335 C   0  0  0  0  0  0
  -21.9203   -4.6933   22.3383 C   0  0  0  0  0  0
  -22.7761  -13.5146   21.1868 C   0  0  0  0  0  0
  -22.1656   -4.2119   21.0964 F   0  0  0  0  0  0
  -21.5637   -3.4517   25.7728 F   0  0  0  0  0  0
  -29.9584  -13.7227   20.4116 N   0  0  0  0  0  0
  -26.2912  -12.9578   20.3352 N   0  0  0  0  0  0
  -25.9372  -11.6666   20.5743 N   0  0  0  0  0  0
  -22.0451  -12.8185   22.0464 N   0  0  0  0  0  0
  -25.4042  -15.2040   20.4209 N   0  0  0  0  0  0
  -31.7422  -15.0221   20.0206 O   0  0  0  0  0  0
  -21.6648   -6.8865   21.4228 O   0  0  0  0  0  0
  -22.3414  -14.5434   20.6680 O   0  0  0  0  0  0
  -24.6485  -31.8393   23.1862 C   0  0  0  0  0  0
  -25.9211  -32.4701   23.8304 C   0  0  1  0  0  0
  -27.2410  -27.1366   20.1279 C   0  0  0  0  0  0
  -25.5949  -33.8495   24.2243 N   0  0  0  0  0  0
  -23.4583  -30.4615   21.5274 C   0  0  2  0  0  0
  -24.9094  -28.8853   20.1084 C   0  0  0  0  0  0
  -22.7622  -29.4527   22.4769 C   0  0  0  0  0  0
  -18.0358  -28.1363   22.8469 C   0  0  0  0  0  0
  -24.1467  -36.7243   23.2655 C   0  0  0  0  0  0
  -26.0162  -30.7164   21.3827 C   0  0  0  0  0  0
  -26.0908  -29.3269   20.7205 C   0  0  0  0  0  0
  -27.2572  -28.4693   20.7114 C   0  0  0  0  0  0
  -26.0337  -26.8038   19.4775 C   0  0  0  0  0  0
  -24.8919  -27.6357   19.4750 C   0  0  0  0  0  0
  -23.6866  -29.7900   20.1473 C   0  0  0  0  0  0
  -25.4095  -36.3044   24.0341 C   0  0  1  0  0  0
  -20.5978  -28.3671   23.1169 C   0  0  2  0  0  0
  -20.6828  -26.9348   22.5332 C   0  0  0  0  0  0
  -19.5757  -26.6279   21.5188 C   0  0  0  0  0  0
  -18.1930  -26.7946   22.1529 C   0  0  0  0  0  0
  -19.1622  -28.8815   23.2867 C   0  0  0  0  0  0
  -18.9543  -30.1383   23.8955 C   0  0  0  0  0  0
  -17.6530  -30.6542   24.0570 C   0  0  0  0  0  0
  -25.9041  -34.9400   23.5094 C   0  0  0  0  0  0
  -16.5419  -29.9080   23.6282 C   0  0  0  0  0  0
  -16.7353  -28.6480   23.0319 C   0  0  0  0  0  0
  -26.4519  -31.6568   25.0738 C   0  0  0  0  0  0
  -25.3732  -31.3732   26.1458 C   0  0  0  0  0  0
  -27.0376  -30.2989   24.6286 C   0  0  0  0  0  0
  -27.6073  -32.4303   25.7514 C   0  0  0  0  0  0
  -27.5565  -37.1795   24.8473 C   0  0  0  0  0  0
  -21.4301  -29.3054   22.3560 N   0  0  0  0  0  0
  -26.4272  -37.3751   23.9430 N   0  0  0  0  0  0
  -24.7289  -31.0266   22.0889 N   0  0  0  0  0  0
  -23.4256  -28.8031   23.2900 O   0  0  0  0  0  0
  -28.2969  -26.1464   20.1770 O   0  0  0  0  0  0
  -26.5588  -34.8883   22.4654 O   0  0  0  0  0  0
  -23.5584  -32.1207   23.7055 O   0  0  0  0  0  0
  -27.1024  -21.7782   19.2659 C   0  0  0  0  0  0
  -28.3822  -21.7777   19.7644 C   0  0  0  0  0  0
  -28.0633  -19.9205   18.5666 C   0  0  0  0  0  0
  -28.0992  -19.3283   16.1051 C   0  0  0  0  0  0
  -30.0800  -23.4468   19.0295 C   0  0  0  0  0  0
  -29.6291  -23.2007   21.5204 C   0  0  0  0  0  0
  -29.3196  -16.3756   22.0960 C   0  0  0  0  0  0
  -28.2916  -18.8368   17.5505 C   0  0  0  0  0  0
  -29.7378  -19.2274   20.3499 C   0  0  0  0  0  0
  -29.7699  -17.5561   19.9242 C   0  0  0  0  0  0
  -28.0053  -24.6196   20.0052 C   0  0  0  0  0  0
  -29.0101  -23.2424   20.1203 C   0  0  0  0  0  0
  -28.7868  -20.3401   19.6387 N   0  0  0  0  0  0
  -26.9660  -20.6679   18.5107 N   0  3  0  0  0  0
  -29.9069  -16.2119   20.7660 N   0  0  0  0  0  0
  -31.4672  -12.7564   19.2004 H   0  0  0  0  0  0
  -30.4252  -11.6636   20.0463 H   0  0  0  0  0  0
  -29.8252  -11.7509   17.6143 H   0  0  0  0  0  0
  -29.6244  -13.4840   17.6964 H   0  0  0  0  0  0
  -27.9059  -11.3183   18.9328 H   0  0  0  0  0  0
  -27.3880  -12.5548   17.8180 H   0  0  0  0  0  0
  -27.6015  -14.2870   19.4601 H   0  0  0  0  0  0
  -28.7706  -12.2996   21.4526 H   0  0  0  0  0  0
  -28.3551  -13.9539   21.7973 H   0  0  0  0  0  0
  -25.2783   -9.5705   22.4728 H   0  0  0  0  0  0
  -24.0024   -7.4651   22.7474 H   0  0  0  0  0  0
  -21.0833   -8.8725   19.8955 H   0  0  0  0  0  0
  -22.3642  -10.9650   19.6132 H   0  0  0  0  0  0
  -21.2010   -7.6119   23.9694 H   0  0  0  0  0  0
  -21.1486   -6.0491   25.9075 H   0  0  0  0  0  0
  -22.0625   -2.7567   23.2831 H   0  0  0  0  0  0
  -22.4026  -11.9843   22.4895 H   0  0  0  0  0  0
  -21.1067  -13.1201   22.2641 H   0  0  0  0  0  0
  -24.6382  -15.8575   20.5500 H   0  0  0  0  0  0
  -26.2682  -15.6563   20.1519 H   0  0  0  0  0  0
  -26.7296  -32.5324   23.1060 H   0  0  0  0  0  0
  -25.0214  -33.9607   25.0477 H   0  0  0  0  0  0
  -22.7674  -31.2894   21.3675 H   0  0  0  0  0  0
  -23.3729  -35.9567   23.3277 H   0  0  0  0  0  0
  -24.3615  -36.8876   22.2089 H   0  0  0  0  0  0
  -23.7155  -37.6425   23.6660 H   0  0  0  0  0  0
  -26.1712  -31.4668   20.6064 H   0  0  0  0  0  0
  -26.8901  -30.7806   22.0195 H   0  0  0  0  0  0
  -28.1614  -28.8048   21.2028 H   0  0  0  0  0  0
  -25.9321  -25.8576   18.9730 H   0  0  0  0  0  0
  -23.9939  -27.2938   18.9807 H   0  0  0  0  0  0
  -23.8290  -30.5632   19.3900 H   0  0  0  0  0  0
  -22.8019  -29.2348   19.8334 H   0  0  0  0  0  0
  -25.1267  -36.1932   25.0832 H   0  0  0  0  0  0
  -21.0175  -28.3250   24.1234 H   0  0  0  0  0  0
  -20.5810  -26.2243   23.3555 H   0  0  0  0  0  0
  -21.6655  -26.7341   22.1041 H   0  0  0  0  0  0
  -19.6813  -25.6122   21.1342 H   0  0  0  0  0  0
  -19.6743  -27.2942   20.6618 H   0  0  0  0  0  0
  -17.4286  -26.6904   21.3826 H   0  0  0  0  0  0
  -18.0124  -26.0011   22.8798 H   0  0  0  0  0  0
  -19.8002  -30.7160   24.2430 H   0  0  0  0  0  0
  -17.5093  -31.6234   24.5162 H   0  0  0  0  0  0
  -15.5429  -30.3006   23.7527 H   0  0  0  0  0  0
  -15.8778  -28.0801   22.6976 H   0  0  0  0  0  0
  -24.5953  -30.7012   25.7832 H   0  0  0  0  0  0
  -24.8862  -32.2892   26.4820 H   0  0  0  0  0  0
  -25.8073  -30.9021   27.0288 H   0  0  0  0  0  0
  -26.2987  -29.6735   24.1285 H   0  0  0  0  0  0
  -27.4016  -29.7264   25.4820 H   0  0  0  0  0  0
  -27.8864  -30.4248   23.9557 H   0  0  0  0  0  0
  -27.2717  -33.3637   26.2017 H   0  0  0  0  0  0
  -28.3937  -32.6800   25.0385 H   0  0  0  0  0  0
  -28.0668  -31.8479   26.5510 H   0  0  0  0  0  0
  -28.2585  -38.0095   24.7543 H   0  0  0  0  0  0
  -28.1072  -36.2643   24.6269 H   0  0  0  0  0  0
  -27.2323  -37.1389   25.8888 H   0  0  0  0  0  0
  -20.9466  -29.8947   21.6916 H   0  0  0  0  0  0
  -26.0142  -38.2822   24.1447 H   0  0  0  0  0  0
  -26.3581  -22.5606   19.2229 H   0  0  0  0  0  0
  -28.2326  -18.5141   15.3948 H   0  0  0  0  0  0
  -28.8326  -20.0971   15.8574 H   0  0  0  0  0  0
  -27.1067  -19.7452   15.9345 H   0  0  0  0  0  0
  -30.8191  -22.6451   19.0132 H   0  0  0  0  0  0
  -30.6146  -24.3917   19.1326 H   0  0  0  0  0  0
  -29.6103  -23.4536   18.0434 H   0  0  0  0  0  0
  -30.4414  -22.4795   21.5921 H   0  0  0  0  0  0
  -30.0290  -24.1784   21.7903 H   0  0  0  0  0  0
  -28.8821  -22.9316   22.2657 H   0  0  0  0  0  0
  -29.6631  -17.2895   22.5797 H   0  0  0  0  0  0
  -29.5918  -15.5680   22.7765 H   0  0  0  0  0  0
  -28.2315  -16.4190   22.0130 H   0  0  0  0  0  0
  -27.5998  -18.0287   17.7840 H   0  0  0  0  0  0
  -29.3133  -18.4828   17.6274 H   0  0  0  0  0  0
  -30.7575  -19.6079   20.2687 H   0  0  0  0  0  0
  -29.5003  -19.3113   21.4100 H   0  0  0  0  0  0
  -30.4822  -17.4558   19.1049 H   0  0  0  0  0  0
  -28.7872  -17.3602   19.5184 H   0  0  0  0  0  0
  -27.1635  -24.4305   20.6672 H   0  0  0  0  0  0
  -27.6090  -24.5561   18.9947 H   0  0  0  0  0  0
  -26.1929  -20.4956   17.8803 H   0  0  0  0  0  0
  1 25  1  0  0  0
  1 30  2  0  0  0
  1 85  1  0  0  0
  2  3  1  0  0  0
  2 25  1  0  0  0
  2 86  1  0  0  0
  2 87  1  0  0  0
  3  4  1  0  0  0
  3 88  1  0  0  0
  3 89  1  0  0  0
  4  5  1  0  0  0
  4 90  1  0  0  0
  4 91  1  0  0  0
  5  6  1  0  0  0
  5 26  1  0  0  0
  5 92  1  0  0  0
  6 25  1  0  0  0
  6 93  1  0  0  0
  6 94  1  0  0  0
  7  8  2  0  0  0
  7 26  1  0  0  0
  7 29  1  0  0  0
  8  9  1  0  0  0
  8 22  1  0  0  0
  9 10  1  0  0  0
  9 27  2  0  0  0
 10 11  2  0  0  0
 10 15  1  0  0  0
 11 12  1  0  0  0
 11 95  1  0  0  0
 12 13  2  0  0  0
 12 96  1  0  0  0
 13 14  1  0  0  0
 13 31  1  0  0  0
 14 15  2  0  0  0
 14 97  1  0  0  0
 15 98  1  0  0  0
 16 17  2  0  0  0
 16 21  1  0  0  0
 16 31  1  0  0  0
 17 18  1  0  0  0
 17 99  1  0  0  0
 18 19  2  0  0  0
 18100  1  0  0  0
 19 20  1  0  0  0
 19 24  1  0  0  0
 20 21  2  0  0  0
 20101  1  0  0  0
 21 23  1  0  0  0
 22 28  1  0  0  0
 22 32  2  0  0  0
 26 27  1  0  0  0
 28102  1  0  0  0
 28103  1  0  0  0
 29104  1  0  0  0
 29105  1  0  0  0
 33 34  1  0  0  0
 33 66  1  0  0  0
 33 70  2  0  0  0
 34 36  1  0  0  0
 34 59  1  0  0  0
 34106  1  0  0  0
 35 44  2  0  0  0
 35 45  1  0  0  0
 35 68  1  0  0  0
 36 56  1  0  0  0
 36107  1  0  0  0
 37 39  1  0  0  0
 37 47  1  0  0  0
 37 66  1  0  0  0
 37108  1  0  0  0
 38 43  2  0  0  0
 38 46  1  0  0  0
 38 47  1  0  0  0
 39 64  1  0  0  0
 39 67  2  0  0  0
 40 52  1  0  0  0
 40 53  2  0  0  0
 40 58  1  0  0  0
 41109  1  0  0  0
 41110  1  0  0  0
 41111  1  0  0  0
 41 48  1  0  0  0
 42 43  1  0  0  0
 42 66  1  0  0  0
 42112  1  0  0  0
 42113  1  0  0  0
 43 44  1  0  0  0
 44114  1  0  0  0
 45 46  2  0  0  0
 45115  1  0  0  0
 46116  1  0  0  0
 47117  1  0  0  0
 47118  1  0  0  0
 48 56  1  0  0  0
 48 65  1  0  0  0
 48119  1  0  0  0
 49 50  1  0  0  0
 49 53  1  0  0  0
 49 64  1  0  0  0
 49120  1  0  0  0
 50 51  1  0  0  0
 50121  1  0  0  0
 50122  1  0  0  0
 51 52  1  0  0  0
 51123  1  0  0  0
 51124  1  0  0  0
 52125  1  0  0  0
 52126  1  0  0  0
 53 54  1  0  0  0
 54 55  2  0  0  0
 54127  1  0  0  0
 55 57  1  0  0  0
 55128  1  0  0  0
 56 69  2  0  0  0
 57 58  2  0  0  0
 57129  1  0  0  0
 58130  1  0  0  0
 59 60  1  0  0  0
 59 61  1  0  0  0
 59 62  1  0  0  0
 60131  1  0  0  0
 60132  1  0  0  0
 60133  1  0  0  0
 61134  1  0  0  0
 61135  1  0  0  0
 61136  1  0  0  0
 62137  1  0  0  0
 62138  1  0  0  0
 62139  1  0  0  0
 63 65  1  0  0  0
 63140  1  0  0  0
 63141  1  0  0  0
 63142  1  0  0  0
 64143  1  0  0  0
 65144  1  0  0  0
 68 81  1  0  0  0
 71 72  2  0  0  0
 71 84  1  0  0  0
 71145  1  0  0  0
 72 82  1  0  0  0
 72 83  1  0  0  0
 73 78  1  0  0  0
 73 83  1  0  0  0
 73 84  2  0  0  0
 74 78  1  0  0  0
 74146  1  0  0  0
 74147  1  0  0  0
 74148  1  0  0  0
 75149  1  0  0  0
 75150  1  0  0  0
 75151  1  0  0  0
 75 82  1  0  0  0
 76 82  1  0  0  0
 76152  1  0  0  0
 76153  1  0  0  0
 76154  1  0  0  0
 77 85  1  0  0  0
 77155  1  0  0  0
 77156  1  0  0  0
 77157  1  0  0  0
 78158  1  0  0  0
 78159  1  0  0  0
 79 80  1  0  0  0
 79 83  1  0  0  0
 79160  1  0  0  0
 79161  1  0  0  0
 80 85  1  0  0  0
 80162  1  0  0  0
 80163  1  0  0  0
 81 82  1  0  0  0
 81164  1  0  0  0
 81165  1  0  0  0
 84166  1  0  0  0
M  CHG  1  84   1
M  ISO  4   1 100  68 101  81 101  85 100
M  END
> <chiral flag>
0

> <version>
0

> <s_m_source_file>
/data/baiqing/PycharmProjects/Reinvent-master-3.2/result/LINK_invent/BTK/process_docking_weight1_custom_sum_contain_oxygen_bond_distance_aromatic_linkinvent_7_9_3/rearranged_h_0073.sdf

> <i_m_source_file_index>
70

> <r_mmod_Potential_Energy-OPLS-2005>
845.179382324219

> <r_mmod_Stretch_Energy-OPLS-2005>
330.54541015625

> <r_mmod_Bend_Energy-OPLS-2005>
351.23046875

> <r_mmod_Torsional_Energy-OPLS-2005>
401.969787597656

> <r_mmod_Improper_Torsional_Energy-OPLS-2005>
6.85829830169678

> <r_mmod_Van_der_Waal_Energy-OPLS-2005>
118.065170288086

> <r_mmod_Electrostatic_Energy-OPLS-2005>
-146.105590820312

> <r_mmod_Solvation_Energy-OPLS-2005>
-415.664398193359

> <b_mmod_Minimization_Converged-OPLS-2005>
0

> <r_mmod_RMS_Derivative-OPLS-2005>
5.60548543930054

$$$$
70
                    3D
 Structure written by MMmdl.
167175  0  0  1  0            999 V2000
  -30.7968  -14.4488   20.6712 C   0  0  0  0  0  0
  -30.4112  -12.3336   19.4408 C   0  0  0  0  0  0
  -29.4916  -12.4967   18.2174 C   0  0  0  0  0  0
  -28.0229  -12.3067   18.6282 C   0  0  0  0  0  0
  -27.6527  -13.1804   19.8470 C   0  0  2  0  0  0
  -28.6906  -13.0616   20.9929 C   0  0  0  0  0  0
  -25.2604  -13.8061   20.5579 C   0  0  0  0  0  0
  -24.1865  -13.0420   20.9167 C   0  0  0  0  0  0
  -24.6346  -11.6849   20.8745 C   0  0  0  0  0  0
  -23.8988  -10.4292   21.0469 C   0  0  0  0  0  0
  -24.3567   -9.4231   21.9232 C   0  0  0  0  0  0
  -23.6272   -8.2254   22.0748 C   0  0  0  0  0  0
  -22.4280   -8.0253   21.3491 C   0  0  0  0  0  0
  -21.9884   -9.0216   20.4611 C   0  0  0  0  0  0
  -22.7176  -10.2117   20.3092 C   0  0  0  0  0  0
  -21.6861   -6.0751   22.5254 C   0  0  0  0  0  0
  -21.4043   -6.5637   23.8204 C   0  0  0  0  0  0
  -21.3653   -5.6759   24.9135 C   0  0  0  0  0  0
  -21.6057   -4.3043   24.7168 C   0  0  0  0  0  0
  -21.8856   -3.8151   23.4289 C   0  0  0  0  0  0
  -21.9202   -4.6985   22.3353 C   0  0  0  0  0  0
  -22.7922  -13.5300   21.1830 C   0  0  0  0  0  0
  -22.1662   -4.2172   21.0940 F   0  0  0  0  0  0
  -21.5597   -3.4540   25.7702 F   0  0  0  0  0  0
  -30.0371  -13.3304   20.4659 N   0  0  0  0  0  0
  -26.2986  -12.9171   20.3182 N   0  0  0  0  0  0
  -25.9273  -11.6370   20.5724 N   0  0  0  0  0  0
  -22.0497  -12.8323   22.0315 N   0  0  0  0  0  0
  -25.4422  -15.1777   20.3932 N   0  0  0  0  0  0
  -31.7954  -14.6562   19.9750 O   0  0  0  0  0  0
  -21.6637   -6.8862   21.4203 O   0  0  0  0  0  0
  -22.3668  -14.5680   20.6715 O   0  0  0  0  0  0
  -24.6165  -31.8686   23.2169 C   0  0  0  0  0  0
  -25.9016  -32.4854   23.8500 C   0  0  1  0  0  0
  -27.2175  -27.4272   20.0789 C   0  0  0  0  0  0
  -25.5901  -33.8665   24.2397 N   0  0  0  0  0  0
  -23.4040  -30.4934   21.5608 C   0  0  2  0  0  0
  -24.8409  -28.9653   20.1221 C   0  0  0  0  0  0
  -22.7433  -29.4615   22.5048 C   0  0  0  0  0  0
  -18.0265  -28.1363   22.8506 C   0  0  0  0  0  0
  -24.1450  -36.7297   23.2668 C   0  0  0  0  0  0
  -25.9375  -30.8255   21.3751 C   0  0  0  0  0  0
  -26.0045  -29.4642   20.7159 C   0  0  0  0  0  0
  -27.1957  -28.7032   20.6902 C   0  0  0  0  0  0
  -26.0145  -26.9263   19.5242 C   0  0  0  0  0  0
  -24.8382  -27.6912   19.5342 C   0  0  0  0  0  0
  -23.6095  -29.8366   20.1731 C   0  0  0  0  0  0
  -25.4095  -36.3140   24.0376 C   0  0  1  0  0  0
  -20.5857  -28.3605   23.1347 C   0  0  2  0  0  0
  -20.6729  -26.9333   22.5425 C   0  0  0  0  0  0
  -19.5709  -26.6372   21.5203 C   0  0  0  0  0  0
  -18.1899  -26.7926   22.1625 C   0  0  0  0  0  0
  -19.1518  -28.8806   23.2930 C   0  0  0  0  0  0
  -18.9439  -30.1436   23.8925 C   0  0  0  0  0  0
  -17.6433  -30.6575   24.0525 C   0  0  0  0  0  0
  -25.9048  -34.9500   23.5181 C   0  0  0  0  0  0
  -16.5326  -29.9066   23.6329 C   0  0  0  0  0  0
  -16.7268  -28.6485   23.0370 C   0  0  0  0  0  0
  -26.4457  -31.6689   25.0857 C   0  0  0  0  0  0
  -25.3726  -31.3749   26.1611 C   0  0  0  0  0  0
  -27.0297  -30.3146   24.6260 C   0  0  0  0  0  0
  -27.6035  -32.4437   25.7586 C   0  0  0  0  0  0
  -27.5560  -37.1803   24.8493 C   0  0  0  0  0  0
  -21.4158  -29.3010   22.3788 N   0  0  0  0  0  0
  -26.4273  -37.3831   23.9450 N   0  0  0  0  0  0
  -24.6710  -31.0752   22.1092 N   0  0  0  0  0  0
  -23.4197  -28.8126   23.3056 O   0  0  0  0  0  0
  -28.4157  -26.7341   20.0516 O   0  0  0  0  0  0
  -26.5581  -34.8920   22.4724 O   0  0  0  0  0  0
  -23.5334  -32.1438   23.7531 O   0  0  0  0  0  0
  -28.8307  -21.7046   20.4539 C   0  0  0  0  0  0
  -30.1085  -21.1854   20.1487 C   0  0  0  0  0  0
  -28.0986  -20.9930   21.4361 C   0  0  0  0  0  0
  -29.7985  -19.4475   21.6124 C   0  0  0  0  0  0
  -31.0318  -21.8138   19.1170 C   0  0  0  0  0  0
  -26.5215  -21.4546   23.4131 C   0  0  0  0  0  0
  -28.4597  -16.7708   20.9553 C   0  0  0  0  0  0
  -28.2802  -22.9192   19.6898 C   0  0  0  0  0  0
  -26.6851  -21.3562   21.8842 C   0  0  0  0  0  0
  -30.2996  -18.1077   22.1573 C   0  0  0  0  0  0
  -28.4800  -24.2825   20.3914 C   0  0  0  0  0  0
  -28.5071  -25.4611   19.3935 C   0  0  0  0  0  0
  -29.9662  -16.8805   21.2520 C   0  0  1  0  0  0
  -30.5541  -15.5254   21.7806 C   0  0  0  0  0  0
  -30.5765  -20.0665   20.7329 N   0  0  0  0  0  0
  -28.5925  -19.8642   21.9865 N   0  0  0  0  0  0
  -29.8485  -15.0513   22.8041 F   0  0  0  0  0  0
  -31.7628  -15.8093   22.2742 F   0  0  0  0  0  0
  -31.4541  -12.4249   19.1381 H   0  0  0  0  0  0
  -30.3127  -11.3252   19.8457 H   0  0  0  0  0  0
  -29.7543  -11.7469   17.4682 H   0  0  0  0  0  0
  -29.6357  -13.4757   17.7574 H   0  0  0  0  0  0
  -27.8833  -11.2523   18.8675 H   0  0  0  0  0  0
  -27.3555  -12.5160   17.7929 H   0  0  0  0  0  0
  -27.6558  -14.1891   19.4494 H   0  0  0  0  0  0
  -28.6667  -12.0720   21.4526 H   0  0  0  0  0  0
  -28.3840  -13.7544   21.7697 H   0  0  0  0  0  0
  -25.2688   -9.5794   22.4851 H   0  0  0  0  0  0
  -24.0055   -7.4709   22.7456 H   0  0  0  0  0  0
  -21.0843   -8.8691   19.8869 H   0  0  0  0  0  0
  -22.3627  -10.9666   19.6235 H   0  0  0  0  0  0
  -21.2067   -7.6169   23.9722 H   0  0  0  0  0  0
  -21.1389   -6.0452   25.9031 H   0  0  0  0  0  0
  -22.0630   -2.7621   23.2750 H   0  0  0  0  0  0
  -22.3927  -11.9919   22.4739 H   0  0  0  0  0  0
  -21.1189  -13.1528   22.2550 H   0  0  0  0  0  0
  -24.6949  -15.8544   20.5079 H   0  0  0  0  0  0
  -26.3026  -15.5947   20.0623 H   0  0  0  0  0  0
  -26.7090  -32.5499   23.1263 H   0  0  0  0  0  0
  -25.0036  -33.9899   25.0522 H   0  0  0  0  0  0
  -22.6950  -31.3112   21.4301 H   0  0  0  0  0  0
  -23.3738  -35.9595   23.3354 H   0  0  0  0  0  0
  -24.3526  -36.8883   22.2077 H   0  0  0  0  0  0
  -23.7130  -37.6493   23.6636 H   0  0  0  0  0  0
  -26.0711  -31.5919   20.6092 H   0  0  0  0  0  0
  -26.8204  -30.8605   22.0026 H   0  0  0  0  0  0
  -28.0993  -29.0972   21.1305 H   0  0  0  0  0  0
  -25.9316  -25.9442   19.0879 H   0  0  0  0  0  0
  -23.9325  -27.2858   19.1062 H   0  0  0  0  0  0
  -23.7296  -30.6158   19.4206 H   0  0  0  0  0  0
  -22.7326  -29.2670   19.8686 H   0  0  0  0  0  0
  -25.1210  -36.2055   25.0863 H   0  0  0  0  0  0
  -20.9911  -28.3084   24.1475 H   0  0  0  0  0  0
  -20.5537  -26.2179   23.3587 H   0  0  0  0  0  0
  -21.6593  -26.7335   22.1212 H   0  0  0  0  0  0
  -19.6797  -25.6277   21.1247 H   0  0  0  0  0  0
  -19.6657  -27.3164   20.6718 H   0  0  0  0  0  0
  -17.4131  -26.6691   21.4054 H   0  0  0  0  0  0
  -18.0283  -26.0085   22.9038 H   0  0  0  0  0  0
  -19.7912  -30.7254   24.2289 H   0  0  0  0  0  0
  -17.4986  -31.6253   24.5103 H   0  0  0  0  0  0
  -15.5317  -30.2921   23.7708 H   0  0  0  0  0  0
  -15.8677  -28.0789   22.7091 H   0  0  0  0  0  0
  -24.5893  -30.7111   25.7937 H   0  0  0  0  0  0
  -24.8912  -32.2869   26.5157 H   0  0  0  0  0  0
  -25.8099  -30.8861   27.0332 H   0  0  0  0  0  0
  -26.2870  -29.6968   24.1203 H   0  0  0  0  0  0
  -27.3939  -29.7365   25.4768 H   0  0  0  0  0  0
  -27.8767  -30.4519   23.9530 H   0  0  0  0  0  0
  -27.2674  -33.3755   26.2174 H   0  0  0  0  0  0
  -28.3822  -32.7016   25.0379 H   0  0  0  0  0  0
  -28.0734  -31.8567   26.5504 H   0  0  0  0  0  0
  -28.2596  -38.0077   24.7519 H   0  0  0  0  0  0
  -28.1022  -36.2609   24.6312 H   0  0  0  0  0  0
  -27.2283  -37.1451   25.8898 H   0  0  0  0  0  0
  -20.9290  -29.8850   21.7129 H   0  0  0  0  0  0
  -26.0173  -38.2909   24.1469 H   0  0  0  0  0  0
  -30.7432  -21.4905   18.1172 H   0  0  0  0  0  0
  -32.0701  -21.5207   19.2730 H   0  0  0  0  0  0
  -30.9975  -22.9007   19.1680 H   0  0  0  0  0  0
  -25.4996  -21.7351   23.6719 H   0  0  0  0  0  0
  -27.1919  -22.2020   23.8373 H   0  0  0  0  0  0
  -26.7298  -20.5047   23.9112 H   0  0  0  0  0  0
  -28.0668  -17.6780   20.4910 H   0  0  0  0  0  0
  -27.8785  -16.5657   21.8583 H   0  0  0  0  0  0
  -28.2767  -15.9810   20.2421 H   0  0  0  0  0  0
  -27.2263  -22.7804   19.4481 H   0  0  0  0  0  0
  -28.7537  -22.9572   18.7084 H   0  0  0  0  0  0
  -25.9867  -20.6152   21.4892 H   0  0  0  0  0  0
  -26.3891  -22.3131   21.4611 H   0  0  0  0  0  0
  -29.9067  -17.9526   23.1637 H   0  0  0  0  0  0
  -31.3829  -18.1959   22.2701 H   0  0  0  0  0  0
  -29.4336  -24.2924   20.9197 H   0  0  0  0  0  0
  -27.7112  -24.4318   21.1514 H   0  0  0  0  0  0
  -27.7853  -25.3190   18.5901 H   0  0  0  0  0  0
  -29.4629  -25.4370   18.8667 H   0  0  0  0  0  0
  -30.4467  -17.0934   20.2946 H   0  0  0  0  0  0
  1 25  1  0  0  0
  1 30  2  0  0  0
  1 84  1  0  0  0
  2  3  1  0  0  0
  2 25  1  0  0  0
  2 89  1  0  0  0
  2 90  1  0  0  0
  3  4  1  0  0  0
  3 91  1  0  0  0
  3 92  1  0  0  0
  4  5  1  0  0  0
  4 93  1  0  0  0
  4 94  1  0  0  0
  5  6  1  0  0  0
  5 26  1  0  0  0
  5 95  1  0  0  0
  6 25  1  0  0  0
  6 96  1  0  0  0
  6 97  1  0  0  0
  7  8  2  0  0  0
  7 26  1  0  0  0
  7 29  1  0  0  0
  8  9  1  0  0  0
  8 22  1  0  0  0
  9 10  1  0  0  0
  9 27  2  0  0  0
 10 11  2  0  0  0
 10 15  1  0  0  0
 11 12  1  0  0  0
 11 98  1  0  0  0
 12 13  2  0  0  0
 12 99  1  0  0  0
 13 14  1  0  0  0
 13 31  1  0  0  0
 14 15  2  0  0  0
 14100  1  0  0  0
 15101  1  0  0  0
 16 17  2  0  0  0
 16 21  1  0  0  0
 16 31  1  0  0  0
 17 18  1  0  0  0
 17102  1  0  0  0
 18 19  2  0  0  0
 18103  1  0  0  0
 19 20  1  0  0  0
 19 24  1  0  0  0
 20 21  2  0  0  0
 20104  1  0  0  0
 21 23  1  0  0  0
 22 28  1  0  0  0
 22 32  2  0  0  0
 26 27  1  0  0  0
 28105  1  0  0  0
 28106  1  0  0  0
 29107  1  0  0  0
 29108  1  0  0  0
 33 34  1  0  0  0
 33 66  1  0  0  0
 33 70  2  0  0  0
 34 36  1  0  0  0
 34 59  1  0  0  0
 34109  1  0  0  0
 35 44  2  0  0  0
 35 45  1  0  0  0
 35 68  1  0  0  0
 36 56  1  0  0  0
 36110  1  0  0  0
 37 39  1  0  0  0
 37 47  1  0  0  0
 37 66  1  0  0  0
 37111  1  0  0  0
 38 43  2  0  0  0
 38 46  1  0  0  0
 38 47  1  0  0  0
 39 64  1  0  0  0
 39 67  2  0  0  0
 40 52  1  0  0  0
 40 53  2  0  0  0
 40 58  1  0  0  0
 41112  1  0  0  0
 41113  1  0  0  0
 41114  1  0  0  0
 41 48  1  0  0  0
 42 43  1  0  0  0
 42 66  1  0  0  0
 42115  1  0  0  0
 42116  1  0  0  0
 43 44  1  0  0  0
 44117  1  0  0  0
 45 46  2  0  0  0
 45118  1  0  0  0
 46119  1  0  0  0
 47120  1  0  0  0
 47121  1  0  0  0
 48 56  1  0  0  0
 48 65  1  0  0  0
 48122  1  0  0  0
 49 50  1  0  0  0
 49 53  1  0  0  0
 49 64  1  0  0  0
 49123  1  0  0  0
 50 51  1  0  0  0
 50124  1  0  0  0
 50125  1  0  0  0
 51 52  1  0  0  0
 51126  1  0  0  0
 51127  1  0  0  0
 52128  1  0  0  0
 52129  1  0  0  0
 53 54  1  0  0  0
 54 55  2  0  0  0
 54130  1  0  0  0
 55 57  1  0  0  0
 55131  1  0  0  0
 56 69  2  0  0  0
 57 58  2  0  0  0
 57132  1  0  0  0
 58133  1  0  0  0
 59 60  1  0  0  0
 59 61  1  0  0  0
 59 62  1  0  0  0
 60134  1  0  0  0
 60135  1  0  0  0
 60136  1  0  0  0
 61137  1  0  0  0
 61138  1  0  0  0
 61139  1  0  0  0
 62140  1  0  0  0
 62141  1  0  0  0
 62142  1  0  0  0
 63 65  1  0  0  0
 63143  1  0  0  0
 63144  1  0  0  0
 63145  1  0  0  0
 64146  1  0  0  0
 65147  1  0  0  0
 68 82  1  0  0  0
 71 72  2  0  0  0
 71 73  1  0  0  0
 71 78  1  0  0  0
 72 75  1  0  0  0
 72 85  1  0  0  0
 73 79  1  0  0  0
 73 86  2  0  0  0
 74 80  1  0  0  0
 74 85  2  0  0  0
 74 86  1  0  0  0
 75148  1  0  0  0
 75149  1  0  0  0
 75150  1  0  0  0
 76 79  1  0  0  0
 76151  1  0  0  0
 76152  1  0  0  0
 76153  1  0  0  0
 77154  1  0  0  0
 77155  1  0  0  0
 77156  1  0  0  0
 77 83  1  0  0  0
 78 81  1  0  0  0
 78157  1  0  0  0
 78158  1  0  0  0
 79159  1  0  0  0
 79160  1  0  0  0
 80 83  1  0  0  0
 80161  1  0  0  0
 80162  1  0  0  0
 81 82  1  0  0  0
 81163  1  0  0  0
 81164  1  0  0  0
 82165  1  0  0  0
 82166  1  0  0  0
 83 84  1  0  0  0
 83167  1  0  0  0
 84 87  1  0  0  0
 84 88  1  0  0  0
M  ISO  4   1 100  68 101  82 101  84 100
M  END
> <chiral flag>
0

> <version>
0

> <s_m_source_file>
/data/baiqing/PycharmProjects/Reinvent-master-3.2/result/LINK_invent/BTK/process_docking_weight1_custom_sum_contain_oxygen_bond_distance_aromatic_linkinvent_7_9_3/rearranged_h_0073.sdf

> <i_m_source_file_index>
71

> <r_mmod_Potential_Energy-OPLS-2005>
-364.719604492188

> <r_mmod_Stretch_Energy-OPLS-2005>
41.5611267089844

> <r_mmod_Bend_Energy-OPLS-2005>
127.154708862305

> <r_mmod_Torsional_Energy-OPLS-2005>
158.443344116211

> <r_mmod_Improper_Torsional_Energy-OPLS-2005>
2.20749950408936

> <r_mmod_Van_der_Waal_Energy-OPLS-2005>
167.233856201172

> <r_mmod_Electrostatic_Energy-OPLS-2005>
-675.880004882812

> <r_mmod_Solvation_Energy-OPLS-2005>
-201.498031616211

> <b_mmod_Minimization_Converged-OPLS-2005>
0

> <r_mmod_RMS_Derivative-OPLS-2005>
5.97467756271362

$$$$
71
                    3D
 Structure written by MMmdl.
172180  0  0  1  0            999 V2000
  -30.6728  -14.4740   20.5490 C   0  0  0  0  0  0
  -30.4287  -12.3005   19.4267 C   0  0  0  0  0  0
  -29.4987  -12.5018   18.2105 C   0  0  0  0  0  0
  -28.0175  -12.3654   18.6187 C   0  0  0  0  0  0
  -27.6621  -13.2019   19.8769 C   0  0  2  0  0  0
  -28.7017  -12.9731   20.9991 C   0  0  0  0  0  0
  -25.2579  -13.8146   20.5664 C   0  0  0  0  0  0
  -24.1829  -13.0432   20.9178 C   0  0  0  0  0  0
  -24.6379  -11.6898   20.8735 C   0  0  0  0  0  0
  -23.9042  -10.4287   21.0402 C   0  0  0  0  0  0
  -24.3599   -9.4205   21.9179 C   0  0  0  0  0  0
  -23.6283   -8.2238   22.0750 C   0  0  0  0  0  0
  -22.4268   -8.0273   21.3539 C   0  0  0  0  0  0
  -21.9891   -9.0246   20.4643 C   0  0  0  0  0  0
  -22.7214  -10.2129   20.3054 C   0  0  0  0  0  0
  -21.6847   -6.0728   22.5275 C   0  0  0  0  0  0
  -21.4014   -6.5635   23.8208 C   0  0  0  0  0  0
  -21.3664   -5.6789   24.9170 C   0  0  0  0  0  0
  -21.6039   -4.3051   24.7222 C   0  0  0  0  0  0
  -21.8822   -3.8143   23.4345 C   0  0  0  0  0  0
  -21.9193   -4.6956   22.3400 C   0  0  0  0  0  0
  -22.7851  -13.5237   21.1853 C   0  0  0  0  0  0
  -22.1659   -4.2141   21.0977 F   0  0  0  0  0  0
  -21.5631   -3.4538   25.7738 F   0  0  0  0  0  0
  -30.0362  -13.2772   20.4526 N   0  0  0  0  0  0
  -26.3015  -12.9308   20.3356 N   0  0  0  0  0  0
  -25.9304  -11.6475   20.5758 N   0  0  0  0  0  0
  -22.0492  -12.8231   22.0411 N   0  0  0  0  0  0
  -25.4295  -15.1855   20.4051 N   0  0  0  0  0  0
  -31.7984  -14.6826   20.0877 O   0  0  0  0  0  0
  -21.6637   -6.8869   21.4237 O   0  0  0  0  0  0
  -22.3529  -14.5541   20.6699 O   0  0  0  0  0  0
  -24.6119  -31.8702   23.2096 C   0  0  0  0  0  0
  -25.9020  -32.4838   23.8387 C   0  0  1  0  0  0
  -27.2479  -27.4479   20.0811 C   0  0  0  0  0  0
  -25.5897  -33.8636   24.2327 N   0  0  0  0  0  0
  -23.3990  -30.4920   21.5496 C   0  0  2  0  0  0
  -24.8458  -28.9524   20.1158 C   0  0  0  0  0  0
  -22.7398  -29.4663   22.4995 C   0  0  0  0  0  0
  -18.0274  -28.1389   22.8492 C   0  0  0  0  0  0
  -24.1480  -36.7298   23.2640 C   0  0  0  0  0  0
  -25.9252  -30.8354   21.3609 C   0  0  0  0  0  0
  -26.0027  -29.4676   20.7129 C   0  0  0  0  0  0
  -27.1976  -28.7166   20.7022 C   0  0  0  0  0  0
  -26.0644  -26.9321   19.5021 C   0  0  0  0  0  0
  -24.8702  -27.6804   19.5159 C   0  0  0  0  0  0
  -23.6073  -29.8200   20.1635 C   0  0  0  0  0  0
  -25.4110  -36.3126   24.0346 C   0  0  1  0  0  0
  -20.5862  -28.3665   23.1329 C   0  0  2  0  0  0
  -20.6767  -26.9399   22.5442 C   0  0  0  0  0  0
  -19.5751  -26.6392   21.5231 C   0  0  0  0  0  0
  -18.1921  -26.7942   22.1624 C   0  0  0  0  0  0
  -19.1523  -28.8842   23.2916 C   0  0  0  0  0  0
  -18.9464  -30.1450   23.8927 C   0  0  0  0  0  0
  -17.6467  -30.6599   24.0564 C   0  0  0  0  0  0
  -25.9040  -34.9489   23.5136 C   0  0  0  0  0  0
  -16.5352  -29.9103   23.6322 C   0  0  0  0  0  0
  -16.7269  -28.6520   23.0346 C   0  0  0  0  0  0
  -26.4463  -31.6626   25.0707 C   0  0  0  0  0  0
  -25.3741  -31.3726   26.1475 C   0  0  0  0  0  0
  -27.0278  -30.3075   24.6044 C   0  0  0  0  0  0
  -27.6051  -32.4339   25.7457 C   0  0  0  0  0  0
  -27.5586  -37.1810   24.8471 C   0  0  0  0  0  0
  -21.4126  -29.3034   22.3736 N   0  0  0  0  0  0
  -26.4302  -37.3810   23.9411 N   0  0  0  0  0  0
  -24.6636  -31.0797   22.0995 N   0  0  0  0  0  0
  -23.4179  -28.8220   23.3036 O   0  0  0  0  0  0
  -28.4568  -26.7798   20.0851 O   0  0  0  0  0  0
  -26.5595  -34.8947   22.4693 O   0  0  0  0  0  0
  -23.5321  -32.1446   23.7510 O   0  0  0  0  0  0
  -29.2168  -21.7917   19.7971 C   0  0  0  0  0  0
  -30.3578  -21.3466   20.5023 C   0  0  0  0  0  0
  -28.1529  -20.8681   19.7298 C   0  0  0  0  0  0
  -29.3380  -19.3374   20.9792 C   0  0  0  0  0  0
  -32.6482  -21.8400   19.5379 C   0  0  0  0  0  0
  -26.9657  -20.6416   17.5103 C   0  0  0  0  0  0
  -27.9977  -17.4544   22.0259 C   0  0  0  0  0  0
  -30.2588  -17.9271   22.8899 C   0  0  0  0  0  0
  -29.1654  -23.1533   19.0864 C   0  0  0  0  0  0
  -31.6295  -22.1708   20.6352 C   0  0  0  0  0  0
  -26.8670  -21.1273   18.9610 C   0  0  0  0  0  0
  -28.6437  -24.3204   19.9546 C   0  0  0  0  0  0
  -30.0340  -16.8986   20.5853 C   0  0  0  0  0  0
  -28.6956  -25.6730   19.2097 C   0  0  0  0  0  0
  -29.4146  -17.9110   21.5941 C   0  0  0  0  0  0
  -30.4100  -20.1220   21.0636 N   0  0  0  0  0  0
  -28.2401  -19.6518   20.2963 N   0  0  0  0  0  0
  -29.8949  -15.4818   20.9764 N   0  0  0  0  0  0
  -31.4732  -12.4102   19.1284 H   0  0  0  0  0  0
  -30.3370  -11.2874   19.8214 H   0  0  0  0  0  0
  -29.7388  -11.7775   17.4313 H   0  0  0  0  0  0
  -29.6702  -13.4876   17.7744 H   0  0  0  0  0  0
  -27.8243  -11.3095   18.8117 H   0  0  0  0  0  0
  -27.3713  -12.6446   17.7857 H   0  0  0  0  0  0
  -27.7072  -14.2503   19.5822 H   0  0  0  0  0  0
  -28.6732  -11.9354   21.3347 H   0  0  0  0  0  0
  -28.4661  -13.5695   21.8822 H   0  0  0  0  0  0
  -25.2746   -9.5683   22.4747 H   0  0  0  0  0  0
  -23.9996   -7.4625   22.7464 H   0  0  0  0  0  0
  -21.0821   -8.8758   19.8949 H   0  0  0  0  0  0
  -22.3666  -10.9666   19.6163 H   0  0  0  0  0  0
  -21.2006   -7.6144   23.9706 H   0  0  0  0  0  0
  -21.1482   -6.0521   25.9071 H   0  0  0  0  0  0
  -22.0600   -2.7606   23.2847 H   0  0  0  0  0  0
  -22.4110  -11.9898   22.4810 H   0  0  0  0  0  0
  -21.1108  -13.1251   22.2624 H   0  0  0  0  0  0
  -24.6619  -15.8396   20.5115 H   0  0  0  0  0  0
  -26.2753  -15.6214   20.0628 H   0  0  0  0  0  0
  -26.7078  -32.5553   23.1151 H   0  0  0  0  0  0
  -25.0099  -33.9804   25.0508 H   0  0  0  0  0  0
  -22.6872  -31.3088   21.4119 H   0  0  0  0  0  0
  -23.3764  -35.9607   23.3328 H   0  0  0  0  0  0
  -24.3567  -36.8881   22.2045 H   0  0  0  0  0  0
  -23.7215  -37.6512   23.6620 H   0  0  0  0  0  0
  -26.0315  -31.5984   20.5885 H   0  0  0  0  0  0
  -26.8166  -30.8939   21.9744 H   0  0  0  0  0  0
  -28.0906  -29.1150   21.1644 H   0  0  0  0  0  0
  -26.0411  -25.9522   19.0491 H   0  0  0  0  0  0
  -23.9746  -27.2708   19.0675 H   0  0  0  0  0  0
  -23.7152  -30.5948   19.4028 H   0  0  0  0  0  0
  -22.7299  -29.2423   19.8681 H   0  0  0  0  0  0
  -25.1288  -36.2005   25.0842 H   0  0  0  0  0  0
  -20.9962  -28.3244   24.1447 H   0  0  0  0  0  0
  -20.5680  -26.2270   23.3633 H   0  0  0  0  0  0
  -21.6638  -26.7459   22.1228 H   0  0  0  0  0  0
  -19.6905  -25.6313   21.1240 H   0  0  0  0  0  0
  -19.6694  -27.3225   20.6774 H   0  0  0  0  0  0
  -17.4203  -26.6714   21.4008 H   0  0  0  0  0  0
  -18.0290  -26.0090   22.9017 H   0  0  0  0  0  0
  -19.7948  -30.7257   24.2305 H   0  0  0  0  0  0
  -17.5032  -31.6280   24.5178 H   0  0  0  0  0  0
  -15.5359  -30.3021   23.7645 H   0  0  0  0  0  0
  -15.8667  -28.0859   22.7036 H   0  0  0  0  0  0
  -24.5884  -30.7115   25.7820 H   0  0  0  0  0  0
  -24.8977  -32.2883   26.4981 H   0  0  0  0  0  0
  -25.8117  -30.8854   27.0196 H   0  0  0  0  0  0
  -26.2798  -29.6862   24.1112 H   0  0  0  0  0  0
  -27.4097  -29.7294   25.4468 H   0  0  0  0  0  0
  -27.8606  -30.4428   23.9136 H   0  0  0  0  0  0
  -27.2675  -33.3613   26.2094 H   0  0  0  0  0  0
  -28.3820  -32.6958   25.0260 H   0  0  0  0  0  0
  -28.0758  -31.8431   26.5328 H   0  0  0  0  0  0
  -28.2634  -38.0083   24.7538 H   0  0  0  0  0  0
  -28.1056  -36.2633   24.6282 H   0  0  0  0  0  0
  -27.2298  -37.1447   25.8872 H   0  0  0  0  0  0
  -20.9293  -29.8744   21.6949 H   0  0  0  0  0  0
  -26.0196  -38.2885   24.1451 H   0  0  0  0  0  0
  -33.5641  -22.4140   19.6738 H   0  0  0  0  0  0
  -32.2490  -22.0667   18.5492 H   0  0  0  0  0  0
  -32.9095  -20.7818   19.5577 H   0  0  0  0  0  0
  -26.0210  -20.7876   16.9875 H   0  0  0  0  0  0
  -27.2164  -19.5818   17.4697 H   0  0  0  0  0  0
  -27.7407  -21.1848   16.9696 H   0  0  0  0  0  0
  -27.5419  -18.1925   22.6874 H   0  0  0  0  0  0
  -28.0070  -16.5049   22.5592 H   0  0  0  0  0  0
  -27.3372  -17.3393   21.1669 H   0  0  0  0  0  0
  -29.8614  -18.6464   23.6064 H   0  0  0  0  0  0
  -31.2946  -18.2039   22.6900 H   0  0  0  0  0  0
  -30.2754  -16.9501   23.3722 H   0  0  0  0  0  0
  -28.5554  -23.0783   18.1875 H   0  0  0  0  0  0
  -30.1595  -23.3954   18.7100 H   0  0  0  0  0  0
  -32.0745  -21.9701   21.6096 H   0  0  0  0  0  0
  -31.4042  -23.2370   20.6362 H   0  0  0  0  0  0
  -26.6052  -22.1843   18.9938 H   0  0  0  0  0  0
  -26.0466  -20.6086   19.4591 H   0  0  0  0  0  0
  -29.2502  -24.3947   20.8570 H   0  0  0  0  0  0
  -27.6241  -24.1253   20.2870 H   0  0  0  0  0  0
  -31.0780  -17.1579   20.4020 H   0  0  0  0  0  0
  -29.5275  -17.0129   19.6249 H   0  0  0  0  0  0
  -28.0602  -25.6714   18.3252 H   0  0  0  0  0  0
  -29.7055  -25.8149   18.8224 H   0  0  0  0  0  0
  -28.9962  -15.2102   21.3451 H   0  0  0  0  0  0
  1 25  1  0  0  0
  1 30  2  0  0  0
  1 88  1  0  0  0
  2  3  1  0  0  0
  2 25  1  0  0  0
  2 89  1  0  0  0
  2 90  1  0  0  0
  3  4  1  0  0  0
  3 91  1  0  0  0
  3 92  1  0  0  0
  4  5  1  0  0  0
  4 93  1  0  0  0
  4 94  1  0  0  0
  5  6  1  0  0  0
  5 26  1  0  0  0
  5 95  1  0  0  0
  6 25  1  0  0  0
  6 96  1  0  0  0
  6 97  1  0  0  0
  7  8  2  0  0  0
  7 26  1  0  0  0
  7 29  1  0  0  0
  8  9  1  0  0  0
  8 22  1  0  0  0
  9 10  1  0  0  0
  9 27  2  0  0  0
 10 11  2  0  0  0
 10 15  1  0  0  0
 11 12  1  0  0  0
 11 98  1  0  0  0
 12 13  2  0  0  0
 12 99  1  0  0  0
 13 14  1  0  0  0
 13 31  1  0  0  0
 14 15  2  0  0  0
 14100  1  0  0  0
 15101  1  0  0  0
 16 17  2  0  0  0
 16 21  1  0  0  0
 16 31  1  0  0  0
 17 18  1  0  0  0
 17102  1  0  0  0
 18 19  2  0  0  0
 18103  1  0  0  0
 19 20  1  0  0  0
 19 24  1  0  0  0
 20 21  2  0  0  0
 20104  1  0  0  0
 21 23  1  0  0  0
 22 28  1  0  0  0
 22 32  2  0  0  0
 26 27  1  0  0  0
 28105  1  0  0  0
 28106  1  0  0  0
 29107  1  0  0  0
 29108  1  0  0  0
 33 34  1  0  0  0
 33 66  1  0  0  0
 33 70  2  0  0  0
 34 36  1  0  0  0
 34 59  1  0  0  0
 34109  1  0  0  0
 35 44  2  0  0  0
 35 45  1  0  0  0
 35 68  1  0  0  0
 36 56  1  0  0  0
 36110  1  0  0  0
 37 39  1  0  0  0
 37 47  1  0  0  0
 37 66  1  0  0  0
 37111  1  0  0  0
 38 43  2  0  0  0
 38 46  1  0  0  0
 38 47  1  0  0  0
 39 64  1  0  0  0
 39 67  2  0  0  0
 40 52  1  0  0  0
 40 53  2  0  0  0
 40 58  1  0  0  0
 41112  1  0  0  0
 41113  1  0  0  0
 41114  1  0  0  0
 41 48  1  0  0  0
 42 43  1  0  0  0
 42 66  1  0  0  0
 42115  1  0  0  0
 42116  1  0  0  0
 43 44  1  0  0  0
 44117  1  0  0  0
 45 46  2  0  0  0
 45118  1  0  0  0
 46119  1  0  0  0
 47120  1  0  0  0
 47121  1  0  0  0
 48 56  1  0  0  0
 48 65  1  0  0  0
 48122  1  0  0  0
 49 50  1  0  0  0
 49 53  1  0  0  0
 49 64  1  0  0  0
 49123  1  0  0  0
 50 51  1  0  0  0
 50124  1  0  0  0
 50125  1  0  0  0
 51 52  1  0  0  0
 51126  1  0  0  0
 51127  1  0  0  0
 52128  1  0  0  0
 52129  1  0  0  0
 53 54  1  0  0  0
 54 55  2  0  0  0
 54130  1  0  0  0
 55 57  1  0  0  0
 55131  1  0  0  0
 56 69  2  0  0  0
 57 58  2  0  0  0
 57132  1  0  0  0
 58133  1  0  0  0
 59 60  1  0  0  0
 59 61  1  0  0  0
 59 62  1  0  0  0
 60134  1  0  0  0
 60135  1  0  0  0
 60136  1  0  0  0
 61137  1  0  0  0
 61138  1  0  0  0
 61139  1  0  0  0
 62140  1  0  0  0
 62141  1  0  0  0
 62142  1  0  0  0
 63 65  1  0  0  0
 63143  1  0  0  0
 63144  1  0  0  0
 63145  1  0  0  0
 64146  1  0  0  0
 65147  1  0  0  0
 68 84  1  0  0  0
 71 72  2  0  0  0
 71 73  1  0  0  0
 71 79  1  0  0  0
 72 80  1  0  0  0
 72 86  1  0  0  0
 73 81  1  0  0  0
 73 87  2  0  0  0
 74 85  1  0  0  0
 74 86  2  0  0  0
 74 87  1  0  0  0
 75 80  1  0  0  0
 75148  1  0  0  0
 75149  1  0  0  0
 75150  1  0  0  0
 76 81  1  0  0  0
 76151  1  0  0  0
 76152  1  0  0  0
 76153  1  0  0  0
 77154  1  0  0  0
 77155  1  0  0  0
 77156  1  0  0  0
 77 85  1  0  0  0
 78 85  1  0  0  0
 78157  1  0  0  0
 78158  1  0  0  0
 78159  1  0  0  0
 79 82  1  0  0  0
 79160  1  0  0  0
 79161  1  0  0  0
 80162  1  0  0  0
 80163  1  0  0  0
 81164  1  0  0  0
 81165  1  0  0  0
 82 84  1  0  0  0
 82166  1  0  0  0
 82167  1  0  0  0
 83 85  1  0  0  0
 83 88  1  0  0  0
 83168  1  0  0  0
 83169  1  0  0  0
 84170  1  0  0  0
 84171  1  0  0  0
 88172  1  0  0  0
M  ISO  4   1 100  68 101  84 101  88 100
M  END
> <chiral flag>
0

> <version>
0

> <s_m_source_file>
/data/baiqing/PycharmProjects/Reinvent-master-3.2/result/LINK_invent/BTK/process_docking_weight1_custom_sum_contain_oxygen_bond_distance_aromatic_linkinvent_7_9_3/rearranged_h_0073.sdf

> <i_m_source_file_index>
72

> <r_mmod_Potential_Energy-OPLS-2005>
-500.233215332031

> <r_mmod_Stretch_Energy-OPLS-2005>
38.8325843811035

> <r_mmod_Bend_Energy-OPLS-2005>
111.849617004395

> <r_mmod_Torsional_Energy-OPLS-2005>
187.691421508789

> <r_mmod_Improper_Torsional_Energy-OPLS-2005>
7.00685358047485

> <r_mmod_Van_der_Waal_Energy-OPLS-2005>
160.987655639648

> <r_mmod_Electrostatic_Energy-OPLS-2005>
-805.883361816406

> <r_mmod_Solvation_Energy-OPLS-2005>
-213.33837890625

> <b_mmod_Minimization_Converged-OPLS-2005>
0

> <r_mmod_RMS_Derivative-OPLS-2005>
1.87600219249725

$$$$
72
                    3D
 Structure written by MMmdl.
181189  0  0  1  0            999 V2000
  -30.7607  -14.6141   20.3680 C   0  0  0  0  0  0
  -30.3995  -12.3710   19.4333 C   0  0  0  0  0  0
  -29.4768  -12.4614   18.2032 C   0  0  0  0  0  0
  -28.0118  -12.2707   18.6313 C   0  0  0  0  0  0
  -27.6248  -13.1780   19.8225 C   0  0  2  0  0  0
  -28.6946  -13.1896   20.9431 C   0  0  0  0  0  0
  -25.2554  -13.8042   20.5673 C   0  0  0  0  0  0
  -24.1816  -13.0367   20.9213 C   0  0  0  0  0  0
  -24.6361  -11.6831   20.8811 C   0  0  0  0  0  0
  -23.9020  -10.4257   21.0457 C   0  0  0  0  0  0
  -24.3585   -9.4168   21.9212 C   0  0  0  0  0  0
  -23.6276   -8.2204   22.0766 C   0  0  0  0  0  0
  -22.4263   -8.0258   21.3548 C   0  0  0  0  0  0
  -21.9892   -9.0228   20.4646 C   0  0  0  0  0  0
  -22.7212  -10.2108   20.3074 C   0  0  0  0  0  0
  -21.6857   -6.0751   22.5295 C   0  0  0  0  0  0
  -21.4014   -6.5659   23.8227 C   0  0  0  0  0  0
  -21.3637   -5.6810   24.9186 C   0  0  0  0  0  0
  -21.6031   -4.3076   24.7235 C   0  0  0  0  0  0
  -21.8817   -3.8166   23.4365 C   0  0  0  0  0  0
  -21.9191   -4.6981   22.3420 C   0  0  0  0  0  0
  -22.7863  -13.5220   21.1835 C   0  0  0  0  0  0
  -22.1631   -4.2161   21.0999 F   0  0  0  0  0  0
  -21.5608   -3.4552   25.7741 F   0  0  0  0  0  0
  -30.0081  -13.4643   20.3449 N   0  0  0  0  0  0
  -26.2890  -12.9113   20.3253 N   0  0  0  0  0  0
  -25.9264  -11.6335   20.5836 N   0  0  0  0  0  0
  -22.0487  -12.8232   22.0383 N   0  0  0  0  0  0
  -25.4330  -15.1751   20.4034 N   0  0  0  0  0  0
  -31.9785  -14.5039   20.2467 O   0  0  0  0  0  0
  -21.6617   -6.8871   21.4257 O   0  0  0  0  0  0
  -22.3585  -14.5541   20.6676 O   0  0  0  0  0  0
  -24.6165  -31.8638   23.2078 C   0  0  0  0  0  0
  -25.9063  -32.4784   23.8366 C   0  0  1  0  0  0
  -27.2453  -27.4317   20.0901 C   0  0  0  0  0  0
  -25.5933  -33.8600   24.2310 N   0  0  0  0  0  0
  -23.4015  -30.4901   21.5459 C   0  0  2  0  0  0
  -24.8474  -28.9486   20.1175 C   0  0  0  0  0  0
  -22.7407  -29.4658   22.4974 C   0  0  0  0  0  0
  -18.0266  -28.1391   22.8496 C   0  0  0  0  0  0
  -24.1473  -36.7315   23.2644 C   0  0  0  0  0  0
  -25.9287  -30.8341   21.3512 C   0  0  0  0  0  0
  -26.0055  -29.4629   20.7075 C   0  0  0  0  0  0
  -27.2028  -28.7125   20.6900 C   0  0  0  0  0  0
  -26.0612  -26.9194   19.5101 C   0  0  0  0  0  0
  -24.8687  -27.6727   19.5195 C   0  0  0  0  0  0
  -23.6100  -29.8175   20.1616 C   0  0  0  0  0  0
  -25.4099  -36.3102   24.0343 C   0  0  1  0  0  0
  -20.5850  -28.3658   23.1314 C   0  0  2  0  0  0
  -20.6772  -26.9390   22.5420 C   0  0  0  0  0  0
  -19.5751  -26.6380   21.5227 C   0  0  0  0  0  0
  -18.1912  -26.7939   22.1610 C   0  0  0  0  0  0
  -19.1516  -28.8847   23.2893 C   0  0  0  0  0  0
  -18.9451  -30.1460   23.8899 C   0  0  0  0  0  0
  -17.6459  -30.6596   24.0574 C   0  0  0  0  0  0
  -25.9041  -34.9461   23.5113 C   0  0  0  0  0  0
  -16.5347  -29.9101   23.6331 C   0  0  0  0  0  0
  -16.7251  -28.6521   23.0347 C   0  0  0  0  0  0
  -26.4512  -31.6578   25.0690 C   0  0  0  0  0  0
  -25.3815  -31.3678   26.1469 C   0  0  0  0  0  0
  -27.0320  -30.3030   24.6029 C   0  0  0  0  0  0
  -27.6079  -32.4299   25.7437 C   0  0  0  0  0  0
  -27.5579  -37.1793   24.8474 C   0  0  0  0  0  0
  -21.4143  -29.3027   22.3727 N   0  0  0  0  0  0
  -26.4280  -37.3793   23.9450 N   0  0  0  0  0  0
  -24.6676  -31.0771   22.0937 N   0  0  0  0  0  0
  -23.4177  -28.8182   23.3007 O   0  0  0  0  0  0
  -28.4649  -26.7806   20.0720 O   0  0  0  0  0  0
  -26.5581  -34.8941   22.4660 O   0  0  0  0  0  0
  -23.5364  -32.1365   23.7513 O   0  0  0  0  0  0
  -30.7045  -20.5350   19.4509 C   0  0  0  0  0  0
  -29.6956  -20.7274   20.3653 C   0  0  0  0  0  0
  -30.5494  -18.6794   20.5882 C   0  0  0  0  0  0
  -31.2186  -21.4743   18.4022 C   0  0  0  0  0  0
  -32.2530  -17.0978   21.5362 C   0  0  0  0  0  0
  -29.3767  -19.8762   26.0627 C   0  0  0  0  0  0
  -28.9245  -17.6283   25.0084 C   0  0  0  0  0  0
  -30.7808  -16.3999   18.6308 C   0  0  0  0  0  0
  -28.7187  -16.2855   19.9735 C   0  0  0  0  0  0
  -28.7966  -21.9423   20.5292 C   0  0  0  0  0  0
  -29.4991  -23.2455   20.9796 C   0  0  0  0  0  0
  -28.5973  -24.5118   21.0157 C   0  0  0  0  0  0
  -29.4880  -19.6382   23.5514 C   0  0  0  0  0  0
  -28.7581  -19.2687   22.2481 C   0  0  0  0  0  0
  -28.6044  -25.3898   19.7385 C   0  0  0  0  0  0
  -30.7856  -17.2291   21.0635 C   0  0  2  0  0  0
  -28.7975  -19.1515   24.8369 C   0  0  0  0  0  0
  -30.2513  -16.0993   20.0657 C   0  0  0  0  0  0
  -31.2421  -19.2620   19.6081 N   0  0  0  0  0  0
  -29.6242  -19.5322   21.1068 N   0  0  0  0  0  0
  -31.4392  -12.4286   19.1063 H   0  0  0  0  0  0
  -30.2959  -11.4038   19.9293 H   0  0  0  0  0  0
  -29.7526  -11.7067   17.4643 H   0  0  0  0  0  0
  -29.5996  -13.4281   17.7115 H   0  0  0  0  0  0
  -27.8736  -11.2226   18.8982 H   0  0  0  0  0  0
  -27.3478  -12.4579   17.7863 H   0  0  0  0  0  0
  -27.5538  -14.1443   19.3614 H   0  0  0  0  0  0
  -28.7199  -12.2286   21.4571 H   0  0  0  0  0  0
  -28.4596  -13.9248   21.7114 H   0  0  0  0  0  0
  -25.2727   -9.5624   22.4786 H   0  0  0  0  0  0
  -23.9968   -7.4604   22.7502 H   0  0  0  0  0  0
  -21.0815   -8.8766   19.8966 H   0  0  0  0  0  0
  -22.3689  -10.9654   19.6189 H   0  0  0  0  0  0
  -21.2001   -7.6167   23.9724 H   0  0  0  0  0  0
  -21.1436   -6.0545   25.9087 H   0  0  0  0  0  0
  -22.0615   -2.7634   23.2871 H   0  0  0  0  0  0
  -22.4122  -11.9876   22.4719 H   0  0  0  0  0  0
  -21.1131  -13.1280   22.2630 H   0  0  0  0  0  0
  -24.6707  -15.8358   20.5052 H   0  0  0  0  0  0
  -26.2906  -15.6048   20.0813 H   0  0  0  0  0  0
  -26.7132  -32.5503   23.1129 H   0  0  0  0  0  0
  -25.0188  -33.9771   25.0522 H   0  0  0  0  0  0
  -22.6928  -31.3090   21.4028 H   0  0  0  0  0  0
  -23.3750  -35.9627   23.3274 H   0  0  0  0  0  0
  -24.3612  -36.8958   22.2071 H   0  0  0  0  0  0
  -23.7172  -37.6505   23.6658 H   0  0  0  0  0  0
  -26.0355  -31.5915   20.5746 H   0  0  0  0  0  0
  -26.8226  -30.8964   21.9586 H   0  0  0  0  0  0
  -28.1015  -29.1146   21.1373 H   0  0  0  0  0  0
  -26.0357  -25.9503   19.0354 H   0  0  0  0  0  0
  -23.9757  -27.2728   19.0594 H   0  0  0  0  0  0
  -23.7142  -30.5872   19.3963 H   0  0  0  0  0  0
  -22.7333  -29.2367   19.8685 H   0  0  0  0  0  0
  -25.1240  -36.1972   25.0826 H   0  0  0  0  0  0
  -20.9933  -28.3218   24.1435 H   0  0  0  0  0  0
  -20.5673  -26.2268   23.3606 H   0  0  0  0  0  0
  -21.6643  -26.7426   22.1200 H   0  0  0  0  0  0
  -19.6902  -25.6290   21.1241 H   0  0  0  0  0  0
  -19.6708  -27.3224   20.6781 H   0  0  0  0  0  0
  -17.4189  -26.6715   21.4000 H   0  0  0  0  0  0
  -18.0276  -26.0085   22.8986 H   0  0  0  0  0  0
  -19.7947  -30.7265   24.2257 H   0  0  0  0  0  0
  -17.5034  -31.6271   24.5180 H   0  0  0  0  0  0
  -15.5353  -30.3011   23.7682 H   0  0  0  0  0  0
  -15.8650  -28.0851   22.7041 H   0  0  0  0  0  0
  -24.6009  -30.6950   25.7902 H   0  0  0  0  0  0
  -24.8981  -32.2821   26.4904 H   0  0  0  0  0  0
  -25.8251  -30.8916   27.0217 H   0  0  0  0  0  0
  -26.2806  -29.6785   24.1181 H   0  0  0  0  0  0
  -27.4230  -29.7276   25.4434 H   0  0  0  0  0  0
  -27.8586  -30.4390   23.9056 H   0  0  0  0  0  0
  -27.2693  -33.3625   26.1975 H   0  0  0  0  0  0
  -28.3927  -32.6818   25.0279 H   0  0  0  0  0  0
  -28.0708  -31.8429   26.5393 H   0  0  0  0  0  0
  -28.2555  -38.0128   24.7576 H   0  0  0  0  0  0
  -28.1077  -36.2661   24.6160 H   0  0  0  0  0  0
  -27.2331  -37.1298   25.8882 H   0  0  0  0  0  0
  -20.9287  -29.8764   21.6978 H   0  0  0  0  0  0
  -26.0156  -38.2849   24.1506 H   0  0  0  0  0  0
  -30.4074  -21.9660   17.8642 H   0  0  0  0  0  0
  -31.8302  -20.9587   17.6638 H   0  0  0  0  0  0
  -31.8370  -22.2542   18.8468 H   0  0  0  0  0  0
  -32.5453  -17.9450   22.1594 H   0  0  0  0  0  0
  -32.9477  -17.0583   20.6967 H   0  0  0  0  0  0
  -32.4017  -16.2046   22.1423 H   0  0  0  0  0  0
  -28.9043  -19.5355   26.9840 H   0  0  0  0  0  0
  -29.2184  -20.9534   25.9970 H   0  0  0  0  0  0
  -30.4496  -19.7044   26.1538 H   0  0  0  0  0  0
  -28.4597  -17.2934   25.9356 H   0  0  0  0  0  0
  -29.9699  -17.3225   25.0366 H   0  0  0  0  0  0
  -28.4410  -17.0839   24.1962 H   0  0  0  0  0  0
  -30.2900  -17.2612   18.1773 H   0  0  0  0  0  0
  -30.6152  -15.5660   17.9488 H   0  0  0  0  0  0
  -31.8534  -16.6028   18.6255 H   0  0  0  0  0  0
  -28.4273  -17.3330   19.9717 H   0  0  0  0  0  0
  -28.1770  -15.8476   20.8055 H   0  0  0  0  0  0
  -28.3426  -15.9329   19.0162 H   0  0  0  0  0  0
  -27.9939  -21.7405   21.2343 H   0  0  0  0  0  0
  -28.3012  -22.1319   19.5754 H   0  0  0  0  0  0
  -30.3720  -23.4474   20.3574 H   0  0  0  0  0  0
  -29.8856  -23.0786   21.9862 H   0  0  0  0  0  0
  -28.9574  -25.1335   21.8367 H   0  0  0  0  0  0
  -27.5720  -24.2478   21.2784 H   0  0  0  0  0  0
  -29.5995  -20.7235   23.5791 H   0  0  0  0  0  0
  -30.5064  -19.2453   23.5255 H   0  0  0  0  0  0
  -27.8285  -19.8210   22.1486 H   0  0  0  0  0  0
  -28.4486  -18.2269   22.2357 H   0  0  0  0  0  0
  -27.9143  -25.0270   18.9775 H   0  0  0  0  0  0
  -29.5864  -25.3220   19.2708 H   0  0  0  0  0  0
  -30.2223  -17.0866   21.9808 H   0  0  0  0  0  0
  -27.7376  -19.4017   24.7803 H   0  0  0  0  0  0
  1 25  1  0  0  0
  1 30  2  0  0  0
  1 88  1  0  0  0
  2  3  1  0  0  0
  2 25  1  0  0  0
  2 91  1  0  0  0
  2 92  1  0  0  0
  3  4  1  0  0  0
  3 93  1  0  0  0
  3 94  1  0  0  0
  4  5  1  0  0  0
  4 95  1  0  0  0
  4 96  1  0  0  0
  5  6  1  0  0  0
  5 26  1  0  0  0
  5 97  1  0  0  0
  6 25  1  0  0  0
  6 98  1  0  0  0
  6 99  1  0  0  0
  7  8  2  0  0  0
  7 26  1  0  0  0
  7 29  1  0  0  0
  8  9  1  0  0  0
  8 22  1  0  0  0
  9 10  1  0  0  0
  9 27  2  0  0  0
 10 11  2  0  0  0
 10 15  1  0  0  0
 11 12  1  0  0  0
 11100  1  0  0  0
 12 13  2  0  0  0
 12101  1  0  0  0
 13 14  1  0  0  0
 13 31  1  0  0  0
 14 15  2  0  0  0
 14102  1  0  0  0
 15103  1  0  0  0
 16 17  2  0  0  0
 16 21  1  0  0  0
 16 31  1  0  0  0
 17 18  1  0  0  0
 17104  1  0  0  0
 18 19  2  0  0  0
 18105  1  0  0  0
 19 20  1  0  0  0
 19 24  1  0  0  0
 20 21  2  0  0  0
 20106  1  0  0  0
 21 23  1  0  0  0
 22 28  1  0  0  0
 22 32  2  0  0  0
 26 27  1  0  0  0
 28107  1  0  0  0
 28108  1  0  0  0
 29109  1  0  0  0
 29110  1  0  0  0
 33 34  1  0  0  0
 33 66  1  0  0  0
 33 70  2  0  0  0
 34 36  1  0  0  0
 34 59  1  0  0  0
 34111  1  0  0  0
 35 44  2  0  0  0
 35 45  1  0  0  0
 35 68  1  0  0  0
 36 56  1  0  0  0
 36112  1  0  0  0
 37 39  1  0  0  0
 37 47  1  0  0  0
 37 66  1  0  0  0
 37113  1  0  0  0
 38 43  2  0  0  0
 38 46  1  0  0  0
 38 47  1  0  0  0
 39 64  1  0  0  0
 39 67  2  0  0  0
 40 52  1  0  0  0
 40 53  2  0  0  0
 40 58  1  0  0  0
 41114  1  0  0  0
 41115  1  0  0  0
 41116  1  0  0  0
 41 48  1  0  0  0
 42 43  1  0  0  0
 42 66  1  0  0  0
 42117  1  0  0  0
 42118  1  0  0  0
 43 44  1  0  0  0
 44119  1  0  0  0
 45 46  2  0  0  0
 45120  1  0  0  0
 46121  1  0  0  0
 47122  1  0  0  0
 47123  1  0  0  0
 48 56  1  0  0  0
 48 65  1  0  0  0
 48124  1  0  0  0
 49 50  1  0  0  0
 49 53  1  0  0  0
 49 64  1  0  0  0
 49125  1  0  0  0
 50 51  1  0  0  0
 50126  1  0  0  0
 50127  1  0  0  0
 51 52  1  0  0  0
 51128  1  0  0  0
 51129  1  0  0  0
 52130  1  0  0  0
 52131  1  0  0  0
 53 54  1  0  0  0
 54 55  2  0  0  0
 54132  1  0  0  0
 55 57  1  0  0  0
 55133  1  0  0  0
 56 69  2  0  0  0
 57 58  2  0  0  0
 57134  1  0  0  0
 58135  1  0  0  0
 59 60  1  0  0  0
 59 61  1  0  0  0
 59 62  1  0  0  0
 60136  1  0  0  0
 60137  1  0  0  0
 60138  1  0  0  0
 61139  1  0  0  0
 61140  1  0  0  0
 61141  1  0  0  0
 62142  1  0  0  0
 62143  1  0  0  0
 62144  1  0  0  0
 63 65  1  0  0  0
 63145  1  0  0  0
 63146  1  0  0  0
 63147  1  0  0  0
 64148  1  0  0  0
 65149  1  0  0  0
 68 85  1  0  0  0
 71 72  2  0  0  0
 71 74  1  0  0  0
 71 89  1  0  0  0
 72 80  1  0  0  0
 72 90  1  0  0  0
 73 86  1  0  0  0
 73 89  2  0  0  0
 73 90  1  0  0  0
 74150  1  0  0  0
 74151  1  0  0  0
 74152  1  0  0  0
 75153  1  0  0  0
 75154  1  0  0  0
 75155  1  0  0  0
 75 86  1  0  0  0
 76156  1  0  0  0
 76157  1  0  0  0
 76158  1  0  0  0
 76 87  1  0  0  0
 77 87  1  0  0  0
 77159  1  0  0  0
 77160  1  0  0  0
 77161  1  0  0  0
 78162  1  0  0  0
 78163  1  0  0  0
 78164  1  0  0  0
 78 88  1  0  0  0
 79 88  1  0  0  0
 79165  1  0  0  0
 79166  1  0  0  0
 79167  1  0  0  0
 80 81  1  0  0  0
 80168  1  0  0  0
 80169  1  0  0  0
 81 82  1  0  0  0
 81170  1  0  0  0
 81171  1  0  0  0
 82 85  1  0  0  0
 82172  1  0  0  0
 82173  1  0  0  0
 83 84  1  0  0  0
 83 87  1  0  0  0
 83174  1  0  0  0
 83175  1  0  0  0
 84 90  1  0  0  0
 84176  1  0  0  0
 84177  1  0  0  0
 85178  1  0  0  0
 85179  1  0  0  0
 86 88  1  0  0  0
 86180  1  0  0  0
 87181  1  0  0  0
M  ISO  4   1 100  68 101  85 101  88 100
M  END
> <chiral flag>
0

> <version>
0

> <s_m_source_file>
/data/baiqing/PycharmProjects/Reinvent-master-3.2/result/LINK_invent/BTK/process_docking_weight1_custom_sum_contain_oxygen_bond_distance_aromatic_linkinvent_7_9_3/rearranged_h_0073.sdf

> <i_m_source_file_index>
73

> <r_mmod_Potential_Energy-OPLS-2005>
149.891845703125

> <r_mmod_Stretch_Energy-OPLS-2005>
57.5483169555664

> <r_mmod_Bend_Energy-OPLS-2005>
169.43342590332

> <r_mmod_Torsional_Energy-OPLS-2005>
240.526290893555

> <r_mmod_Improper_Torsional_Energy-OPLS-2005>
12.3929586410522

> <r_mmod_Van_der_Waal_Energy-OPLS-2005>
137.374557495117

> <r_mmod_Electrostatic_Energy-OPLS-2005>
-330.394226074219

> <r_mmod_Solvation_Energy-OPLS-2005>
-189.692947387695

> <b_mmod_Minimization_Converged-OPLS-2005>
0

> <r_mmod_RMS_Derivative-OPLS-2005>
3.94312834739685

$$$$
73
                    3D
 Structure written by MMmdl.
160168  0  0  1  0            999 V2000
  -30.7161  -14.4959   20.5018 C   0  0  0  0  0  0
  -30.4123  -12.3049   19.4367 C   0  0  0  0  0  0
  -29.4911  -12.4782   18.2112 C   0  0  0  0  0  0
  -28.0115  -12.3491   18.6260 C   0  0  0  0  0  0
  -27.6522  -13.2132   19.8650 C   0  0  2  0  0  0
  -28.6996  -13.0568   20.9914 C   0  0  0  0  0  0
  -25.2549  -13.8190   20.5702 C   0  0  0  0  0  0
  -24.1807  -13.0463   20.9209 C   0  0  0  0  0  0
  -24.6362  -11.6934   20.8754 C   0  0  0  0  0  0
  -23.9026  -10.4316   21.0422 C   0  0  0  0  0  0
  -24.3592   -9.4230   21.9190 C   0  0  0  0  0  0
  -23.6278   -8.2254   22.0748 C   0  0  0  0  0  0
  -22.4260   -8.0285   21.3539 C   0  0  0  0  0  0
  -21.9892   -9.0258   20.4641 C   0  0  0  0  0  0
  -22.7208  -10.2148   20.3062 C   0  0  0  0  0  0
  -21.6856   -6.0726   22.5270 C   0  0  0  0  0  0
  -21.4020   -6.5631   23.8207 C   0  0  0  0  0  0
  -21.3665   -5.6780   24.9168 C   0  0  0  0  0  0
  -21.6049   -4.3044   24.7218 C   0  0  0  0  0  0
  -21.8819   -3.8134   23.4341 C   0  0  0  0  0  0
  -21.9206   -4.6953   22.3398 C   0  0  0  0  0  0
  -22.7839  -13.5264   21.1882 C   0  0  0  0  0  0
  -22.1670   -4.2144   21.0972 F   0  0  0  0  0  0
  -21.5645   -3.4526   25.7732 F   0  0  0  0  0  0
  -30.0199  -13.3321   20.4132 N   0  0  0  0  0  0
  -26.2967  -12.9360   20.3352 N   0  0  0  0  0  0
  -25.9290  -11.6517   20.5781 N   0  0  0  0  0  0
  -22.0465  -12.8241   22.0421 N   0  0  0  0  0  0
  -25.4309  -15.1902   20.4121 N   0  0  0  0  0  0
  -31.9000  -14.5880   20.1878 O   0  0  0  0  0  0
  -21.6648   -6.8863   21.4225 O   0  0  0  0  0  0
  -22.3519  -14.5575   20.6753 O   0  0  0  0  0  0
  -24.6137  -31.8695   23.2136 C   0  0  0  0  0  0
  -25.9035  -32.4823   23.8441 C   0  0  1  0  0  0
  -27.2216  -27.4186   20.1043 C   0  0  0  0  0  0
  -25.5922  -33.8634   24.2352 N   0  0  0  0  0  0
  -23.4048  -30.4927   21.5526 C   0  0  2  0  0  0
  -24.8520  -28.9641   20.1169 C   0  0  0  0  0  0
  -22.7438  -29.4661   22.4996 C   0  0  0  0  0  0
  -18.0286  -28.1357   22.8544 C   0  0  0  0  0  0
  -24.1486  -36.7325   23.2636 C   0  0  0  0  0  0
  -25.9365  -30.8231   21.3795 C   0  0  0  0  0  0
  -26.0099  -29.4558   20.7322 C   0  0  0  0  0  0
  -27.1985  -28.6856   20.7319 C   0  0  0  0  0  0
  -26.0616  -26.9772   19.4323 C   0  0  0  0  0  0
  -24.8731  -27.7236   19.4630 C   0  0  0  0  0  0
  -23.6148  -29.8297   20.1671 C   0  0  0  0  0  0
  -25.4117  -36.3129   24.0327 C   0  0  1  0  0  0
  -20.5895  -28.3661   23.1295 C   0  0  2  0  0  0
  -20.6808  -26.9462   22.5255 C   0  0  0  0  0  0
  -19.5696  -26.6491   21.5131 C   0  0  0  0  0  0
  -18.1936  -26.7872   22.1737 C   0  0  0  0  0  0
  -19.1543  -28.8829   23.2907 C   0  0  0  0  0  0
  -18.9480  -30.1436   23.8921 C   0  0  0  0  0  0
  -17.6494  -30.6604   24.0567 C   0  0  0  0  0  0
  -25.9048  -34.9483   23.5138 C   0  0  0  0  0  0
  -16.5379  -29.9120   23.6311 C   0  0  0  0  0  0
  -16.7286  -28.6511   23.0393 C   0  0  0  0  0  0
  -26.4473  -31.6600   25.0768 C   0  0  0  0  0  0
  -25.3731  -31.3708   26.1511 C   0  0  0  0  0  0
  -27.0316  -30.3052   24.6156 C   0  0  0  0  0  0
  -27.6077  -32.4306   25.7514 C   0  0  0  0  0  0
  -27.5591  -37.1821   24.8466 C   0  0  0  0  0  0
  -21.4167  -29.3056   22.3754 N   0  0  0  0  0  0
  -26.4309  -37.3806   23.9393 N   0  0  0  0  0  0
  -24.6685  -31.0794   22.1046 N   0  0  0  0  0  0
  -23.4220  -28.8182   23.3020 O   0  0  0  0  0  0
  -28.3704  -26.6559   20.0667 O   0  0  0  0  0  0
  -26.5600  -34.8916   22.4691 O   0  0  0  0  0  0
  -23.5331  -32.1468   23.7521 O   0  0  0  0  0  0
  -28.6033  -22.5113   22.0266 C   0  0  0  0  0  0
  -27.8980  -22.9111   20.8763 C   0  0  0  0  0  0
  -27.5645  -21.8709   19.9791 C   0  0  0  0  0  0
  -28.4239  -20.3043   21.4273 C   0  0  0  0  0  0
  -26.8451  -22.1101   18.6622 C   0  0  0  0  0  0
  -26.1582  -24.5578   21.5692 C   0  0  0  0  0  0
  -28.4730  -18.8330   21.8561 C   0  0  0  0  0  0
  -29.3849  -17.9199   21.0041 C   0  0  0  0  0  0
  -29.2557  -16.4015   21.3239 C   0  0  0  0  0  0
  -28.4579  -25.4887   20.9186 C   0  0  0  0  0  0
  -27.4073  -24.3605   20.6858 C   0  0  1  0  0  0
  -28.8628  -21.2131   22.2934 N   0  0  0  0  0  0
  -27.8216  -20.5807   20.2742 N   0  0  0  0  0  0
  -29.9907  -15.6144   20.3309 N   0  0  0  0  0  0
  -31.4608  -12.3765   19.1432 H   0  0  0  0  0  0
  -30.2895  -11.3125   19.8710 H   0  0  0  0  0  0
  -29.7278  -11.7328   17.4503 H   0  0  0  0  0  0
  -29.6630  -13.4526   17.7507 H   0  0  0  0  0  0
  -27.8231  -11.2976   18.8413 H   0  0  0  0  0  0
  -27.3607  -12.6055   17.7885 H   0  0  0  0  0  0
  -27.6777  -14.2494   19.5302 H   0  0  0  0  0  0
  -28.6761  -12.0484   21.4054 H   0  0  0  0  0  0
  -28.4839  -13.7316   21.8204 H   0  0  0  0  0  0
  -25.2743   -9.5726   22.4754 H   0  0  0  0  0  0
  -24.0013   -7.4639   22.7452 H   0  0  0  0  0  0
  -21.0837   -8.8760   19.8923 H   0  0  0  0  0  0
  -22.3663  -10.9684   19.6164 H   0  0  0  0  0  0
  -21.1997   -7.6140   23.9711 H   0  0  0  0  0  0
  -21.1491   -6.0510   25.9073 H   0  0  0  0  0  0
  -22.0595   -2.7596   23.2848 H   0  0  0  0  0  0
  -22.4068  -11.9900   22.4792 H   0  0  0  0  0  0
  -21.1085  -13.1275   22.2628 H   0  0  0  0  0  0
  -24.6733  -15.8575   20.5130 H   0  0  0  0  0  0
  -26.2869  -15.6094   20.0721 H   0  0  0  0  0  0
  -26.7104  -32.5542   23.1214 H   0  0  0  0  0  0
  -25.0053  -33.9799   25.0490 H   0  0  0  0  0  0
  -22.6935  -31.3092   21.4161 H   0  0  0  0  0  0
  -23.3743  -35.9664   23.3308 H   0  0  0  0  0  0
  -24.3579  -36.8937   22.2052 H   0  0  0  0  0  0
  -23.7242  -37.6537   23.6641 H   0  0  0  0  0  0
  -26.0595  -31.5808   20.6047 H   0  0  0  0  0  0
  -26.8218  -30.8774   22.0002 H   0  0  0  0  0  0
  -28.0958  -29.0534   21.2102 H   0  0  0  0  0  0
  -26.0577  -26.0538   18.8760 H   0  0  0  0  0  0
  -23.9929  -27.3545   18.9566 H   0  0  0  0  0  0
  -23.7279  -30.6070   19.4106 H   0  0  0  0  0  0
  -22.7387  -29.2529   19.8656 H   0  0  0  0  0  0
  -25.1280  -36.2010   25.0816 H   0  0  0  0  0  0
  -20.9994  -28.3138   24.1409 H   0  0  0  0  0  0
  -20.5873  -26.2252   23.3387 H   0  0  0  0  0  0
  -21.6650  -26.7618   22.0908 H   0  0  0  0  0  0
  -19.6898  -25.6485   21.0995 H   0  0  0  0  0  0
  -19.6444  -27.3448   20.6763 H   0  0  0  0  0  0
  -17.4066  -26.6432   21.4316 H   0  0  0  0  0  0
  -18.0602  -26.0042   22.9218 H   0  0  0  0  0  0
  -19.7976  -30.7223   24.2309 H   0  0  0  0  0  0
  -17.5079  -31.6293   24.5161 H   0  0  0  0  0  0
  -15.5384  -30.3044   23.7616 H   0  0  0  0  0  0
  -15.8678  -28.0818   22.7180 H   0  0  0  0  0  0
  -24.5880  -30.7095   25.7823 H   0  0  0  0  0  0
  -24.8947  -32.2867   26.4998 H   0  0  0  0  0  0
  -25.8064  -30.8832   27.0252 H   0  0  0  0  0  0
  -26.2875  -29.6823   24.1185 H   0  0  0  0  0  0
  -27.4073  -29.7278   25.4611 H   0  0  0  0  0  0
  -27.8710  -30.4384   23.9328 H   0  0  0  0  0  0
  -27.2724  -33.3580   26.2165 H   0  0  0  0  0  0
  -28.3843  -32.6905   25.0307 H   0  0  0  0  0  0
  -28.0796  -31.8385   26.5372 H   0  0  0  0  0  0
  -28.2612  -38.0113   24.7494 H   0  0  0  0  0  0
  -28.1077  -36.2646   24.6292 H   0  0  0  0  0  0
  -27.2306  -37.1464   25.8869 H   0  0  0  0  0  0
  -20.9352  -29.8745   21.6934 H   0  0  0  0  0  0
  -26.0207  -38.2883   24.1398 H   0  0  0  0  0  0
  -28.9039  -23.2251   22.7797 H   0  0  0  0  0  0
  -27.4276  -22.7741   18.0240 H   0  0  0  0  0  0
  -25.8698  -22.5676   18.8301 H   0  0  0  0  0  0
  -26.6872  -21.1820   18.1113 H   0  0  0  0  0  0
  -26.3663  -24.3068   22.6097 H   0  0  0  0  0  0
  -25.3375  -23.9247   21.2332 H   0  0  0  0  0  0
  -25.7980  -25.5843   21.5763 H   0  0  0  0  0  0
  -27.4532  -18.4486   21.8381 H   0  0  0  0  0  0
  -28.7893  -18.7751   22.8980 H   0  0  0  0  0  0
  -30.4186  -18.2443   21.1270 H   0  0  0  0  0  0
  -29.1397  -18.0851   19.9542 H   0  0  0  0  0  0
  -28.2075  -16.1040   21.2915 H   0  0  0  0  0  0
  -29.6138  -16.1885   22.3326 H   0  0  0  0  0  0
  -28.4865  -25.7876   21.9674 H   0  0  0  0  0  0
  -29.4450  -25.0758   20.7080 H   0  0  0  0  0  0
  -27.1227  -24.4465   19.6418 H   0  0  0  0  0  0
  -30.5049  -16.2280   19.7154 H   0  0  0  0  0  0
  1 25  1  0  0  0
  1 30  2  0  0  0
  1 84  1  0  0  0
  2  3  1  0  0  0
  2 25  1  0  0  0
  2 85  1  0  0  0
  2 86  1  0  0  0
  3  4  1  0  0  0
  3 87  1  0  0  0
  3 88  1  0  0  0
  4  5  1  0  0  0
  4 89  1  0  0  0
  4 90  1  0  0  0
  5  6  1  0  0  0
  5 26  1  0  0  0
  5 91  1  0  0  0
  6 25  1  0  0  0
  6 92  1  0  0  0
  6 93  1  0  0  0
  7  8  2  0  0  0
  7 26  1  0  0  0
  7 29  1  0  0  0
  8  9  1  0  0  0
  8 22  1  0  0  0
  9 10  1  0  0  0
  9 27  2  0  0  0
 10 11  2  0  0  0
 10 15  1  0  0  0
 11 12  1  0  0  0
 11 94  1  0  0  0
 12 13  2  0  0  0
 12 95  1  0  0  0
 13 14  1  0  0  0
 13 31  1  0  0  0
 14 15  2  0  0  0
 14 96  1  0  0  0
 15 97  1  0  0  0
 16 17  2  0  0  0
 16 21  1  0  0  0
 16 31  1  0  0  0
 17 18  1  0  0  0
 17 98  1  0  0  0
 18 19  2  0  0  0
 18 99  1  0  0  0
 19 20  1  0  0  0
 19 24  1  0  0  0
 20 21  2  0  0  0
 20100  1  0  0  0
 21 23  1  0  0  0
 22 28  1  0  0  0
 22 32  2  0  0  0
 26 27  1  0  0  0
 28101  1  0  0  0
 28102  1  0  0  0
 29103  1  0  0  0
 29104  1  0  0  0
 33 34  1  0  0  0
 33 66  1  0  0  0
 33 70  2  0  0  0
 34 36  1  0  0  0
 34 59  1  0  0  0
 34105  1  0  0  0
 35 44  2  0  0  0
 35 45  1  0  0  0
 35 68  1  0  0  0
 36 56  1  0  0  0
 36106  1  0  0  0
 37 39  1  0  0  0
 37 47  1  0  0  0
 37 66  1  0  0  0
 37107  1  0  0  0
 38 43  2  0  0  0
 38 46  1  0  0  0
 38 47  1  0  0  0
 39 64  1  0  0  0
 39 67  2  0  0  0
 40 52  1  0  0  0
 40 53  2  0  0  0
 40 58  1  0  0  0
 41108  1  0  0  0
 41109  1  0  0  0
 41110  1  0  0  0
 41 48  1  0  0  0
 42 43  1  0  0  0
 42 66  1  0  0  0
 42111  1  0  0  0
 42112  1  0  0  0
 43 44  1  0  0  0
 44113  1  0  0  0
 45 46  2  0  0  0
 45114  1  0  0  0
 46115  1  0  0  0
 47116  1  0  0  0
 47117  1  0  0  0
 48 56  1  0  0  0
 48 65  1  0  0  0
 48118  1  0  0  0
 49 50  1  0  0  0
 49 53  1  0  0  0
 49 64  1  0  0  0
 49119  1  0  0  0
 50 51  1  0  0  0
 50120  1  0  0  0
 50121  1  0  0  0
 51 52  1  0  0  0
 51122  1  0  0  0
 51123  1  0  0  0
 52124  1  0  0  0
 52125  1  0  0  0
 53 54  1  0  0  0
 54 55  2  0  0  0
 54126  1  0  0  0
 55 57  1  0  0  0
 55127  1  0  0  0
 56 69  2  0  0  0
 57 58  2  0  0  0
 57128  1  0  0  0
 58129  1  0  0  0
 59 60  1  0  0  0
 59 61  1  0  0  0
 59 62  1  0  0  0
 60130  1  0  0  0
 60131  1  0  0  0
 60132  1  0  0  0
 61133  1  0  0  0
 61134  1  0  0  0
 61135  1  0  0  0
 62136  1  0  0  0
 62137  1  0  0  0
 62138  1  0  0  0
 63 65  1  0  0  0
 63139  1  0  0  0
 63140  1  0  0  0
 63141  1  0  0  0
 64142  1  0  0  0
 65143  1  0  0  0
 68 80  1  0  0  0
 71 72  2  0  0  0
 71 82  1  0  0  0
 71144  1  0  0  0
 72 73  1  0  0  0
 72 81  1  0  0  0
 73 75  1  0  0  0
 73 83  2  0  0  0
 74 77  1  0  0  0
 74 82  2  0  0  0
 74 83  1  0  0  0
 75145  1  0  0  0
 75146  1  0  0  0
 75147  1  0  0  0
 76148  1  0  0  0
 76149  1  0  0  0
 76150  1  0  0  0
 76 81  1  0  0  0
 77 78  1  0  0  0
 77151  1  0  0  0
 77152  1  0  0  0
 78 79  1  0  0  0
 78153  1  0  0  0
 78154  1  0  0  0
 79 84  1  0  0  0
 79155  1  0  0  0
 79156  1  0  0  0
 80 81  1  0  0  0
 80157  1  0  0  0
 80158  1  0  0  0
 81159  1  0  0  0
 84160  1  0  0  0
M  ISO  4   1 100  68 101  80 101  84 100
M  END
> <chiral flag>
0

> <version>
0

> <s_m_source_file>
/data/baiqing/PycharmProjects/Reinvent-master-3.2/result/LINK_invent/BTK/process_docking_weight1_custom_sum_contain_oxygen_bond_distance_aromatic_linkinvent_7_9_3/rearranged_h_0073.sdf

> <i_m_source_file_index>
74

> <r_mmod_Potential_Energy-OPLS-2005>
-373.166839599609

> <r_mmod_Stretch_Energy-OPLS-2005>
37.0656967163086

> <r_mmod_Bend_Energy-OPLS-2005>
122.540138244629

> <r_mmod_Torsional_Energy-OPLS-2005>
282.8798828125

> <r_mmod_Improper_Torsional_Energy-OPLS-2005>
26.0869274139404

> <r_mmod_Van_der_Waal_Energy-OPLS-2005>
151.175994873047

> <r_mmod_Electrostatic_Energy-OPLS-2005>
-793.317565917969

> <r_mmod_Solvation_Energy-OPLS-2005>
-222.064483642578

> <b_mmod_Minimization_Converged-OPLS-2005>
0

> <r_mmod_RMS_Derivative-OPLS-2005>
2.88236927986145

$$$$
74
                    3D
 Structure written by MMmdl.
159167  0  0  1  0            999 V2000
  -30.6692  -14.5430   20.6001 C   0  0  0  0  0  0
  -30.4304  -12.3603   19.4251 C   0  0  0  0  0  0
  -29.4945  -12.5185   18.2076 C   0  0  0  0  0  0
  -28.0159  -12.3688   18.6223 C   0  0  0  0  0  0
  -27.6592  -13.2113   19.8767 C   0  0  2  0  0  0
  -28.7027  -12.9853   20.9926 C   0  0  0  0  0  0
  -25.2562  -13.8176   20.5693 C   0  0  0  0  0  0
  -24.1831  -13.0447   20.9181 C   0  0  0  0  0  0
  -24.6379  -11.6916   20.8748 C   0  0  0  0  0  0
  -23.9046  -10.4304   21.0407 C   0  0  0  0  0  0
  -24.3604   -9.4230   21.9190 C   0  0  0  0  0  0
  -23.6291   -8.2256   22.0755 C   0  0  0  0  0  0
  -22.4263   -8.0287   21.3557 C   0  0  0  0  0  0
  -21.9894   -9.0250   20.4647 C   0  0  0  0  0  0
  -22.7217  -10.2134   20.3057 C   0  0  0  0  0  0
  -21.6851   -6.0740   22.5289 C   0  0  0  0  0  0
  -21.4023   -6.5644   23.8221 C   0  0  0  0  0  0
  -21.3661   -5.6794   24.9179 C   0  0  0  0  0  0
  -21.6041   -4.3054   24.7219 C   0  0  0  0  0  0
  -21.8829   -3.8149   23.4342 C   0  0  0  0  0  0
  -21.9194   -4.6970   22.3407 C   0  0  0  0  0  0
  -22.7855  -13.5237   21.1814 C   0  0  0  0  0  0
  -22.1650   -4.2162   21.0976 F   0  0  0  0  0  0
  -21.5618   -3.4539   25.7730 F   0  0  0  0  0  0
  -30.0201  -13.3459   20.4457 N   0  0  0  0  0  0
  -26.3013  -12.9350   20.3387 N   0  0  0  0  0  0
  -25.9315  -11.6506   20.5799 N   0  0  0  0  0  0
  -22.0467  -12.8290   22.0381 N   0  0  0  0  0  0
  -25.4264  -15.1899   20.4114 N   0  0  0  0  0  0
  -31.7711  -14.7201   20.0654 O   0  0  0  0  0  0
  -21.6636   -6.8881   21.4247 O   0  0  0  0  0  0
  -22.3562  -14.5529   20.6608 O   0  0  0  0  0  0
  -24.6198  -31.8633   23.2062 C   0  0  0  0  0  0
  -25.9078  -32.4795   23.8372 C   0  0  1  0  0  0
  -27.2262  -27.3746   20.1000 C   0  0  0  0  0  0
  -25.5935  -33.8609   24.2322 N   0  0  0  0  0  0
  -23.4091  -30.4859   21.5483 C   0  0  2  0  0  0
  -24.8503  -28.9421   20.1164 C   0  0  0  0  0  0
  -22.7428  -29.4657   22.4997 C   0  0  0  0  0  0
  -18.0286  -28.1387   22.8515 C   0  0  0  0  0  0
  -24.1480  -36.7296   23.2641 C   0  0  0  0  0  0
  -25.9434  -30.8084   21.3675 C   0  0  0  0  0  0
  -26.0153  -29.4409   20.7091 C   0  0  0  0  0  0
  -27.2057  -28.6678   20.6904 C   0  0  0  0  0  0
  -26.0299  -26.8999   19.5115 C   0  0  0  0  0  0
  -24.8541  -27.6731   19.5165 C   0  0  0  0  0  0
  -23.6144  -29.8123   20.1657 C   0  0  0  0  0  0
  -25.4108  -36.3119   24.0344 C   0  0  1  0  0  0
  -20.5872  -28.3660   23.1285 C   0  0  2  0  0  0
  -20.6726  -26.9400   22.5379 C   0  0  0  0  0  0
  -19.5709  -26.6468   21.5147 C   0  0  0  0  0  0
  -18.1925  -26.7934   22.1647 C   0  0  0  0  0  0
  -19.1538  -28.8841   23.2912 C   0  0  0  0  0  0
  -18.9496  -30.1426   23.8973 C   0  0  0  0  0  0
  -17.6499  -30.6568   24.0662 C   0  0  0  0  0  0
  -25.9026  -34.9476   23.5125 C   0  0  0  0  0  0
  -16.5376  -29.9106   23.6391 C   0  0  0  0  0  0
  -16.7288  -28.6527   23.0401 C   0  0  0  0  0  0
  -26.4483  -31.6604   25.0726 C   0  0  0  0  0  0
  -25.3734  -31.3727   26.1464 C   0  0  0  0  0  0
  -27.0341  -30.3041   24.6170 C   0  0  0  0  0  0
  -27.6051  -32.4349   25.7483 C   0  0  0  0  0  0
  -27.5589  -37.1804   24.8471 C   0  0  0  0  0  0
  -21.4160  -29.3021   22.3689 N   0  0  0  0  0  0
  -26.4307  -37.3799   23.9405 N   0  0  0  0  0  0
  -24.6756  -31.0691   22.0976 N   0  0  0  0  0  0
  -23.4185  -28.8217   23.3068 O   0  0  0  0  0  0
  -28.4009  -26.6277   20.1189 O   0  0  0  0  0  0
  -26.5572  -34.8937   22.4676 O   0  0  0  0  0  0
  -23.5380  -32.1435   23.7414 O   0  0  0  0  0  0
  -30.4859  -18.9980   20.1877 C   0  0  0  0  0  0
  -29.1083  -19.0244   20.5280 C   0  0  0  0  0  0
  -26.5925  -22.7397   19.4197 C   0  0  0  0  0  0
  -26.5246  -22.4609   21.8945 C   0  0  0  0  0  0
  -28.0916  -20.1689   20.4236 C   0  0  0  0  0  0
  -30.0573  -15.7133   21.4500 C   0  0  0  0  0  0
  -28.5777  -21.6595   20.6442 C   0  0  0  0  0  0
  -27.9681  -24.2674   20.9473 C   0  0  0  0  0  0
  -28.4011  -25.2106   19.7723 C   0  0  0  0  0  0
  -27.4547  -22.7824   20.6975 C   0  0  0  0  0  0
  -30.9977  -17.8035   20.4057 N   0  0  0  0  0  0
  -28.7806  -17.8119   20.9443 N   0  0  0  0  0  0
  -29.9354  -17.0688   20.8430 N   0  0  0  0  0  0
  -31.4707  -12.4765   19.1169 H   0  0  0  0  0  0
  -30.3601  -11.3482   19.8255 H   0  0  0  0  0  0
  -29.7443  -11.7792   17.4449 H   0  0  0  0  0  0
  -29.6505  -13.4949   17.7497 H   0  0  0  0  0  0
  -27.8355  -11.3119   18.8277 H   0  0  0  0  0  0
  -27.3568  -12.6305   17.7938 H   0  0  0  0  0  0
  -27.7040  -14.2613   19.5872 H   0  0  0  0  0  0
  -28.7080  -11.9336   21.2838 H   0  0  0  0  0  0
  -28.4395  -13.5126   21.9076 H   0  0  0  0  0  0
  -25.2743   -9.5731   22.4766 H   0  0  0  0  0  0
  -24.0018   -7.4662   22.7469 H   0  0  0  0  0  0
  -21.0819   -8.8753   19.8961 H   0  0  0  0  0  0
  -22.3654  -10.9665   19.6169 H   0  0  0  0  0  0
  -21.2028   -7.6147   23.9736 H   0  0  0  0  0  0
  -21.1459   -6.0515   25.9085 H   0  0  0  0  0  0
  -22.0603   -2.7608   23.2833 H   0  0  0  0  0  0
  -22.4040  -11.9979   22.4865 H   0  0  0  0  0  0
  -21.1073  -13.1348   22.2507 H   0  0  0  0  0  0
  -24.6586  -15.8410   20.5321 H   0  0  0  0  0  0
  -26.2856  -15.6404   20.1210 H   0  0  0  0  0  0
  -26.7125  -32.5450   23.1109 H   0  0  0  0  0  0
  -25.0160  -33.9777   25.0527 H   0  0  0  0  0  0
  -22.7021  -31.3052   21.4048 H   0  0  0  0  0  0
  -23.3770  -35.9601   23.3309 H   0  0  0  0  0  0
  -24.3568  -36.8905   22.2057 H   0  0  0  0  0  0
  -23.7204  -37.6499   23.6622 H   0  0  0  0  0  0
  -26.0759  -31.5776   20.6065 H   0  0  0  0  0  0
  -26.8233  -30.8500   21.9976 H   0  0  0  0  0  0
  -28.1081  -29.0507   21.1444 H   0  0  0  0  0  0
  -25.9629  -25.9265   19.0494 H   0  0  0  0  0  0
  -23.9498  -27.2816   19.0703 H   0  0  0  0  0  0
  -23.7222  -30.5797   19.3985 H   0  0  0  0  0  0
  -22.7366  -29.2306   19.8752 H   0  0  0  0  0  0
  -25.1290  -36.1994   25.0840 H   0  0  0  0  0  0
  -20.9993  -28.3183   24.1387 H   0  0  0  0  0  0
  -20.5499  -26.2302   23.3575 H   0  0  0  0  0  0
  -21.6618  -26.7358   22.1257 H   0  0  0  0  0  0
  -19.6845  -25.6422   21.1093 H   0  0  0  0  0  0
  -19.6610  -27.3350   20.6722 H   0  0  0  0  0  0
  -17.4146  -26.6626   21.4116 H   0  0  0  0  0  0
  -18.0439  -26.0081   22.9079 H   0  0  0  0  0  0
  -19.7974  -30.7208   24.2394 H   0  0  0  0  0  0
  -17.5062  -31.6219   24.5324 H   0  0  0  0  0  0
  -15.5388  -30.3041   23.7687 H   0  0  0  0  0  0
  -15.8680  -28.0848   22.7143 H   0  0  0  0  0  0
  -24.5893  -30.7099   25.7776 H   0  0  0  0  0  0
  -24.8945  -32.2898   26.4898 H   0  0  0  0  0  0
  -25.8084  -30.8879   27.0218 H   0  0  0  0  0  0
  -26.2913  -29.6777   24.1213 H   0  0  0  0  0  0
  -27.4087  -29.7310   25.4662 H   0  0  0  0  0  0
  -27.8752  -30.4355   23.9365 H   0  0  0  0  0  0
  -27.2661  -33.3643   26.2066 H   0  0  0  0  0  0
  -28.3847  -32.6937   25.0307 H   0  0  0  0  0  0
  -28.0726  -31.8482   26.5398 H   0  0  0  0  0  0
  -28.2628  -38.0081   24.7541 H   0  0  0  0  0  0
  -28.1090  -36.2640   24.6295 H   0  0  0  0  0  0
  -27.2306  -37.1445   25.8872 H   0  0  0  0  0  0
  -20.9328  -29.8729   21.6889 H   0  0  0  0  0  0
  -26.0215  -38.2889   24.1399 H   0  0  0  0  0  0
  -31.0953  -19.8096   19.8134 H   0  0  0  0  0  0
  -26.0605  -21.7944   19.3156 H   0  0  0  0  0  0
  -27.1976  -22.8630   18.5212 H   0  0  0  0  0  0
  -25.8331  -23.5225   19.4229 H   0  0  0  0  0  0
  -25.9885  -21.5224   21.7720 H   0  0  0  0  0  0
  -25.7531  -23.2202   22.0293 H   0  0  0  0  0  0
  -27.0808  -22.3973   22.8312 H   0  0  0  0  0  0
  -27.2909  -19.9482   21.1275 H   0  0  0  0  0  0
  -27.6223  -20.1045   19.4413 H   0  0  0  0  0  0
  -29.0778  -15.4625   21.8406 H   0  0  0  0  0  0
  -30.6968  -15.8182   22.3247 H   0  0  0  0  0  0
  -29.2984  -21.9096   19.8659 H   0  0  0  0  0  0
  -29.1405  -21.6972   21.5782 H   0  0  0  0  0  0
  -27.1652  -24.8193   21.4382 H   0  0  0  0  0  0
  -28.7688  -24.2442   21.6875 H   0  0  0  0  0  0
  -27.8366  -25.0371   18.8592 H   0  0  0  0  0  0
  -29.4249  -24.9563   19.4982 H   0  0  0  0  0  0
  1 25  1  0  0  0
  1 30  2  0  0  0
  1 76  1  0  0  0
  2  3  1  0  0  0
  2 25  1  0  0  0
  2 84  1  0  0  0
  2 85  1  0  0  0
  3  4  1  0  0  0
  3 86  1  0  0  0
  3 87  1  0  0  0
  4  5  1  0  0  0
  4 88  1  0  0  0
  4 89  1  0  0  0
  5  6  1  0  0  0
  5 26  1  0  0  0
  5 90  1  0  0  0
  6 25  1  0  0  0
  6 91  1  0  0  0
  6 92  1  0  0  0
  7  8  2  0  0  0
  7 26  1  0  0  0
  7 29  1  0  0  0
  8  9  1  0  0  0
  8 22  1  0  0  0
  9 10  1  0  0  0
  9 27  2  0  0  0
 10 11  2  0  0  0
 10 15  1  0  0  0
 11 12  1  0  0  0
 11 93  1  0  0  0
 12 13  2  0  0  0
 12 94  1  0  0  0
 13 14  1  0  0  0
 13 31  1  0  0  0
 14 15  2  0  0  0
 14 95  1  0  0  0
 15 96  1  0  0  0
 16 17  2  0  0  0
 16 21  1  0  0  0
 16 31  1  0  0  0
 17 18  1  0  0  0
 17 97  1  0  0  0
 18 19  2  0  0  0
 18 98  1  0  0  0
 19 20  1  0  0  0
 19 24  1  0  0  0
 20 21  2  0  0  0
 20 99  1  0  0  0
 21 23  1  0  0  0
 22 28  1  0  0  0
 22 32  2  0  0  0
 26 27  1  0  0  0
 28100  1  0  0  0
 28101  1  0  0  0
 29102  1  0  0  0
 29103  1  0  0  0
 33 34  1  0  0  0
 33 66  1  0  0  0
 33 70  2  0  0  0
 34 36  1  0  0  0
 34 59  1  0  0  0
 34104  1  0  0  0
 35 44  2  0  0  0
 35 45  1  0  0  0
 35 68  1  0  0  0
 36 56  1  0  0  0
 36105  1  0  0  0
 37 39  1  0  0  0
 37 47  1  0  0  0
 37 66  1  0  0  0
 37106  1  0  0  0
 38 43  2  0  0  0
 38 46  1  0  0  0
 38 47  1  0  0  0
 39 64  1  0  0  0
 39 67  2  0  0  0
 40 52  1  0  0  0
 40 53  2  0  0  0
 40 58  1  0  0  0
 41107  1  0  0  0
 41108  1  0  0  0
 41109  1  0  0  0
 41 48  1  0  0  0
 42 43  1  0  0  0
 42 66  1  0  0  0
 42110  1  0  0  0
 42111  1  0  0  0
 43 44  1  0  0  0
 44112  1  0  0  0
 45 46  2  0  0  0
 45113  1  0  0  0
 46114  1  0  0  0
 47115  1  0  0  0
 47116  1  0  0  0
 48 56  1  0  0  0
 48 65  1  0  0  0
 48117  1  0  0  0
 49 50  1  0  0  0
 49 53  1  0  0  0
 49 64  1  0  0  0
 49118  1  0  0  0
 50 51  1  0  0  0
 50119  1  0  0  0
 50120  1  0  0  0
 51 52  1  0  0  0
 51121  1  0  0  0
 51122  1  0  0  0
 52123  1  0  0  0
 52124  1  0  0  0
 53 54  1  0  0  0
 54 55  2  0  0  0
 54125  1  0  0  0
 55 57  1  0  0  0
 55126  1  0  0  0
 56 69  2  0  0  0
 57 58  2  0  0  0
 57127  1  0  0  0
 58128  1  0  0  0
 59 60  1  0  0  0
 59 61  1  0  0  0
 59 62  1  0  0  0
 60129  1  0  0  0
 60130  1  0  0  0
 60131  1  0  0  0
 61132  1  0  0  0
 61133  1  0  0  0
 61134  1  0  0  0
 62135  1  0  0  0
 62136  1  0  0  0
 62137  1  0  0  0
 63 65  1  0  0  0
 63138  1  0  0  0
 63139  1  0  0  0
 63140  1  0  0  0
 64141  1  0  0  0
 65142  1  0  0  0
 68 79  1  0  0  0
 71 72  1  0  0  0
 71 81  2  0  0  0
 71143  1  0  0  0
 72 75  1  0  0  0
 72 82  2  0  0  0
 73144  1  0  0  0
 73145  1  0  0  0
 73146  1  0  0  0
 73 80  1  0  0  0
 74 80  1  0  0  0
 74147  1  0  0  0
 74148  1  0  0  0
 74149  1  0  0  0
 75 77  1  0  0  0
 75150  1  0  0  0
 75151  1  0  0  0
 76 83  1  0  0  0
 76152  1  0  0  0
 76153  1  0  0  0
 77 80  1  0  0  0
 77154  1  0  0  0
 77155  1  0  0  0
 78 79  1  0  0  0
 78 80  1  0  0  0
 78156  1  0  0  0
 78157  1  0  0  0
 79158  1  0  0  0
 79159  1  0  0  0
 81 83  1  0  0  0
 82 83  1  0  0  0
M  ISO  4   1 100  68 101  76 100  79 101
M  END
> <chiral flag>
0

> <version>
0

> <s_m_source_file>
/data/baiqing/PycharmProjects/Reinvent-master-3.2/result/LINK_invent/BTK/process_docking_weight1_custom_sum_contain_oxygen_bond_distance_aromatic_linkinvent_7_9_3/rearranged_h_0073.sdf

> <i_m_source_file_index>
75

> <r_mmod_Potential_Energy-OPLS-2005>
60.7885322570801

> <r_mmod_Stretch_Energy-OPLS-2005>
61.5734977722168

> <r_mmod_Bend_Energy-OPLS-2005>
146.965301513672

> <r_mmod_Torsional_Energy-OPLS-2005>
187.742568969727

> <r_mmod_Improper_Torsional_Energy-OPLS-2005>
3.53560447692871

> <r_mmod_Van_der_Waal_Energy-OPLS-2005>
128.442535400391

> <r_mmod_Electrostatic_Energy-OPLS-2005>
-286.212188720703

> <r_mmod_Solvation_Energy-OPLS-2005>
-202.994369506836

> <b_mmod_Minimization_Converged-OPLS-2005>
0

> <r_mmod_RMS_Derivative-OPLS-2005>
2.95635867118835

$$$$
75
                    3D
 Structure written by MMmdl.
164172  0  0  1  0            999 V2000
  -30.7072  -14.4689   20.5031 C   0  0  0  0  0  0
  -30.4093  -12.2827   19.4312 C   0  0  0  0  0  0
  -29.4929  -12.4922   18.2069 C   0  0  0  0  0  0
  -28.0115  -12.3607   18.6135 C   0  0  0  0  0  0
  -27.6548  -13.1996   19.8657 C   0  0  2  0  0  0
  -28.6994  -13.0227   20.9927 C   0  0  0  0  0  0
  -25.2549  -13.8109   20.5591 C   0  0  0  0  0  0
  -24.1822  -13.0405   20.9161 C   0  0  0  0  0  0
  -24.6373  -11.6868   20.8748 C   0  0  0  0  0  0
  -23.9048  -10.4264   21.0422 C   0  0  0  0  0  0
  -24.3601   -9.4176   21.9189 C   0  0  0  0  0  0
  -23.6282   -8.2208   22.0739 C   0  0  0  0  0  0
  -22.4255   -8.0267   21.3542 C   0  0  0  0  0  0
  -21.9897   -9.0238   20.4640 C   0  0  0  0  0  0
  -22.7220  -10.2123   20.3064 C   0  0  0  0  0  0
  -21.6836   -6.0726   22.5282 C   0  0  0  0  0  0
  -21.3983   -6.5625   23.8227 C   0  0  0  0  0  0
  -21.3667   -5.6782   24.9192 C   0  0  0  0  0  0
  -21.6049   -4.3048   24.7246 C   0  0  0  0  0  0
  -21.8815   -3.8135   23.4369 C   0  0  0  0  0  0
  -21.9187   -4.6947   22.3424 C   0  0  0  0  0  0
  -22.7864  -13.5232   21.1898 C   0  0  0  0  0  0
  -22.1656   -4.2136   21.1002 F   0  0  0  0  0  0
  -21.5657   -3.4538   25.7766 F   0  0  0  0  0  0
  -30.0318  -13.2938   20.4286 N   0  0  0  0  0  0
  -26.2980  -12.9263   20.3294 N   0  0  0  0  0  0
  -25.9293  -11.6440   20.5758 N   0  0  0  0  0  0
  -22.0521  -12.8184   22.0434 N   0  0  0  0  0  0
  -25.4206  -15.1812   20.3861 N   0  0  0  0  0  0
  -31.8692  -14.5950   20.1101 O   0  0  0  0  0  0
  -21.6613   -6.8870   21.4250 O   0  0  0  0  0  0
  -22.3547  -14.5576   20.6821 O   0  0  0  0  0  0
  -24.6122  -31.8715   23.2108 C   0  0  0  0  0  0
  -25.9036  -32.4822   23.8407 C   0  0  1  0  0  0
  -27.2289  -27.4472   20.1005 C   0  0  0  0  0  0
  -25.5902  -33.8615   24.2341 N   0  0  0  0  0  0
  -23.3981  -30.4934   21.5542 C   0  0  2  0  0  0
  -24.8438  -28.9585   20.1176 C   0  0  0  0  0  0
  -22.7408  -29.4696   22.5044 C   0  0  0  0  0  0
  -18.0278  -28.1385   22.8528 C   0  0  0  0  0  0
  -24.1491  -36.7323   23.2632 C   0  0  0  0  0  0
  -25.9260  -30.8368   21.3643 C   0  0  0  0  0  0
  -26.0020  -29.4692   20.7182 C   0  0  0  0  0  0
  -27.1990  -28.7178   20.7132 C   0  0  0  0  0  0
  -26.0626  -26.9512   19.4844 C   0  0  0  0  0  0
  -24.8673  -27.6965   19.4979 C   0  0  0  0  0  0
  -23.6056  -29.8242   20.1707 C   0  0  0  0  0  0
  -25.4106  -36.3110   24.0336 C   0  0  1  0  0  0
  -20.5870  -28.3692   23.1323 C   0  0  2  0  0  0
  -20.6767  -26.9458   22.5362 C   0  0  0  0  0  0
  -19.5743  -26.6483   21.5157 C   0  0  0  0  0  0
  -18.1920  -26.7969   22.1599 C   0  0  0  0  0  0
  -19.1534  -28.8857   23.2915 C   0  0  0  0  0  0
  -18.9461  -30.1466   23.8927 C   0  0  0  0  0  0
  -17.6459  -30.6593   24.0622 C   0  0  0  0  0  0
  -25.9038  -34.9469   23.5135 C   0  0  0  0  0  0
  -16.5346  -29.9083   23.6410 C   0  0  0  0  0  0
  -16.7274  -28.6524   23.0405 C   0  0  0  0  0  0
  -26.4480  -31.6579   25.0720 C   0  0  0  0  0  0
  -25.3758  -31.3667   26.1477 C   0  0  0  0  0  0
  -27.0309  -30.3025   24.6077 C   0  0  0  0  0  0
  -27.6050  -32.4306   25.7482 C   0  0  0  0  0  0
  -27.5584  -37.1819   24.8460 C   0  0  0  0  0  0
  -21.4139  -29.3089   22.3761 N   0  0  0  0  0  0
  -26.4301  -37.3790   23.9400 N   0  0  0  0  0  0
  -24.6627  -31.0852   22.0991 N   0  0  0  0  0  0
  -23.4170  -28.8231   23.3102 O   0  0  0  0  0  0
  -28.3867  -26.7110   20.0445 O   0  0  0  0  0  0
  -26.5597  -34.8931   22.4691 O   0  0  0  0  0  0
  -23.5333  -32.1441   23.7543 O   0  0  0  0  0  0
  -28.0756  -19.9539   20.0843 C   0  0  0  0  0  0
  -28.4967  -18.6839   20.3832 C   0  0  0  0  0  0
  -30.3147  -18.6208   18.6809 C   0  0  0  0  0  0
  -28.5740  -16.8655   18.6825 C   0  0  0  0  0  0
  -28.1065  -23.3717   21.9451 C   0  0  0  0  0  0
  -26.9704  -22.4166   22.3764 C   0  0  0  0  0  0
  -27.6539  -24.5321   21.0266 C   0  0  0  0  0  0
  -26.4112  -21.4848   21.2816 C   0  0  0  0  0  0
  -30.3641  -16.9492   20.5616 C   0  0  0  0  0  0
  -28.5850  -25.7666   21.0999 C   0  0  0  0  0  0
  -29.4218  -17.7623   19.6026 C   0  0  0  0  0  0
  -27.8145  -18.2689   21.5292 N   0  0  0  0  0  0
  -27.0603  -19.2355   21.9613 N   0  0  0  0  0  0
  -27.1948  -20.2707   21.0963 N   0  0  0  0  0  0
  -29.9667  -15.5455   20.8094 N   0  0  0  0  0  0
  -31.4604  -12.3482   19.1396 H   0  0  0  0  0  0
  -30.2810  -11.2803   19.8446 H   0  0  0  0  0  0
  -29.7297  -11.7706   17.4240 H   0  0  0  0  0  0
  -29.6686  -13.4802   17.7785 H   0  0  0  0  0  0
  -27.8069  -11.3069   18.8018 H   0  0  0  0  0  0
  -27.3709  -12.6543   17.7808 H   0  0  0  0  0  0
  -27.6831  -14.2346   19.5457 H   0  0  0  0  0  0
  -28.6652  -12.0078   21.3883 H   0  0  0  0  0  0
  -28.4769  -13.6781   21.8348 H   0  0  0  0  0  0
  -25.2741   -9.5653   22.4777 H   0  0  0  0  0  0
  -24.0006   -7.4577   22.7414 H   0  0  0  0  0  0
  -21.0851   -8.8749   19.8928 H   0  0  0  0  0  0
  -22.3669  -10.9678   19.6199 H   0  0  0  0  0  0
  -21.1922   -7.6124   23.9729 H   0  0  0  0  0  0
  -21.1507   -6.0512   25.9110 H   0  0  0  0  0  0
  -22.0584   -2.7594   23.2878 H   0  0  0  0  0  0
  -22.4173  -11.9861   22.4812 H   0  0  0  0  0  0
  -21.1149  -13.1200   22.2692 H   0  0  0  0  0  0
  -24.6415  -15.8238   20.4815 H   0  0  0  0  0  0
  -26.2514  -15.6204   20.0104 H   0  0  0  0  0  0
  -26.7092  -32.5558   23.1169 H   0  0  0  0  0  0
  -25.0044  -33.9765   25.0486 H   0  0  0  0  0  0
  -22.6820  -31.3049   21.4182 H   0  0  0  0  0  0
  -23.3746  -35.9665   23.3302 H   0  0  0  0  0  0
  -24.3579  -36.8933   22.2045 H   0  0  0  0  0  0
  -23.7267  -37.6543   23.6652 H   0  0  0  0  0  0
  -26.0433  -31.5998   20.5929 H   0  0  0  0  0  0
  -26.8124  -30.8918   21.9835 H   0  0  0  0  0  0
  -28.0962  -29.1097   21.1713 H   0  0  0  0  0  0
  -26.0813  -25.9900   18.9896 H   0  0  0  0  0  0
  -23.9798  -27.2989   19.0242 H   0  0  0  0  0  0
  -23.7122  -30.6011   19.4101 H   0  0  0  0  0  0
  -22.7274  -29.2483   19.8760 H   0  0  0  0  0  0
  -25.1291  -36.1977   25.0834 H   0  0  0  0  0  0
  -20.9971  -28.3224   24.1411 H   0  0  0  0  0  0
  -20.5658  -26.2329   23.3535 H   0  0  0  0  0  0
  -21.6650  -26.7533   22.1209 H   0  0  0  0  0  0
  -19.6907  -25.6395   21.1164 H   0  0  0  0  0  0
  -19.6666  -27.3326   20.6729 H   0  0  0  0  0  0
  -17.4210  -26.6872   21.3957 H   0  0  0  0  0  0
  -18.0335  -26.0014   22.8890 H   0  0  0  0  0  0
  -19.7959  -30.7286   24.2239 H   0  0  0  0  0  0
  -17.4999  -31.6296   24.5155 H   0  0  0  0  0  0
  -15.5331  -30.2998   23.7691 H   0  0  0  0  0  0
  -15.8639  -28.0936   22.7053 H   0  0  0  0  0  0
  -24.5931  -30.7002   25.7835 H   0  0  0  0  0  0
  -24.8937  -32.2814   26.4951 H   0  0  0  0  0  0
  -25.8119  -30.8840   27.0223 H   0  0  0  0  0  0
  -26.2838  -29.6791   24.1138 H   0  0  0  0  0  0
  -27.4108  -29.7258   25.4518 H   0  0  0  0  0  0
  -27.8675  -30.4360   23.9199 H   0  0  0  0  0  0
  -27.2656  -33.3594   26.2086 H   0  0  0  0  0  0
  -28.3848  -32.6879   25.0297 H   0  0  0  0  0  0
  -28.0740  -31.8411   26.5381 H   0  0  0  0  0  0
  -28.2617  -38.0101   24.7507 H   0  0  0  0  0  0
  -28.1073  -36.2642   24.6298 H   0  0  0  0  0  0
  -27.2298  -37.1475   25.8860 H   0  0  0  0  0  0
  -20.9303  -29.8838   21.6984 H   0  0  0  0  0  0
  -26.0195  -38.2876   24.1375 H   0  0  0  0  0  0
  -28.2947  -20.6219   19.2627 H   0  0  0  0  0  0
  -29.7207  -19.2225   17.9929 H   0  0  0  0  0  0
  -30.9633  -18.0025   18.0579 H   0  0  0  0  0  0
  -30.9429  -19.3002   19.2537 H   0  0  0  0  0  0
  -29.1884  -16.1453   18.1396 H   0  0  0  0  0  0
  -27.8232  -16.3318   19.2541 H   0  0  0  0  0  0
  -28.0286  -17.4561   17.9440 H   0  0  0  0  0  0
  -28.9112  -22.8039   21.4749 H   0  0  0  0  0  0
  -28.5362  -23.7930   22.8554 H   0  0  0  0  0  0
  -27.3225  -21.8060   23.2110 H   0  0  0  0  0  0
  -26.1477  -23.0044   22.7844 H   0  0  0  0  0  0
  -26.6462  -24.8420   21.2989 H   0  0  0  0  0  0
  -27.5966  -24.1741   19.9971 H   0  0  0  0  0  0
  -26.3072  -22.0009   20.3275 H   0  0  0  0  0  0
  -25.4025  -21.1811   21.5630 H   0  0  0  0  0  0
  -30.4669  -17.4605   21.5186 H   0  0  0  0  0  0
  -31.3761  -16.9669   20.1520 H   0  0  0  0  0  0
  -29.6224  -25.4343   21.0330 H   0  0  0  0  0  0
  -28.4842  -26.2623   22.0676 H   0  0  0  0  0  0
  -29.0126  -15.3830   21.1008 H   0  0  0  0  0  0
  1 25  1  0  0  0
  1 30  2  0  0  0
  1 85  1  0  0  0
  2  3  1  0  0  0
  2 25  1  0  0  0
  2 86  1  0  0  0
  2 87  1  0  0  0
  3  4  1  0  0  0
  3 88  1  0  0  0
  3 89  1  0  0  0
  4  5  1  0  0  0
  4 90  1  0  0  0
  4 91  1  0  0  0
  5  6  1  0  0  0
  5 26  1  0  0  0
  5 92  1  0  0  0
  6 25  1  0  0  0
  6 93  1  0  0  0
  6 94  1  0  0  0
  7  8  2  0  0  0
  7 26  1  0  0  0
  7 29  1  0  0  0
  8  9  1  0  0  0
  8 22  1  0  0  0
  9 10  1  0  0  0
  9 27  2  0  0  0
 10 11  2  0  0  0
 10 15  1  0  0  0
 11 12  1  0  0  0
 11 95  1  0  0  0
 12 13  2  0  0  0
 12 96  1  0  0  0
 13 14  1  0  0  0
 13 31  1  0  0  0
 14 15  2  0  0  0
 14 97  1  0  0  0
 15 98  1  0  0  0
 16 17  2  0  0  0
 16 21  1  0  0  0
 16 31  1  0  0  0
 17 18  1  0  0  0
 17 99  1  0  0  0
 18 19  2  0  0  0
 18100  1  0  0  0
 19 20  1  0  0  0
 19 24  1  0  0  0
 20 21  2  0  0  0
 20101  1  0  0  0
 21 23  1  0  0  0
 22 28  1  0  0  0
 22 32  2  0  0  0
 26 27  1  0  0  0
 28102  1  0  0  0
 28103  1  0  0  0
 29104  1  0  0  0
 29105  1  0  0  0
 33 34  1  0  0  0
 33 66  1  0  0  0
 33 70  2  0  0  0
 34 36  1  0  0  0
 34 59  1  0  0  0
 34106  1  0  0  0
 35 44  2  0  0  0
 35 45  1  0  0  0
 35 68  1  0  0  0
 36 56  1  0  0  0
 36107  1  0  0  0
 37 39  1  0  0  0
 37 47  1  0  0  0
 37 66  1  0  0  0
 37108  1  0  0  0
 38 43  2  0  0  0
 38 46  1  0  0  0
 38 47  1  0  0  0
 39 64  1  0  0  0
 39 67  2  0  0  0
 40 52  1  0  0  0
 40 53  2  0  0  0
 40 58  1  0  0  0
 41109  1  0  0  0
 41110  1  0  0  0
 41111  1  0  0  0
 41 48  1  0  0  0
 42 43  1  0  0  0
 42 66  1  0  0  0
 42112  1  0  0  0
 42113  1  0  0  0
 43 44  1  0  0  0
 44114  1  0  0  0
 45 46  2  0  0  0
 45115  1  0  0  0
 46116  1  0  0  0
 47117  1  0  0  0
 47118  1  0  0  0
 48 56  1  0  0  0
 48 65  1  0  0  0
 48119  1  0  0  0
 49 50  1  0  0  0
 49 53  1  0  0  0
 49 64  1  0  0  0
 49120  1  0  0  0
 50 51  1  0  0  0
 50121  1  0  0  0
 50122  1  0  0  0
 51 52  1  0  0  0
 51123  1  0  0  0
 51124  1  0  0  0
 52125  1  0  0  0
 52126  1  0  0  0
 53 54  1  0  0  0
 54 55  2  0  0  0
 54127  1  0  0  0
 55 57  1  0  0  0
 55128  1  0  0  0
 56 69  2  0  0  0
 57 58  2  0  0  0
 57129  1  0  0  0
 58130  1  0  0  0
 59 60  1  0  0  0
 59 61  1  0  0  0
 59 62  1  0  0  0
 60131  1  0  0  0
 60132  1  0  0  0
 60133  1  0  0  0
 61134  1  0  0  0
 61135  1  0  0  0
 61136  1  0  0  0
 62137  1  0  0  0
 62138  1  0  0  0
 62139  1  0  0  0
 63 65  1  0  0  0
 63140  1  0  0  0
 63141  1  0  0  0
 63142  1  0  0  0
 64143  1  0  0  0
 65144  1  0  0  0
 68 80  1  0  0  0
 71 72  2  0  0  0
 71 84  1  0  0  0
 71145  1  0  0  0
 72 81  1  0  0  0
 72 82  1  0  0  0
 73146  1  0  0  0
 73147  1  0  0  0
 73148  1  0  0  0
 73 81  1  0  0  0
 74 81  1  0  0  0
 74149  1  0  0  0
 74150  1  0  0  0
 74151  1  0  0  0
 75 76  1  0  0  0
 75 77  1  0  0  0
 75152  1  0  0  0
 75153  1  0  0  0
 76 78  1  0  0  0
 76154  1  0  0  0
 76155  1  0  0  0
 77 80  1  0  0  0
 77156  1  0  0  0
 77157  1  0  0  0
 78 84  1  0  0  0
 78158  1  0  0  0
 78159  1  0  0  0
 79 81  1  0  0  0
 79 85  1  0  0  0
 79160  1  0  0  0
 79161  1  0  0  0
 80162  1  0  0  0
 80163  1  0  0  0
 82 83  2  0  0  0
 83 84  1  0  0  0
 85164  1  0  0  0
M  ISO  4   1 100  68 101  80 101  85 100
M  END
> <chiral flag>
0

> <version>
0

> <s_m_source_file>
/data/baiqing/PycharmProjects/Reinvent-master-3.2/result/LINK_invent/BTK/process_docking_weight1_custom_sum_contain_oxygen_bond_distance_aromatic_linkinvent_7_9_3/rearranged_h_0073.sdf

> <i_m_source_file_index>
76

> <r_mmod_Potential_Energy-OPLS-2005>
-103.939636230469

> <r_mmod_Stretch_Energy-OPLS-2005>
35.2939376831055

> <r_mmod_Bend_Energy-OPLS-2005>
100.610511779785

> <r_mmod_Torsional_Energy-OPLS-2005>
262.72998046875

> <r_mmod_Improper_Torsional_Energy-OPLS-2005>
6.11534309387207

> <r_mmod_Van_der_Waal_Energy-OPLS-2005>
124.884124755859

> <r_mmod_Electrostatic_Energy-OPLS-2005>
-444.192199707031

> <r_mmod_Solvation_Energy-OPLS-2005>
-203.960800170898

> <b_mmod_Minimization_Converged-OPLS-2005>
0

> <r_mmod_RMS_Derivative-OPLS-2005>
4.62534284591675

$$$$
76
                    3D
 Structure written by MMmdl.
161169  0  0  1  0            999 V2000
  -30.6770  -14.5975   20.6621 C   0  0  0  0  0  0
  -30.4433  -12.4161   19.4515 C   0  0  0  0  0  0
  -29.5073  -12.5472   18.2293 C   0  0  0  0  0  0
  -28.0294  -12.3720   18.6333 C   0  0  0  0  0  0
  -27.6635  -13.2090   19.8873 C   0  0  2  0  0  0
  -28.7045  -12.9598   20.9956 C   0  0  0  0  0  0
  -25.2594  -13.8147   20.5692 C   0  0  0  0  0  0
  -24.1842  -13.0410   20.9137 C   0  0  0  0  0  0
  -24.6411  -11.6881   20.8747 C   0  0  0  0  0  0
  -23.9092  -10.4254   21.0415 C   0  0  0  0  0  0
  -24.3630   -9.4158   21.9192 C   0  0  0  0  0  0
  -23.6285   -8.2215   22.0766 C   0  0  0  0  0  0
  -22.4278   -8.0269   21.3558 C   0  0  0  0  0  0
  -21.9918   -9.0248   20.4669 C   0  0  0  0  0  0
  -22.7271  -10.2107   20.3061 C   0  0  0  0  0  0
  -21.6844   -6.0721   22.5267 C   0  0  0  0  0  0
  -21.4029   -6.5636   23.8200 C   0  0  0  0  0  0
  -21.3650   -5.6794   24.9163 C   0  0  0  0  0  0
  -21.6035   -4.3059   24.7219 C   0  0  0  0  0  0
  -21.8829   -3.8144   23.4351 C   0  0  0  0  0  0
  -21.9195   -4.6952   22.3394 C   0  0  0  0  0  0
  -22.7871  -13.5223   21.1762 C   0  0  0  0  0  0
  -22.1663   -4.2139   21.0977 F   0  0  0  0  0  0
  -21.5609   -3.4542   25.7729 F   0  0  0  0  0  0
  -30.0153  -13.3961   20.4819 N   0  0  0  0  0  0
  -26.3047  -12.9324   20.3429 N   0  0  0  0  0  0
  -25.9337  -11.6475   20.5774 N   0  0  0  0  0  0
  -22.0501  -12.8255   22.0361 N   0  0  0  0  0  0
  -25.4336  -15.1863   20.4103 N   0  0  0  0  0  0
  -31.7426  -14.7666   20.0531 O   0  0  0  0  0  0
  -21.6648   -6.8873   21.4237 O   0  0  0  0  0  0
  -22.3546  -14.5506   20.6562 O   0  0  0  0  0  0
  -24.6225  -31.8636   23.2042 C   0  0  0  0  0  0
  -25.9102  -32.4801   23.8345 C   0  0  1  0  0  0
  -27.2205  -27.3361   20.1109 C   0  0  0  0  0  0
  -25.5945  -33.8601   24.2274 N   0  0  0  0  0  0
  -23.4138  -30.4913   21.5424 C   0  0  2  0  0  0
  -24.8617  -28.9472   20.1185 C   0  0  0  0  0  0
  -22.7423  -29.4680   22.4885 C   0  0  0  0  0  0
  -18.0300  -28.1432   22.8470 C   0  0  0  0  0  0
  -24.1482  -36.7287   23.2628 C   0  0  0  0  0  0
  -25.9555  -30.7985   21.3783 C   0  0  0  0  0  0
  -26.0309  -29.4269   20.7206 C   0  0  0  0  0  0
  -27.2143  -28.6302   20.7176 C   0  0  0  0  0  0
  -26.0351  -26.9205   19.4647 C   0  0  0  0  0  0
  -24.8618  -27.6934   19.4887 C   0  0  0  0  0  0
  -23.6306  -29.8270   20.1590 C   0  0  0  0  0  0
  -25.4120  -36.3089   24.0315 C   0  0  1  0  0  0
  -20.5880  -28.3725   23.1280 C   0  0  2  0  0  0
  -20.6823  -26.9466   22.5403 C   0  0  0  0  0  0
  -19.5798  -26.6419   21.5212 C   0  0  0  0  0  0
  -18.1960  -26.7976   22.1606 C   0  0  0  0  0  0
  -19.1534  -28.8891   23.2882 C   0  0  0  0  0  0
  -18.9483  -30.1498   23.8895 C   0  0  0  0  0  0
  -17.6488  -30.6631   24.0578 C   0  0  0  0  0  0
  -25.9051  -34.9464   23.5083 C   0  0  0  0  0  0
  -16.5372  -29.9130   23.6358 C   0  0  0  0  0  0
  -16.7289  -28.6552   23.0353 C   0  0  0  0  0  0
  -26.4512  -31.6605   25.0691 C   0  0  0  0  0  0
  -25.3733  -31.3796   26.1398 C   0  0  0  0  0  0
  -27.0366  -30.3020   24.6166 C   0  0  0  0  0  0
  -27.6062  -32.4313   25.7492 C   0  0  0  0  0  0
  -27.5583  -37.1805   24.8471 C   0  0  0  0  0  0
  -21.4141  -29.3075   22.3640 N   0  0  0  0  0  0
  -26.4294  -37.3791   23.9412 N   0  0  0  0  0  0
  -24.6811  -31.0664   22.0978 N   0  0  0  0  0  0
  -23.4176  -28.8238   23.2949 O   0  0  0  0  0  0
  -28.3382  -26.4913   20.1354 O   0  0  0  0  0  0
  -26.5599  -34.8942   22.4634 O   0  0  0  0  0  0
  -23.5400  -32.1420   23.7415 O   0  0  0  0  0  0
  -31.1912  -18.2383   21.0902 C   0  0  0  0  0  0
  -30.1902  -17.2349   20.9310 C   0  0  0  0  0  0
  -28.8440  -18.9090   19.9529 C   0  0  0  0  0  0
  -29.8393  -19.9118   20.1537 C   0  0  0  0  0  0
  -27.5071  -19.2193   19.3110 C   0  0  0  0  0  0
  -28.9346  -15.6942   22.4254 C   0  0  0  0  0  0
  -31.3602  -15.8146   22.7257 C   0  0  0  0  0  0
  -29.7364  -21.3933   19.6418 C   0  0  0  0  0  0
  -28.9999  -22.5039   20.4978 C   0  0  0  0  0  0
  -29.2585  -24.0294   20.1114 C   0  0  0  0  0  0
  -28.1018  -25.0611   20.4209 C   0  0  0  0  0  0
  -30.2574  -15.8121   21.6279 C   0  0  0  0  0  0
  -31.0221  -19.5412   20.7136 N   0  0  0  0  0  0
  -29.0230  -17.6010   20.3193 N   0  0  0  0  0  0
  -31.4794  -12.5525   19.1412 H   0  0  0  0  0  0
  -30.4109  -11.4032   19.8564 H   0  0  0  0  0  0
  -29.7786  -11.8149   17.4677 H   0  0  0  0  0  0
  -29.6474  -13.5281   17.7725 H   0  0  0  0  0  0
  -27.8707  -11.3128   18.8443 H   0  0  0  0  0  0
  -27.3736  -12.6224   17.7995 H   0  0  0  0  0  0
  -27.7101  -14.2618   19.6051 H   0  0  0  0  0  0
  -28.7347  -11.8906   21.2097 H   0  0  0  0  0  0
  -28.4081  -13.3720   21.9463 H   0  0  0  0  0  0
  -25.2760   -9.5593   22.4802 H   0  0  0  0  0  0
  -23.9959   -7.4585   22.7466 H   0  0  0  0  0  0
  -21.0859   -8.8779   19.8968 H   0  0  0  0  0  0
  -22.3750  -10.9652   19.6179 H   0  0  0  0  0  0
  -21.2069   -7.6154   23.9691 H   0  0  0  0  0  0
  -21.1460   -6.0543   25.9060 H   0  0  0  0  0  0
  -22.0637   -2.7608   23.2850 H   0  0  0  0  0  0
  -22.4094  -11.9941   22.4822 H   0  0  0  0  0  0
  -21.1137  -13.1343   22.2552 H   0  0  0  0  0  0
  -24.6808  -15.8523   20.5415 H   0  0  0  0  0  0
  -26.3022  -15.6198   20.1238 H   0  0  0  0  0  0
  -26.7133  -32.5495   23.1073 H   0  0  0  0  0  0
  -25.0164  -33.9753   25.0464 H   0  0  0  0  0  0
  -22.7046  -31.3098   21.3962 H   0  0  0  0  0  0
  -23.3763  -35.9609   23.3322 H   0  0  0  0  0  0
  -24.3550  -36.8875   22.2032 H   0  0  0  0  0  0
  -23.7212  -37.6487   23.6628 H   0  0  0  0  0  0
  -26.0790  -31.5658   20.6124 H   0  0  0  0  0  0
  -26.8349  -30.8458   22.0066 H   0  0  0  0  0  0
  -28.1088  -28.9860   21.2077 H   0  0  0  0  0  0
  -25.9851  -25.9895   18.9208 H   0  0  0  0  0  0
  -23.9671  -27.3183   19.0138 H   0  0  0  0  0  0
  -23.7630  -30.5999   19.4002 H   0  0  0  0  0  0
  -22.7481  -29.2664   19.8453 H   0  0  0  0  0  0
  -25.1303  -36.1950   25.0808 H   0  0  0  0  0  0
  -20.9978  -28.3346   24.1393 H   0  0  0  0  0  0
  -20.5796  -26.2323   23.3588 H   0  0  0  0  0  0
  -21.6695  -26.7588   22.1145 H   0  0  0  0  0  0
  -19.6985  -25.6321   21.1260 H   0  0  0  0  0  0
  -19.6768  -27.3211   20.6720 H   0  0  0  0  0  0
  -17.4246  -26.6708   21.3996 H   0  0  0  0  0  0
  -18.0388  -26.0120   22.9002 H   0  0  0  0  0  0
  -19.7966  -30.7309   24.2243 H   0  0  0  0  0  0
  -17.5072  -31.6306   24.5182 H   0  0  0  0  0  0
  -15.5389  -30.3062   23.7707 H   0  0  0  0  0  0
  -15.8670  -28.0907   22.7074 H   0  0  0  0  0  0
  -24.5874  -30.7184   25.7752 H   0  0  0  0  0  0
  -24.8978  -32.3000   26.4791 H   0  0  0  0  0  0
  -25.8020  -30.8993   27.0190 H   0  0  0  0  0  0
  -26.2970  -29.6766   24.1132 H   0  0  0  0  0  0
  -27.3993  -29.7287   25.4709 H   0  0  0  0  0  0
  -27.8872  -30.4298   23.9458 H   0  0  0  0  0  0
  -27.2656  -33.3592   26.2108 H   0  0  0  0  0  0
  -28.3902  -32.6892   25.0359 H   0  0  0  0  0  0
  -28.0683  -31.8386   26.5395 H   0  0  0  0  0  0
  -28.2620  -38.0082   24.7527 H   0  0  0  0  0  0
  -28.1054  -36.2614   24.6312 H   0  0  0  0  0  0
  -27.2276  -37.1472   25.8863 H   0  0  0  0  0  0
  -20.9313  -29.8733   21.6805 H   0  0  0  0  0  0
  -26.0180  -38.2869   24.1445 H   0  0  0  0  0  0
  -32.1300  -18.0286   21.5783 H   0  0  0  0  0  0
  -26.7363  -18.5419   19.6782 H   0  0  0  0  0  0
  -27.5757  -19.0931   18.2309 H   0  0  0  0  0  0
  -27.1756  -20.2349   19.5233 H   0  0  0  0  0  0
  -28.0779  -15.5577   21.7675 H   0  0  0  0  0  0
  -28.7421  -16.6213   22.9657 H   0  0  0  0  0  0
  -28.9474  -14.9199   23.1913 H   0  0  0  0  0  0
  -31.3490  -14.8899   23.3044 H   0  0  0  0  0  0
  -32.3664  -15.9005   22.3125 H   0  0  0  0  0  0
  -31.2303  -16.6259   23.4412 H   0  0  0  0  0  0
  -29.2930  -21.3668   18.6475 H   0  0  0  0  0  0
  -30.7574  -21.7344   19.4688 H   0  0  0  0  0  0
  -29.2875  -22.3717   21.5413 H   0  0  0  0  0  0
  -27.9262  -22.3116   20.4624 H   0  0  0  0  0  0
  -29.4993  -24.0957   19.0482 H   0  0  0  0  0  0
  -30.1629  -24.3622   20.6211 H   0  0  0  0  0  0
  -27.8380  -24.9830   21.4773 H   0  0  0  0  0  0
  -27.2302  -24.6839   19.8906 H   0  0  0  0  0  0
  1 25  1  0  0  0
  1 30  2  0  0  0
  1 82  1  0  0  0
  2  3  1  0  0  0
  2 25  1  0  0  0
  2 85  1  0  0  0
  2 86  1  0  0  0
  3  4  1  0  0  0
  3 87  1  0  0  0
  3 88  1  0  0  0
  4  5  1  0  0  0
  4 89  1  0  0  0
  4 90  1  0  0  0
  5  6  1  0  0  0
  5 26  1  0  0  0
  5 91  1  0  0  0
  6 25  1  0  0  0
  6 92  1  0  0  0
  6 93  1  0  0  0
  7  8  2  0  0  0
  7 26  1  0  0  0
  7 29  1  0  0  0
  8  9  1  0  0  0
  8 22  1  0  0  0
  9 10  1  0  0  0
  9 27  2  0  0  0
 10 11  2  0  0  0
 10 15  1  0  0  0
 11 12  1  0  0  0
 11 94  1  0  0  0
 12 13  2  0  0  0
 12 95  1  0  0  0
 13 14  1  0  0  0
 13 31  1  0  0  0
 14 15  2  0  0  0
 14 96  1  0  0  0
 15 97  1  0  0  0
 16 17  2  0  0  0
 16 21  1  0  0  0
 16 31  1  0  0  0
 17 18  1  0  0  0
 17 98  1  0  0  0
 18 19  2  0  0  0
 18 99  1  0  0  0
 19 20  1  0  0  0
 19 24  1  0  0  0
 20 21  2  0  0  0
 20100  1  0  0  0
 21 23  1  0  0  0
 22 28  1  0  0  0
 22 32  2  0  0  0
 26 27  1  0  0  0
 28101  1  0  0  0
 28102  1  0  0  0
 29103  1  0  0  0
 29104  1  0  0  0
 33 34  1  0  0  0
 33 66  1  0  0  0
 33 70  2  0  0  0
 34 36  1  0  0  0
 34 59  1  0  0  0
 34105  1  0  0  0
 35 44  2  0  0  0
 35 45  1  0  0  0
 35 68  1  0  0  0
 36 56  1  0  0  0
 36106  1  0  0  0
 37 39  1  0  0  0
 37 47  1  0  0  0
 37 66  1  0  0  0
 37107  1  0  0  0
 38 43  2  0  0  0
 38 46  1  0  0  0
 38 47  1  0  0  0
 39 64  1  0  0  0
 39 67  2  0  0  0
 40 52  1  0  0  0
 40 53  2  0  0  0
 40 58  1  0  0  0
 41108  1  0  0  0
 41109  1  0  0  0
 41110  1  0  0  0
 41 48  1  0  0  0
 42 43  1  0  0  0
 42 66  1  0  0  0
 42111  1  0  0  0
 42112  1  0  0  0
 43 44  1  0  0  0
 44113  1  0  0  0
 45 46  2  0  0  0
 45114  1  0  0  0
 46115  1  0  0  0
 47116  1  0  0  0
 47117  1  0  0  0
 48 56  1  0  0  0
 48 65  1  0  0  0
 48118  1  0  0  0
 49 50  1  0  0  0
 49 53  1  0  0  0
 49 64  1  0  0  0
 49119  1  0  0  0
 50 51  1  0  0  0
 50120  1  0  0  0
 50121  1  0  0  0
 51 52  1  0  0  0
 51122  1  0  0  0
 51123  1  0  0  0
 52124  1  0  0  0
 52125  1  0  0  0
 53 54  1  0  0  0
 54 55  2  0  0  0
 54126  1  0  0  0
 55 57  1  0  0  0
 55127  1  0  0  0
 56 69  2  0  0  0
 57 58  2  0  0  0
 57128  1  0  0  0
 58129  1  0  0  0
 59 60  1  0  0  0
 59 61  1  0  0  0
 59 62  1  0  0  0
 60130  1  0  0  0
 60131  1  0  0  0
 60132  1  0  0  0
 61133  1  0  0  0
 61134  1  0  0  0
 61135  1  0  0  0
 62136  1  0  0  0
 62137  1  0  0  0
 62138  1  0  0  0
 63 65  1  0  0  0
 63139  1  0  0  0
 63140  1  0  0  0
 63141  1  0  0  0
 64142  1  0  0  0
 65143  1  0  0  0
 68 81  1  0  0  0
 71 72  2  0  0  0
 71 83  1  0  0  0
 71144  1  0  0  0
 72 82  1  0  0  0
 72 84  1  0  0  0
 73 74  1  0  0  0
 73 75  1  0  0  0
 73 84  2  0  0  0
 74 78  1  0  0  0
 74 83  2  0  0  0
 75145  1  0  0  0
 75146  1  0  0  0
 75147  1  0  0  0
 76148  1  0  0  0
 76149  1  0  0  0
 76150  1  0  0  0
 76 82  1  0  0  0
 77 82  1  0  0  0
 77151  1  0  0  0
 77152  1  0  0  0
 77153  1  0  0  0
 78 79  1  0  0  0
 78154  1  0  0  0
 78155  1  0  0  0
 79 80  1  0  0  0
 79156  1  0  0  0
 79157  1  0  0  0
 80 81  1  0  0  0
 80158  1  0  0  0
 80159  1  0  0  0
 81160  1  0  0  0
 81161  1  0  0  0
M  ISO  4   1 100  68 101  81 101  82 100
M  END
> <chiral flag>
0

> <version>
0

> <s_m_source_file>
/data/baiqing/PycharmProjects/Reinvent-master-3.2/result/LINK_invent/BTK/process_docking_weight1_custom_sum_contain_oxygen_bond_distance_aromatic_linkinvent_7_9_3/rearranged_h_0073.sdf

> <i_m_source_file_index>
77

> <r_mmod_Potential_Energy-OPLS-2005>
211.01123046875

> <r_mmod_Stretch_Energy-OPLS-2005>
89.009521484375

> <r_mmod_Bend_Energy-OPLS-2005>
166.080993652344

> <r_mmod_Torsional_Energy-OPLS-2005>
195.997665405273

> <r_mmod_Improper_Torsional_Energy-OPLS-2005>
3.07015943527222

> <r_mmod_Van_der_Waal_Energy-OPLS-2005>
165.080383300781

> <r_mmod_Electrostatic_Energy-OPLS-2005>
-251.729965209961

> <r_mmod_Solvation_Energy-OPLS-2005>
-193.029678344727

> <b_mmod_Minimization_Converged-OPLS-2005>
0

> <r_mmod_RMS_Derivative-OPLS-2005>
4.16039037704468

$$$$
77
                    3D
 Structure written by MMmdl.
164172  0  0  1  0            999 V2000
  -30.6639  -14.6988   20.5107 C   0  0  0  0  0  0
  -30.4296  -12.4371   19.4675 C   0  0  0  0  0  0
  -29.5056  -12.5277   18.2317 C   0  0  0  0  0  0
  -28.0259  -12.3637   18.6354 C   0  0  0  0  0  0
  -27.6493  -13.2225   19.8722 C   0  0  2  0  0  0
  -28.7014  -13.0689   20.9906 C   0  0  0  0  0  0
  -25.2511  -13.8162   20.5681 C   0  0  0  0  0  0
  -24.1786  -13.0415   20.9189 C   0  0  0  0  0  0
  -24.6376  -11.6891   20.8745 C   0  0  0  0  0  0
  -23.9052  -10.4274   21.0391 C   0  0  0  0  0  0
  -24.3601   -9.4189   21.9161 C   0  0  0  0  0  0
  -23.6284   -8.2212   22.0733 C   0  0  0  0  0  0
  -22.4254   -8.0272   21.3525 C   0  0  0  0  0  0
  -21.9885   -9.0245   20.4618 C   0  0  0  0  0  0
  -22.7225  -10.2119   20.3041 C   0  0  0  0  0  0
  -21.6820   -6.0734   22.5261 C   0  0  0  0  0  0
  -21.4012   -6.5645   23.8205 C   0  0  0  0  0  0
  -21.3652   -5.6795   24.9166 C   0  0  0  0  0  0
  -21.6044   -4.3053   24.7214 C   0  0  0  0  0  0
  -21.8818   -3.8151   23.4337 C   0  0  0  0  0  0
  -21.9178   -4.6967   22.3386 C   0  0  0  0  0  0
  -22.7814  -13.5200   21.1858 C   0  0  0  0  0  0
  -22.1650   -4.2153   21.0968 F   0  0  0  0  0  0
  -21.5640   -3.4548   25.7726 F   0  0  0  0  0  0
  -30.0032  -13.4795   20.4384 N   0  0  0  0  0  0
  -26.2972  -12.9350   20.3409 N   0  0  0  0  0  0
  -25.9315  -11.6498   20.5808 N   0  0  0  0  0  0
  -22.0484  -12.8191   22.0438 N   0  0  0  0  0  0
  -25.4202  -15.1865   20.4025 N   0  0  0  0  0  0
  -31.8015  -14.7423   20.0329 O   0  0  0  0  0  0
  -21.6600   -6.8881   21.4226 O   0  0  0  0  0  0
  -22.3478  -14.5500   20.6733 O   0  0  0  0  0  0
  -24.6285  -31.8603   23.2003 C   0  0  0  0  0  0
  -25.9120  -32.4792   23.8354 C   0  0  1  0  0  0
  -27.2307  -27.3057   20.0978 C   0  0  0  0  0  0
  -25.5926  -33.8589   24.2264 N   0  0  0  0  0  0
  -23.4236  -30.4824   21.5463 C   0  0  2  0  0  0
  -24.8683  -28.9353   20.1122 C   0  0  0  0  0  0
  -22.7488  -29.4612   22.4943 C   0  0  0  0  0  0
  -18.0292  -28.1357   22.8486 C   0  0  0  0  0  0
  -24.1487  -36.7300   23.2637 C   0  0  0  0  0  0
  -25.9676  -30.7848   21.3726 C   0  0  0  0  0  0
  -26.0421  -29.4111   20.7110 C   0  0  0  0  0  0
  -27.2264  -28.6104   20.6894 C   0  0  0  0  0  0
  -26.0250  -26.8851   19.4886 C   0  0  0  0  0  0
  -24.8619  -27.6766   19.4956 C   0  0  0  0  0  0
  -23.6372  -29.8180   20.1627 C   0  0  0  0  0  0
  -25.4117  -36.3093   24.0320 C   0  0  1  0  0  0
  -20.5896  -28.3661   23.1272 C   0  0  2  0  0  0
  -20.6762  -26.9381   22.5400 C   0  0  0  0  0  0
  -19.5734  -26.6354   21.5203 C   0  0  0  0  0  0
  -18.1917  -26.7897   22.1628 C   0  0  0  0  0  0
  -19.1550  -28.8826   23.2869 C   0  0  0  0  0  0
  -18.9468  -30.1431   23.8875 C   0  0  0  0  0  0
  -17.6468  -30.6561   24.0551 C   0  0  0  0  0  0
  -25.9061  -34.9464   23.5096 C   0  0  0  0  0  0
  -16.5359  -29.9063   23.6317 C   0  0  0  0  0  0
  -16.7281  -28.6482   23.0338 C   0  0  0  0  0  0
  -26.4481  -31.6606   25.0737 C   0  0  0  0  0  0
  -25.3697  -31.3759   26.1463 C   0  0  0  0  0  0
  -27.0294  -30.3018   24.6191 C   0  0  0  0  0  0
  -27.6043  -32.4341   25.7506 C   0  0  0  0  0  0
  -27.5584  -37.1812   24.8464 C   0  0  0  0  0  0
  -21.4201  -29.3034   22.3691 N   0  0  0  0  0  0
  -26.4290  -37.3788   23.9413 N   0  0  0  0  0  0
  -24.6929  -31.0586   22.0964 N   0  0  0  0  0  0
  -23.4203  -28.8139   23.3017 O   0  0  0  0  0  0
  -28.3526  -26.4502   20.1224 O   0  0  0  0  0  0
  -26.5632  -34.8927   22.4665 O   0  0  0  0  0  0
  -23.5446  -32.1426   23.7309 O   0  0  0  0  0  0
  -31.8088  -19.0689   20.2268 C   0  0  0  0  0  0
  -30.4245  -18.7967   20.1708 C   0  0  0  0  0  0
  -31.4468  -21.3664   20.2517 C   0  0  0  0  0  0
  -30.0311  -21.1820   20.1695 C   0  0  0  0  0  0
  -32.1561  -22.7101   20.2613 C   0  0  0  0  0  0
  -28.6000  -17.2481   19.2161 C   0  0  0  0  0  0
  -28.8674  -16.0604   21.9395 C   0  0  0  0  0  0
  -31.2311  -16.5821   22.0958 C   0  0  0  0  0  0
  -28.9749  -22.3635   20.0117 C   0  0  0  0  0  0
  -29.3203  -23.9353   20.1462 C   0  0  0  0  0  0
  -28.1318  -24.9864   19.9669 C   0  0  0  0  0  0
  -29.9580  -17.2923   19.9483 C   0  0  2  0  0  0
  -30.1472  -16.1300   21.0829 C   0  0  0  0  0  0
  -32.3102  -20.3207   20.2929 N   0  0  0  0  0  0
  -29.5423  -19.8746   20.1590 N   0  0  0  0  0  0
  -31.4711  -12.5349   19.1575 H   0  0  0  0  0  0
  -30.3709  -11.4435   19.9149 H   0  0  0  0  0  0
  -29.7777  -11.7675   17.4980 H   0  0  0  0  0  0
  -29.6475  -13.4915   17.7392 H   0  0  0  0  0  0
  -27.8546  -11.3081   18.8507 H   0  0  0  0  0  0
  -27.3768  -12.6145   17.7953 H   0  0  0  0  0  0
  -27.6641  -14.2580   19.5418 H   0  0  0  0  0  0
  -28.7418  -12.0269   21.3112 H   0  0  0  0  0  0
  -28.4216  -13.5915   21.8974 H   0  0  0  0  0  0
  -25.2746   -9.5670   22.4721 H   0  0  0  0  0  0
  -24.0002   -7.4603   22.7460 H   0  0  0  0  0  0
  -21.0817   -8.8787   19.8903 H   0  0  0  0  0  0
  -22.3720  -10.9671   19.6151 H   0  0  0  0  0  0
  -21.2010   -7.6146   23.9711 H   0  0  0  0  0  0
  -21.1484   -6.0527   25.9071 H   0  0  0  0  0  0
  -22.0596   -2.7610   23.2838 H   0  0  0  0  0  0
  -22.4125  -11.9854   22.4818 H   0  0  0  0  0  0
  -21.1095  -13.1208   22.2605 H   0  0  0  0  0  0
  -24.6597  -15.8479   20.5199 H   0  0  0  0  0  0
  -26.2785  -15.6253   20.0917 H   0  0  0  0  0  0
  -26.7188  -32.5436   23.1108 H   0  0  0  0  0  0
  -25.0065  -33.9742   25.0408 H   0  0  0  0  0  0
  -22.7179  -31.3025   21.4033 H   0  0  0  0  0  0
  -23.3756  -35.9628   23.3301 H   0  0  0  0  0  0
  -24.3577  -36.8932   22.2053 H   0  0  0  0  0  0
  -23.7234  -37.6494   23.6670 H   0  0  0  0  0  0
  -26.1031  -31.5483   20.6057 H   0  0  0  0  0  0
  -26.8457  -30.8321   22.0051 H   0  0  0  0  0  0
  -28.1293  -28.9785   21.1556 H   0  0  0  0  0  0
  -25.9427  -25.9253   19.0022 H   0  0  0  0  0  0
  -23.9630  -27.3016   19.0271 H   0  0  0  0  0  0
  -23.7581  -30.5979   19.4089 H   0  0  0  0  0  0
  -22.7549  -29.2521   19.8568 H   0  0  0  0  0  0
  -25.1302  -36.1954   25.0808 H   0  0  0  0  0  0
  -20.9988  -28.3216   24.1395 H   0  0  0  0  0  0
  -20.5627  -26.2274   23.3607 H   0  0  0  0  0  0
  -21.6626  -26.7365   22.1218 H   0  0  0  0  0  0
  -19.6889  -25.6263   21.1233 H   0  0  0  0  0  0
  -19.6663  -27.3155   20.6724 H   0  0  0  0  0  0
  -17.4186  -26.6633   21.4037 H   0  0  0  0  0  0
  -18.0330  -26.0039   22.9021 H   0  0  0  0  0  0
  -19.7941  -30.7252   24.2223 H   0  0  0  0  0  0
  -17.5021  -31.6243   24.5151 H   0  0  0  0  0  0
  -15.5358  -30.2955   23.7640 H   0  0  0  0  0  0
  -15.8684  -28.0798   22.7044 H   0  0  0  0  0  0
  -24.5856  -30.7134   25.7797 H   0  0  0  0  0  0
  -24.8904  -32.2923   26.4906 H   0  0  0  0  0  0
  -25.8005  -30.8924   27.0235 H   0  0  0  0  0  0
  -26.2850  -29.6814   24.1185 H   0  0  0  0  0  0
  -27.3944  -29.7252   25.4698 H   0  0  0  0  0  0
  -27.8751  -30.4300   23.9433 H   0  0  0  0  0  0
  -27.2661  -33.3656   26.2061 H   0  0  0  0  0  0
  -28.3858  -32.6881   25.0330 H   0  0  0  0  0  0
  -28.0701  -31.8476   26.5444 H   0  0  0  0  0  0
  -28.2600  -38.0108   24.7513 H   0  0  0  0  0  0
  -28.1075  -36.2642   24.6285 H   0  0  0  0  0  0
  -27.2301  -37.1458   25.8863 H   0  0  0  0  0  0
  -20.9378  -29.8833   21.6972 H   0  0  0  0  0  0
  -26.0179  -38.2865   24.1410 H   0  0  0  0  0  0
  -32.5385  -18.2763   20.1775 H   0  0  0  0  0  0
  -32.0568  -23.2039   19.2943 H   0  0  0  0  0  0
  -33.2272  -22.5960   20.4455 H   0  0  0  0  0  0
  -31.7829  -23.3548   21.0531 H   0  0  0  0  0  0
  -28.6123  -17.8772   18.3264 H   0  0  0  0  0  0
  -27.7928  -17.6137   19.8537 H   0  0  0  0  0  0
  -28.3474  -16.2418   18.8874 H   0  0  0  0  0  0
  -28.6136  -17.0483   22.3256 H   0  0  0  0  0  0
  -29.0039  -15.4237   22.8146 H   0  0  0  0  0  0
  -27.9975  -15.7181   21.3857 H   0  0  0  0  0  0
  -31.3458  -15.8621   22.9082 H   0  0  0  0  0  0
  -30.9887  -17.5388   22.5590 H   0  0  0  0  0  0
  -32.2148  -16.6821   21.6369 H   0  0  0  0  0  0
  -28.1786  -22.1505   20.7231 H   0  0  0  0  0  0
  -28.5185  -22.2233   19.0284 H   0  0  0  0  0  0
  -30.0694  -24.1982   19.4002 H   0  0  0  0  0  0
  -29.7596  -24.1194   21.1242 H   0  0  0  0  0  0
  -27.3499  -24.7040   20.6753 H   0  0  0  0  0  0
  -27.7274  -24.8016   18.9729 H   0  0  0  0  0  0
  -30.6543  -16.9856   19.1670 H   0  0  0  0  0  0
  1 25  1  0  0  0
  1 30  2  0  0  0
  1 83  1  0  0  0
  2  3  1  0  0  0
  2 25  1  0  0  0
  2 86  1  0  0  0
  2 87  1  0  0  0
  3  4  1  0  0  0
  3 88  1  0  0  0
  3 89  1  0  0  0
  4  5  1  0  0  0
  4 90  1  0  0  0
  4 91  1  0  0  0
  5  6  1  0  0  0
  5 26  1  0  0  0
  5 92  1  0  0  0
  6 25  1  0  0  0
  6 93  1  0  0  0
  6 94  1  0  0  0
  7  8  2  0  0  0
  7 26  1  0  0  0
  7 29  1  0  0  0
  8  9  1  0  0  0
  8 22  1  0  0  0
  9 10  1  0  0  0
  9 27  2  0  0  0
 10 11  2  0  0  0
 10 15  1  0  0  0
 11 12  1  0  0  0
 11 95  1  0  0  0
 12 13  2  0  0  0
 12 96  1  0  0  0
 13 14  1  0  0  0
 13 31  1  0  0  0
 14 15  2  0  0  0
 14 97  1  0  0  0
 15 98  1  0  0  0
 16 17  2  0  0  0
 16 21  1  0  0  0
 16 31  1  0  0  0
 17 18  1  0  0  0
 17 99  1  0  0  0
 18 19  2  0  0  0
 18100  1  0  0  0
 19 20  1  0  0  0
 19 24  1  0  0  0
 20 21  2  0  0  0
 20101  1  0  0  0
 21 23  1  0  0  0
 22 28  1  0  0  0
 22 32  2  0  0  0
 26 27  1  0  0  0
 28102  1  0  0  0
 28103  1  0  0  0
 29104  1  0  0  0
 29105  1  0  0  0
 33 34  1  0  0  0
 33 66  1  0  0  0
 33 70  2  0  0  0
 34 36  1  0  0  0
 34 59  1  0  0  0
 34106  1  0  0  0
 35 44  2  0  0  0
 35 45  1  0  0  0
 35 68  1  0  0  0
 36 56  1  0  0  0
 36107  1  0  0  0
 37 39  1  0  0  0
 37 47  1  0  0  0
 37 66  1  0  0  0
 37108  1  0  0  0
 38 43  2  0  0  0
 38 46  1  0  0  0
 38 47  1  0  0  0
 39 64  1  0  0  0
 39 67  2  0  0  0
 40 52  1  0  0  0
 40 53  2  0  0  0
 40 58  1  0  0  0
 41109  1  0  0  0
 41110  1  0  0  0
 41111  1  0  0  0
 41 48  1  0  0  0
 42 43  1  0  0  0
 42 66  1  0  0  0
 42112  1  0  0  0
 42113  1  0  0  0
 43 44  1  0  0  0
 44114  1  0  0  0
 45 46  2  0  0  0
 45115  1  0  0  0
 46116  1  0  0  0
 47117  1  0  0  0
 47118  1  0  0  0
 48 56  1  0  0  0
 48 65  1  0  0  0
 48119  1  0  0  0
 49 50  1  0  0  0
 49 53  1  0  0  0
 49 64  1  0  0  0
 49120  1  0  0  0
 50 51  1  0  0  0
 50121  1  0  0  0
 50122  1  0  0  0
 51 52  1  0  0  0
 51123  1  0  0  0
 51124  1  0  0  0
 52125  1  0  0  0
 52126  1  0  0  0
 53 54  1  0  0  0
 54 55  2  0  0  0
 54127  1  0  0  0
 55 57  1  0  0  0
 55128  1  0  0  0
 56 69  2  0  0  0
 57 58  2  0  0  0
 57129  1  0  0  0
 58130  1  0  0  0
 59 60  1  0  0  0
 59 61  1  0  0  0
 59 62  1  0  0  0
 60131  1  0  0  0
 60132  1  0  0  0
 60133  1  0  0  0
 61134  1  0  0  0
 61135  1  0  0  0
 61136  1  0  0  0
 62137  1  0  0  0
 62138  1  0  0  0
 62139  1  0  0  0
 63 65  1  0  0  0
 63140  1  0  0  0
 63141  1  0  0  0
 63142  1  0  0  0
 64143  1  0  0  0
 65144  1  0  0  0
 68 81  1  0  0  0
 71 72  2  0  0  0
 71 84  1  0  0  0
 71145  1  0  0  0
 72 82  1  0  0  0
 72 85  1  0  0  0
 73 74  1  0  0  0
 73 75  1  0  0  0
 73 84  2  0  0  0
 74 79  1  0  0  0
 74 85  2  0  0  0
 75146  1  0  0  0
 75147  1  0  0  0
 75148  1  0  0  0
 76149  1  0  0  0
 76150  1  0  0  0
 76151  1  0  0  0
 76 82  1  0  0  0
 77152  1  0  0  0
 77153  1  0  0  0
 77154  1  0  0  0
 77 83  1  0  0  0
 78 83  1  0  0  0
 78155  1  0  0  0
 78156  1  0  0  0
 78157  1  0  0  0
 79 80  1  0  0  0
 79158  1  0  0  0
 79159  1  0  0  0
 80 81  1  0  0  0
 80160  1  0  0  0
 80161  1  0  0  0
 81162  1  0  0  0
 81163  1  0  0  0
 82 83  1  0  0  0
 82164  1  0  0  0
M  ISO  4   1 100  68 101  81 101  83 100
M  END
> <chiral flag>
0

> <version>
0

> <s_m_source_file>
/data/baiqing/PycharmProjects/Reinvent-master-3.2/result/LINK_invent/BTK/process_docking_weight1_custom_sum_contain_oxygen_bond_distance_aromatic_linkinvent_7_9_3/rearranged_h_0073.sdf

> <i_m_source_file_index>
78

> <r_mmod_Potential_Energy-OPLS-2005>
259.138763427734

> <r_mmod_Stretch_Energy-OPLS-2005>
126.802803039551

> <r_mmod_Bend_Energy-OPLS-2005>
205.511032104492

> <r_mmod_Torsional_Energy-OPLS-2005>
186.765487670898

> <r_mmod_Improper_Torsional_Energy-OPLS-2005>
2.6129994392395

> <r_mmod_Van_der_Waal_Energy-OPLS-2005>
164.694198608398

> <r_mmod_Electrostatic_Energy-OPLS-2005>
-285.542785644531

> <r_mmod_Solvation_Energy-OPLS-2005>
-197.670135498047

> <b_mmod_Minimization_Converged-OPLS-2005>
0

> <r_mmod_RMS_Derivative-OPLS-2005>
3.62162327766418

$$$$
78
                    3D
 Structure written by MMmdl.
170178  0  0  1  0            999 V2000
  -29.2078  -15.7881   20.6372 C   0  0  0  0  0  0
  -30.2186  -13.3545   19.6913 C   0  0  0  0  0  0
  -29.5017  -12.7577   18.4219 C   0  0  0  0  0  0
  -28.0869  -12.2637   18.7660 C   0  0  0  0  0  0
  -27.4699  -13.2163   19.8057 C   0  0  2  0  0  0
  -28.3334  -13.4053   21.0422 C   0  0  0  0  0  0
  -25.1711  -13.8004   20.5551 C   0  0  0  0  0  0
  -24.1198  -13.0284   20.9328 C   0  0  0  0  0  0
  -24.5819  -11.6748   20.8822 C   0  0  0  0  0  0
  -23.8676  -10.4161   21.0507 C   0  0  0  0  0  0
  -24.3390   -9.4118   21.9231 C   0  0  0  0  0  0
  -23.6161   -8.2112   22.0755 C   0  0  0  0  0  0
  -22.4148   -8.0132   21.3538 C   0  0  0  0  0  0
  -21.9704   -9.0061   20.4638 C   0  0  0  0  0  0
  -22.6926  -10.1976   20.3080 C   0  0  0  0  0  0
  -21.6805   -6.0631   22.5283 C   0  0  0  0  0  0
  -21.3974   -6.5573   23.8204 C   0  0  0  0  0  0
  -21.3661   -5.6755   24.9190 C   0  0  0  0  0  0
  -21.6048   -4.3016   24.7259 C   0  0  0  0  0  0
  -21.8825   -3.8077   23.4394 C   0  0  0  0  0  0
  -21.9168   -4.6868   22.3431 C   0  0  0  0  0  0
  -22.7341  -13.5150   21.2091 C   0  0  0  0  0  0
  -22.1646   -4.2053   21.1014 F   0  0  0  0  0  0
  -21.5647   -3.4519   25.7791 F   0  0  0  0  0  0
  -29.3033  -14.3140   20.5294 N   0  0  0  0  0  0
  -26.1675  -12.9002   20.2518 N   0  0  0  0  0  0
  -25.8555  -11.6227   20.5357 N   0  0  0  0  0  0
  -22.0035  -12.8145   22.0665 N   0  0  0  0  0  0
  -25.3630  -15.1734   20.4068 N   0  0  0  0  0  0
  -30.4097  -16.0765   20.3158 O   0  0  0  0  0  0
  -21.6559   -6.8716   21.4221 O   0  0  0  0  0  0
  -22.3124  -14.5497   20.6920 O   0  0  0  0  0  0
  -24.6142  -31.8885   23.2413 C   0  0  0  0  0  0
  -25.9097  -32.4912   23.8655 C   0  0  1  0  0  0
  -27.1423  -27.4935   19.9558 C   0  0  0  0  0  0
  -25.5978  -33.8723   24.2514 N   0  0  0  0  0  0
  -23.4140  -30.5202   21.5800 C   0  0  2  0  0  0
  -24.8857  -29.1569   20.0227 C   0  0  0  0  0  0
  -22.8382  -29.4080   22.4809 C   0  0  0  0  0  0
  -18.5115  -27.5023   22.7105 C   0  0  0  0  0  0
  -24.1480  -36.7354   23.2623 C   0  0  0  0  0  0
  -25.9618  -30.8173   21.4715 C   0  0  0  0  0  0
  -26.0140  -29.4902   20.7717 C   0  0  0  0  0  0
  -27.1491  -28.6320   20.7977 C   0  0  0  0  0  0
  -26.1674  -27.4416   18.9606 C   0  0  0  0  0  0
  -25.0155  -28.1994   19.0383 C   0  0  0  0  0  0
  -23.6262  -29.9701   20.1508 C   0  0  0  0  0  0
  -25.4098  -36.3191   24.0349 C   0  0  1  0  0  0
  -20.8754  -28.0368   23.0916 C   0  0  2  0  0  0
  -21.3564  -26.4655   22.8819 C   0  0  0  0  0  0
  -20.8420  -25.2459   21.8999 C   0  0  0  0  0  0
  -19.0966  -25.9746   22.1007 C   0  0  0  0  0  0
  -19.4255  -28.4546   23.2028 C   0  0  0  0  0  0
  -19.0784  -29.7521   23.7476 C   0  0  0  0  0  0
  -17.7492  -30.2035   23.8492 C   0  0  0  0  0  0
  -25.9036  -34.9528   23.5205 C   0  0  0  0  0  0
  -16.7662  -29.3157   23.3782 C   0  0  0  0  0  0
  -17.1386  -28.0266   22.8329 C   0  0  0  0  0  0
  -26.4501  -31.6663   25.0974 C   0  0  0  0  0  0
  -25.3711  -31.3772   26.1652 C   0  0  0  0  0  0
  -27.0336  -30.3059   24.6480 C   0  0  0  0  0  0
  -27.6071  -32.4377   25.7706 C   0  0  0  0  0  0
  -27.5586  -37.1841   24.8465 C   0  0  0  0  0  0
  -21.5657  -29.0447   22.2884 N   0  0  0  0  0  0
  -26.4306  -37.3850   23.9405 N   0  0  0  0  0  0
  -24.6751  -31.0983   22.1406 N   0  0  0  0  0  0
  -23.5355  -28.8611   23.3346 O   0  0  0  0  0  0
  -27.9511  -26.3907   20.0683 O   0  0  0  0  0  0
  -26.5552  -34.8924   22.4740 O   0  0  0  0  0  0
  -23.5295  -32.1677   23.7706 O   0  0  0  0  0  0
  -23.1281  -24.4555   21.6673 C   0  0  0  0  0  0
  -22.5655  -22.8427   21.9583 C   0  0  0  0  0  0
  -21.1031  -26.6768   17.6969 C   0  0  0  0  0  0
  -24.7148  -18.8922   22.7895 C   0  0  0  0  0  0
  -26.3867  -20.6990   22.4819 C   0  0  0  0  0  0
  -23.8026  -21.2403   21.4285 C   0  0  0  0  0  0
  -22.3483  -25.7752   17.7519 C   0  0  0  0  0  0
  -25.6937  -24.9392   20.0526 C   0  0  0  0  0  0
  -24.5076  -24.9490   18.9550 C   0  0  0  0  0  0
  -26.8150  -18.4157   20.8718 C   0  0  0  0  0  0
  -27.2485  -25.1379   19.6730 C   0  0  0  0  0  0
  -23.1268  -25.7895   19.0892 C   0  0  2  0  0  0
  -25.3866  -19.7968   21.7461 C   0  0  0  0  0  0
  -20.7649  -22.9627   21.2260 N   0  0  0  0  0  0
  -20.5971  -24.2915   19.8965 N   0  0  0  0  0  0
  -22.3011  -25.3764   20.1922 N   0  0  0  0  0  0
  -27.8804  -16.7727   20.9670 N   0  0  0  0  0  0
  -31.1092  -13.8950   19.3674 H   0  0  0  0  0  0
  -30.6023  -12.5473   20.3150 H   0  0  0  0  0  0
  -30.0940  -11.9610   17.9726 H   0  0  0  0  0  0
  -29.4191  -13.5393   17.6646 H   0  0  0  0  0  0
  -28.1533  -11.2593   19.1829 H   0  0  0  0  0  0
  -27.4673  -12.1960   17.8711 H   0  0  0  0  0  0
  -27.3484  -14.1526   19.2590 H   0  0  0  0  0  0
  -28.7280  -12.4652   21.4331 H   0  0  0  0  0  0
  -27.7893  -13.8814   21.8606 H   0  0  0  0  0  0
  -25.2510   -9.5662   22.4816 H   0  0  0  0  0  0
  -23.9893   -7.4489   22.7450 H   0  0  0  0  0  0
  -21.0646   -8.8505   19.8945 H   0  0  0  0  0  0
  -22.3334  -10.9515   19.6215 H   0  0  0  0  0  0
  -21.1959   -7.6081   23.9681 H   0  0  0  0  0  0
  -21.1494   -6.0502   25.9093 H   0  0  0  0  0  0
  -22.0614   -2.7533   23.2931 H   0  0  0  0  0  0
  -22.3610  -11.9736   22.4945 H   0  0  0  0  0  0
  -21.0693  -13.1196   22.2990 H   0  0  0  0  0  0
  -24.5688  -15.7928   20.5214 H   0  0  0  0  0  0
  -25.9965  -15.5023   19.6888 H   0  0  0  0  0  0
  -26.7188  -32.5616   23.1426 H   0  0  0  0  0  0
  -25.0150  -33.9932   25.0665 H   0  0  0  0  0  0
  -22.6591  -31.3076   21.5147 H   0  0  0  0  0  0
  -23.3748  -35.9684   23.3317 H   0  0  0  0  0  0
  -24.3568  -36.8924   22.2034 H   0  0  0  0  0  0
  -23.7228  -37.6575   23.6582 H   0  0  0  0  0  0
  -26.1506  -31.6004   20.7371 H   0  0  0  0  0  0
  -26.8223  -30.8049   22.1239 H   0  0  0  0  0  0
  -27.9631  -28.8043   21.4881 H   0  0  0  0  0  0
  -26.2522  -26.7698   18.1215 H   0  0  0  0  0  0
  -24.2731  -28.1294   18.2546 H   0  0  0  0  0  0
  -23.7037  -30.8074   19.4584 H   0  0  0  0  0  0
  -22.7693  -29.3825   19.8141 H   0  0  0  0  0  0
  -25.1254  -36.2101   25.0840 H   0  0  0  0  0  0
  -21.2071  -28.2333   24.1136 H   0  0  0  0  0  0
  -22.4415  -26.5236   22.8284 H   0  0  0  0  0  0
  -21.1970  -26.0260   23.8673 H   0  0  0  0  0  0
  -22.1889  -23.6155   20.3200 H   0  0  0  0  0  0
  -20.6295  -26.1260   21.2626 H   0  0  0  0  0  0
  -18.5975  -25.8882   21.1328 H   0  0  0  0  0  0
  -18.5595  -25.2430   22.7030 H   0  0  0  0  0  0
  -19.8687  -30.4081   24.0889 H   0  0  0  0  0  0
  -17.4972  -31.1724   24.2578 H   0  0  0  0  0  0
  -15.7227  -29.5997   23.4244 H   0  0  0  0  0  0
  -16.3353  -27.3874   22.4860 H   0  0  0  0  0  0
  -24.5908  -30.7112   25.7953 H   0  0  0  0  0  0
  -24.8879  -32.2921   26.5078 H   0  0  0  0  0  0
  -25.8015  -30.8946   27.0432 H   0  0  0  0  0  0
  -26.2945  -29.6851   24.1400 H   0  0  0  0  0  0
  -27.3864  -29.7274   25.5029 H   0  0  0  0  0  0
  -27.8930  -30.4299   23.9888 H   0  0  0  0  0  0
  -27.2707  -33.3662   26.2309 H   0  0  0  0  0  0
  -28.3861  -32.6953   25.0528 H   0  0  0  0  0  0
  -28.0761  -31.8503   26.5600 H   0  0  0  0  0  0
  -28.2628  -38.0123   24.7523 H   0  0  0  0  0  0
  -28.1067  -36.2660   24.6279 H   0  0  0  0  0  0
  -27.2290  -37.1478   25.8867 H   0  0  0  0  0  0
  -21.0237  -29.5093   21.5737 H   0  0  0  0  0  0
  -26.0221  -38.2938   24.1404 H   0  0  0  0  0  0
  -24.1099  -24.7691   21.9612 H   0  0  0  0  0  0
  -20.4800  -26.4073   16.8410 H   0  0  0  0  0  0
  -21.3873  -27.7227   17.5852 H   0  0  0  0  0  0
  -20.4763  -26.6001   18.5850 H   0  0  0  0  0  0
  -25.4419  -18.2510   23.2891 H   0  0  0  0  0  0
  -23.9690  -18.2488   22.3213 H   0  0  0  0  0  0
  -24.2188  -19.4773   23.5615 H   0  0  0  0  0  0
  -27.2072  -20.1256   22.9149 H   0  0  0  0  0  0
  -25.9178  -21.2648   23.2902 H   0  0  0  0  0  0
  -26.8316  -21.4108   21.7834 H   0  0  0  0  0  0
  -24.2117  -21.6520   20.5072 H   0  0  0  0  0  0
  -23.0525  -20.5394   21.0595 H   0  0  0  0  0  0
  -23.0146  -26.0839   16.9458 H   0  0  0  0  0  0
  -22.0661  -24.7487   17.5142 H   0  0  0  0  0  0
  -25.6336  -23.9717   20.5526 H   0  0  0  0  0  0
  -25.4715  -25.6782   20.8143 H   0  0  0  0  0  0
  -24.2148  -23.9058   18.8233 H   0  0  0  0  0  0
  -24.9388  -25.1760   17.9803 H   0  0  0  0  0  0
  -27.6068  -19.1033   20.5752 H   0  0  0  0  0  0
  -26.3163  -18.2063   19.9250 H   0  0  0  0  0  0
  -27.3904  -24.9726   18.6027 H   0  0  0  0  0  0
  -27.8092  -24.3315   20.1461 H   0  0  0  0  0  0
  -23.2435  -26.8081   19.3704 H   0  0  0  0  0  0
  -27.1903  -16.0977   21.2832 H   0  0  0  0  0  0
  1 25  1  0  0  0
  1 30  2  0  0  0
  1 87  1  0  0  0
  2  3  1  0  0  0
  2 25  1  0  0  0
  2 88  1  0  0  0
  2 89  1  0  0  0
  3  4  1  0  0  0
  3 90  1  0  0  0
  3 91  1  0  0  0
  4  5  1  0  0  0
  4 92  1  0  0  0
  4 93  1  0  0  0
  5  6  1  0  0  0
  5 26  1  0  0  0
  5 94  1  0  0  0
  6 25  1  0  0  0
  6 95  1  0  0  0
  6 96  1  0  0  0
  7  8  2  0  0  0
  7 26  1  0  0  0
  7 29  1  0  0  0
  8  9  1  0  0  0
  8 22  1  0  0  0
  9 10  1  0  0  0
  9 27  2  0  0  0
 10 11  2  0  0  0
 10 15  1  0  0  0
 11 12  1  0  0  0
 11 97  1  0  0  0
 12 13  2  0  0  0
 12 98  1  0  0  0
 13 14  1  0  0  0
 13 31  1  0  0  0
 14 15  2  0  0  0
 14 99  1  0  0  0
 15100  1  0  0  0
 16 17  2  0  0  0
 16 21  1  0  0  0
 16 31  1  0  0  0
 17 18  1  0  0  0
 17101  1  0  0  0
 18 19  2  0  0  0
 18102  1  0  0  0
 19 20  1  0  0  0
 19 24  1  0  0  0
 20 21  2  0  0  0
 20103  1  0  0  0
 21 23  1  0  0  0
 22 28  1  0  0  0
 22 32  2  0  0  0
 26 27  1  0  0  0
 28104  1  0  0  0
 28105  1  0  0  0
 29106  1  0  0  0
 29107  1  0  0  0
 33 34  1  0  0  0
 33 66  1  0  0  0
 33 70  2  0  0  0
 34 36  1  0  0  0
 34 59  1  0  0  0
 34108  1  0  0  0
 35 44  2  0  0  0
 35 45  1  0  0  0
 35 68  1  0  0  0
 36 56  1  0  0  0
 36109  1  0  0  0
 37 39  1  0  0  0
 37 47  1  0  0  0
 37 66  1  0  0  0
 37110  1  0  0  0
 38 43  2  0  0  0
 38 46  1  0  0  0
 38 47  1  0  0  0
 39 64  1  0  0  0
 39 67  2  0  0  0
 40 52  1  0  0  0
 40 53  2  0  0  0
 40 58  1  0  0  0
 41111  1  0  0  0
 41112  1  0  0  0
 41113  1  0  0  0
 41 48  1  0  0  0
 42 43  1  0  0  0
 42 66  1  0  0  0
 42114  1  0  0  0
 42115  1  0  0  0
 43 44  1  0  0  0
 44116  1  0  0  0
 45 46  2  0  0  0
 45117  1  0  0  0
 46118  1  0  0  0
 47119  1  0  0  0
 47120  1  0  0  0
 48 56  1  0  0  0
 48 65  1  0  0  0
 48121  1  0  0  0
 49 50  1  0  0  0
 49 53  1  0  0  0
 49 64  1  0  0  0
 49122  1  0  0  0
 50 51  1  0  0  0
 50123  1  0  0  0
 50124  1  0  0  0
 51 52  1  0  0  0
 51125  1  0  0  0
 51126  1  0  0  0
 52127  1  0  0  0
 52128  1  0  0  0
 53 54  1  0  0  0
 54 55  2  0  0  0
 54129  1  0  0  0
 55 57  1  0  0  0
 55130  1  0  0  0
 56 69  2  0  0  0
 57 58  2  0  0  0
 57131  1  0  0  0
 58132  1  0  0  0
 59 60  1  0  0  0
 59 61  1  0  0  0
 59 62  1  0  0  0
 60133  1  0  0  0
 60134  1  0  0  0
 60135  1  0  0  0
 61136  1  0  0  0
 61137  1  0  0  0
 61138  1  0  0  0
 62139  1  0  0  0
 62140  1  0  0  0
 62141  1  0  0  0
 63 65  1  0  0  0
 63142  1  0  0  0
 63143  1  0  0  0
 63144  1  0  0  0
 64145  1  0  0  0
 65146  1  0  0  0
 68 81  1  0  0  0
 71 72  2  0  0  0
 71 86  1  0  0  0
 71147  1  0  0  0
 72 76  1  0  0  0
 72 84  1  0  0  0
 73 77  1  0  0  0
 73148  1  0  0  0
 73149  1  0  0  0
 73150  1  0  0  0
 74151  1  0  0  0
 74152  1  0  0  0
 74153  1  0  0  0
 74 83  1  0  0  0
 75 83  1  0  0  0
 75154  1  0  0  0
 75155  1  0  0  0
 75156  1  0  0  0
 76 83  1  0  0  0
 76157  1  0  0  0
 76158  1  0  0  0
 77159  1  0  0  0
 77160  1  0  0  0
 77 82  1  0  0  0
 78 79  1  0  0  0
 78 81  1  0  0  0
 78161  1  0  0  0
 78162  1  0  0  0
 79 82  1  0  0  0
 79163  1  0  0  0
 79164  1  0  0  0
 80 83  1  0  0  0
 80 87  1  0  0  0
 80165  1  0  0  0
 80166  1  0  0  0
 81167  1  0  0  0
 81168  1  0  0  0
 82 86  1  0  0  0
 82169  1  0  0  0
 84 85  2  0  0  0
 85 86  1  0  0  0
 87170  1  0  0  0
M  ISO  4   1 100  68 101  81 101  87 100
M  END
> <chiral flag>
0

> <version>
0

> <s_m_source_file>
/data/baiqing/PycharmProjects/Reinvent-master-3.2/result/LINK_invent/BTK/process_docking_weight1_custom_sum_contain_oxygen_bond_distance_aromatic_linkinvent_7_9_3/rearranged_h_0073.sdf

> <i_m_source_file_index>
79

> <r_mmod_Potential_Energy-OPLS-2005>
14394.58984375

> <r_mmod_Stretch_Energy-OPLS-2005>
8582.9189453125

> <r_mmod_Bend_Energy-OPLS-2005>
1325.55187988281

> <r_mmod_Torsional_Energy-OPLS-2005>
484.307373046875

> <r_mmod_Improper_Torsional_Energy-OPLS-2005>
45.2852897644043

> <r_mmod_Van_der_Waal_Energy-OPLS-2005>
2309.2138671875

> <r_mmod_Electrostatic_Energy-OPLS-2005>
-391.016021728516

> <r_mmod_Solvation_Energy-OPLS-2005>
-218.296798706055

> <b_mmod_Minimization_Converged-OPLS-2005>
0

> <r_mmod_RMS_Derivative-OPLS-2005>
8.6862678527832

$$$$
79
                    3D
 Structure written by MMmdl.
169177  0  0  1  0            999 V2000
  -30.5819  -14.7201   20.4308 C   0  0  0  0  0  0
  -30.4373  -12.4306   19.4694 C   0  0  0  0  0  0
  -29.5103  -12.4968   18.2328 C   0  0  0  0  0  0
  -28.0335  -12.3245   18.6415 C   0  0  0  0  0  0
  -27.6394  -13.2214   19.8418 C   0  0  2  0  0  0
  -28.6813  -13.1412   20.9774 C   0  0  0  0  0  0
  -25.2526  -13.8175   20.5695 C   0  0  0  0  0  0
  -24.1803  -13.0421   20.9206 C   0  0  0  0  0  0
  -24.6390  -11.6906   20.8750 C   0  0  0  0  0  0
  -23.9077  -10.4277   21.0410 C   0  0  0  0  0  0
  -24.3624   -9.4188   21.9184 C   0  0  0  0  0  0
  -23.6304   -8.2225   22.0760 C   0  0  0  0  0  0
  -22.4283   -8.0274   21.3549 C   0  0  0  0  0  0
  -21.9916   -9.0255   20.4658 C   0  0  0  0  0  0
  -22.7249  -10.2129   20.3075 C   0  0  0  0  0  0
  -21.6855   -6.0730   22.5273 C   0  0  0  0  0  0
  -21.4021   -6.5629   23.8208 C   0  0  0  0  0  0
  -21.3668   -5.6782   24.9170 C   0  0  0  0  0  0
  -21.6052   -4.3046   24.7220 C   0  0  0  0  0  0
  -21.8830   -3.8150   23.4339 C   0  0  0  0  0  0
  -21.9194   -4.6963   22.3399 C   0  0  0  0  0  0
  -22.7835  -13.5212   21.1881 C   0  0  0  0  0  0
  -22.1652   -4.2139   21.0977 F   0  0  0  0  0  0
  -21.5640   -3.4538   25.7735 F   0  0  0  0  0  0
  -29.9942  -13.4776   20.4171 N   0  0  0  0  0  0
  -26.2924  -12.9348   20.3252 N   0  0  0  0  0  0
  -25.9304  -11.6499   20.5734 N   0  0  0  0  0  0
  -22.0502  -12.8201   22.0457 N   0  0  0  0  0  0
  -25.4253  -15.1887   20.4094 N   0  0  0  0  0  0
  -31.7913  -14.8113   20.1942 O   0  0  0  0  0  0
  -21.6645   -6.8872   21.4232 O   0  0  0  0  0  0
  -22.3495  -14.5490   20.6709 O   0  0  0  0  0  0
  -24.6260  -31.8587   23.1977 C   0  0  0  0  0  0
  -25.9101  -32.4771   23.8333 C   0  0  1  0  0  0
  -27.2268  -27.3036   20.1426 C   0  0  0  0  0  0
  -25.5902  -33.8569   24.2252 N   0  0  0  0  0  0
  -23.4219  -30.4771   21.5431 C   0  0  2  0  0  0
  -24.8699  -28.9214   20.1157 C   0  0  0  0  0  0
  -22.7481  -29.4605   22.4951 C   0  0  0  0  0  0
  -18.0287  -28.1377   22.8490 C   0  0  0  0  0  0
  -24.1486  -36.7280   23.2653 C   0  0  0  0  0  0
  -25.9627  -30.7834   21.3723 C   0  0  0  0  0  0
  -26.0377  -29.4095   20.7167 C   0  0  0  0  0  0
  -27.2236  -28.6170   20.7078 C   0  0  0  0  0  0
  -26.0386  -26.8556   19.5327 C   0  0  0  0  0  0
  -24.8736  -27.6507   19.5123 C   0  0  0  0  0  0
  -23.6377  -29.8038   20.1611 C   0  0  0  0  0  0
  -25.4116  -36.3084   24.0343 C   0  0  1  0  0  0
  -20.5886  -28.3676   23.1278 C   0  0  2  0  0  0
  -20.6773  -26.9394   22.5413 C   0  0  0  0  0  0
  -19.5754  -26.6370   21.5212 C   0  0  0  0  0  0
  -18.1932  -26.7918   22.1622 C   0  0  0  0  0  0
  -19.1540  -28.8842   23.2880 C   0  0  0  0  0  0
  -18.9461  -30.1448   23.8895 C   0  0  0  0  0  0
  -17.6462  -30.6582   24.0558 C   0  0  0  0  0  0
  -25.9047  -34.9453   23.5106 C   0  0  0  0  0  0
  -16.5353  -29.9082   23.6323 C   0  0  0  0  0  0
  -16.7275  -28.6490   23.0356 C   0  0  0  0  0  0
  -26.4450  -31.6588   25.0734 C   0  0  0  0  0  0
  -25.3656  -31.3758   26.1442 C   0  0  0  0  0  0
  -27.0296  -30.3007   24.6205 C   0  0  0  0  0  0
  -27.6007  -32.4315   25.7506 C   0  0  0  0  0  0
  -27.5577  -37.1797   24.8469 C   0  0  0  0  0  0
  -21.4196  -29.3030   22.3684 N   0  0  0  0  0  0
  -26.4291  -37.3779   23.9415 N   0  0  0  0  0  0
  -24.6893  -31.0577   22.0945 N   0  0  0  0  0  0
  -23.4208  -28.8158   23.3045 O   0  0  0  0  0  0
  -28.3570  -26.4757   20.1338 O   0  0  0  0  0  0
  -26.5639  -34.8919   22.4689 O   0  0  0  0  0  0
  -23.5419  -32.1391   23.7298 O   0  0  0  0  0  0
  -30.3039  -16.7787   22.6732 C   0  0  0  0  0  0
  -30.1778  -18.9094   22.8404 C   0  0  0  0  0  0
  -29.8354  -18.6198   21.5219 C   0  0  0  0  0  0
  -28.9991  -19.7982   25.7473 C   0  0  0  0  0  0
  -29.7453  -16.6568   18.9646 C   0  0  0  0  0  0
  -30.6049  -22.9317   20.9898 C   0  0  0  0  0  0
  -30.3192  -20.2225   23.5645 C   0  0  0  0  0  0
  -29.4974  -19.6948   20.4199 C   0  0  0  0  0  0
  -29.1116  -20.6072   24.4468 C   0  0  0  0  0  0
  -28.7521  -21.1105   20.7344 C   0  0  0  0  0  0
  -28.4037  -23.7946   19.8774 C   0  0  0  0  0  0
  -28.3006  -25.1307   20.7653 C   0  0  0  0  0  0
  -29.7138  -16.0858   20.3965 C   0  0  2  0  0  0
  -29.3500  -22.5148   20.2086 C   0  0  1  0  0  0
  -30.4601  -17.7503   23.5500 N   0  0  0  0  0  0
  -29.9766  -17.1615   21.4305 N   0  0  0  0  0  0
  -31.4763  -12.5659   19.1633 H   0  0  0  0  0  0
  -30.3878  -11.4454   19.9356 H   0  0  0  0  0  0
  -29.7902  -11.7298   17.5081 H   0  0  0  0  0  0
  -29.6413  -13.4533   17.7233 H   0  0  0  0  0  0
  -27.8858  -11.2760   18.9031 H   0  0  0  0  0  0
  -27.3764  -12.5216   17.7946 H   0  0  0  0  0  0
  -27.6289  -14.2365   19.4497 H   0  0  0  0  0  0
  -28.7020  -12.1402   21.4093 H   0  0  0  0  0  0
  -28.4250  -13.8160   21.7946 H   0  0  0  0  0  0
  -25.2766   -9.5653   22.4753 H   0  0  0  0  0  0
  -24.0019   -7.4607   22.7455 H   0  0  0  0  0  0
  -21.0860   -8.8773   19.8951 H   0  0  0  0  0  0
  -22.3701  -10.9674   19.6205 H   0  0  0  0  0  0
  -21.1998   -7.6132   23.9699 H   0  0  0  0  0  0
  -21.1494   -6.0515   25.9065 H   0  0  0  0  0  0
  -22.0606   -2.7612   23.2840 H   0  0  0  0  0  0
  -22.4128  -11.9874   22.4849 H   0  0  0  0  0  0
  -21.1132  -13.1235   22.2686 H   0  0  0  0  0  0
  -24.6704  -15.8549   20.5288 H   0  0  0  0  0  0
  -26.2803  -15.6217   20.0859 H   0  0  0  0  0  0
  -26.7181  -32.5431   23.1086 H   0  0  0  0  0  0
  -25.0034  -33.9700   25.0390 H   0  0  0  0  0  0
  -22.7169  -31.2979   21.3959 H   0  0  0  0  0  0
  -23.3762  -35.9597   23.3321 H   0  0  0  0  0  0
  -24.3575  -36.8889   22.2064 H   0  0  0  0  0  0
  -23.7215  -37.6476   23.6661 H   0  0  0  0  0  0
  -26.1049  -31.5459   20.6069 H   0  0  0  0  0  0
  -26.8389  -30.8255   22.0084 H   0  0  0  0  0  0
  -28.1278  -28.9937   21.1645 H   0  0  0  0  0  0
  -26.0126  -25.8755   19.0762 H   0  0  0  0  0  0
  -23.9763  -27.2676   19.0444 H   0  0  0  0  0  0
  -23.7579  -30.5782   19.4021 H   0  0  0  0  0  0
  -22.7571  -29.2341   19.8593 H   0  0  0  0  0  0
  -25.1287  -36.1945   25.0836 H   0  0  0  0  0  0
  -20.9963  -28.3241   24.1410 H   0  0  0  0  0  0
  -20.5650  -26.2286   23.3624 H   0  0  0  0  0  0
  -21.6641  -26.7418   22.1219 H   0  0  0  0  0  0
  -19.6914  -25.6277   21.1254 H   0  0  0  0  0  0
  -19.6689  -27.3173   20.6736 H   0  0  0  0  0  0
  -17.4198  -26.6663   21.4027 H   0  0  0  0  0  0
  -18.0327  -26.0060   22.9015 H   0  0  0  0  0  0
  -19.7937  -30.7256   24.2270 H   0  0  0  0  0  0
  -17.5018  -31.6269   24.5151 H   0  0  0  0  0  0
  -15.5350  -30.2987   23.7646 H   0  0  0  0  0  0
  -15.8673  -28.0809   22.7081 H   0  0  0  0  0  0
  -24.5788  -30.7175   25.7745 H   0  0  0  0  0  0
  -25.7935  -30.8913   27.0230 H   0  0  0  0  0  0
  -24.8918  -32.2948   26.4888 H   0  0  0  0  0  0
  -26.2923  -29.6797   24.1107 H   0  0  0  0  0  0
  -27.3842  -29.7213   25.4731 H   0  0  0  0  0  0
  -27.8842  -30.4308   23.9559 H   0  0  0  0  0  0
  -27.2595  -33.3580   26.2157 H   0  0  0  0  0  0
  -28.3786  -32.6941   25.0320 H   0  0  0  0  0  0
  -28.0705  -31.8409   26.5379 H   0  0  0  0  0  0
  -28.2603  -38.0084   24.7517 H   0  0  0  0  0  0
  -28.1066  -36.2624   24.6300 H   0  0  0  0  0  0
  -27.2310  -37.1454   25.8876 H   0  0  0  0  0  0
  -20.9385  -29.8752   21.6888 H   0  0  0  0  0  0
  -26.0185  -38.2861   24.1402 H   0  0  0  0  0  0
  -30.4187  -15.7416   22.9583 H   0  0  0  0  0  0
  -28.1746  -20.1645   26.3597 H   0  0  0  0  0  0
  -29.9130  -19.8693   26.3368 H   0  0  0  0  0  0
  -28.8112  -18.7452   25.5445 H   0  0  0  0  0  0
  -30.5917  -17.3259   18.8150 H   0  0  0  0  0  0
  -28.8272  -17.1960   18.7358 H   0  0  0  0  0  0
  -29.8214  -15.8668   18.2170 H   0  0  0  0  0  0
  -31.3682  -22.1545   20.9520 H   0  0  0  0  0  0
  -30.3774  -23.1348   22.0366 H   0  0  0  0  0  0
  -31.0516  -23.8324   20.5670 H   0  0  0  0  0  0
  -30.5176  -21.0132   22.8504 H   0  0  0  0  0  0
  -31.2129  -20.2009   24.1886 H   0  0  0  0  0  0
  -28.8943  -19.2090   19.6555 H   0  0  0  0  0  0
  -30.4297  -19.9312   19.9072 H   0  0  0  0  0  0
  -29.2015  -21.6600   24.7181 H   0  0  0  0  0  0
  -28.1819  -20.5289   23.8838 H   0  0  0  0  0  0
  -28.5138  -21.2050   21.7888 H   0  0  0  0  0  0
  -27.7661  -21.0226   20.2785 H   0  0  0  0  0  0
  -28.7353  -24.1512   18.9011 H   0  0  0  0  0  0
  -27.3913  -23.4384   19.6863 H   0  0  0  0  0  0
  -29.1172  -25.1355   21.4872 H   0  0  0  0  0  0
  -27.4005  -25.0649   21.3795 H   0  0  0  0  0  0
  -28.6846  -15.7930   20.5872 H   0  0  0  0  0  0
  -29.7212  -22.2451   19.2188 H   0  0  0  0  0  0
  1 25  1  0  0  0
  1 30  2  0  0  0
  1 83  1  0  0  0
  2  3  1  0  0  0
  2 25  1  0  0  0
  2 87  1  0  0  0
  2 88  1  0  0  0
  3  4  1  0  0  0
  3 89  1  0  0  0
  3 90  1  0  0  0
  4  5  1  0  0  0
  4 91  1  0  0  0
  4 92  1  0  0  0
  5  6  1  0  0  0
  5 26  1  0  0  0
  5 93  1  0  0  0
  6 25  1  0  0  0
  6 94  1  0  0  0
  6 95  1  0  0  0
  7  8  2  0  0  0
  7 26  1  0  0  0
  7 29  1  0  0  0
  8  9  1  0  0  0
  8 22  1  0  0  0
  9 10  1  0  0  0
  9 27  2  0  0  0
 10 11  2  0  0  0
 10 15  1  0  0  0
 11 12  1  0  0  0
 11 96  1  0  0  0
 12 13  2  0  0  0
 12 97  1  0  0  0
 13 14  1  0  0  0
 13 31  1  0  0  0
 14 15  2  0  0  0
 14 98  1  0  0  0
 15 99  1  0  0  0
 16 17  2  0  0  0
 16 21  1  0  0  0
 16 31  1  0  0  0
 17 18  1  0  0  0
 17100  1  0  0  0
 18 19  2  0  0  0
 18101  1  0  0  0
 19 20  1  0  0  0
 19 24  1  0  0  0
 20 21  2  0  0  0
 20102  1  0  0  0
 21 23  1  0  0  0
 22 28  1  0  0  0
 22 32  2  0  0  0
 26 27  1  0  0  0
 28103  1  0  0  0
 28104  1  0  0  0
 29105  1  0  0  0
 29106  1  0  0  0
 33 34  1  0  0  0
 33 66  1  0  0  0
 33 70  2  0  0  0
 34 36  1  0  0  0
 34 59  1  0  0  0
 34107  1  0  0  0
 35 44  2  0  0  0
 35 45  1  0  0  0
 35 68  1  0  0  0
 36 56  1  0  0  0
 36108  1  0  0  0
 37 39  1  0  0  0
 37 47  1  0  0  0
 37 66  1  0  0  0
 37109  1  0  0  0
 38 43  2  0  0  0
 38 46  1  0  0  0
 38 47  1  0  0  0
 39 64  1  0  0  0
 39 67  2  0  0  0
 40 52  1  0  0  0
 40 53  2  0  0  0
 40 58  1  0  0  0
 41110  1  0  0  0
 41111  1  0  0  0
 41112  1  0  0  0
 41 48  1  0  0  0
 42 43  1  0  0  0
 42 66  1  0  0  0
 42113  1  0  0  0
 42114  1  0  0  0
 43 44  1  0  0  0
 44115  1  0  0  0
 45 46  2  0  0  0
 45116  1  0  0  0
 46117  1  0  0  0
 47118  1  0  0  0
 47119  1  0  0  0
 48 56  1  0  0  0
 48 65  1  0  0  0
 48120  1  0  0  0
 49 50  1  0  0  0
 49 53  1  0  0  0
 49 64  1  0  0  0
 49121  1  0  0  0
 50 51  1  0  0  0
 50122  1  0  0  0
 50123  1  0  0  0
 51 52  1  0  0  0
 51124  1  0  0  0
 51125  1  0  0  0
 52126  1  0  0  0
 52127  1  0  0  0
 53 54  1  0  0  0
 54 55  2  0  0  0
 54128  1  0  0  0
 55 57  1  0  0  0
 55129  1  0  0  0
 56 69  2  0  0  0
 57 58  2  0  0  0
 57130  1  0  0  0
 58131  1  0  0  0
 59 60  1  0  0  0
 59 61  1  0  0  0
 59 62  1  0  0  0
 60132  1  0  0  0
 60133  1  0  0  0
 60134  1  0  0  0
 61135  1  0  0  0
 61136  1  0  0  0
 61137  1  0  0  0
 62138  1  0  0  0
 62139  1  0  0  0
 62140  1  0  0  0
 63 65  1  0  0  0
 63141  1  0  0  0
 63142  1  0  0  0
 63143  1  0  0  0
 64144  1  0  0  0
 65145  1  0  0  0
 68 82  1  0  0  0
 71 85  2  0  0  0
 71 86  1  0  0  0
 71146  1  0  0  0
 72 73  2  0  0  0
 72 77  1  0  0  0
 72 85  1  0  0  0
 73 78  1  0  0  0
 73 86  1  0  0  0
 74 79  1  0  0  0
 74147  1  0  0  0
 74148  1  0  0  0
 74149  1  0  0  0
 75150  1  0  0  0
 75151  1  0  0  0
 75152  1  0  0  0
 75 83  1  0  0  0
 76153  1  0  0  0
 76154  1  0  0  0
 76155  1  0  0  0
 76 84  1  0  0  0
 77 79  1  0  0  0
 77156  1  0  0  0
 77157  1  0  0  0
 78 80  1  0  0  0
 78158  1  0  0  0
 78159  1  0  0  0
 79160  1  0  0  0
 79161  1  0  0  0
 80 84  1  0  0  0
 80162  1  0  0  0
 80163  1  0  0  0
 81 82  1  0  0  0
 81 84  1  0  0  0
 81164  1  0  0  0
 81165  1  0  0  0
 82166  1  0  0  0
 82167  1  0  0  0
 83 86  1  0  0  0
 83168  1  0  0  0
 84169  1  0  0  0
M  ISO  4   1 100  68 101  82 101  83 100
M  END
> <chiral flag>
0

> <version>
0

> <s_m_source_file>
/data/baiqing/PycharmProjects/Reinvent-master-3.2/result/LINK_invent/BTK/process_docking_weight1_custom_sum_contain_oxygen_bond_distance_aromatic_linkinvent_7_9_3/rearranged_h_0073.sdf

> <i_m_source_file_index>
80

> <r_mmod_Potential_Energy-OPLS-2005>
288.426574707031

> <r_mmod_Stretch_Energy-OPLS-2005>
127.37825012207

> <r_mmod_Bend_Energy-OPLS-2005>
203.243576049805

> <r_mmod_Torsional_Energy-OPLS-2005>
271.007873535156

> <r_mmod_Improper_Torsional_Energy-OPLS-2005>
8.64356327056885

> <r_mmod_Van_der_Waal_Energy-OPLS-2005>
108.068817138672

> <r_mmod_Electrostatic_Energy-OPLS-2005>
-295.855316162109

> <r_mmod_Solvation_Energy-OPLS-2005>
-202.174224853516

> <b_mmod_Minimization_Converged-OPLS-2005>
0

> <r_mmod_RMS_Derivative-OPLS-2005>
2.99975752830505

$$$$
80
                    3D
 Structure written by MMmdl.
175183  0  0  1  0            999 V2000
  -30.7029  -14.4040   20.6151 C   0  0  0  0  0  0
  -30.4300  -12.2793   19.4092 C   0  0  0  0  0  0
  -29.4956  -12.5107   18.2027 C   0  0  0  0  0  0
  -28.0118  -12.3782   18.6084 C   0  0  0  0  0  0
  -27.6684  -13.1918   19.8846 C   0  0  2  0  0  0
  -28.7079  -12.9179   20.9975 C   0  0  0  0  0  0
  -25.2618  -13.8103   20.5646 C   0  0  0  0  0  0
  -24.1850  -13.0440   20.9170 C   0  0  0  0  0  0
  -24.6365  -11.6897   20.8731 C   0  0  0  0  0  0
  -23.9021  -10.4298   21.0369 C   0  0  0  0  0  0
  -24.3597   -9.4229   21.9152 C   0  0  0  0  0  0
  -23.6292   -8.2252   22.0724 C   0  0  0  0  0  0
  -22.4261   -8.0291   21.3529 C   0  0  0  0  0  0
  -21.9879   -9.0248   20.4624 C   0  0  0  0  0  0
  -22.7190  -10.2131   20.3024 C   0  0  0  0  0  0
  -21.6844   -6.0766   22.5302 C   0  0  0  0  0  0
  -21.4017   -6.5664   23.8233 C   0  0  0  0  0  0
  -21.3634   -5.6816   24.9183 C   0  0  0  0  0  0
  -21.6027   -4.3076   24.7222 C   0  0  0  0  0  0
  -21.8826   -3.8178   23.4338 C   0  0  0  0  0  0
  -21.9177   -4.7004   22.3401 C   0  0  0  0  0  0
  -22.7864  -13.5222   21.1845 C   0  0  0  0  0  0
  -22.1654   -4.2212   21.0989 F   0  0  0  0  0  0
  -21.5605   -3.4538   25.7718 F   0  0  0  0  0  0
  -30.0479  -13.2255   20.4636 N   0  0  0  0  0  0
  -26.3044  -12.9264   20.3379 N   0  0  0  0  0  0
  -25.9305  -11.6448   20.5797 N   0  0  0  0  0  0
  -22.0490  -12.8220   22.0387 N   0  0  0  0  0  0
  -25.4356  -15.1818   20.4034 N   0  0  0  0  0  0
  -31.7892  -14.6586   20.0871 O   0  0  0  0  0  0
  -21.6625   -6.8903   21.4259 O   0  0  0  0  0  0
  -22.3580  -14.5548   20.6723 O   0  0  0  0  0  0
  -24.6143  -31.8705   23.2171 C   0  0  0  0  0  0
  -25.9052  -32.4837   23.8448 C   0  0  1  0  0  0
  -27.2413  -27.4588   20.0713 C   0  0  0  0  0  0
  -25.5926  -33.8648   24.2336 N   0  0  0  0  0  0
  -23.3998  -30.4994   21.5564 C   0  0  2  0  0  0
  -24.8428  -28.9704   20.1239 C   0  0  0  0  0  0
  -22.7386  -29.4715   22.5027 C   0  0  0  0  0  0
  -18.0281  -28.1375   22.8498 C   0  0  0  0  0  0
  -24.1485  -36.7308   23.2641 C   0  0  0  0  0  0
  -25.9327  -30.8361   21.3765 C   0  0  0  0  0  0
  -26.0076  -29.4787   20.7142 C   0  0  0  0  0  0
  -27.2068  -28.7289   20.6888 C   0  0  0  0  0  0
  -26.0442  -26.9648   19.4872 C   0  0  0  0  0  0
  -24.8548  -27.7067   19.5197 C   0  0  0  0  0  0
  -23.6042  -29.8339   20.1717 C   0  0  0  0  0  0
  -25.4122  -36.3117   24.0322 C   0  0  1  0  0  0
  -20.5877  -28.3661   23.1317 C   0  0  2  0  0  0
  -20.6787  -26.9404   22.5394 C   0  0  0  0  0  0
  -19.5752  -26.6386   21.5205 C   0  0  0  0  0  0
  -18.1932  -26.7924   22.1619 C   0  0  0  0  0  0
  -19.1536  -28.8831   23.2902 C   0  0  0  0  0  0
  -18.9467  -30.1443   23.8892 C   0  0  0  0  0  0
  -17.6469  -30.6581   24.0564 C   0  0  0  0  0  0
  -25.9039  -34.9480   23.5109 C   0  0  0  0  0  0
  -16.5358  -29.9070   23.6343 C   0  0  0  0  0  0
  -16.7273  -28.6496   23.0353 C   0  0  0  0  0  0
  -26.4461  -31.6648   25.0788 C   0  0  0  0  0  0
  -25.3702  -31.3796   26.1512 C   0  0  0  0  0  0
  -27.0315  -30.3076   24.6255 C   0  0  0  0  0  0
  -27.6034  -32.4379   25.7533 C   0  0  0  0  0  0
  -27.5575  -37.1825   24.8464 C   0  0  0  0  0  0
  -21.4123  -29.3043   22.3720 N   0  0  0  0  0  0
  -26.4301  -37.3803   23.9390 N   0  0  0  0  0  0
  -24.6661  -31.0839   22.1056 N   0  0  0  0  0  0
  -23.4153  -28.8288   23.3095 O   0  0  0  0  0  0
  -28.4278  -26.7428   20.0558 O   0  0  0  0  0  0
  -26.5584  -34.8935   22.4655 O   0  0  0  0  0  0
  -23.5342  -32.1451   23.7582 O   0  0  0  0  0  0
  -29.2537  -19.5812   20.1756 C   0  0  0  0  0  0
  -28.6658  -20.6799   19.6012 C   0  0  0  0  0  0
  -28.3511  -18.9157   18.2463 C   0  0  0  0  0  0
  -26.9201  -22.3776   19.7740 C   0  0  0  0  0  0
  -28.6166  -22.1278   21.6189 C   0  0  0  0  0  0
  -26.2257  -17.7907   17.5685 C   0  0  0  0  0  0
  -28.3701  -16.8522   16.6785 C   0  0  0  0  0  0
  -27.5505  -19.0428   15.8558 C   0  0  0  0  0  0
  -29.5627  -24.5086   19.9168 C   0  0  0  0  0  0
  -29.4005  -23.0629   19.3672 C   0  0  0  0  0  0
  -29.3328  -17.0913   19.6252 C   0  0  0  0  0  0
  -30.0524  -16.7843   20.9599 C   0  0  0  0  0  0
  -28.3055  -25.3603   19.7234 C   0  0  0  0  0  0
  -28.4110  -22.0887   20.0888 C   0  0  0  0  0  0
  -27.6574  -18.1515   17.1166 C   0  0  0  0  0  0
  -29.0099  -18.5022   19.3543 N   0  0  0  0  0  0
  -28.2052  -20.2357   18.3905 N   0  3  0  0  0  0
  -29.9794  -15.3489   21.2274 N   0  0  0  0  0  0
  -31.4734  -12.3904   19.1037 H   0  0  0  0  0  0
  -30.3378  -11.2586   19.7834 H   0  0  0  0  0  0
  -29.7241  -11.7995   17.4072 H   0  0  0  0  0  0
  -29.6775  -13.5052   17.7861 H   0  0  0  0  0  0
  -27.8009  -11.3201   18.7731 H   0  0  0  0  0  0
  -27.3657  -12.6807   17.7828 H   0  0  0  0  0  0
  -27.7286  -14.2463   19.6225 H   0  0  0  0  0  0
  -28.6752  -11.8672   21.2935 H   0  0  0  0  0  0
  -28.4637  -13.4698   21.9056 H   0  0  0  0  0  0
  -25.2743   -9.5728   22.4722 H   0  0  0  0  0  0
  -24.0011   -7.4630   22.7437 H   0  0  0  0  0  0
  -21.0807   -8.8738   19.8941 H   0  0  0  0  0  0
  -22.3625  -10.9643   19.6126 H   0  0  0  0  0  0
  -21.2033   -7.6176   23.9753 H   0  0  0  0  0  0
  -21.1432   -6.0544   25.9092 H   0  0  0  0  0  0
  -22.0615   -2.7654   23.2820 H   0  0  0  0  0  0
  -22.4094  -11.9854   22.4741 H   0  0  0  0  0  0
  -21.1098  -13.1240   22.2579 H   0  0  0  0  0  0
  -24.6712  -15.8375   20.5153 H   0  0  0  0  0  0
  -26.2923  -15.6173   20.0972 H   0  0  0  0  0  0
  -26.7143  -32.5513   23.1233 H   0  0  0  0  0  0
  -25.0127  -33.9854   25.0513 H   0  0  0  0  0  0
  -22.6887  -31.3172   21.4197 H   0  0  0  0  0  0
  -23.3747  -35.9640   23.3316 H   0  0  0  0  0  0
  -24.3588  -36.8894   22.2055 H   0  0  0  0  0  0
  -23.7243  -37.6524   23.6634 H   0  0  0  0  0  0
  -26.0716  -31.6153   20.6263 H   0  0  0  0  0  0
  -26.8068  -30.8616   22.0154 H   0  0  0  0  0  0
  -28.1062  -29.1220   21.1422 H   0  0  0  0  0  0
  -25.9880  -26.0068   18.9929 H   0  0  0  0  0  0
  -23.9577  -27.2981   19.0741 H   0  0  0  0  0  0
  -23.7127  -30.6046   19.4073 H   0  0  0  0  0  0
  -22.7241  -29.2533   19.8830 H   0  0  0  0  0  0
  -25.1317  -36.1972   25.0818 H   0  0  0  0  0  0
  -20.9993  -28.3231   24.1432 H   0  0  0  0  0  0
  -20.5731  -26.2274   23.3584 H   0  0  0  0  0  0
  -21.6659  -26.7485   22.1163 H   0  0  0  0  0  0
  -19.6922  -25.6304   21.1220 H   0  0  0  0  0  0
  -19.6690  -27.3211   20.6747 H   0  0  0  0  0  0
  -17.4211  -26.6679   21.4003 H   0  0  0  0  0  0
  -18.0315  -26.0055   22.9000 H   0  0  0  0  0  0
  -19.7943  -30.7263   24.2239 H   0  0  0  0  0  0
  -17.5028  -31.6267   24.5146 H   0  0  0  0  0  0
  -15.5357  -30.2961   23.7693 H   0  0  0  0  0  0
  -15.8671  -28.0815   22.7065 H   0  0  0  0  0  0
  -24.5844  -30.7188   25.7828 H   0  0  0  0  0  0
  -24.8958  -32.2982   26.4966 H   0  0  0  0  0  0
  -25.8021  -30.8933   27.0262 H   0  0  0  0  0  0
  -26.2919  -29.6844   24.1224 H   0  0  0  0  0  0
  -27.3922  -29.7341   25.4805 H   0  0  0  0  0  0
  -27.8804  -30.4364   23.9545 H   0  0  0  0  0  0
  -27.2634  -33.3646   26.2170 H   0  0  0  0  0  0
  -28.3796  -32.7003   25.0329 H   0  0  0  0  0  0
  -28.0741  -31.8476   26.5401 H   0  0  0  0  0  0
  -28.2624  -38.0103   24.7511 H   0  0  0  0  0  0
  -28.1036  -36.2636   24.6277 H   0  0  0  0  0  0
  -27.2287  -37.1458   25.8870 H   0  0  0  0  0  0
  -20.9258  -29.8712   21.6916 H   0  0  0  0  0  0
  -26.0167  -38.2868   24.1392 H   0  0  0  0  0  0
  -29.7530  -19.4952   21.1302 H   0  0  0  0  0  0
  -26.2890  -21.5587   20.1202 H   0  0  0  0  0  0
  -26.7368  -22.4924   18.7056 H   0  0  0  0  0  0
  -26.5161  -23.2509   20.2682 H   0  0  0  0  0  0
  -27.9866  -21.3939   22.1214 H   0  0  0  0  0  0
  -28.3590  -23.0969   22.0482 H   0  0  0  0  0  0
  -29.6482  -21.9144   21.8906 H   0  0  0  0  0  0
  -26.2341  -17.1247   18.4329 H   0  0  0  0  0  0
  -25.6693  -17.2849   16.7774 H   0  0  0  0  0  0
  -25.6500  -18.6747   17.8489 H   0  0  0  0  0  0
  -28.3093  -16.0581   17.4204 H   0  0  0  0  0  0
  -29.4195  -17.0187   16.4367 H   0  0  0  0  0  0
  -27.8978  -16.4421   15.7847 H   0  0  0  0  0  0
  -26.9902  -19.9618   16.0322 H   0  0  0  0  0  0
  -27.0308  -18.5261   15.0473 H   0  0  0  0  0  0
  -28.5369  -19.3205   15.4781 H   0  0  0  0  0  0
  -30.3848  -24.9911   19.3881 H   0  0  0  0  0  0
  -29.8655  -24.4993   20.9645 H   0  0  0  0  0  0
  -30.3939  -22.6103   19.4016 H   0  0  0  0  0  0
  -29.1599  -23.1141   18.3046 H   0  0  0  0  0  0
  -28.3850  -16.5535   19.5899 H   0  0  0  0  0  0
  -29.9604  -16.7371   18.8065 H   0  0  0  0  0  0
  -31.0891  -17.1235   20.9351 H   0  0  0  0  0  0
  -29.5644  -17.2887   21.7935 H   0  0  0  0  0  0
  -27.5434  -24.9723   20.3899 H   0  0  0  0  0  0
  -27.9809  -25.2495   18.6875 H   0  0  0  0  0  0
  -27.7268  -20.8153   17.7147 H   0  0  0  0  0  0
  -29.1313  -15.0229   21.6681 H   0  0  0  0  0  0
  1 25  1  0  0  0
  1 30  2  0  0  0
  1 88  1  0  0  0
  2  3  1  0  0  0
  2 25  1  0  0  0
  2 89  1  0  0  0
  2 90  1  0  0  0
  3  4  1  0  0  0
  3 91  1  0  0  0
  3 92  1  0  0  0
  4  5  1  0  0  0
  4 93  1  0  0  0
  4 94  1  0  0  0
  5  6  1  0  0  0
  5 26  1  0  0  0
  5 95  1  0  0  0
  6 25  1  0  0  0
  6 96  1  0  0  0
  6 97  1  0  0  0
  7  8  2  0  0  0
  7 26  1  0  0  0
  7 29  1  0  0  0
  8  9  1  0  0  0
  8 22  1  0  0  0
  9 10  1  0  0  0
  9 27  2  0  0  0
 10 11  2  0  0  0
 10 15  1  0  0  0
 11 12  1  0  0  0
 11 98  1  0  0  0
 12 13  2  0  0  0
 12 99  1  0  0  0
 13 14  1  0  0  0
 13 31  1  0  0  0
 14 15  2  0  0  0
 14100  1  0  0  0
 15101  1  0  0  0
 16 17  2  0  0  0
 16 21  1  0  0  0
 16 31  1  0  0  0
 17 18  1  0  0  0
 17102  1  0  0  0
 18 19  2  0  0  0
 18103  1  0  0  0
 19 20  1  0  0  0
 19 24  1  0  0  0
 20 21  2  0  0  0
 20104  1  0  0  0
 21 23  1  0  0  0
 22 28  1  0  0  0
 22 32  2  0  0  0
 26 27  1  0  0  0
 28105  1  0  0  0
 28106  1  0  0  0
 29107  1  0  0  0
 29108  1  0  0  0
 33 34  1  0  0  0
 33 66  1  0  0  0
 33 70  2  0  0  0
 34 36  1  0  0  0
 34 59  1  0  0  0
 34109  1  0  0  0
 35 44  2  0  0  0
 35 45  1  0  0  0
 35 68  1  0  0  0
 36 56  1  0  0  0
 36110  1  0  0  0
 37 39  1  0  0  0
 37 47  1  0  0  0
 37 66  1  0  0  0
 37111  1  0  0  0
 38 43  2  0  0  0
 38 46  1  0  0  0
 38 47  1  0  0  0
 39 64  1  0  0  0
 39 67  2  0  0  0
 40 52  1  0  0  0
 40 53  2  0  0  0
 40 58  1  0  0  0
 41112  1  0  0  0
 41113  1  0  0  0
 41114  1  0  0  0
 41 48  1  0  0  0
 42 43  1  0  0  0
 42 66  1  0  0  0
 42115  1  0  0  0
 42116  1  0  0  0
 43 44  1  0  0  0
 44117  1  0  0  0
 45 46  2  0  0  0
 45118  1  0  0  0
 46119  1  0  0  0
 47120  1  0  0  0
 47121  1  0  0  0
 48 56  1  0  0  0
 48 65  1  0  0  0
 48122  1  0  0  0
 49 50  1  0  0  0
 49 53  1  0  0  0
 49 64  1  0  0  0
 49123  1  0  0  0
 50 51  1  0  0  0
 50124  1  0  0  0
 50125  1  0  0  0
 51 52  1  0  0  0
 51126  1  0  0  0
 51127  1  0  0  0
 52128  1  0  0  0
 52129  1  0  0  0
 53 54  1  0  0  0
 54 55  2  0  0  0
 54130  1  0  0  0
 55 57  1  0  0  0
 55131  1  0  0  0
 56 69  2  0  0  0
 57 58  2  0  0  0
 57132  1  0  0  0
 58133  1  0  0  0
 59 60  1  0  0  0
 59 61  1  0  0  0
 59 62  1  0  0  0
 60134  1  0  0  0
 60135  1  0  0  0
 60136  1  0  0  0
 61137  1  0  0  0
 61138  1  0  0  0
 61139  1  0  0  0
 62140  1  0  0  0
 62141  1  0  0  0
 62142  1  0  0  0
 63 65  1  0  0  0
 63143  1  0  0  0
 63144  1  0  0  0
 63145  1  0  0  0
 64146  1  0  0  0
 65147  1  0  0  0
 68 83  1  0  0  0
 71 72  2  0  0  0
 71 86  1  0  0  0
 71148  1  0  0  0
 72 84  1  0  0  0
 72 87  1  0  0  0
 73 85  1  0  0  0
 73 86  1  0  0  0
 73 87  2  0  0  0
 74149  1  0  0  0
 74150  1  0  0  0
 74151  1  0  0  0
 74 84  1  0  0  0
 75 84  1  0  0  0
 75152  1  0  0  0
 75153  1  0  0  0
 75154  1  0  0  0
 76155  1  0  0  0
 76156  1  0  0  0
 76157  1  0  0  0
 76 85  1  0  0  0
 77 85  1  0  0  0
 77158  1  0  0  0
 77159  1  0  0  0
 77160  1  0  0  0
 78 85  1  0  0  0
 78161  1  0  0  0
 78162  1  0  0  0
 78163  1  0  0  0
 79 80  1  0  0  0
 79 83  1  0  0  0
 79164  1  0  0  0
 79165  1  0  0  0
 80 84  1  0  0  0
 80166  1  0  0  0
 80167  1  0  0  0
 81 82  1  0  0  0
 81 86  1  0  0  0
 81168  1  0  0  0
 81169  1  0  0  0
 82 88  1  0  0  0
 82170  1  0  0  0
 82171  1  0  0  0
 83172  1  0  0  0
 83173  1  0  0  0
 87174  1  0  0  0
 88175  1  0  0  0
M  CHG  1  87   1
M  ISO  4   1 100  68 101  83 101  88 100
M  END
> <chiral flag>
0

> <version>
0

> <s_m_source_file>
/data/baiqing/PycharmProjects/Reinvent-master-3.2/result/LINK_invent/BTK/process_docking_weight1_custom_sum_contain_oxygen_bond_distance_aromatic_linkinvent_7_9_3/rearranged_h_0073.sdf

> <i_m_source_file_index>
81

> <r_mmod_Potential_Energy-OPLS-2005>
-103.276489257812

> <r_mmod_Stretch_Energy-OPLS-2005>
38.5155830383301

> <r_mmod_Bend_Energy-OPLS-2005>
117.88306427002

> <r_mmod_Torsional_Energy-OPLS-2005>
251.962646484375

> <r_mmod_Improper_Torsional_Energy-OPLS-2005>
6.51949739456177

> <r_mmod_Van_der_Waal_Energy-OPLS-2005>
146.812881469727

> <r_mmod_Electrostatic_Energy-OPLS-2005>
-265.147888183594

> <r_mmod_Solvation_Energy-OPLS-2005>
-408.644348144531

> <b_mmod_Minimization_Converged-OPLS-2005>
0

> <r_mmod_RMS_Derivative-OPLS-2005>
3.65084981918335

$$$$
81
                    3D
 Structure written by MMmdl.
163171  0  0  1  0            999 V2000
  -30.6039  -15.0172   20.2936 C   0  0  0  0  0  0
  -30.4261  -12.6344   19.4495 C   0  0  0  0  0  0
  -29.4968  -12.4485   18.2317 C   0  0  0  0  0  0
  -28.0392  -12.2575   18.6860 C   0  0  0  0  0  0
  -27.6054  -13.2433   19.8023 C   0  0  2  0  0  0
  -28.6717  -13.4000   20.9017 C   0  0  0  0  0  0
  -25.2391  -13.7918   20.5945 C   0  0  0  0  0  0
  -24.1687  -13.0212   20.9314 C   0  0  0  0  0  0
  -24.6353  -11.6751   20.8785 C   0  0  0  0  0  0
  -23.9048  -10.4173   21.0413 C   0  0  0  0  0  0
  -24.3602   -9.4108   21.9196 C   0  0  0  0  0  0
  -23.6267   -8.2164   22.0756 C   0  0  0  0  0  0
  -22.4244   -8.0231   21.3548 C   0  0  0  0  0  0
  -21.9883   -9.0199   20.4642 C   0  0  0  0  0  0
  -22.7224  -10.2061   20.3049 C   0  0  0  0  0  0
  -21.6829   -6.0715   22.5278 C   0  0  0  0  0  0
  -21.3991   -6.5630   23.8209 C   0  0  0  0  0  0
  -21.3646   -5.6786   24.9177 C   0  0  0  0  0  0
  -21.6037   -4.3049   24.7228 C   0  0  0  0  0  0
  -21.8830   -3.8136   23.4354 C   0  0  0  0  0  0
  -21.9194   -4.6947   22.3408 C   0  0  0  0  0  0
  -22.7730  -13.5060   21.1953 C   0  0  0  0  0  0
  -22.1672   -4.2134   21.0987 F   0  0  0  0  0  0
  -21.5637   -3.4539   25.7746 F   0  0  0  0  0  0
  -29.9171  -13.7994   20.2292 N   0  0  0  0  0  0
  -26.2831  -12.9271   20.3298 N   0  0  0  0  0  0
  -25.9294  -11.6403   20.5770 N   0  0  0  0  0  0
  -22.0341  -12.8079   22.0491 N   0  0  0  0  0  0
  -25.4000  -15.1548   20.4696 N   0  0  0  0  0  0
  -31.8077  -14.8498   20.5077 O   0  0  0  0  0  0
  -21.6598   -6.8845   21.4242 O   0  0  0  0  0  0
  -22.3465  -14.5398   20.6798 O   0  0  0  0  0  0
  -24.6433  -31.8436   23.1876 C   0  0  0  0  0  0
  -25.9204  -32.4691   23.8267 C   0  0  1  0  0  0
  -27.2295  -27.1511   20.1523 C   0  0  0  0  0  0
  -25.5947  -33.8495   24.2188 N   0  0  0  0  0  0
  -23.4480  -30.4604   21.5334 C   0  0  2  0  0  0
  -24.8984  -28.8811   20.1178 C   0  0  0  0  0  0
  -22.7568  -29.4560   22.4882 C   0  0  0  0  0  0
  -18.0311  -28.1396   22.8481 C   0  0  0  0  0  0
  -24.1488  -36.7251   23.2645 C   0  0  0  0  0  0
  -26.0017  -30.7214   21.3835 C   0  0  0  0  0  0
  -26.0756  -29.3316   20.7284 C   0  0  0  0  0  0
  -27.2461  -28.4862   20.7198 C   0  0  0  0  0  0
  -26.0241  -26.7884   19.5184 C   0  0  0  0  0  0
  -24.8838  -27.6218   19.4976 C   0  0  0  0  0  0
  -23.6736  -29.7818   20.1569 C   0  0  0  0  0  0
  -25.4121  -36.3026   24.0315 C   0  0  1  0  0  0
  -20.5925  -28.3736   23.1248 C   0  0  2  0  0  0
  -20.6806  -26.9448   22.5391 C   0  0  0  0  0  0
  -19.5779  -26.6401   21.5205 C   0  0  0  0  0  0
  -18.1962  -26.7930   22.1631 C   0  0  0  0  0  0
  -19.1569  -28.8872   23.2866 C   0  0  0  0  0  0
  -18.9477  -30.1478   23.8885 C   0  0  0  0  0  0
  -17.6473  -30.6583   24.0561 C   0  0  0  0  0  0
  -25.9072  -34.9401   23.5063 C   0  0  0  0  0  0
  -16.5361  -29.9078   23.6337 C   0  0  0  0  0  0
  -16.7298  -28.6498   23.0356 C   0  0  0  0  0  0
  -26.4528  -31.6557   25.0705 C   0  0  0  0  0  0
  -25.3714  -31.3739   26.1402 C   0  0  0  0  0  0
  -27.0400  -30.2956   24.6279 C   0  0  0  0  0  0
  -27.6056  -32.4329   25.7497 C   0  0  0  0  0  0
  -27.5570  -37.1781   24.8467 C   0  0  0  0  0  0
  -21.4253  -29.3094   22.3644 N   0  0  0  0  0  0
  -26.4282  -37.3739   23.9409 N   0  0  0  0  0  0
  -24.7177  -31.0301   22.0905 N   0  0  0  0  0  0
  -23.4202  -28.8091   23.3023 O   0  0  0  0  0  0
  -28.3067  -26.1991   20.1408 O   0  0  0  0  0  0
  -26.5661  -34.8901   22.4642 O   0  0  0  0  0  0
  -23.5553  -32.1303   23.7100 O   0  0  0  0  0  0
  -30.0841  -19.2088   20.4178 C   0  0  0  0  0  0
  -29.1165  -20.3287   20.3189 C   0  0  0  0  0  0
  -29.5452  -17.9535   19.9984 C   0  0  0  0  0  0
  -25.7687  -18.1178   20.0123 C   0  0  0  0  0  0
  -26.8046  -17.9240   17.7320 C   0  0  0  0  0  0
  -29.6806  -16.0885   18.1388 C   0  0  0  0  0  0
  -31.6548  -17.0338   19.1047 C   0  0  0  0  0  0
  -29.0253  -21.8974   20.8146 C   0  0  0  0  0  0
  -28.7562  -23.3007   19.9278 C   0  0  0  0  0  0
  -28.1312  -24.7217   20.5871 C   0  0  0  0  0  0
  -27.0417  -17.6897   19.2367 C   0  0  0  0  0  0
  -30.2422  -16.5026   19.5170 C   0  0  0  0  0  0
  -28.0156  -19.7494   19.8998 N   0  0  0  0  0  0
  -28.2223  -18.3965   19.7326 N   0  0  0  0  0  0
  -31.4514  -12.7876   19.1085 H   0  0  0  0  0  0
  -30.4440  -11.7350   20.0671 H   0  0  0  0  0  0
  -29.8173  -11.5853   17.6467 H   0  0  0  0  0  0
  -29.5602  -13.2966   17.5558 H   0  0  0  0  0  0
  -27.9617  -11.2371   19.0620 H   0  0  0  0  0  0
  -27.3607  -12.3165   17.8342 H   0  0  0  0  0  0
  -27.5110  -14.2086   19.3107 H   0  0  0  0  0  0
  -28.8012  -12.4744   21.4629 H   0  0  0  0  0  0
  -28.3706  -14.1642   21.6189 H   0  0  0  0  0  0
  -25.2755   -9.5591   22.4760 H   0  0  0  0  0  0
  -23.9970   -7.4553   22.7478 H   0  0  0  0  0  0
  -21.0811   -8.8722   19.8957 H   0  0  0  0  0  0
  -22.3701  -10.9608   19.6155 H   0  0  0  0  0  0
  -21.1963   -7.6131   23.9699 H   0  0  0  0  0  0
  -21.1462   -6.0523   25.9076 H   0  0  0  0  0  0
  -22.0622   -2.7596   23.2857 H   0  0  0  0  0  0
  -22.3941  -11.9726   22.4871 H   0  0  0  0  0  0
  -21.0965  -13.1123   22.2698 H   0  0  0  0  0  0
  -24.6346  -15.8004   20.6246 H   0  0  0  0  0  0
  -26.2722  -15.6120   20.2519 H   0  0  0  0  0  0
  -26.7265  -32.5316   23.0995 H   0  0  0  0  0  0
  -25.0062  -33.9598   25.0314 H   0  0  0  0  0  0
  -22.7526  -31.2870   21.3744 H   0  0  0  0  0  0
  -23.3752  -35.9581   23.3298 H   0  0  0  0  0  0
  -24.3578  -36.8893   22.2063 H   0  0  0  0  0  0
  -23.7236  -37.6437   23.6692 H   0  0  0  0  0  0
  -26.1567  -31.4731   20.6088 H   0  0  0  0  0  0
  -26.8735  -30.7753   22.0243 H   0  0  0  0  0  0
  -28.1517  -28.8364   21.1943 H   0  0  0  0  0  0
  -25.9561  -25.8219   19.0400 H   0  0  0  0  0  0
  -23.9844  -27.2704   19.0108 H   0  0  0  0  0  0
  -22.7881  -29.2219   19.8489 H   0  0  0  0  0  0
  -23.8087  -30.5514   19.3964 H   0  0  0  0  0  0
  -25.1308  -36.1850   25.0802 H   0  0  0  0  0  0
  -21.0023  -28.3306   24.1367 H   0  0  0  0  0  0
  -20.5699  -26.2355   23.3605 H   0  0  0  0  0  0
  -21.6674  -26.7451   22.1199 H   0  0  0  0  0  0
  -19.6954  -25.6306   21.1261 H   0  0  0  0  0  0
  -19.6699  -27.3205   20.6720 H   0  0  0  0  0  0
  -17.4220  -26.6665   21.4039 H   0  0  0  0  0  0
  -18.0365  -26.0071   22.9033 H   0  0  0  0  0  0
  -19.7948  -30.7306   24.2248 H   0  0  0  0  0  0
  -17.5009  -31.6260   24.5168 H   0  0  0  0  0  0
  -15.5356  -30.2959   23.7681 H   0  0  0  0  0  0
  -15.8697  -28.0815   22.7069 H   0  0  0  0  0  0
  -24.5893  -30.7088   25.7717 H   0  0  0  0  0  0
  -24.8903  -32.2917   26.4786 H   0  0  0  0  0  0
  -25.7996  -30.8931   27.0208 H   0  0  0  0  0  0
  -26.3014  -29.6674   24.1284 H   0  0  0  0  0  0
  -27.4020  -29.7255   25.4847 H   0  0  0  0  0  0
  -27.8918  -30.4200   23.9592 H   0  0  0  0  0  0
  -27.2637  -33.3643   26.2023 H   0  0  0  0  0  0
  -28.3891  -32.6872   25.0345 H   0  0  0  0  0  0
  -28.0705  -31.8498   26.5456 H   0  0  0  0  0  0
  -28.2586  -38.0077   24.7510 H   0  0  0  0  0  0
  -28.1065  -36.2610   24.6301 H   0  0  0  0  0  0
  -27.2293  -37.1432   25.8869 H   0  0  0  0  0  0
  -20.9462  -29.8815   21.6835 H   0  0  0  0  0  0
  -26.0149  -38.2804   24.1404 H   0  0  0  0  0  0
  -31.1102  -19.3362   20.7328 H   0  0  0  0  0  0
  -24.8851  -17.5923   19.6539 H   0  0  0  0  0  0
  -25.5455  -19.1776   19.8952 H   0  0  0  0  0  0
  -25.8714  -17.9201   21.0800 H   0  0  0  0  0  0
  -25.9603  -17.3293   17.3807 H   0  0  0  0  0  0
  -27.6567  -17.6514   17.1169 H   0  0  0  0  0  0
  -26.5788  -18.9709   17.5247 H   0  0  0  0  0  0
  -28.6692  -15.7013   18.1763 H   0  0  0  0  0  0
  -29.6987  -16.9191   17.4339 H   0  0  0  0  0  0
  -30.2935  -15.3121   17.6853 H   0  0  0  0  0  0
  -31.5876  -17.8824   18.4231 H   0  0  0  0  0  0
  -32.2661  -16.2942   18.5846 H   0  0  0  0  0  0
  -32.2271  -17.3687   19.9715 H   0  0  0  0  0  0
  -29.9187  -22.0929   21.4081 H   0  0  0  0  0  0
  -28.2306  -21.9077   21.5616 H   0  0  0  0  0  0
  -28.0907  -23.0304   19.1078 H   0  0  0  0  0  0
  -29.7001  -23.5454   19.4416 H   0  0  0  0  0  0
  -28.5108  -24.7388   21.6087 H   0  0  0  0  0  0
  -27.0633  -24.5490   20.7187 H   0  0  0  0  0  0
  -27.2107  -16.6346   19.4113 H   0  0  0  0  0  0
  1 25  1  0  0  0
  1 30  2  0  0  0
  1 82  1  0  0  0
  2  3  1  0  0  0
  2 25  1  0  0  0
  2 85  1  0  0  0
  2 86  1  0  0  0
  3  4  1  0  0  0
  3 87  1  0  0  0
  3 88  1  0  0  0
  4  5  1  0  0  0
  4 89  1  0  0  0
  4 90  1  0  0  0
  5  6  1  0  0  0
  5 26  1  0  0  0
  5 91  1  0  0  0
  6 25  1  0  0  0
  6 92  1  0  0  0
  6 93  1  0  0  0
  7  8  2  0  0  0
  7 26  1  0  0  0
  7 29  1  0  0  0
  8  9  1  0  0  0
  8 22  1  0  0  0
  9 10  1  0  0  0
  9 27  2  0  0  0
 10 11  2  0  0  0
 10 15  1  0  0  0
 11 12  1  0  0  0
 11 94  1  0  0  0
 12 13  2  0  0  0
 12 95  1  0  0  0
 13 14  1  0  0  0
 13 31  1  0  0  0
 14 15  2  0  0  0
 14 96  1  0  0  0
 15 97  1  0  0  0
 16 17  2  0  0  0
 16 21  1  0  0  0
 16 31  1  0  0  0
 17 18  1  0  0  0
 17 98  1  0  0  0
 18 19  2  0  0  0
 18 99  1  0  0  0
 19 20  1  0  0  0
 19 24  1  0  0  0
 20 21  2  0  0  0
 20100  1  0  0  0
 21 23  1  0  0  0
 22 28  1  0  0  0
 22 32  2  0  0  0
 26 27  1  0  0  0
 28101  1  0  0  0
 28102  1  0  0  0
 29103  1  0  0  0
 29104  1  0  0  0
 33 34  1  0  0  0
 33 66  1  0  0  0
 33 70  2  0  0  0
 34 36  1  0  0  0
 34 59  1  0  0  0
 34105  1  0  0  0
 35 44  2  0  0  0
 35 45  1  0  0  0
 35 68  1  0  0  0
 36 56  1  0  0  0
 36106  1  0  0  0
 37 39  1  0  0  0
 37 47  1  0  0  0
 37 66  1  0  0  0
 37107  1  0  0  0
 38 43  2  0  0  0
 38 46  1  0  0  0
 38 47  1  0  0  0
 39 64  1  0  0  0
 39 67  2  0  0  0
 40 52  1  0  0  0
 40 53  2  0  0  0
 40 58  1  0  0  0
 41108  1  0  0  0
 41109  1  0  0  0
 41110  1  0  0  0
 41 48  1  0  0  0
 42 43  1  0  0  0
 42 66  1  0  0  0
 42111  1  0  0  0
 42112  1  0  0  0
 43 44  1  0  0  0
 44113  1  0  0  0
 45 46  2  0  0  0
 45114  1  0  0  0
 46115  1  0  0  0
 47116  1  0  0  0
 47117  1  0  0  0
 48 56  1  0  0  0
 48 65  1  0  0  0
 48118  1  0  0  0
 49 50  1  0  0  0
 49 53  1  0  0  0
 49 64  1  0  0  0
 49119  1  0  0  0
 50 51  1  0  0  0
 50120  1  0  0  0
 50121  1  0  0  0
 51 52  1  0  0  0
 51122  1  0  0  0
 51123  1  0  0  0
 52124  1  0  0  0
 52125  1  0  0  0
 53 54  1  0  0  0
 54 55  2  0  0  0
 54126  1  0  0  0
 55 57  1  0  0  0
 55127  1  0  0  0
 56 69  2  0  0  0
 57 58  2  0  0  0
 57128  1  0  0  0
 58129  1  0  0  0
 59 60  1  0  0  0
 59 61  1  0  0  0
 59 62  1  0  0  0
 60130  1  0  0  0
 60131  1  0  0  0
 60132  1  0  0  0
 61133  1  0  0  0
 61134  1  0  0  0
 61135  1  0  0  0
 62136  1  0  0  0
 62137  1  0  0  0
 62138  1  0  0  0
 63 65  1  0  0  0
 63139  1  0  0  0
 63140  1  0  0  0
 63141  1  0  0  0
 64142  1  0  0  0
 65143  1  0  0  0
 68 80  1  0  0  0
 71 72  1  0  0  0
 71 73  2  0  0  0
 71144  1  0  0  0
 72 78  1  0  0  0
 72 83  2  0  0  0
 73 82  1  0  0  0
 73 84  1  0  0  0
 74145  1  0  0  0
 74146  1  0  0  0
 74147  1  0  0  0
 74 81  1  0  0  0
 75 81  1  0  0  0
 75148  1  0  0  0
 75149  1  0  0  0
 75150  1  0  0  0
 76151  1  0  0  0
 76152  1  0  0  0
 76153  1  0  0  0
 76 82  1  0  0  0
 77 82  1  0  0  0
 77154  1  0  0  0
 77155  1  0  0  0
 77156  1  0  0  0
 78 79  1  0  0  0
 78157  1  0  0  0
 78158  1  0  0  0
 79 80  1  0  0  0
 79159  1  0  0  0
 79160  1  0  0  0
 80161  1  0  0  0
 80162  1  0  0  0
 81 84  1  0  0  0
 81163  1  0  0  0
 83 84  1  0  0  0
M  ISO  4   1 100  68 101  80 101  82 100
M  END
> <chiral flag>
0

> <version>
0

> <s_m_source_file>
/data/baiqing/PycharmProjects/Reinvent-master-3.2/result/LINK_invent/BTK/process_docking_weight1_custom_sum_contain_oxygen_bond_distance_aromatic_linkinvent_7_9_3/rearranged_h_0073.sdf

> <i_m_source_file_index>
82

> <r_mmod_Potential_Energy-OPLS-2005>
796.382141113281

> <r_mmod_Stretch_Energy-OPLS-2005>
287.114776611328

> <r_mmod_Bend_Energy-OPLS-2005>
360.260009765625

> <r_mmod_Torsional_Energy-OPLS-2005>
288.915344238281

> <r_mmod_Improper_Torsional_Energy-OPLS-2005>
25.2493877410889

> <r_mmod_Van_der_Waal_Energy-OPLS-2005>
135.70817565918

> <r_mmod_Electrostatic_Energy-OPLS-2005>
-354.832611083984

> <r_mmod_Solvation_Energy-OPLS-2005>
-186.561111450195

> <b_mmod_Minimization_Converged-OPLS-2005>
0

> <r_mmod_RMS_Derivative-OPLS-2005>
1.95290160179138

$$$$
82
                    3D
 Structure written by MMmdl.
161169  0  0  1  0            999 V2000
  -30.6937  -14.5810   20.5630 C   0  0  0  0  0  0
  -30.4280  -12.3714   19.4514 C   0  0  0  0  0  0
  -29.5023  -12.5043   18.2213 C   0  0  0  0  0  0
  -28.0197  -12.3620   18.6214 C   0  0  0  0  0  0
  -27.6558  -13.2069   19.8705 C   0  0  2  0  0  0
  -28.7013  -12.9910   20.9840 C   0  0  0  0  0  0
  -25.2555  -13.8145   20.5677 C   0  0  0  0  0  0
  -24.1815  -13.0420   20.9164 C   0  0  0  0  0  0
  -24.6379  -11.6892   20.8734 C   0  0  0  0  0  0
  -23.9047  -10.4283   21.0409 C   0  0  0  0  0  0
  -24.3604   -9.4204   21.9186 C   0  0  0  0  0  0
  -23.6280   -8.2240   22.0757 C   0  0  0  0  0  0
  -22.4265   -8.0278   21.3542 C   0  0  0  0  0  0
  -21.9896   -9.0248   20.4645 C   0  0  0  0  0  0
  -22.7225  -10.2123   20.3053 C   0  0  0  0  0  0
  -21.6852   -6.0735   22.5276 C   0  0  0  0  0  0
  -21.4026   -6.5641   23.8210 C   0  0  0  0  0  0
  -21.3658   -5.6792   24.9167 C   0  0  0  0  0  0
  -21.6042   -4.3053   24.7221 C   0  0  0  0  0  0
  -21.8824   -3.8146   23.4340 C   0  0  0  0  0  0
  -21.9194   -4.6963   22.3398 C   0  0  0  0  0  0
  -22.7845  -13.5224   21.1830 C   0  0  0  0  0  0
  -22.1659   -4.2148   21.0976 F   0  0  0  0  0  0
  -21.5617   -3.4542   25.7735 F   0  0  0  0  0  0
  -30.0147  -13.3855   20.4518 N   0  0  0  0  0  0
  -26.2992  -12.9316   20.3350 N   0  0  0  0  0  0
  -25.9306  -11.6477   20.5765 N   0  0  0  0  0  0
  -22.0493  -12.8224   22.0401 N   0  0  0  0  0  0
  -25.4227  -15.1865   20.4124 N   0  0  0  0  0  0
  -31.8291  -14.6480   20.0821 O   0  0  0  0  0  0
  -21.6630   -6.8878   21.4238 O   0  0  0  0  0  0
  -22.3533  -14.5534   20.6682 O   0  0  0  0  0  0
  -24.6215  -31.8658   23.2094 C   0  0  0  0  0  0
  -25.9087  -32.4813   23.8394 C   0  0  1  0  0  0
  -27.2211  -27.3724   20.0986 C   0  0  0  0  0  0
  -25.5923  -33.8610   24.2318 N   0  0  0  0  0  0
  -23.4114  -30.4934   21.5525 C   0  0  2  0  0  0
  -24.8555  -28.9658   20.1101 C   0  0  0  0  0  0
  -22.7451  -29.4654   22.4972 C   0  0  0  0  0  0
  -18.0281  -28.1379   22.8490 C   0  0  0  0  0  0
  -24.1489  -36.7309   23.2636 C   0  0  0  0  0  0
  -25.9499  -30.8129   21.3742 C   0  0  0  0  0  0
  -26.0245  -29.4468   20.7136 C   0  0  0  0  0  0
  -27.2105  -28.6607   20.7036 C   0  0  0  0  0  0
  -26.0273  -26.9459   19.4613 C   0  0  0  0  0  0
  -24.8564  -27.7175   19.4773 C   0  0  0  0  0  0
  -23.6212  -29.8373   20.1644 C   0  0  0  0  0  0
  -25.4111  -36.3103   24.0333 C   0  0  1  0  0  0
  -20.5877  -28.3677   23.1303 C   0  0  2  0  0  0
  -20.6774  -26.9409   22.5411 C   0  0  0  0  0  0
  -19.5747  -26.6385   21.5216 C   0  0  0  0  0  0
  -18.1928  -26.7923   22.1629 C   0  0  0  0  0  0
  -19.1532  -28.8845   23.2891 C   0  0  0  0  0  0
  -18.9456  -30.1452   23.8901 C   0  0  0  0  0  0
  -17.6456  -30.6584   24.0565 C   0  0  0  0  0  0
  -25.9044  -34.9470   23.5122 C   0  0  0  0  0  0
  -16.5348  -29.9083   23.6329 C   0  0  0  0  0  0
  -16.7270  -28.6500   23.0349 C   0  0  0  0  0  0
  -26.4485  -31.6598   25.0737 C   0  0  0  0  0  0
  -25.3735  -31.3720   26.1474 C   0  0  0  0  0  0
  -27.0316  -30.3030   24.6148 C   0  0  0  0  0  0
  -27.6054  -32.4321   25.7502 C   0  0  0  0  0  0
  -27.5580  -37.1811   24.8465 C   0  0  0  0  0  0
  -21.4171  -29.3042   22.3708 N   0  0  0  0  0  0
  -26.4294  -37.3790   23.9407 N   0  0  0  0  0  0
  -24.6797  -31.0714   22.1029 N   0  0  0  0  0  0
  -23.4200  -28.8184   23.3024 O   0  0  0  0  0  0
  -28.3405  -26.5336   20.1587 O   0  0  0  0  0  0
  -26.5604  -34.8925   22.4682 O   0  0  0  0  0  0
  -23.5391  -32.1433   23.7451 O   0  0  0  0  0  0
  -30.3089  -20.9375   20.0536 C   0  0  0  0  0  0
  -30.7079  -19.5753   19.9778 C   0  0  0  0  0  0
  -28.9902  -21.2172   20.4741 C   0  0  0  0  0  0
  -29.7738  -18.5621   20.3174 C   0  0  0  0  0  0
  -29.0525  -16.6435   18.8417 C   0  0  0  0  0  0
  -28.8554  -15.9152   21.9720 C   0  0  0  0  0  0
  -31.2347  -16.4903   22.1219 C   0  0  0  0  0  0
  -28.2919  -22.5943   20.3571 C   0  0  0  0  0  0
  -29.0530  -23.9700   20.4013 C   0  0  0  0  0  0
  -28.0499  -25.1087   20.0048 C   0  0  0  0  0  0
  -30.0240  -17.0586   19.9679 C   0  0  2  0  0  0
  -30.1533  -15.9754   21.1366 C   0  0  0  0  0  0
  -28.1668  -20.2014   20.8538 N   0  0  0  0  0  0
  -28.5422  -18.9135   20.7745 N   0  0  0  0  0  0
  -31.4690  -12.4698   19.1426 H   0  0  0  0  0  0
  -30.3578  -11.3678   19.8736 H   0  0  0  0  0  0
  -29.7575  -11.7488   17.4776 H   0  0  0  0  0  0
  -29.6653  -13.4688   17.7404 H   0  0  0  0  0  0
  -27.8325  -11.3067   18.8230 H   0  0  0  0  0  0
  -27.3756  -12.6288   17.7835 H   0  0  0  0  0  0
  -27.6896  -14.2500   19.5651 H   0  0  0  0  0  0
  -28.7215  -11.9344   21.2555 H   0  0  0  0  0  0
  -28.4260  -13.4693   21.9144 H   0  0  0  0  0  0
  -25.2749   -9.5686   22.4754 H   0  0  0  0  0  0
  -23.9991   -7.4636   22.7476 H   0  0  0  0  0  0
  -21.0826   -8.8766   19.8951 H   0  0  0  0  0  0
  -22.3689  -10.9656   19.6155 H   0  0  0  0  0  0
  -21.2035   -7.6152   23.9718 H   0  0  0  0  0  0
  -21.1469   -6.0517   25.9068 H   0  0  0  0  0  0
  -22.0604   -2.7607   23.2834 H   0  0  0  0  0  0
  -22.4111  -11.9877   22.4776 H   0  0  0  0  0  0
  -21.1120  -13.1262   22.2620 H   0  0  0  0  0  0
  -24.6626  -15.8429   20.5534 H   0  0  0  0  0  0
  -26.2885  -15.6356   20.1461 H   0  0  0  0  0  0
  -26.7155  -32.5499   23.1149 H   0  0  0  0  0  0
  -25.0077  -33.9766   25.0465 H   0  0  0  0  0  0
  -22.7025  -31.3128   21.4171 H   0  0  0  0  0  0
  -23.3746  -35.9647   23.3307 H   0  0  0  0  0  0
  -24.3580  -36.8916   22.2049 H   0  0  0  0  0  0
  -23.7248  -37.6519   23.6646 H   0  0  0  0  0  0
  -26.0742  -31.5799   20.6084 H   0  0  0  0  0  0
  -26.8335  -30.8594   21.9987 H   0  0  0  0  0  0
  -28.1048  -29.0238   21.1904 H   0  0  0  0  0  0
  -25.9542  -26.0004   18.9467 H   0  0  0  0  0  0
  -23.9624  -27.3454   18.9956 H   0  0  0  0  0  0
  -23.7340  -30.6178   19.4110 H   0  0  0  0  0  0
  -22.7425  -29.2637   19.8634 H   0  0  0  0  0  0
  -25.1288  -36.1966   25.0825 H   0  0  0  0  0  0
  -20.9968  -28.3244   24.1426 H   0  0  0  0  0  0
  -20.5691  -26.2285   23.3603 H   0  0  0  0  0  0
  -21.6642  -26.7456   22.1196 H   0  0  0  0  0  0
  -19.6911  -25.6299   21.1240 H   0  0  0  0  0  0
  -19.6681  -27.3201   20.6752 H   0  0  0  0  0  0
  -17.4199  -26.6672   21.4032 H   0  0  0  0  0  0
  -18.0329  -26.0063   22.9024 H   0  0  0  0  0  0
  -19.7932  -30.7270   24.2269 H   0  0  0  0  0  0
  -17.5010  -31.6264   24.5167 H   0  0  0  0  0  0
  -15.5348  -30.2986   23.7650 H   0  0  0  0  0  0
  -15.8671  -28.0823   22.7057 H   0  0  0  0  0  0
  -24.5904  -30.7074   25.7808 H   0  0  0  0  0  0
  -24.8932  -32.2882   26.4920 H   0  0  0  0  0  0
  -25.8074  -30.8885   27.0236 H   0  0  0  0  0  0
  -26.2873  -29.6798   24.1176 H   0  0  0  0  0  0
  -27.4039  -29.7262   25.4625 H   0  0  0  0  0  0
  -27.8734  -30.4330   23.9342 H   0  0  0  0  0  0
  -27.2669  -33.3614   26.2095 H   0  0  0  0  0  0
  -28.3855  -32.6894   25.0325 H   0  0  0  0  0  0
  -28.0732  -31.8437   26.5405 H   0  0  0  0  0  0
  -28.2606  -38.0100   24.7506 H   0  0  0  0  0  0
  -28.1067  -36.2632   24.6300 H   0  0  0  0  0  0
  -27.2295  -37.1474   25.8868 H   0  0  0  0  0  0
  -20.9338  -29.8777   21.6935 H   0  0  0  0  0  0
  -26.0181  -38.2869   24.1402 H   0  0  0  0  0  0
  -30.9686  -21.7286   19.7293 H   0  0  0  0  0  0
  -31.6822  -19.3169   19.5893 H   0  0  0  0  0  0
  -29.1176  -17.3402   18.0055 H   0  0  0  0  0  0
  -28.0173  -16.6455   19.1825 H   0  0  0  0  0  0
  -29.2752  -15.6561   18.4433 H   0  0  0  0  0  0
  -28.6066  -16.8874   22.3946 H   0  0  0  0  0  0
  -28.9612  -15.2591   22.8352 H   0  0  0  0  0  0
  -27.9911  -15.6154   21.3867 H   0  0  0  0  0  0
  -31.4491  -15.7541   22.8977 H   0  0  0  0  0  0
  -30.9232  -17.4058   22.6262 H   0  0  0  0  0  0
  -32.1762  -16.7136   21.6184 H   0  0  0  0  0  0
  -27.5191  -22.6240   21.1269 H   0  0  0  0  0  0
  -27.7472  -22.5476   19.4131 H   0  0  0  0  0  0
  -29.8962  -23.9702   19.7108 H   0  0  0  0  0  0
  -29.4546  -24.1379   21.4009 H   0  0  0  0  0  0
  -27.1475  -24.9031   20.5844 H   0  0  0  0  0  0
  -27.8037  -24.9381   18.9559 H   0  0  0  0  0  0
  -31.0014  -17.0679   19.4833 H   0  0  0  0  0  0
  1 25  1  0  0  0
  1 30  2  0  0  0
  1 82  1  0  0  0
  2  3  1  0  0  0
  2 25  1  0  0  0
  2 85  1  0  0  0
  2 86  1  0  0  0
  3  4  1  0  0  0
  3 87  1  0  0  0
  3 88  1  0  0  0
  4  5  1  0  0  0
  4 89  1  0  0  0
  4 90  1  0  0  0
  5  6  1  0  0  0
  5 26  1  0  0  0
  5 91  1  0  0  0
  6 25  1  0  0  0
  6 92  1  0  0  0
  6 93  1  0  0  0
  7  8  2  0  0  0
  7 26  1  0  0  0
  7 29  1  0  0  0
  8  9  1  0  0  0
  8 22  1  0  0  0
  9 10  1  0  0  0
  9 27  2  0  0  0
 10 11  2  0  0  0
 10 15  1  0  0  0
 11 12  1  0  0  0
 11 94  1  0  0  0
 12 13  2  0  0  0
 12 95  1  0  0  0
 13 14  1  0  0  0
 13 31  1  0  0  0
 14 15  2  0  0  0
 14 96  1  0  0  0
 15 97  1  0  0  0
 16 17  2  0  0  0
 16 21  1  0  0  0
 16 31  1  0  0  0
 17 18  1  0  0  0
 17 98  1  0  0  0
 18 19  2  0  0  0
 18 99  1  0  0  0
 19 20  1  0  0  0
 19 24  1  0  0  0
 20 21  2  0  0  0
 20100  1  0  0  0
 21 23  1  0  0  0
 22 28  1  0  0  0
 22 32  2  0  0  0
 26 27  1  0  0  0
 28101  1  0  0  0
 28102  1  0  0  0
 29103  1  0  0  0
 29104  1  0  0  0
 33 34  1  0  0  0
 33 66  1  0  0  0
 33 70  2  0  0  0
 34 36  1  0  0  0
 34 59  1  0  0  0
 34105  1  0  0  0
 35 44  2  0  0  0
 35 45  1  0  0  0
 35 68  1  0  0  0
 36 56  1  0  0  0
 36106  1  0  0  0
 37 39  1  0  0  0
 37 47  1  0  0  0
 37 66  1  0  0  0
 37107  1  0  0  0
 38 43  2  0  0  0
 38 46  1  0  0  0
 38 47  1  0  0  0
 39 64  1  0  0  0
 39 67  2  0  0  0
 40 52  1  0  0  0
 40 53  2  0  0  0
 40 58  1  0  0  0
 41108  1  0  0  0
 41109  1  0  0  0
 41110  1  0  0  0
 41 48  1  0  0  0
 42 43  1  0  0  0
 42 66  1  0  0  0
 42111  1  0  0  0
 42112  1  0  0  0
 43 44  1  0  0  0
 44113  1  0  0  0
 45 46  2  0  0  0
 45114  1  0  0  0
 46115  1  0  0  0
 47116  1  0  0  0
 47117  1  0  0  0
 48 56  1  0  0  0
 48 65  1  0  0  0
 48118  1  0  0  0
 49 50  1  0  0  0
 49 53  1  0  0  0
 49 64  1  0  0  0
 49119  1  0  0  0
 50 51  1  0  0  0
 50120  1  0  0  0
 50121  1  0  0  0
 51 52  1  0  0  0
 51122  1  0  0  0
 51123  1  0  0  0
 52124  1  0  0  0
 52125  1  0  0  0
 53 54  1  0  0  0
 54 55  2  0  0  0
 54126  1  0  0  0
 55 57  1  0  0  0
 55127  1  0  0  0
 56 69  2  0  0  0
 57 58  2  0  0  0
 57128  1  0  0  0
 58129  1  0  0  0
 59 60  1  0  0  0
 59 61  1  0  0  0
 59 62  1  0  0  0
 60130  1  0  0  0
 60131  1  0  0  0
 60132  1  0  0  0
 61133  1  0  0  0
 61134  1  0  0  0
 61135  1  0  0  0
 62136  1  0  0  0
 62137  1  0  0  0
 62138  1  0  0  0
 63 65  1  0  0  0
 63139  1  0  0  0
 63140  1  0  0  0
 63141  1  0  0  0
 64142  1  0  0  0
 65143  1  0  0  0
 68 80  1  0  0  0
 71 72  2  0  0  0
 71 73  1  0  0  0
 71144  1  0  0  0
 72 74  1  0  0  0
 72145  1  0  0  0
 73 78  1  0  0  0
 73 83  2  0  0  0
 74 81  1  0  0  0
 74 84  2  0  0  0
 75146  1  0  0  0
 75147  1  0  0  0
 75148  1  0  0  0
 75 81  1  0  0  0
 76149  1  0  0  0
 76150  1  0  0  0
 76151  1  0  0  0
 76 82  1  0  0  0
 77 82  1  0  0  0
 77152  1  0  0  0
 77153  1  0  0  0
 77154  1  0  0  0
 78 79  1  0  0  0
 78155  1  0  0  0
 78156  1  0  0  0
 79 80  1  0  0  0
 79157  1  0  0  0
 79158  1  0  0  0
 80159  1  0  0  0
 80160  1  0  0  0
 81 82  1  0  0  0
 81161  1  0  0  0
 83 84  1  0  0  0
M  ISO  4   1 100  68 101  80 101  82 100
M  END
> <chiral flag>
0

> <version>
0

> <s_m_source_file>
/data/baiqing/PycharmProjects/Reinvent-master-3.2/result/LINK_invent/BTK/process_docking_weight1_custom_sum_contain_oxygen_bond_distance_aromatic_linkinvent_7_9_3/rearranged_h_0073.sdf

> <i_m_source_file_index>
83

> <r_mmod_Potential_Energy-OPLS-2005>
106.768310546875

> <r_mmod_Stretch_Energy-OPLS-2005>
70.2794723510742

> <r_mmod_Bend_Energy-OPLS-2005>
173.674270629883

> <r_mmod_Torsional_Energy-OPLS-2005>
179.573638916016

> <r_mmod_Improper_Torsional_Energy-OPLS-2005>
4.3059401512146

> <r_mmod_Van_der_Waal_Energy-OPLS-2005>
168.486740112305

> <r_mmod_Electrostatic_Energy-OPLS-2005>
-319.155120849609

> <r_mmod_Solvation_Energy-OPLS-2005>
-200.671920776367

> <b_mmod_Minimization_Converged-OPLS-2005>
0

> <r_mmod_RMS_Derivative-OPLS-2005>
0.88527250289917

$$$$
83
                    3D
 Structure written by MMmdl.
169177  0  0  1  0            999 V2000
  -30.4181  -15.3082   20.3780 C   0  0  0  0  0  0
  -30.4405  -12.8473   19.5171 C   0  0  0  0  0  0
  -29.5391  -12.5931   18.2829 C   0  0  0  0  0  0
  -28.0905  -12.3013   18.7135 C   0  0  0  0  0  0
  -27.6093  -13.2757   19.8181 C   0  0  2  0  0  0
  -28.6423  -13.4698   20.9484 C   0  0  0  0  0  0
  -25.2386  -13.8229   20.5733 C   0  0  0  0  0  0
  -24.1739  -13.0425   20.9261 C   0  0  0  0  0  0
  -24.6398  -11.6921   20.8758 C   0  0  0  0  0  0
  -23.9081  -10.4290   21.0393 C   0  0  0  0  0  0
  -24.3627   -9.4209   21.9178 C   0  0  0  0  0  0
  -23.6295   -8.2245   22.0757 C   0  0  0  0  0  0
  -22.4282   -8.0273   21.3539 C   0  0  0  0  0  0
  -21.9915   -9.0251   20.4651 C   0  0  0  0  0  0
  -22.7248  -10.2129   20.3052 C   0  0  0  0  0  0
  -21.6871   -6.0728   22.5268 C   0  0  0  0  0  0
  -21.4033   -6.5634   23.8198 C   0  0  0  0  0  0
  -21.3660   -5.6783   24.9156 C   0  0  0  0  0  0
  -21.6037   -4.3041   24.7210 C   0  0  0  0  0  0
  -21.8822   -3.8141   23.4330 C   0  0  0  0  0  0
  -21.9203   -4.6956   22.3392 C   0  0  0  0  0  0
  -22.7763  -13.5182   21.1884 C   0  0  0  0  0  0
  -22.1658   -4.2140   21.0967 F   0  0  0  0  0  0
  -21.5625   -3.4525   25.7724 F   0  0  0  0  0  0
  -29.8637  -13.9944   20.3119 N   0  0  0  0  0  0
  -26.2807  -12.9502   20.3192 N   0  0  0  0  0  0
  -25.9334  -11.6607   20.5705 N   0  0  0  0  0  0
  -22.0400  -12.8194   22.0441 N   0  0  0  0  0  0
  -25.4020  -15.1961   20.4164 N   0  0  0  0  0  0
  -31.6482  -15.3070   20.2178 O   0  0  0  0  0  0
  -21.6648   -6.8869   21.4231 O   0  0  0  0  0  0
  -22.3454  -14.5479   20.6696 O   0  0  0  0  0  0
  -24.6666  -31.8190   23.1668 C   0  0  0  0  0  0
  -25.9335  -32.4569   23.8145 C   0  0  1  0  0  0
  -27.2257  -26.8979   20.2000 C   0  0  0  0  0  0
  -25.5984  -33.8380   24.2061 N   0  0  0  0  0  0
  -23.4832  -30.4301   21.5154 C   0  0  2  0  0  0
  -24.9382  -28.8065   20.1147 C   0  0  0  0  0  0
  -22.7685  -29.4435   22.4764 C   0  0  0  0  0  0
  -18.0337  -28.1395   22.8472 C   0  0  0  0  0  0
  -24.1498  -36.7190   23.2649 C   0  0  0  0  0  0
  -26.0527  -30.6183   21.3996 C   0  0  0  0  0  0
  -26.1213  -29.2030   20.7503 C   0  0  0  0  0  0
  -27.2580  -28.2710   20.7657 C   0  0  0  0  0  0
  -26.0126  -26.6596   19.5139 C   0  0  0  0  0  0
  -24.9110  -27.5567   19.4744 C   0  0  0  0  0  0
  -23.7249  -29.7375   20.1446 C   0  0  0  0  0  0
  -25.4140  -36.2950   24.0302 C   0  0  1  0  0  0
  -20.5964  -28.3747   23.1177 C   0  0  2  0  0  0
  -20.6797  -26.9419   22.5398 C   0  0  0  0  0  0
  -19.5768  -26.6368   21.5211 C   0  0  0  0  0  0
  -18.1959  -26.7931   22.1625 C   0  0  0  0  0  0
  -19.1598  -28.8891   23.2812 C   0  0  0  0  0  0
  -18.9498  -30.1480   23.8844 C   0  0  0  0  0  0
  -17.6488  -30.6582   24.0548 C   0  0  0  0  0  0
  -25.9107  -34.9335   23.5008 C   0  0  0  0  0  0
  -16.5384  -29.9063   23.6333 C   0  0  0  0  0  0
  -16.7319  -28.6481   23.0363 C   0  0  0  0  0  0
  -26.4570  -31.6521   25.0686 C   0  0  0  0  0  0
  -25.3693  -31.3764   26.1341 C   0  0  0  0  0  0
  -27.0467  -30.2886   24.6422 C   0  0  0  0  0  0
  -27.6066  -32.4323   25.7488 C   0  0  0  0  0  0
  -27.5571  -37.1756   24.8465 C   0  0  0  0  0  0
  -21.4353  -29.3040   22.3514 N   0  0  0  0  0  0
  -26.4281  -37.3691   23.9408 N   0  0  0  0  0  0
  -24.7558  -30.9838   22.0810 N   0  0  0  0  0  0
  -23.4215  -28.8012   23.3026 O   0  0  0  0  0  0
  -28.2300  -25.7858   20.2890 O   0  0  0  0  0  0
  -26.5717  -34.8877   22.4604 O   0  0  0  0  0  0
  -23.5729  -32.1168   23.6746 O   0  0  0  0  0  0
  -28.1455  -20.0249   17.8970 C   0  0  0  0  0  0
  -28.8256  -21.1587   18.2611 C   0  0  0  0  0  0
  -29.0968  -19.5957   19.8570 C   0  0  0  0  0  0
  -29.3296  -21.3874   22.8496 C   0  0  0  0  0  0
  -29.1585  -21.6632   15.8031 C   0  0  0  0  0  0
  -31.0491  -21.8800   17.3742 C   0  0  0  0  0  0
  -29.1945  -23.5889   17.2920 C   0  0  0  0  0  0
  -30.4032  -23.0462   20.6896 C   0  0  0  0  0  0
  -29.8205  -18.2415   20.6890 C   0  0  0  0  0  0
  -28.4120  -22.2388   21.9489 C   0  0  0  0  0  0
  -27.9977  -24.1403   20.1480 C   0  0  0  0  0  0
  -29.5248  -22.0902   17.2477 C   0  0  0  0  0  0
  -28.9357  -22.5953   20.5246 C   0  0  1  0  0  0
  -28.9257  -21.0912   19.6686 N   0  0  0  0  0  0
  -28.3922  -19.0958   18.8459 N   0  3  0  0  0  0
  -29.6345  -16.5788   20.4306 N   0  0  0  0  0  0
  -31.4549  -13.0700   19.1816 H   0  0  0  0  0  0
  -30.5238  -11.9481   20.1299 H   0  0  0  0  0  0
  -29.9317  -11.7670   17.6892 H   0  0  0  0  0  0
  -29.5596  -13.4729   17.6372 H   0  0  0  0  0  0
  -28.0579  -11.2782   19.0876 H   0  0  0  0  0  0
  -27.4237  -12.3319   17.8509 H   0  0  0  0  0  0
  -27.5167  -14.2395   19.3162 H   0  0  0  0  0  0
  -28.8255  -12.5416   21.4913 H   0  0  0  0  0  0
  -28.2727  -14.1897   21.6807 H   0  0  0  0  0  0
  -25.2766   -9.5691   22.4749 H   0  0  0  0  0  0
  -23.9999   -7.4649   22.7496 H   0  0  0  0  0  0
  -21.0835   -8.8768   19.8970 H   0  0  0  0  0  0
  -22.3693  -10.9658   19.6153 H   0  0  0  0  0  0
  -21.2033   -7.6144   23.9695 H   0  0  0  0  0  0
  -21.1479   -6.0516   25.9056 H   0  0  0  0  0  0
  -22.0611   -2.7606   23.2831 H   0  0  0  0  0  0
  -22.4005  -11.9870   22.4867 H   0  0  0  0  0  0
  -21.1009  -13.1227   22.2610 H   0  0  0  0  0  0
  -24.6290  -15.8434   20.5258 H   0  0  0  0  0  0
  -26.2341  -15.6350   20.0499 H   0  0  0  0  0  0
  -26.7416  -32.5103   23.0863 H   0  0  0  0  0  0
  -25.0083  -33.9440   25.0181 H   0  0  0  0  0  0
  -22.7997  -31.2632   21.3397 H   0  0  0  0  0  0
  -23.3773  -35.9505   23.3273 H   0  0  0  0  0  0
  -24.3586  -36.8866   22.2070 H   0  0  0  0  0  0
  -23.7237  -37.6363   23.6727 H   0  0  0  0  0  0
  -26.2359  -31.3542   20.6153 H   0  0  0  0  0  0
  -26.9124  -30.6786   22.0547 H   0  0  0  0  0  0
  -28.1524  -28.5763   21.2895 H   0  0  0  0  0  0
  -25.8834  -25.7060   19.0231 H   0  0  0  0  0  0
  -24.0138  -27.2483   18.9550 H   0  0  0  0  0  0
  -23.8768  -30.4996   19.3793 H   0  0  0  0  0  0
  -22.8351  -29.1876   19.8330 H   0  0  0  0  0  0
  -25.1345  -36.1742   25.0794 H   0  0  0  0  0  0
  -21.0073  -28.3350   24.1297 H   0  0  0  0  0  0
  -20.5647  -26.2373   23.3645 H   0  0  0  0  0  0
  -21.6658  -26.7362   22.1222 H   0  0  0  0  0  0
  -19.6908  -25.6267   21.1265 H   0  0  0  0  0  0
  -19.6697  -27.3151   20.6715 H   0  0  0  0  0  0
  -17.4229  -26.6687   21.4028 H   0  0  0  0  0  0
  -18.0345  -26.0076   22.9019 H   0  0  0  0  0  0
  -19.7975  -30.7307   24.2190 H   0  0  0  0  0  0
  -17.5038  -31.6259   24.5143 H   0  0  0  0  0  0
  -15.5376  -30.2934   23.7680 H   0  0  0  0  0  0
  -15.8732  -28.0765   22.7111 H   0  0  0  0  0  0
  -24.5907  -30.7079   25.7644 H   0  0  0  0  0  0
  -24.8845  -32.2955   26.4641 H   0  0  0  0  0  0
  -25.7933  -30.9014   27.0198 H   0  0  0  0  0  0
  -26.3132  -29.6565   24.1404 H   0  0  0  0  0  0
  -27.3971  -29.7253   25.5080 H   0  0  0  0  0  0
  -27.9088  -30.4070   23.9856 H   0  0  0  0  0  0
  -27.2655  -33.3674   26.1936 H   0  0  0  0  0  0
  -28.3949  -32.6792   25.0367 H   0  0  0  0  0  0
  -28.0654  -31.8522   26.5503 H   0  0  0  0  0  0
  -28.2570  -38.0066   24.7522 H   0  0  0  0  0  0
  -28.1085  -36.2600   24.6290 H   0  0  0  0  0  0
  -27.2289  -37.1388   25.8864 H   0  0  0  0  0  0
  -20.9614  -29.8728   21.6636 H   0  0  0  0  0  0
  -26.0123  -38.2749   24.1406 H   0  0  0  0  0  0
  -27.7616  -19.7086   16.9373 H   0  0  0  0  0  0
  -28.7767  -20.9978   23.7056 H   0  0  0  0  0  0
  -30.1528  -21.9826   23.2473 H   0  0  0  0  0  0
  -29.7709  -20.5444   22.3277 H   0  0  0  0  0  0
  -29.4539  -20.6349   15.5865 H   0  0  0  0  0  0
  -29.6642  -22.2794   15.0594 H   0  0  0  0  0  0
  -28.0880  -21.7557   15.6156 H   0  0  0  0  0  0
  -31.6023  -22.4984   16.6661 H   0  0  0  0  0  0
  -31.3195  -20.8431   17.1714 H   0  0  0  0  0  0
  -31.4320  -22.1077   18.3641 H   0  0  0  0  0  0
  -28.1293  -23.7687   17.1533 H   0  0  0  0  0  0
  -29.6864  -24.1164   16.4733 H   0  0  0  0  0  0
  -29.5543  -24.0888   18.1811 H   0  0  0  0  0  0
  -30.5039  -23.7418   21.5231 H   0  0  0  0  0  0
  -30.7864  -23.5749   19.8239 H   0  0  0  0  0  0
  -31.0692  -22.2046   20.8832 H   0  0  0  0  0  0
  -29.5474  -18.3950   21.7324 H   0  0  0  0  0  0
  -30.8917  -18.4419   20.6402 H   0  0  0  0  0  0
  -28.1926  -23.1517   22.5054 H   0  0  0  0  0  0
  -27.4531  -21.7303   21.8438 H   0  0  0  0  0  0
  -27.0955  -24.0274   20.7491 H   0  0  0  0  0  0
  -27.5519  -24.0057   19.1711 H   0  0  0  0  0  0
  -28.2346  -18.1058   18.7119 H   0  0  0  0  0  0
  -28.6553  -16.3395   20.4636 H   0  0  0  0  0  0
  1 25  1  0  0  0
  1 30  2  0  0  0
  1 86  1  0  0  0
  2  3  1  0  0  0
  2 25  1  0  0  0
  2 87  1  0  0  0
  2 88  1  0  0  0
  3  4  1  0  0  0
  3 89  1  0  0  0
  3 90  1  0  0  0
  4  5  1  0  0  0
  4 91  1  0  0  0
  4 92  1  0  0  0
  5  6  1  0  0  0
  5 26  1  0  0  0
  5 93  1  0  0  0
  6 25  1  0  0  0
  6 94  1  0  0  0
  6 95  1  0  0  0
  7  8  2  0  0  0
  7 26  1  0  0  0
  7 29  1  0  0  0
  8  9  1  0  0  0
  8 22  1  0  0  0
  9 10  1  0  0  0
  9 27  2  0  0  0
 10 11  2  0  0  0
 10 15  1  0  0  0
 11 12  1  0  0  0
 11 96  1  0  0  0
 12 13  2  0  0  0
 12 97  1  0  0  0
 13 14  1  0  0  0
 13 31  1  0  0  0
 14 15  2  0  0  0
 14 98  1  0  0  0
 15 99  1  0  0  0
 16 17  2  0  0  0
 16 21  1  0  0  0
 16 31  1  0  0  0
 17 18  1  0  0  0
 17100  1  0  0  0
 18 19  2  0  0  0
 18101  1  0  0  0
 19 20  1  0  0  0
 19 24  1  0  0  0
 20 21  2  0  0  0
 20102  1  0  0  0
 21 23  1  0  0  0
 22 28  1  0  0  0
 22 32  2  0  0  0
 26 27  1  0  0  0
 28103  1  0  0  0
 28104  1  0  0  0
 29105  1  0  0  0
 29106  1  0  0  0
 33 34  1  0  0  0
 33 66  1  0  0  0
 33 70  2  0  0  0
 34 36  1  0  0  0
 34 59  1  0  0  0
 34107  1  0  0  0
 35 44  2  0  0  0
 35 45  1  0  0  0
 35 68  1  0  0  0
 36 56  1  0  0  0
 36108  1  0  0  0
 37 39  1  0  0  0
 37 47  1  0  0  0
 37 66  1  0  0  0
 37109  1  0  0  0
 38 43  2  0  0  0
 38 46  1  0  0  0
 38 47  1  0  0  0
 39 64  1  0  0  0
 39 67  2  0  0  0
 40 52  1  0  0  0
 40 53  2  0  0  0
 40 58  1  0  0  0
 41110  1  0  0  0
 41111  1  0  0  0
 41112  1  0  0  0
 41 48  1  0  0  0
 42 43  1  0  0  0
 42 66  1  0  0  0
 42113  1  0  0  0
 42114  1  0  0  0
 43 44  1  0  0  0
 44115  1  0  0  0
 45 46  2  0  0  0
 45116  1  0  0  0
 46117  1  0  0  0
 47118  1  0  0  0
 47119  1  0  0  0
 48 56  1  0  0  0
 48 65  1  0  0  0
 48120  1  0  0  0
 49 50  1  0  0  0
 49 53  1  0  0  0
 49 64  1  0  0  0
 49121  1  0  0  0
 50 51  1  0  0  0
 50122  1  0  0  0
 50123  1  0  0  0
 51 52  1  0  0  0
 51124  1  0  0  0
 51125  1  0  0  0
 52126  1  0  0  0
 52127  1  0  0  0
 53 54  1  0  0  0
 54 55  2  0  0  0
 54128  1  0  0  0
 55 57  1  0  0  0
 55129  1  0  0  0
 56 69  2  0  0  0
 57 58  2  0  0  0
 57130  1  0  0  0
 58131  1  0  0  0
 59 60  1  0  0  0
 59 61  1  0  0  0
 59 62  1  0  0  0
 60132  1  0  0  0
 60133  1  0  0  0
 60134  1  0  0  0
 61135  1  0  0  0
 61136  1  0  0  0
 61137  1  0  0  0
 62138  1  0  0  0
 62139  1  0  0  0
 62140  1  0  0  0
 63 65  1  0  0  0
 63141  1  0  0  0
 63142  1  0  0  0
 63143  1  0  0  0
 64144  1  0  0  0
 65145  1  0  0  0
 68 81  1  0  0  0
 71 72  2  0  0  0
 71 85  1  0  0  0
 71146  1  0  0  0
 72 82  1  0  0  0
 72 84  1  0  0  0
 73 79  1  0  0  0
 73 84  1  0  0  0
 73 85  2  0  0  0
 74 80  1  0  0  0
 74147  1  0  0  0
 74148  1  0  0  0
 74149  1  0  0  0
 75150  1  0  0  0
 75151  1  0  0  0
 75152  1  0  0  0
 75 82  1  0  0  0
 76 82  1  0  0  0
 76153  1  0  0  0
 76154  1  0  0  0
 76155  1  0  0  0
 77 82  1  0  0  0
 77156  1  0  0  0
 77157  1  0  0  0
 77158  1  0  0  0
 78159  1  0  0  0
 78160  1  0  0  0
 78161  1  0  0  0
 78 83  1  0  0  0
 79 86  1  0  0  0
 79162  1  0  0  0
 79163  1  0  0  0
 80 83  1  0  0  0
 80164  1  0  0  0
 80165  1  0  0  0
 81 83  1  0  0  0
 81166  1  0  0  0
 81167  1  0  0  0
 83 84  1  0  0  0
 85168  1  0  0  0
 86169  1  0  0  0
M  CHG  1  85   1
M  ISO  4   1 100  68 101  81 101  86 100
M  END
> <chiral flag>
0

> <version>
0

> <s_m_source_file>
/data/baiqing/PycharmProjects/Reinvent-master-3.2/result/LINK_invent/BTK/process_docking_weight1_custom_sum_contain_oxygen_bond_distance_aromatic_linkinvent_7_9_3/rearranged_h_0073.sdf

> <i_m_source_file_index>
84

> <r_mmod_Potential_Energy-OPLS-2005>
1574.81311035156

> <r_mmod_Stretch_Energy-OPLS-2005>
713.124206542969

> <r_mmod_Bend_Energy-OPLS-2005>
544.972778320312

> <r_mmod_Torsional_Energy-OPLS-2005>
386.223876953125

> <r_mmod_Improper_Torsional_Energy-OPLS-2005>
7.84738731384277

> <r_mmod_Van_der_Waal_Energy-OPLS-2005>
121.442001342773

> <r_mmod_Electrostatic_Energy-OPLS-2005>
-269.899871826172

> <r_mmod_Solvation_Energy-OPLS-2005>
-435.539337158203

> <b_mmod_Minimization_Converged-OPLS-2005>
0

> <r_mmod_RMS_Derivative-OPLS-2005>
2.03541016578674

$$$$
84
                    3D
 Structure written by MMmdl.
161169  0  0  1  0            999 V2000
  -30.7701  -14.3567   20.6538 C   0  0  0  0  0  0
  -30.4096  -12.2768   19.3874 C   0  0  0  0  0  0
  -29.4768  -12.5071   18.1841 C   0  0  0  0  0  0
  -28.0001  -12.3812   18.6029 C   0  0  0  0  0  0
  -27.6640  -13.2036   19.8749 C   0  0  2  0  0  0
  -28.7036  -12.9494   20.9870 C   0  0  0  0  0  0
  -25.2622  -13.8178   20.5692 C   0  0  0  0  0  0
  -24.1865  -13.0462   20.9177 C   0  0  0  0  0  0
  -24.6407  -11.6923   20.8744 C   0  0  0  0  0  0
  -23.9082  -10.4304   21.0416 C   0  0  0  0  0  0
  -24.3630   -9.4212   21.9189 C   0  0  0  0  0  0
  -23.6296   -8.2250   22.0754 C   0  0  0  0  0  0
  -22.4277   -8.0290   21.3541 C   0  0  0  0  0  0
  -21.9927   -9.0272   20.4645 C   0  0  0  0  0  0
  -22.7263  -10.2146   20.3059 C   0  0  0  0  0  0
  -21.6853   -6.0747   22.5275 C   0  0  0  0  0  0
  -21.4012   -6.5648   23.8211 C   0  0  0  0  0  0
  -21.3654   -5.6796   24.9170 C   0  0  0  0  0  0
  -21.6046   -4.3061   24.7216 C   0  0  0  0  0  0
  -21.8822   -3.8157   23.4337 C   0  0  0  0  0  0
  -21.9195   -4.6975   22.3394 C   0  0  0  0  0  0
  -22.7887  -13.5257   21.1836 C   0  0  0  0  0  0
  -22.1667   -4.2168   21.0969 F   0  0  0  0  0  0
  -21.5625   -3.4538   25.7726 F   0  0  0  0  0  0
  -30.0401  -13.2343   20.4387 N   0  0  0  0  0  0
  -26.3046  -12.9340   20.3385 N   0  0  0  0  0  0
  -25.9329  -11.6504   20.5774 N   0  0  0  0  0  0
  -22.0517  -12.8231   22.0370 N   0  0  0  0  0  0
  -25.4415  -15.1884   20.4098 N   0  0  0  0  0  0
  -31.8354  -14.5919   20.0791 O   0  0  0  0  0  0
  -21.6640   -6.8886   21.4236 O   0  0  0  0  0  0
  -22.3574  -14.5561   20.6682 O   0  0  0  0  0  0
  -24.6141  -31.8681   23.2122 C   0  0  0  0  0  0
  -25.9036  -32.4839   23.8430 C   0  0  1  0  0  0
  -27.2354  -27.4719   20.0838 C   0  0  0  0  0  0
  -25.5901  -33.8633   24.2355 N   0  0  0  0  0  0
  -23.4014  -30.4888   21.5513 C   0  0  2  0  0  0
  -24.8474  -28.9617   20.1084 C   0  0  0  0  0  0
  -22.7410  -29.4627   22.5006 C   0  0  0  0  0  0
  -18.0257  -28.1361   22.8472 C   0  0  0  0  0  0
  -24.1505  -36.7334   23.2631 C   0  0  0  0  0  0
  -25.9254  -30.8506   21.3551 C   0  0  0  0  0  0
  -26.0060  -29.4905   20.6929 C   0  0  0  0  0  0
  -27.2087  -28.7556   20.6658 C   0  0  0  0  0  0
  -26.0678  -26.9438   19.4990 C   0  0  0  0  0  0
  -24.8724  -27.6904   19.5044 C   0  0  0  0  0  0
  -23.6071  -29.8210   20.1653 C   0  0  0  0  0  0
  -25.4124  -36.3126   24.0333 C   0  0  1  0  0  0
  -20.5844  -28.3637   23.1330 C   0  0  2  0  0  0
  -20.6757  -26.9380   22.5420 C   0  0  0  0  0  0
  -19.5766  -26.6378   21.5192 C   0  0  0  0  0  0
  -18.1922  -26.7910   22.1580 C   0  0  0  0  0  0
  -19.1499  -28.8812   23.2888 C   0  0  0  0  0  0
  -18.9438  -30.1403   23.8920 C   0  0  0  0  0  0
  -17.6450  -30.6569   24.0551 C   0  0  0  0  0  0
  -25.9050  -34.9486   23.5144 C   0  0  0  0  0  0
  -16.5330  -29.9081   23.6330 C   0  0  0  0  0  0
  -16.7238  -28.6490   23.0352 C   0  0  0  0  0  0
  -26.4485  -31.6616   25.0747 C   0  0  0  0  0  0
  -25.3775  -31.3682   26.1520 C   0  0  0  0  0  0
  -27.0301  -30.3071   24.6063 C   0  0  0  0  0  0
  -27.6045  -32.4357   25.7514 C   0  0  0  0  0  0
  -27.5595  -37.1813   24.8454 C   0  0  0  0  0  0
  -21.4129  -29.3025   22.3766 N   0  0  0  0  0  0
  -26.4310  -37.3810   23.9401 N   0  0  0  0  0  0
  -24.6658  -31.0821   22.0983 N   0  0  0  0  0  0
  -23.4190  -28.8168   23.3036 O   0  0  0  0  0  0
  -28.3844  -26.7258   20.1355 O   0  0  0  0  0  0
  -26.5597  -34.8931   22.4702 O   0  0  0  0  0  0
  -23.5351  -32.1413   23.7550 O   0  0  0  0  0  0
  -30.4724  -23.0457   19.6948 C   0  0  0  0  0  0
  -29.8032  -23.5282   20.8318 C   0  0  0  0  0  0
  -29.2840  -22.5517   21.7048 C   0  0  0  0  0  0
  -30.1817  -20.9037   20.4012 C   0  0  0  0  0  0
  -28.5118  -22.8734   22.9659 C   0  0  0  0  0  0
  -28.0318  -26.2555   22.5226 C   0  0  0  0  0  0
  -29.7649  -25.0276   21.1214 C   0  0  0  0  0  0
  -31.2050  -17.4930   21.0915 C   0  0  0  0  0  0
  -30.9899  -16.3516   22.1089 C   0  0  0  0  0  0
  -30.2044  -18.6453   21.2222 C   0  0  0  0  0  0
  -28.3675  -25.6839   21.1216 C   0  0  2  0  0  0
  -30.6642  -21.7306   19.4868 N   0  0  0  0  0  0
  -29.4792  -21.2434   21.4744 N   0  0  0  0  0  0
  -30.2656  -15.2099   21.5545 N   0  0  0  0  0  0
  -30.5199  -19.6087   20.2135 O   0  0  0  0  0  0
  -31.4510  -12.3712   19.0740 H   0  0  0  0  0  0
  -30.3075  -11.2564   19.7618 H   0  0  0  0  0  0
  -29.6975  -11.7884   17.3937 H   0  0  0  0  0  0
  -29.6585  -13.4946   17.7572 H   0  0  0  0  0  0
  -27.7901  -11.3258   18.7791 H   0  0  0  0  0  0
  -27.3525  -12.6865   17.7808 H   0  0  0  0  0  0
  -27.7233  -14.2567   19.5996 H   0  0  0  0  0  0
  -28.6666  -11.9092   21.3134 H   0  0  0  0  0  0
  -28.4604  -13.5330   21.8740 H   0  0  0  0  0  0
  -25.2772   -9.5679   22.4770 H   0  0  0  0  0  0
  -24.0008   -7.4635   22.7468 H   0  0  0  0  0  0
  -21.0866   -8.8798   19.8940 H   0  0  0  0  0  0
  -22.3737  -10.9688   19.6170 H   0  0  0  0  0  0
  -21.2010   -7.6159   23.9719 H   0  0  0  0  0  0
  -21.1469   -6.0524   25.9071 H   0  0  0  0  0  0
  -22.0609   -2.7624   23.2827 H   0  0  0  0  0  0
  -22.4127  -11.9882   22.4749 H   0  0  0  0  0  0
  -21.1133  -13.1256   22.2567 H   0  0  0  0  0  0
  -24.6928  -15.8605   20.5302 H   0  0  0  0  0  0
  -26.3092  -15.6123   20.1044 H   0  0  0  0  0  0
  -26.7103  -32.5589   23.1196 H   0  0  0  0  0  0
  -25.0096  -33.9798   25.0534 H   0  0  0  0  0  0
  -22.6891  -31.3039   21.4140 H   0  0  0  0  0  0
  -23.3780  -35.9662   23.3321 H   0  0  0  0  0  0
  -24.3579  -36.8930   22.2036 H   0  0  0  0  0  0
  -23.7261  -37.6535   23.6661 H   0  0  0  0  0  0
  -26.0312  -31.6238   20.5918 H   0  0  0  0  0  0
  -26.8139  -30.9014   21.9745 H   0  0  0  0  0  0
  -28.1079  -29.1533   21.1164 H   0  0  0  0  0  0
  -26.0832  -25.9595   19.0504 H   0  0  0  0  0  0
  -23.9822  -27.2816   19.0438 H   0  0  0  0  0  0
  -23.7051  -30.5970   19.4059 H   0  0  0  0  0  0
  -22.7347  -29.2312   19.8770 H   0  0  0  0  0  0
  -25.1296  -36.2002   25.0827 H   0  0  0  0  0  0
  -20.9882  -28.3204   24.1471 H   0  0  0  0  0  0
  -20.5684  -26.2220   23.3596 H   0  0  0  0  0  0
  -21.6631  -26.7475   22.1195 H   0  0  0  0  0  0
  -19.6964  -25.6298   21.1226 H   0  0  0  0  0  0
  -19.6750  -27.3176   20.6720 H   0  0  0  0  0  0
  -17.4206  -26.6636   21.3967 H   0  0  0  0  0  0
  -18.0317  -26.0050   22.8973 H   0  0  0  0  0  0
  -19.7922  -30.7160   24.2358 H   0  0  0  0  0  0
  -17.5030  -31.6274   24.5100 H   0  0  0  0  0  0
  -15.5338  -30.2988   23.7673 H   0  0  0  0  0  0
  -15.8632  -28.0816   22.7103 H   0  0  0  0  0  0
  -24.5973  -30.6984   25.7885 H   0  0  0  0  0  0
  -24.8936  -32.2799   26.5034 H   0  0  0  0  0  0
  -25.8158  -30.8856   27.0267 H   0  0  0  0  0  0
  -26.2796  -29.6825   24.1191 H   0  0  0  0  0  0
  -27.4151  -29.7303   25.4482 H   0  0  0  0  0  0
  -27.8617  -30.4400   23.9135 H   0  0  0  0  0  0
  -27.2650  -33.3657   26.2116 H   0  0  0  0  0  0
  -28.3855  -32.6928   25.0336 H   0  0  0  0  0  0
  -28.0743  -31.8493   26.5431 H   0  0  0  0  0  0
  -28.2600  -38.0117   24.7516 H   0  0  0  0  0  0
  -28.1093  -36.2648   24.6284 H   0  0  0  0  0  0
  -27.2293  -37.1436   25.8840 H   0  0  0  0  0  0
  -20.9307  -29.8765   21.6993 H   0  0  0  0  0  0
  -26.0229  -38.2901   24.1400 H   0  0  0  0  0  0
  -30.9117  -23.7147   18.9697 H   0  0  0  0  0  0
  -29.1197  -23.4691   23.6475 H   0  0  0  0  0  0
  -28.2092  -21.9710   23.4969 H   0  0  0  0  0  0
  -27.5999  -23.4154   22.7222 H   0  0  0  0  0  0
  -27.0029  -26.6101   22.5792 H   0  0  0  0  0  0
  -28.6869  -27.0917   22.7679 H   0  0  0  0  0  0
  -28.1396  -25.5244   23.3174 H   0  0  0  0  0  0
  -30.3934  -25.5340   20.3862 H   0  0  0  0  0  0
  -30.2674  -25.1985   22.0744 H   0  0  0  0  0  0
  -31.2051  -17.1217   20.0666 H   0  0  0  0  0  0
  -32.2035  -17.9024   21.2525 H   0  0  0  0  0  0
  -30.4763  -16.7075   23.0032 H   0  0  0  0  0  0
  -31.9605  -15.9895   22.4529 H   0  0  0  0  0  0
  -30.2954  -19.0446   22.2343 H   0  0  0  0  0  0
  -29.1811  -18.2906   21.0876 H   0  0  0  0  0  0
  -27.6110  -24.9516   20.8314 H   0  0  0  0  0  0
  -29.3720  -14.9736   21.9611 H   0  0  0  0  0  0
  1 25  1  0  0  0
  1 30  2  0  0  0
  1 84  1  0  0  0
  2  3  1  0  0  0
  2 25  1  0  0  0
  2 86  1  0  0  0
  2 87  1  0  0  0
  3  4  1  0  0  0
  3 88  1  0  0  0
  3 89  1  0  0  0
  4  5  1  0  0  0
  4 90  1  0  0  0
  4 91  1  0  0  0
  5  6  1  0  0  0
  5 26  1  0  0  0
  5 92  1  0  0  0
  6 25  1  0  0  0
  6 93  1  0  0  0
  6 94  1  0  0  0
  7  8  2  0  0  0
  7 26  1  0  0  0
  7 29  1  0  0  0
  8  9  1  0  0  0
  8 22  1  0  0  0
  9 10  1  0  0  0
  9 27  2  0  0  0
 10 11  2  0  0  0
 10 15  1  0  0  0
 11 12  1  0  0  0
 11 95  1  0  0  0
 12 13  2  0  0  0
 12 96  1  0  0  0
 13 14  1  0  0  0
 13 31  1  0  0  0
 14 15  2  0  0  0
 14 97  1  0  0  0
 15 98  1  0  0  0
 16 17  2  0  0  0
 16 21  1  0  0  0
 16 31  1  0  0  0
 17 18  1  0  0  0
 17 99  1  0  0  0
 18 19  2  0  0  0
 18100  1  0  0  0
 19 20  1  0  0  0
 19 24  1  0  0  0
 20 21  2  0  0  0
 20101  1  0  0  0
 21 23  1  0  0  0
 22 28  1  0  0  0
 22 32  2  0  0  0
 26 27  1  0  0  0
 28102  1  0  0  0
 28103  1  0  0  0
 29104  1  0  0  0
 29105  1  0  0  0
 33 34  1  0  0  0
 33 66  1  0  0  0
 33 70  2  0  0  0
 34 36  1  0  0  0
 34 59  1  0  0  0
 34106  1  0  0  0
 35 44  2  0  0  0
 35 45  1  0  0  0
 35 68  1  0  0  0
 36 56  1  0  0  0
 36107  1  0  0  0
 37 39  1  0  0  0
 37 47  1  0  0  0
 37 66  1  0  0  0
 37108  1  0  0  0
 38 43  2  0  0  0
 38 46  1  0  0  0
 38 47  1  0  0  0
 39 64  1  0  0  0
 39 67  2  0  0  0
 40 52  1  0  0  0
 40 53  2  0  0  0
 40 58  1  0  0  0
 41109  1  0  0  0
 41110  1  0  0  0
 41111  1  0  0  0
 41 48  1  0  0  0
 42 43  1  0  0  0
 42 66  1  0  0  0
 42112  1  0  0  0
 42113  1  0  0  0
 43 44  1  0  0  0
 44114  1  0  0  0
 45 46  2  0  0  0
 45115  1  0  0  0
 46116  1  0  0  0
 47117  1  0  0  0
 47118  1  0  0  0
 48 56  1  0  0  0
 48 65  1  0  0  0
 48119  1  0  0  0
 49 50  1  0  0  0
 49 53  1  0  0  0
 49 64  1  0  0  0
 49120  1  0  0  0
 50 51  1  0  0  0
 50121  1  0  0  0
 50122  1  0  0  0
 51 52  1  0  0  0
 51123  1  0  0  0
 51124  1  0  0  0
 52125  1  0  0  0
 52126  1  0  0  0
 53 54  1  0  0  0
 54 55  2  0  0  0
 54127  1  0  0  0
 55 57  1  0  0  0
 55128  1  0  0  0
 56 69  2  0  0  0
 57 58  2  0  0  0
 57129  1  0  0  0
 58130  1  0  0  0
 59 60  1  0  0  0
 59 61  1  0  0  0
 59 62  1  0  0  0
 60131  1  0  0  0
 60132  1  0  0  0
 60133  1  0  0  0
 61134  1  0  0  0
 61135  1  0  0  0
 61136  1  0  0  0
 62137  1  0  0  0
 62138  1  0  0  0
 62139  1  0  0  0
 63 65  1  0  0  0
 63140  1  0  0  0
 63141  1  0  0  0
 63142  1  0  0  0
 64143  1  0  0  0
 65144  1  0  0  0
 68 81  1  0  0  0
 71 72  2  0  0  0
 71 82  1  0  0  0
 71145  1  0  0  0
 72 73  1  0  0  0
 72 77  1  0  0  0
 73 75  1  0  0  0
 73 83  2  0  0  0
 74 82  2  0  0  0
 74 83  1  0  0  0
 74 85  1  0  0  0
 75146  1  0  0  0
 75147  1  0  0  0
 75148  1  0  0  0
 76149  1  0  0  0
 76150  1  0  0  0
 76151  1  0  0  0
 76 81  1  0  0  0
 77 81  1  0  0  0
 77152  1  0  0  0
 77153  1  0  0  0
 78 79  1  0  0  0
 78 80  1  0  0  0
 78154  1  0  0  0
 78155  1  0  0  0
 79 84  1  0  0  0
 79156  1  0  0  0
 79157  1  0  0  0
 80 85  1  0  0  0
 80158  1  0  0  0
 80159  1  0  0  0
 81160  1  0  0  0
 84161  1  0  0  0
M  ISO  4   1 100  68 101  81 101  84 100
M  END
> <chiral flag>
0

> <version>
0

> <s_m_source_file>
/data/baiqing/PycharmProjects/Reinvent-master-3.2/result/LINK_invent/BTK/process_docking_weight1_custom_sum_contain_oxygen_bond_distance_aromatic_linkinvent_7_9_3/rearranged_h_0073.sdf

> <i_m_source_file_index>
85

> <r_mmod_Potential_Energy-OPLS-2005>
-513.077941894531

> <r_mmod_Stretch_Energy-OPLS-2005>
31.8316478729248

> <r_mmod_Bend_Energy-OPLS-2005>
100.344123840332

> <r_mmod_Torsional_Energy-OPLS-2005>
237.282287597656

> <r_mmod_Improper_Torsional_Energy-OPLS-2005>
2.17170715332031

> <r_mmod_Van_der_Waal_Energy-OPLS-2005>
179.069885253906

> <r_mmod_Electrostatic_Energy-OPLS-2005>
-843.520751953125

> <r_mmod_Solvation_Energy-OPLS-2005>
-229.225280761719

> <b_mmod_Minimization_Converged-OPLS-2005>
0

> <r_mmod_RMS_Derivative-OPLS-2005>
3.17653107643127

$$$$
85
                    3D
 Structure written by MMmdl.
163171  0  0  1  0            999 V2000
  -30.7512  -14.5031   20.6534 C   0  0  0  0  0  0
  -30.4180  -12.3587   19.4342 C   0  0  0  0  0  0
  -29.4948  -12.5355   18.2117 C   0  0  0  0  0  0
  -28.0191  -12.3741   18.6184 C   0  0  0  0  0  0
  -27.6595  -13.2137   19.8708 C   0  0  2  0  0  0
  -28.6958  -13.0036   20.9936 C   0  0  0  0  0  0
  -25.2574  -13.8167   20.5692 C   0  0  0  0  0  0
  -24.1836  -13.0438   20.9160 C   0  0  0  0  0  0
  -24.6400  -11.6901   20.8723 C   0  0  0  0  0  0
  -23.9065  -10.4295   21.0411 C   0  0  0  0  0  0
  -24.3618   -9.4209   21.9189 C   0  0  0  0  0  0
  -23.6294   -8.2244   22.0757 C   0  0  0  0  0  0
  -22.4279   -8.0278   21.3548 C   0  0  0  0  0  0
  -21.9920   -9.0246   20.4647 C   0  0  0  0  0  0
  -22.7236  -10.2131   20.3059 C   0  0  0  0  0  0
  -21.6842   -6.0730   22.5277 C   0  0  0  0  0  0
  -21.4003   -6.5640   23.8207 C   0  0  0  0  0  0
  -21.3663   -5.6801   24.9176 C   0  0  0  0  0  0
  -21.6044   -4.3059   24.7228 C   0  0  0  0  0  0
  -21.8815   -3.8142   23.4349 C   0  0  0  0  0  0
  -21.9194   -4.6959   22.3405 C   0  0  0  0  0  0
  -22.7861  -13.5219   21.1846 C   0  0  0  0  0  0
  -22.1669   -4.2144   21.0983 F   0  0  0  0  0  0
  -21.5639   -3.4542   25.7742 F   0  0  0  0  0  0
  -30.0316  -13.3465   20.4675 N   0  0  0  0  0  0
  -26.3012  -12.9354   20.3328 N   0  0  0  0  0  0
  -25.9324  -11.6502   20.5730 N   0  0  0  0  0  0
  -22.0517  -12.8197   22.0394 N   0  0  0  0  0  0
  -25.4309  -15.1888   20.4126 N   0  0  0  0  0  0
  -31.7706  -14.6977   19.9820 O   0  0  0  0  0  0
  -21.6639   -6.8873   21.4244 O   0  0  0  0  0  0
  -22.3550  -14.5542   20.6721 O   0  0  0  0  0  0
  -24.6219  -31.8629   23.2073 C   0  0  0  0  0  0
  -25.9077  -32.4798   23.8390 C   0  0  1  0  0  0
  -27.2377  -27.3834   20.0798 C   0  0  0  0  0  0
  -25.5900  -33.8600   24.2294 N   0  0  0  0  0  0
  -23.4129  -30.4857   21.5512 C   0  0  2  0  0  0
  -24.8571  -28.9479   20.1152 C   0  0  0  0  0  0
  -22.7454  -29.4626   22.4986 C   0  0  0  0  0  0
  -18.0278  -28.1386   22.8506 C   0  0  0  0  0  0
  -24.1490  -36.7302   23.2645 C   0  0  0  0  0  0
  -25.9487  -30.8088   21.3726 C   0  0  0  0  0  0
  -26.0224  -29.4430   20.7092 C   0  0  0  0  0  0
  -27.2132  -28.6704   20.6849 C   0  0  0  0  0  0
  -26.0368  -26.9046   19.5070 C   0  0  0  0  0  0
  -24.8613  -27.6797   19.5126 C   0  0  0  0  0  0
  -23.6228  -29.8209   20.1671 C   0  0  0  0  0  0
  -25.4117  -36.3088   24.0328 C   0  0  1  0  0  0
  -20.5886  -28.3674   23.1320 C   0  0  2  0  0  0
  -20.6772  -26.9406   22.5421 C   0  0  0  0  0  0
  -19.5733  -26.6387   21.5246 C   0  0  0  0  0  0
  -18.1914  -26.7931   22.1651 C   0  0  0  0  0  0
  -19.1532  -28.8848   23.2910 C   0  0  0  0  0  0
  -18.9445  -30.1456   23.8919 C   0  0  0  0  0  0
  -17.6438  -30.6588   24.0571 C   0  0  0  0  0  0
  -25.9046  -34.9455   23.5106 C   0  0  0  0  0  0
  -16.5332  -29.9079   23.6351 C   0  0  0  0  0  0
  -16.7266  -28.6504   23.0359 C   0  0  0  0  0  0
  -26.4488  -31.6610   25.0746 C   0  0  0  0  0  0
  -25.3725  -31.3739   26.1470 C   0  0  0  0  0  0
  -27.0347  -30.3034   24.6201 C   0  0  0  0  0  0
  -27.6036  -32.4375   25.7496 C   0  0  0  0  0  0
  -27.5579  -37.1803   24.8465 C   0  0  0  0  0  0
  -21.4177  -29.3030   22.3713 N   0  0  0  0  0  0
  -26.4296  -37.3778   23.9404 N   0  0  0  0  0  0
  -24.6794  -31.0696   22.0998 N   0  0  0  0  0  0
  -23.4186  -28.8163   23.3047 O   0  0  0  0  0  0
  -28.4159  -26.6381   20.0931 O   0  0  0  0  0  0
  -26.5616  -34.8907   22.4674 O   0  0  0  0  0  0
  -23.5396  -32.1393   23.7443 O   0  0  0  0  0  0
  -29.2524  -21.2547   21.3754 C   0  0  0  0  0  0
  -29.5222  -20.2424   19.4685 C   0  0  0  0  0  0
  -29.1257  -21.4683   19.9714 C   0  0  0  0  0  0
  -29.5098  -22.8753   17.9407 C   0  0  0  0  0  0
  -27.1851  -22.4952   18.8040 C   0  0  0  0  0  0
  -31.7157  -15.9741   22.5017 C   0  0  0  0  0  0
  -29.6823  -16.9148   21.2246 C   0  0  0  0  0  0
  -28.7155  -24.0723   20.0695 C   0  0  0  0  0  0
  -30.4785  -18.0433   20.4826 C   0  0  0  0  0  0
  -28.5719  -25.4334   19.2899 C   0  0  0  0  0  0
  -28.6497  -22.7356   19.2165 C   0  0  0  0  0  0
  -30.4284  -15.6156   21.7268 C   0  0  1  0  0  0
  -29.6950  -20.0375   21.6938 N   0  0  0  0  0  0
  -29.8662  -19.3933   20.5151 N   0  0  0  0  0  0
  -29.6650  -15.1121   22.6928 F   0  0  0  0  0  0
  -31.4611  -12.4468   19.1284 H   0  0  0  0  0  0
  -30.3262  -11.3481   19.8347 H   0  0  0  0  0  0
  -29.7498  -11.8128   17.4367 H   0  0  0  0  0  0
  -29.6495  -13.5234   17.7746 H   0  0  0  0  0  0
  -27.8433  -11.3175   18.8238 H   0  0  0  0  0  0
  -27.3672  -12.6416   17.7853 H   0  0  0  0  0  0
  -27.7032  -14.2618   19.5736 H   0  0  0  0  0  0
  -28.6907  -11.9636   21.3248 H   0  0  0  0  0  0
  -28.3811  -13.5680   21.8621 H   0  0  0  0  0  0
  -25.2769   -9.5673   22.4757 H   0  0  0  0  0  0
  -23.9991   -7.4633   22.7480 H   0  0  0  0  0  0
  -21.0850   -8.8753   19.8956 H   0  0  0  0  0  0
  -22.3693  -10.9663   19.6160 H   0  0  0  0  0  0
  -21.1985   -7.6150   23.9696 H   0  0  0  0  0  0
  -21.1499   -6.0543   25.9074 H   0  0  0  0  0  0
  -22.0598   -2.7606   23.2849 H   0  0  0  0  0  0
  -22.4136  -11.9852   22.4773 H   0  0  0  0  0  0
  -21.1139  -13.1207   22.2634 H   0  0  0  0  0  0
  -24.6723  -15.8505   20.5312 H   0  0  0  0  0  0
  -26.2925  -15.6260   20.1137 H   0  0  0  0  0  0
  -26.7123  -32.5488   23.1127 H   0  0  0  0  0  0
  -25.0041  -33.9781   25.0429 H   0  0  0  0  0  0
  -22.7023  -31.3030   21.4153 H   0  0  0  0  0  0
  -23.3767  -35.9624   23.3325 H   0  0  0  0  0  0
  -24.3568  -36.8915   22.2054 H   0  0  0  0  0  0
  -23.7236  -37.6505   23.6662 H   0  0  0  0  0  0
  -26.0802  -31.5790   20.6116 H   0  0  0  0  0  0
  -26.8270  -30.8472   22.0053 H   0  0  0  0  0  0
  -28.1157  -29.0589   21.1364 H   0  0  0  0  0  0
  -25.9634  -25.9212   19.0686 H   0  0  0  0  0  0
  -23.9611  -27.2854   19.0632 H   0  0  0  0  0  0
  -23.7289  -30.5977   19.4088 H   0  0  0  0  0  0
  -22.7445  -29.2422   19.8789 H   0  0  0  0  0  0
  -25.1302  -36.1950   25.0825 H   0  0  0  0  0  0
  -20.9978  -28.3238   24.1445 H   0  0  0  0  0  0
  -20.5748  -26.2273   23.3610 H   0  0  0  0  0  0
  -21.6624  -26.7466   22.1167 H   0  0  0  0  0  0
  -19.6898  -25.6313   21.1246 H   0  0  0  0  0  0
  -19.6666  -27.3226   20.6807 H   0  0  0  0  0  0
  -17.4192  -26.6710   21.4036 H   0  0  0  0  0  0
  -18.0265  -26.0069   22.9038 H   0  0  0  0  0  0
  -19.7912  -30.7273   24.2284 H   0  0  0  0  0  0
  -17.4991  -31.6285   24.5133 H   0  0  0  0  0  0
  -15.5323  -30.2965   23.7691 H   0  0  0  0  0  0
  -15.8675  -28.0833   22.7045 H   0  0  0  0  0  0
  -24.5861  -30.7145   25.7780 H   0  0  0  0  0  0
  -24.8973  -32.2911   26.4943 H   0  0  0  0  0  0
  -25.8031  -30.8846   27.0212 H   0  0  0  0  0  0
  -26.2922  -29.6759   24.1241 H   0  0  0  0  0  0
  -27.4074  -29.7300   25.4712 H   0  0  0  0  0  0
  -27.8771  -30.4353   23.9403 H   0  0  0  0  0  0
  -27.2616  -33.3663   26.2075 H   0  0  0  0  0  0
  -28.3796  -32.6972   25.0282 H   0  0  0  0  0  0
  -28.0753  -31.8530   26.5403 H   0  0  0  0  0  0
  -28.2597  -38.0104   24.7505 H   0  0  0  0  0  0
  -28.1067  -36.2623   24.6292 H   0  0  0  0  0  0
  -27.2285  -37.1446   25.8868 H   0  0  0  0  0  0
  -20.9343  -29.8699   21.6887 H   0  0  0  0  0  0
  -26.0190  -38.2857   24.1414 H   0  0  0  0  0  0
  -29.0450  -21.9576   22.1698 H   0  0  0  0  0  0
  -29.6094  -19.9059   18.4437 H   0  0  0  0  0  0
  -29.4501  -21.9864   17.3110 H   0  0  0  0  0  0
  -30.5610  -23.0312   18.1850 H   0  0  0  0  0  0
  -29.1947  -23.7065   17.3098 H   0  0  0  0  0  0
  -27.0730  -21.5780   18.2238 H   0  0  0  0  0  0
  -26.7854  -23.3084   18.1982 H   0  0  0  0  0  0
  -26.5426  -22.4007   19.6792 H   0  0  0  0  0  0
  -31.5190  -16.7025   23.2882 H   0  0  0  0  0  0
  -32.4874  -16.3912   21.8550 H   0  0  0  0  0  0
  -32.1407  -15.0889   22.9770 H   0  0  0  0  0  0
  -28.8372  -16.6192   20.6030 H   0  0  0  0  0  0
  -29.2316  -17.3725   22.1047 H   0  0  0  0  0  0
  -27.9548  -24.0378   20.8492 H   0  0  0  0  0  0
  -29.6698  -24.1058   20.5955 H   0  0  0  0  0  0
  -30.6386  -17.7563   19.4430 H   0  0  0  0  0  0
  -31.4742  -18.1515   20.9134 H   0  0  0  0  0  0
  -27.8355  -25.3495   18.4970 H   0  0  0  0  0  0
  -29.4999  -25.5904   18.7401 H   0  0  0  0  0  0
  1 25  1  0  0  0
  1 30  2  0  0  0
  1 82  1  0  0  0
  2  3  1  0  0  0
  2 25  1  0  0  0
  2 86  1  0  0  0
  2 87  1  0  0  0
  3  4  1  0  0  0
  3 88  1  0  0  0
  3 89  1  0  0  0
  4  5  1  0  0  0
  4 90  1  0  0  0
  4 91  1  0  0  0
  5  6  1  0  0  0
  5 26  1  0  0  0
  5 92  1  0  0  0
  6 25  1  0  0  0
  6 93  1  0  0  0
  6 94  1  0  0  0
  7  8  2  0  0  0
  7 26  1  0  0  0
  7 29  1  0  0  0
  8  9  1  0  0  0
  8 22  1  0  0  0
  9 10  1  0  0  0
  9 27  2  0  0  0
 10 11  2  0  0  0
 10 15  1  0  0  0
 11 12  1  0  0  0
 11 95  1  0  0  0
 12 13  2  0  0  0
 12 96  1  0  0  0
 13 14  1  0  0  0
 13 31  1  0  0  0
 14 15  2  0  0  0
 14 97  1  0  0  0
 15 98  1  0  0  0
 16 17  2  0  0  0
 16 21  1  0  0  0
 16 31  1  0  0  0
 17 18  1  0  0  0
 17 99  1  0  0  0
 18 19  2  0  0  0
 18100  1  0  0  0
 19 20  1  0  0  0
 19 24  1  0  0  0
 20 21  2  0  0  0
 20101  1  0  0  0
 21 23  1  0  0  0
 22 28  1  0  0  0
 22 32  2  0  0  0
 26 27  1  0  0  0
 28102  1  0  0  0
 28103  1  0  0  0
 29104  1  0  0  0
 29105  1  0  0  0
 33 34  1  0  0  0
 33 66  1  0  0  0
 33 70  2  0  0  0
 34 36  1  0  0  0
 34 59  1  0  0  0
 34106  1  0  0  0
 35 44  2  0  0  0
 35 45  1  0  0  0
 35 68  1  0  0  0
 36 56  1  0  0  0
 36107  1  0  0  0
 37 39  1  0  0  0
 37 47  1  0  0  0
 37 66  1  0  0  0
 37108  1  0  0  0
 38 43  2  0  0  0
 38 46  1  0  0  0
 38 47  1  0  0  0
 39 64  1  0  0  0
 39 67  2  0  0  0
 40 52  1  0  0  0
 40 53  2  0  0  0
 40 58  1  0  0  0
 41109  1  0  0  0
 41110  1  0  0  0
 41111  1  0  0  0
 41 48  1  0  0  0
 42 43  1  0  0  0
 42 66  1  0  0  0
 42112  1  0  0  0
 42113  1  0  0  0
 43 44  1  0  0  0
 44114  1  0  0  0
 45 46  2  0  0  0
 45115  1  0  0  0
 46116  1  0  0  0
 47117  1  0  0  0
 47118  1  0  0  0
 48 56  1  0  0  0
 48 65  1  0  0  0
 48119  1  0  0  0
 49 50  1  0  0  0
 49 53  1  0  0  0
 49 64  1  0  0  0
 49120  1  0  0  0
 50 51  1  0  0  0
 50121  1  0  0  0
 50122  1  0  0  0
 51 52  1  0  0  0
 51123  1  0  0  0
 51124  1  0  0  0
 52125  1  0  0  0
 52126  1  0  0  0
 53 54  1  0  0  0
 54 55  2  0  0  0
 54127  1  0  0  0
 55 57  1  0  0  0
 55128  1  0  0  0
 56 69  2  0  0  0
 57 58  2  0  0  0
 57129  1  0  0  0
 58130  1  0  0  0
 59 60  1  0  0  0
 59 61  1  0  0  0
 59 62  1  0  0  0
 60131  1  0  0  0
 60132  1  0  0  0
 60133  1  0  0  0
 61134  1  0  0  0
 61135  1  0  0  0
 61136  1  0  0  0
 62137  1  0  0  0
 62138  1  0  0  0
 62139  1  0  0  0
 63 65  1  0  0  0
 63140  1  0  0  0
 63141  1  0  0  0
 63142  1  0  0  0
 64143  1  0  0  0
 65144  1  0  0  0
 68 80  1  0  0  0
 71 73  1  0  0  0
 71 83  2  0  0  0
 71145  1  0  0  0
 72 73  2  0  0  0
 72 84  1  0  0  0
 72146  1  0  0  0
 73 81  1  0  0  0
 74147  1  0  0  0
 74148  1  0  0  0
 74149  1  0  0  0
 74 81  1  0  0  0
 75 81  1  0  0  0
 75150  1  0  0  0
 75151  1  0  0  0
 75152  1  0  0  0
 76153  1  0  0  0
 76154  1  0  0  0
 76155  1  0  0  0
 76 82  1  0  0  0
 77 79  1  0  0  0
 77 82  1  0  0  0
 77156  1  0  0  0
 77157  1  0  0  0
 78 80  1  0  0  0
 78 81  1  0  0  0
 78158  1  0  0  0
 78159  1  0  0  0
 79 84  1  0  0  0
 79160  1  0  0  0
 79161  1  0  0  0
 80162  1  0  0  0
 80163  1  0  0  0
 82 85  1  0  0  0
 83 84  1  0  0  0
M  ISO  4   1 100  68 101  80 101  82 100
M  END
> <chiral flag>
0

> <version>
0

> <s_m_source_file>
/data/baiqing/PycharmProjects/Reinvent-master-3.2/result/LINK_invent/BTK/process_docking_weight1_custom_sum_contain_oxygen_bond_distance_aromatic_linkinvent_7_9_3/rearranged_h_0073.sdf

> <i_m_source_file_index>
86

> <r_mmod_Potential_Energy-OPLS-2005>
46.9222564697266

> <r_mmod_Stretch_Energy-OPLS-2005>
59.9453392028809

> <r_mmod_Bend_Energy-OPLS-2005>
141.069869995117

> <r_mmod_Torsional_Energy-OPLS-2005>
189.843826293945

> <r_mmod_Improper_Torsional_Energy-OPLS-2005>
2.17519807815552

> <r_mmod_Van_der_Waal_Energy-OPLS-2005>
135.421752929688

> <r_mmod_Electrostatic_Energy-OPLS-2005>
-308.304443359375

> <r_mmod_Solvation_Energy-OPLS-2005>
-192.008178710938

> <b_mmod_Minimization_Converged-OPLS-2005>
0

> <r_mmod_RMS_Derivative-OPLS-2005>
2.56580209732056

$$$$
86
                    3D
 Structure written by MMmdl.
162170  0  0  1  0            999 V2000
  -30.7057  -14.3916   20.6612 C   0  0  0  0  0  0
  -30.4389  -12.2933   19.3912 C   0  0  0  0  0  0
  -29.5024  -12.5240   18.1894 C   0  0  0  0  0  0
  -28.0203  -12.3816   18.6013 C   0  0  0  0  0  0
  -27.6729  -13.1881   19.8843 C   0  0  2  0  0  0
  -28.7106  -12.8851   20.9850 C   0  0  0  0  0  0
  -25.2671  -13.8110   20.5669 C   0  0  0  0  0  0
  -24.1870  -13.0444   20.9172 C   0  0  0  0  0  0
  -24.6366  -11.6897   20.8707 C   0  0  0  0  0  0
  -23.9001  -10.4307   21.0384 C   0  0  0  0  0  0
  -24.3558   -9.4230   21.9159 C   0  0  0  0  0  0
  -23.6260   -8.2258   22.0740 C   0  0  0  0  0  0
  -22.4247   -8.0276   21.3534 C   0  0  0  0  0  0
  -21.9860   -9.0243   20.4638 C   0  0  0  0  0  0
  -22.7168  -10.2142   20.3040 C   0  0  0  0  0  0
  -21.6844   -6.0730   22.5278 C   0  0  0  0  0  0
  -21.4005   -6.5628   23.8208 C   0  0  0  0  0  0
  -21.3658   -5.6779   24.9168 C   0  0  0  0  0  0
  -21.6041   -4.3039   24.7215 C   0  0  0  0  0  0
  -21.8812   -3.8138   23.4326 C   0  0  0  0  0  0
  -21.9195   -4.6961   22.3395 C   0  0  0  0  0  0
  -22.7896  -13.5295   21.1815 C   0  0  0  0  0  0
  -22.1654   -4.2147   21.0968 F   0  0  0  0  0  0
  -21.5640   -3.4524   25.7723 F   0  0  0  0  0  0
  -30.0447  -13.2257   20.4557 N   0  0  0  0  0  0
  -26.3076  -12.9232   20.3374 N   0  0  0  0  0  0
  -25.9291  -11.6420   20.5733 N   0  0  0  0  0  0
  -22.0460  -12.8355   22.0364 N   0  0  0  0  0  0
  -25.4491  -15.1818   20.4073 N   0  0  0  0  0  0
  -31.7804  -14.6670   20.1153 O   0  0  0  0  0  0
  -21.6621   -6.8866   21.4234 O   0  0  0  0  0  0
  -22.3620  -14.5603   20.6634 O   0  0  0  0  0  0
  -24.6114  -31.8699   23.2149 C   0  0  0  0  0  0
  -25.8996  -32.4847   23.8440 C   0  0  1  0  0  0
  -27.2382  -27.4609   20.0537 C   0  0  0  0  0  0
  -25.5860  -33.8650   24.2350 N   0  0  0  0  0  0
  -23.4001  -30.4954   21.5562 C   0  0  2  0  0  0
  -24.8391  -28.9601   20.1203 C   0  0  0  0  0  0
  -22.7424  -29.4648   22.5005 C   0  0  0  0  0  0
  -18.0273  -28.1371   22.8512 C   0  0  0  0  0  0
  -24.1478  -36.7342   23.2650 C   0  0  0  0  0  0
  -25.9283  -30.8343   21.3659 C   0  0  0  0  0  0
  -26.0009  -29.4708   20.7120 C   0  0  0  0  0  0
  -27.1979  -28.7255   20.6787 C   0  0  0  0  0  0
  -26.0491  -26.9499   19.4786 C   0  0  0  0  0  0
  -24.8557  -27.6941   19.5145 C   0  0  0  0  0  0
  -23.6115  -29.8379   20.1672 C   0  0  0  0  0  0
  -25.4092  -36.3140   24.0360 C   0  0  1  0  0  0
  -20.5861  -28.3646   23.1331 C   0  0  2  0  0  0
  -20.6753  -26.9382   22.5417 C   0  0  0  0  0  0
  -19.5715  -26.6373   21.5233 C   0  0  0  0  0  0
  -18.1897  -26.7920   22.1645 C   0  0  0  0  0  0
  -19.1521  -28.8826   23.2919 C   0  0  0  0  0  0
  -18.9453  -30.1434   23.8919 C   0  0  0  0  0  0
  -17.6462  -30.6580   24.0585 C   0  0  0  0  0  0
  -25.9003  -34.9498   23.5152 C   0  0  0  0  0  0
  -16.5352  -29.9094   23.6321 C   0  0  0  0  0  0
  -16.7259  -28.6518   23.0342 C   0  0  0  0  0  0
  -26.4415  -31.6630   25.0768 C   0  0  0  0  0  0
  -25.3720  -31.3758   26.1577 C   0  0  0  0  0  0
  -27.0216  -30.3087   24.6069 C   0  0  0  0  0  0
  -27.5987  -32.4363   25.7525 C   0  0  0  0  0  0
  -27.5574  -37.1827   24.8473 C   0  0  0  0  0  0
  -21.4148  -29.3037   22.3774 N   0  0  0  0  0  0
  -26.4285  -37.3814   23.9417 N   0  0  0  0  0  0
  -24.6662  -31.0811   22.1050 N   0  0  0  0  0  0
  -23.4216  -28.8164   23.3008 O   0  0  0  0  0  0
  -28.4500  -26.8009   20.0225 O   0  0  0  0  0  0
  -26.5591  -34.8947   22.4721 O   0  0  0  0  0  0
  -23.5310  -32.1428   23.7557 O   0  0  0  0  0  0
  -29.6168  -19.9839   21.0351 C   0  0  0  0  0  0
  -27.7928  -19.6948   19.8860 C   0  0  0  0  0  0
  -29.5752  -18.6913   20.5595 C   0  0  0  0  0  0
  -29.3101  -17.0242   22.9196 C   0  0  0  0  0  0
  -31.7400  -16.5299   22.7396 C   0  0  0  0  0  0
  -30.5920  -17.5844   20.7189 C   0  0  0  0  0  0
  -28.4819  -23.0004   19.8823 C   0  0  0  0  0  0
  -28.0951  -24.4182   20.3367 C   0  0  0  0  0  0
  -28.0191  -21.9595   20.9134 C   0  0  0  0  0  0
  -28.5639  -25.5275   19.3857 C   0  0  0  0  0  0
  -30.4229  -16.5979   21.9326 C   0  0  0  0  0  0
  -28.4049  -18.5156   19.8140 N   0  0  0  0  0  0
  -28.4525  -20.6102   20.6074 N   0  0  0  0  0  0
  -30.0615  -15.2472   21.4751 N   0  0  0  0  0  0
  -31.4810  -12.4207   19.0940 H   0  0  0  0  0  0
  -30.3611  -11.2637   19.7451 H   0  0  0  0  0  0
  -29.7410  -11.8197   17.3926 H   0  0  0  0  0  0
  -29.6725  -13.5196   17.7776 H   0  0  0  0  0  0
  -27.8297  -11.3207   18.7709 H   0  0  0  0  0  0
  -27.3684  -12.6772   17.7784 H   0  0  0  0  0  0
  -27.7464  -14.2493   19.6407 H   0  0  0  0  0  0
  -28.6857  -11.8193   21.2209 H   0  0  0  0  0  0
  -28.4637  -13.3834   21.9243 H   0  0  0  0  0  0
  -25.2698   -9.5720   22.4732 H   0  0  0  0  0  0
  -23.9976   -7.4640   22.7456 H   0  0  0  0  0  0
  -21.0787   -8.8730   19.8946 H   0  0  0  0  0  0
  -22.3587  -10.9661   19.6151 H   0  0  0  0  0  0
  -21.1971   -7.6130   23.9708 H   0  0  0  0  0  0
  -21.1494   -6.0503   25.9068 H   0  0  0  0  0  0
  -22.0593   -2.7604   23.2824 H   0  0  0  0  0  0
  -22.4003  -12.0065   22.4893 H   0  0  0  0  0  0
  -21.1051  -13.1418   22.2406 H   0  0  0  0  0  0
  -24.7000  -15.8532   20.5264 H   0  0  0  0  0  0
  -26.3141  -15.6065   20.0967 H   0  0  0  0  0  0
  -26.7065  -32.5536   23.1205 H   0  0  0  0  0  0
  -25.0051  -33.9832   25.0521 H   0  0  0  0  0  0
  -22.6874  -31.3106   21.4192 H   0  0  0  0  0  0
  -23.3745  -35.9674   23.3338 H   0  0  0  0  0  0
  -24.3588  -36.8913   22.2062 H   0  0  0  0  0  0
  -23.7201  -37.6548   23.6637 H   0  0  0  0  0  0
  -26.0316  -31.5976   20.5957 H   0  0  0  0  0  0
  -26.8218  -30.8891   21.9763 H   0  0  0  0  0  0
  -28.1006  -29.1276   21.1161 H   0  0  0  0  0  0
  -26.0185  -25.9893   18.9872 H   0  0  0  0  0  0
  -23.9579  -27.2919   19.0637 H   0  0  0  0  0  0
  -23.7469  -30.6226   19.4213 H   0  0  0  0  0  0
  -22.7296  -29.2804   19.8484 H   0  0  0  0  0  0
  -25.1238  -36.2047   25.0852 H   0  0  0  0  0  0
  -20.9921  -28.3182   24.1467 H   0  0  0  0  0  0
  -20.5650  -26.2259   23.3603 H   0  0  0  0  0  0
  -21.6621  -26.7420   22.1198 H   0  0  0  0  0  0
  -19.6883  -25.6296   21.1230 H   0  0  0  0  0  0
  -19.6649  -27.3231   20.6797 H   0  0  0  0  0  0
  -17.4170  -26.6689   21.4043 H   0  0  0  0  0  0
  -18.0280  -26.0049   22.9016 H   0  0  0  0  0  0
  -19.7937  -30.7244   24.2286 H   0  0  0  0  0  0
  -17.5029  -31.6264   24.5186 H   0  0  0  0  0  0
  -15.5352  -30.3024   23.7625 H   0  0  0  0  0  0
  -15.8658  -28.0865   22.7012 H   0  0  0  0  0  0
  -24.5875  -30.7070   25.8009 H   0  0  0  0  0  0
  -24.8944  -32.2938   26.5032 H   0  0  0  0  0  0
  -25.8143  -30.8991   27.0336 H   0  0  0  0  0  0
  -26.2726  -29.6937   24.1070 H   0  0  0  0  0  0
  -27.3970  -29.7220   25.4454 H   0  0  0  0  0  0
  -27.8574  -30.4457   23.9207 H   0  0  0  0  0  0
  -27.2572  -33.3666   26.2091 H   0  0  0  0  0  0
  -28.3808  -32.6927   25.0367 H   0  0  0  0  0  0
  -28.0638  -31.8503   26.5470 H   0  0  0  0  0  0
  -28.2601  -38.0115   24.7507 H   0  0  0  0  0  0
  -28.1034  -36.2640   24.6286 H   0  0  0  0  0  0
  -27.2305  -37.1478   25.8879 H   0  0  0  0  0  0
  -20.9302  -29.8894   21.7128 H   0  0  0  0  0  0
  -26.0197  -38.2897   24.1415 H   0  0  0  0  0  0
  -30.3528  -20.4952   21.6427 H   0  0  0  0  0  0
  -26.8419  -19.8986   19.4131 H   0  0  0  0  0  0
  -29.5093  -18.0069   23.3494 H   0  0  0  0  0  0
  -29.2311  -16.3271   23.7561 H   0  0  0  0  0  0
  -28.3268  -17.0608   22.4483 H   0  0  0  0  0  0
  -31.9663  -17.4926   23.2023 H   0  0  0  0  0  0
  -32.5918  -16.2731   22.1076 H   0  0  0  0  0  0
  -31.6882  -15.7892   23.5396 H   0  0  0  0  0  0
  -31.5724  -18.0567   20.7913 H   0  0  0  0  0  0
  -30.6517  -17.0345   19.7812 H   0  0  0  0  0  0
  -29.5643  -22.9420   19.7577 H   0  0  0  0  0  0
  -28.0487  -22.7825   18.9040 H   0  0  0  0  0  0
  -28.5365  -24.5974   21.3171 H   0  0  0  0  0  0
  -27.0153  -24.4824   20.4766 H   0  0  0  0  0  0
  -26.9310  -21.9630   20.9801 H   0  0  0  0  0  0
  -28.3930  -22.2202   21.9036 H   0  0  0  0  0  0
  -28.0572  -25.4917   18.4201 H   0  0  0  0  0  0
  -29.6198  -25.3720   19.1599 H   0  0  0  0  0  0
  -29.1685  -14.9071   21.7960 H   0  0  0  0  0  0
  1 25  1  0  0  0
  1 30  2  0  0  0
  1 84  1  0  0  0
  2  3  1  0  0  0
  2 25  1  0  0  0
  2 85  1  0  0  0
  2 86  1  0  0  0
  3  4  1  0  0  0
  3 87  1  0  0  0
  3 88  1  0  0  0
  4  5  1  0  0  0
  4 89  1  0  0  0
  4 90  1  0  0  0
  5  6  1  0  0  0
  5 26  1  0  0  0
  5 91  1  0  0  0
  6 25  1  0  0  0
  6 92  1  0  0  0
  6 93  1  0  0  0
  7  8  2  0  0  0
  7 26  1  0  0  0
  7 29  1  0  0  0
  8  9  1  0  0  0
  8 22  1  0  0  0
  9 10  1  0  0  0
  9 27  2  0  0  0
 10 11  2  0  0  0
 10 15  1  0  0  0
 11 12  1  0  0  0
 11 94  1  0  0  0
 12 13  2  0  0  0
 12 95  1  0  0  0
 13 14  1  0  0  0
 13 31  1  0  0  0
 14 15  2  0  0  0
 14 96  1  0  0  0
 15 97  1  0  0  0
 16 17  2  0  0  0
 16 21  1  0  0  0
 16 31  1  0  0  0
 17 18  1  0  0  0
 17 98  1  0  0  0
 18 19  2  0  0  0
 18 99  1  0  0  0
 19 20  1  0  0  0
 19 24  1  0  0  0
 20 21  2  0  0  0
 20100  1  0  0  0
 21 23  1  0  0  0
 22 28  1  0  0  0
 22 32  2  0  0  0
 26 27  1  0  0  0
 28101  1  0  0  0
 28102  1  0  0  0
 29103  1  0  0  0
 29104  1  0  0  0
 33 34  1  0  0  0
 33 66  1  0  0  0
 33 70  2  0  0  0
 34 36  1  0  0  0
 34 59  1  0  0  0
 34105  1  0  0  0
 35 44  2  0  0  0
 35 45  1  0  0  0
 35 68  1  0  0  0
 36 56  1  0  0  0
 36106  1  0  0  0
 37 39  1  0  0  0
 37 47  1  0  0  0
 37 66  1  0  0  0
 37107  1  0  0  0
 38 43  2  0  0  0
 38 46  1  0  0  0
 38 47  1  0  0  0
 39 64  1  0  0  0
 39 67  2  0  0  0
 40 52  1  0  0  0
 40 53  2  0  0  0
 40 58  1  0  0  0
 41108  1  0  0  0
 41109  1  0  0  0
 41110  1  0  0  0
 41 48  1  0  0  0
 42 43  1  0  0  0
 42 66  1  0  0  0
 42111  1  0  0  0
 42112  1  0  0  0
 43 44  1  0  0  0
 44113  1  0  0  0
 45 46  2  0  0  0
 45114  1  0  0  0
 46115  1  0  0  0
 47116  1  0  0  0
 47117  1  0  0  0
 48 56  1  0  0  0
 48 65  1  0  0  0
 48118  1  0  0  0
 49 50  1  0  0  0
 49 53  1  0  0  0
 49 64  1  0  0  0
 49119  1  0  0  0
 50 51  1  0  0  0
 50120  1  0  0  0
 50121  1  0  0  0
 51 52  1  0  0  0
 51122  1  0  0  0
 51123  1  0  0  0
 52124  1  0  0  0
 52125  1  0  0  0
 53 54  1  0  0  0
 54 55  2  0  0  0
 54126  1  0  0  0
 55 57  1  0  0  0
 55127  1  0  0  0
 56 69  2  0  0  0
 57 58  2  0  0  0
 57128  1  0  0  0
 58129  1  0  0  0
 59 60  1  0  0  0
 59 61  1  0  0  0
 59 62  1  0  0  0
 60130  1  0  0  0
 60131  1  0  0  0
 60132  1  0  0  0
 61133  1  0  0  0
 61134  1  0  0  0
 61135  1  0  0  0
 62136  1  0  0  0
 62137  1  0  0  0
 62138  1  0  0  0
 63 65  1  0  0  0
 63139  1  0  0  0
 63140  1  0  0  0
 63141  1  0  0  0
 64142  1  0  0  0
 65143  1  0  0  0
 68 80  1  0  0  0
 71 73  2  0  0  0
 71 83  1  0  0  0
 71144  1  0  0  0
 72 82  2  0  0  0
 72 83  1  0  0  0
 72145  1  0  0  0
 73 76  1  0  0  0
 73 82  1  0  0  0
 74146  1  0  0  0
 74147  1  0  0  0
 74148  1  0  0  0
 74 81  1  0  0  0
 75 81  1  0  0  0
 75149  1  0  0  0
 75150  1  0  0  0
 75151  1  0  0  0
 76 81  1  0  0  0
 76152  1  0  0  0
 76153  1  0  0  0
 77 78  1  0  0  0
 77 79  1  0  0  0
 77154  1  0  0  0
 77155  1  0  0  0
 78 80  1  0  0  0
 78156  1  0  0  0
 78157  1  0  0  0
 79 83  1  0  0  0
 79158  1  0  0  0
 79159  1  0  0  0
 80160  1  0  0  0
 80161  1  0  0  0
 81 84  1  0  0  0
 84162  1  0  0  0
M  ISO  4   1 100  68 101  80 101  84 100
M  END
> <chiral flag>
0

> <version>
0

> <s_m_source_file>
/data/baiqing/PycharmProjects/Reinvent-master-3.2/result/LINK_invent/BTK/process_docking_weight1_custom_sum_contain_oxygen_bond_distance_aromatic_linkinvent_7_9_3/rearranged_h_0073.sdf

> <i_m_source_file_index>
87

> <r_mmod_Potential_Energy-OPLS-2005>
-44.407844543457

> <r_mmod_Stretch_Energy-OPLS-2005>
34.2356414794922

> <r_mmod_Bend_Energy-OPLS-2005>
118.064666748047

> <r_mmod_Torsional_Energy-OPLS-2005>
187.627380371094

> <r_mmod_Improper_Torsional_Energy-OPLS-2005>
2.02836513519287

> <r_mmod_Van_der_Waal_Energy-OPLS-2005>
132.585113525391

> <r_mmod_Electrostatic_Energy-OPLS-2005>
-320.946502685547

> <r_mmod_Solvation_Energy-OPLS-2005>
-208.026885986328

> <b_mmod_Minimization_Converged-OPLS-2005>
0

> <r_mmod_RMS_Derivative-OPLS-2005>
3.6201593875885

$$$$
87
                    3D
 Structure written by MMmdl.
164172  0  0  1  0            999 V2000
  -30.7043  -14.5181   20.5234 C   0  0  0  0  0  0
  -30.4026  -12.3275   19.4317 C   0  0  0  0  0  0
  -29.4872  -12.5159   18.2062 C   0  0  0  0  0  0
  -28.0069  -12.3809   18.6128 C   0  0  0  0  0  0
  -27.6472  -13.2303   19.8617 C   0  0  2  0  0  0
  -28.6896  -13.0701   20.9891 C   0  0  0  0  0  0
  -25.2510  -13.8216   20.5692 C   0  0  0  0  0  0
  -24.1800  -13.0450   20.9180 C   0  0  0  0  0  0
  -24.6399  -11.6928   20.8735 C   0  0  0  0  0  0
  -23.9091  -10.4292   21.0414 C   0  0  0  0  0  0
  -24.3635   -9.4206   21.9197 C   0  0  0  0  0  0
  -23.6302   -8.2247   22.0764 C   0  0  0  0  0  0
  -22.4288   -8.0283   21.3551 C   0  0  0  0  0  0
  -21.9930   -9.0261   20.4652 C   0  0  0  0  0  0
  -22.7269  -10.2136   20.3063 C   0  0  0  0  0  0
  -21.6856   -6.0744   22.5282 C   0  0  0  0  0  0
  -21.4015   -6.5645   23.8213 C   0  0  0  0  0  0
  -21.3653   -5.6798   24.9169 C   0  0  0  0  0  0
  -21.6046   -4.3062   24.7222 C   0  0  0  0  0  0
  -21.8821   -3.8157   23.4342 C   0  0  0  0  0  0
  -21.9183   -4.6973   22.3399 C   0  0  0  0  0  0
  -22.7811  -13.5219   21.1846 C   0  0  0  0  0  0
  -22.1661   -4.2160   21.0977 F   0  0  0  0  0  0
  -21.5624   -3.4543   25.7734 F   0  0  0  0  0  0
  -30.0166  -13.3441   20.4275 N   0  0  0  0  0  0
  -26.2949  -12.9435   20.3326 N   0  0  0  0  0  0
  -25.9332  -11.6565   20.5760 N   0  0  0  0  0  0
  -22.0458  -12.8191   22.0394 N   0  0  0  0  0  0
  -25.4186  -15.1939   20.4117 N   0  0  0  0  0  0
  -31.8493  -14.6371   20.0804 O   0  0  0  0  0  0
  -21.6644   -6.8890   21.4252 O   0  0  0  0  0  0
  -22.3482  -14.5531   20.6709 O   0  0  0  0  0  0
  -24.6163  -31.8604   23.2020 C   0  0  0  0  0  0
  -25.9029  -32.4762   23.8323 C   0  0  1  0  0  0
  -27.2304  -27.3699   20.1057 C   0  0  0  0  0  0
  -25.5859  -33.8562   24.2241 N   0  0  0  0  0  0
  -23.4060  -30.4813   21.5451 C   0  0  2  0  0  0
  -24.8497  -28.9338   20.1166 C   0  0  0  0  0  0
  -22.7430  -29.4613   22.4990 C   0  0  0  0  0  0
  -18.0256  -28.1344   22.8472 C   0  0  0  0  0  0
  -24.1490  -36.7317   23.2638 C   0  0  0  0  0  0
  -25.9404  -30.8033   21.3694 C   0  0  0  0  0  0
  -26.0136  -29.4348   20.7130 C   0  0  0  0  0  0
  -27.2018  -28.6608   20.7013 C   0  0  0  0  0  0
  -26.0407  -26.8919   19.5129 C   0  0  0  0  0  0
  -24.8615  -27.6631   19.5162 C   0  0  0  0  0  0
  -23.6143  -29.8064   20.1618 C   0  0  0  0  0  0
  -25.4111  -36.3085   24.0317 C   0  0  1  0  0  0
  -20.5845  -28.3631   23.1323 C   0  0  2  0  0  0
  -20.6740  -26.9371   22.5413 C   0  0  0  0  0  0
  -19.5717  -26.6367   21.5204 C   0  0  0  0  0  0
  -18.1890  -26.7868   22.1618 C   0  0  0  0  0  0
  -19.1511  -28.8810   23.2865 C   0  0  0  0  0  0
  -18.9455  -30.1421   23.8860 C   0  0  0  0  0  0
  -17.6463  -30.6547   24.0559 C   0  0  0  0  0  0
  -25.9052  -34.9447   23.5095 C   0  0  0  0  0  0
  -16.5353  -29.9044   23.6355 C   0  0  0  0  0  0
  -16.7248  -28.6485   23.0334 C   0  0  0  0  0  0
  -26.4418  -31.6566   25.0711 C   0  0  0  0  0  0
  -25.3669  -31.3683   26.1469 C   0  0  0  0  0  0
  -27.0253  -30.2988   24.6149 C   0  0  0  0  0  0
  -27.5984  -32.4303   25.7480 C   0  0  0  0  0  0
  -27.5560  -37.1798   24.8460 C   0  0  0  0  0  0
  -21.4151  -29.3006   22.3758 N   0  0  0  0  0  0
  -26.4290  -37.3786   23.9391 N   0  0  0  0  0  0
  -24.6719  -31.0653   22.0940 N   0  0  0  0  0  0
  -23.4187  -28.8176   23.3060 O   0  0  0  0  0  0
  -28.4114  -26.6381   20.1274 O   0  0  0  0  0  0
  -26.5676  -34.8908   22.4693 O   0  0  0  0  0  0
  -23.5354  -32.1390   23.7387 O   0  0  0  0  0  0
  -29.6497  -16.8572   20.2300 C   0  0  0  0  0  0
  -30.0548  -15.7991   21.0189 C   0  0  0  0  0  0
  -30.0504  -17.6298   22.2770 C   0  0  0  0  0  0
  -30.3155  -18.5020   23.4641 C   0  0  0  0  0  0
  -27.0269  -19.2497   20.0449 C   0  0  0  0  0  0
  -27.6828  -20.1593   22.2498 C   0  0  0  0  0  0
  -28.8190  -22.7627   20.7966 C   0  0  0  0  0  0
  -28.1809  -24.2070   20.8710 C   0  0  0  0  0  0
  -27.9842  -21.5922   20.1619 C   0  0  0  0  0  0
  -29.4830  -19.4247   20.5700 C   0  0  0  0  0  0
  -28.4855  -25.2357   19.7314 C   0  0  0  0  0  0
  -28.0817  -20.1200   20.7604 C   0  0  0  0  0  0
  -29.6638  -17.9938   21.0288 N   0  0  0  0  0  0
  -30.2883  -16.3063   22.2633 N   0  3  0  0  0  0
  -31.4485  -12.4020   19.1301 H   0  0  0  0  0  0
  -30.2841  -11.3247   19.8454 H   0  0  0  0  0  0
  -29.7291  -11.7898   17.4297 H   0  0  0  0  0  0
  -29.6577  -13.4997   17.7655 H   0  0  0  0  0  0
  -27.8076  -11.3268   18.8063 H   0  0  0  0  0  0
  -27.3627  -12.6616   17.7779 H   0  0  0  0  0  0
  -27.6717  -14.2730   19.5438 H   0  0  0  0  0  0
  -28.6613  -12.0574   21.3950 H   0  0  0  0  0  0
  -28.4602  -13.7372   21.8208 H   0  0  0  0  0  0
  -25.2783   -9.5667   22.4768 H   0  0  0  0  0  0
  -23.9999   -7.4638   22.7487 H   0  0  0  0  0  0
  -21.0860   -8.8790   19.8952 H   0  0  0  0  0  0
  -22.3746  -10.9674   19.6156 H   0  0  0  0  0  0
  -21.2024   -7.6150   23.9718 H   0  0  0  0  0  0
  -21.1474   -6.0525   25.9070 H   0  0  0  0  0  0
  -22.0605   -2.7617   23.2838 H   0  0  0  0  0  0
  -22.4059  -11.9816   22.4731 H   0  0  0  0  0  0
  -21.1071  -13.1205   22.2628 H   0  0  0  0  0  0
  -24.6497  -15.8458   20.5196 H   0  0  0  0  0  0
  -26.2746  -15.6380   20.1070 H   0  0  0  0  0  0
  -26.7073  -32.5416   23.1047 H   0  0  0  0  0  0
  -24.9940  -33.9712   25.0338 H   0  0  0  0  0  0
  -22.6987  -31.2985   21.3982 H   0  0  0  0  0  0
  -23.3746  -35.9649   23.3309 H   0  0  0  0  0  0
  -24.3590  -36.8965   22.2055 H   0  0  0  0  0  0
  -23.7256  -37.6515   23.6692 H   0  0  0  0  0  0
  -26.0753  -31.5663   20.6009 H   0  0  0  0  0  0
  -26.8182  -30.8433   22.0013 H   0  0  0  0  0  0
  -28.1013  -29.0396   21.1659 H   0  0  0  0  0  0
  -25.9979  -25.9200   19.0481 H   0  0  0  0  0  0
  -23.9631  -27.2665   19.0624 H   0  0  0  0  0  0
  -23.7238  -30.5747   19.3965 H   0  0  0  0  0  0
  -22.7375  -29.2255   19.8687 H   0  0  0  0  0  0
  -25.1272  -36.1948   25.0812 H   0  0  0  0  0  0
  -20.9893  -28.3149   24.1461 H   0  0  0  0  0  0
  -20.5671  -26.2207   23.3579 H   0  0  0  0  0  0
  -21.6596  -26.7416   22.1184 H   0  0  0  0  0  0
  -19.6906  -25.6308   21.1165 H   0  0  0  0  0  0
  -19.6638  -27.3229   20.6779 H   0  0  0  0  0  0
  -17.4168  -26.6617   21.4021 H   0  0  0  0  0  0
  -18.0303  -25.9988   22.9012 H   0  0  0  0  0  0
  -19.7959  -30.7218   24.2184 H   0  0  0  0  0  0
  -17.5048  -31.6228   24.5149 H   0  0  0  0  0  0
  -15.5351  -30.2932   23.7716 H   0  0  0  0  0  0
  -15.8648  -28.0812   22.7028 H   0  0  0  0  0  0
  -24.5842  -30.7017   25.7841 H   0  0  0  0  0  0
  -24.8863  -32.2847   26.4936 H   0  0  0  0  0  0
  -25.8023  -30.8867   27.0247 H   0  0  0  0  0  0
  -26.2841  -29.6781   24.1117 H   0  0  0  0  0  0
  -27.3892  -29.7185   25.4644 H   0  0  0  0  0  0
  -27.8720  -30.4274   23.9387 H   0  0  0  0  0  0
  -27.2578  -33.3615   26.2015 H   0  0  0  0  0  0
  -28.3797  -32.6848   25.0304 H   0  0  0  0  0  0
  -28.0611  -31.8447   26.5434 H   0  0  0  0  0  0
  -28.2571  -38.0101   24.7531 H   0  0  0  0  0  0
  -28.1052  -36.2638   24.6262 H   0  0  0  0  0  0
  -27.2281  -37.1445   25.8862 H   0  0  0  0  0  0
  -20.9326  -29.8795   21.7033 H   0  0  0  0  0  0
  -26.0169  -38.2859   24.1406 H   0  0  0  0  0  0
  -29.4661  -16.8979   19.1657 H   0  0  0  0  0  0
  -29.4092  -18.5704   24.0636 H   0  0  0  0  0  0
  -30.6387  -19.4902   23.1413 H   0  0  0  0  0  0
  -31.1137  -18.0506   24.0530 H   0  0  0  0  0  0
  -26.0325  -19.6886   20.1086 H   0  0  0  0  0  0
  -26.9526  -18.2556   20.4860 H   0  0  0  0  0  0
  -27.2556  -19.1169   18.9867 H   0  0  0  0  0  0
  -26.7537  -20.7148   22.3919 H   0  0  0  0  0  0
  -28.4392  -20.6381   22.8671 H   0  0  0  0  0  0
  -27.5202  -19.1593   22.6521 H   0  0  0  0  0  0
  -29.0443  -22.4864   21.8261 H   0  0  0  0  0  0
  -29.7964  -22.8161   20.3153 H   0  0  0  0  0  0
  -28.5882  -24.6585   21.7766 H   0  0  0  0  0  0
  -27.1077  -24.1494   21.0522 H   0  0  0  0  0  0
  -28.1928  -21.5624   19.0897 H   0  0  0  0  0  0
  -26.9384  -21.8959   20.2191 H   0  0  0  0  0  0
  -30.2638  -20.0285   21.0300 H   0  0  0  0  0  0
  -29.7285  -19.4319   19.5076 H   0  0  0  0  0  0
  -27.9134  -25.0172   18.8327 H   0  0  0  0  0  0
  -29.5217  -25.0889   19.4286 H   0  0  0  0  0  0
  -30.7026  -15.7825   23.0263 H   0  0  0  0  0  0
  1 25  1  0  0  0
  1 30  2  0  0  0
  1 72  1  0  0  0
  2  3  1  0  0  0
  2 25  1  0  0  0
  2 85  1  0  0  0
  2 86  1  0  0  0
  3  4  1  0  0  0
  3 87  1  0  0  0
  3 88  1  0  0  0
  4  5  1  0  0  0
  4 89  1  0  0  0
  4 90  1  0  0  0
  5  6  1  0  0  0
  5 26  1  0  0  0
  5 91  1  0  0  0
  6 25  1  0  0  0
  6 92  1  0  0  0
  6 93  1  0  0  0
  7  8  2  0  0  0
  7 26  1  0  0  0
  7 29  1  0  0  0
  8  9  1  0  0  0
  8 22  1  0  0  0
  9 10  1  0  0  0
  9 27  2  0  0  0
 10 11  2  0  0  0
 10 15  1  0  0  0
 11 12  1  0  0  0
 11 94  1  0  0  0
 12 13  2  0  0  0
 12 95  1  0  0  0
 13 14  1  0  0  0
 13 31  1  0  0  0
 14 15  2  0  0  0
 14 96  1  0  0  0
 15 97  1  0  0  0
 16 17  2  0  0  0
 16 21  1  0  0  0
 16 31  1  0  0  0
 17 18  1  0  0  0
 17 98  1  0  0  0
 18 19  2  0  0  0
 18 99  1  0  0  0
 19 20  1  0  0  0
 19 24  1  0  0  0
 20 21  2  0  0  0
 20100  1  0  0  0
 21 23  1  0  0  0
 22 28  1  0  0  0
 22 32  2  0  0  0
 26 27  1  0  0  0
 28101  1  0  0  0
 28102  1  0  0  0
 29103  1  0  0  0
 29104  1  0  0  0
 33 34  1  0  0  0
 33 66  1  0  0  0
 33 70  2  0  0  0
 34 36  1  0  0  0
 34 59  1  0  0  0
 34105  1  0  0  0
 35 44  2  0  0  0
 35 45  1  0  0  0
 35 68  1  0  0  0
 36 56  1  0  0  0
 36106  1  0  0  0
 37 39  1  0  0  0
 37 47  1  0  0  0
 37 66  1  0  0  0
 37107  1  0  0  0
 38 43  2  0  0  0
 38 46  1  0  0  0
 38 47  1  0  0  0
 39 64  1  0  0  0
 39 67  2  0  0  0
 40 52  1  0  0  0
 40 53  2  0  0  0
 40 58  1  0  0  0
 41108  1  0  0  0
 41109  1  0  0  0
 41110  1  0  0  0
 41 48  1  0  0  0
 42 43  1  0  0  0
 42 66  1  0  0  0
 42111  1  0  0  0
 42112  1  0  0  0
 43 44  1  0  0  0
 44113  1  0  0  0
 45 46  2  0  0  0
 45114  1  0  0  0
 46115  1  0  0  0
 47116  1  0  0  0
 47117  1  0  0  0
 48 56  1  0  0  0
 48 65  1  0  0  0
 48118  1  0  0  0
 49 50  1  0  0  0
 49 53  1  0  0  0
 49 64  1  0  0  0
 49119  1  0  0  0
 50 51  1  0  0  0
 50120  1  0  0  0
 50121  1  0  0  0
 51 52  1  0  0  0
 51122  1  0  0  0
 51123  1  0  0  0
 52124  1  0  0  0
 52125  1  0  0  0
 53 54  1  0  0  0
 54 55  2  0  0  0
 54126  1  0  0  0
 55 57  1  0  0  0
 55127  1  0  0  0
 56 69  2  0  0  0
 57 58  2  0  0  0
 57128  1  0  0  0
 58129  1  0  0  0
 59 60  1  0  0  0
 59 61  1  0  0  0
 59 62  1  0  0  0
 60130  1  0  0  0
 60131  1  0  0  0
 60132  1  0  0  0
 61133  1  0  0  0
 61134  1  0  0  0
 61135  1  0  0  0
 62136  1  0  0  0
 62137  1  0  0  0
 62138  1  0  0  0
 63 65  1  0  0  0
 63139  1  0  0  0
 63140  1  0  0  0
 63141  1  0  0  0
 64142  1  0  0  0
 65143  1  0  0  0
 68 81  1  0  0  0
 71 72  2  0  0  0
 71 83  1  0  0  0
 71144  1  0  0  0
 72 84  1  0  0  0
 73 74  1  0  0  0
 73 83  1  0  0  0
 73 84  2  0  0  0
 74145  1  0  0  0
 74146  1  0  0  0
 74147  1  0  0  0
 75148  1  0  0  0
 75149  1  0  0  0
 75150  1  0  0  0
 75 82  1  0  0  0
 76 82  1  0  0  0
 76151  1  0  0  0
 76152  1  0  0  0
 76153  1  0  0  0
 77 78  1  0  0  0
 77 79  1  0  0  0
 77154  1  0  0  0
 77155  1  0  0  0
 78 81  1  0  0  0
 78156  1  0  0  0
 78157  1  0  0  0
 79 82  1  0  0  0
 79158  1  0  0  0
 79159  1  0  0  0
 80 82  1  0  0  0
 80 83  1  0  0  0
 80160  1  0  0  0
 80161  1  0  0  0
 81162  1  0  0  0
 81163  1  0  0  0
 84164  1  0  0  0
M  CHG  1  84   1
M  ISO  4   1 100  68 101  72 100  81 101
M  END
> <chiral flag>
0

> <version>
0

> <s_m_source_file>
/data/baiqing/PycharmProjects/Reinvent-master-3.2/result/LINK_invent/BTK/process_docking_weight1_custom_sum_contain_oxygen_bond_distance_aromatic_linkinvent_7_9_3/rearranged_h_0073.sdf

> <i_m_source_file_index>
88

> <r_mmod_Potential_Energy-OPLS-2005>
-2.2524893283844

> <r_mmod_Stretch_Energy-OPLS-2005>
56.6739501953125

> <r_mmod_Bend_Energy-OPLS-2005>
147.792694091797

> <r_mmod_Torsional_Energy-OPLS-2005>
249.607025146484

> <r_mmod_Improper_Torsional_Energy-OPLS-2005>
10.2312850952148

> <r_mmod_Van_der_Waal_Energy-OPLS-2005>
113.137176513672

> <r_mmod_Electrostatic_Energy-OPLS-2005>
-201.908340454102

> <r_mmod_Solvation_Energy-OPLS-2005>
-400.932983398438

> <b_mmod_Minimization_Converged-OPLS-2005>
0

> <r_mmod_RMS_Derivative-OPLS-2005>
3.65533638000488

$$$$
88
                    3D
 Structure written by MMmdl.
160168  0  0  1  0            999 V2000
  -30.6632  -14.6810   20.4902 C   0  0  0  0  0  0
  -30.4360  -12.4115   19.5116 C   0  0  0  0  0  0
  -29.5388  -12.5015   18.2589 C   0  0  0  0  0  0
  -28.0581  -12.3319   18.6454 C   0  0  0  0  0  0
  -27.6538  -13.2129   19.8586 C   0  0  2  0  0  0
  -28.6893  -13.1611   21.0045 C   0  0  0  0  0  0
  -25.2667  -13.8160   20.5723 C   0  0  0  0  0  0
  -24.1881  -13.0429   20.9162 C   0  0  0  0  0  0
  -24.6440  -11.6909   20.8704 C   0  0  0  0  0  0
  -23.9084  -10.4307   21.0364 C   0  0  0  0  0  0
  -24.3628   -9.4250   21.9175 C   0  0  0  0  0  0
  -23.6319   -8.2270   22.0749 C   0  0  0  0  0  0
  -22.4311   -8.0293   21.3535 C   0  0  0  0  0  0
  -21.9936   -9.0257   20.4629 C   0  0  0  0  0  0
  -22.7236  -10.2155   20.3032 C   0  0  0  0  0  0
  -21.6893   -6.0763   22.5272 C   0  0  0  0  0  0
  -21.4030   -6.5657   23.8205 C   0  0  0  0  0  0
  -21.3665   -5.6792   24.9163 C   0  0  0  0  0  0
  -21.6049   -4.3060   24.7200 C   0  0  0  0  0  0
  -21.8820   -3.8163   23.4330 C   0  0  0  0  0  0
  -21.9210   -4.6993   22.3387 C   0  0  0  0  0  0
  -22.7929  -13.5266   21.1797 C   0  0  0  0  0  0
  -22.1690   -4.2186   21.0970 F   0  0  0  0  0  0
  -21.5614   -3.4531   25.7713 F   0  0  0  0  0  0
  -30.0050  -13.4749   20.4417 N   0  0  0  0  0  0
  -26.3038  -12.9286   20.3299 N   0  0  0  0  0  0
  -25.9367  -11.6463   20.5709 N   0  0  0  0  0  0
  -22.0532  -12.8273   22.0352 N   0  0  0  0  0  0
  -25.4410  -15.1854   20.4250 N   0  0  0  0  0  0
  -31.8566  -14.7323   20.1809 O   0  0  0  0  0  0
  -21.6669   -6.8906   21.4234 O   0  0  0  0  0  0
  -22.3655  -14.5579   20.6668 O   0  0  0  0  0  0
  -24.6317  -31.8591   23.1993 C   0  0  0  0  0  0
  -25.9150  -32.4790   23.8316 C   0  0  1  0  0  0
  -27.1926  -27.2669   20.1587 C   0  0  0  0  0  0
  -25.5972  -33.8598   24.2308 N   0  0  0  0  0  0
  -23.4240  -30.4800   21.5424 C   0  0  2  0  0  0
  -24.8644  -28.9281   20.1054 C   0  0  0  0  0  0
  -22.7516  -29.4614   22.4967 C   0  0  0  0  0  0
  -18.0298  -28.1424   22.8518 C   0  0  0  0  0  0
  -24.1486  -36.7261   23.2640 C   0  0  0  0  0  0
  -25.9607  -30.7767   21.3629 C   0  0  0  0  0  0
  -26.0318  -29.3935   20.7231 C   0  0  0  0  0  0
  -27.2022  -28.5748   20.7416 C   0  0  0  0  0  0
  -26.0093  -26.8596   19.5093 C   0  0  0  0  0  0
  -24.8586  -27.6699   19.4776 C   0  0  0  0  0  0
  -23.6346  -29.8162   20.1567 C   0  0  0  0  0  0
  -25.4102  -36.3130   24.0391 C   0  0  1  0  0  0
  -20.5897  -28.3689   23.1353 C   0  0  2  0  0  0
  -20.6780  -26.9420   22.5447 C   0  0  0  0  0  0
  -19.5750  -26.6461   21.5242 C   0  0  0  0  0  0
  -18.1927  -26.7987   22.1644 C   0  0  0  0  0  0
  -19.1550  -28.8889   23.2929 C   0  0  0  0  0  0
  -18.9479  -30.1500   23.8941 C   0  0  0  0  0  0
  -17.6473  -30.6616   24.0625 C   0  0  0  0  0  0
  -25.9043  -34.9492   23.5159 C   0  0  0  0  0  0
  -16.5366  -29.9119   23.6379 C   0  0  0  0  0  0
  -16.7288  -28.6557   23.0358 C   0  0  0  0  0  0
  -26.4462  -31.6550   25.0674 C   0  0  0  0  0  0
  -25.3699  -31.3642   26.1416 C   0  0  0  0  0  0
  -27.0212  -30.3011   24.5939 C   0  0  0  0  0  0
  -27.6118  -32.4137   25.7433 C   0  0  0  0  0  0
  -27.5586  -37.1779   24.8496 C   0  0  0  0  0  0
  -21.4226  -29.3041   22.3750 N   0  0  0  0  0  0
  -26.4285  -37.3829   23.9462 N   0  0  0  0  0  0
  -24.6929  -31.0532   22.0955 N   0  0  0  0  0  0
  -23.4244  -28.8178   23.3075 O   0  0  0  0  0  0
  -28.2738  -26.3735   20.1943 O   0  0  0  0  0  0
  -26.5593  -34.8975   22.4715 O   0  0  0  0  0  0
  -23.5477  -32.1410   23.7294 O   0  0  0  0  0  0
  -30.5208  -17.2638   21.0444 C   0  0  0  0  0  0
  -28.4260  -17.6453   20.7277 C   0  0  0  0  0  0
  -29.9238  -16.0371   20.7275 C   0  0  0  0  0  0
  -28.9776  -22.5111   22.5335 C   0  0  0  0  0  0
  -30.3653  -24.1888   20.3108 C   0  0  0  0  0  0
  -28.5446  -23.5089   18.7451 C   0  0  0  0  0  0
  -29.3601  -20.9563   20.4583 C   0  0  0  0  0  0
  -29.6934  -19.7454   21.4525 C   0  0  0  0  0  0
  -28.0257  -25.0005   20.7351 C   0  0  0  0  0  0
  -28.6954  -22.3274   21.0235 C   0  0  2  0  0  0
  -28.8997  -23.7386   20.2268 C   0  0  0  0  0  0
  -28.5661  -16.3301   20.5114 N   0  0  0  0  0  0
  -29.5555  -18.3042   21.0352 N   0  0  0  0  0  0
  -31.4848  -12.5118   19.2289 H   0  0  0  0  0  0
  -30.3443  -11.4324   19.9902 H   0  0  0  0  0  0
  -29.8312  -11.7390   17.5377 H   0  0  0  0  0  0
  -29.6963  -13.4633   17.7668 H   0  0  0  0  0  0
  -27.8967  -11.2811   18.8883 H   0  0  0  0  0  0
  -27.4212  -12.5525   17.7866 H   0  0  0  0  0  0
  -27.6397  -14.2261   19.4686 H   0  0  0  0  0  0
  -28.7108  -12.1827   21.4869 H   0  0  0  0  0  0
  -28.4233  -13.8736   21.7868 H   0  0  0  0  0  0
  -25.2774   -9.5761   22.4773 H   0  0  0  0  0  0
  -24.0045   -7.4686   22.7499 H   0  0  0  0  0  0
  -21.0864   -8.8768   19.8948 H   0  0  0  0  0  0
  -22.3671  -10.9708   19.6159 H   0  0  0  0  0  0
  -21.2020   -7.6161   23.9723 H   0  0  0  0  0  0
  -21.1490   -6.0522   25.9073 H   0  0  0  0  0  0
  -22.0593   -2.7633   23.2799 H   0  0  0  0  0  0
  -22.4171  -11.9965   22.4766 H   0  0  0  0  0  0
  -21.1146  -13.1309   22.2464 H   0  0  0  0  0  0
  -24.6861  -15.8457   20.5728 H   0  0  0  0  0  0
  -26.3386  -15.6262   20.2369 H   0  0  0  0  0  0
  -26.7252  -32.5429   23.1057 H   0  0  0  0  0  0
  -25.0229  -33.9672   25.0537 H   0  0  0  0  0  0
  -22.7185  -31.3033   21.4035 H   0  0  0  0  0  0
  -23.3795  -35.9544   23.3335 H   0  0  0  0  0  0
  -24.3584  -36.8780   22.2037 H   0  0  0  0  0  0
  -23.7125  -37.6465   23.6554 H   0  0  0  0  0  0
  -26.0533  -31.5180   20.5673 H   0  0  0  0  0  0
  -26.8609  -30.8570   21.9606 H   0  0  0  0  0  0
  -28.0899  -28.9091   21.2602 H   0  0  0  0  0  0
  -25.9552  -25.8859   19.0454 H   0  0  0  0  0  0
  -23.9700  -27.3068   18.9788 H   0  0  0  0  0  0
  -23.7425  -30.5935   19.3973 H   0  0  0  0  0  0
  -22.7529  -29.2443   19.8642 H   0  0  0  0  0  0
  -25.1229  -36.2026   25.0878 H   0  0  0  0  0  0
  -20.9955  -28.3222   24.1488 H   0  0  0  0  0  0
  -20.5728  -26.2252   23.3595 H   0  0  0  0  0  0
  -21.6631  -26.7488   22.1189 H   0  0  0  0  0  0
  -19.6888  -25.6413   21.1172 H   0  0  0  0  0  0
  -19.6700  -27.3388   20.6872 H   0  0  0  0  0  0
  -17.4206  -26.6873   21.4019 H   0  0  0  0  0  0
  -18.0249  -26.0080   22.8987 H   0  0  0  0  0  0
  -19.7958  -30.7338   24.2270 H   0  0  0  0  0  0
  -17.5035  -31.6276   24.5261 H   0  0  0  0  0  0
  -15.5376  -30.3028   23.7697 H   0  0  0  0  0  0
  -15.8695  -28.0925   22.6970 H   0  0  0  0  0  0
  -24.6151  -30.6617   25.7854 H   0  0  0  0  0  0
  -24.8527  -32.2707   26.4596 H   0  0  0  0  0  0
  -25.8123  -30.9184   27.0336 H   0  0  0  0  0  0
  -26.2770  -29.6948   24.0782 H   0  0  0  0  0  0
  -27.3801  -29.7026   25.4302 H   0  0  0  0  0  0
  -27.8650  -30.4359   23.9193 H   0  0  0  0  0  0
  -27.2975  -33.3588   26.1842 H   0  0  0  0  0  0
  -28.4049  -32.6340   25.0288 H   0  0  0  0  0  0
  -28.0579  -31.8241   26.5443 H   0  0  0  0  0  0
  -28.2640  -38.0063   24.7629 H   0  0  0  0  0  0
  -28.1076  -36.2607   24.6253 H   0  0  0  0  0  0
  -27.2329  -37.1349   25.8914 H   0  0  0  0  0  0
  -20.9415  -29.8759   21.6951 H   0  0  0  0  0  0
  -26.0215  -38.2930   24.1494 H   0  0  0  0  0  0
  -31.5622  -17.4443   21.2785 H   0  0  0  0  0  0
  -27.4645  -18.1396   20.6982 H   0  0  0  0  0  0
  -30.0389  -22.6319   22.7431 H   0  0  0  0  0  0
  -28.6138  -21.6853   23.1456 H   0  0  0  0  0  0
  -28.4732  -23.3826   22.9342 H   0  0  0  0  0  0
  -30.5056  -25.0954   19.7220 H   0  0  0  0  0  0
  -31.0497  -23.4347   19.9232 H   0  0  0  0  0  0
  -30.6543  -24.4337   21.3341 H   0  0  0  0  0  0
  -28.4300  -24.4538   18.2122 H   0  0  0  0  0  0
  -27.6033  -22.9665   18.6400 H   0  0  0  0  0  0
  -29.3191  -22.9399   18.2287 H   0  0  0  0  0  0
  -28.7264  -20.5657   19.6624 H   0  0  0  0  0  0
  -30.3002  -21.2037   19.9663 H   0  0  0  0  0  0
  -29.0595  -19.8359   22.3275 H   0  0  0  0  0  0
  -30.7150  -19.8753   21.8152 H   0  0  0  0  0  0
  -26.9767  -24.7138   20.6629 H   0  0  0  0  0  0
  -28.1848  -25.1280   21.8053 H   0  0  0  0  0  0
  -27.6221  -22.1244   20.9624 H   0  0  0  0  0  0
  1 25  1  0  0  0
  1 30  2  0  0  0
  1 73  1  0  0  0
  2  3  1  0  0  0
  2 25  1  0  0  0
  2 84  1  0  0  0
  2 85  1  0  0  0
  3  4  1  0  0  0
  3 86  1  0  0  0
  3 87  1  0  0  0
  4  5  1  0  0  0
  4 88  1  0  0  0
  4 89  1  0  0  0
  5  6  1  0  0  0
  5 26  1  0  0  0
  5 90  1  0  0  0
  6 25  1  0  0  0
  6 91  1  0  0  0
  6 92  1  0  0  0
  7  8  2  0  0  0
  7 26  1  0  0  0
  7 29  1  0  0  0
  8  9  1  0  0  0
  8 22  1  0  0  0
  9 10  1  0  0  0
  9 27  2  0  0  0
 10 11  2  0  0  0
 10 15  1  0  0  0
 11 12  1  0  0  0
 11 93  1  0  0  0
 12 13  2  0  0  0
 12 94  1  0  0  0
 13 14  1  0  0  0
 13 31  1  0  0  0
 14 15  2  0  0  0
 14 95  1  0  0  0
 15 96  1  0  0  0
 16 17  2  0  0  0
 16 21  1  0  0  0
 16 31  1  0  0  0
 17 18  1  0  0  0
 17 97  1  0  0  0
 18 19  2  0  0  0
 18 98  1  0  0  0
 19 20  1  0  0  0
 19 24  1  0  0  0
 20 21  2  0  0  0
 20 99  1  0  0  0
 21 23  1  0  0  0
 22 28  1  0  0  0
 22 32  2  0  0  0
 26 27  1  0  0  0
 28100  1  0  0  0
 28101  1  0  0  0
 29102  1  0  0  0
 29103  1  0  0  0
 33 34  1  0  0  0
 33 66  1  0  0  0
 33 70  2  0  0  0
 34 36  1  0  0  0
 34 59  1  0  0  0
 34104  1  0  0  0
 35 44  2  0  0  0
 35 45  1  0  0  0
 35 68  1  0  0  0
 36 56  1  0  0  0
 36105  1  0  0  0
 37 39  1  0  0  0
 37 47  1  0  0  0
 37 66  1  0  0  0
 37106  1  0  0  0
 38 43  2  0  0  0
 38 46  1  0  0  0
 38 47  1  0  0  0
 39 64  1  0  0  0
 39 67  2  0  0  0
 40 52  1  0  0  0
 40 53  2  0  0  0
 40 58  1  0  0  0
 41107  1  0  0  0
 41108  1  0  0  0
 41109  1  0  0  0
 41 48  1  0  0  0
 42 43  1  0  0  0
 42 66  1  0  0  0
 42110  1  0  0  0
 42111  1  0  0  0
 43 44  1  0  0  0
 44112  1  0  0  0
 45 46  2  0  0  0
 45113  1  0  0  0
 46114  1  0  0  0
 47115  1  0  0  0
 47116  1  0  0  0
 48 56  1  0  0  0
 48 65  1  0  0  0
 48117  1  0  0  0
 49 50  1  0  0  0
 49 53  1  0  0  0
 49 64  1  0  0  0
 49118  1  0  0  0
 50 51  1  0  0  0
 50119  1  0  0  0
 50120  1  0  0  0
 51 52  1  0  0  0
 51121  1  0  0  0
 51122  1  0  0  0
 52123  1  0  0  0
 52124  1  0  0  0
 53 54  1  0  0  0
 54 55  2  0  0  0
 54125  1  0  0  0
 55 57  1  0  0  0
 55126  1  0  0  0
 56 69  2  0  0  0
 57 58  2  0  0  0
 57127  1  0  0  0
 58128  1  0  0  0
 59 60  1  0  0  0
 59 61  1  0  0  0
 59 62  1  0  0  0
 60129  1  0  0  0
 60130  1  0  0  0
 60131  1  0  0  0
 61132  1  0  0  0
 61133  1  0  0  0
 61134  1  0  0  0
 62135  1  0  0  0
 62136  1  0  0  0
 62137  1  0  0  0
 63 65  1  0  0  0
 63138  1  0  0  0
 63139  1  0  0  0
 63140  1  0  0  0
 64141  1  0  0  0
 65142  1  0  0  0
 68 79  1  0  0  0
 71 73  2  0  0  0
 71 83  1  0  0  0
 71143  1  0  0  0
 72 82  2  0  0  0
 72 83  1  0  0  0
 72144  1  0  0  0
 73 82  1  0  0  0
 74145  1  0  0  0
 74146  1  0  0  0
 74147  1  0  0  0
 74 80  1  0  0  0
 75148  1  0  0  0
 75149  1  0  0  0
 75150  1  0  0  0
 75 81  1  0  0  0
 76 81  1  0  0  0
 76151  1  0  0  0
 76152  1  0  0  0
 76153  1  0  0  0
 77 78  1  0  0  0
 77 80  1  0  0  0
 77154  1  0  0  0
 77155  1  0  0  0
 78 83  1  0  0  0
 78156  1  0  0  0
 78157  1  0  0  0
 79 81  1  0  0  0
 79158  1  0  0  0
 79159  1  0  0  0
 80 81  1  0  0  0
 80160  1  0  0  0
M  ISO  4   1 100  68 101  73 100  79 101
M  END
> <chiral flag>
0

> <version>
0

> <s_m_source_file>
/data/baiqing/PycharmProjects/Reinvent-master-3.2/result/LINK_invent/BTK/process_docking_weight1_custom_sum_contain_oxygen_bond_distance_aromatic_linkinvent_7_9_3/rearranged_h_0073.sdf

> <i_m_source_file_index>
89

> <r_mmod_Potential_Energy-OPLS-2005>
296.272277832031

> <r_mmod_Stretch_Energy-OPLS-2005>
106.465965270996

> <r_mmod_Bend_Energy-OPLS-2005>
168.812622070312

> <r_mmod_Torsional_Energy-OPLS-2005>
262.497528076172

> <r_mmod_Improper_Torsional_Energy-OPLS-2005>
5.25532197952271

> <r_mmod_Van_der_Waal_Energy-OPLS-2005>
122.30810546875

> <r_mmod_Electrostatic_Energy-OPLS-2005>
-262.9541015625

> <r_mmod_Solvation_Energy-OPLS-2005>
-180.140502929688

> <b_mmod_Minimization_Converged-OPLS-2005>
0

> <r_mmod_RMS_Derivative-OPLS-2005>
6.7064790725708

$$$$
89
                    3D
 Structure written by MMmdl.
172180  0  0  1  0            999 V2000
  -30.7125  -14.5569   20.4626 C   0  0  0  0  0  0
  -30.4211  -12.3295   19.4477 C   0  0  0  0  0  0
  -29.4946  -12.4225   18.2183 C   0  0  0  0  0  0
  -28.0138  -12.2945   18.6344 C   0  0  0  0  0  0
  -27.6338  -13.1825   19.8485 C   0  0  2  0  0  0
  -28.6940  -13.1086   20.9729 C   0  0  0  0  0  0
  -25.2536  -13.8073   20.5754 C   0  0  0  0  0  0
  -24.1767  -13.0402   20.9229 C   0  0  0  0  0  0
  -24.6304  -11.6866   20.8773 C   0  0  0  0  0  0
  -23.8986  -10.4288   21.0425 C   0  0  0  0  0  0
  -24.3572   -9.4223   21.9191 C   0  0  0  0  0  0
  -23.6267   -8.2257   22.0757 C   0  0  0  0  0  0
  -22.4253   -8.0300   21.3553 C   0  0  0  0  0  0
  -21.9879   -9.0261   20.4648 C   0  0  0  0  0  0
  -22.7195  -10.2138   20.3049 C   0  0  0  0  0  0
  -21.6863   -6.0736   22.5271 C   0  0  0  0  0  0
  -21.4046   -6.5633   23.8208 C   0  0  0  0  0  0
  -21.3646   -5.6772   24.9156 C   0  0  0  0  0  0
  -21.6040   -4.3040   24.7211 C   0  0  0  0  0  0
  -21.8816   -3.8140   23.4333 C   0  0  0  0  0  0
  -21.9193   -4.6961   22.3390 C   0  0  0  0  0  0
  -22.7808  -13.5260   21.1837 C   0  0  0  0  0  0
  -22.1652   -4.2139   21.0966 F   0  0  0  0  0  0
  -21.5625   -3.4526   25.7722 F   0  0  0  0  0  0
  -30.0124  -13.3856   20.3860 N   0  0  0  0  0  0
  -26.2898  -12.9165   20.3363 N   0  0  0  0  0  0
  -25.9219  -11.6377   20.5816 N   0  0  0  0  0  0
  -22.0399  -12.8296   22.0380 N   0  0  0  0  0  0
  -25.4303  -15.1798   20.4207 N   0  0  0  0  0  0
  -31.9216  -14.6045   20.2209 O   0  0  0  0  0  0
  -21.6653   -6.8886   21.4239 O   0  0  0  0  0  0
  -22.3536  -14.5563   20.6647 O   0  0  0  0  0  0
  -24.6150  -31.8669   23.2107 C   0  0  0  0  0  0
  -25.9057  -32.4796   23.8385 C   0  0  1  0  0  0
  -27.2380  -27.4243   20.1334 C   0  0  0  0  0  0
  -25.5929  -33.8599   24.2303 N   0  0  0  0  0  0
  -23.4009  -30.4903   21.5524 C   0  0  2  0  0  0
  -24.8481  -28.9457   20.1283 C   0  0  0  0  0  0
  -22.7397  -29.4653   22.5014 C   0  0  0  0  0  0
  -18.0272  -28.1370   22.8483 C   0  0  0  0  0  0
  -24.1496  -36.7311   23.2640 C   0  0  0  0  0  0
  -25.9294  -30.8325   21.3630 C   0  0  0  0  0  0
  -26.0065  -29.4636   20.7207 C   0  0  0  0  0  0
  -27.2050  -28.7148   20.7136 C   0  0  0  0  0  0
  -26.0669  -26.9249   19.5285 C   0  0  0  0  0  0
  -24.8721  -27.6733   19.5293 C   0  0  0  0  0  0
  -23.6105  -29.8163   20.1691 C   0  0  0  0  0  0
  -25.4123  -36.3087   24.0313 C   0  0  1  0  0  0
  -20.5857  -28.3652   23.1327 C   0  0  2  0  0  0
  -20.6758  -26.9389   22.5422 C   0  0  0  0  0  0
  -19.5741  -26.6378   21.5212 C   0  0  0  0  0  0
  -18.1917  -26.7918   22.1616 C   0  0  0  0  0  0
  -19.1512  -28.8823   23.2900 C   0  0  0  0  0  0
  -18.9447  -30.1434   23.8902 C   0  0  0  0  0  0
  -17.6447  -30.6573   24.0566 C   0  0  0  0  0  0
  -25.9045  -34.9447   23.5095 C   0  0  0  0  0  0
  -16.5343  -29.9074   23.6327 C   0  0  0  0  0  0
  -16.7255  -28.6498   23.0333 C   0  0  0  0  0  0
  -26.4486  -31.6569   25.0710 C   0  0  0  0  0  0
  -25.3756  -31.3684   26.1458 C   0  0  0  0  0  0
  -27.0322  -30.3000   24.6090 C   0  0  0  0  0  0
  -27.6041  -32.4300   25.7487 C   0  0  0  0  0  0
  -27.5579  -37.1807   24.8456 C   0  0  0  0  0  0
  -21.4130  -29.3030   22.3751 N   0  0  0  0  0  0
  -26.4295  -37.3779   23.9388 N   0  0  0  0  0  0
  -24.6661  -31.0772   22.1006 N   0  0  0  0  0  0
  -23.4175  -28.8195   23.3054 O   0  0  0  0  0  0
  -28.4014  -26.6858   20.0228 O   0  0  0  0  0  0
  -26.5611  -34.8897   22.4660 O   0  0  0  0  0  0
  -23.5345  -32.1418   23.7510 O   0  0  0  0  0  0
  -28.7098  -23.3073   21.4439 C   0  0  0  0  0  0
  -28.6477  -22.5435   20.2555 C   0  0  0  0  0  0
  -29.3714  -22.6779   22.5296 C   0  0  0  0  0  0
  -29.8435  -20.8402   21.2273 C   0  0  0  0  0  0
  -27.9488  -23.0363   18.9993 C   0  0  0  0  0  0
  -31.0249  -23.6496   24.1978 C   0  0  0  0  0  0
  -30.3305  -25.5412   20.6187 C   0  0  0  0  0  0
  -29.1505  -26.8737   22.3614 C   0  0  0  0  0  0
  -29.1880  -16.0922   19.4019 C   0  0  0  0  0  0
  -28.0591  -24.7091   21.5315 C   0  0  0  0  0  0
  -29.5575  -23.2883   23.9149 C   0  0  0  0  0  0
  -30.6148  -19.5251   21.0668 C   0  0  0  0  0  0
  -29.8293  -18.2154   21.3474 C   0  0  0  0  0  0
  -30.7029  -16.9387   21.0784 C   0  0  0  0  0  0
  -28.9409  -25.9511   21.1446 C   0  0  0  0  0  0
  -29.2149  -21.3229   20.1611 N   0  0  0  0  0  0
  -29.9160  -21.4495   22.4020 N   0  0  0  0  0  0
  -30.0059  -15.7247   20.5710 N   0  0  0  0  0  0
  -31.4626  -12.4223   19.1342 H   0  0  0  0  0  0
  -30.3370  -11.3503   19.9233 H   0  0  0  0  0  0
  -29.7448  -11.6286   17.5112 H   0  0  0  0  0  0
  -29.6626  -13.3595   17.6864 H   0  0  0  0  0  0
  -27.8322  -11.2478   18.8780 H   0  0  0  0  0  0
  -27.3619  -12.5200   17.7886 H   0  0  0  0  0  0
  -27.5897  -14.1848   19.4531 H   0  0  0  0  0  0
  -28.6944  -12.1185   21.4279 H   0  0  0  0  0  0
  -28.4622  -13.8175   21.7714 H   0  0  0  0  0  0
  -25.2722   -9.5728   22.4749 H   0  0  0  0  0  0
  -23.9986   -7.4660   22.7483 H   0  0  0  0  0  0
  -21.0816   -8.8815   19.8948 H   0  0  0  0  0  0
  -22.3695  -10.9693   19.6149 H   0  0  0  0  0  0
  -21.2093   -7.6149   23.9717 H   0  0  0  0  0  0
  -21.1443   -6.0501   25.9052 H   0  0  0  0  0  0
  -22.0605   -2.7613   23.2825 H   0  0  0  0  0  0
  -22.3999  -12.0013   22.4885 H   0  0  0  0  0  0
  -21.1004  -13.1355   22.2481 H   0  0  0  0  0  0
  -24.6742  -15.8451   20.5427 H   0  0  0  0  0  0
  -26.2970  -15.6113   20.1293 H   0  0  0  0  0  0
  -26.7132  -32.5500   23.1142 H   0  0  0  0  0  0
  -25.0079  -33.9771   25.0456 H   0  0  0  0  0  0
  -22.6909  -31.3079   21.4137 H   0  0  0  0  0  0
  -23.3723  -35.9677   23.3321 H   0  0  0  0  0  0
  -24.3576  -36.8929   22.2053 H   0  0  0  0  0  0
  -23.7291  -37.6526   23.6672 H   0  0  0  0  0  0
  -26.0433  -31.5944   20.5905 H   0  0  0  0  0  0
  -26.8184  -30.8884   21.9794 H   0  0  0  0  0  0
  -28.1013  -29.1349   21.1455 H   0  0  0  0  0  0
  -26.0823  -25.9531   19.0559 H   0  0  0  0  0  0
  -23.9831  -27.2645   19.0697 H   0  0  0  0  0  0
  -23.7212  -30.5897   19.4084 H   0  0  0  0  0  0
  -22.7337  -29.2373   19.8725 H   0  0  0  0  0  0
  -25.1312  -36.1930   25.0806 H   0  0  0  0  0  0
  -20.9947  -28.3212   24.1446 H   0  0  0  0  0  0
  -20.5672  -26.2250   23.3603 H   0  0  0  0  0  0
  -21.6634  -26.7445   22.1221 H   0  0  0  0  0  0
  -19.6909  -25.6295   21.1226 H   0  0  0  0  0  0
  -19.6689  -27.3201   20.6757 H   0  0  0  0  0  0
  -17.4200  -26.6667   21.4007 H   0  0  0  0  0  0
  -18.0314  -26.0052   22.9002 H   0  0  0  0  0  0
  -19.7920  -30.7249   24.2263 H   0  0  0  0  0  0
  -17.5003  -31.6253   24.5173 H   0  0  0  0  0  0
  -15.5338  -30.2979   23.7640 H   0  0  0  0  0  0
  -15.8662  -28.0832   22.7019 H   0  0  0  0  0  0
  -24.5907  -30.7061   25.7793 H   0  0  0  0  0  0
  -24.8976  -32.2849   26.4933 H   0  0  0  0  0  0
  -25.8107  -30.8820   27.0196 H   0  0  0  0  0  0
  -26.2858  -29.6731   24.1196 H   0  0  0  0  0  0
  -27.4148  -29.7266   25.4536 H   0  0  0  0  0  0
  -27.8668  -30.4316   23.9192 H   0  0  0  0  0  0
  -27.2624  -33.3577   26.2092 H   0  0  0  0  0  0
  -28.3843  -32.6906   25.0325 H   0  0  0  0  0  0
  -28.0714  -31.8411   26.5385 H   0  0  0  0  0  0
  -28.2591  -38.0112   24.7491 H   0  0  0  0  0  0
  -28.1074  -36.2628   24.6295 H   0  0  0  0  0  0
  -27.2283  -37.1486   25.8858 H   0  0  0  0  0  0
  -20.9276  -29.8752   21.6983 H   0  0  0  0  0  0
  -26.0153  -38.2838   24.1409 H   0  0  0  0  0  0
  -28.3083  -24.0249   18.7141 H   0  0  0  0  0  0
  -26.8726  -23.0941   19.1611 H   0  0  0  0  0  0
  -28.1173  -22.3649   18.1550 H   0  0  0  0  0  0
  -31.1509  -24.0178   25.2150 H   0  0  0  0  0  0
  -31.3819  -24.4169   23.5131 H   0  0  0  0  0  0
  -31.6700  -22.7786   24.0815 H   0  0  0  0  0  0
  -30.9148  -26.4165   20.3300 H   0  0  0  0  0  0
  -30.2612  -24.9048   19.7392 H   0  0  0  0  0  0
  -30.9095  -25.0020   21.3679 H   0  0  0  0  0  0
  -29.7064  -26.3699   23.1525 H   0  0  0  0  0  0
  -28.2022  -27.1966   22.7906 H   0  0  0  0  0  0
  -29.7135  -27.7673   22.0902 H   0  0  0  0  0  0
  -28.1569  -16.2776   19.7049 H   0  0  0  0  0  0
  -29.1865  -15.3337   18.6209 H   0  0  0  0  0  0
  -29.5521  -16.9905   18.9036 H   0  0  0  0  0  0
  -27.6386  -24.8497   22.5260 H   0  0  0  0  0  0
  -27.1651  -24.7005   20.9118 H   0  0  0  0  0  0
  -29.2228  -22.5586   24.6547 H   0  0  0  0  0  0
  -28.9290  -24.1603   24.0731 H   0  0  0  0  0  0
  -31.4985  -19.5617   21.7058 H   0  0  0  0  0  0
  -30.9979  -19.4951   20.0463 H   0  0  0  0  0  0
  -28.9285  -18.2482   20.7373 H   0  0  0  0  0  0
  -29.4791  -18.2188   22.3800 H   0  0  0  0  0  0
  -31.2526  -16.6897   21.9890 H   0  0  0  0  0  0
  -31.4707  -17.1910   20.3443 H   0  0  0  0  0  0
  1 25  1  0  0  0
  1 30  2  0  0  0
  1 88  1  0  0  0
  2  3  1  0  0  0
  2 25  1  0  0  0
  2 89  1  0  0  0
  2 90  1  0  0  0
  3  4  1  0  0  0
  3 91  1  0  0  0
  3 92  1  0  0  0
  4  5  1  0  0  0
  4 93  1  0  0  0
  4 94  1  0  0  0
  5  6  1  0  0  0
  5 26  1  0  0  0
  5 95  1  0  0  0
  6 25  1  0  0  0
  6 96  1  0  0  0
  6 97  1  0  0  0
  7  8  2  0  0  0
  7 26  1  0  0  0
  7 29  1  0  0  0
  8  9  1  0  0  0
  8 22  1  0  0  0
  9 10  1  0  0  0
  9 27  2  0  0  0
 10 11  2  0  0  0
 10 15  1  0  0  0
 11 12  1  0  0  0
 11 98  1  0  0  0
 12 13  2  0  0  0
 12 99  1  0  0  0
 13 14  1  0  0  0
 13 31  1  0  0  0
 14 15  2  0  0  0
 14100  1  0  0  0
 15101  1  0  0  0
 16 17  2  0  0  0
 16 21  1  0  0  0
 16 31  1  0  0  0
 17 18  1  0  0  0
 17102  1  0  0  0
 18 19  2  0  0  0
 18103  1  0  0  0
 19 20  1  0  0  0
 19 24  1  0  0  0
 20 21  2  0  0  0
 20104  1  0  0  0
 21 23  1  0  0  0
 22 28  1  0  0  0
 22 32  2  0  0  0
 26 27  1  0  0  0
 28105  1  0  0  0
 28106  1  0  0  0
 29107  1  0  0  0
 29108  1  0  0  0
 33 34  1  0  0  0
 33 66  1  0  0  0
 33 70  2  0  0  0
 34 36  1  0  0  0
 34 59  1  0  0  0
 34109  1  0  0  0
 35 44  2  0  0  0
 35 45  1  0  0  0
 35 68  1  0  0  0
 36 56  1  0  0  0
 36110  1  0  0  0
 37 39  1  0  0  0
 37 47  1  0  0  0
 37 66  1  0  0  0
 37111  1  0  0  0
 38 43  2  0  0  0
 38 46  1  0  0  0
 38 47  1  0  0  0
 39 64  1  0  0  0
 39 67  2  0  0  0
 40 52  1  0  0  0
 40 53  2  0  0  0
 40 58  1  0  0  0
 41112  1  0  0  0
 41113  1  0  0  0
 41114  1  0  0  0
 41 48  1  0  0  0
 42 43  1  0  0  0
 42 66  1  0  0  0
 42115  1  0  0  0
 42116  1  0  0  0
 43 44  1  0  0  0
 44117  1  0  0  0
 45 46  2  0  0  0
 45118  1  0  0  0
 46119  1  0  0  0
 47120  1  0  0  0
 47121  1  0  0  0
 48 56  1  0  0  0
 48 65  1  0  0  0
 48122  1  0  0  0
 49 50  1  0  0  0
 49 53  1  0  0  0
 49 64  1  0  0  0
 49123  1  0  0  0
 50 51  1  0  0  0
 50124  1  0  0  0
 50125  1  0  0  0
 51 52  1  0  0  0
 51126  1  0  0  0
 51127  1  0  0  0
 52128  1  0  0  0
 52129  1  0  0  0
 53 54  1  0  0  0
 54 55  2  0  0  0
 54130  1  0  0  0
 55 57  1  0  0  0
 55131  1  0  0  0
 56 69  2  0  0  0
 57 58  2  0  0  0
 57132  1  0  0  0
 58133  1  0  0  0
 59 60  1  0  0  0
 59 61  1  0  0  0
 59 62  1  0  0  0
 60134  1  0  0  0
 60135  1  0  0  0
 60136  1  0  0  0
 61137  1  0  0  0
 61138  1  0  0  0
 61139  1  0  0  0
 62140  1  0  0  0
 62141  1  0  0  0
 62142  1  0  0  0
 63 65  1  0  0  0
 63143  1  0  0  0
 63144  1  0  0  0
 63145  1  0  0  0
 64146  1  0  0  0
 65147  1  0  0  0
 68 85  1  0  0  0
 71 72  2  0  0  0
 71 73  1  0  0  0
 71 80  1  0  0  0
 72 75  1  0  0  0
 72 86  1  0  0  0
 73 81  1  0  0  0
 73 87  2  0  0  0
 74 82  1  0  0  0
 74 86  2  0  0  0
 74 87  1  0  0  0
 75148  1  0  0  0
 75149  1  0  0  0
 75150  1  0  0  0
 76 81  1  0  0  0
 76151  1  0  0  0
 76152  1  0  0  0
 76153  1  0  0  0
 77154  1  0  0  0
 77155  1  0  0  0
 77156  1  0  0  0
 77 85  1  0  0  0
 78 85  1  0  0  0
 78157  1  0  0  0
 78158  1  0  0  0
 78159  1  0  0  0
 79 88  1  0  0  0
 79160  1  0  0  0
 79161  1  0  0  0
 79162  1  0  0  0
 80 85  1  0  0  0
 80163  1  0  0  0
 80164  1  0  0  0
 81165  1  0  0  0
 81166  1  0  0  0
 82 83  1  0  0  0
 82167  1  0  0  0
 82168  1  0  0  0
 83 84  1  0  0  0
 83169  1  0  0  0
 83170  1  0  0  0
 84 88  1  0  0  0
 84171  1  0  0  0
 84172  1  0  0  0
M  ISO  4   1 100  68 101  85 101  88 100
M  END
> <chiral flag>
0

> <version>
0

> <s_m_source_file>
/data/baiqing/PycharmProjects/Reinvent-master-3.2/result/LINK_invent/BTK/process_docking_weight1_custom_sum_contain_oxygen_bond_distance_aromatic_linkinvent_7_9_3/rearranged_h_0073.sdf

> <i_m_source_file_index>
90

> <r_mmod_Potential_Energy-OPLS-2005>
-317.099029541016

> <r_mmod_Stretch_Energy-OPLS-2005>
46.411262512207

> <r_mmod_Bend_Energy-OPLS-2005>
134.85124206543

> <r_mmod_Torsional_Energy-OPLS-2005>
291.295837402344

> <r_mmod_Improper_Torsional_Energy-OPLS-2005>
10.1921892166138

> <r_mmod_Van_der_Waal_Energy-OPLS-2005>
168.102066040039

> <r_mmod_Electrostatic_Energy-OPLS-2005>
-786.830261230469

> <r_mmod_Solvation_Energy-OPLS-2005>
-211.811233520508

> <b_mmod_Minimization_Converged-OPLS-2005>
0

> <r_mmod_RMS_Derivative-OPLS-2005>
3.16048550605774

$$$$
90
                    3D
 Structure written by MMmdl.
168176  0  0  1  0            999 V2000
  -30.6331  -14.7906   20.5835 C   0  0  0  0  0  0
  -30.4338  -12.4982   19.5278 C   0  0  0  0  0  0
  -29.5229  -12.4978   18.2768 C   0  0  0  0  0  0
  -28.0566  -12.2776   18.6918 C   0  0  0  0  0  0
  -27.6374  -13.2138   19.8496 C   0  0  2  0  0  0
  -28.6573  -13.1581   21.0054 C   0  0  0  0  0  0
  -25.2465  -13.8126   20.5594 C   0  0  0  0  0  0
  -24.1775  -13.0385   20.9151 C   0  0  0  0  0  0
  -24.6360  -11.6849   20.8757 C   0  0  0  0  0  0
  -23.9053  -10.4263   21.0464 C   0  0  0  0  0  0
  -24.3660   -9.4196   21.9204 C   0  0  0  0  0  0
  -23.6366   -8.2223   22.0753 C   0  0  0  0  0  0
  -22.4341   -8.0265   21.3546 C   0  0  0  0  0  0
  -21.9979   -9.0189   20.4630 C   0  0  0  0  0  0
  -22.7277  -10.2079   20.3069 C   0  0  0  0  0  0
  -21.6832   -6.0798   22.5280 C   0  0  0  0  0  0
  -21.3969   -6.5696   23.8212 C   0  0  0  0  0  0
  -21.3666   -5.6835   24.9165 C   0  0  0  0  0  0
  -21.6091   -4.3091   24.7193 C   0  0  0  0  0  0
  -21.8801   -3.8185   23.4299 C   0  0  0  0  0  0
  -21.9169   -4.7033   22.3384 C   0  0  0  0  0  0
  -22.7818  -13.5124   21.1988 C   0  0  0  0  0  0
  -22.1609   -4.2267   21.0951 F   0  0  0  0  0  0
  -21.5725   -3.4558   25.7683 F   0  0  0  0  0  0
  -29.9726  -13.5680   20.4731 N   0  0  0  0  0  0
  -26.2878  -12.9292   20.3185 N   0  0  0  0  0  0
  -25.9259  -11.6453   20.5701 N   0  0  0  0  0  0
  -22.0576  -12.7977   22.0553 N   0  0  0  0  0  0
  -25.4199  -15.1852   20.4061 N   0  0  0  0  0  0
  -31.7553  -14.8246   20.0542 O   0  0  0  0  0  0
  -21.6673   -6.8919   21.4229 O   0  0  0  0  0  0
  -22.3472  -14.5488   20.6956 O   0  0  0  0  0  0
  -24.6288  -31.8514   23.2057 C   0  0  0  0  0  0
  -25.9071  -32.4770   23.8438 C   0  0  1  0  0  0
  -27.2214  -27.2987   20.0614 C   0  0  0  0  0  0
  -25.5871  -33.8588   24.2335 N   0  0  0  0  0  0
  -23.4225  -30.4831   21.5484 C   0  0  2  0  0  0
  -24.8623  -28.9230   20.1260 C   0  0  0  0  0  0
  -22.7464  -29.4571   22.4916 C   0  0  0  0  0  0
  -18.0307  -28.1375   22.8543 C   0  0  0  0  0  0
  -24.1443  -36.7279   23.2632 C   0  0  0  0  0  0
  -25.9730  -30.7705   21.3820 C   0  0  0  0  0  0
  -26.0412  -29.4011   20.7077 C   0  0  0  0  0  0
  -27.2247  -28.6026   20.6577 C   0  0  0  0  0  0
  -26.0206  -26.8622   19.4842 C   0  0  0  0  0  0
  -24.8570  -27.6565   19.5125 C   0  0  0  0  0  0
  -23.6372  -29.8112   20.1736 C   0  0  0  0  0  0
  -25.4111  -36.3121   24.0332 C   0  0  1  0  0  0
  -20.5873  -28.3668   23.1222 C   0  0  2  0  0  0
  -20.6782  -26.9381   22.5349 C   0  0  0  0  0  0
  -19.5733  -26.6382   21.5214 C   0  0  0  0  0  0
  -18.1950  -26.7901   22.1693 C   0  0  0  0  0  0
  -19.1547  -28.8858   23.2892 C   0  0  0  0  0  0
  -18.9433  -30.1483   23.8893 C   0  0  0  0  0  0
  -17.6444  -30.6614   24.0518 C   0  0  0  0  0  0
  -25.9032  -34.9467   23.5125 C   0  0  0  0  0  0
  -16.5348  -29.9121   23.6304 C   0  0  0  0  0  0
  -16.7275  -28.6471   23.0428 C   0  0  0  0  0  0
  -26.4487  -31.6598   25.0836 C   0  0  0  0  0  0
  -25.3608  -31.3743   26.1496 C   0  0  0  0  0  0
  -27.0380  -30.3012   24.6353 C   0  0  0  0  0  0
  -27.6064  -32.4344   25.7553 C   0  0  0  0  0  0
  -27.5585  -37.1855   24.8450 C   0  0  0  0  0  0
  -21.4181  -29.3087   22.3643 N   0  0  0  0  0  0
  -26.4283  -37.3838   23.9407 N   0  0  0  0  0  0
  -24.6959  -31.0497   22.1004 N   0  0  0  0  0  0
  -23.4170  -28.8047   23.2966 O   0  0  0  0  0  0
  -28.3785  -26.5045   19.9468 O   0  0  0  0  0  0
  -26.5611  -34.8848   22.4724 O   0  0  0  0  0  0
  -23.5466  -32.1293   23.7413 O   0  0  0  0  0  0
  -28.8616  -16.9799   19.1626 C   0  0  0  0  0  0
  -28.0786  -19.2532   18.7952 C   0  0  0  0  0  0
  -28.1071  -17.9015   18.4128 C   0  0  0  0  0  0
  -29.5078  -17.3727   20.3536 C   0  0  0  0  0  0
  -28.7578  -19.6897   19.9498 C   0  0  0  0  0  0
  -27.2416  -17.4095   17.2683 C   0  0  0  0  0  0
  -29.2190  -15.9925   22.5108 C   0  0  0  0  0  0
  -31.4644  -16.7736   21.9563 C   0  0  0  0  0  0
  -27.1022  -21.3088   21.0306 C   0  0  0  0  0  0
  -29.5282  -21.6055   21.4915 C   0  0  0  0  0  0
  -27.9848  -23.8604   19.2541 C   0  0  0  0  0  0
  -28.6338  -22.3615   19.2478 C   0  0  0  0  0  0
  -28.4370  -25.0387   20.2367 C   0  0  0  0  0  0
  -30.1578  -16.2140   21.2924 C   0  0  0  0  0  0
  -28.5130  -21.2210   20.4034 C   0  0  0  0  0  0
  -29.4136  -18.7226   20.7348 N   0  0  0  0  0  0
  -31.4798  -12.6002   19.2233 H   0  0  0  0  0  0
  -30.3891  -11.5282   20.0223 H   0  0  0  0  0  0
  -29.8369  -11.7094   17.5861 H   0  0  0  0  0  0
  -29.6333  -13.4405   17.7410 H   0  0  0  0  0  0
  -27.9707  -11.2421   19.0334 H   0  0  0  0  0  0
  -27.3777  -12.3655   17.8448 H   0  0  0  0  0  0
  -27.6256  -14.2274   19.4540 H   0  0  0  0  0  0
  -28.7283  -12.1475   21.4185 H   0  0  0  0  0  0
  -28.2756  -13.7435   21.8322 H   0  0  0  0  0  0
  -25.2827   -9.5691   22.4742 H   0  0  0  0  0  0
  -24.0131   -7.4602   22.7427 H   0  0  0  0  0  0
  -21.0963   -8.8648   19.8905 H   0  0  0  0  0  0
  -22.3749  -10.9588   19.6163 H   0  0  0  0  0  0
  -21.1907   -7.6187   23.9727 H   0  0  0  0  0  0
  -21.1542   -6.0579   25.9106 H   0  0  0  0  0  0
  -22.0595   -2.7666   23.2716 H   0  0  0  0  0  0
  -22.4363  -11.9562   22.4656 H   0  0  0  0  0  0
  -21.1133  -13.0758   22.2940 H   0  0  0  0  0  0
  -24.6475  -15.8237   20.5588 H   0  0  0  0  0  0
  -26.2893  -15.6393   20.1525 H   0  0  0  0  0  0
  -26.7131  -32.5373   23.1190 H   0  0  0  0  0  0
  -24.9903  -33.9783   25.0391 H   0  0  0  0  0  0
  -22.7144  -31.3063   21.4046 H   0  0  0  0  0  0
  -23.3750  -35.9564   23.3362 H   0  0  0  0  0  0
  -24.3479  -36.8879   22.2042 H   0  0  0  0  0  0
  -23.7112  -37.6477   23.6610 H   0  0  0  0  0  0
  -26.1096  -31.5484   20.6238 H   0  0  0  0  0  0
  -26.8459  -30.8078   22.0236 H   0  0  0  0  0  0
  -28.1373  -28.9854   21.0851 H   0  0  0  0  0  0
  -25.9787  -25.9110   18.9677 H   0  0  0  0  0  0
  -23.9485  -27.2960   19.0542 H   0  0  0  0  0  0
  -23.7585  -30.5816   19.4129 H   0  0  0  0  0  0
  -22.7460  -29.2578   19.8729 H   0  0  0  0  0  0
  -25.1326  -36.2091   25.0829 H   0  0  0  0  0  0
  -21.0045  -28.3302   24.1288 H   0  0  0  0  0  0
  -20.5719  -26.2234   23.3513 H   0  0  0  0  0  0
  -21.6588  -26.7424   22.1022 H   0  0  0  0  0  0
  -19.6848  -25.6303   21.1236 H   0  0  0  0  0  0
  -19.6627  -27.3150   20.6696 H   0  0  0  0  0  0
  -17.4166  -26.6548   21.4195 H   0  0  0  0  0  0
  -18.0437  -26.0094   22.9131 H   0  0  0  0  0  0
  -19.7902  -30.7333   24.2170 H   0  0  0  0  0  0
  -17.4984  -31.6264   24.5137 H   0  0  0  0  0  0
  -15.5347  -30.3033   23.7523 H   0  0  0  0  0  0
  -15.8644  -28.0749   22.7248 H   0  0  0  0  0  0
  -24.5780  -30.7141   25.7762 H   0  0  0  0  0  0
  -24.8744  -32.2877   26.4934 H   0  0  0  0  0  0
  -25.7832  -30.8898   27.0291 H   0  0  0  0  0  0
  -26.3065  -29.6740   24.1244 H   0  0  0  0  0  0
  -27.3911  -29.7334   25.4993 H   0  0  0  0  0  0
  -27.8974  -30.4375   23.9750 H   0  0  0  0  0  0
  -27.2754  -33.3652   26.2183 H   0  0  0  0  0  0
  -28.3819  -32.6937   25.0295 H   0  0  0  0  0  0
  -28.0767  -31.8415   26.5424 H   0  0  0  0  0  0
  -28.2711  -38.0091   24.7566 H   0  0  0  0  0  0
  -28.1021  -36.2648   24.6277 H   0  0  0  0  0  0
  -27.2248  -37.1517   25.8834 H   0  0  0  0  0  0
  -20.9326  -29.8939   21.6946 H   0  0  0  0  0  0
  -26.0223  -38.2922   24.1473 H   0  0  0  0  0  0
  -28.8750  -15.9462   18.8456 H   0  0  0  0  0  0
  -27.4456  -19.9476   18.2607 H   0  0  0  0  0  0
  -27.4362  -17.9632   16.3503 H   0  0  0  0  0  0
  -26.1888  -17.5417   17.5189 H   0  0  0  0  0  0
  -27.4035  -16.3521   17.0669 H   0  0  0  0  0  0
  -29.5916  -15.1996   23.1679 H   0  0  0  0  0  0
  -28.1829  -15.7819   22.2371 H   0  0  0  0  0  0
  -29.1592  -16.8987   23.1208 H   0  0  0  0  0  0
  -32.1722  -17.1940   21.2417 H   0  0  0  0  0  0
  -31.2682  -17.5533   22.6973 H   0  0  0  0  0  0
  -31.9829  -16.0032   22.5279 H   0  0  0  0  0  0
  -27.0190  -20.6400   21.8860 H   0  0  0  0  0  0
  -26.3215  -21.0256   20.3229 H   0  0  0  0  0  0
  -26.8586  -22.3129   21.3781 H   0  0  0  0  0  0
  -29.4279  -20.9505   22.3597 H   0  0  0  0  0  0
  -29.3637  -22.6287   21.8370 H   0  0  0  0  0  0
  -30.5512  -21.5289   21.1193 H   0  0  0  0  0  0
  -28.1763  -24.2415   18.2429 H   0  0  0  0  0  0
  -26.8985  -23.7847   19.2883 H   0  0  0  0  0  0
  -29.6842  -22.4530   18.9865 H   0  0  0  0  0  0
  -28.1983  -21.9306   18.3466 H   0  0  0  0  0  0
  -29.5001  -24.8649   20.4002 H   0  0  0  0  0  0
  -27.9613  -24.8638   21.2021 H   0  0  0  0  0  0
  1 25  1  0  0  0
  1 30  2  0  0  0
  1 84  1  0  0  0
  2  3  1  0  0  0
  2 25  1  0  0  0
  2 87  1  0  0  0
  2 88  1  0  0  0
  3  4  1  0  0  0
  3 89  1  0  0  0
  3 90  1  0  0  0
  4  5  1  0  0  0
  4 91  1  0  0  0
  4 92  1  0  0  0
  5  6  1  0  0  0
  5 26  1  0  0  0
  5 93  1  0  0  0
  6 25  1  0  0  0
  6 94  1  0  0  0
  6 95  1  0  0  0
  7  8  2  0  0  0
  7 26  1  0  0  0
  7 29  1  0  0  0
  8  9  1  0  0  0
  8 22  1  0  0  0
  9 10  1  0  0  0
  9 27  2  0  0  0
 10 11  2  0  0  0
 10 15  1  0  0  0
 11 12  1  0  0  0
 11 96  1  0  0  0
 12 13  2  0  0  0
 12 97  1  0  0  0
 13 14  1  0  0  0
 13 31  1  0  0  0
 14 15  2  0  0  0
 14 98  1  0  0  0
 15 99  1  0  0  0
 16 17  2  0  0  0
 16 21  1  0  0  0
 16 31  1  0  0  0
 17 18  1  0  0  0
 17100  1  0  0  0
 18 19  2  0  0  0
 18101  1  0  0  0
 19 20  1  0  0  0
 19 24  1  0  0  0
 20 21  2  0  0  0
 20102  1  0  0  0
 21 23  1  0  0  0
 22 28  1  0  0  0
 22 32  2  0  0  0
 26 27  1  0  0  0
 28103  1  0  0  0
 28104  1  0  0  0
 29105  1  0  0  0
 29106  1  0  0  0
 33 34  1  0  0  0
 33 66  1  0  0  0
 33 70  2  0  0  0
 34 36  1  0  0  0
 34 59  1  0  0  0
 34107  1  0  0  0
 35 44  2  0  0  0
 35 45  1  0  0  0
 35 68  1  0  0  0
 36 56  1  0  0  0
 36108  1  0  0  0
 37 39  1  0  0  0
 37 47  1  0  0  0
 37 66  1  0  0  0
 37109  1  0  0  0
 38 43  2  0  0  0
 38 46  1  0  0  0
 38 47  1  0  0  0
 39 64  1  0  0  0
 39 67  2  0  0  0
 40 52  1  0  0  0
 40 53  2  0  0  0
 40 58  1  0  0  0
 41110  1  0  0  0
 41111  1  0  0  0
 41112  1  0  0  0
 41 48  1  0  0  0
 42 43  1  0  0  0
 42 66  1  0  0  0
 42113  1  0  0  0
 42114  1  0  0  0
 43 44  1  0  0  0
 44115  1  0  0  0
 45 46  2  0  0  0
 45116  1  0  0  0
 46117  1  0  0  0
 47118  1  0  0  0
 47119  1  0  0  0
 48 56  1  0  0  0
 48 65  1  0  0  0
 48120  1  0  0  0
 49 50  1  0  0  0
 49 53  1  0  0  0
 49 64  1  0  0  0
 49121  1  0  0  0
 50 51  1  0  0  0
 50122  1  0  0  0
 50123  1  0  0  0
 51 52  1  0  0  0
 51124  1  0  0  0
 51125  1  0  0  0
 52126  1  0  0  0
 52127  1  0  0  0
 53 54  1  0  0  0
 54 55  2  0  0  0
 54128  1  0  0  0
 55 57  1  0  0  0
 55129  1  0  0  0
 56 69  2  0  0  0
 57 58  2  0  0  0
 57130  1  0  0  0
 58131  1  0  0  0
 59 60  1  0  0  0
 59 61  1  0  0  0
 59 62  1  0  0  0
 60132  1  0  0  0
 60133  1  0  0  0
 60134  1  0  0  0
 61135  1  0  0  0
 61136  1  0  0  0
 61137  1  0  0  0
 62138  1  0  0  0
 62139  1  0  0  0
 62140  1  0  0  0
 63 65  1  0  0  0
 63141  1  0  0  0
 63142  1  0  0  0
 63143  1  0  0  0
 64144  1  0  0  0
 65145  1  0  0  0
 68 83  1  0  0  0
 71 73  2  0  0  0
 71 74  1  0  0  0
 71146  1  0  0  0
 72 73  1  0  0  0
 72 75  2  0  0  0
 72147  1  0  0  0
 73 76  1  0  0  0
 74 84  1  0  0  0
 74 86  2  0  0  0
 75 85  1  0  0  0
 75 86  1  0  0  0
 76148  1  0  0  0
 76149  1  0  0  0
 76150  1  0  0  0
 77151  1  0  0  0
 77152  1  0  0  0
 77153  1  0  0  0
 77 84  1  0  0  0
 78 84  1  0  0  0
 78154  1  0  0  0
 78155  1  0  0  0
 78156  1  0  0  0
 79157  1  0  0  0
 79158  1  0  0  0
 79159  1  0  0  0
 79 85  1  0  0  0
 80 85  1  0  0  0
 80160  1  0  0  0
 80161  1  0  0  0
 80162  1  0  0  0
 81 82  1  0  0  0
 81 83  1  0  0  0
 81163  1  0  0  0
 81164  1  0  0  0
 82 85  1  0  0  0
 82165  1  0  0  0
 82166  1  0  0  0
 83167  1  0  0  0
 83168  1  0  0  0
M  ISO  4   1 100  68 101  83 101  84 100
M  END
> <chiral flag>
0

> <version>
0

> <s_m_source_file>
/data/baiqing/PycharmProjects/Reinvent-master-3.2/result/LINK_invent/BTK/process_docking_weight1_custom_sum_contain_oxygen_bond_distance_aromatic_linkinvent_7_9_3/rearranged_h_0073.sdf

> <i_m_source_file_index>
91

> <r_mmod_Potential_Energy-OPLS-2005>
195.445053100586

> <r_mmod_Stretch_Energy-OPLS-2005>
166.097671508789

> <r_mmod_Bend_Energy-OPLS-2005>
252.407409667969

> <r_mmod_Torsional_Energy-OPLS-2005>
197.705108642578

> <r_mmod_Improper_Torsional_Energy-OPLS-2005>
3.87280225753784

> <r_mmod_Van_der_Waal_Energy-OPLS-2005>
137.078323364258

> <r_mmod_Electrostatic_Energy-OPLS-2005>
-455.017852783203

> <r_mmod_Solvation_Energy-OPLS-2005>
-185.567016601562

> <b_mmod_Minimization_Converged-OPLS-2005>
0

> <r_mmod_RMS_Derivative-OPLS-2005>
12.6622896194458

$$$$
91
                    3D
 Structure written by MMmdl.
162170  0  0  1  0            999 V2000
  -30.5891  -14.7123   20.4391 C   0  0  0  0  0  0
  -30.4303  -12.4220   19.4824 C   0  0  0  0  0  0
  -29.5089  -12.5126   18.2419 C   0  0  0  0  0  0
  -28.0336  -12.3382   18.6509 C   0  0  0  0  0  0
  -27.6477  -13.2246   19.8613 C   0  0  2  0  0  0
  -28.6905  -13.1354   20.9955 C   0  0  0  0  0  0
  -25.2553  -13.8208   20.5736 C   0  0  0  0  0  0
  -24.1828  -13.0433   20.9233 C   0  0  0  0  0  0
  -24.6427  -11.6927   20.8793 C   0  0  0  0  0  0
  -23.9141  -10.4304   21.0493 C   0  0  0  0  0  0
  -24.3684   -9.4197   21.9262 C   0  0  0  0  0  0
  -23.6334   -8.2241   22.0793 C   0  0  0  0  0  0
  -22.4320   -8.0315   21.3569 C   0  0  0  0  0  0
  -21.9970   -9.0310   20.4689 C   0  0  0  0  0  0
  -22.7330  -10.2166   20.3116 C   0  0  0  0  0  0
  -21.6837   -6.0799   22.5319 C   0  0  0  0  0  0
  -21.4003   -6.5682   23.8262 C   0  0  0  0  0  0
  -21.3653   -5.6829   24.9215 C   0  0  0  0  0  0
  -21.6035   -4.3090   24.7246 C   0  0  0  0  0  0
  -21.8803   -3.8187   23.4360 C   0  0  0  0  0  0
  -21.9165   -4.7023   22.3424 C   0  0  0  0  0  0
  -22.7859  -13.5245   21.1875 C   0  0  0  0  0  0
  -22.1661   -4.2207   21.1015 F   0  0  0  0  0  0
  -21.5605   -3.4556   25.7761 F   0  0  0  0  0  0
  -30.0009  -13.4698   20.4306 N   0  0  0  0  0  0
  -26.2966  -12.9397   20.3348 N   0  0  0  0  0  0
  -25.9349  -11.6555   20.5826 N   0  0  0  0  0  0
  -22.0494  -12.8222   22.0438 N   0  0  0  0  0  0
  -25.4202  -15.1920   20.4121 N   0  0  0  0  0  0
  -31.7647  -14.8478   20.0839 O   0  0  0  0  0  0
  -21.6616   -6.8945   21.4295 O   0  0  0  0  0  0
  -22.3544  -14.5536   20.6717 O   0  0  0  0  0  0
  -24.6382  -31.8513   23.1998 C   0  0  0  0  0  0
  -25.9201  -32.4709   23.8314 C   0  0  1  0  0  0
  -27.2202  -27.2412   20.1029 C   0  0  0  0  0  0
  -25.5990  -33.8521   24.2238 N   0  0  0  0  0  0
  -23.4303  -30.4752   21.5476 C   0  0  2  0  0  0
  -24.8763  -28.9266   20.1125 C   0  0  0  0  0  0
  -22.7494  -29.4571   22.4939 C   0  0  0  0  0  0
  -18.0258  -28.1394   22.8492 C   0  0  0  0  0  0
  -24.1481  -36.7203   23.2627 C   0  0  0  0  0  0
  -25.9849  -30.7574   21.3821 C   0  0  0  0  0  0
  -26.0554  -29.3820   20.7174 C   0  0  0  0  0  0
  -27.2301  -28.5546   20.7001 C   0  0  0  0  0  0
  -26.0018  -26.8635   19.4849 C   0  0  0  0  0  0
  -24.8566  -27.6761   19.4880 C   0  0  0  0  0  0
  -23.6431  -29.8097   20.1652 C   0  0  0  0  0  0
  -25.4133  -36.3034   24.0298 C   0  0  1  0  0  0
  -20.5873  -28.3685   23.1285 C   0  0  2  0  0  0
  -20.6726  -26.9398   22.5408 C   0  0  0  0  0  0
  -19.5713  -26.6410   21.5192 C   0  0  0  0  0  0
  -18.1900  -26.7951   22.1627 C   0  0  0  0  0  0
  -19.1519  -28.8880   23.2884 C   0  0  0  0  0  0
  -18.9437  -30.1487   23.8888 C   0  0  0  0  0  0
  -17.6451  -30.6609   24.0568 C   0  0  0  0  0  0
  -25.9114  -34.9399   23.5069 C   0  0  0  0  0  0
  -16.5337  -29.9093   23.6349 C   0  0  0  0  0  0
  -16.7258  -28.6509   23.0378 C   0  0  0  0  0  0
  -26.4547  -31.6558   25.0716 C   0  0  0  0  0  0
  -25.3760  -31.3690   26.1401 C   0  0  0  0  0  0
  -27.0333  -30.2953   24.6244 C   0  0  0  0  0  0
  -27.6137  -32.4246   25.7502 C   0  0  0  0  0  0
  -27.5568  -37.1758   24.8476 C   0  0  0  0  0  0
  -21.4191  -29.3014   22.3660 N   0  0  0  0  0  0
  -26.4296  -37.3750   23.9407 N   0  0  0  0  0  0
  -24.7046  -31.0449   22.0988 N   0  0  0  0  0  0
  -23.4175  -28.8118   23.3070 O   0  0  0  0  0  0
  -28.3143  -26.3262   20.1401 O   0  0  0  0  0  0
  -26.5681  -34.8895   22.4632 O   0  0  0  0  0  0
  -23.5537  -32.1357   23.7299 O   0  0  0  0  0  0
  -27.8103  -18.8419   22.6509 C   0  0  0  0  0  0
  -28.2004  -20.0006   22.0353 C   0  0  0  0  0  0
  -29.0665  -18.2687   20.9484 C   0  0  0  0  0  0
  -28.3793  -17.9814   17.6697 C   0  0  0  0  0  0
  -28.3224  -24.9636   18.1264 C   0  0  0  0  0  0
  -29.3797  -17.1680   18.5459 C   0  0  0  0  0  0
  -28.6422  -22.1348   19.8049 C   0  0  0  0  0  0
  -29.0506  -23.6572   20.2313 C   0  0  0  0  0  0
  -29.5413  -20.7987   20.0654 C   0  0  0  0  0  0
  -29.8373  -17.2265   20.0494 C   0  0  2  0  0  0
  -28.1653  -24.8957   19.6598 C   0  0  1  0  0  0
  -28.3358  -17.7665   21.9551 N   0  0  0  0  0  0
  -28.9724  -19.6755   20.9143 N   0  0  0  0  0  0
  -29.7566  -15.7985   20.5990 N   0  0  0  0  0  0
  -31.4729  -12.5402   19.1832 H   0  0  0  0  0  0
  -30.3658  -11.4365   19.9485 H   0  0  0  0  0  0
  -29.7842  -11.7614   17.4972 H   0  0  0  0  0  0
  -29.6350  -13.4816   17.7585 H   0  0  0  0  0  0
  -27.8789  -11.2885   18.9031 H   0  0  0  0  0  0
  -27.3739  -12.5542   17.8106 H   0  0  0  0  0  0
  -27.6494  -14.2486   19.4872 H   0  0  0  0  0  0
  -28.7103  -12.1387   21.4346 H   0  0  0  0  0  0
  -28.4308  -13.8152   21.8067 H   0  0  0  0  0  0
  -25.2832   -9.5581   22.4844 H   0  0  0  0  0  0
  -24.0009   -7.4580   22.7474 H   0  0  0  0  0  0
  -21.0915   -8.8887   19.8980 H   0  0  0  0  0  0
  -22.3889  -10.9732   19.6208 H   0  0  0  0  0  0
  -21.2036   -7.6185   23.9798 H   0  0  0  0  0  0
  -21.1476   -6.0559   25.9137 H   0  0  0  0  0  0
  -22.0570   -2.7650   23.2859 H   0  0  0  0  0  0
  -22.4094  -11.9830   22.4735 H   0  0  0  0  0  0
  -21.1137  -13.1321   22.2700 H   0  0  0  0  0  0
  -24.6560  -15.8437   20.5508 H   0  0  0  0  0  0
  -26.2738  -15.6483   20.1132 H   0  0  0  0  0  0
  -26.7255  -32.5323   23.1028 H   0  0  0  0  0  0
  -25.0001  -33.9603   25.0300 H   0  0  0  0  0  0
  -22.7295  -31.2989   21.4032 H   0  0  0  0  0  0
  -23.3770  -35.9511   23.3353 H   0  0  0  0  0  0
  -24.3535  -36.8797   22.2034 H   0  0  0  0  0  0
  -23.7233  -37.6414   23.6636 H   0  0  0  0  0  0
  -26.1355  -31.5271   20.6209 H   0  0  0  0  0  0
  -26.8565  -30.7941   22.0228 H   0  0  0  0  0  0
  -28.1372  -28.8996   21.1785 H   0  0  0  0  0  0
  -25.8693  -25.9091   19.0022 H   0  0  0  0  0  0
  -23.9577  -27.3112   19.0142 H   0  0  0  0  0  0
  -23.7448  -30.5838   19.4037 H   0  0  0  0  0  0
  -22.7638  -29.2321   19.8770 H   0  0  0  0  0  0
  -25.1324  -36.1844   25.0792 H   0  0  0  0  0  0
  -20.9955  -28.3263   24.1429 H   0  0  0  0  0  0
  -20.5582  -26.2274   23.3581 H   0  0  0  0  0  0
  -21.6586  -26.7379   22.1240 H   0  0  0  0  0  0
  -19.6858  -25.6335   21.1185 H   0  0  0  0  0  0
  -19.6705  -27.3234   20.6743 H   0  0  0  0  0  0
  -17.4144  -26.6678   21.4067 H   0  0  0  0  0  0
  -18.0372  -26.0104   22.9048 H   0  0  0  0  0  0
  -19.7916  -30.7292   24.2268 H   0  0  0  0  0  0
  -17.4995  -31.6285   24.5145 H   0  0  0  0  0  0
  -15.5339  -30.2983   23.7715 H   0  0  0  0  0  0
  -15.8628  -28.0809   22.7146 H   0  0  0  0  0  0
  -24.6044  -30.6894   25.7767 H   0  0  0  0  0  0
  -24.8736  -32.2768   26.4737 H   0  0  0  0  0  0
  -25.8039  -30.8995   27.0250 H   0  0  0  0  0  0
  -26.2867  -29.6743   24.1239 H   0  0  0  0  0  0
  -27.3925  -29.7221   25.4813 H   0  0  0  0  0  0
  -27.8842  -30.4197   23.9531 H   0  0  0  0  0  0
  -27.2855  -33.3618   26.1996 H   0  0  0  0  0  0
  -28.4004  -32.6650   25.0344 H   0  0  0  0  0  0
  -28.0705  -31.8356   26.5462 H   0  0  0  0  0  0
  -28.2612  -38.0034   24.7494 H   0  0  0  0  0  0
  -28.1022  -36.2544   24.6348 H   0  0  0  0  0  0
  -27.2217  -37.1474   25.8862 H   0  0  0  0  0  0
  -20.9391  -29.8677   21.6792 H   0  0  0  0  0  0
  -26.0147  -38.2797   24.1494 H   0  0  0  0  0  0
  -27.2058  -18.7105   23.5416 H   0  0  0  0  0  0
  -27.9750  -21.0200   22.3253 H   0  0  0  0  0  0
  -28.8690  -18.5676   16.8838 H   0  0  0  0  0  0
  -27.7432  -18.6658   18.2423 H   0  0  0  0  0  0
  -27.7044  -17.3075   17.1306 H   0  0  0  0  0  0
  -28.0941  -24.0152   17.6490 H   0  0  0  0  0  0
  -29.3442  -25.2318   17.8606 H   0  0  0  0  0  0
  -27.6640  -25.7023   17.6702 H   0  0  0  0  0  0
  -29.8874  -18.1350   18.5097 H   0  0  0  0  0  0
  -28.4260  -16.8409   18.9649 H   0  0  0  0  0  0
  -28.5326  -22.1686   18.7234 H   0  0  0  0  0  0
  -27.6230  -21.9441   20.1441 H   0  0  0  0  0  0
  -30.0917  -23.8338   19.9593 H   0  0  0  0  0  0
  -29.0291  -23.7120   21.3198 H   0  0  0  0  0  0
  -30.5152  -21.0789   20.4671 H   0  0  0  0  0  0
  -29.7625  -20.3696   19.0875 H   0  0  0  0  0  0
  -30.9011  -17.4770   20.0985 H   0  0  0  0  0  0
  -27.1610  -24.5688   19.9026 H   0  0  0  0  0  0
  -28.8532  -15.5869   20.9964 H   0  0  0  0  0  0
  1 25  1  0  0  0
  1 30  2  0  0  0
  1 84  1  0  0  0
  2  3  1  0  0  0
  2 25  1  0  0  0
  2 85  1  0  0  0
  2 86  1  0  0  0
  3  4  1  0  0  0
  3 87  1  0  0  0
  3 88  1  0  0  0
  4  5  1  0  0  0
  4 89  1  0  0  0
  4 90  1  0  0  0
  5  6  1  0  0  0
  5 26  1  0  0  0
  5 91  1  0  0  0
  6 25  1  0  0  0
  6 92  1  0  0  0
  6 93  1  0  0  0
  7  8  2  0  0  0
  7 26  1  0  0  0
  7 29  1  0  0  0
  8  9  1  0  0  0
  8 22  1  0  0  0
  9 10  1  0  0  0
  9 27  2  0  0  0
 10 11  2  0  0  0
 10 15  1  0  0  0
 11 12  1  0  0  0
 11 94  1  0  0  0
 12 13  2  0  0  0
 12 95  1  0  0  0
 13 14  1  0  0  0
 13 31  1  0  0  0
 14 15  2  0  0  0
 14 96  1  0  0  0
 15 97  1  0  0  0
 16 17  2  0  0  0
 16 21  1  0  0  0
 16 31  1  0  0  0
 17 18  1  0  0  0
 17 98  1  0  0  0
 18 19  2  0  0  0
 18 99  1  0  0  0
 19 20  1  0  0  0
 19 24  1  0  0  0
 20 21  2  0  0  0
 20100  1  0  0  0
 21 23  1  0  0  0
 22 28  1  0  0  0
 22 32  2  0  0  0
 26 27  1  0  0  0
 28101  1  0  0  0
 28102  1  0  0  0
 29103  1  0  0  0
 29104  1  0  0  0
 33 34  1  0  0  0
 33 66  1  0  0  0
 33 70  2  0  0  0
 34 36  1  0  0  0
 34 59  1  0  0  0
 34105  1  0  0  0
 35 44  2  0  0  0
 35 45  1  0  0  0
 35 68  1  0  0  0
 36 56  1  0  0  0
 36106  1  0  0  0
 37 39  1  0  0  0
 37 47  1  0  0  0
 37 66  1  0  0  0
 37107  1  0  0  0
 38 43  2  0  0  0
 38 46  1  0  0  0
 38 47  1  0  0  0
 39 64  1  0  0  0
 39 67  2  0  0  0
 40 52  1  0  0  0
 40 53  2  0  0  0
 40 58  1  0  0  0
 41108  1  0  0  0
 41109  1  0  0  0
 41110  1  0  0  0
 41 48  1  0  0  0
 42 43  1  0  0  0
 42 66  1  0  0  0
 42111  1  0  0  0
 42112  1  0  0  0
 43 44  1  0  0  0
 44113  1  0  0  0
 45 46  2  0  0  0
 45114  1  0  0  0
 46115  1  0  0  0
 47116  1  0  0  0
 47117  1  0  0  0
 48 56  1  0  0  0
 48 65  1  0  0  0
 48118  1  0  0  0
 49 50  1  0  0  0
 49 53  1  0  0  0
 49 64  1  0  0  0
 49119  1  0  0  0
 50 51  1  0  0  0
 50120  1  0  0  0
 50121  1  0  0  0
 51 52  1  0  0  0
 51122  1  0  0  0
 51123  1  0  0  0
 52124  1  0  0  0
 52125  1  0  0  0
 53 54  1  0  0  0
 54 55  2  0  0  0
 54126  1  0  0  0
 55 57  1  0  0  0
 55127  1  0  0  0
 56 69  2  0  0  0
 57 58  2  0  0  0
 57128  1  0  0  0
 58129  1  0  0  0
 59 60  1  0  0  0
 59 61  1  0  0  0
 59 62  1  0  0  0
 60130  1  0  0  0
 60131  1  0  0  0
 60132  1  0  0  0
 61133  1  0  0  0
 61134  1  0  0  0
 61135  1  0  0  0
 62136  1  0  0  0
 62137  1  0  0  0
 62138  1  0  0  0
 63 65  1  0  0  0
 63139  1  0  0  0
 63140  1  0  0  0
 63141  1  0  0  0
 64142  1  0  0  0
 65143  1  0  0  0
 68 81  1  0  0  0
 71 72  2  0  0  0
 71 82  1  0  0  0
 71144  1  0  0  0
 72 83  1  0  0  0
 72145  1  0  0  0
 73 80  1  0  0  0
 73 82  2  0  0  0
 73 83  1  0  0  0
 74 76  1  0  0  0
 74146  1  0  0  0
 74147  1  0  0  0
 74148  1  0  0  0
 75149  1  0  0  0
 75150  1  0  0  0
 75151  1  0  0  0
 75 81  1  0  0  0
 76152  1  0  0  0
 76153  1  0  0  0
 76 80  1  0  0  0
 77 78  1  0  0  0
 77 79  1  0  0  0
 77154  1  0  0  0
 77155  1  0  0  0
 78 81  1  0  0  0
 78156  1  0  0  0
 78157  1  0  0  0
 79 83  1  0  0  0
 79158  1  0  0  0
 79159  1  0  0  0
 80 84  1  0  0  0
 80160  1  0  0  0
 81161  1  0  0  0
 84162  1  0  0  0
M  ISO  4   1 100  68 101  81 101  84 100
M  END
> <chiral flag>
0

> <version>
0

> <s_m_source_file>
/data/baiqing/PycharmProjects/Reinvent-master-3.2/result/LINK_invent/BTK/process_docking_weight1_custom_sum_contain_oxygen_bond_distance_aromatic_linkinvent_7_9_3/rearranged_h_0073.sdf

> <i_m_source_file_index>
92

> <r_mmod_Potential_Energy-OPLS-2005>
365.242980957031

> <r_mmod_Stretch_Energy-OPLS-2005>
140.896606445312

> <r_mmod_Bend_Energy-OPLS-2005>
432.323120117188

> <r_mmod_Torsional_Energy-OPLS-2005>
231.904724121094

> <r_mmod_Improper_Torsional_Energy-OPLS-2005>
6.92981576919556

> <r_mmod_Van_der_Waal_Energy-OPLS-2005>
131.854049682617

> <r_mmod_Electrostatic_Energy-OPLS-2005>
-451.757293701172

> <r_mmod_Solvation_Energy-OPLS-2005>
-210.47868347168

> <b_mmod_Minimization_Converged-OPLS-2005>
0

> <r_mmod_RMS_Derivative-OPLS-2005>
7.39810752868652

$$$$
92
                    3D
 Structure written by MMmdl.
152160  0  0  1  0            999 V2000
  -30.5046  -14.9552   20.4458 C   0  0  0  0  0  0
  -30.4528  -12.5878   19.5022 C   0  0  0  0  0  0
  -29.5301  -12.5440   18.2598 C   0  0  0  0  0  0
  -28.0606  -12.3235   18.6695 C   0  0  0  0  0  0
  -27.6361  -13.2436   19.8428 C   0  0  2  0  0  0
  -28.6777  -13.2461   20.9821 C   0  0  0  0  0  0
  -25.2493  -13.8205   20.5699 C   0  0  0  0  0  0
  -24.1799  -13.0436   20.9217 C   0  0  0  0  0  0
  -24.6407  -11.6919   20.8739 C   0  0  0  0  0  0
  -23.9086  -10.4292   21.0398 C   0  0  0  0  0  0
  -24.3631   -9.4207   21.9180 C   0  0  0  0  0  0
  -23.6299   -8.2247   22.0754 C   0  0  0  0  0  0
  -22.4280   -8.0284   21.3547 C   0  0  0  0  0  0
  -21.9920   -9.0260   20.4650 C   0  0  0  0  0  0
  -22.7253  -10.2137   20.3052 C   0  0  0  0  0  0
  -21.6861   -6.0736   22.5278 C   0  0  0  0  0  0
  -21.4019   -6.5639   23.8210 C   0  0  0  0  0  0
  -21.3660   -5.6789   24.9173 C   0  0  0  0  0  0
  -21.6043   -4.3053   24.7225 C   0  0  0  0  0  0
  -21.8818   -3.8146   23.4346 C   0  0  0  0  0  0
  -21.9196   -4.6962   22.3401 C   0  0  0  0  0  0
  -22.7817  -13.5213   21.1877 C   0  0  0  0  0  0
  -22.1661   -4.2147   21.0979 F   0  0  0  0  0  0
  -21.5632   -3.4536   25.7739 F   0  0  0  0  0  0
  -29.9619  -13.6682   20.4058 N   0  0  0  0  0  0
  -26.2919  -12.9424   20.3241 N   0  0  0  0  0  0
  -25.9339  -11.6561   20.5719 N   0  0  0  0  0  0
  -22.0469  -12.8198   22.0431 N   0  0  0  0  0  0
  -25.4175  -15.1931   20.4118 N   0  0  0  0  0  0
  -31.6829  -15.0511   20.0839 O   0  0  0  0  0  0
  -21.6644   -6.8881   21.4239 O   0  0  0  0  0  0
  -22.3501  -14.5519   20.6723 O   0  0  0  0  0  0
  -24.6444  -31.8433   23.1875 C   0  0  0  0  0  0
  -25.9210  -32.4691   23.8271 C   0  0  1  0  0  0
  -27.2203  -27.1274   20.1505 C   0  0  0  0  0  0
  -25.5955  -33.8500   24.2187 N   0  0  0  0  0  0
  -23.4488  -30.4617   21.5334 C   0  0  2  0  0  0
  -24.8996  -28.8877   20.1098 C   0  0  0  0  0  0
  -22.7574  -29.4538   22.4855 C   0  0  0  0  0  0
  -18.0307  -28.1396   22.8476 C   0  0  0  0  0  0
  -24.1494  -36.7253   23.2640 C   0  0  0  0  0  0
  -26.0059  -30.7133   21.3888 C   0  0  0  0  0  0
  -26.0774  -29.3241   20.7293 C   0  0  0  0  0  0
  -27.2382  -28.4607   20.7315 C   0  0  0  0  0  0
  -26.0149  -26.7955   19.4923 C   0  0  0  0  0  0
  -24.8821  -27.6372   19.4754 C   0  0  0  0  0  0
  -23.6764  -29.7905   20.1530 C   0  0  0  0  0  0
  -25.4127  -36.3031   24.0312 C   0  0  1  0  0  0
  -20.5920  -28.3722   23.1233 C   0  0  2  0  0  0
  -20.6791  -26.9423   22.5405 C   0  0  0  0  0  0
  -19.5766  -26.6380   21.5214 C   0  0  0  0  0  0
  -18.1948  -26.7933   22.1625 C   0  0  0  0  0  0
  -19.1564  -28.8878   23.2846 C   0  0  0  0  0  0
  -18.9477  -30.1473   23.8872 C   0  0  0  0  0  0
  -17.6474  -30.6590   24.0559 C   0  0  0  0  0  0
  -25.9076  -34.9405   23.5059 C   0  0  0  0  0  0
  -16.5365  -29.9081   23.6339 C   0  0  0  0  0  0
  -16.7292  -28.6502   23.0358 C   0  0  0  0  0  0
  -26.4531  -31.6561   25.0714 C   0  0  0  0  0  0
  -25.3713  -31.3747   26.1404 C   0  0  0  0  0  0
  -27.0397  -30.2956   24.6303 C   0  0  0  0  0  0
  -27.6059  -32.4330   25.7501 C   0  0  0  0  0  0
  -27.5578  -37.1783   24.8464 C   0  0  0  0  0  0
  -21.4265  -29.3046   22.3604 N   0  0  0  0  0  0
  -26.4291  -37.3743   23.9404 N   0  0  0  0  0  0
  -24.7195  -31.0275   22.0916 N   0  0  0  0  0  0
  -23.4211  -28.8086   23.3011 O   0  0  0  0  0  0
  -28.2700  -26.1349   20.2244 O   0  0  0  0  0  0
  -26.5664  -34.8902   22.4640 O   0  0  0  0  0  0
  -23.5561  -32.1319   23.7085 O   0  0  0  0  0  0
  -28.7615  -18.9052   20.6698 C   0  0  0  0  0  0
  -29.2033  -20.2118   20.3132 C   0  0  0  0  0  0
  -30.8359  -18.5847   20.0799 C   0  0  0  0  0  0
  -32.1899  -18.0364   19.7795 C   0  0  0  0  0  0
  -28.4304  -21.6636   20.1497 C   0  0  0  0  0  0
  -29.6378  -16.3128   20.8884 C   0  0  0  0  0  0
  -28.9601  -23.2541   20.3587 C   0  0  0  0  0  0
  -27.9808  -24.6071   20.0588 C   0  0  0  0  0  0
  -29.7570  -17.8877   20.5110 N   0  0  0  0  0  0
  -30.5044  -19.9091   19.9500 N   0  3  0  0  0  0
  -31.4858  -12.7535   19.1925 H   0  0  0  0  0  0
  -30.4497  -11.6270   20.0196 H   0  0  0  0  0  0
  -29.8509  -11.7572   17.5762 H   0  0  0  0  0  0
  -29.6187  -13.4821   17.7100 H   0  0  0  0  0  0
  -27.9525  -11.2788   18.9622 H   0  0  0  0  0  0
  -27.4017  -12.4705   17.8129 H   0  0  0  0  0  0
  -27.6057  -14.2501   19.4269 H   0  0  0  0  0  0
  -28.7607  -12.2585   21.4380 H   0  0  0  0  0  0
  -28.3708  -13.9246   21.7796 H   0  0  0  0  0  0
  -25.2776   -9.5683   22.4756 H   0  0  0  0  0  0
  -24.0010   -7.4636   22.7468 H   0  0  0  0  0  0
  -21.0855   -8.8778   19.8953 H   0  0  0  0  0  0
  -22.3710  -10.9676   19.6162 H   0  0  0  0  0  0
  -21.2010   -7.6146   23.9715 H   0  0  0  0  0  0
  -21.1485   -6.0519   25.9075 H   0  0  0  0  0  0
  -22.0599   -2.7608   23.2846 H   0  0  0  0  0  0
  -22.4085  -11.9859   22.4820 H   0  0  0  0  0  0
  -21.1083  -13.1215   22.2639 H   0  0  0  0  0  0
  -24.6468  -15.8442   20.5163 H   0  0  0  0  0  0
  -26.2567  -15.6299   20.0541 H   0  0  0  0  0  0
  -26.7272  -32.5293   23.0994 H   0  0  0  0  0  0
  -25.0079  -33.9623   25.0319 H   0  0  0  0  0  0
  -22.7516  -31.2877   21.3778 H   0  0  0  0  0  0
  -23.3765  -35.9576   23.3289 H   0  0  0  0  0  0
  -24.3578  -36.8904   22.2058 H   0  0  0  0  0  0
  -23.7243  -37.6440   23.6692 H   0  0  0  0  0  0
  -26.1635  -31.4670   20.6161 H   0  0  0  0  0  0
  -26.8755  -30.7633   22.0325 H   0  0  0  0  0  0
  -28.1341  -28.7899   21.2390 H   0  0  0  0  0  0
  -25.9113  -25.8401   19.0012 H   0  0  0  0  0  0
  -23.9835  -27.2977   18.9785 H   0  0  0  0  0  0
  -23.8134  -30.5655   19.3979 H   0  0  0  0  0  0
  -22.7914  -29.2325   19.8417 H   0  0  0  0  0  0
  -25.1316  -36.1859   25.0804 H   0  0  0  0  0  0
  -21.0014  -28.3312   24.1353 H   0  0  0  0  0  0
  -20.5691  -26.2332   23.3623 H   0  0  0  0  0  0
  -21.6655  -26.7430   22.1198 H   0  0  0  0  0  0
  -19.6928  -25.6285   21.1258 H   0  0  0  0  0  0
  -19.6708  -27.3177   20.6733 H   0  0  0  0  0  0
  -17.4218  -26.6680   21.4027 H   0  0  0  0  0  0
  -18.0346  -26.0080   22.9026 H   0  0  0  0  0  0
  -19.7951  -30.7298   24.2231 H   0  0  0  0  0  0
  -17.5024  -31.6269   24.5161 H   0  0  0  0  0  0
  -15.5364  -30.2975   23.7673 H   0  0  0  0  0  0
  -15.8693  -28.0811   22.7088 H   0  0  0  0  0  0
  -24.5898  -30.7095   25.7712 H   0  0  0  0  0  0
  -24.8897  -32.2929   26.4779 H   0  0  0  0  0  0
  -25.7992  -30.8946   27.0214 H   0  0  0  0  0  0
  -26.3014  -29.6673   24.1306 H   0  0  0  0  0  0
  -27.3999  -29.7259   25.4879 H   0  0  0  0  0  0
  -27.8928  -30.4183   23.9626 H   0  0  0  0  0  0
  -27.2649  -33.3648   26.2026 H   0  0  0  0  0  0
  -28.3898  -32.6867   25.0351 H   0  0  0  0  0  0
  -28.0697  -31.8493   26.5464 H   0  0  0  0  0  0
  -28.2582  -38.0092   24.7514 H   0  0  0  0  0  0
  -28.1092  -36.2622   24.6293 H   0  0  0  0  0  0
  -27.2294  -37.1423   25.8866 H   0  0  0  0  0  0
  -20.9477  -29.8753   21.6775 H   0  0  0  0  0  0
  -26.0158  -38.2810   24.1413 H   0  0  0  0  0  0
  -27.7754  -18.6257   21.0169 H   0  0  0  0  0  0
  -32.5455  -17.4860   20.6500 H   0  0  0  0  0  0
  -32.8722  -18.8581   19.5639 H   0  0  0  0  0  0
  -32.1137  -17.3835   18.9103 H   0  0  0  0  0  0
  -27.5505  -21.5798   20.7878 H   0  0  0  0  0  0
  -28.0138  -21.6379   19.1428 H   0  0  0  0  0  0
  -28.6061  -16.0708   20.6421 H   0  0  0  0  0  0
  -29.6639  -16.2971   21.9773 H   0  0  0  0  0  0
  -29.8535  -23.3730   19.7463 H   0  0  0  0  0  0
  -29.3121  -23.3362   21.3866 H   0  0  0  0  0  0
  -27.0722  -24.4295   20.6355 H   0  0  0  0  0  0
  -27.6767  -24.4949   19.0180 H   0  0  0  0  0  0
  -31.1577  -20.6050   19.6077 H   0  0  0  0  0  0
  1 25  1  0  0  0
  1 30  2  0  0  0
  1 76  1  0  0  0
  2  3  1  0  0  0
  2 25  1  0  0  0
  2 81  1  0  0  0
  2 82  1  0  0  0
  3  4  1  0  0  0
  3 83  1  0  0  0
  3 84  1  0  0  0
  4  5  1  0  0  0
  4 85  1  0  0  0
  4 86  1  0  0  0
  5  6  1  0  0  0
  5 26  1  0  0  0
  5 87  1  0  0  0
  6 25  1  0  0  0
  6 88  1  0  0  0
  6 89  1  0  0  0
  7  8  2  0  0  0
  7 26  1  0  0  0
  7 29  1  0  0  0
  8  9  1  0  0  0
  8 22  1  0  0  0
  9 10  1  0  0  0
  9 27  2  0  0  0
 10 11  2  0  0  0
 10 15  1  0  0  0
 11 12  1  0  0  0
 11 90  1  0  0  0
 12 13  2  0  0  0
 12 91  1  0  0  0
 13 14  1  0  0  0
 13 31  1  0  0  0
 14 15  2  0  0  0
 14 92  1  0  0  0
 15 93  1  0  0  0
 16 17  2  0  0  0
 16 21  1  0  0  0
 16 31  1  0  0  0
 17 18  1  0  0  0
 17 94  1  0  0  0
 18 19  2  0  0  0
 18 95  1  0  0  0
 19 20  1  0  0  0
 19 24  1  0  0  0
 20 21  2  0  0  0
 20 96  1  0  0  0
 21 23  1  0  0  0
 22 28  1  0  0  0
 22 32  2  0  0  0
 26 27  1  0  0  0
 28 97  1  0  0  0
 28 98  1  0  0  0
 29 99  1  0  0  0
 29100  1  0  0  0
 33 34  1  0  0  0
 33 66  1  0  0  0
 33 70  2  0  0  0
 34 36  1  0  0  0
 34 59  1  0  0  0
 34101  1  0  0  0
 35 44  2  0  0  0
 35 45  1  0  0  0
 35 68  1  0  0  0
 36 56  1  0  0  0
 36102  1  0  0  0
 37 39  1  0  0  0
 37 47  1  0  0  0
 37 66  1  0  0  0
 37103  1  0  0  0
 38 43  2  0  0  0
 38 46  1  0  0  0
 38 47  1  0  0  0
 39 64  1  0  0  0
 39 67  2  0  0  0
 40 52  1  0  0  0
 40 53  2  0  0  0
 40 58  1  0  0  0
 41104  1  0  0  0
 41105  1  0  0  0
 41106  1  0  0  0
 41 48  1  0  0  0
 42 43  1  0  0  0
 42 66  1  0  0  0
 42107  1  0  0  0
 42108  1  0  0  0
 43 44  1  0  0  0
 44109  1  0  0  0
 45 46  2  0  0  0
 45110  1  0  0  0
 46111  1  0  0  0
 47112  1  0  0  0
 47113  1  0  0  0
 48 56  1  0  0  0
 48 65  1  0  0  0
 48114  1  0  0  0
 49 50  1  0  0  0
 49 53  1  0  0  0
 49 64  1  0  0  0
 49115  1  0  0  0
 50 51  1  0  0  0
 50116  1  0  0  0
 50117  1  0  0  0
 51 52  1  0  0  0
 51118  1  0  0  0
 51119  1  0  0  0
 52120  1  0  0  0
 52121  1  0  0  0
 53 54  1  0  0  0
 54 55  2  0  0  0
 54122  1  0  0  0
 55 57  1  0  0  0
 55123  1  0  0  0
 56 69  2  0  0  0
 57 58  2  0  0  0
 57124  1  0  0  0
 58125  1  0  0  0
 59 60  1  0  0  0
 59 61  1  0  0  0
 59 62  1  0  0  0
 60126  1  0  0  0
 60127  1  0  0  0
 60128  1  0  0  0
 61129  1  0  0  0
 61130  1  0  0  0
 61131  1  0  0  0
 62132  1  0  0  0
 62133  1  0  0  0
 62134  1  0  0  0
 63 65  1  0  0  0
 63135  1  0  0  0
 63136  1  0  0  0
 63137  1  0  0  0
 64138  1  0  0  0
 65139  1  0  0  0
 68 78  1  0  0  0
 71 72  2  0  0  0
 71 79  1  0  0  0
 71140  1  0  0  0
 72 75  1  0  0  0
 72 80  1  0  0  0
 73 74  1  0  0  0
 73 79  1  0  0  0
 73 80  2  0  0  0
 74141  1  0  0  0
 74142  1  0  0  0
 74143  1  0  0  0
 75 77  1  0  0  0
 75144  1  0  0  0
 75145  1  0  0  0
 76 79  1  0  0  0
 76146  1  0  0  0
 76147  1  0  0  0
 77 78  1  0  0  0
 77148  1  0  0  0
 77149  1  0  0  0
 78150  1  0  0  0
 78151  1  0  0  0
 80152  1  0  0  0
M  CHG  1  80   1
M  ISO  4   1 100  68 101  76 100  78 101
M  END
> <chiral flag>
0

> <version>
0

> <s_m_source_file>
/data/baiqing/PycharmProjects/Reinvent-master-3.2/result/LINK_invent/BTK/process_docking_weight1_custom_sum_contain_oxygen_bond_distance_aromatic_linkinvent_7_9_3/rearranged_h_0073.sdf

> <i_m_source_file_index>
93

> <r_mmod_Potential_Energy-OPLS-2005>
450.952514648438

> <r_mmod_Stretch_Energy-OPLS-2005>
272.15283203125

> <r_mmod_Bend_Energy-OPLS-2005>
289.246368408203

> <r_mmod_Torsional_Energy-OPLS-2005>
186.174011230469

> <r_mmod_Improper_Torsional_Energy-OPLS-2005>
3.00165367126465

> <r_mmod_Van_der_Waal_Energy-OPLS-2005>
109.607025146484

> <r_mmod_Electrostatic_Energy-OPLS-2005>
-199.537292480469

> <r_mmod_Solvation_Energy-OPLS-2005>
-406.226226806641

> <b_mmod_Minimization_Converged-OPLS-2005>
0

> <r_mmod_RMS_Derivative-OPLS-2005>
0.626788139343262

$$$$
93
                    3D
 Structure written by MMmdl.
178186  0  0  1  0            999 V2000
  -30.7221  -14.4185   20.5994 C   0  0  0  0  0  0
  -30.4180  -12.2924   19.3913 C   0  0  0  0  0  0
  -29.4802  -12.5082   18.1878 C   0  0  0  0  0  0
  -28.0025  -12.3816   18.6057 C   0  0  0  0  0  0
  -27.6627  -13.1998   19.8793 C   0  0  2  0  0  0
  -28.7082  -12.9491   20.9877 C   0  0  0  0  0  0
  -25.2609  -13.8145   20.5688 C   0  0  0  0  0  0
  -24.1851  -13.0430   20.9177 C   0  0  0  0  0  0
  -24.6397  -11.6897   20.8753 C   0  0  0  0  0  0
  -23.9071  -10.4281   21.0425 C   0  0  0  0  0  0
  -24.3622   -9.4201   21.9208 C   0  0  0  0  0  0
  -23.6288   -8.2243   22.0780 C   0  0  0  0  0  0
  -22.4278   -8.0285   21.3555 C   0  0  0  0  0  0
  -21.9926   -9.0261   20.4657 C   0  0  0  0  0  0
  -22.7253  -10.2139   20.3064 C   0  0  0  0  0  0
  -21.6847   -6.0746   22.5278 C   0  0  0  0  0  0
  -21.4009   -6.5651   23.8208 C   0  0  0  0  0  0
  -21.3650   -5.6805   24.9174 C   0  0  0  0  0  0
  -21.6040   -4.3065   24.7235 C   0  0  0  0  0  0
  -21.8825   -3.8160   23.4350 C   0  0  0  0  0  0
  -21.9198   -4.6974   22.3403 C   0  0  0  0  0  0
  -22.7880  -13.5250   21.1836 C   0  0  0  0  0  0
  -22.1671   -4.2154   21.0981 F   0  0  0  0  0  0
  -21.5623   -3.4546   25.7748 F   0  0  0  0  0  0
  -30.0372  -13.2582   20.4301 N   0  0  0  0  0  0
  -26.3035  -12.9299   20.3397 N   0  0  0  0  0  0
  -25.9314  -11.6467   20.5787 N   0  0  0  0  0  0
  -22.0531  -12.8196   22.0357 N   0  0  0  0  0  0
  -25.4348  -15.1855   20.4121 N   0  0  0  0  0  0
  -31.8456  -14.6100   20.1300 O   0  0  0  0  0  0
  -21.6635   -6.8889   21.4240 O   0  0  0  0  0  0
  -22.3569  -14.5575   20.6718 O   0  0  0  0  0  0
  -24.6141  -31.8686   23.2123 C   0  0  0  0  0  0
  -25.9044  -32.4829   23.8402 C   0  0  1  0  0  0
  -27.2349  -27.4496   20.0832 C   0  0  0  0  0  0
  -25.5911  -33.8635   24.2343 N   0  0  0  0  0  0
  -23.3990  -30.4935   21.5555 C   0  0  2  0  0  0
  -24.8424  -28.9599   20.1189 C   0  0  0  0  0  0
  -22.7380  -29.4668   22.5029 C   0  0  0  0  0  0
  -18.0257  -28.1373   22.8523 C   0  0  0  0  0  0
  -24.1476  -36.7302   23.2645 C   0  0  0  0  0  0
  -25.9271  -30.8375   21.3631 C   0  0  0  0  0  0
  -26.0028  -29.4734   20.7096 C   0  0  0  0  0  0
  -27.2001  -28.7251   20.6890 C   0  0  0  0  0  0
  -26.0489  -26.9426   19.4974 C   0  0  0  0  0  0
  -24.8591  -27.6920   19.5141 C   0  0  0  0  0  0
  -23.6031  -29.8239   20.1708 C   0  0  0  0  0  0
  -25.4116  -36.3121   24.0330 C   0  0  1  0  0  0
  -20.5844  -28.3669   23.1349 C   0  0  2  0  0  0
  -20.6754  -26.9412   22.5452 C   0  0  0  0  0  0
  -19.5738  -26.6390   21.5241 C   0  0  0  0  0  0
  -18.1901  -26.7938   22.1616 C   0  0  0  0  0  0
  -19.1506  -28.8840   23.2929 C   0  0  0  0  0  0
  -18.9442  -30.1450   23.8931 C   0  0  0  0  0  0
  -17.6447  -30.6594   24.0577 C   0  0  0  0  0  0
  -25.9043  -34.9479   23.5124 C   0  0  0  0  0  0
  -16.5338  -29.9098   23.6345 C   0  0  0  0  0  0
  -16.7251  -28.6502   23.0386 C   0  0  0  0  0  0
  -26.4477  -31.6616   25.0739 C   0  0  0  0  0  0
  -25.3741  -31.3704   26.1476 C   0  0  0  0  0  0
  -27.0340  -30.3069   24.6129 C   0  0  0  0  0  0
  -27.6041  -32.4353   25.7493 C   0  0  0  0  0  0
  -27.5584  -37.1815   24.8469 C   0  0  0  0  0  0
  -21.4108  -29.3024   22.3748 N   0  0  0  0  0  0
  -26.4299  -37.3817   23.9408 N   0  0  0  0  0  0
  -24.6656  -31.0781   22.1028 N   0  0  0  0  0  0
  -23.4146  -28.8228   23.3089 O   0  0  0  0  0  0
  -28.4286  -26.7575   20.0853 O   0  0  0  0  0  0
  -26.5578  -34.8925   22.4668 O   0  0  0  0  0  0
  -23.5349  -32.1441   23.7532 O   0  0  0  0  0  0
  -28.1440  -18.5466   18.7679 C   0  0  0  0  0  0
  -29.4179  -18.8203   19.3300 C   0  0  0  0  0  0
  -27.4312  -20.6806   19.3149 C   0  0  0  0  0  0
  -28.7065  -20.9641   19.8833 C   0  0  0  0  0  0
  -27.8213  -17.2369   18.0707 C   0  0  0  0  0  0
  -25.4222  -21.6901   20.5181 C   0  0  0  0  0  0
  -29.5036  -22.1338   21.9971 C   0  0  0  0  0  0
  -29.7627  -23.0516   18.1401 C   0  0  0  0  0  0
  -31.4843  -22.9268   19.9204 C   0  0  0  0  0  0
  -26.2885  -21.6857   19.2504 C   0  0  0  0  0  0
  -30.5916  -17.8466   19.2535 C   0  0  0  0  0  0
  -31.2778  -17.5547   20.6054 C   0  0  0  0  0  0
  -29.7894  -24.7558   20.0158 C   0  0  0  0  0  0
  -30.4708  -16.7276   21.6356 C   0  0  0  0  0  0
  -28.4177  -25.3849   19.6913 C   0  0  0  0  0  0
  -29.0694  -22.3127   20.5274 C   0  0  1  0  0  0
  -29.9946  -23.2499   19.6588 C   0  0  0  0  0  0
  -27.1531  -19.4695   18.7739 N   0  0  0  0  0  0
  -29.6915  -20.0297   19.8736 N   0  0  0  0  0  0
  -30.0337  -15.3877   21.2224 N   0  0  0  0  0  0
  -31.4580  -12.3996   19.0780 H   0  0  0  0  0  0
  -30.3222  -11.2754   19.7729 H   0  0  0  0  0  0
  -29.7055  -11.7872   17.4007 H   0  0  0  0  0  0
  -29.6534  -13.4938   17.7548 H   0  0  0  0  0  0
  -27.7953  -11.3245   18.7776 H   0  0  0  0  0  0
  -27.3543  -12.6859   17.7833 H   0  0  0  0  0  0
  -27.7168  -14.2515   19.6059 H   0  0  0  0  0  0
  -28.6788  -11.9045   21.3021 H   0  0  0  0  0  0
  -28.4747  -13.5241   21.8850 H   0  0  0  0  0  0
  -25.2772   -9.5666   22.4766 H   0  0  0  0  0  0
  -23.9999   -7.4643   22.7495 H   0  0  0  0  0  0
  -21.0875   -8.8789   19.8941 H   0  0  0  0  0  0
  -22.3739  -10.9688   19.6165 H   0  0  0  0  0  0
  -21.1994   -7.6165   23.9707 H   0  0  0  0  0  0
  -21.1456   -6.0545   25.9073 H   0  0  0  0  0  0
  -22.0608   -2.7619   23.2864 H   0  0  0  0  0  0
  -22.4168  -11.9839   22.4682 H   0  0  0  0  0  0
  -21.1143  -13.1197   22.2592 H   0  0  0  0  0  0
  -24.6731  -15.8457   20.5260 H   0  0  0  0  0  0
  -26.2940  -15.6246   20.1089 H   0  0  0  0  0  0
  -26.7115  -32.5561   23.1170 H   0  0  0  0  0  0
  -25.0116  -33.9804   25.0519 H   0  0  0  0  0  0
  -22.6904  -31.3119   21.4162 H   0  0  0  0  0  0
  -23.3785  -35.9585   23.3279 H   0  0  0  0  0  0
  -24.3564  -36.8979   22.2067 H   0  0  0  0  0  0
  -23.7165  -37.6460   23.6698 H   0  0  0  0  0  0
  -26.0322  -31.6056   20.5953 H   0  0  0  0  0  0
  -26.8185  -30.8927   21.9774 H   0  0  0  0  0  0
  -28.1000  -29.1211   21.1392 H   0  0  0  0  0  0
  -26.0193  -25.9738   19.0214 H   0  0  0  0  0  0
  -23.9641  -27.2878   19.0625 H   0  0  0  0  0  0
  -23.7023  -30.5962   19.4066 H   0  0  0  0  0  0
  -22.7277  -29.2377   19.8844 H   0  0  0  0  0  0
  -25.1293  -36.1997   25.0826 H   0  0  0  0  0  0
  -20.9933  -28.3250   24.1461 H   0  0  0  0  0  0
  -20.5704  -26.2261   23.3625 H   0  0  0  0  0  0
  -21.6631  -26.7475   22.1234 H   0  0  0  0  0  0
  -19.6911  -25.6308   21.1250 H   0  0  0  0  0  0
  -19.6696  -27.3214   20.6782 H   0  0  0  0  0  0
  -17.4203  -26.6772   21.3967 H   0  0  0  0  0  0
  -18.0226  -26.0038   22.8953 H   0  0  0  0  0  0
  -19.7918  -30.7260   24.2313 H   0  0  0  0  0  0
  -17.5002  -31.6272   24.5187 H   0  0  0  0  0  0
  -15.5344  -30.3011   23.7643 H   0  0  0  0  0  0
  -15.8643  -28.0822   22.7105 H   0  0  0  0  0  0
  -24.5943  -30.7013   25.7814 H   0  0  0  0  0  0
  -24.8879  -32.2847   26.4887 H   0  0  0  0  0  0
  -25.8107  -30.8914   27.0249 H   0  0  0  0  0  0
  -26.2897  -29.6778   24.1233 H   0  0  0  0  0  0
  -27.4177  -29.7357   25.4595 H   0  0  0  0  0  0
  -27.8689  -30.4411   23.9244 H   0  0  0  0  0  0
  -27.2686  -33.3710   26.1985 H   0  0  0  0  0  0
  -28.3887  -32.6832   25.0327 H   0  0  0  0  0  0
  -28.0652  -31.8522   26.5481 H   0  0  0  0  0  0
  -28.2617  -38.0095   24.7524 H   0  0  0  0  0  0
  -28.1063  -36.2625   24.6317 H   0  0  0  0  0  0
  -27.2279  -37.1519   25.8864 H   0  0  0  0  0  0
  -20.9255  -29.8718   21.6954 H   0  0  0  0  0  0
  -26.0194  -38.2890   24.1443 H   0  0  0  0  0  0
  -28.4308  -17.1246   17.1730 H   0  0  0  0  0  0
  -26.7735  -17.1842   17.7703 H   0  0  0  0  0  0
  -28.0240  -16.3950   18.7305 H   0  0  0  0  0  0
  -24.5929  -22.3900   20.4150 H   0  0  0  0  0  0
  -25.9985  -21.9889   21.3931 H   0  0  0  0  0  0
  -25.0009  -20.7040   20.7150 H   0  0  0  0  0  0
  -28.7267  -21.6209   22.5649 H   0  0  0  0  0  0
  -29.6796  -23.0915   22.4850 H   0  0  0  0  0  0
  -30.4122  -21.5385   22.0879 H   0  0  0  0  0  0
  -30.3723  -23.7417   17.5549 H   0  0  0  0  0  0
  -28.7237  -23.2130   17.8556 H   0  0  0  0  0  0
  -30.0319  -22.0462   17.8134 H   0  0  0  0  0  0
  -32.1394  -23.5289   19.2901 H   0  0  0  0  0  0
  -31.7129  -21.8809   19.7135 H   0  0  0  0  0  0
  -31.7730  -23.1297   20.9515 H   0  0  0  0  0  0
  -25.6584  -21.4428   18.3935 H   0  0  0  0  0  0
  -26.6676  -22.6840   19.0387 H   0  0  0  0  0  0
  -31.3241  -18.2874   18.5753 H   0  0  0  0  0  0
  -30.3036  -16.9066   18.7863 H   0  0  0  0  0  0
  -31.5626  -18.4998   21.0685 H   0  0  0  0  0  0
  -32.2272  -17.0589   20.4096 H   0  0  0  0  0  0
  -29.9954  -24.9060   21.0758 H   0  0  0  0  0  0
  -30.5448  -25.3437   19.4944 H   0  0  0  0  0  0
  -29.5804  -17.2889   21.9195 H   0  0  0  0  0  0
  -31.0607  -16.6206   22.5467 H   0  0  0  0  0  0
  -27.6232  -24.8644   20.2231 H   0  0  0  0  0  0
  -28.2123  -25.3210   18.6219 H   0  0  0  0  0  0
  -28.1265  -22.8343   20.6312 H   0  0  0  0  0  0
  -29.1074  -15.1191   21.5191 H   0  0  0  0  0  0
  1 25  1  0  0  0
  1 30  2  0  0  0
  1 90  1  0  0  0
  2  3  1  0  0  0
  2 25  1  0  0  0
  2 91  1  0  0  0
  2 92  1  0  0  0
  3  4  1  0  0  0
  3 93  1  0  0  0
  3 94  1  0  0  0
  4  5  1  0  0  0
  4 95  1  0  0  0
  4 96  1  0  0  0
  5  6  1  0  0  0
  5 26  1  0  0  0
  5 97  1  0  0  0
  6 25  1  0  0  0
  6 98  1  0  0  0
  6 99  1  0  0  0
  7  8  2  0  0  0
  7 26  1  0  0  0
  7 29  1  0  0  0
  8  9  1  0  0  0
  8 22  1  0  0  0
  9 10  1  0  0  0
  9 27  2  0  0  0
 10 11  2  0  0  0
 10 15  1  0  0  0
 11 12  1  0  0  0
 11100  1  0  0  0
 12 13  2  0  0  0
 12101  1  0  0  0
 13 14  1  0  0  0
 13 31  1  0  0  0
 14 15  2  0  0  0
 14102  1  0  0  0
 15103  1  0  0  0
 16 17  2  0  0  0
 16 21  1  0  0  0
 16 31  1  0  0  0
 17 18  1  0  0  0
 17104  1  0  0  0
 18 19  2  0  0  0
 18105  1  0  0  0
 19 20  1  0  0  0
 19 24  1  0  0  0
 20 21  2  0  0  0
 20106  1  0  0  0
 21 23  1  0  0  0
 22 28  1  0  0  0
 22 32  2  0  0  0
 26 27  1  0  0  0
 28107  1  0  0  0
 28108  1  0  0  0
 29109  1  0  0  0
 29110  1  0  0  0
 33 34  1  0  0  0
 33 66  1  0  0  0
 33 70  2  0  0  0
 34 36  1  0  0  0
 34 59  1  0  0  0
 34111  1  0  0  0
 35 44  2  0  0  0
 35 45  1  0  0  0
 35 68  1  0  0  0
 36 56  1  0  0  0
 36112  1  0  0  0
 37 39  1  0  0  0
 37 47  1  0  0  0
 37 66  1  0  0  0
 37113  1  0  0  0
 38 43  2  0  0  0
 38 46  1  0  0  0
 38 47  1  0  0  0
 39 64  1  0  0  0
 39 67  2  0  0  0
 40 52  1  0  0  0
 40 53  2  0  0  0
 40 58  1  0  0  0
 41114  1  0  0  0
 41115  1  0  0  0
 41116  1  0  0  0
 41 48  1  0  0  0
 42 43  1  0  0  0
 42 66  1  0  0  0
 42117  1  0  0  0
 42118  1  0  0  0
 43 44  1  0  0  0
 44119  1  0  0  0
 45 46  2  0  0  0
 45120  1  0  0  0
 46121  1  0  0  0
 47122  1  0  0  0
 47123  1  0  0  0
 48 56  1  0  0  0
 48 65  1  0  0  0
 48124  1  0  0  0
 49 50  1  0  0  0
 49 53  1  0  0  0
 49 64  1  0  0  0
 49125  1  0  0  0
 50 51  1  0  0  0
 50126  1  0  0  0
 50127  1  0  0  0
 51 52  1  0  0  0
 51128  1  0  0  0
 51129  1  0  0  0
 52130  1  0  0  0
 52131  1  0  0  0
 53 54  1  0  0  0
 54 55  2  0  0  0
 54132  1  0  0  0
 55 57  1  0  0  0
 55133  1  0  0  0
 56 69  2  0  0  0
 57 58  2  0  0  0
 57134  1  0  0  0
 58135  1  0  0  0
 59 60  1  0  0  0
 59 61  1  0  0  0
 59 62  1  0  0  0
 60136  1  0  0  0
 60137  1  0  0  0
 60138  1  0  0  0
 61139  1  0  0  0
 61140  1  0  0  0
 61141  1  0  0  0
 62142  1  0  0  0
 62143  1  0  0  0
 62144  1  0  0  0
 63 65  1  0  0  0
 63145  1  0  0  0
 63146  1  0  0  0
 63147  1  0  0  0
 64148  1  0  0  0
 65149  1  0  0  0
 68 85  1  0  0  0
 71 72  2  0  0  0
 71 75  1  0  0  0
 71 88  1  0  0  0
 72 81  1  0  0  0
 72 89  1  0  0  0
 73 74  1  0  0  0
 73 80  1  0  0  0
 73 88  2  0  0  0
 74 86  1  0  0  0
 74 89  2  0  0  0
 75150  1  0  0  0
 75151  1  0  0  0
 75152  1  0  0  0
 76 80  1  0  0  0
 76153  1  0  0  0
 76154  1  0  0  0
 76155  1  0  0  0
 77156  1  0  0  0
 77157  1  0  0  0
 77158  1  0  0  0
 77 86  1  0  0  0
 78159  1  0  0  0
 78160  1  0  0  0
 78161  1  0  0  0
 78 87  1  0  0  0
 79 87  1  0  0  0
 79162  1  0  0  0
 79163  1  0  0  0
 79164  1  0  0  0
 80165  1  0  0  0
 80166  1  0  0  0
 81 82  1  0  0  0
 81167  1  0  0  0
 81168  1  0  0  0
 82 84  1  0  0  0
 82169  1  0  0  0
 82170  1  0  0  0
 83 85  1  0  0  0
 83 87  1  0  0  0
 83171  1  0  0  0
 83172  1  0  0  0
 84 90  1  0  0  0
 84173  1  0  0  0
 84174  1  0  0  0
 85175  1  0  0  0
 85176  1  0  0  0
 86 87  1  0  0  0
 86177  1  0  0  0
 90178  1  0  0  0
M  ISO  4   1 100  68 101  85 101  90 100
M  END
> <chiral flag>
0

> <version>
0

> <s_m_source_file>
/data/baiqing/PycharmProjects/Reinvent-master-3.2/result/LINK_invent/BTK/process_docking_weight1_custom_sum_contain_oxygen_bond_distance_aromatic_linkinvent_7_9_3/rearranged_h_0073.sdf

> <i_m_source_file_index>
94

> <r_mmod_Potential_Energy-OPLS-2005>
-37.1535339355469

> <r_mmod_Stretch_Energy-OPLS-2005>
41.5563087463379

> <r_mmod_Bend_Energy-OPLS-2005>
121.844429016113

> <r_mmod_Torsional_Energy-OPLS-2005>
184.223266601562

> <r_mmod_Improper_Torsional_Energy-OPLS-2005>
2.89145016670227

> <r_mmod_Van_der_Waal_Energy-OPLS-2005>
157.714538574219

> <r_mmod_Electrostatic_Energy-OPLS-2005>
-350.185760498047

> <r_mmod_Solvation_Energy-OPLS-2005>
-205.418792724609

> <b_mmod_Minimization_Converged-OPLS-2005>
0

> <r_mmod_RMS_Derivative-OPLS-2005>
2.34162306785583

$$$$
94
                    3D
 Structure written by MMmdl.
175183  0  0  1  0            999 V2000
  -30.8381  -14.2667   20.7623 C   0  0  0  0  0  0
  -30.4062  -12.2836   19.3683 C   0  0  0  0  0  0
  -29.4707  -12.5463   18.1791 C   0  0  0  0  0  0
  -28.0020  -12.3880   18.6055 C   0  0  0  0  0  0
  -27.6674  -13.2057   19.8787 C   0  0  2  0  0  0
  -28.7057  -12.9534   20.9944 C   0  0  0  0  0  0
  -25.2610  -13.8166   20.5681 C   0  0  0  0  0  0
  -24.1851  -13.0441   20.9154 C   0  0  0  0  0  0
  -24.6397  -11.6908   20.8711 C   0  0  0  0  0  0
  -23.9058  -10.4294   21.0391 C   0  0  0  0  0  0
  -24.3610   -9.4214   21.9174 C   0  0  0  0  0  0
  -23.6289   -8.2251   22.0750 C   0  0  0  0  0  0
  -22.4272   -8.0282   21.3544 C   0  0  0  0  0  0
  -21.9904   -9.0252   20.4642 C   0  0  0  0  0  0
  -22.7228  -10.2134   20.3045 C   0  0  0  0  0  0
  -21.6855   -6.0729   22.5278 C   0  0  0  0  0  0
  -21.4018   -6.5637   23.8210 C   0  0  0  0  0  0
  -21.3661   -5.6790   24.9171 C   0  0  0  0  0  0
  -21.6043   -4.3052   24.7222 C   0  0  0  0  0  0
  -21.8820   -3.8144   23.4344 C   0  0  0  0  0  0
  -21.9194   -4.6960   22.3401 C   0  0  0  0  0  0
  -22.7870  -13.5239   21.1830 C   0  0  0  0  0  0
  -22.1661   -4.2144   21.0980 F   0  0  0  0  0  0
  -21.5628   -3.4541   25.7736 F   0  0  0  0  0  0
  -30.0589  -13.2020   20.4596 N   0  0  0  0  0  0
  -26.3057  -12.9340   20.3391 N   0  0  0  0  0  0
  -25.9328  -11.6493   20.5748 N   0  0  0  0  0  0
  -22.0518  -12.8229   22.0387 N   0  0  0  0  0  0
  -25.4352  -15.1882   20.4117 N   0  0  0  0  0  0
  -31.7494  -14.6795   20.0370 O   0  0  0  0  0  0
  -21.6641   -6.8875   21.4239 O   0  0  0  0  0  0
  -22.3552  -14.5551   20.6693 O   0  0  0  0  0  0
  -24.6113  -31.8697   23.2131 C   0  0  0  0  0  0
  -25.9016  -32.4831   23.8415 C   0  0  1  0  0  0
  -27.2362  -27.4655   20.0885 C   0  0  0  0  0  0
  -25.5895  -33.8624   24.2354 N   0  0  0  0  0  0
  -23.3966  -30.4937   21.5521 C   0  0  2  0  0  0
  -24.8413  -28.9608   20.1173 C   0  0  0  0  0  0
  -22.7392  -29.4656   22.4991 C   0  0  0  0  0  0
  -18.0262  -28.1372   22.8488 C   0  0  0  0  0  0
  -24.1480  -36.7319   23.2642 C   0  0  0  0  0  0
  -25.9213  -30.8452   21.3603 C   0  0  0  0  0  0
  -25.9984  -29.4809   20.7088 C   0  0  0  0  0  0
  -27.1975  -28.7401   20.6900 C   0  0  0  0  0  0
  -26.0612  -26.9478   19.4971 C   0  0  0  0  0  0
  -24.8665  -27.6923   19.5098 C   0  0  0  0  0  0
  -23.6031  -29.8271   20.1654 C   0  0  0  0  0  0
  -25.4098  -36.3111   24.0343 C   0  0  1  0  0  0
  -20.5853  -28.3646   23.1332 C   0  0  2  0  0  0
  -20.6749  -26.9392   22.5412 C   0  0  0  0  0  0
  -19.5732  -26.6379   21.5208 C   0  0  0  0  0  0
  -18.1906  -26.7910   22.1620 C   0  0  0  0  0  0
  -19.1513  -28.8825   23.2903 C   0  0  0  0  0  0
  -18.9456  -30.1434   23.8916 C   0  0  0  0  0  0
  -17.6464  -30.6588   24.0568 C   0  0  0  0  0  0
  -25.9024  -34.9475   23.5143 C   0  0  0  0  0  0
  -16.5347  -29.9098   23.6323 C   0  0  0  0  0  0
  -16.7255  -28.6514   23.0336 C   0  0  0  0  0  0
  -26.4454  -31.6611   25.0735 C   0  0  0  0  0  0
  -25.3736  -31.3723   26.1507 C   0  0  0  0  0  0
  -27.0291  -30.3072   24.6069 C   0  0  0  0  0  0
  -27.6031  -32.4336   25.7495 C   0  0  0  0  0  0
  -27.5573  -37.1815   24.8467 C   0  0  0  0  0  0
  -21.4117  -29.3031   22.3757 N   0  0  0  0  0  0
  -26.4285  -37.3801   23.9413 N   0  0  0  0  0  0
  -24.6615  -31.0825   22.1008 N   0  0  0  0  0  0
  -23.4191  -28.8190   23.3012 O   0  0  0  0  0  0
  -28.4318  -26.7894   20.0851 O   0  0  0  0  0  0
  -26.5577  -34.8915   22.4695 O   0  0  0  0  0  0
  -23.5309  -32.1431   23.7542 O   0  0  0  0  0  0
  -29.5279  -19.8674   20.7945 C   0  0  0  0  0  0
  -29.2794  -18.5171   20.5315 C   0  0  0  0  0  0
  -30.2404  -20.1637   21.9643 C   0  0  0  0  0  0
  -30.3924  -17.9203   22.4487 C   0  0  0  0  0  0
  -28.5293  -18.0751   19.2939 C   0  0  0  0  0  0
  -29.5672  -16.2931   24.2001 C   0  0  0  0  0  0
  -31.8151  -17.3454   24.4853 C   0  0  0  0  0  0
  -30.8825  -25.2988   19.7377 C   0  0  0  0  0  0
  -29.9194  -25.3416   22.0916 C   0  0  0  0  0  0
  -30.6162  -21.5813   22.3698 C   0  0  0  0  0  0
  -30.9099  -22.5321   21.1916 C   0  0  0  0  0  0
  -29.6609  -23.2722   20.6499 C   0  0  0  0  0  0
  -31.5622  -15.6463   22.7134 C   0  0  0  0  0  0
  -28.3920  -25.3655   20.0926 C   0  0  0  0  0  0
  -30.8092  -16.8030   23.4372 C   0  0  0  0  0  0
  -29.7311  -24.8199   20.6475 C   0  0  0  0  0  0
  -29.6986  -17.5564   21.3707 N   0  0  0  0  0  0
  -30.6493  -19.1837   22.7873 N   0  0  0  0  0  0
  -30.6958  -14.6874   22.0215 N   0  0  0  0  0  0
  -31.4483  -12.3833   19.0584 H   0  0  0  0  0  0
  -30.2989  -11.2548   19.7150 H   0  0  0  0  0  0
  -29.6993  -11.8632   17.3600 H   0  0  0  0  0  0
  -29.6365  -13.5540   17.7945 H   0  0  0  0  0  0
  -27.8158  -11.3280   18.7835 H   0  0  0  0  0  0
  -27.3409  -12.6800   17.7887 H   0  0  0  0  0  0
  -27.7253  -14.2604   19.6078 H   0  0  0  0  0  0
  -28.6469  -11.9219   21.3449 H   0  0  0  0  0  0
  -28.4597  -13.5769   21.8548 H   0  0  0  0  0  0
  -25.2759   -9.5694   22.4744 H   0  0  0  0  0  0
  -23.9998   -7.4646   22.7475 H   0  0  0  0  0  0
  -21.0834   -8.8767   19.8951 H   0  0  0  0  0  0
  -22.3684  -10.9668   19.6151 H   0  0  0  0  0  0
  -21.2016   -7.6147   23.9710 H   0  0  0  0  0  0
  -21.1483   -6.0522   25.9072 H   0  0  0  0  0  0
  -22.0599   -2.7608   23.2848 H   0  0  0  0  0  0
  -22.4135  -11.9880   22.4755 H   0  0  0  0  0  0
  -21.1141  -13.1256   22.2609 H   0  0  0  0  0  0
  -24.6784  -15.8516   20.5346 H   0  0  0  0  0  0
  -26.3089  -15.6255   20.1484 H   0  0  0  0  0  0
  -26.7090  -32.5564   23.1193 H   0  0  0  0  0  0
  -25.0057  -33.9801   25.0503 H   0  0  0  0  0  0
  -22.6840  -31.3093   21.4150 H   0  0  0  0  0  0
  -23.3727  -35.9671   23.3325 H   0  0  0  0  0  0
  -24.3585  -36.8917   22.2056 H   0  0  0  0  0  0
  -23.7237  -37.6535   23.6650 H   0  0  0  0  0  0
  -26.0221  -31.6130   20.5916 H   0  0  0  0  0  0
  -26.8146  -30.9020   21.9706 H   0  0  0  0  0  0
  -28.0935  -29.1379   21.1452 H   0  0  0  0  0  0
  -26.0594  -25.9828   19.0121 H   0  0  0  0  0  0
  -23.9796  -27.2879   19.0438 H   0  0  0  0  0  0
  -23.7130  -30.6051   19.4090 H   0  0  0  0  0  0
  -22.7265  -29.2503   19.8661 H   0  0  0  0  0  0
  -25.1266  -36.1984   25.0837 H   0  0  0  0  0  0
  -20.9938  -28.3195   24.1459 H   0  0  0  0  0  0
  -20.5647  -26.2257   23.3591 H   0  0  0  0  0  0
  -21.6621  -26.7439   22.1219 H   0  0  0  0  0  0
  -19.6898  -25.6294   21.1238 H   0  0  0  0  0  0
  -19.6677  -27.3187   20.6742 H   0  0  0  0  0  0
  -17.4172  -26.6661   21.4022 H   0  0  0  0  0  0
  -18.0318  -26.0039   22.9012 H   0  0  0  0  0  0
  -19.7938  -30.7229   24.2304 H   0  0  0  0  0  0
  -17.5029  -31.6275   24.5160 H   0  0  0  0  0  0
  -15.5351  -30.3016   23.7643 H   0  0  0  0  0  0
  -15.8645  -28.0863   22.7030 H   0  0  0  0  0  0
  -24.5879  -30.7089   25.7878 H   0  0  0  0  0  0
  -24.8953  -32.2886   26.4986 H   0  0  0  0  0  0
  -25.8093  -30.8888   27.0253 H   0  0  0  0  0  0
  -26.2836  -29.6847   24.1110 H   0  0  0  0  0  0
  -27.4087  -29.7292   25.4503 H   0  0  0  0  0  0
  -27.8650  -30.4440   23.9199 H   0  0  0  0  0  0
  -27.2654  -33.3626   26.2104 H   0  0  0  0  0  0
  -28.3825  -32.6922   25.0310 H   0  0  0  0  0  0
  -28.0714  -31.8440   26.5389 H   0  0  0  0  0  0
  -28.2594  -38.0107   24.7500 H   0  0  0  0  0  0
  -28.1061  -36.2638   24.6307 H   0  0  0  0  0  0
  -27.2300  -37.1484   25.8873 H   0  0  0  0  0  0
  -20.9246  -29.8829   21.7063 H   0  0  0  0  0  0
  -26.0170  -38.2876   24.1420 H   0  0  0  0  0  0
  -29.1899  -20.6373   20.1164 H   0  0  0  0  0  0
  -28.7791  -18.7136   18.4459 H   0  0  0  0  0  0
  -27.4544  -18.1355   19.4627 H   0  0  0  0  0  0
  -28.7795  -17.0486   19.0257 H   0  0  0  0  0  0
  -29.1175  -17.0925   24.7892 H   0  0  0  0  0  0
  -29.8192  -15.4800   24.8805 H   0  0  0  0  0  0
  -28.7981  -15.9320   23.5171 H   0  0  0  0  0  0
  -31.3851  -18.1487   25.0846 H   0  0  0  0  0  0
  -32.7121  -17.7382   24.0044 H   0  0  0  0  0  0
  -32.1310  -16.5687   25.1822 H   0  0  0  0  0  0
  -31.8549  -24.9377   20.0706 H   0  0  0  0  0  0
  -30.9422  -26.3870   19.7069 H   0  0  0  0  0  0
  -30.7399  -24.9545   18.7127 H   0  0  0  0  0  0
  -30.8918  -25.0799   22.5075 H   0  0  0  0  0  0
  -29.1587  -24.9342   22.7577 H   0  0  0  0  0  0
  -29.8428  -26.4276   22.1428 H   0  0  0  0  0  0
  -31.5145  -21.5198   22.9872 H   0  0  0  0  0  0
  -29.8442  -21.9910   23.0214 H   0  0  0  0  0  0
  -31.4172  -21.9919   20.3914 H   0  0  0  0  0  0
  -31.6474  -23.2520   21.5410 H   0  0  0  0  0  0
  -28.7799  -22.9625   21.2143 H   0  0  0  0  0  0
  -29.4717  -22.9254   19.6332 H   0  0  0  0  0  0
  -32.1166  -15.0525   23.4398 H   0  0  0  0  0  0
  -32.3159  -16.0705   22.0470 H   0  0  0  0  0  0
  -27.5684  -25.0084   20.7150 H   0  0  0  0  0  0
  -28.2181  -24.9994   19.0796 H   0  0  0  0  0  0
  -29.9681  -14.2475   22.5642 H   0  0  0  0  0  0
  1 25  1  0  0  0
  1 30  2  0  0  0
  1 89  1  0  0  0
  2  3  1  0  0  0
  2 25  1  0  0  0
  2 90  1  0  0  0
  2 91  1  0  0  0
  3  4  1  0  0  0
  3 92  1  0  0  0
  3 93  1  0  0  0
  4  5  1  0  0  0
  4 94  1  0  0  0
  4 95  1  0  0  0
  5  6  1  0  0  0
  5 26  1  0  0  0
  5 96  1  0  0  0
  6 25  1  0  0  0
  6 97  1  0  0  0
  6 98  1  0  0  0
  7  8  2  0  0  0
  7 26  1  0  0  0
  7 29  1  0  0  0
  8  9  1  0  0  0
  8 22  1  0  0  0
  9 10  1  0  0  0
  9 27  2  0  0  0
 10 11  2  0  0  0
 10 15  1  0  0  0
 11 12  1  0  0  0
 11 99  1  0  0  0
 12 13  2  0  0  0
 12100  1  0  0  0
 13 14  1  0  0  0
 13 31  1  0  0  0
 14 15  2  0  0  0
 14101  1  0  0  0
 15102  1  0  0  0
 16 17  2  0  0  0
 16 21  1  0  0  0
 16 31  1  0  0  0
 17 18  1  0  0  0
 17103  1  0  0  0
 18 19  2  0  0  0
 18104  1  0  0  0
 19 20  1  0  0  0
 19 24  1  0  0  0
 20 21  2  0  0  0
 20105  1  0  0  0
 21 23  1  0  0  0
 22 28  1  0  0  0
 22 32  2  0  0  0
 26 27  1  0  0  0
 28106  1  0  0  0
 28107  1  0  0  0
 29108  1  0  0  0
 29109  1  0  0  0
 33 34  1  0  0  0
 33 66  1  0  0  0
 33 70  2  0  0  0
 34 36  1  0  0  0
 34 59  1  0  0  0
 34110  1  0  0  0
 35 44  2  0  0  0
 35 45  1  0  0  0
 35 68  1  0  0  0
 36 56  1  0  0  0
 36111  1  0  0  0
 37 39  1  0  0  0
 37 47  1  0  0  0
 37 66  1  0  0  0
 37112  1  0  0  0
 38 43  2  0  0  0
 38 46  1  0  0  0
 38 47  1  0  0  0
 39 64  1  0  0  0
 39 67  2  0  0  0
 40 52  1  0  0  0
 40 53  2  0  0  0
 40 58  1  0  0  0
 41113  1  0  0  0
 41114  1  0  0  0
 41115  1  0  0  0
 41 48  1  0  0  0
 42 43  1  0  0  0
 42 66  1  0  0  0
 42116  1  0  0  0
 42117  1  0  0  0
 43 44  1  0  0  0
 44118  1  0  0  0
 45 46  2  0  0  0
 45119  1  0  0  0
 46120  1  0  0  0
 47121  1  0  0  0
 47122  1  0  0  0
 48 56  1  0  0  0
 48 65  1  0  0  0
 48123  1  0  0  0
 49 50  1  0  0  0
 49 53  1  0  0  0
 49 64  1  0  0  0
 49124  1  0  0  0
 50 51  1  0  0  0
 50125  1  0  0  0
 50126  1  0  0  0
 51 52  1  0  0  0
 51127  1  0  0  0
 51128  1  0  0  0
 52129  1  0  0  0
 52130  1  0  0  0
 53 54  1  0  0  0
 54 55  2  0  0  0
 54131  1  0  0  0
 55 57  1  0  0  0
 55132  1  0  0  0
 56 69  2  0  0  0
 57 58  2  0  0  0
 57133  1  0  0  0
 58134  1  0  0  0
 59 60  1  0  0  0
 59 61  1  0  0  0
 59 62  1  0  0  0
 60135  1  0  0  0
 60136  1  0  0  0
 60137  1  0  0  0
 61138  1  0  0  0
 61139  1  0  0  0
 61140  1  0  0  0
 62141  1  0  0  0
 62142  1  0  0  0
 62143  1  0  0  0
 63 65  1  0  0  0
 63144  1  0  0  0
 63145  1  0  0  0
 63146  1  0  0  0
 64147  1  0  0  0
 65148  1  0  0  0
 68 84  1  0  0  0
 71 72  2  0  0  0
 71 73  1  0  0  0
 71149  1  0  0  0
 72 75  1  0  0  0
 72 87  1  0  0  0
 73 80  1  0  0  0
 73 88  2  0  0  0
 74 85  1  0  0  0
 74 87  2  0  0  0
 74 88  1  0  0  0
 75150  1  0  0  0
 75151  1  0  0  0
 75152  1  0  0  0
 76153  1  0  0  0
 76154  1  0  0  0
 76155  1  0  0  0
 76 85  1  0  0  0
 77 85  1  0  0  0
 77156  1  0  0  0
 77157  1  0  0  0
 77158  1  0  0  0
 78159  1  0  0  0
 78160  1  0  0  0
 78161  1  0  0  0
 78 86  1  0  0  0
 79 86  1  0  0  0
 79162  1  0  0  0
 79163  1  0  0  0
 79164  1  0  0  0
 80 81  1  0  0  0
 80165  1  0  0  0
 80166  1  0  0  0
 81 82  1  0  0  0
 81167  1  0  0  0
 81168  1  0  0  0
 82 86  1  0  0  0
 82169  1  0  0  0
 82170  1  0  0  0
 83 85  1  0  0  0
 83 89  1  0  0  0
 83171  1  0  0  0
 83172  1  0  0  0
 84 86  1  0  0  0
 84173  1  0  0  0
 84174  1  0  0  0
 89175  1  0  0  0
M  ISO  4   1 100  68 101  84 101  89 100
M  END
> <chiral flag>
0

> <version>
0

> <s_m_source_file>
/data/baiqing/PycharmProjects/Reinvent-master-3.2/result/LINK_invent/BTK/process_docking_weight1_custom_sum_contain_oxygen_bond_distance_aromatic_linkinvent_7_9_3/rearranged_h_0073.sdf

> <i_m_source_file_index>
95

> <r_mmod_Potential_Energy-OPLS-2005>
-450.308441162109

> <r_mmod_Stretch_Energy-OPLS-2005>
35.1612930297852

> <r_mmod_Bend_Energy-OPLS-2005>
107.85139465332

> <r_mmod_Torsional_Energy-OPLS-2005>
232.709579467773

> <r_mmod_Improper_Torsional_Energy-OPLS-2005>
5.0642409324646

> <r_mmod_Van_der_Waal_Energy-OPLS-2005>
170.968292236328

> <r_mmod_Electrostatic_Energy-OPLS-2005>
-800.7578125

> <r_mmod_Solvation_Energy-OPLS-2005>
-211.072296142578

> <b_mmod_Minimization_Converged-OPLS-2005>
0

> <r_mmod_RMS_Derivative-OPLS-2005>
1.66628444194794

$$$$
95
                    3D
 Structure written by MMmdl.
171179  0  0  1  0            999 V2000
  -30.7167  -14.4409   20.6072 C   0  0  0  0  0  0
  -30.4255  -12.3029   19.4062 C   0  0  0  0  0  0
  -29.4906  -12.5218   18.1999 C   0  0  0  0  0  0
  -28.0142  -12.3701   18.6199 C   0  0  0  0  0  0
  -27.6657  -13.2014   19.8816 C   0  0  2  0  0  0
  -28.7117  -12.9608   20.9939 C   0  0  0  0  0  0
  -25.2599  -13.8135   20.5720 C   0  0  0  0  0  0
  -24.1876  -13.0411   20.9182 C   0  0  0  0  0  0
  -24.6434  -11.6883   20.8744 C   0  0  0  0  0  0
  -23.9106  -10.4285   21.0426 C   0  0  0  0  0  0
  -24.3671   -9.4186   21.9187 C   0  0  0  0  0  0
  -23.6343   -8.2224   22.0760 C   0  0  0  0  0  0
  -22.4306   -8.0286   21.3564 C   0  0  0  0  0  0
  -21.9956   -9.0252   20.4633 C   0  0  0  0  0  0
  -22.7288  -10.2132   20.3056 C   0  0  0  0  0  0
  -21.6855   -6.0753   22.5297 C   0  0  0  0  0  0
  -21.3996   -6.5659   23.8231 C   0  0  0  0  0  0
  -21.3673   -5.6807   24.9201 C   0  0  0  0  0  0
  -21.6058   -4.3067   24.7239 C   0  0  0  0  0  0
  -21.8822   -3.8162   23.4358 C   0  0  0  0  0  0
  -21.9184   -4.6982   22.3416 C   0  0  0  0  0  0
  -22.7900  -13.5185   21.1863 C   0  0  0  0  0  0
  -22.1665   -4.2183   21.0991 F   0  0  0  0  0  0
  -21.5646   -3.4549   25.7748 F   0  0  0  0  0  0
  -30.0416  -13.2711   20.4414 N   0  0  0  0  0  0
  -26.3066  -12.9307   20.3439 N   0  0  0  0  0  0
  -25.9359  -11.6462   20.5803 N   0  0  0  0  0  0
  -22.0582  -12.8131   22.0404 N   0  0  0  0  0  0
  -25.4257  -15.1876   20.4186 N   0  0  0  0  0  0
  -31.8197  -14.6635   20.1008 O   0  0  0  0  0  0
  -21.6642   -6.8903   21.4274 O   0  0  0  0  0  0
  -22.3562  -14.5527   20.6775 O   0  0  0  0  0  0
  -24.6143  -31.8658   23.2150 C   0  0  0  0  0  0
  -25.9020  -32.4842   23.8434 C   0  0  1  0  0  0
  -27.2201  -27.4342   20.1019 C   0  0  0  0  0  0
  -25.5865  -33.8638   24.2332 N   0  0  0  0  0  0
  -23.4029  -30.4927   21.5549 C   0  0  2  0  0  0
  -24.8490  -28.9626   20.1156 C   0  0  0  0  0  0
  -22.7395  -29.4650   22.5007 C   0  0  0  0  0  0
  -18.0255  -28.1387   22.8509 C   0  0  0  0  0  0
  -24.1499  -36.7328   23.2646 C   0  0  0  0  0  0
  -25.9342  -30.8330   21.3736 C   0  0  0  0  0  0
  -26.0112  -29.4727   20.7102 C   0  0  0  0  0  0
  -27.2059  -28.7179   20.6932 C   0  0  0  0  0  0
  -26.0451  -26.9346   19.5068 C   0  0  0  0  0  0
  -24.8617  -27.6934   19.5113 C   0  0  0  0  0  0
  -23.6097  -29.8262   20.1697 C   0  0  0  0  0  0
  -25.4123  -36.3121   24.0346 C   0  0  1  0  0  0
  -20.5859  -28.3682   23.1327 C   0  0  2  0  0  0
  -20.6792  -26.9427   22.5398 C   0  0  0  0  0  0
  -19.5763  -26.6376   21.5223 C   0  0  0  0  0  0
  -18.1923  -26.7942   22.1597 C   0  0  0  0  0  0
  -19.1512  -28.8832   23.2939 C   0  0  0  0  0  0
  -18.9439  -30.1430   23.8987 C   0  0  0  0  0  0
  -17.6452  -30.6600   24.0602 C   0  0  0  0  0  0
  -25.9019  -34.9482   23.5120 C   0  0  0  0  0  0
  -16.5348  -29.9103   23.6349 C   0  0  0  0  0  0
  -16.7244  -28.6511   23.0373 C   0  0  0  0  0  0
  -26.4466  -31.6683   25.0792 C   0  0  0  0  0  0
  -25.3725  -31.3813   26.1541 C   0  0  0  0  0  0
  -27.0362  -30.3128   24.6281 C   0  0  0  0  0  0
  -27.6024  -32.4465   25.7519 C   0  0  0  0  0  0
  -27.5597  -37.1828   24.8451 C   0  0  0  0  0  0
  -21.4118  -29.3080   22.3764 N   0  0  0  0  0  0
  -26.4310  -37.3790   23.9393 N   0  0  0  0  0  0
  -24.6678  -31.0764   22.1048 N   0  0  0  0  0  0
  -23.4153  -28.8143   23.3018 O   0  0  0  0  0  0
  -28.3541  -26.6568   20.1074 O   0  0  0  0  0  0
  -26.5573  -34.8906   22.4678 O   0  0  0  0  0  0
  -23.5323  -32.1428   23.7517 O   0  0  0  0  0  0
  -28.8841  -19.7381   19.9233 C   0  0  0  0  0  0
  -29.3102  -20.1365   18.6767 C   0  0  0  0  0  0
  -28.3274  -21.8492   19.5555 C   0  0  0  0  0  0
  -25.0131  -21.3960   21.8858 C   0  0  0  0  0  0
  -25.6889  -19.4032   20.5695 C   0  0  0  0  0  0
  -25.9641  -19.4043   23.0626 C   0  0  0  0  0  0
  -29.0184  -18.3865   20.5999 C   0  0  0  0  0  0
  -27.8119  -23.2570   19.7526 C   0  0  0  0  0  0
  -30.4601  -17.8432   20.7524 C   0  0  0  0  0  0
  -28.8520  -24.2186   20.3771 C   0  0  0  0  0  0
  -27.5026  -20.8982   21.7459 C   0  0  0  0  0  0
  -30.6000  -16.6722   21.7602 C   0  0  0  0  0  0
  -28.2579  -25.5155   20.9749 C   0  0  0  0  0  0
  -26.0654  -20.2733   21.7929 C   0  0  0  0  0  0
  -28.9939  -21.4755   18.4676 N   0  0  0  0  0  0
  -28.1930  -20.8434   20.4548 N   0  0  0  0  0  0
  -30.0644  -15.3816   21.3110 N   0  0  0  0  0  0
  -30.0945  -19.1884   17.5084 Cl  0  0  0  0  0  0
  -31.4708  -12.4071   19.1068 H   0  0  0  0  0  0
  -30.3273  -11.2874   19.7968 H   0  0  0  0  0  0
  -29.7265  -11.8146   17.4064 H   0  0  0  0  0  0
  -29.6502  -13.5210   17.7867 H   0  0  0  0  0  0
  -27.8324  -11.3138   18.8172 H   0  0  0  0  0  0
  -27.3577  -12.6459   17.7939 H   0  0  0  0  0  0
  -27.7127  -14.2518   19.5927 H   0  0  0  0  0  0
  -28.6874  -11.9182   21.3190 H   0  0  0  0  0  0
  -28.4687  -13.5367   21.8861 H   0  0  0  0  0  0
  -25.2838   -9.5652   22.4732 H   0  0  0  0  0  0
  -24.0059   -7.4615   22.7479 H   0  0  0  0  0  0
  -21.0890   -8.8785   19.8924 H   0  0  0  0  0  0
  -22.3783  -10.9685   19.6154 H   0  0  0  0  0  0
  -21.1961   -7.6167   23.9762 H   0  0  0  0  0  0
  -21.1501   -6.0531   25.9124 H   0  0  0  0  0  0
  -22.0577   -2.7620   23.2855 H   0  0  0  0  0  0
  -22.4250  -11.9762   22.4705 H   0  0  0  0  0  0
  -21.1222  -13.1126   22.2703 H   0  0  0  0  0  0
  -24.6501  -15.8321   20.5311 H   0  0  0  0  0  0
  -26.2793  -15.6432   20.1281 H   0  0  0  0  0  0
  -26.7065  -32.5564   23.1187 H   0  0  0  0  0  0
  -25.0056  -33.9822   25.0497 H   0  0  0  0  0  0
  -22.6972  -31.3143   21.4167 H   0  0  0  0  0  0
  -23.3762  -35.9649   23.3294 H   0  0  0  0  0  0
  -24.3588  -36.8966   22.2051 H   0  0  0  0  0  0
  -23.7255  -37.6530   23.6683 H   0  0  0  0  0  0
  -26.0630  -31.6079   20.6147 H   0  0  0  0  0  0
  -26.8156  -30.8669   22.0044 H   0  0  0  0  0  0
  -28.1050  -29.1048   21.1501 H   0  0  0  0  0  0
  -26.0455  -25.9573   19.0474 H   0  0  0  0  0  0
  -23.9663  -27.2959   19.0572 H   0  0  0  0  0  0
  -23.7077  -30.6039   19.4109 H   0  0  0  0  0  0
  -22.7359  -29.2399   19.8790 H   0  0  0  0  0  0
  -25.1299  -36.1991   25.0846 H   0  0  0  0  0  0
  -20.9949  -28.3228   24.1449 H   0  0  0  0  0  0
  -20.5779  -26.2266   23.3573 H   0  0  0  0  0  0
  -21.6647  -26.7528   22.1153 H   0  0  0  0  0  0
  -19.6935  -25.6266   21.1303 H   0  0  0  0  0  0
  -19.6729  -27.3119   20.6715 H   0  0  0  0  0  0
  -17.4219  -26.6745   21.3955 H   0  0  0  0  0  0
  -18.0283  -26.0060   22.8964 H   0  0  0  0  0  0
  -19.7920  -30.7205   24.2440 H   0  0  0  0  0  0
  -17.5014  -31.6291   24.5183 H   0  0  0  0  0  0
  -15.5355  -30.3027   23.7673 H   0  0  0  0  0  0
  -15.8647  -28.0850   22.7085 H   0  0  0  0  0  0
  -24.5770  -30.7335   25.7864 H   0  0  0  0  0  0
  -24.9059  -32.2974   26.5146 H   0  0  0  0  0  0
  -25.8008  -30.8811   27.0230 H   0  0  0  0  0  0
  -26.2951  -29.6829   24.1344 H   0  0  0  0  0  0
  -27.4099  -29.7460   25.4826 H   0  0  0  0  0  0
  -27.8786  -30.4440   23.9492 H   0  0  0  0  0  0
  -27.2598  -33.3713   26.2172 H   0  0  0  0  0  0
  -28.3737  -32.7165   25.0297 H   0  0  0  0  0  0
  -28.0832  -31.8619   26.5368 H   0  0  0  0  0  0
  -28.2619  -38.0120   24.7492 H   0  0  0  0  0  0
  -28.1097  -36.2655   24.6282 H   0  0  0  0  0  0
  -27.2311  -37.1471   25.8852 H   0  0  0  0  0  0
  -20.9245  -29.8826   21.7039 H   0  0  0  0  0  0
  -26.0218  -38.2884   24.1359 H   0  0  0  0  0  0
  -24.0057  -20.9906   21.9930 H   0  0  0  0  0  0
  -25.0141  -22.0148   20.9872 H   0  0  0  0  0  0
  -25.1906  -22.0501   22.7400 H   0  0  0  0  0  0
  -24.6571  -19.0532   20.6403 H   0  0  0  0  0  0
  -26.3094  -18.5120   20.4886 H   0  0  0  0  0  0
  -25.7705  -19.9555   19.6325 H   0  0  0  0  0  0
  -24.9925  -18.9150   23.1413 H   0  0  0  0  0  0
  -26.1083  -19.9980   23.9667 H   0  0  0  0  0  0
  -26.7216  -18.6189   23.0728 H   0  0  0  0  0  0
  -28.4305  -17.6555   20.0476 H   0  0  0  0  0  0
  -28.5707  -18.4223   21.5914 H   0  0  0  0  0  0
  -26.9102  -23.2278   20.3614 H   0  0  0  0  0  0
  -27.4893  -23.6537   18.7892 H   0  0  0  0  0  0
  -31.0888  -18.6486   21.1316 H   0  0  0  0  0  0
  -30.8910  -17.5748   19.7872 H   0  0  0  0  0  0
  -29.6524  -24.4460   19.6702 H   0  0  0  0  0  0
  -29.3251  -23.6781   21.1966 H   0  0  0  0  0  0
  -28.1533  -20.4207   22.4783 H   0  0  0  0  0  0
  -27.4773  -21.9335   22.0866 H   0  0  0  0  0  0
  -30.0930  -16.9373   22.6890 H   0  0  0  0  0  0
  -31.6489  -16.5391   22.0315 H   0  0  0  0  0  0
  -28.7986  -25.7671   21.8871 H   0  0  0  0  0  0
  -27.2339  -25.3242   21.3060 H   0  0  0  0  0  0
  -29.1551  -15.1187   21.6636 H   0  0  0  0  0  0
  1 25  1  0  0  0
  1 30  2  0  0  0
  1 87  1  0  0  0
  2  3  1  0  0  0
  2 25  1  0  0  0
  2 89  1  0  0  0
  2 90  1  0  0  0
  3  4  1  0  0  0
  3 91  1  0  0  0
  3 92  1  0  0  0
  4  5  1  0  0  0
  4 93  1  0  0  0
  4 94  1  0  0  0
  5  6  1  0  0  0
  5 26  1  0  0  0
  5 95  1  0  0  0
  6 25  1  0  0  0
  6 96  1  0  0  0
  6 97  1  0  0  0
  7  8  2  0  0  0
  7 26  1  0  0  0
  7 29  1  0  0  0
  8  9  1  0  0  0
  8 22  1  0  0  0
  9 10  1  0  0  0
  9 27  2  0  0  0
 10 11  2  0  0  0
 10 15  1  0  0  0
 11 12  1  0  0  0
 11 98  1  0  0  0
 12 13  2  0  0  0
 12 99  1  0  0  0
 13 14  1  0  0  0
 13 31  1  0  0  0
 14 15  2  0  0  0
 14100  1  0  0  0
 15101  1  0  0  0
 16 17  2  0  0  0
 16 21  1  0  0  0
 16 31  1  0  0  0
 17 18  1  0  0  0
 17102  1  0  0  0
 18 19  2  0  0  0
 18103  1  0  0  0
 19 20  1  0  0  0
 19 24  1  0  0  0
 20 21  2  0  0  0
 20104  1  0  0  0
 21 23  1  0  0  0
 22 28  1  0  0  0
 22 32  2  0  0  0
 26 27  1  0  0  0
 28105  1  0  0  0
 28106  1  0  0  0
 29107  1  0  0  0
 29108  1  0  0  0
 33 34  1  0  0  0
 33 66  1  0  0  0
 33 70  2  0  0  0
 34 36  1  0  0  0
 34 59  1  0  0  0
 34109  1  0  0  0
 35 44  2  0  0  0
 35 45  1  0  0  0
 35 68  1  0  0  0
 36 56  1  0  0  0
 36110  1  0  0  0
 37 39  1  0  0  0
 37 47  1  0  0  0
 37 66  1  0  0  0
 37111  1  0  0  0
 38 43  2  0  0  0
 38 46  1  0  0  0
 38 47  1  0  0  0
 39 64  1  0  0  0
 39 67  2  0  0  0
 40 52  1  0  0  0
 40 53  2  0  0  0
 40 58  1  0  0  0
 41112  1  0  0  0
 41113  1  0  0  0
 41114  1  0  0  0
 41 48  1  0  0  0
 42 43  1  0  0  0
 42 66  1  0  0  0
 42115  1  0  0  0
 42116  1  0  0  0
 43 44  1  0  0  0
 44117  1  0  0  0
 45 46  2  0  0  0
 45118  1  0  0  0
 46119  1  0  0  0
 47120  1  0  0  0
 47121  1  0  0  0
 48 56  1  0  0  0
 48 65  1  0  0  0
 48122  1  0  0  0
 49 50  1  0  0  0
 49 53  1  0  0  0
 49 64  1  0  0  0
 49123  1  0  0  0
 50 51  1  0  0  0
 50124  1  0  0  0
 50125  1  0  0  0
 51 52  1  0  0  0
 51126  1  0  0  0
 51127  1  0  0  0
 52128  1  0  0  0
 52129  1  0  0  0
 53 54  1  0  0  0
 54 55  2  0  0  0
 54130  1  0  0  0
 55 57  1  0  0  0
 55131  1  0  0  0
 56 69  2  0  0  0
 57 58  2  0  0  0
 57132  1  0  0  0
 58133  1  0  0  0
 59 60  1  0  0  0
 59 61  1  0  0  0
 59 62  1  0  0  0
 60134  1  0  0  0
 60135  1  0  0  0
 60136  1  0  0  0
 61137  1  0  0  0
 61138  1  0  0  0
 61139  1  0  0  0
 62140  1  0  0  0
 62141  1  0  0  0
 62142  1  0  0  0
 63 65  1  0  0  0
 63143  1  0  0  0
 63144  1  0  0  0
 63145  1  0  0  0
 64146  1  0  0  0
 65147  1  0  0  0
 68 83  1  0  0  0
 71 72  2  0  0  0
 71 77  1  0  0  0
 71 86  1  0  0  0
 72 85  1  0  0  0
 72 88  1  0  0  0
 73 78  1  0  0  0
 73 85  2  0  0  0
 73 86  1  0  0  0
 74148  1  0  0  0
 74149  1  0  0  0
 74150  1  0  0  0
 74 84  1  0  0  0
 75 84  1  0  0  0
 75151  1  0  0  0
 75152  1  0  0  0
 75153  1  0  0  0
 76 84  1  0  0  0
 76154  1  0  0  0
 76155  1  0  0  0
 76156  1  0  0  0
 77 79  1  0  0  0
 77157  1  0  0  0
 77158  1  0  0  0
 78 80  1  0  0  0
 78159  1  0  0  0
 78160  1  0  0  0
 79 82  1  0  0  0
 79161  1  0  0  0
 79162  1  0  0  0
 80 83  1  0  0  0
 80163  1  0  0  0
 80164  1  0  0  0
 81 84  1  0  0  0
 81 86  1  0  0  0
 81165  1  0  0  0
 81166  1  0  0  0
 82 87  1  0  0  0
 82167  1  0  0  0
 82168  1  0  0  0
 83169  1  0  0  0
 83170  1  0  0  0
 87171  1  0  0  0
M  ISO  4   1 100  68 101  83 101  87 100
M  END
> <chiral flag>
0

> <version>
0

> <s_m_source_file>
/data/baiqing/PycharmProjects/Reinvent-master-3.2/result/LINK_invent/BTK/process_docking_weight1_custom_sum_contain_oxygen_bond_distance_aromatic_linkinvent_7_9_3/rearranged_h_0073.sdf

> <i_m_source_file_index>
96

> <r_mmod_Potential_Energy-OPLS-2005>
-67.2647552490234

> <r_mmod_Stretch_Energy-OPLS-2005>
38.6695785522461

> <r_mmod_Bend_Energy-OPLS-2005>
112.521537780762

> <r_mmod_Torsional_Energy-OPLS-2005>
249.965118408203

> <r_mmod_Improper_Torsional_Energy-OPLS-2005>
2.42922520637512

> <r_mmod_Van_der_Waal_Energy-OPLS-2005>
119.386581420898

> <r_mmod_Electrostatic_Energy-OPLS-2005>
-388.439544677734

> <r_mmod_Solvation_Energy-OPLS-2005>
-213.383041381836

> <b_mmod_Minimization_Converged-OPLS-2005>
0

> <r_mmod_RMS_Derivative-OPLS-2005>
4.41370391845703

$$$$
96
                    3D
 Structure written by MMmdl.
162170  0  0  1  0            999 V2000
  -30.7060  -14.4797   20.5929 C   0  0  0  0  0  0
  -30.4326  -12.3181   19.4266 C   0  0  0  0  0  0
  -29.5027  -12.5124   18.2119 C   0  0  0  0  0  0
  -28.0239  -12.3673   18.6259 C   0  0  0  0  0  0
  -27.6658  -13.2096   19.8799 C   0  0  2  0  0  0
  -28.7073  -12.9884   21.0000 C   0  0  0  0  0  0
  -25.2594  -13.8160   20.5676 C   0  0  0  0  0  0
  -24.1844  -13.0440   20.9185 C   0  0  0  0  0  0
  -24.6408  -11.6910   20.8747 C   0  0  0  0  0  0
  -23.9076  -10.4289   21.0407 C   0  0  0  0  0  0
  -24.3618   -9.4197   21.9189 C   0  0  0  0  0  0
  -23.6284   -8.2238   22.0761 C   0  0  0  0  0  0
  -22.4269   -8.0280   21.3544 C   0  0  0  0  0  0
  -21.9909   -9.0259   20.4653 C   0  0  0  0  0  0
  -22.7247  -10.2132   20.3059 C   0  0  0  0  0  0
  -21.6842   -6.0730   22.5278 C   0  0  0  0  0  0
  -21.3997   -6.5627   23.8211 C   0  0  0  0  0  0
  -21.3665   -5.6787   24.9182 C   0  0  0  0  0  0
  -21.6051   -4.3050   24.7226 C   0  0  0  0  0  0
  -21.8826   -3.8138   23.4349 C   0  0  0  0  0  0
  -21.9187   -4.6960   22.3402 C   0  0  0  0  0  0
  -22.7868  -13.5231   21.1841 C   0  0  0  0  0  0
  -22.1660   -4.2139   21.0981 F   0  0  0  0  0  0
  -21.5641   -3.4537   25.7744 F   0  0  0  0  0  0
  -30.0394  -13.2994   20.4503 N   0  0  0  0  0  0
  -26.3053  -12.9349   20.3390 N   0  0  0  0  0  0
  -25.9334  -11.6506   20.5774 N   0  0  0  0  0  0
  -22.0499  -12.8226   22.0404 N   0  0  0  0  0  0
  -25.4305  -15.1882   20.4075 N   0  0  0  0  0  0
  -31.8313  -14.6681   20.1310 O   0  0  0  0  0  0
  -21.6634   -6.8875   21.4239 O   0  0  0  0  0  0
  -22.3555  -14.5544   20.6699 O   0  0  0  0  0  0
  -24.6219  -31.8654   23.2082 C   0  0  0  0  0  0
  -25.9086  -32.4807   23.8376 C   0  0  1  0  0  0
  -27.2276  -27.3746   20.0834 C   0  0  0  0  0  0
  -25.5934  -33.8604   24.2298 N   0  0  0  0  0  0
  -23.4118  -30.4922   21.5528 C   0  0  2  0  0  0
  -24.8508  -28.9561   20.1150 C   0  0  0  0  0  0
  -22.7440  -29.4654   22.4977 C   0  0  0  0  0  0
  -18.0280  -28.1362   22.8474 C   0  0  0  0  0  0
  -24.1507  -36.7325   23.2631 C   0  0  0  0  0  0
  -25.9486  -30.8051   21.3768 C   0  0  0  0  0  0
  -26.0183  -29.4388   20.7193 C   0  0  0  0  0  0
  -27.2020  -28.6534   20.7052 C   0  0  0  0  0  0
  -26.0231  -26.9239   19.4824 C   0  0  0  0  0  0
  -24.8514  -27.6976   19.4989 C   0  0  0  0  0  0
  -23.6179  -29.8318   20.1673 C   0  0  0  0  0  0
  -25.4123  -36.3089   24.0315 C   0  0  1  0  0  0
  -20.5879  -28.3671   23.1282 C   0  0  2  0  0  0
  -20.6779  -26.9400   22.5402 C   0  0  0  0  0  0
  -19.5764  -26.6377   21.5193 C   0  0  0  0  0  0
  -18.1938  -26.7915   22.1587 C   0  0  0  0  0  0
  -19.1532  -28.8822   23.2872 C   0  0  0  0  0  0
  -18.9464  -30.1434   23.8887 C   0  0  0  0  0  0
  -17.6462  -30.6582   24.0549 C   0  0  0  0  0  0
  -25.9039  -34.9456   23.5095 C   0  0  0  0  0  0
  -16.5355  -29.9071   23.6333 C   0  0  0  0  0  0
  -16.7270  -28.6493   23.0360 C   0  0  0  0  0  0
  -26.4456  -31.6622   25.0742 C   0  0  0  0  0  0
  -25.3685  -31.3745   26.1468 C   0  0  0  0  0  0
  -27.0304  -30.3052   24.6184 C   0  0  0  0  0  0
  -27.6039  -32.4345   25.7499 C   0  0  0  0  0  0
  -27.5593  -37.1807   24.8457 C   0  0  0  0  0  0
  -21.4164  -29.3040   22.3687 N   0  0  0  0  0  0
  -26.4303  -37.3778   23.9388 N   0  0  0  0  0  0
  -24.6800  -31.0676   22.1040 N   0  0  0  0  0  0
  -23.4168  -28.8167   23.3037 O   0  0  0  0  0  0
  -28.4043  -26.6241   20.1158 O   0  0  0  0  0  0
  -26.5584  -34.8914   22.4654 O   0  0  0  0  0  0
  -23.5398  -32.1469   23.7400 O   0  0  0  0  0  0
  -29.0049  -20.1656   19.6667 C   0  0  0  0  0  0
  -29.3065  -21.4825   20.1264 C   0  0  0  0  0  0
  -29.9022  -19.3121   20.2644 C   0  0  0  0  0  0
  -31.3891  -17.7034   19.0939 C   0  0  0  0  0  0
  -28.9607  -17.2524   19.1525 C   0  0  0  0  0  0
  -31.7882  -19.7960   21.9401 C   0  0  0  0  0  0
  -28.6545  -22.7764   19.6335 C   0  0  0  0  0  0
  -29.1080  -24.1518   20.2244 C   0  0  0  0  0  0
  -30.3159  -16.9215   21.2785 C   0  0  0  0  0  0
  -28.5248  -25.3533   19.4146 C   0  0  0  0  0  0
  -30.1374  -17.8132   19.9865 C   0  0  0  0  0  0
  -30.2895  -21.4463   21.0140 N   0  0  0  0  0  0
  -30.6650  -20.1356   21.0886 N   0  0  0  0  0  0
  -29.9919  -15.4774   21.1502 N   0  0  0  0  0  0
  -31.4755  -12.4247   19.1231 H   0  0  0  0  0  0
  -30.3419  -11.3053   19.8215 H   0  0  0  0  0  0
  -29.7447  -11.7866   17.4340 H   0  0  0  0  0  0
  -29.6716  -13.4980   17.7760 H   0  0  0  0  0  0
  -27.8441  -11.3112   18.8313 H   0  0  0  0  0  0
  -27.3710  -12.6322   17.7935 H   0  0  0  0  0  0
  -27.7112  -14.2584   19.5861 H   0  0  0  0  0  0
  -28.6861  -11.9504   21.3365 H   0  0  0  0  0  0
  -28.4678  -13.5826   21.8821 H   0  0  0  0  0  0
  -25.2765   -9.5665   22.4764 H   0  0  0  0  0  0
  -23.9989   -7.4631   22.7476 H   0  0  0  0  0  0
  -21.0847   -8.8790   19.8951 H   0  0  0  0  0  0
  -22.3722  -10.9676   19.6168 H   0  0  0  0  0  0
  -21.1973   -7.6138   23.9711 H   0  0  0  0  0  0
  -21.1485   -6.0516   25.9083 H   0  0  0  0  0  0
  -22.0596   -2.7598   23.2857 H   0  0  0  0  0  0
  -22.4095  -11.9876   22.4790 H   0  0  0  0  0  0
  -21.1119  -13.1266   22.2605 H   0  0  0  0  0  0
  -24.6620  -15.8427   20.5077 H   0  0  0  0  0  0
  -26.2850  -15.6262   20.0874 H   0  0  0  0  0  0
  -26.7152  -32.5461   23.1125 H   0  0  0  0  0  0
  -25.0163  -33.9777   25.0492 H   0  0  0  0  0  0
  -22.7057  -31.3143   21.4167 H   0  0  0  0  0  0
  -23.3740  -35.9695   23.3337 H   0  0  0  0  0  0
  -24.3592  -36.8913   22.2040 H   0  0  0  0  0  0
  -23.7319  -37.6558   23.6641 H   0  0  0  0  0  0
  -26.0808  -31.5660   20.6073 H   0  0  0  0  0  0
  -26.8309  -30.8465   22.0048 H   0  0  0  0  0  0
  -28.1005  -29.0135   21.1881 H   0  0  0  0  0  0
  -25.9168  -25.9703   18.9957 H   0  0  0  0  0  0
  -23.9510  -27.3161   19.0346 H   0  0  0  0  0  0
  -23.7310  -30.6120   19.4130 H   0  0  0  0  0  0
  -22.7380  -29.2606   19.8666 H   0  0  0  0  0  0
  -25.1313  -36.1949   25.0807 H   0  0  0  0  0  0
  -20.9969  -28.3243   24.1411 H   0  0  0  0  0  0
  -20.5723  -26.2261   23.3578 H   0  0  0  0  0  0
  -21.6642  -26.7467   22.1184 H   0  0  0  0  0  0
  -19.6956  -25.6292   21.1231 H   0  0  0  0  0  0
  -19.6733  -27.3153   20.6699 H   0  0  0  0  0  0
  -17.4229  -26.6651   21.3983 H   0  0  0  0  0  0
  -18.0346  -26.0038   22.8968 H   0  0  0  0  0  0
  -19.7939  -30.7229   24.2277 H   0  0  0  0  0  0
  -17.5037  -31.6281   24.5115 H   0  0  0  0  0  0
  -15.5352  -30.2977   23.7709 H   0  0  0  0  0  0
  -15.8650  -28.0814   22.7101 H   0  0  0  0  0  0
  -24.5871  -30.7071   25.7808 H   0  0  0  0  0  0
  -24.8828  -32.2892   26.4879 H   0  0  0  0  0  0
  -25.7992  -30.8955   27.0274 H   0  0  0  0  0  0
  -26.2871  -29.6772   24.1244 H   0  0  0  0  0  0
  -27.4066  -29.7316   25.4677 H   0  0  0  0  0  0
  -27.8720  -30.4359   23.9368 H   0  0  0  0  0  0
  -27.2686  -33.3661   26.2066 H   0  0  0  0  0  0
  -28.3837  -32.6882   25.0304 H   0  0  0  0  0  0
  -28.0716  -31.8487   26.5417 H   0  0  0  0  0  0
  -28.2590  -38.0116   24.7514 H   0  0  0  0  0  0
  -28.1106  -36.2651   24.6286 H   0  0  0  0  0  0
  -27.2302  -37.1461   25.8851 H   0  0  0  0  0  0
  -20.9342  -29.8755   21.6879 H   0  0  0  0  0  0
  -26.0197  -38.2868   24.1353 H   0  0  0  0  0  0
  -28.2642  -19.8956   18.9302 H   0  0  0  0  0  0
  -31.2896  -18.3363   18.2115 H   0  0  0  0  0  0
  -31.5593  -16.6942   18.7287 H   0  0  0  0  0  0
  -32.2950  -18.0175   19.6098 H   0  0  0  0  0  0
  -28.8090  -17.8298   18.2410 H   0  0  0  0  0  0
  -28.0297  -17.2717   19.7181 H   0  0  0  0  0  0
  -29.1342  -16.2286   18.8228 H   0  0  0  0  0  0
  -32.5746  -19.3215   21.3560 H   0  0  0  0  0  0
  -31.4672  -19.1198   22.7335 H   0  0  0  0  0  0
  -32.2081  -20.6914   22.3997 H   0  0  0  0  0  0
  -27.5783  -22.6979   19.7850 H   0  0  0  0  0  0
  -28.7725  -22.8112   18.5483 H   0  0  0  0  0  0
  -30.1976  -24.2153   20.2108 H   0  0  0  0  0  0
  -28.8044  -24.2104   21.2708 H   0  0  0  0  0  0
  -29.6343  -17.2977   22.0412 H   0  0  0  0  0  0
  -31.3162  -17.0275   21.7039 H   0  0  0  0  0  0
  -27.6063  -24.9913   18.9739 H   0  0  0  0  0  0
  -29.1729  -25.5317   18.5543 H   0  0  0  0  0  0
  -29.0865  -15.2038   21.5009 H   0  0  0  0  0  0
  1 25  1  0  0  0
  1 30  2  0  0  0
  1 84  1  0  0  0
  2  3  1  0  0  0
  2 25  1  0  0  0
  2 85  1  0  0  0
  2 86  1  0  0  0
  3  4  1  0  0  0
  3 87  1  0  0  0
  3 88  1  0  0  0
  4  5  1  0  0  0
  4 89  1  0  0  0
  4 90  1  0  0  0
  5  6  1  0  0  0
  5 26  1  0  0  0
  5 91  1  0  0  0
  6 25  1  0  0  0
  6 92  1  0  0  0
  6 93  1  0  0  0
  7  8  2  0  0  0
  7 26  1  0  0  0
  7 29  1  0  0  0
  8  9  1  0  0  0
  8 22  1  0  0  0
  9 10  1  0  0  0
  9 27  2  0  0  0
 10 11  2  0  0  0
 10 15  1  0  0  0
 11 12  1  0  0  0
 11 94  1  0  0  0
 12 13  2  0  0  0
 12 95  1  0  0  0
 13 14  1  0  0  0
 13 31  1  0  0  0
 14 15  2  0  0  0
 14 96  1  0  0  0
 15 97  1  0  0  0
 16 17  2  0  0  0
 16 21  1  0  0  0
 16 31  1  0  0  0
 17 18  1  0  0  0
 17 98  1  0  0  0
 18 19  2  0  0  0
 18 99  1  0  0  0
 19 20  1  0  0  0
 19 24  1  0  0  0
 20 21  2  0  0  0
 20100  1  0  0  0
 21 23  1  0  0  0
 22 28  1  0  0  0
 22 32  2  0  0  0
 26 27  1  0  0  0
 28101  1  0  0  0
 28102  1  0  0  0
 29103  1  0  0  0
 29104  1  0  0  0
 33 34  1  0  0  0
 33 66  1  0  0  0
 33 70  2  0  0  0
 34 36  1  0  0  0
 34 59  1  0  0  0
 34105  1  0  0  0
 35 44  2  0  0  0
 35 45  1  0  0  0
 35 68  1  0  0  0
 36 56  1  0  0  0
 36106  1  0  0  0
 37 39  1  0  0  0
 37 47  1  0  0  0
 37 66  1  0  0  0
 37107  1  0  0  0
 38 43  2  0  0  0
 38 46  1  0  0  0
 38 47  1  0  0  0
 39 64  1  0  0  0
 39 67  2  0  0  0
 40 52  1  0  0  0
 40 53  2  0  0  0
 40 58  1  0  0  0
 41108  1  0  0  0
 41109  1  0  0  0
 41110  1  0  0  0
 41 48  1  0  0  0
 42 43  1  0  0  0
 42 66  1  0  0  0
 42111  1  0  0  0
 42112  1  0  0  0
 43 44  1  0  0  0
 44113  1  0  0  0
 45 46  2  0  0  0
 45114  1  0  0  0
 46115  1  0  0  0
 47116  1  0  0  0
 47117  1  0  0  0
 48 56  1  0  0  0
 48 65  1  0  0  0
 48118  1  0  0  0
 49 50  1  0  0  0
 49 53  1  0  0  0
 49 64  1  0  0  0
 49119  1  0  0  0
 50 51  1  0  0  0
 50120  1  0  0  0
 50121  1  0  0  0
 51 52  1  0  0  0
 51122  1  0  0  0
 51123  1  0  0  0
 52124  1  0  0  0
 52125  1  0  0  0
 53 54  1  0  0  0
 54 55  2  0  0  0
 54126  1  0  0  0
 55 57  1  0  0  0
 55127  1  0  0  0
 56 69  2  0  0  0
 57 58  2  0  0  0
 57128  1  0  0  0
 58129  1  0  0  0
 59 60  1  0  0  0
 59 61  1  0  0  0
 59 62  1  0  0  0
 60130  1  0  0  0
 60131  1  0  0  0
 60132  1  0  0  0
 61133  1  0  0  0
 61134  1  0  0  0
 61135  1  0  0  0
 62136  1  0  0  0
 62137  1  0  0  0
 62138  1  0  0  0
 63 65  1  0  0  0
 63139  1  0  0  0
 63140  1  0  0  0
 63141  1  0  0  0
 64142  1  0  0  0
 65143  1  0  0  0
 68 80  1  0  0  0
 71 72  1  0  0  0
 71 73  2  0  0  0
 71144  1  0  0  0
 72 77  1  0  0  0
 72 82  2  0  0  0
 73 81  1  0  0  0
 73 83  1  0  0  0
 74145  1  0  0  0
 74146  1  0  0  0
 74147  1  0  0  0
 74 81  1  0  0  0
 75 81  1  0  0  0
 75148  1  0  0  0
 75149  1  0  0  0
 75150  1  0  0  0
 76 83  1  0  0  0
 76151  1  0  0  0
 76152  1  0  0  0
 76153  1  0  0  0
 77 78  1  0  0  0
 77154  1  0  0  0
 77155  1  0  0  0
 78 80  1  0  0  0
 78156  1  0  0  0
 78157  1  0  0  0
 79 81  1  0  0  0
 79 84  1  0  0  0
 79158  1  0  0  0
 79159  1  0  0  0
 80160  1  0  0  0
 80161  1  0  0  0
 82 83  1  0  0  0
 84162  1  0  0  0
M  ISO  4   1 100  68 101  80 101  84 100
M  END
> <chiral flag>
0

> <version>
0

> <s_m_source_file>
/data/baiqing/PycharmProjects/Reinvent-master-3.2/result/LINK_invent/BTK/process_docking_weight1_custom_sum_contain_oxygen_bond_distance_aromatic_linkinvent_7_9_3/rearranged_h_0073.sdf

> <i_m_source_file_index>
97

> <r_mmod_Potential_Energy-OPLS-2005>
-120.352355957031

> <r_mmod_Stretch_Energy-OPLS-2005>
49.8711318969727

> <r_mmod_Bend_Energy-OPLS-2005>
136.105880737305

> <r_mmod_Torsional_Energy-OPLS-2005>
224.416229248047

> <r_mmod_Improper_Torsional_Energy-OPLS-2005>
3.70662593841553

> <r_mmod_Van_der_Waal_Energy-OPLS-2005>
136.266738891602

> <r_mmod_Electrostatic_Energy-OPLS-2005>
-469.343658447266

> <r_mmod_Solvation_Energy-OPLS-2005>
-219.908065795898

> <b_mmod_Minimization_Converged-OPLS-2005>
0

> <r_mmod_RMS_Derivative-OPLS-2005>
3.33276891708374

$$$$
97
                    3D
 Structure written by MMmdl.
157165  0  0  1  0            999 V2000
  -30.6231  -14.6323   20.4935 C   0  0  0  0  0  0
  -30.4375  -12.3841   19.4500 C   0  0  0  0  0  0
  -29.5129  -12.4947   18.2195 C   0  0  0  0  0  0
  -28.0303  -12.3485   18.6260 C   0  0  0  0  0  0
  -27.6518  -13.2216   19.8533 C   0  0  2  0  0  0
  -28.6947  -13.0770   20.9841 C   0  0  0  0  0  0
  -25.2560  -13.8202   20.5669 C   0  0  0  0  0  0
  -24.1855  -13.0438   20.9193 C   0  0  0  0  0  0
  -24.6437  -11.6917   20.8729 C   0  0  0  0  0  0
  -23.9120  -10.4282   21.0415 C   0  0  0  0  0  0
  -24.3647   -9.4188   21.9191 C   0  0  0  0  0  0
  -23.6328   -8.2211   22.0739 C   0  0  0  0  0  0
  -22.4305   -8.0274   21.3531 C   0  0  0  0  0  0
  -21.9947   -9.0260   20.4628 C   0  0  0  0  0  0
  -22.7283  -10.2139   20.3069 C   0  0  0  0  0  0
  -21.6839   -6.0762   22.5305 C   0  0  0  0  0  0
  -21.3989   -6.5656   23.8249 C   0  0  0  0  0  0
  -21.3651   -5.6804   24.9202 C   0  0  0  0  0  0
  -21.6057   -4.3080   24.7240 C   0  0  0  0  0  0
  -21.8814   -3.8166   23.4360 C   0  0  0  0  0  0
  -21.9188   -4.6986   22.3423 C   0  0  0  0  0  0
  -22.7867  -13.5225   21.1860 C   0  0  0  0  0  0
  -22.1666   -4.2178   21.1002 F   0  0  0  0  0  0
  -21.5641   -3.4558   25.7750 F   0  0  0  0  0  0
  -30.0074  -13.4115   20.4201 N   0  0  0  0  0  0
  -26.2988  -12.9383   20.3246 N   0  0  0  0  0  0
  -25.9354  -11.6532   20.5677 N   0  0  0  0  0  0
  -22.0505  -12.8228   22.0404 N   0  0  0  0  0  0
  -25.4243  -15.1928   20.4088 N   0  0  0  0  0  0
  -31.7908  -14.7885   20.1275 O   0  0  0  0  0  0
  -21.6629   -6.8893   21.4258 O   0  0  0  0  0  0
  -22.3552  -14.5542   20.6747 O   0  0  0  0  0  0
  -24.6263  -31.8606   23.2018 C   0  0  0  0  0  0
  -25.9101  -32.4772   23.8376 C   0  0  1  0  0  0
  -27.2244  -27.3247   20.1236 C   0  0  0  0  0  0
  -25.5921  -33.8575   24.2287 N   0  0  0  0  0  0
  -23.4206  -30.4807   21.5447 C   0  0  2  0  0  0
  -24.8677  -28.9376   20.1143 C   0  0  0  0  0  0
  -22.7482  -29.4598   22.4950 C   0  0  0  0  0  0
  -18.0277  -28.1361   22.8477 C   0  0  0  0  0  0
  -24.1493  -36.7291   23.2641 C   0  0  0  0  0  0
  -25.9602  -30.7934   21.3726 C   0  0  0  0  0  0
  -26.0349  -29.4200   20.7192 C   0  0  0  0  0  0
  -27.2189  -28.6255   20.7132 C   0  0  0  0  0  0
  -26.0394  -26.8998   19.4831 C   0  0  0  0  0  0
  -24.8717  -27.6842   19.4852 C   0  0  0  0  0  0
  -23.6343  -29.8143   20.1615 C   0  0  0  0  0  0
  -25.4113  -36.3079   24.0333 C   0  0  1  0  0  0
  -20.5880  -28.3678   23.1276 C   0  0  2  0  0  0
  -20.6754  -26.9392   22.5409 C   0  0  0  0  0  0
  -19.5730  -26.6371   21.5205 C   0  0  0  0  0  0
  -18.1922  -26.7911   22.1633 C   0  0  0  0  0  0
  -19.1531  -28.8835   23.2877 C   0  0  0  0  0  0
  -18.9461  -30.1445   23.8893 C   0  0  0  0  0  0
  -17.6456  -30.6580   24.0554 C   0  0  0  0  0  0
  -25.9059  -34.9447   23.5116 C   0  0  0  0  0  0
  -16.5342  -29.9078   23.6312 C   0  0  0  0  0  0
  -16.7264  -28.6484   23.0346 C   0  0  0  0  0  0
  -26.4484  -31.6586   25.0748 C   0  0  0  0  0  0
  -25.3727  -31.3710   26.1493 C   0  0  0  0  0  0
  -27.0330  -30.3020   24.6176 C   0  0  0  0  0  0
  -27.6050  -32.4321   25.7508 C   0  0  0  0  0  0
  -27.5569  -37.1801   24.8466 C   0  0  0  0  0  0
  -21.4199  -29.3035   22.3698 N   0  0  0  0  0  0
  -26.4283  -37.3770   23.9409 N   0  0  0  0  0  0
  -24.6872  -31.0617   22.0969 N   0  0  0  0  0  0
  -23.4196  -28.8129   23.3027 O   0  0  0  0  0  0
  -28.3441  -26.4827   20.1510 O   0  0  0  0  0  0
  -26.5636  -34.8912   22.4690 O   0  0  0  0  0  0
  -23.5424  -32.1381   23.7351 O   0  0  0  0  0  0
  -29.9904  -21.7383   21.0551 C   0  0  0  0  0  0
  -29.0889  -22.4976   20.2542 C   0  0  0  0  0  0
  -28.9840  -19.6988   20.4532 C   0  0  0  0  0  0
  -28.0504  -20.4717   19.6778 C   0  0  0  0  0  0
  -27.1765  -19.5360   17.4739 C   0  0  0  0  0  0
  -29.2582  -24.0390   20.0039 C   0  0  0  0  0  0
  -28.8576  -18.1399   20.6870 C   0  0  0  0  0  0
  -26.8599  -19.8658   18.9399 C   0  0  0  0  0  0
  -30.1159  -17.1735   20.5858 C   0  0  0  0  0  0
  -28.1368  -25.0491   20.4703 C   0  0  0  0  0  0
  -29.9356  -20.3724   21.1614 N   0  0  0  0  0  0
  -28.1289  -21.8335   19.5593 N   0  0  0  0  0  0
  -29.8191  -15.7072   20.7718 N   0  0  0  0  0  0
  -31.4786  -12.5155   19.1508 H   0  0  0  0  0  0
  -30.3777  -11.3892   19.8920 H   0  0  0  0  0  0
  -29.7757  -11.7311   17.4832 H   0  0  0  0  0  0
  -29.6702  -13.4549   17.7229 H   0  0  0  0  0  0
  -27.8524  -11.2985   18.8562 H   0  0  0  0  0  0
  -27.3809  -12.5808   17.7809 H   0  0  0  0  0  0
  -27.6672  -14.2546   19.5052 H   0  0  0  0  0  0
  -28.7062  -12.0569   21.3709 H   0  0  0  0  0  0
  -28.4439  -13.7182   21.8306 H   0  0  0  0  0  0
  -25.2770   -9.5694   22.4804 H   0  0  0  0  0  0
  -24.0046   -7.4600   22.7446 H   0  0  0  0  0  0
  -21.0894   -8.8838   19.8927 H   0  0  0  0  0  0
  -22.3766  -10.9725   19.6234 H   0  0  0  0  0  0
  -21.1960   -7.6164   23.9776 H   0  0  0  0  0  0
  -21.1492   -6.0519   25.9127 H   0  0  0  0  0  0
  -22.0597   -2.7625   23.2863 H   0  0  0  0  0  0
  -22.4083  -11.9911   22.4856 H   0  0  0  0  0  0
  -21.1123  -13.1283   22.2527 H   0  0  0  0  0  0
  -24.6525  -15.8433   20.5147 H   0  0  0  0  0  0
  -26.2637  -15.6275   20.0472 H   0  0  0  0  0  0
  -26.7178  -32.5429   23.1151 H   0  0  0  0  0  0
  -25.0037  -33.9743   25.0410 H   0  0  0  0  0  0
  -22.7172  -31.3017   21.4002 H   0  0  0  0  0  0
  -23.3754  -35.9625   23.3309 H   0  0  0  0  0  0
  -24.3583  -36.8917   22.2053 H   0  0  0  0  0  0
  -23.7265  -37.6498   23.6666 H   0  0  0  0  0  0
  -26.0923  -31.5530   20.5993 H   0  0  0  0  0  0
  -26.8405  -30.8432   22.0006 H   0  0  0  0  0  0
  -28.1171  -28.9934   21.1915 H   0  0  0  0  0  0
  -25.9987  -25.9555   18.9634 H   0  0  0  0  0  0
  -23.9789  -27.3121   19.0015 H   0  0  0  0  0  0
  -23.7510  -30.5873   19.4007 H   0  0  0  0  0  0
  -22.7573  -29.2366   19.8638 H   0  0  0  0  0  0
  -25.1294  -36.1929   25.0822 H   0  0  0  0  0  0
  -20.9960  -28.3226   24.1394 H   0  0  0  0  0  0
  -20.5618  -26.2286   23.3613 H   0  0  0  0  0  0
  -21.6628  -26.7389   22.1225 H   0  0  0  0  0  0
  -19.6894  -25.6285   21.1232 H   0  0  0  0  0  0
  -19.6665  -27.3184   20.6730 H   0  0  0  0  0  0
  -17.4179  -26.6637   21.4046 H   0  0  0  0  0  0
  -18.0335  -26.0058   22.9029 H   0  0  0  0  0  0
  -19.7939  -30.7258   24.2265 H   0  0  0  0  0  0
  -17.5010  -31.6254   24.5171 H   0  0  0  0  0  0
  -15.5345  -30.2983   23.7637 H   0  0  0  0  0  0
  -15.8667  -28.0814   22.7064 H   0  0  0  0  0  0
  -24.5894  -30.7066   25.7830 H   0  0  0  0  0  0
  -24.8926  -32.2871   26.4932 H   0  0  0  0  0  0
  -25.8059  -30.8870   27.0260 H   0  0  0  0  0  0
  -26.2897  -29.6787   24.1180 H   0  0  0  0  0  0
  -27.4040  -29.7246   25.4655 H   0  0  0  0  0  0
  -27.8759  -30.4342   23.9388 H   0  0  0  0  0  0
  -27.2660  -33.3622   26.2082 H   0  0  0  0  0  0
  -28.3835  -32.6897   25.0316 H   0  0  0  0  0  0
  -28.0749  -31.8460   26.5420 H   0  0  0  0  0  0
  -28.2593  -38.0086   24.7487 H   0  0  0  0  0  0
  -28.1067  -36.2621   24.6325 H   0  0  0  0  0  0
  -27.2289  -37.1477   25.8869 H   0  0  0  0  0  0
  -20.9382  -29.8791   21.6943 H   0  0  0  0  0  0
  -26.0170  -38.2845   24.1400 H   0  0  0  0  0  0
  -30.7913  -22.2243   21.5930 H   0  0  0  0  0  0
  -26.3094  -19.1027   16.9741 H   0  0  0  0  0  0
  -28.0066  -18.8332   17.3902 H   0  0  0  0  0  0
  -27.4509  -20.4354   16.9188 H   0  0  0  0  0  0
  -29.3997  -24.1659   18.9303 H   0  0  0  0  0  0
  -30.1981  -24.3484   20.4630 H   0  0  0  0  0  0
  -28.1425  -17.7441   19.9715 H   0  0  0  0  0  0
  -28.3826  -17.9999   21.6582 H   0  0  0  0  0  0
  -26.0346  -20.5840   18.9599 H   0  0  0  0  0  0
  -26.4733  -18.9920   19.4649 H   0  0  0  0  0  0
  -30.8606  -17.4730   21.3245 H   0  0  0  0  0  0
  -30.5897  -17.3098   19.6130 H   0  0  0  0  0  0
  -28.0319  -24.9710   21.5553 H   0  0  0  0  0  0
  -27.2022  -24.6681   20.0680 H   0  0  0  0  0  0
  -28.8814  -15.4761   21.0628 H   0  0  0  0  0  0
  1 25  1  0  0  0
  1 30  2  0  0  0
  1 83  1  0  0  0
  2  3  1  0  0  0
  2 25  1  0  0  0
  2 84  1  0  0  0
  2 85  1  0  0  0
  3  4  1  0  0  0
  3 86  1  0  0  0
  3 87  1  0  0  0
  4  5  1  0  0  0
  4 88  1  0  0  0
  4 89  1  0  0  0
  5  6  1  0  0  0
  5 26  1  0  0  0
  5 90  1  0  0  0
  6 25  1  0  0  0
  6 91  1  0  0  0
  6 92  1  0  0  0
  7  8  2  0  0  0
  7 26  1  0  0  0
  7 29  1  0  0  0
  8  9  1  0  0  0
  8 22  1  0  0  0
  9 10  1  0  0  0
  9 27  2  0  0  0
 10 11  2  0  0  0
 10 15  1  0  0  0
 11 12  1  0  0  0
 11 93  1  0  0  0
 12 13  2  0  0  0
 12 94  1  0  0  0
 13 14  1  0  0  0
 13 31  1  0  0  0
 14 15  2  0  0  0
 14 95  1  0  0  0
 15 96  1  0  0  0
 16 17  2  0  0  0
 16 21  1  0  0  0
 16 31  1  0  0  0
 17 18  1  0  0  0
 17 97  1  0  0  0
 18 19  2  0  0  0
 18 98  1  0  0  0
 19 20  1  0  0  0
 19 24  1  0  0  0
 20 21  2  0  0  0
 20 99  1  0  0  0
 21 23  1  0  0  0
 22 28  1  0  0  0
 22 32  2  0  0  0
 26 27  1  0  0  0
 28100  1  0  0  0
 28101  1  0  0  0
 29102  1  0  0  0
 29103  1  0  0  0
 33 34  1  0  0  0
 33 66  1  0  0  0
 33 70  2  0  0  0
 34 36  1  0  0  0
 34 59  1  0  0  0
 34104  1  0  0  0
 35 44  2  0  0  0
 35 45  1  0  0  0
 35 68  1  0  0  0
 36 56  1  0  0  0
 36105  1  0  0  0
 37 39  1  0  0  0
 37 47  1  0  0  0
 37 66  1  0  0  0
 37106  1  0  0  0
 38 43  2  0  0  0
 38 46  1  0  0  0
 38 47  1  0  0  0
 39 64  1  0  0  0
 39 67  2  0  0  0
 40 52  1  0  0  0
 40 53  2  0  0  0
 40 58  1  0  0  0
 41107  1  0  0  0
 41108  1  0  0  0
 41109  1  0  0  0
 41 48  1  0  0  0
 42 43  1  0  0  0
 42 66  1  0  0  0
 42110  1  0  0  0
 42111  1  0  0  0
 43 44  1  0  0  0
 44112  1  0  0  0
 45 46  2  0  0  0
 45113  1  0  0  0
 46114  1  0  0  0
 47115  1  0  0  0
 47116  1  0  0  0
 48 56  1  0  0  0
 48 65  1  0  0  0
 48117  1  0  0  0
 49 50  1  0  0  0
 49 53  1  0  0  0
 49 64  1  0  0  0
 49118  1  0  0  0
 50 51  1  0  0  0
 50119  1  0  0  0
 50120  1  0  0  0
 51 52  1  0  0  0
 51121  1  0  0  0
 51122  1  0  0  0
 52123  1  0  0  0
 52124  1  0  0  0
 53 54  1  0  0  0
 54 55  2  0  0  0
 54125  1  0  0  0
 55 57  1  0  0  0
 55126  1  0  0  0
 56 69  2  0  0  0
 57 58  2  0  0  0
 57127  1  0  0  0
 58128  1  0  0  0
 59 60  1  0  0  0
 59 61  1  0  0  0
 59 62  1  0  0  0
 60129  1  0  0  0
 60130  1  0  0  0
 60131  1  0  0  0
 61132  1  0  0  0
 61133  1  0  0  0
 61134  1  0  0  0
 62135  1  0  0  0
 62136  1  0  0  0
 62137  1  0  0  0
 63 65  1  0  0  0
 63138  1  0  0  0
 63139  1  0  0  0
 63140  1  0  0  0
 64141  1  0  0  0
 65142  1  0  0  0
 68 80  1  0  0  0
 71 72  2  0  0  0
 71 81  1  0  0  0
 71143  1  0  0  0
 72 76  1  0  0  0
 72 82  1  0  0  0
 73 74  1  0  0  0
 73 77  1  0  0  0
 73 81  2  0  0  0
 74 78  1  0  0  0
 74 82  2  0  0  0
 75 78  1  0  0  0
 75144  1  0  0  0
 75145  1  0  0  0
 75146  1  0  0  0
 76 80  1  0  0  0
 76147  1  0  0  0
 76148  1  0  0  0
 77 79  1  0  0  0
 77149  1  0  0  0
 77150  1  0  0  0
 78151  1  0  0  0
 78152  1  0  0  0
 79 83  1  0  0  0
 79153  1  0  0  0
 79154  1  0  0  0
 80155  1  0  0  0
 80156  1  0  0  0
 83157  1  0  0  0
M  ISO  4   1 100  68 101  80 101  83 100
M  END
> <chiral flag>
0

> <version>
0

> <s_m_source_file>
/data/baiqing/PycharmProjects/Reinvent-master-3.2/result/LINK_invent/BTK/process_docking_weight1_custom_sum_contain_oxygen_bond_distance_aromatic_linkinvent_7_9_3/rearranged_h_0073.sdf

> <i_m_source_file_index>
98

> <r_mmod_Potential_Energy-OPLS-2005>
46.2710647583008

> <r_mmod_Stretch_Energy-OPLS-2005>
80.4528656005859

> <r_mmod_Bend_Energy-OPLS-2005>
127.862144470215

> <r_mmod_Torsional_Energy-OPLS-2005>
194.840179443359

> <r_mmod_Improper_Torsional_Energy-OPLS-2005>
6.41182088851929

> <r_mmod_Van_der_Waal_Energy-OPLS-2005>
142.977645874023

> <r_mmod_Electrostatic_Energy-OPLS-2005>
-324.851196289062

> <r_mmod_Solvation_Energy-OPLS-2005>
-227.784286499023

> <b_mmod_Minimization_Converged-OPLS-2005>
0

> <r_mmod_RMS_Derivative-OPLS-2005>
3.86264872550964

$$$$
98
                    3D
 Structure written by MMmdl.
160168  0  0  1  0            999 V2000
  -30.7006  -14.7086   20.5768 C   0  0  0  0  0  0
  -30.4220  -12.4623   19.4890 C   0  0  0  0  0  0
  -29.5106  -12.5320   18.2471 C   0  0  0  0  0  0
  -28.0390  -12.3485   18.6583 C   0  0  0  0  0  0
  -27.6473  -13.2354   19.8676 C   0  0  2  0  0  0
  -28.6921  -13.1687   21.0121 C   0  0  0  0  0  0
  -25.2363  -13.8138   20.5497 C   0  0  0  0  0  0
  -24.1725  -13.0370   20.9146 C   0  0  0  0  0  0
  -24.6399  -11.6886   20.8760 C   0  0  0  0  0  0
  -23.9084  -10.4271   21.0401 C   0  0  0  0  0  0
  -24.3634   -9.4172   21.9175 C   0  0  0  0  0  0
  -23.6291   -8.2213   22.0770 C   0  0  0  0  0  0
  -22.4265   -8.0276   21.3563 C   0  0  0  0  0  0
  -21.9898   -9.0234   20.4645 C   0  0  0  0  0  0
  -22.7251  -10.2106   20.3047 C   0  0  0  0  0  0
  -21.6847   -6.0738   22.5279 C   0  0  0  0  0  0
  -21.4003   -6.5643   23.8210 C   0  0  0  0  0  0
  -21.3658   -5.6795   24.9178 C   0  0  0  0  0  0
  -21.6051   -4.3057   24.7228 C   0  0  0  0  0  0
  -21.8813   -3.8152   23.4347 C   0  0  0  0  0  0
  -21.9185   -4.6968   22.3408 C   0  0  0  0  0  0
  -22.7754  -13.5145   21.1834 C   0  0  0  0  0  0
  -22.1660   -4.2155   21.0981 F   0  0  0  0  0  0
  -21.5624   -3.4548   25.7735 F   0  0  0  0  0  0
  -30.0011  -13.5240   20.4446 N   0  0  0  0  0  0
  -26.2934  -12.9436   20.3325 N   0  0  0  0  0  0
  -25.9358  -11.6578   20.5850 N   0  0  0  0  0  0
  -22.0428  -12.8162   22.0424 N   0  0  0  0  0  0
  -25.3716  -15.1831   20.3629 N   0  0  0  0  0  0
  -31.8143  -14.8022   20.0487 O   0  0  0  0  0  0
  -21.6633   -6.8878   21.4243 O   0  0  0  0  0  0
  -22.3408  -14.5440   20.6690 O   0  0  0  0  0  0
  -24.6317  -31.8591   23.2035 C   0  0  0  0  0  0
  -25.9139  -32.4783   23.8369 C   0  0  1  0  0  0
  -27.2074  -27.2628   20.1399 C   0  0  0  0  0  0
  -25.5935  -33.8573   24.2295 N   0  0  0  0  0  0
  -23.4261  -30.4854   21.5489 C   0  0  2  0  0  0
  -24.8701  -28.9399   20.1100 C   0  0  0  0  0  0
  -22.7517  -29.4610   22.4948 C   0  0  0  0  0  0
  -18.0293  -28.1378   22.8478 C   0  0  0  0  0  0
  -24.1488  -36.7279   23.2637 C   0  0  0  0  0  0
  -25.9733  -30.7739   21.3827 C   0  0  0  0  0  0
  -26.0441  -29.3981   20.7216 C   0  0  0  0  0  0
  -27.2176  -28.5746   20.7205 C   0  0  0  0  0  0
  -26.0119  -26.8825   19.4820 C   0  0  0  0  0  0
  -24.8606  -27.6926   19.4757 C   0  0  0  0  0  0
  -23.6436  -29.8321   20.1608 C   0  0  0  0  0  0
  -25.4117  -36.3075   24.0330 C   0  0  1  0  0  0
  -20.5909  -28.3686   23.1268 C   0  0  2  0  0  0
  -20.6798  -26.9398   22.5417 C   0  0  0  0  0  0
  -19.5766  -26.6378   21.5224 C   0  0  0  0  0  0
  -18.1937  -26.7926   22.1630 C   0  0  0  0  0  0
  -19.1542  -28.8850   23.2875 C   0  0  0  0  0  0
  -18.9465  -30.1457   23.8899 C   0  0  0  0  0  0
  -17.6468  -30.6585   24.0562 C   0  0  0  0  0  0
  -25.9052  -34.9453   23.5114 C   0  0  0  0  0  0
  -16.5365  -29.9075   23.6328 C   0  0  0  0  0  0
  -16.7280  -28.6486   23.0347 C   0  0  0  0  0  0
  -26.4508  -31.6584   25.0739 C   0  0  0  0  0  0
  -25.3707  -31.3713   26.1445 C   0  0  0  0  0  0
  -27.0359  -30.3007   24.6193 C   0  0  0  0  0  0
  -27.6094  -32.4316   25.7495 C   0  0  0  0  0  0
  -27.5588  -37.1799   24.8474 C   0  0  0  0  0  0
  -21.4213  -29.3040   22.3663 N   0  0  0  0  0  0
  -26.4298  -37.3785   23.9407 N   0  0  0  0  0  0
  -24.6963  -31.0583   22.1012 N   0  0  0  0  0  0
  -23.4212  -28.8126   23.3005 O   0  0  0  0  0  0
  -28.2899  -26.3516   20.2089 O   0  0  0  0  0  0
  -26.5626  -34.8928   22.4682 O   0  0  0  0  0  0
  -23.5460  -32.1407   23.7327 O   0  0  0  0  0  0
  -28.0666  -16.7181   21.1287 C   0  0  0  0  0  0
  -27.5658  -18.9899   21.1619 C   0  0  0  0  0  0
  -28.9408  -19.3416   20.9531 C   0  0  0  0  0  0
  -29.4502  -16.9429   21.0397 C   0  0  0  0  0  0
  -26.4034  -20.2133   23.0542 C   0  0  0  0  0  0
  -31.1047  -15.9553   22.5719 C   0  0  0  0  0  0
  -26.4322  -19.9307   21.5415 C   0  0  0  0  0  0
  -29.4823  -20.8527   20.7920 C   0  0  0  0  0  0
  -28.5383  -22.1845   20.7579 C   0  0  0  0  0  0
  -29.0693  -23.6979   20.4864 C   0  0  0  0  0  0
  -27.9729  -24.8913   20.4133 C   0  0  0  0  0  0
  -27.1546  -17.7041   21.2035 N   0  0  0  0  0  0
  -29.8626  -18.2801   20.9305 N   0  0  0  0  0  0
  -30.2596  -15.7536   21.3880 N   0  0  0  0  0  0
  -31.4675  -12.5549   19.1912 H   0  0  0  0  0  0
  -30.3452  -11.4841   19.9617 H   0  0  0  0  0  0
  -29.7995  -11.7687   17.5227 H   0  0  0  0  0  0
  -29.6423  -13.4964   17.7511 H   0  0  0  0  0  0
  -27.8986  -11.2949   18.9093 H   0  0  0  0  0  0
  -27.3847  -12.5497   17.8109 H   0  0  0  0  0  0
  -27.6402  -14.2617   19.4931 H   0  0  0  0  0  0
  -28.7262  -12.1728   21.4499 H   0  0  0  0  0  0
  -28.4294  -13.8356   21.8327 H   0  0  0  0  0  0
  -25.2791   -9.5643   22.4741 H   0  0  0  0  0  0
  -23.9996   -7.4611   22.7497 H   0  0  0  0  0  0
  -21.0836   -8.8762   19.8950 H   0  0  0  0  0  0
  -22.3717  -10.9645   19.6154 H   0  0  0  0  0  0
  -21.1990   -7.6147   23.9716 H   0  0  0  0  0  0
  -21.1488   -6.0531   25.9081 H   0  0  0  0  0  0
  -22.0589   -2.7615   23.2847 H   0  0  0  0  0  0
  -22.4078  -11.9834   22.4820 H   0  0  0  0  0  0
  -21.1044  -13.1193   22.2664 H   0  0  0  0  0  0
  -24.5976  -15.8201   20.5117 H   0  0  0  0  0  0
  -26.2149  -15.6657   20.0837 H   0  0  0  0  0  0
  -26.7191  -32.5444   23.1106 H   0  0  0  0  0  0
  -25.0096  -33.9736   25.0434 H   0  0  0  0  0  0
  -22.7205  -31.3073   21.4141 H   0  0  0  0  0  0
  -23.3775  -35.9595   23.3307 H   0  0  0  0  0  0
  -24.3575  -36.8887   22.2055 H   0  0  0  0  0  0
  -23.7226  -37.6469   23.6652 H   0  0  0  0  0  0
  -26.1121  -31.5360   20.6160 H   0  0  0  0  0  0
  -26.8514  -30.8203   22.0156 H   0  0  0  0  0  0
  -28.1164  -28.9216   21.2122 H   0  0  0  0  0  0
  -25.9282  -25.9437   18.9603 H   0  0  0  0  0  0
  -23.9662  -27.3465   18.9785 H   0  0  0  0  0  0
  -23.7736  -30.6203   19.4169 H   0  0  0  0  0  0
  -22.7576  -29.2776   19.8475 H   0  0  0  0  0  0
  -25.1299  -36.1948   25.0827 H   0  0  0  0  0  0
  -20.9989  -28.3266   24.1403 H   0  0  0  0  0  0
  -20.5693  -26.2293   23.3627 H   0  0  0  0  0  0
  -21.6654  -26.7434   22.1202 H   0  0  0  0  0  0
  -19.6925  -25.6288   21.1243 H   0  0  0  0  0  0
  -19.6709  -27.3197   20.6754 H   0  0  0  0  0  0
  -17.4219  -26.6668   21.4036 H   0  0  0  0  0  0
  -18.0335  -26.0084   22.9026 H   0  0  0  0  0  0
  -19.7941  -30.7265   24.2281 H   0  0  0  0  0  0
  -17.5015  -31.6261   24.5164 H   0  0  0  0  0  0
  -15.5353  -30.2971   23.7661 H   0  0  0  0  0  0
  -15.8685  -28.0810   22.7066 H   0  0  0  0  0  0
  -24.5919  -30.7042   25.7726 H   0  0  0  0  0  0
  -24.8863  -32.2876   26.4842 H   0  0  0  0  0  0
  -25.8014  -30.8892   27.0231 H   0  0  0  0  0  0
  -26.2936  -29.6772   24.1203 H   0  0  0  0  0  0
  -27.4035  -29.7267   25.4704 H   0  0  0  0  0  0
  -27.8819  -30.4309   23.9444 H   0  0  0  0  0  0
  -27.2740  -33.3645   26.2053 H   0  0  0  0  0  0
  -28.3908  -32.6824   25.0297 H   0  0  0  0  0  0
  -28.0754  -31.8430   26.5418 H   0  0  0  0  0  0
  -28.2612  -38.0085   24.7517 H   0  0  0  0  0  0
  -28.1070  -36.2623   24.6308 H   0  0  0  0  0  0
  -27.2297  -37.1456   25.8870 H   0  0  0  0  0  0
  -20.9396  -29.8755   21.6880 H   0  0  0  0  0  0
  -26.0186  -38.2856   24.1414 H   0  0  0  0  0  0
  -27.6828  -15.7338   21.3141 H   0  0  0  0  0  0
  -26.2970  -19.2995   23.6433 H   0  0  0  0  0  0
  -25.5657  -20.8638   23.3009 H   0  0  0  0  0  0
  -27.3139  -20.7105   23.3890 H   0  0  0  0  0  0
  -31.9261  -16.6372   22.3447 H   0  0  0  0  0  0
  -31.5278  -15.0196   22.9429 H   0  0  0  0  0  0
  -30.5176  -16.3820   23.3892 H   0  0  0  0  0  0
  -25.4892  -19.4580   21.2630 H   0  0  0  0  0  0
  -26.4111  -20.8456   20.9700 H   0  0  0  0  0  0
  -30.2235  -20.9847   21.5808 H   0  0  0  0  0  0
  -30.0551  -20.8550   19.8647 H   0  0  0  0  0  0
  -28.0091  -22.2234   21.7103 H   0  0  0  0  0  0
  -27.8002  -22.0203   19.9734 H   0  0  0  0  0  0
  -29.8070  -23.9563   21.2458 H   0  0  0  0  0  0
  -29.6156  -23.6971   19.5415 H   0  0  0  0  0  0
  -27.3804  -24.8410   21.3291 H   0  0  0  0  0  0
  -27.2967  -24.5674   19.6236 H   0  0  0  0  0  0
  1 25  1  0  0  0
  1 30  2  0  0  0
  1 84  1  0  0  0
  2  3  1  0  0  0
  2 25  1  0  0  0
  2 85  1  0  0  0
  2 86  1  0  0  0
  3  4  1  0  0  0
  3 87  1  0  0  0
  3 88  1  0  0  0
  4  5  1  0  0  0
  4 89  1  0  0  0
  4 90  1  0  0  0
  5  6  1  0  0  0
  5 26  1  0  0  0
  5 91  1  0  0  0
  6 25  1  0  0  0
  6 92  1  0  0  0
  6 93  1  0  0  0
  7  8  2  0  0  0
  7 26  1  0  0  0
  7 29  1  0  0  0
  8  9  1  0  0  0
  8 22  1  0  0  0
  9 10  1  0  0  0
  9 27  2  0  0  0
 10 11  2  0  0  0
 10 15  1  0  0  0
 11 12  1  0  0  0
 11 94  1  0  0  0
 12 13  2  0  0  0
 12 95  1  0  0  0
 13 14  1  0  0  0
 13 31  1  0  0  0
 14 15  2  0  0  0
 14 96  1  0  0  0
 15 97  1  0  0  0
 16 17  2  0  0  0
 16 21  1  0  0  0
 16 31  1  0  0  0
 17 18  1  0  0  0
 17 98  1  0  0  0
 18 19  2  0  0  0
 18 99  1  0  0  0
 19 20  1  0  0  0
 19 24  1  0  0  0
 20 21  2  0  0  0
 20100  1  0  0  0
 21 23  1  0  0  0
 22 28  1  0  0  0
 22 32  2  0  0  0
 26 27  1  0  0  0
 28101  1  0  0  0
 28102  1  0  0  0
 29103  1  0  0  0
 29104  1  0  0  0
 33 34  1  0  0  0
 33 66  1  0  0  0
 33 70  2  0  0  0
 34 36  1  0  0  0
 34 59  1  0  0  0
 34105  1  0  0  0
 35 44  2  0  0  0
 35 45  1  0  0  0
 35 68  1  0  0  0
 36 56  1  0  0  0
 36106  1  0  0  0
 37 39  1  0  0  0
 37 47  1  0  0  0
 37 66  1  0  0  0
 37107  1  0  0  0
 38 43  2  0  0  0
 38 46  1  0  0  0
 38 47  1  0  0  0
 39 64  1  0  0  0
 39 67  2  0  0  0
 40 52  1  0  0  0
 40 53  2  0  0  0
 40 58  1  0  0  0
 41108  1  0  0  0
 41109  1  0  0  0
 41110  1  0  0  0
 41 48  1  0  0  0
 42 43  1  0  0  0
 42 66  1  0  0  0
 42111  1  0  0  0
 42112  1  0  0  0
 43 44  1  0  0  0
 44113  1  0  0  0
 45 46  2  0  0  0
 45114  1  0  0  0
 46115  1  0  0  0
 47116  1  0  0  0
 47117  1  0  0  0
 48 56  1  0  0  0
 48 65  1  0  0  0
 48118  1  0  0  0
 49 50  1  0  0  0
 49 53  1  0  0  0
 49 64  1  0  0  0
 49119  1  0  0  0
 50 51  1  0  0  0
 50120  1  0  0  0
 50121  1  0  0  0
 51 52  1  0  0  0
 51122  1  0  0  0
 51123  1  0  0  0
 52124  1  0  0  0
 52125  1  0  0  0
 53 54  1  0  0  0
 54 55  2  0  0  0
 54126  1  0  0  0
 55 57  1  0  0  0
 55127  1  0  0  0
 56 69  2  0  0  0
 57 58  2  0  0  0
 57128  1  0  0  0
 58129  1  0  0  0
 59 60  1  0  0  0
 59 61  1  0  0  0
 59 62  1  0  0  0
 60130  1  0  0  0
 60131  1  0  0  0
 60132  1  0  0  0
 61133  1  0  0  0
 61134  1  0  0  0
 61135  1  0  0  0
 62136  1  0  0  0
 62137  1  0  0  0
 62138  1  0  0  0
 63 65  1  0  0  0
 63139  1  0  0  0
 63140  1  0  0  0
 63141  1  0  0  0
 64142  1  0  0  0
 65143  1  0  0  0
 68 81  1  0  0  0
 71 74  2  0  0  0
 71 82  1  0  0  0
 71144  1  0  0  0
 72 73  1  0  0  0
 72 77  1  0  0  0
 72 82  2  0  0  0
 73 78  1  0  0  0
 73 83  2  0  0  0
 74 83  1  0  0  0
 74 84  1  0  0  0
 75 77  1  0  0  0
 75145  1  0  0  0
 75146  1  0  0  0
 75147  1  0  0  0
 76 84  1  0  0  0
 76148  1  0  0  0
 76149  1  0  0  0
 76150  1  0  0  0
 77151  1  0  0  0
 77152  1  0  0  0
 78 79  1  0  0  0
 78153  1  0  0  0
 78154  1  0  0  0
 79 80  1  0  0  0
 79155  1  0  0  0
 79156  1  0  0  0
 80 81  1  0  0  0
 80157  1  0  0  0
 80158  1  0  0  0
 81159  1  0  0  0
 81160  1  0  0  0
M  ISO  4   1 100  68 101  81 101  84 100
M  END
> <chiral flag>
0

> <version>
0

> <s_m_source_file>
/data/baiqing/PycharmProjects/Reinvent-master-3.2/result/LINK_invent/BTK/process_docking_weight1_custom_sum_contain_oxygen_bond_distance_aromatic_linkinvent_7_9_3/rearranged_h_0073.sdf

> <i_m_source_file_index>
99

> <r_mmod_Potential_Energy-OPLS-2005>
422.372650146484

> <r_mmod_Stretch_Energy-OPLS-2005>
141.977584838867

> <r_mmod_Bend_Energy-OPLS-2005>
208.529739379883

> <r_mmod_Torsional_Energy-OPLS-2005>
291.584167480469

> <r_mmod_Improper_Torsional_Energy-OPLS-2005>
7.1881308555603

> <r_mmod_Van_der_Waal_Energy-OPLS-2005>
148.081115722656

> <r_mmod_Electrostatic_Energy-OPLS-2005>
-261.29833984375

> <r_mmod_Solvation_Energy-OPLS-2005>
-192.29069519043

> <b_mmod_Minimization_Converged-OPLS-2005>
0

> <r_mmod_RMS_Derivative-OPLS-2005>
5.71103191375732

$$$$
99
                    3D
 Structure written by MMmdl.
148156  0  0  1  0            999 V2000
  -30.5200  -15.0067   20.4089 C   0  0  0  0  0  0
  -30.4379  -12.6279   19.5055 C   0  0  0  0  0  0
  -29.5230  -12.5345   18.2627 C   0  0  0  0  0  0
  -28.0592  -12.3116   18.6845 C   0  0  0  0  0  0
  -27.6256  -13.2528   19.8376 C   0  0  2  0  0  0
  -28.6654  -13.3092   20.9753 C   0  0  0  0  0  0
  -25.2443  -13.8220   20.5721 C   0  0  0  0  0  0
  -24.1768  -13.0439   20.9248 C   0  0  0  0  0  0
  -24.6391  -11.6927   20.8765 C   0  0  0  0  0  0
  -23.9080  -10.4296   21.0411 C   0  0  0  0  0  0
  -24.3629   -9.4208   21.9188 C   0  0  0  0  0  0
  -23.6305   -8.2239   22.0750 C   0  0  0  0  0  0
  -22.4290   -8.0279   21.3541 C   0  0  0  0  0  0
  -21.9928   -9.0254   20.4643 C   0  0  0  0  0  0
  -22.7254  -10.2133   20.3058 C   0  0  0  0  0  0
  -21.6853   -6.0739   22.5280 C   0  0  0  0  0  0
  -21.4010   -6.5641   23.8215 C   0  0  0  0  0  0
  -21.3662   -5.6791   24.9176 C   0  0  0  0  0  0
  -21.6045   -4.3056   24.7222 C   0  0  0  0  0  0
  -21.8821   -3.8149   23.4345 C   0  0  0  0  0  0
  -21.9196   -4.6967   22.3402 C   0  0  0  0  0  0
  -22.7791  -13.5203   21.1912 C   0  0  0  0  0  0
  -22.1665   -4.2157   21.0978 F   0  0  0  0  0  0
  -21.5633   -3.4537   25.7734 F   0  0  0  0  0  0
  -29.9322  -13.7373   20.3688 N   0  0  0  0  0  0
  -26.2869  -12.9457   20.3246 N   0  0  0  0  0  0
  -25.9326  -11.6585   20.5746 N   0  0  0  0  0  0
  -22.0449  -12.8170   22.0456 N   0  0  0  0  0  0
  -25.4101  -15.1949   20.4130 N   0  0  0  0  0  0
  -31.7283  -15.0585   20.1538 O   0  0  0  0  0  0
  -21.6645   -6.8883   21.4245 O   0  0  0  0  0  0
  -22.3474  -14.5514   20.6770 O   0  0  0  0  0  0
  -24.6487  -31.8397   23.1843 C   0  0  0  0  0  0
  -25.9237  -32.4669   23.8243 C   0  0  1  0  0  0
  -27.2102  -27.0882   20.1508 C   0  0  0  0  0  0
  -25.5964  -33.8478   24.2165 N   0  0  0  0  0  0
  -23.4541  -30.4604   21.5315 C   0  0  2  0  0  0
  -24.9021  -28.8801   20.1094 C   0  0  0  0  0  0
  -22.7595  -29.4543   22.4835 C   0  0  0  0  0  0
  -18.0311  -28.1402   22.8489 C   0  0  0  0  0  0
  -24.1486  -36.7235   23.2645 C   0  0  0  0  0  0
  -26.0150  -30.6982   21.3906 C   0  0  0  0  0  0
  -26.0837  -29.3060   20.7297 C   0  0  0  0  0  0
  -27.2388  -28.4279   20.7309 C   0  0  0  0  0  0
  -26.0004  -26.7808   19.4883 C   0  0  0  0  0  0
  -24.8769  -27.6331   19.4716 C   0  0  0  0  0  0
  -23.6823  -29.7892   20.1518 C   0  0  0  0  0  0
  -25.4125  -36.3027   24.0318 C   0  0  1  0  0  0
  -20.5929  -28.3741   23.1224 C   0  0  2  0  0  0
  -20.6794  -26.9440   22.5403 C   0  0  0  0  0  0
  -19.5759  -26.6386   21.5216 C   0  0  0  0  0  0
  -18.1944  -26.7943   22.1628 C   0  0  0  0  0  0
  -19.1570  -28.8887   23.2847 C   0  0  0  0  0  0
  -18.9487  -30.1487   23.8869 C   0  0  0  0  0  0
  -17.6481  -30.6599   24.0569 C   0  0  0  0  0  0
  -25.9075  -34.9402   23.5058 C   0  0  0  0  0  0
  -16.5376  -29.9092   23.6343 C   0  0  0  0  0  0
  -16.7294  -28.6509   23.0369 C   0  0  0  0  0  0
  -26.4535  -31.6556   25.0704 C   0  0  0  0  0  0
  -25.3709  -31.3764   26.1393 C   0  0  0  0  0  0
  -27.0399  -30.2942   24.6334 C   0  0  0  0  0  0
  -27.6049  -32.4340   25.7489 C   0  0  0  0  0  0
  -27.5572  -37.1782   24.8474 C   0  0  0  0  0  0
  -21.4280  -29.3060   22.3585 N   0  0  0  0  0  0
  -26.4283  -37.3752   23.9417 N   0  0  0  0  0  0
  -24.7263  -31.0214   22.0899 N   0  0  0  0  0  0
  -23.4227  -28.8099   23.3003 O   0  0  0  0  0  0
  -28.2404  -26.0620   20.2180 O   0  0  0  0  0  0
  -26.5662  -34.8910   22.4638 O   0  0  0  0  0  0
  -23.5584  -32.1281   23.7033 O   0  0  0  0  0  0
  -30.2859  -23.3987   20.2613 C   0  0  0  0  0  0
  -31.1382  -22.2814   20.3334 C   0  0  0  0  0  0
  -28.9008  -23.2049   20.2398 C   0  0  0  0  0  0
  -29.4049  -20.7393   20.3493 C   0  0  0  0  0  0
  -27.8900  -24.5256   20.0845 C   0  0  0  0  0  0
  -29.0180  -19.1100   20.4159 C   0  0  0  0  0  0
  -30.0980  -17.7743   20.4306 C   0  0  0  0  0  0
  -30.7075  -20.9968   20.3798 N   0  0  0  0  0  0
  -28.5046  -21.8260   20.2825 N   0  0  0  0  0  0
  -29.7442  -16.2083   20.5277 N   0  0  0  0  0  0
  -31.4698  -12.7933   19.1931 H   0  0  0  0  0  0
  -30.4426  -11.6850   20.0539 H   0  0  0  0  0  0
  -29.8521  -11.7256   17.6091 H   0  0  0  0  0  0
  -29.6019  -13.4526   17.6779 H   0  0  0  0  0  0
  -27.9692  -11.2734   19.0074 H   0  0  0  0  0  0
  -27.3929  -12.4235   17.8279 H   0  0  0  0  0  0
  -27.5800  -14.2489   19.3963 H   0  0  0  0  0  0
  -28.7673  -12.3435   21.4709 H   0  0  0  0  0  0
  -28.3554  -14.0206   21.7424 H   0  0  0  0  0  0
  -25.2775   -9.5686   22.4771 H   0  0  0  0  0  0
  -24.0022   -7.4625   22.7462 H   0  0  0  0  0  0
  -21.0864   -8.8774   19.8937 H   0  0  0  0  0  0
  -22.3719  -10.9677   19.6171 H   0  0  0  0  0  0
  -21.1993   -7.6150   23.9720 H   0  0  0  0  0  0
  -21.1485   -6.0520   25.9079 H   0  0  0  0  0  0
  -22.0596   -2.7616   23.2838 H   0  0  0  0  0  0
  -22.4082  -11.9827   22.4821 H   0  0  0  0  0  0
  -21.1067  -13.1173   22.2678 H   0  0  0  0  0  0
  -24.6361  -15.8429   20.5130 H   0  0  0  0  0  0
  -26.2447  -15.6324   20.0452 H   0  0  0  0  0  0
  -26.7305  -32.5263   23.0963 H   0  0  0  0  0  0
  -25.0131  -33.9586   25.0333 H   0  0  0  0  0  0
  -22.7612  -31.2902   21.3750 H   0  0  0  0  0  0
  -23.3756  -35.9554   23.3305 H   0  0  0  0  0  0
  -24.3580  -36.8871   22.2065 H   0  0  0  0  0  0
  -23.7225  -37.6427   23.6678 H   0  0  0  0  0  0
  -26.1806  -31.4529   20.6208 H   0  0  0  0  0  0
  -26.8811  -30.7454   22.0393 H   0  0  0  0  0  0
  -28.1375  -28.7499   21.2383 H   0  0  0  0  0  0
  -25.8789  -25.8329   18.9875 H   0  0  0  0  0  0
  -23.9766  -27.3038   18.9713 H   0  0  0  0  0  0
  -23.8251  -30.5628   19.3966 H   0  0  0  0  0  0
  -22.7939  -29.2370   19.8369 H   0  0  0  0  0  0
  -25.1314  -36.1847   25.0808 H   0  0  0  0  0  0
  -21.0031  -28.3324   24.1338 H   0  0  0  0  0  0
  -20.5692  -26.2353   23.3631 H   0  0  0  0  0  0
  -21.6660  -26.7437   22.1197 H   0  0  0  0  0  0
  -19.6926  -25.6288   21.1258 H   0  0  0  0  0  0
  -19.6684  -27.3191   20.6746 H   0  0  0  0  0  0
  -17.4218  -26.6699   21.4034 H   0  0  0  0  0  0
  -18.0334  -26.0091   22.9025 H   0  0  0  0  0  0
  -19.7967  -30.7316   24.2213 H   0  0  0  0  0  0
  -17.5038  -31.6275   24.5184 H   0  0  0  0  0  0
  -15.5376  -30.2989   23.7678 H   0  0  0  0  0  0
  -15.8698  -28.0819   22.7096 H   0  0  0  0  0  0
  -24.5893  -30.7114   25.7712 H   0  0  0  0  0  0
  -24.8893  -32.2946   26.4755 H   0  0  0  0  0  0
  -25.7976  -30.8976   27.0216 H   0  0  0  0  0  0
  -26.3021  -29.6663   24.1323 H   0  0  0  0  0  0
  -27.3967  -29.7255   25.4932 H   0  0  0  0  0  0
  -27.8952  -30.4153   23.9690 H   0  0  0  0  0  0
  -27.2635  -33.3680   26.1966 H   0  0  0  0  0  0
  -28.3896  -32.6847   25.0343 H   0  0  0  0  0  0
  -28.0671  -31.8541   26.5495 H   0  0  0  0  0  0
  -28.2591  -38.0079   24.7523 H   0  0  0  0  0  0
  -28.1066  -36.2611   24.6285 H   0  0  0  0  0  0
  -27.2294  -37.1408   25.8880 H   0  0  0  0  0  0
  -20.9496  -29.8766   21.6753 H   0  0  0  0  0  0
  -26.0140  -38.2816   24.1427 H   0  0  0  0  0  0
  -30.6991  -24.3974   20.2091 H   0  0  0  0  0  0
  -32.2095  -22.4214   20.3469 H   0  0  0  0  0  0
  -27.0584  -24.3434   20.7653 H   0  0  0  0  0  0
  -27.4759  -24.3995   19.0852 H   0  0  0  0  0  0
  -28.3425  -18.9488   19.5756 H   0  0  0  0  0  0
  -28.3868  -19.0083   21.2986 H   0  0  0  0  0  0
  -30.7796  -17.9552   21.2622 H   0  0  0  0  0  0
  -30.7212  -17.8785   19.5419 H   0  0  0  0  0  0
  -28.7668  -16.0221   20.6957 H   0  0  0  0  0  0
  1 25  1  0  0  0
  1 30  2  0  0  0
  1 80  1  0  0  0
  2  3  1  0  0  0
  2 25  1  0  0  0
  2 81  1  0  0  0
  2 82  1  0  0  0
  3  4  1  0  0  0
  3 83  1  0  0  0
  3 84  1  0  0  0
  4  5  1  0  0  0
  4 85  1  0  0  0
  4 86  1  0  0  0
  5  6  1  0  0  0
  5 26  1  0  0  0
  5 87  1  0  0  0
  6 25  1  0  0  0
  6 88  1  0  0  0
  6 89  1  0  0  0
  7  8  2  0  0  0
  7 26  1  0  0  0
  7 29  1  0  0  0
  8  9  1  0  0  0
  8 22  1  0  0  0
  9 10  1  0  0  0
  9 27  2  0  0  0
 10 11  2  0  0  0
 10 15  1  0  0  0
 11 12  1  0  0  0
 11 90  1  0  0  0
 12 13  2  0  0  0
 12 91  1  0  0  0
 13 14  1  0  0  0
 13 31  1  0  0  0
 14 15  2  0  0  0
 14 92  1  0  0  0
 15 93  1  0  0  0
 16 17  2  0  0  0
 16 21  1  0  0  0
 16 31  1  0  0  0
 17 18  1  0  0  0
 17 94  1  0  0  0
 18 19  2  0  0  0
 18 95  1  0  0  0
 19 20  1  0  0  0
 19 24  1  0  0  0
 20 21  2  0  0  0
 20 96  1  0  0  0
 21 23  1  0  0  0
 22 28  1  0  0  0
 22 32  2  0  0  0
 26 27  1  0  0  0
 28 97  1  0  0  0
 28 98  1  0  0  0
 29 99  1  0  0  0
 29100  1  0  0  0
 33 34  1  0  0  0
 33 66  1  0  0  0
 33 70  2  0  0  0
 34 36  1  0  0  0
 34 59  1  0  0  0
 34101  1  0  0  0
 35 44  2  0  0  0
 35 45  1  0  0  0
 35 68  1  0  0  0
 36 56  1  0  0  0
 36102  1  0  0  0
 37 39  1  0  0  0
 37 47  1  0  0  0
 37 66  1  0  0  0
 37103  1  0  0  0
 38 43  2  0  0  0
 38 46  1  0  0  0
 38 47  1  0  0  0
 39 64  1  0  0  0
 39 67  2  0  0  0
 40 52  1  0  0  0
 40 53  2  0  0  0
 40 58  1  0  0  0
 41104  1  0  0  0
 41105  1  0  0  0
 41106  1  0  0  0
 41 48  1  0  0  0
 42 43  1  0  0  0
 42 66  1  0  0  0
 42107  1  0  0  0
 42108  1  0  0  0
 43 44  1  0  0  0
 44109  1  0  0  0
 45 46  2  0  0  0
 45110  1  0  0  0
 46111  1  0  0  0
 47112  1  0  0  0
 47113  1  0  0  0
 48 56  1  0  0  0
 48 65  1  0  0  0
 48114  1  0  0  0
 49 50  1  0  0  0
 49 53  1  0  0  0
 49 64  1  0  0  0
 49115  1  0  0  0
 50 51  1  0  0  0
 50116  1  0  0  0
 50117  1  0  0  0
 51 52  1  0  0  0
 51118  1  0  0  0
 51119  1  0  0  0
 52120  1  0  0  0
 52121  1  0  0  0
 53 54  1  0  0  0
 54 55  2  0  0  0
 54122  1  0  0  0
 55 57  1  0  0  0
 55123  1  0  0  0
 56 69  2  0  0  0
 57 58  2  0  0  0
 57124  1  0  0  0
 58125  1  0  0  0
 59 60  1  0  0  0
 59 61  1  0  0  0
 59 62  1  0  0  0
 60126  1  0  0  0
 60127  1  0  0  0
 60128  1  0  0  0
 61129  1  0  0  0
 61130  1  0  0  0
 61131  1  0  0  0
 62132  1  0  0  0
 62133  1  0  0  0
 62134  1  0  0  0
 63 65  1  0  0  0
 63135  1  0  0  0
 63136  1  0  0  0
 63137  1  0  0  0
 64138  1  0  0  0
 65139  1  0  0  0
 68 75  1  0  0  0
 71 72  2  0  0  0
 71 73  1  0  0  0
 71140  1  0  0  0
 72 78  1  0  0  0
 72141  1  0  0  0
 73 75  1  0  0  0
 73 79  2  0  0  0
 74 76  1  0  0  0
 74 78  2  0  0  0
 74 79  1  0  0  0
 75142  1  0  0  0
 75143  1  0  0  0
 76 77  1  0  0  0
 76144  1  0  0  0
 76145  1  0  0  0
 77 80  1  0  0  0
 77146  1  0  0  0
 77147  1  0  0  0
 80148  1  0  0  0
M  ISO  4   1 100  68 101  75 101  80 100
M  END
> <chiral flag>
0

> <version>
0

> <s_m_source_file>
/data/baiqing/PycharmProjects/Reinvent-master-3.2/result/LINK_invent/BTK/process_docking_weight1_custom_sum_contain_oxygen_bond_distance_aromatic_linkinvent_7_9_3/rearranged_h_0073.sdf

> <i_m_source_file_index>
100

> <r_mmod_Potential_Energy-OPLS-2005>
205.927459716797

> <r_mmod_Stretch_Energy-OPLS-2005>
312.799987792969

> <r_mmod_Bend_Energy-OPLS-2005>
272.630889892578

> <r_mmod_Torsional_Energy-OPLS-2005>
214.925109863281

> <r_mmod_Improper_Torsional_Energy-OPLS-2005>
4.45555639266968

> <r_mmod_Van_der_Waal_Energy-OPLS-2005>
135.93977355957

> <r_mmod_Electrostatic_Energy-OPLS-2005>
-723.51953125

> <r_mmod_Solvation_Energy-OPLS-2005>
-249.98908996582

> <b_mmod_Minimization_Converged-OPLS-2005>
0

> <r_mmod_RMS_Derivative-OPLS-2005>
1.84794938564301

$$$$
