0
                    3D
 Structure written by MMmdl.
166174  0  0  1  0            999 V2000
  -30.6130  -14.7005   20.4871 C   0  0  0  0  0  0
  -30.4302  -12.4294   19.4796 C   0  0  0  0  0  0
  -29.5115  -12.5186   18.2412 C   0  0  0  0  0  0
  -28.0380  -12.3355   18.6511 C   0  0  0  0  0  0
  -27.6456  -13.2268   19.8590 C   0  0  2  0  0  0
  -28.6835  -13.1282   21.0002 C   0  0  0  0  0  0
  -25.2511  -13.8190   20.5702 C   0  0  0  0  0  0
  -24.1796  -13.0446   20.9218 C   0  0  0  0  0  0
  -24.6375  -11.6919   20.8749 C   0  0  0  0  0  0
  -23.9064  -10.4299   21.0410 C   0  0  0  0  0  0
  -24.3613   -9.4209   21.9188 C   0  0  0  0  0  0
  -23.6285   -8.2242   22.0757 C   0  0  0  0  0  0
  -22.4267   -8.0281   21.3549 C   0  0  0  0  0  0
  -21.9903   -9.0260   20.4659 C   0  0  0  0  0  0
  -22.7232  -10.2136   20.3057 C   0  0  0  0  0  0
  -21.6849   -6.0738   22.5283 C   0  0  0  0  0  0
  -21.4013   -6.5637   23.8221 C   0  0  0  0  0  0
  -21.3665   -5.6788   24.9183 C   0  0  0  0  0  0
  -21.6039   -4.3048   24.7230 C   0  0  0  0  0  0
  -21.8816   -3.8149   23.4351 C   0  0  0  0  0  0
  -21.9192   -4.6966   22.3411 C   0  0  0  0  0  0
  -22.7822  -13.5238   21.1860 C   0  0  0  0  0  0
  -22.1662   -4.2161   21.0988 F   0  0  0  0  0  0
  -21.5633   -3.4527   25.7742 F   0  0  0  0  0  0
  -29.9949  -13.4732   20.4354 N   0  0  0  0  0  0
  -26.2939  -12.9388   20.3290 N   0  0  0  0  0  0
  -25.9300  -11.6542   20.5737 N   0  0  0  0  0  0
  -22.0437  -12.8258   22.0419 N   0  0  0  0  0  0
  -25.4226  -15.1904   20.4127 N   0  0  0  0  0  0
  -31.7796  -14.8239   20.1033 O   0  0  0  0  0  0
  -21.6634   -6.8868   21.4244 O   0  0  0  0  0  0
  -22.3527  -14.5547   20.6695 O   0  0  0  0  0  0
  -24.6309  -31.8581   23.1994 C   0  0  0  0  0  0
  -25.9143  -32.4775   23.8332 C   0  0  1  0  0  0
  -27.2174  -27.2664   20.1296 C   0  0  0  0  0  0
  -25.5950  -33.8574   24.2269 N   0  0  0  0  0  0
  -23.4267  -30.4817   21.5421 C   0  0  2  0  0  0
  -24.8747  -28.9357   20.1055 C   0  0  0  0  0  0
  -22.7498  -29.4626   22.4908 C   0  0  0  0  0  0
  -18.0291  -28.1421   22.8495 C   0  0  0  0  0  0
  -24.1490  -36.7276   23.2636 C   0  0  0  0  0  0
  -25.9724  -30.7720   21.3812 C   0  0  0  0  0  0
  -26.0434  -29.3960   20.7226 C   0  0  0  0  0  0
  -27.2141  -28.5722   20.7267 C   0  0  0  0  0  0
  -26.0295  -26.8873   19.4593 C   0  0  0  0  0  0
  -24.8737  -27.6908   19.4623 C   0  0  0  0  0  0
  -23.6436  -29.8188   20.1565 C   0  0  0  0  0  0
  -25.4124  -36.3086   24.0323 C   0  0  1  0  0  0
  -20.5897  -28.3732   23.1274 C   0  0  2  0  0  0
  -20.6780  -26.9448   22.5419 C   0  0  0  0  0  0
  -19.5754  -26.6407   21.5228 C   0  0  0  0  0  0
  -18.1930  -26.7959   22.1640 C   0  0  0  0  0  0
  -19.1545  -28.8888   23.2878 C   0  0  0  0  0  0
  -18.9467  -30.1486   23.8904 C   0  0  0  0  0  0
  -17.6468  -30.6613   24.0576 C   0  0  0  0  0  0
  -25.9066  -34.9454   23.5094 C   0  0  0  0  0  0
  -16.5359  -29.9119   23.6343 C   0  0  0  0  0  0
  -16.7278  -28.6536   23.0365 C   0  0  0  0  0  0
  -26.4508  -31.6596   25.0715 C   0  0  0  0  0  0
  -25.3713  -31.3753   26.1420 C   0  0  0  0  0  0
  -27.0356  -30.3010   24.6218 C   0  0  0  0  0  0
  -27.6077  -32.4328   25.7481 C   0  0  0  0  0  0
  -27.5585  -37.1803   24.8468 C   0  0  0  0  0  0
  -21.4206  -29.3068   22.3649 N   0  0  0  0  0  0
  -26.4304  -37.3782   23.9402 N   0  0  0  0  0  0
  -24.6949  -31.0553   22.0968 N   0  0  0  0  0  0
  -23.4200  -28.8174   23.3005 O   0  0  0  0  0  0
  -28.3197  -26.3828   20.2363 O   0  0  0  0  0  0
  -26.5632  -34.8920   22.4666 O   0  0  0  0  0  0
  -23.5462  -32.1406   23.7291 O   0  0  0  0  0  0
  -29.1143  -22.1761   18.6101 C   0  0  0  0  0  0
  -29.3277  -20.9099   18.0491 C   0  0  0  0  0  0
  -29.0070  -22.2835   20.0040 C   0  0  0  0  0  0
  -29.3740  -19.9069   20.1241 C   0  0  0  0  0  0
  -29.4332  -20.7276   16.5505 C   0  0  0  0  0  0
  -30.3194  -24.1438   21.1084 C   0  0  0  0  0  0
  -28.0241  -23.5968   21.9638 C   0  0  0  0  0  0
  -27.7586  -18.1202   20.9219 C   0  0  0  0  0  0
  -29.7519  -18.6802   22.3430 C   0  0  0  0  0  0
  -30.0960  -17.2506   20.2846 C   0  0  0  0  0  0
  -28.2511  -24.9360   19.8187 C   0  0  0  0  0  0
  -28.8973  -23.7271   20.6981 C   0  0  0  0  0  0
  -29.2523  -18.5026   20.8953 C   0  0  0  0  0  0
  -29.4377  -19.8010   18.8015 N   0  0  0  0  0  0
  -29.1469  -21.1115   20.7385 N   0  0  0  0  0  0
  -29.8391  -15.8126   20.7464 N   0  0  0  0  0  0
  -31.4735  -12.5462   19.1816 H   0  0  0  0  0  0
  -30.3652  -11.4417   19.9391 H   0  0  0  0  0  0
  -29.7928  -11.7642   17.5055 H   0  0  0  0  0  0
  -29.6428  -13.4881   17.7551 H   0  0  0  0  0  0
  -27.8968  -11.2860   18.9110 H   0  0  0  0  0  0
  -27.3800  -12.5294   17.8032 H   0  0  0  0  0  0
  -27.6522  -14.2541   19.4924 H   0  0  0  0  0  0
  -28.7055  -12.1206   21.4194 H   0  0  0  0  0  0
  -28.4172  -13.7926   21.8236 H   0  0  0  0  0  0
  -25.2744   -9.5696   22.4786 H   0  0  0  0  0  0
  -24.0002   -7.4627   22.7461 H   0  0  0  0  0  0
  -21.0841   -8.8765   19.8962 H   0  0  0  0  0  0
  -22.3674  -10.9677   19.6177 H   0  0  0  0  0  0
  -21.1998   -7.6140   23.9730 H   0  0  0  0  0  0
  -21.1490   -6.0513   25.9086 H   0  0  0  0  0  0
  -22.0590   -2.7613   23.2842 H   0  0  0  0  0  0
  -22.4020  -11.9932   22.4849 H   0  0  0  0  0  0
  -21.1063  -13.1327   22.2605 H   0  0  0  0  0  0
  -24.6515  -15.8399   20.5142 H   0  0  0  0  0  0
  -26.2638  -15.6282   20.0638 H   0  0  0  0  0  0
  -26.7205  -32.5433   23.1068 H   0  0  0  0  0  0
  -25.0105  -33.9718   25.0418 H   0  0  0  0  0  0
  -22.7231  -31.3045   21.3983 H   0  0  0  0  0  0
  -23.3767  -35.9595   23.3318 H   0  0  0  0  0  0
  -24.3564  -36.8878   22.2044 H   0  0  0  0  0  0
  -23.7225  -37.6476   23.6642 H   0  0  0  0  0  0
  -26.1149  -31.5338   20.6139 H   0  0  0  0  0  0
  -26.8484  -30.8180   22.0155 H   0  0  0  0  0  0
  -28.1067  -28.9187   21.2281 H   0  0  0  0  0  0
  -25.9415  -25.9580   18.9228 H   0  0  0  0  0  0
  -23.9829  -27.3414   18.9594 H   0  0  0  0  0  0
  -23.7660  -30.5948   19.4009 H   0  0  0  0  0  0
  -22.7629  -29.2505   19.8527 H   0  0  0  0  0  0
  -25.1309  -36.1937   25.0816 H   0  0  0  0  0  0
  -21.0001  -28.3315   24.1390 H   0  0  0  0  0  0
  -20.5724  -26.2331   23.3623 H   0  0  0  0  0  0
  -21.6644  -26.7498   22.1185 H   0  0  0  0  0  0
  -19.6914  -25.6314   21.1265 H   0  0  0  0  0  0
  -19.6685  -27.3207   20.6748 H   0  0  0  0  0  0
  -17.4206  -26.6721   21.4036 H   0  0  0  0  0  0
  -18.0322  -26.0106   22.9040 H   0  0  0  0  0  0
  -19.7937  -30.7301   24.2279 H   0  0  0  0  0  0
  -17.5022  -31.6294   24.5191 H   0  0  0  0  0  0
  -15.5362  -30.3035   23.7657 H   0  0  0  0  0  0
  -15.8671  -28.0855   22.7097 H   0  0  0  0  0  0
  -24.5894  -30.7109   25.7719 H   0  0  0  0  0  0
  -24.8896  -32.2928   26.4816 H   0  0  0  0  0  0
  -25.8004  -30.8931   27.0212 H   0  0  0  0  0  0
  -26.2943  -29.6751   24.1241 H   0  0  0  0  0  0
  -27.4022  -29.7290   25.4753 H   0  0  0  0  0  0
  -27.8828  -30.4272   23.9472 H   0  0  0  0  0  0
  -27.2714  -33.3644   26.2045 H   0  0  0  0  0  0
  -28.3892  -32.6869   25.0306 H   0  0  0  0  0  0
  -28.0743  -31.8457   26.5404 H   0  0  0  0  0  0
  -28.2626  -38.0082   24.7531 H   0  0  0  0  0  0
  -28.1066  -36.2624   24.6301 H   0  0  0  0  0  0
  -27.2296  -37.1458   25.8868 H   0  0  0  0  0  0
  -20.9398  -29.8750   21.6817 H   0  0  0  0  0  0
  -26.0190  -38.2857   24.1410 H   0  0  0  0  0  0
  -29.0626  -23.0378   17.9625 H   0  0  0  0  0  0
  -30.0082  -21.5396   16.1056 H   0  0  0  0  0  0
  -28.4391  -20.7259   16.1033 H   0  0  0  0  0  0
  -29.9222  -19.7872   16.2944 H   0  0  0  0  0  0
  -30.7733  -23.4086   21.7755 H   0  0  0  0  0  0
  -30.3225  -25.1047   21.6215 H   0  0  0  0  0  0
  -30.9628  -24.2324   20.2331 H   0  0  0  0  0  0
  -28.4558  -22.8914   22.6747 H   0  0  0  0  0  0
  -27.0235  -23.2399   21.7195 H   0  0  0  0  0  0
  -27.9199  -24.5517   22.4781 H   0  0  0  0  0  0
  -27.1666  -18.9140   21.3788 H   0  0  0  0  0  0
  -27.5721  -17.2071   21.4857 H   0  0  0  0  0  0
  -27.3763  -17.9760   19.9109 H   0  0  0  0  0  0
  -29.1797  -19.4434   22.8717 H   0  0  0  0  0  0
  -30.7956  -18.9928   22.3531 H   0  0  0  0  0  0
  -29.6769  -17.7540   22.9140 H   0  0  0  0  0  0
  -31.1602  -17.4661   20.3901 H   0  0  0  0  0  0
  -29.9246  -17.2284   19.2081 H   0  0  0  0  0  0
  -27.2291  -24.6120   19.6527 H   0  0  0  0  0  0
  -28.7172  -24.9405   18.8349 H   0  0  0  0  0  0
  -28.9109  -15.6207   21.0922 H   0  0  0  0  0  0
  1 25  1  0  0  0
  1 30  2  0  0  0
  1 86  1  0  0  0
  2  3  1  0  0  0
  2 25  1  0  0  0
  2 87  1  0  0  0
  2 88  1  0  0  0
  3  4  1  0  0  0
  3 89  1  0  0  0
  3 90  1  0  0  0
  4  5  1  0  0  0
  4 91  1  0  0  0
  4 92  1  0  0  0
  5  6  1  0  0  0
  5 26  1  0  0  0
  5 93  1  0  0  0
  6 25  1  0  0  0
  6 94  1  0  0  0
  6 95  1  0  0  0
  7  8  2  0  0  0
  7 26  1  0  0  0
  7 29  1  0  0  0
  8  9  1  0  0  0
  8 22  1  0  0  0
  9 10  1  0  0  0
  9 27  2  0  0  0
 10 11  2  0  0  0
 10 15  1  0  0  0
 11 12  1  0  0  0
 11 96  1  0  0  0
 12 13  2  0  0  0
 12 97  1  0  0  0
 13 14  1  0  0  0
 13 31  1  0  0  0
 14 15  2  0  0  0
 14 98  1  0  0  0
 15 99  1  0  0  0
 16 17  2  0  0  0
 16 21  1  0  0  0
 16 31  1  0  0  0
 17 18  1  0  0  0
 17100  1  0  0  0
 18 19  2  0  0  0
 18101  1  0  0  0
 19 20  1  0  0  0
 19 24  1  0  0  0
 20 21  2  0  0  0
 20102  1  0  0  0
 21 23  1  0  0  0
 22 28  1  0  0  0
 22 32  2  0  0  0
 26 27  1  0  0  0
 28103  1  0  0  0
 28104  1  0  0  0
 29105  1  0  0  0
 29106  1  0  0  0
 33 34  1  0  0  0
 33 66  1  0  0  0
 33 70  2  0  0  0
 34 36  1  0  0  0
 34 59  1  0  0  0
 34107  1  0  0  0
 35 44  2  0  0  0
 35 45  1  0  0  0
 35 68  1  0  0  0
 36 56  1  0  0  0
 36108  1  0  0  0
 37 39  1  0  0  0
 37 47  1  0  0  0
 37 66  1  0  0  0
 37109  1  0  0  0
 38 43  2  0  0  0
 38 46  1  0  0  0
 38 47  1  0  0  0
 39 64  1  0  0  0
 39 67  2  0  0  0
 40 52  1  0  0  0
 40 53  2  0  0  0
 40 58  1  0  0  0
 41110  1  0  0  0
 41111  1  0  0  0
 41112  1  0  0  0
 41 48  1  0  0  0
 42 43  1  0  0  0
 42 66  1  0  0  0
 42113  1  0  0  0
 42114  1  0  0  0
 43 44  1  0  0  0
 44115  1  0  0  0
 45 46  2  0  0  0
 45116  1  0  0  0
 46117  1  0  0  0
 47118  1  0  0  0
 47119  1  0  0  0
 48 56  1  0  0  0
 48 65  1  0  0  0
 48120  1  0  0  0
 49 50  1  0  0  0
 49 53  1  0  0  0
 49 64  1  0  0  0
 49121  1  0  0  0
 50 51  1  0  0  0
 50122  1  0  0  0
 50123  1  0  0  0
 51 52  1  0  0  0
 51124  1  0  0  0
 51125  1  0  0  0
 52126  1  0  0  0
 52127  1  0  0  0
 53 54  1  0  0  0
 54 55  2  0  0  0
 54128  1  0  0  0
 55 57  1  0  0  0
 55129  1  0  0  0
 56 69  2  0  0  0
 57 58  2  0  0  0
 57130  1  0  0  0
 58131  1  0  0  0
 59 60  1  0  0  0
 59 61  1  0  0  0
 59 62  1  0  0  0
 60132  1  0  0  0
 60133  1  0  0  0
 60134  1  0  0  0
 61135  1  0  0  0
 61136  1  0  0  0
 61137  1  0  0  0
 62138  1  0  0  0
 62139  1  0  0  0
 62140  1  0  0  0
 63 65  1  0  0  0
 63141  1  0  0  0
 63142  1  0  0  0
 63143  1  0  0  0
 64144  1  0  0  0
 65145  1  0  0  0
 68 81  1  0  0  0
 71 72  2  0  0  0
 71 73  1  0  0  0
 71146  1  0  0  0
 72 75  1  0  0  0
 72 84  1  0  0  0
 73 82  1  0  0  0
 73 85  2  0  0  0
 74 83  1  0  0  0
 74 84  2  0  0  0
 74 85  1  0  0  0
 75147  1  0  0  0
 75148  1  0  0  0
 75149  1  0  0  0
 76150  1  0  0  0
 76151  1  0  0  0
 76152  1  0  0  0
 76 82  1  0  0  0
 77 82  1  0  0  0
 77153  1  0  0  0
 77154  1  0  0  0
 77155  1  0  0  0
 78156  1  0  0  0
 78157  1  0  0  0
 78158  1  0  0  0
 78 83  1  0  0  0
 79 83  1  0  0  0
 79159  1  0  0  0
 79160  1  0  0  0
 79161  1  0  0  0
 80 83  1  0  0  0
 80 86  1  0  0  0
 80162  1  0  0  0
 80163  1  0  0  0
 81 82  1  0  0  0
 81164  1  0  0  0
 81165  1  0  0  0
 86166  1  0  0  0
M  ISO  4   1 100  68 101  81 101  86 100
M  END
> <chiral flag>
0

> <version>
0

> <s_m_source_file>
/data/baiqing/PycharmProjects/Reinvent-master-3.2/result/LINK_invent/BTK/process_docking_weight1_custom_sum_contain_oxygen_bond_distance_aromatic_linkinvent_7_9_3/rearranged_h_0071.sdf

> <i_m_source_file_index>
1

> <r_mmod_Potential_Energy-OPLS-2005>
-313.321258544922

> <r_mmod_Stretch_Energy-OPLS-2005>
126.360397338867

> <r_mmod_Bend_Energy-OPLS-2005>
174.286193847656

> <r_mmod_Torsional_Energy-OPLS-2005>
202.262496948242

> <r_mmod_Improper_Torsional_Energy-OPLS-2005>
8.52443218231201

> <r_mmod_Van_der_Waal_Energy-OPLS-2005>
148.092010498047

> <r_mmod_Electrostatic_Energy-OPLS-2005>
-830.535949707031

> <r_mmod_Solvation_Energy-OPLS-2005>
-216.984237670898

> <b_mmod_Minimization_Converged-OPLS-2005>
0

> <r_mmod_RMS_Derivative-OPLS-2005>
2.30110645294189

$$$$
1
                    3D
 Structure written by MMmdl.
157165  0  0  1  0            999 V2000
  -30.5148  -14.9835   20.4196 C   0  0  0  0  0  0
  -30.4408  -12.6187   19.4869 C   0  0  0  0  0  0
  -29.5175  -12.5353   18.2487 C   0  0  0  0  0  0
  -28.0528  -12.3130   18.6720 C   0  0  0  0  0  0
  -27.6229  -13.2494   19.8294 C   0  0  2  0  0  0
  -28.6672  -13.2893   20.9631 C   0  0  0  0  0  0
  -25.2448  -13.8211   20.5750 C   0  0  0  0  0  0
  -24.1753  -13.0409   20.9226 C   0  0  0  0  0  0
  -24.6376  -11.6908   20.8738 C   0  0  0  0  0  0
  -23.9055  -10.4276   21.0396 C   0  0  0  0  0  0
  -24.3612   -9.4194   21.9171 C   0  0  0  0  0  0
  -23.6276   -8.2237   22.0744 C   0  0  0  0  0  0
  -22.4259   -8.0276   21.3533 C   0  0  0  0  0  0
  -21.9910   -9.0244   20.4639 C   0  0  0  0  0  0
  -22.7235  -10.2117   20.3044 C   0  0  0  0  0  0
  -21.6858   -6.0721   22.5270 C   0  0  0  0  0  0
  -21.4017   -6.5634   23.8201 C   0  0  0  0  0  0
  -21.3657   -5.6789   24.9169 C   0  0  0  0  0  0
  -21.6045   -4.3047   24.7223 C   0  0  0  0  0  0
  -21.8819   -3.8137   23.4342 C   0  0  0  0  0  0
  -21.9190   -4.6950   22.3394 C   0  0  0  0  0  0
  -22.7789  -13.5192   21.1870 C   0  0  0  0  0  0
  -22.1656   -4.2137   21.0970 F   0  0  0  0  0  0
  -21.5626   -3.4528   25.7730 F   0  0  0  0  0  0
  -29.9306  -13.7181   20.3542 N   0  0  0  0  0  0
  -26.2855  -12.9444   20.3233 N   0  0  0  0  0  0
  -25.9305  -11.6559   20.5708 N   0  0  0  0  0  0
  -22.0434  -12.8175   22.0429 N   0  0  0  0  0  0
  -25.4102  -15.1929   20.4213 N   0  0  0  0  0  0
  -31.7310  -15.0472   20.2108 O   0  0  0  0  0  0
  -21.6626   -6.8861   21.4228 O   0  0  0  0  0  0
  -22.3479  -14.5498   20.6714 O   0  0  0  0  0  0
  -24.6485  -31.8405   23.1853 C   0  0  0  0  0  0
  -25.9254  -32.4676   23.8230 C   0  0  1  0  0  0
  -27.2027  -27.1090   20.1618 C   0  0  0  0  0  0
  -25.5998  -33.8472   24.2172 N   0  0  0  0  0  0
  -23.4489  -30.4580   21.5370 C   0  0  2  0  0  0
  -24.8900  -28.8781   20.1158 C   0  0  0  0  0  0
  -22.7582  -29.4517   22.4896 C   0  0  0  0  0  0
  -18.0295  -28.1361   22.8438 C   0  0  0  0  0  0
  -24.1501  -36.7249   23.2633 C   0  0  0  0  0  0
  -26.0042  -30.7087   21.3826 C   0  0  0  0  0  0
  -26.0714  -29.3152   20.7316 C   0  0  0  0  0  0
  -27.2321  -28.4479   20.7323 C   0  0  0  0  0  0
  -25.9983  -26.7815   19.5042 C   0  0  0  0  0  0
  -24.8657  -27.6247   19.4872 C   0  0  0  0  0  0
  -23.6696  -29.7857   20.1577 C   0  0  0  0  0  0
  -25.4129  -36.3039   24.0313 C   0  0  1  0  0  0
  -20.5903  -28.3721   23.1223 C   0  0  2  0  0  0
  -20.6807  -26.9429   22.5379 C   0  0  0  0  0  0
  -19.5795  -26.6360   21.5179 C   0  0  0  0  0  0
  -18.1953  -26.7908   22.1571 C   0  0  0  0  0  0
  -19.1552  -28.8848   23.2817 C   0  0  0  0  0  0
  -18.9471  -30.1436   23.8858 C   0  0  0  0  0  0
  -17.6479  -30.6576   24.0511 C   0  0  0  0  0  0
  -25.9091  -34.9407   23.5062 C   0  0  0  0  0  0
  -16.5365  -29.9064   23.6332 C   0  0  0  0  0  0
  -16.7274  -28.6473   23.0358 C   0  0  0  0  0  0
  -26.4557  -31.6530   25.0676 C   0  0  0  0  0  0
  -25.3716  -31.3665   26.1359 C   0  0  0  0  0  0
  -27.0443  -30.2944   24.6253 C   0  0  0  0  0  0
  -27.6087  -32.4305   25.7456 C   0  0  0  0  0  0
  -27.5587  -37.1794   24.8472 C   0  0  0  0  0  0
  -21.4271  -29.3038   22.3619 N   0  0  0  0  0  0
  -26.4306  -37.3736   23.9398 N   0  0  0  0  0  0
  -24.7220  -31.0236   22.0918 N   0  0  0  0  0  0
  -23.4214  -28.8078   23.3064 O   0  0  0  0  0  0
  -28.2469  -26.1084   20.1852 O   0  0  0  0  0  0
  -26.5667  -34.8913   22.4640 O   0  0  0  0  0  0
  -23.5596  -32.1302   23.7058 O   0  0  0  0  0  0
  -29.0866  -22.3115   22.4837 C   0  0  0  0  0  0
  -29.2165  -21.2184   23.2847 C   0  0  0  0  0  0
  -29.1418  -20.4664   21.1634 C   0  0  0  0  0  0
  -29.6714  -19.4573   18.8487 C   0  0  0  0  0  0
  -27.6912  -18.6374   20.1034 C   0  0  0  0  0  0
  -28.7026  -23.1297   20.1467 C   0  0  0  0  0  0
  -30.0272  -17.7091   20.7788 C   0  0  0  0  0  0
  -27.9726  -24.6213   20.5994 C   0  0  0  0  0  0
  -29.1533  -19.0919   20.2476 C   0  0  0  0  0  0
  -28.9382  -21.9074   21.1705 N   0  0  0  0  0  0
  -29.2213  -20.1429   22.4617 N   0  3  0  0  0  0
  -29.7171  -16.1666   20.5227 N   0  0  0  0  0  0
  -31.4692  -12.7991   19.1683 H   0  0  0  0  0  0
  -30.4556  -11.6727   20.0288 H   0  0  0  0  0  0
  -29.8440  -11.7336   17.5850 H   0  0  0  0  0  0
  -29.5973  -13.4589   17.6746 H   0  0  0  0  0  0
  -27.9583  -11.2748   18.9877 H   0  0  0  0  0  0
  -27.3893  -12.4322   17.8161 H   0  0  0  0  0  0
  -27.5783  -14.2486   19.3932 H   0  0  0  0  0  0
  -28.7680  -12.3134   21.4406 H   0  0  0  0  0  0
  -28.3638  -13.9896   21.7437 H   0  0  0  0  0  0
  -25.2753   -9.5668   22.4755 H   0  0  0  0  0  0
  -23.9972   -7.4637   22.7475 H   0  0  0  0  0  0
  -21.0842   -8.8763   19.8954 H   0  0  0  0  0  0
  -22.3686  -10.9653   19.6157 H   0  0  0  0  0  0
  -21.2015   -7.6144   23.9698 H   0  0  0  0  0  0
  -21.1485   -6.0520   25.9071 H   0  0  0  0  0  0
  -22.0604   -2.7597   23.2842 H   0  0  0  0  0  0
  -22.4063  -11.9845   22.4820 H   0  0  0  0  0  0
  -21.1039  -13.1193   22.2596 H   0  0  0  0  0  0
  -24.6389  -15.8394   20.5386 H   0  0  0  0  0  0
  -26.2471  -15.6384   20.0728 H   0  0  0  0  0  0
  -26.7331  -32.5293   23.0946 H   0  0  0  0  0  0
  -25.0120  -33.9531   25.0325 H   0  0  0  0  0  0
  -22.7529  -31.2841   21.3855 H   0  0  0  0  0  0
  -23.3782  -35.9574   23.3312 H   0  0  0  0  0  0
  -24.3531  -36.8863   22.2035 H   0  0  0  0  0  0
  -23.7248  -37.6442   23.6668 H   0  0  0  0  0  0
  -26.1586  -31.4613   20.6079 H   0  0  0  0  0  0
  -26.8745  -30.7569   22.0253 H   0  0  0  0  0  0
  -28.1349  -28.7758   21.2276 H   0  0  0  0  0  0
  -25.9128  -25.8242   19.0105 H   0  0  0  0  0  0
  -23.9633  -27.2859   18.9973 H   0  0  0  0  0  0
  -23.8054  -30.5567   19.3981 H   0  0  0  0  0  0
  -22.7815  -29.2275   19.8548 H   0  0  0  0  0  0
  -25.1325  -36.1851   25.0806 H   0  0  0  0  0  0
  -20.9939  -28.3325   24.1365 H   0  0  0  0  0  0
  -20.5700  -26.2333   23.3581 H   0  0  0  0  0  0
  -21.6682  -26.7452   22.1177 H   0  0  0  0  0  0
  -19.6959  -25.6257   21.1228 H   0  0  0  0  0  0
  -19.6735  -27.3150   20.6684 H   0  0  0  0  0  0
  -17.4234  -26.6606   21.3970 H   0  0  0  0  0  0
  -18.0377  -26.0036   22.8962 H   0  0  0  0  0  0
  -19.7954  -30.7213   24.2254 H   0  0  0  0  0  0
  -17.5055  -31.6262   24.5107 H   0  0  0  0  0  0
  -15.5361  -30.2950   23.7714 H   0  0  0  0  0  0
  -15.8662  -28.0763   22.7154 H   0  0  0  0  0  0
  -24.5961  -30.6935   25.7651 H   0  0  0  0  0  0
  -24.8778  -32.2797   26.4707 H   0  0  0  0  0  0
  -25.8002  -30.8889   27.0186 H   0  0  0  0  0  0
  -26.3063  -29.6615   24.1314 H   0  0  0  0  0  0
  -27.4142  -29.7289   25.4808 H   0  0  0  0  0  0
  -27.8936  -30.4187   23.9535 H   0  0  0  0  0  0
  -27.2747  -33.3711   26.1870 H   0  0  0  0  0  0
  -28.4007  -32.6671   25.0333 H   0  0  0  0  0  0
  -28.0666  -31.8503   26.5495 H   0  0  0  0  0  0
  -28.2635  -38.0070   24.7556 H   0  0  0  0  0  0
  -28.1093  -36.2617   24.6340 H   0  0  0  0  0  0
  -27.2291  -37.1464   25.8870 H   0  0  0  0  0  0
  -20.9535  -29.8723   21.6739 H   0  0  0  0  0  0
  -26.0202  -38.2824   24.1387 H   0  0  0  0  0  0
  -29.0773  -23.3414   22.8033 H   0  0  0  0  0  0
  -29.3126  -21.1259   24.3588 H   0  0  0  0  0  0
  -29.0872  -20.2646   18.4055 H   0  0  0  0  0  0
  -29.6203  -18.6061   18.1671 H   0  0  0  0  0  0
  -30.7091  -19.7886   18.8930 H   0  0  0  0  0  0
  -27.0611  -19.4313   19.6986 H   0  0  0  0  0  0
  -27.2704  -18.3419   21.0650 H   0  0  0  0  0  0
  -27.6024  -17.7824   19.4328 H   0  0  0  0  0  0
  -29.6888  -23.3658   19.7459 H   0  0  0  0  0  0
  -28.1420  -22.7209   19.3057 H   0  0  0  0  0  0
  -30.0177  -17.7419   21.8666 H   0  0  0  0  0  0
  -31.0784  -17.8667   20.5300 H   0  0  0  0  0  0
  -28.0655  -24.7112   21.6758 H   0  0  0  0  0  0
  -26.9046  -24.4474   20.4813 H   0  0  0  0  0  0
  -29.2971  -19.1914   22.7984 H   0  0  0  0  0  0
  -28.7307  -15.9564   20.5646 H   0  0  0  0  0  0
  1 25  1  0  0  0
  1 30  2  0  0  0
  1 82  1  0  0  0
  2  3  1  0  0  0
  2 25  1  0  0  0
  2 83  1  0  0  0
  2 84  1  0  0  0
  3  4  1  0  0  0
  3 85  1  0  0  0
  3 86  1  0  0  0
  4  5  1  0  0  0
  4 87  1  0  0  0
  4 88  1  0  0  0
  5  6  1  0  0  0
  5 26  1  0  0  0
  5 89  1  0  0  0
  6 25  1  0  0  0
  6 90  1  0  0  0
  6 91  1  0  0  0
  7  8  2  0  0  0
  7 26  1  0  0  0
  7 29  1  0  0  0
  8  9  1  0  0  0
  8 22  1  0  0  0
  9 10  1  0  0  0
  9 27  2  0  0  0
 10 11  2  0  0  0
 10 15  1  0  0  0
 11 12  1  0  0  0
 11 92  1  0  0  0
 12 13  2  0  0  0
 12 93  1  0  0  0
 13 14  1  0  0  0
 13 31  1  0  0  0
 14 15  2  0  0  0
 14 94  1  0  0  0
 15 95  1  0  0  0
 16 17  2  0  0  0
 16 21  1  0  0  0
 16 31  1  0  0  0
 17 18  1  0  0  0
 17 96  1  0  0  0
 18 19  2  0  0  0
 18 97  1  0  0  0
 19 20  1  0  0  0
 19 24  1  0  0  0
 20 21  2  0  0  0
 20 98  1  0  0  0
 21 23  1  0  0  0
 22 28  1  0  0  0
 22 32  2  0  0  0
 26 27  1  0  0  0
 28 99  1  0  0  0
 28100  1  0  0  0
 29101  1  0  0  0
 29102  1  0  0  0
 33 34  1  0  0  0
 33 66  1  0  0  0
 33 70  2  0  0  0
 34 36  1  0  0  0
 34 59  1  0  0  0
 34103  1  0  0  0
 35 44  2  0  0  0
 35 45  1  0  0  0
 35 68  1  0  0  0
 36 56  1  0  0  0
 36104  1  0  0  0
 37 39  1  0  0  0
 37 47  1  0  0  0
 37 66  1  0  0  0
 37105  1  0  0  0
 38 43  2  0  0  0
 38 46  1  0  0  0
 38 47  1  0  0  0
 39 64  1  0  0  0
 39 67  2  0  0  0
 40 52  1  0  0  0
 40 53  2  0  0  0
 40 58  1  0  0  0
 41106  1  0  0  0
 41107  1  0  0  0
 41108  1  0  0  0
 41 48  1  0  0  0
 42 43  1  0  0  0
 42 66  1  0  0  0
 42109  1  0  0  0
 42110  1  0  0  0
 43 44  1  0  0  0
 44111  1  0  0  0
 45 46  2  0  0  0
 45112  1  0  0  0
 46113  1  0  0  0
 47114  1  0  0  0
 47115  1  0  0  0
 48 56  1  0  0  0
 48 65  1  0  0  0
 48116  1  0  0  0
 49 50  1  0  0  0
 49 53  1  0  0  0
 49 64  1  0  0  0
 49117  1  0  0  0
 50 51  1  0  0  0
 50118  1  0  0  0
 50119  1  0  0  0
 51 52  1  0  0  0
 51120  1  0  0  0
 51121  1  0  0  0
 52122  1  0  0  0
 52123  1  0  0  0
 53 54  1  0  0  0
 54 55  2  0  0  0
 54124  1  0  0  0
 55 57  1  0  0  0
 55125  1  0  0  0
 56 69  2  0  0  0
 57 58  2  0  0  0
 57126  1  0  0  0
 58127  1  0  0  0
 59 60  1  0  0  0
 59 61  1  0  0  0
 59 62  1  0  0  0
 60128  1  0  0  0
 60129  1  0  0  0
 60130  1  0  0  0
 61131  1  0  0  0
 61132  1  0  0  0
 61133  1  0  0  0
 62134  1  0  0  0
 62135  1  0  0  0
 62136  1  0  0  0
 63 65  1  0  0  0
 63137  1  0  0  0
 63138  1  0  0  0
 63139  1  0  0  0
 64140  1  0  0  0
 65141  1  0  0  0
 68 78  1  0  0  0
 71 72  2  0  0  0
 71 80  1  0  0  0
 71142  1  0  0  0
 72 81  1  0  0  0
 72143  1  0  0  0
 73 79  1  0  0  0
 73 80  1  0  0  0
 73 81  2  0  0  0
 74144  1  0  0  0
 74145  1  0  0  0
 74146  1  0  0  0
 74 79  1  0  0  0
 75 79  1  0  0  0
 75147  1  0  0  0
 75148  1  0  0  0
 75149  1  0  0  0
 76 78  1  0  0  0
 76 80  1  0  0  0
 76150  1  0  0  0
 76151  1  0  0  0
 77 79  1  0  0  0
 77 82  1  0  0  0
 77152  1  0  0  0
 77153  1  0  0  0
 78154  1  0  0  0
 78155  1  0  0  0
 81156  1  0  0  0
 82157  1  0  0  0
M  CHG  1  81   1
M  ISO  4   1 100  68 101  78 101  82 100
M  END
> <chiral flag>
0

> <version>
0

> <s_m_source_file>
/data/baiqing/PycharmProjects/Reinvent-master-3.2/result/LINK_invent/BTK/process_docking_weight1_custom_sum_contain_oxygen_bond_distance_aromatic_linkinvent_7_9_3/rearranged_h_0071.sdf

> <i_m_source_file_index>
2

> <r_mmod_Potential_Energy-OPLS-2005>
589.962646484375

> <r_mmod_Stretch_Energy-OPLS-2005>
321.65478515625

> <r_mmod_Bend_Energy-OPLS-2005>
343.965301513672

> <r_mmod_Torsional_Energy-OPLS-2005>
274.785858154297

> <r_mmod_Improper_Torsional_Energy-OPLS-2005>
4.81593370437622

> <r_mmod_Van_der_Waal_Energy-OPLS-2005>
109.663475036621

> <r_mmod_Electrostatic_Energy-OPLS-2005>
-238.207916259766

> <r_mmod_Solvation_Energy-OPLS-2005>
-445.807037353516

> <b_mmod_Minimization_Converged-OPLS-2005>
0

> <r_mmod_RMS_Derivative-OPLS-2005>
3.74389386177063

$$$$
2
                    3D
 Structure written by MMmdl.
170178  0  0  1  0            999 V2000
  -30.5963  -14.7180   20.6014 C   0  0  0  0  0  0
  -30.4504  -12.4740   19.4514 C   0  0  0  0  0  0
  -29.5146  -12.5436   18.2226 C   0  0  0  0  0  0
  -28.0388  -12.3496   18.6281 C   0  0  0  0  0  0
  -27.6477  -13.2187   19.8494 C   0  0  2  0  0  0
  -28.6853  -13.0774   20.9770 C   0  0  0  0  0  0
  -25.2552  -13.8164   20.5662 C   0  0  0  0  0  0
  -24.1828  -13.0428   20.9183 C   0  0  0  0  0  0
  -24.6402  -11.6901   20.8721 C   0  0  0  0  0  0
  -23.9072  -10.4287   21.0395 C   0  0  0  0  0  0
  -24.3623   -9.4207   21.9178 C   0  0  0  0  0  0
  -23.6299   -8.2242   22.0752 C   0  0  0  0  0  0
  -22.4281   -8.0279   21.3545 C   0  0  0  0  0  0
  -21.9914   -9.0251   20.4649 C   0  0  0  0  0  0
  -22.7241  -10.2128   20.3053 C   0  0  0  0  0  0
  -21.6856   -6.0736   22.5281 C   0  0  0  0  0  0
  -21.4015   -6.5636   23.8214 C   0  0  0  0  0  0
  -21.3662   -5.6788   24.9176 C   0  0  0  0  0  0
  -21.6039   -4.3050   24.7223 C   0  0  0  0  0  0
  -21.8820   -3.8146   23.4345 C   0  0  0  0  0  0
  -21.9193   -4.6965   22.3403 C   0  0  0  0  0  0
  -22.7852  -13.5223   21.1853 C   0  0  0  0  0  0
  -22.1663   -4.2153   21.0980 F   0  0  0  0  0  0
  -21.5630   -3.4532   25.7734 F   0  0  0  0  0  0
  -29.9956  -13.4826   20.4371 N   0  0  0  0  0  0
  -26.2958  -12.9342   20.3212 N   0  0  0  0  0  0
  -25.9317  -11.6500   20.5676 N   0  0  0  0  0  0
  -22.0489  -12.8235   22.0420 N   0  0  0  0  0  0
  -25.4258  -15.1890   20.4113 N   0  0  0  0  0  0
  -31.7048  -14.9147   20.0939 O   0  0  0  0  0  0
  -21.6642   -6.8879   21.4244 O   0  0  0  0  0  0
  -22.3541  -14.5527   20.6691 O   0  0  0  0  0  0
  -24.6298  -31.8564   23.1967 C   0  0  0  0  0  0
  -25.9126  -32.4765   23.8318 C   0  0  1  0  0  0
  -27.2308  -27.2758   20.1390 C   0  0  0  0  0  0
  -25.5933  -33.8564   24.2253 N   0  0  0  0  0  0
  -23.4261  -30.4755   21.5403 C   0  0  2  0  0  0
  -24.8747  -28.9120   20.1206 C   0  0  0  0  0  0
  -22.7484  -29.4610   22.4930 C   0  0  0  0  0  0
  -18.0287  -28.1387   22.8484 C   0  0  0  0  0  0
  -24.1487  -36.7281   23.2638 C   0  0  0  0  0  0
  -25.9690  -30.7747   21.3713 C   0  0  0  0  0  0
  -26.0451  -29.3935   20.7218 C   0  0  0  0  0  0
  -27.2286  -28.5905   20.7123 C   0  0  0  0  0  0
  -26.0366  -26.8456   19.5279 C   0  0  0  0  0  0
  -24.8738  -27.6443   19.5137 C   0  0  0  0  0  0
  -23.6442  -29.7988   20.1605 C   0  0  0  0  0  0
  -25.4117  -36.3077   24.0326 C   0  0  1  0  0  0
  -20.5888  -28.3696   23.1279 C   0  0  2  0  0  0
  -20.6777  -26.9416   22.5413 C   0  0  0  0  0  0
  -19.5753  -26.6384   21.5215 C   0  0  0  0  0  0
  -18.1933  -26.7929   22.1625 C   0  0  0  0  0  0
  -19.1541  -28.8860   23.2875 C   0  0  0  0  0  0
  -18.9462  -30.1460   23.8893 C   0  0  0  0  0  0
  -17.6464  -30.6589   24.0561 C   0  0  0  0  0  0
  -25.9058  -34.9450   23.5094 C   0  0  0  0  0  0
  -16.5355  -29.9085   23.6330 C   0  0  0  0  0  0
  -16.7274  -28.6501   23.0353 C   0  0  0  0  0  0
  -26.4498  -31.6587   25.0704 C   0  0  0  0  0  0
  -25.3721  -31.3734   26.1423 C   0  0  0  0  0  0
  -27.0348  -30.3009   24.6183 C   0  0  0  0  0  0
  -27.6053  -32.4329   25.7480 C   0  0  0  0  0  0
  -27.5577  -37.1797   24.8465 C   0  0  0  0  0  0
  -21.4195  -29.3050   22.3671 N   0  0  0  0  0  0
  -26.4291  -37.3777   23.9408 N   0  0  0  0  0  0
  -24.6942  -31.0533   22.0933 N   0  0  0  0  0  0
  -23.4185  -28.8165   23.3041 O   0  0  0  0  0  0
  -28.3598  -26.4361   20.0884 O   0  0  0  0  0  0
  -26.5621  -34.8921   22.4657 O   0  0  0  0  0  0
  -23.5455  -32.1378   23.7278 O   0  0  0  0  0  0
  -29.0372  -19.9261   18.6063 C   0  0  0  0  0  0
  -29.2111  -18.7201   17.9901 C   0  0  0  0  0  0
  -29.6631  -18.4181   20.1631 C   0  0  0  0  0  0
  -29.9678  -15.3965   22.9096 C   0  0  0  0  0  0
  -29.5164  -18.1811   22.6408 C   0  0  0  0  0  0
  -31.6983  -17.7954   21.4826 C   0  0  0  0  0  0
  -28.5247  -23.9643   18.4677 C   0  0  0  0  0  0
  -26.9551  -23.0240   20.1634 C   0  0  0  0  0  0
  -29.4733  -22.5327   20.3691 C   0  0  0  0  0  0
  -29.2518  -20.9920   20.8765 C   0  0  0  0  0  0
  -28.3712  -25.0887   20.7453 C   0  0  0  0  0  0
  -29.8702  -15.9015   21.4335 C   0  0  1  0  0  0
  -30.1788  -17.5501   21.3791 C   0  0  0  0  0  0
  -28.3474  -23.6501   19.9655 C   0  0  0  0  0  0
  -29.3523  -19.7753   19.9352 N   0  0  0  0  0  0
  -29.6107  -17.8436   18.9545 N   0  3  0  0  0  0
  -31.4841  -12.6387   19.1442 H   0  0  0  0  0  0
  -30.4294  -11.4769   19.8938 H   0  0  0  0  0  0
  -29.8030  -11.7917   17.4866 H   0  0  0  0  0  0
  -29.6336  -13.5116   17.7328 H   0  0  0  0  0  0
  -27.8939  -11.2952   18.8651 H   0  0  0  0  0  0
  -27.3826  -12.5652   17.7836 H   0  0  0  0  0  0
  -27.6631  -14.2550   19.5119 H   0  0  0  0  0  0
  -28.7249  -12.0474   21.3345 H   0  0  0  0  0  0
  -28.3605  -13.6659   21.8314 H   0  0  0  0  0  0
  -25.2764   -9.5684   22.4756 H   0  0  0  0  0  0
  -24.0007   -7.4632   22.7471 H   0  0  0  0  0  0
  -21.0841   -8.8766   19.8960 H   0  0  0  0  0  0
  -22.3692  -10.9666   19.6165 H   0  0  0  0  0  0
  -21.2009   -7.6144   23.9722 H   0  0  0  0  0  0
  -21.1485   -6.0516   25.9081 H   0  0  0  0  0  0
  -22.0601   -2.7609   23.2840 H   0  0  0  0  0  0
  -22.4089  -11.9902   22.4831 H   0  0  0  0  0  0
  -21.1101  -13.1270   22.2594 H   0  0  0  0  0  0
  -24.6572  -15.8409   20.5260 H   0  0  0  0  0  0
  -26.2756  -15.6317   20.0870 H   0  0  0  0  0  0
  -26.7196  -32.5413   23.1066 H   0  0  0  0  0  0
  -25.0095  -33.9709   25.0410 H   0  0  0  0  0  0
  -22.7223  -31.2967   21.3896 H   0  0  0  0  0  0
  -23.3760  -35.9602   23.3305 H   0  0  0  0  0  0
  -24.3576  -36.8900   22.2051 H   0  0  0  0  0  0
  -23.7226  -37.6478   23.6660 H   0  0  0  0  0  0
  -26.1008  -31.5321   20.5976 H   0  0  0  0  0  0
  -26.8489  -30.8303   22.0007 H   0  0  0  0  0  0
  -28.1333  -28.9648   21.1706 H   0  0  0  0  0  0
  -26.0020  -25.8769   19.0533 H   0  0  0  0  0  0
  -23.9779  -27.2685   19.0390 H   0  0  0  0  0  0
  -23.7671  -30.5690   19.3981 H   0  0  0  0  0  0
  -22.7633  -29.2284   19.8595 H   0  0  0  0  0  0
  -25.1303  -36.1925   25.0820 H   0  0  0  0  0  0
  -20.9979  -28.3278   24.1400 H   0  0  0  0  0  0
  -20.5685  -26.2308   23.3617 H   0  0  0  0  0  0
  -21.6646  -26.7450   22.1206 H   0  0  0  0  0  0
  -19.6918  -25.6294   21.1245 H   0  0  0  0  0  0
  -19.6692  -27.3193   20.6746 H   0  0  0  0  0  0
  -17.4207  -26.6680   21.4021 H   0  0  0  0  0  0
  -18.0329  -26.0069   22.9021 H   0  0  0  0  0  0
  -19.7943  -30.7271   24.2260 H   0  0  0  0  0  0
  -17.5023  -31.6266   24.5165 H   0  0  0  0  0  0
  -15.5358  -30.2988   23.7654 H   0  0  0  0  0  0
  -15.8674  -28.0816   22.7076 H   0  0  0  0  0  0
  -24.5901  -30.7083   25.7744 H   0  0  0  0  0  0
  -24.8908  -32.2904   26.4831 H   0  0  0  0  0  0
  -25.8036  -30.8918   27.0206 H   0  0  0  0  0  0
  -26.2933  -29.6753   24.1203 H   0  0  0  0  0  0
  -27.4034  -29.7276   25.4698 H   0  0  0  0  0  0
  -27.8804  -30.4294   23.9423 H   0  0  0  0  0  0
  -27.2663  -33.3636   26.2043 H   0  0  0  0  0  0
  -28.3870  -32.6878   25.0311 H   0  0  0  0  0  0
  -28.0713  -31.8458   26.5407 H   0  0  0  0  0  0
  -28.2602  -38.0088   24.7518 H   0  0  0  0  0  0
  -28.1068  -36.2623   24.6296 H   0  0  0  0  0  0
  -27.2293  -37.1447   25.8867 H   0  0  0  0  0  0
  -20.9378  -29.8753   21.6860 H   0  0  0  0  0  0
  -26.0172  -38.2851   24.1415 H   0  0  0  0  0  0
  -28.7282  -20.8706   18.1858 H   0  0  0  0  0  0
  -29.0904  -18.4307   16.9550 H   0  0  0  0  0  0
  -29.0785  -15.6632   23.4814 H   0  0  0  0  0  0
  -30.8392  -15.8031   23.4208 H   0  0  0  0  0  0
  -30.0716  -14.3170   23.0191 H   0  0  0  0  0  0
  -29.7362  -19.2322   22.7634 H   0  0  0  0  0  0
  -29.8651  -17.7720   23.5857 H   0  0  0  0  0  0
  -28.4311  -18.0762   22.6122 H   0  0  0  0  0  0
  -31.9215  -18.8560   21.6017 H   0  0  0  0  0  0
  -32.2205  -17.4603   20.5865 H   0  0  0  0  0  0
  -32.1438  -17.2781   22.3312 H   0  0  0  0  0  0
  -28.4715  -23.0690   17.8511 H   0  0  0  0  0  0
  -29.4883  -24.4379   18.2770 H   0  0  0  0  0  0
  -27.7542  -24.6452   18.1057 H   0  0  0  0  0  0
  -26.8428  -22.1015   19.5934 H   0  0  0  0  0  0
  -26.1624  -23.7005   19.8451 H   0  0  0  0  0  0
  -26.7741  -22.7867   21.2119 H   0  0  0  0  0  0
  -30.2407  -22.5052   19.5940 H   0  0  0  0  0  0
  -30.0088  -22.9944   21.1993 H   0  0  0  0  0  0
  -28.3333  -20.8954   21.4548 H   0  0  0  0  0  0
  -30.0712  -20.8539   21.5771 H   0  0  0  0  0  0
  -29.2925  -25.1112   21.3271 H   0  0  0  0  0  0
  -27.5952  -25.0898   21.5128 H   0  0  0  0  0  0
  -28.8203  -15.8188   21.1534 H   0  0  0  0  0  0
  -29.8626  -16.8821   18.7681 H   0  0  0  0  0  0
  1 25  1  0  0  0
  1 30  2  0  0  0
  1 82  1  0  0  0
  2  3  1  0  0  0
  2 25  1  0  0  0
  2 87  1  0  0  0
  2 88  1  0  0  0
  3  4  1  0  0  0
  3 89  1  0  0  0
  3 90  1  0  0  0
  4  5  1  0  0  0
  4 91  1  0  0  0
  4 92  1  0  0  0
  5  6  1  0  0  0
  5 26  1  0  0  0
  5 93  1  0  0  0
  6 25  1  0  0  0
  6 94  1  0  0  0
  6 95  1  0  0  0
  7  8  2  0  0  0
  7 26  1  0  0  0
  7 29  1  0  0  0
  8  9  1  0  0  0
  8 22  1  0  0  0
  9 10  1  0  0  0
  9 27  2  0  0  0
 10 11  2  0  0  0
 10 15  1  0  0  0
 11 12  1  0  0  0
 11 96  1  0  0  0
 12 13  2  0  0  0
 12 97  1  0  0  0
 13 14  1  0  0  0
 13 31  1  0  0  0
 14 15  2  0  0  0
 14 98  1  0  0  0
 15 99  1  0  0  0
 16 17  2  0  0  0
 16 21  1  0  0  0
 16 31  1  0  0  0
 17 18  1  0  0  0
 17100  1  0  0  0
 18 19  2  0  0  0
 18101  1  0  0  0
 19 20  1  0  0  0
 19 24  1  0  0  0
 20 21  2  0  0  0
 20102  1  0  0  0
 21 23  1  0  0  0
 22 28  1  0  0  0
 22 32  2  0  0  0
 26 27  1  0  0  0
 28103  1  0  0  0
 28104  1  0  0  0
 29105  1  0  0  0
 29106  1  0  0  0
 33 34  1  0  0  0
 33 66  1  0  0  0
 33 70  2  0  0  0
 34 36  1  0  0  0
 34 59  1  0  0  0
 34107  1  0  0  0
 35 44  2  0  0  0
 35 45  1  0  0  0
 35 68  1  0  0  0
 36 56  1  0  0  0
 36108  1  0  0  0
 37 39  1  0  0  0
 37 47  1  0  0  0
 37 66  1  0  0  0
 37109  1  0  0  0
 38 43  2  0  0  0
 38 46  1  0  0  0
 38 47  1  0  0  0
 39 64  1  0  0  0
 39 67  2  0  0  0
 40 52  1  0  0  0
 40 53  2  0  0  0
 40 58  1  0  0  0
 41110  1  0  0  0
 41111  1  0  0  0
 41112  1  0  0  0
 41 48  1  0  0  0
 42 43  1  0  0  0
 42 66  1  0  0  0
 42113  1  0  0  0
 42114  1  0  0  0
 43 44  1  0  0  0
 44115  1  0  0  0
 45 46  2  0  0  0
 45116  1  0  0  0
 46117  1  0  0  0
 47118  1  0  0  0
 47119  1  0  0  0
 48 56  1  0  0  0
 48 65  1  0  0  0
 48120  1  0  0  0
 49 50  1  0  0  0
 49 53  1  0  0  0
 49 64  1  0  0  0
 49121  1  0  0  0
 50 51  1  0  0  0
 50122  1  0  0  0
 50123  1  0  0  0
 51 52  1  0  0  0
 51124  1  0  0  0
 51125  1  0  0  0
 52126  1  0  0  0
 52127  1  0  0  0
 53 54  1  0  0  0
 54 55  2  0  0  0
 54128  1  0  0  0
 55 57  1  0  0  0
 55129  1  0  0  0
 56 69  2  0  0  0
 57 58  2  0  0  0
 57130  1  0  0  0
 58131  1  0  0  0
 59 60  1  0  0  0
 59 61  1  0  0  0
 59 62  1  0  0  0
 60132  1  0  0  0
 60133  1  0  0  0
 60134  1  0  0  0
 61135  1  0  0  0
 61136  1  0  0  0
 61137  1  0  0  0
 62138  1  0  0  0
 62139  1  0  0  0
 62140  1  0  0  0
 63 65  1  0  0  0
 63141  1  0  0  0
 63142  1  0  0  0
 63143  1  0  0  0
 64144  1  0  0  0
 65145  1  0  0  0
 68 81  1  0  0  0
 71 72  2  0  0  0
 71 85  1  0  0  0
 71146  1  0  0  0
 72 86  1  0  0  0
 72147  1  0  0  0
 73 83  1  0  0  0
 73 85  1  0  0  0
 73 86  2  0  0  0
 74148  1  0  0  0
 74149  1  0  0  0
 74150  1  0  0  0
 74 82  1  0  0  0
 75151  1  0  0  0
 75152  1  0  0  0
 75153  1  0  0  0
 75 83  1  0  0  0
 76 83  1  0  0  0
 76154  1  0  0  0
 76155  1  0  0  0
 76156  1  0  0  0
 77157  1  0  0  0
 77158  1  0  0  0
 77159  1  0  0  0
 77 84  1  0  0  0
 78 84  1  0  0  0
 78160  1  0  0  0
 78161  1  0  0  0
 78162  1  0  0  0
 79 80  1  0  0  0
 79 84  1  0  0  0
 79163  1  0  0  0
 79164  1  0  0  0
 80 85  1  0  0  0
 80165  1  0  0  0
 80166  1  0  0  0
 81 84  1  0  0  0
 81167  1  0  0  0
 81168  1  0  0  0
 82 83  1  0  0  0
 82169  1  0  0  0
 86170  1  0  0  0
M  CHG  1  86   1
M  ISO  4   1 100  68 101  81 101  82 100
M  END
> <chiral flag>
0

> <version>
0

> <s_m_source_file>
/data/baiqing/PycharmProjects/Reinvent-master-3.2/result/LINK_invent/BTK/process_docking_weight1_custom_sum_contain_oxygen_bond_distance_aromatic_linkinvent_7_9_3/rearranged_h_0071.sdf

> <i_m_source_file_index>
3

> <r_mmod_Potential_Energy-OPLS-2005>
318.781158447266

> <r_mmod_Stretch_Energy-OPLS-2005>
163.575332641602

> <r_mmod_Bend_Energy-OPLS-2005>
257.341918945312

> <r_mmod_Torsional_Energy-OPLS-2005>
268.661315917969

> <r_mmod_Improper_Torsional_Energy-OPLS-2005>
2.38928008079529

> <r_mmod_Van_der_Waal_Energy-OPLS-2005>
125.514869689941

> <r_mmod_Electrostatic_Energy-OPLS-2005>
-180.528472900391

> <r_mmod_Solvation_Energy-OPLS-2005>
-387.047454833984

> <b_mmod_Minimization_Converged-OPLS-2005>
0

> <r_mmod_RMS_Derivative-OPLS-2005>
1.04998278617859

$$$$
3
                    3D
 Structure written by MMmdl.
162170  0  0  1  0            999 V2000
  -30.4679  -14.9778   20.4171 C   0  0  0  0  0  0
  -30.4585  -12.5992   19.4994 C   0  0  0  0  0  0
  -29.5309  -12.5398   18.2585 C   0  0  0  0  0  0
  -28.0650  -12.3004   18.6734 C   0  0  0  0  0  0
  -27.6321  -13.2322   19.8312 C   0  0  2  0  0  0
  -28.6730  -13.2486   20.9699 C   0  0  0  0  0  0
  -25.2505  -13.8183   20.5681 C   0  0  0  0  0  0
  -24.1797  -13.0430   20.9196 C   0  0  0  0  0  0
  -24.6389  -11.6905   20.8725 C   0  0  0  0  0  0
  -23.9074  -10.4282   21.0405 C   0  0  0  0  0  0
  -24.3622   -9.4196   21.9180 C   0  0  0  0  0  0
  -23.6288   -8.2237   22.0758 C   0  0  0  0  0  0
  -22.4274   -8.0273   21.3546 C   0  0  0  0  0  0
  -21.9917   -9.0247   20.4646 C   0  0  0  0  0  0
  -22.7251  -10.2119   20.3045 C   0  0  0  0  0  0
  -21.6844   -6.0721   22.5276 C   0  0  0  0  0  0
  -21.4027   -6.5636   23.8208 C   0  0  0  0  0  0
  -21.3655   -5.6795   24.9171 C   0  0  0  0  0  0
  -21.6040   -4.3055   24.7229 C   0  0  0  0  0  0
  -21.8832   -3.8139   23.4358 C   0  0  0  0  0  0
  -21.9199   -4.6955   22.3410 C   0  0  0  0  0  0
  -22.7823  -13.5215   21.1860 C   0  0  0  0  0  0
  -22.1672   -4.2131   21.0992 F   0  0  0  0  0  0
  -21.5618   -3.4549   25.7744 F   0  0  0  0  0  0
  -29.9581  -13.6770   20.3988 N   0  0  0  0  0  0
  -26.2893  -12.9364   20.3170 N   0  0  0  0  0  0
  -25.9314  -11.6518   20.5695 N   0  0  0  0  0  0
  -22.0493  -12.8169   22.0404 N   0  0  0  0  0  0
  -25.4228  -15.1904   20.4141 N   0  0  0  0  0  0
  -31.6625  -15.0994   20.1164 O   0  0  0  0  0  0
  -21.6641   -6.8864   21.4230 O   0  0  0  0  0  0
  -22.3497  -14.5515   20.6713 O   0  0  0  0  0  0
  -24.6457  -31.8408   23.1863 C   0  0  0  0  0  0
  -25.9217  -32.4671   23.8255 C   0  0  1  0  0  0
  -27.2224  -27.1181   20.1499 C   0  0  0  0  0  0
  -25.5959  -33.8480   24.2158 N   0  0  0  0  0  0
  -23.4497  -30.4590   21.5328 C   0  0  2  0  0  0
  -24.9008  -28.8816   20.1111 C   0  0  0  0  0  0
  -22.7574  -29.4526   22.4871 C   0  0  0  0  0  0
  -18.0294  -28.1404   22.8467 C   0  0  0  0  0  0
  -24.1494  -36.7253   23.2638 C   0  0  0  0  0  0
  -26.0067  -30.7097   21.3860 C   0  0  0  0  0  0
  -26.0802  -29.3190   20.7275 C   0  0  0  0  0  0
  -27.2416  -28.4545   20.7271 C   0  0  0  0  0  0
  -26.0154  -26.7869   19.4940 C   0  0  0  0  0  0
  -24.8824  -27.6293   19.4795 C   0  0  0  0  0  0
  -23.6766  -29.7829   20.1547 C   0  0  0  0  0  0
  -25.4130  -36.3016   24.0301 C   0  0  1  0  0  0
  -20.5907  -28.3713   23.1239 C   0  0  2  0  0  0
  -20.6773  -26.9422   22.5415 C   0  0  0  0  0  0
  -19.5748  -26.6384   21.5211 C   0  0  0  0  0  0
  -18.1930  -26.7939   22.1620 C   0  0  0  0  0  0
  -19.1552  -28.8881   23.2835 C   0  0  0  0  0  0
  -18.9465  -30.1479   23.8857 C   0  0  0  0  0  0
  -17.6460  -30.6587   24.0560 C   0  0  0  0  0  0
  -25.9087  -34.9393   23.5044 C   0  0  0  0  0  0
  -16.5354  -29.9075   23.6344 C   0  0  0  0  0  0
  -16.7279  -28.6505   23.0348 C   0  0  0  0  0  0
  -26.4540  -31.6545   25.0697 C   0  0  0  0  0  0
  -25.3713  -31.3744   26.1377 C   0  0  0  0  0  0
  -27.0408  -30.2935   24.6296 C   0  0  0  0  0  0
  -27.6066  -32.4313   25.7495 C   0  0  0  0  0  0
  -27.5580  -37.1783   24.8463 C   0  0  0  0  0  0
  -21.4265  -29.3031   22.3615 N   0  0  0  0  0  0
  -26.4292  -37.3736   23.9403 N   0  0  0  0  0  0
  -24.7206  -31.0247   22.0900 N   0  0  0  0  0  0
  -23.4208  -28.8069   23.3022 O   0  0  0  0  0  0
  -28.2721  -26.1213   20.2242 O   0  0  0  0  0  0
  -26.5673  -34.8896   22.4625 O   0  0  0  0  0  0
  -23.5572  -32.1312   23.7068 O   0  0  0  0  0  0
  -29.7571  -17.9416   20.5795 C   0  0  0  0  0  0
  -29.3239  -20.1973   20.4015 C   0  0  0  0  0  0
  -27.6351  -19.1626   16.4316 C   0  0  0  0  0  0
  -29.9765  -18.9657   17.2568 C   0  0  0  0  0  0
  -28.5245  -16.9324   17.1167 C   0  0  0  0  0  0
  -29.4799  -16.3101   20.6490 C   0  0  0  0  0  0
  -28.5398  -21.6235   20.0828 C   0  0  0  0  0  0
  -28.9881  -23.2386   20.3585 C   0  0  0  0  0  0
  -27.9722  -18.6640   18.8873 C   0  0  0  0  0  0
  -27.9909  -24.5871   20.0643 C   0  0  0  0  0  0
  -28.5368  -18.4367   17.4478 C   0  0  0  0  0  0
  -30.5730  -18.6195   21.4124 N   0  0  0  0  0  0
  -30.2958  -20.0110   21.3130 N   0  0  0  0  0  0
  -28.9886  -18.9173   19.9024 N   0  0  0  0  0  0
  -31.4876  -12.7827   19.1869 H   0  0  0  0  0  0
  -30.4711  -11.6401   20.0218 H   0  0  0  0  0  0
  -29.8598  -11.7542   17.5766 H   0  0  0  0  0  0
  -29.6043  -13.4761   17.7045 H   0  0  0  0  0  0
  -27.9754  -11.2606   18.9873 H   0  0  0  0  0  0
  -27.4009  -12.4156   17.8166 H   0  0  0  0  0  0
  -27.5940  -14.2271   19.3921 H   0  0  0  0  0  0
  -28.7625  -12.2658   21.4351 H   0  0  0  0  0  0
  -28.3570  -13.9277   21.7630 H   0  0  0  0  0  0
  -25.2778   -9.5655   22.4735 H   0  0  0  0  0  0
  -23.9987   -7.4636   22.7494 H   0  0  0  0  0  0
  -21.0848   -8.8764   19.8954 H   0  0  0  0  0  0
  -22.3721  -10.9645   19.6138 H   0  0  0  0  0  0
  -21.2030   -7.6143   23.9699 H   0  0  0  0  0  0
  -21.1460   -6.0530   25.9070 H   0  0  0  0  0  0
  -22.0613   -2.7596   23.2869 H   0  0  0  0  0  0
  -22.4171  -11.9831   22.4737 H   0  0  0  0  0  0
  -21.1116  -13.1155   22.2674 H   0  0  0  0  0  0
  -24.6597  -15.8481   20.5323 H   0  0  0  0  0  0
  -26.2676  -15.6235   20.0677 H   0  0  0  0  0  0
  -26.7267  -32.5279   23.0973 H   0  0  0  0  0  0
  -25.0069  -33.9589   25.0275 H   0  0  0  0  0  0
  -22.7504  -31.2831   21.3757 H   0  0  0  0  0  0
  -23.3761  -35.9587   23.3282 H   0  0  0  0  0  0
  -24.3577  -36.8917   22.2063 H   0  0  0  0  0  0
  -23.7250  -37.6437   23.6698 H   0  0  0  0  0  0
  -26.1594  -31.4629   20.6120 H   0  0  0  0  0  0
  -26.8788  -30.7654   22.0275 H   0  0  0  0  0  0
  -28.1406  -28.7871   21.2274 H   0  0  0  0  0  0
  -25.9100  -25.8303   19.0032 H   0  0  0  0  0  0
  -23.9800  -27.2885   18.9889 H   0  0  0  0  0  0
  -23.8087  -30.5542   19.3959 H   0  0  0  0  0  0
  -22.7920  -29.2219   19.8478 H   0  0  0  0  0  0
  -25.1321  -36.1844   25.0795 H   0  0  0  0  0  0
  -20.9969  -28.3305   24.1371 H   0  0  0  0  0  0
  -20.5656  -26.2328   23.3626 H   0  0  0  0  0  0
  -21.6635  -26.7428   22.1217 H   0  0  0  0  0  0
  -19.6910  -25.6292   21.1245 H   0  0  0  0  0  0
  -19.6687  -27.3184   20.6734 H   0  0  0  0  0  0
  -17.4200  -26.6679   21.4023 H   0  0  0  0  0  0
  -18.0328  -26.0095   22.9031 H   0  0  0  0  0  0
  -19.7947  -30.7306   24.2200 H   0  0  0  0  0  0
  -17.5017  -31.6261   24.5170 H   0  0  0  0  0  0
  -15.5349  -30.2955   23.7704 H   0  0  0  0  0  0
  -15.8683  -28.0814   22.7063 H   0  0  0  0  0  0
  -24.5917  -30.7056   25.7697 H   0  0  0  0  0  0
  -24.8867  -32.2923   26.4711 H   0  0  0  0  0  0
  -25.7992  -30.8986   27.0207 H   0  0  0  0  0  0
  -26.3026  -29.6644   24.1303 H   0  0  0  0  0  0
  -27.4001  -29.7248   25.4884 H   0  0  0  0  0  0
  -27.8942  -30.4150   23.9621 H   0  0  0  0  0  0
  -27.2651  -33.3639   26.2003 H   0  0  0  0  0  0
  -28.3928  -32.6832   25.0359 H   0  0  0  0  0  0
  -28.0671  -31.8473   26.5477 H   0  0  0  0  0  0
  -28.2582  -38.0093   24.7514 H   0  0  0  0  0  0
  -28.1090  -36.2624   24.6286 H   0  0  0  0  0  0
  -27.2290  -37.1414   25.8860 H   0  0  0  0  0  0
  -20.9480  -29.8742   21.6790 H   0  0  0  0  0  0
  -26.0155  -38.2802   24.1410 H   0  0  0  0  0  0
  -27.9951  -19.0293   15.4109 H   0  0  0  0  0  0
  -27.6001  -20.2361   16.6232 H   0  0  0  0  0  0
  -26.6109  -18.7901   16.4669 H   0  0  0  0  0  0
  -30.3267  -18.7951   16.2383 H   0  0  0  0  0  0
  -30.6925  -18.4737   17.9165 H   0  0  0  0  0  0
  -30.0380  -20.0396   17.4375 H   0  0  0  0  0  0
  -28.8874  -16.7439   16.1055 H   0  0  0  0  0  0
  -27.5161  -16.5194   17.1811 H   0  0  0  0  0  0
  -29.1626  -16.3624   17.7905 H   0  0  0  0  0  0
  -28.6235  -16.1284   20.0090 H   0  0  0  0  0  0
  -29.0831  -16.1539   21.6503 H   0  0  0  0  0  0
  -27.5667  -21.5129   20.5607 H   0  0  0  0  0  0
  -28.3135  -21.5841   19.0178 H   0  0  0  0  0  0
  -29.9122  -23.4022   19.8047 H   0  0  0  0  0  0
  -29.2821  -23.2989   21.4057 H   0  0  0  0  0  0
  -27.3499  -17.8293   19.2095 H   0  0  0  0  0  0
  -27.2873  -19.5108   18.8883 H   0  0  0  0  0  0
  -27.0957  -24.4089   20.6613 H   0  0  0  0  0  0
  -27.6638  -24.4653   19.0319 H   0  0  0  0  0  0
  1 25  1  0  0  0
  1 30  2  0  0  0
  1 76  1  0  0  0
  2  3  1  0  0  0
  2 25  1  0  0  0
  2 85  1  0  0  0
  2 86  1  0  0  0
  3  4  1  0  0  0
  3 87  1  0  0  0
  3 88  1  0  0  0
  4  5  1  0  0  0
  4 89  1  0  0  0
  4 90  1  0  0  0
  5  6  1  0  0  0
  5 26  1  0  0  0
  5 91  1  0  0  0
  6 25  1  0  0  0
  6 92  1  0  0  0
  6 93  1  0  0  0
  7  8  2  0  0  0
  7 26  1  0  0  0
  7 29  1  0  0  0
  8  9  1  0  0  0
  8 22  1  0  0  0
  9 10  1  0  0  0
  9 27  2  0  0  0
 10 11  2  0  0  0
 10 15  1  0  0  0
 11 12  1  0  0  0
 11 94  1  0  0  0
 12 13  2  0  0  0
 12 95  1  0  0  0
 13 14  1  0  0  0
 13 31  1  0  0  0
 14 15  2  0  0  0
 14 96  1  0  0  0
 15 97  1  0  0  0
 16 17  2  0  0  0
 16 21  1  0  0  0
 16 31  1  0  0  0
 17 18  1  0  0  0
 17 98  1  0  0  0
 18 19  2  0  0  0
 18 99  1  0  0  0
 19 20  1  0  0  0
 19 24  1  0  0  0
 20 21  2  0  0  0
 20100  1  0  0  0
 21 23  1  0  0  0
 22 28  1  0  0  0
 22 32  2  0  0  0
 26 27  1  0  0  0
 28101  1  0  0  0
 28102  1  0  0  0
 29103  1  0  0  0
 29104  1  0  0  0
 33 34  1  0  0  0
 33 66  1  0  0  0
 33 70  2  0  0  0
 34 36  1  0  0  0
 34 59  1  0  0  0
 34105  1  0  0  0
 35 44  2  0  0  0
 35 45  1  0  0  0
 35 68  1  0  0  0
 36 56  1  0  0  0
 36106  1  0  0  0
 37 39  1  0  0  0
 37 47  1  0  0  0
 37 66  1  0  0  0
 37107  1  0  0  0
 38 43  2  0  0  0
 38 46  1  0  0  0
 38 47  1  0  0  0
 39 64  1  0  0  0
 39 67  2  0  0  0
 40 52  1  0  0  0
 40 53  2  0  0  0
 40 58  1  0  0  0
 41108  1  0  0  0
 41109  1  0  0  0
 41110  1  0  0  0
 41 48  1  0  0  0
 42 43  1  0  0  0
 42 66  1  0  0  0
 42111  1  0  0  0
 42112  1  0  0  0
 43 44  1  0  0  0
 44113  1  0  0  0
 45 46  2  0  0  0
 45114  1  0  0  0
 46115  1  0  0  0
 47116  1  0  0  0
 47117  1  0  0  0
 48 56  1  0  0  0
 48 65  1  0  0  0
 48118  1  0  0  0
 49 50  1  0  0  0
 49 53  1  0  0  0
 49 64  1  0  0  0
 49119  1  0  0  0
 50 51  1  0  0  0
 50120  1  0  0  0
 50121  1  0  0  0
 51 52  1  0  0  0
 51122  1  0  0  0
 51123  1  0  0  0
 52124  1  0  0  0
 52125  1  0  0  0
 53 54  1  0  0  0
 54 55  2  0  0  0
 54126  1  0  0  0
 55 57  1  0  0  0
 55127  1  0  0  0
 56 69  2  0  0  0
 57 58  2  0  0  0
 57128  1  0  0  0
 58129  1  0  0  0
 59 60  1  0  0  0
 59 61  1  0  0  0
 59 62  1  0  0  0
 60130  1  0  0  0
 60131  1  0  0  0
 60132  1  0  0  0
 61133  1  0  0  0
 61134  1  0  0  0
 61135  1  0  0  0
 62136  1  0  0  0
 62137  1  0  0  0
 62138  1  0  0  0
 63 65  1  0  0  0
 63139  1  0  0  0
 63140  1  0  0  0
 63141  1  0  0  0
 64142  1  0  0  0
 65143  1  0  0  0
 68 80  1  0  0  0
 71 76  1  0  0  0
 71 82  2  0  0  0
 71 84  1  0  0  0
 72 77  1  0  0  0
 72 83  2  0  0  0
 72 84  1  0  0  0
 73144  1  0  0  0
 73145  1  0  0  0
 73146  1  0  0  0
 73 81  1  0  0  0
 74 81  1  0  0  0
 74147  1  0  0  0
 74148  1  0  0  0
 74149  1  0  0  0
 75 81  1  0  0  0
 75150  1  0  0  0
 75151  1  0  0  0
 75152  1  0  0  0
 76153  1  0  0  0
 76154  1  0  0  0
 77 78  1  0  0  0
 77155  1  0  0  0
 77156  1  0  0  0
 78 80  1  0  0  0
 78157  1  0  0  0
 78158  1  0  0  0
 79 81  1  0  0  0
 79 84  1  0  0  0
 79159  1  0  0  0
 79160  1  0  0  0
 80161  1  0  0  0
 80162  1  0  0  0
 82 83  1  0  0  0
M  ISO  4   1 100  68 101  76 100  80 101
M  END
> <chiral flag>
0

> <version>
0

> <s_m_source_file>
/data/baiqing/PycharmProjects/Reinvent-master-3.2/result/LINK_invent/BTK/process_docking_weight1_custom_sum_contain_oxygen_bond_distance_aromatic_linkinvent_7_9_3/rearranged_h_0071.sdf

> <i_m_source_file_index>
4

> <r_mmod_Potential_Energy-OPLS-2005>
559.160705566406

> <r_mmod_Stretch_Energy-OPLS-2005>
292.506103515625

> <r_mmod_Bend_Energy-OPLS-2005>
313.837646484375

> <r_mmod_Torsional_Energy-OPLS-2005>
208.42414855957

> <r_mmod_Improper_Torsional_Energy-OPLS-2005>
6.1612663269043

> <r_mmod_Van_der_Waal_Energy-OPLS-2005>
103.447677612305

> <r_mmod_Electrostatic_Energy-OPLS-2005>
-337.143127441406

> <r_mmod_Solvation_Energy-OPLS-2005>
-241.618530273438

> <b_mmod_Minimization_Converged-OPLS-2005>
0

> <r_mmod_RMS_Derivative-OPLS-2005>
2.29794526100159

$$$$
4
                    3D
 Structure written by MMmdl.
166174  0  0  1  0            999 V2000
  -30.7646  -14.4553   20.6193 C   0  0  0  0  0  0
  -30.4119  -12.3212   19.4263 C   0  0  0  0  0  0
  -29.4981  -12.5324   18.2033 C   0  0  0  0  0  0
  -28.0167  -12.3912   18.6048 C   0  0  0  0  0  0
  -27.6603  -13.2167   19.8687 C   0  0  2  0  0  0
  -28.6969  -12.9765   20.9823 C   0  0  0  0  0  0
  -25.2582  -13.8169   20.5704 C   0  0  0  0  0  0
  -24.1847  -13.0414   20.9194 C   0  0  0  0  0  0
  -24.6428  -11.6889   20.8732 C   0  0  0  0  0  0
  -23.9111  -10.4264   21.0402 C   0  0  0  0  0  0
  -24.3647   -9.4179   21.9186 C   0  0  0  0  0  0
  -23.6314   -8.2226   22.0752 C   0  0  0  0  0  0
  -22.4300   -8.0272   21.3536 C   0  0  0  0  0  0
  -21.9939   -9.0257   20.4645 C   0  0  0  0  0  0
  -22.7289  -10.2124   20.3059 C   0  0  0  0  0  0
  -21.6863   -6.0736   22.5268 C   0  0  0  0  0  0
  -21.4019   -6.5641   23.8207 C   0  0  0  0  0  0
  -21.3674   -5.6788   24.9166 C   0  0  0  0  0  0
  -21.6065   -4.3053   24.7223 C   0  0  0  0  0  0
  -21.8829   -3.8149   23.4348 C   0  0  0  0  0  0
  -21.9203   -4.6965   22.3396 C   0  0  0  0  0  0
  -22.7876  -13.5199   21.1862 C   0  0  0  0  0  0
  -22.1666   -4.2144   21.0980 F   0  0  0  0  0  0
  -21.5627   -3.4542   25.7739 F   0  0  0  0  0  0
  -30.0289  -13.3129   20.4514 N   0  0  0  0  0  0
  -26.3019  -12.9359   20.3321 N   0  0  0  0  0  0
  -25.9344  -11.6506   20.5728 N   0  0  0  0  0  0
  -22.0514  -12.8157   22.0395 N   0  0  0  0  0  0
  -25.4293  -15.1877   20.4168 N   0  0  0  0  0  0
  -31.8765  -14.5613   20.0885 O   0  0  0  0  0  0
  -21.6645   -6.8881   21.4237 O   0  0  0  0  0  0
  -22.3553  -14.5507   20.6732 O   0  0  0  0  0  0
  -24.6164  -31.8701   23.2139 C   0  0  0  0  0  0
  -25.9057  -32.4828   23.8415 C   0  0  1  0  0  0
  -27.2053  -27.4068   20.0800 C   0  0  0  0  0  0
  -25.5924  -33.8628   24.2353 N   0  0  0  0  0  0
  -23.4017  -30.5003   21.5578 C   0  0  2  0  0  0
  -24.8378  -28.9754   20.1151 C   0  0  0  0  0  0
  -22.7411  -29.4676   22.5000 C   0  0  0  0  0  0
  -18.0271  -28.1367   22.8485 C   0  0  0  0  0  0
  -24.1487  -36.7327   23.2632 C   0  0  0  0  0  0
  -25.9374  -30.8251   21.3719 C   0  0  0  0  0  0
  -26.0061  -29.4605   20.7154 C   0  0  0  0  0  0
  -27.1929  -28.6851   20.6952 C   0  0  0  0  0  0
  -26.0059  -26.9547   19.4724 C   0  0  0  0  0  0
  -24.8347  -27.7235   19.4911 C   0  0  0  0  0  0
  -23.6061  -29.8473   20.1681 C   0  0  0  0  0  0
  -25.4105  -36.3120   24.0338 C   0  0  1  0  0  0
  -20.5863  -28.3662   23.1313 C   0  0  2  0  0  0
  -20.6767  -26.9401   22.5402 C   0  0  0  0  0  0
  -19.5746  -26.6390   21.5197 C   0  0  0  0  0  0
  -18.1927  -26.7914   22.1615 C   0  0  0  0  0  0
  -19.1518  -28.8831   23.2901 C   0  0  0  0  0  0
  -18.9445  -30.1436   23.8914 C   0  0  0  0  0  0
  -17.6449  -30.6577   24.0564 C   0  0  0  0  0  0
  -25.9040  -34.9484   23.5140 C   0  0  0  0  0  0
  -16.5341  -29.9083   23.6317 C   0  0  0  0  0  0
  -16.7262  -28.6495   23.0340 C   0  0  0  0  0  0
  -26.4478  -31.6590   25.0738 C   0  0  0  0  0  0
  -25.3747  -31.3676   26.1485 C   0  0  0  0  0  0
  -27.0294  -30.3036   24.6094 C   0  0  0  0  0  0
  -27.6068  -32.4288   25.7499 C   0  0  0  0  0  0
  -27.5584  -37.1815   24.8463 C   0  0  0  0  0  0
  -21.4139  -29.3049   22.3742 N   0  0  0  0  0  0
  -26.4294  -37.3803   23.9410 N   0  0  0  0  0  0
  -24.6714  -31.0790   22.1056 N   0  0  0  0  0  0
  -23.4191  -28.8185   23.3010 O   0  0  0  0  0  0
  -28.3653  -26.6441   20.0795 O   0  0  0  0  0  0
  -26.5592  -34.8927   22.4699 O   0  0  0  0  0  0
  -23.5355  -32.1472   23.7518 O   0  0  0  0  0  0
  -29.8672  -21.8175   20.1243 C   0  0  0  0  0  0
  -29.5604  -20.5029   19.7314 C   0  0  0  0  0  0
  -29.1378  -22.8713   19.5332 C   0  0  0  0  0  0
  -27.9163  -21.3026   18.3652 C   0  0  0  0  0  0
  -26.7890  -21.0108   17.3991 C   0  0  0  0  0  0
  -30.1817  -24.8716   18.4316 C   0  0  0  0  0  0
  -30.4432  -24.5919   20.9135 C   0  0  0  0  0  0
  -29.6082  -15.5788   22.5112 C   0  0  0  0  0  0
  -30.4468  -19.3214   20.1087 C   0  0  0  0  0  0
  -29.7305  -18.0472   20.6220 C   0  0  0  0  0  0
  -30.7515  -16.8995   20.8099 C   0  0  0  0  0  0
  -28.1966  -25.2106   19.9455 C   0  0  0  0  0  0
  -29.4884  -24.3759   19.7184 C   0  0  0  0  0  0
  -28.5806  -20.2596   18.8439 N   0  0  0  0  0  0
  -28.1632  -22.5774   18.6431 N   0  0  0  0  0  0
  -30.1806  -15.5708   21.1576 N   0  0  0  0  0  0
  -31.4588  -12.3902   19.1230 H   0  0  0  0  0  0
  -30.2929  -11.3105   19.8179 H   0  0  0  0  0  0
  -29.7461  -11.8178   17.4171 H   0  0  0  0  0  0
  -29.6702  -13.5252   17.7813 H   0  0  0  0  0  0
  -27.8172  -11.3332   18.7810 H   0  0  0  0  0  0
  -27.3781  -12.6904   17.7750 H   0  0  0  0  0  0
  -27.7077  -14.2692   19.5880 H   0  0  0  0  0  0
  -28.6824  -11.9246   21.2707 H   0  0  0  0  0  0
  -28.4124  -13.5067   21.8827 H   0  0  0  0  0  0
  -25.2782   -9.5646   22.4773 H   0  0  0  0  0  0
  -24.0021   -7.4605   22.7457 H   0  0  0  0  0  0
  -21.0880   -8.8815   19.8930 H   0  0  0  0  0  0
  -22.3776  -10.9686   19.6179 H   0  0  0  0  0  0
  -21.2000   -7.6141   23.9714 H   0  0  0  0  0  0
  -21.1497   -6.0506   25.9068 H   0  0  0  0  0  0
  -22.0602   -2.7613   23.2849 H   0  0  0  0  0  0
  -22.4158  -11.9827   22.4773 H   0  0  0  0  0  0
  -21.1128  -13.1171   22.2595 H   0  0  0  0  0  0
  -24.6634  -15.8441   20.5276 H   0  0  0  0  0  0
  -26.2918  -15.6291   20.1206 H   0  0  0  0  0  0
  -26.7114  -32.5520   23.1152 H   0  0  0  0  0  0
  -25.0082  -33.9795   25.0505 H   0  0  0  0  0  0
  -22.6907  -31.3190   21.4273 H   0  0  0  0  0  0
  -23.3746  -35.9663   23.3292 H   0  0  0  0  0  0
  -24.3580  -36.8946   22.2047 H   0  0  0  0  0  0
  -23.7238  -37.6533   23.6647 H   0  0  0  0  0  0
  -26.0548  -31.5888   20.6015 H   0  0  0  0  0  0
  -26.8252  -30.8728   21.9911 H   0  0  0  0  0  0
  -28.0926  -29.0566   21.1649 H   0  0  0  0  0  0
  -25.9087  -26.0168   18.9518 H   0  0  0  0  0  0
  -23.9393  -27.3508   19.0125 H   0  0  0  0  0  0
  -23.7171  -30.6292   19.4158 H   0  0  0  0  0  0
  -22.7264  -29.2739   19.8681 H   0  0  0  0  0  0
  -25.1267  -36.1997   25.0828 H   0  0  0  0  0  0
  -20.9941  -28.3215   24.1440 H   0  0  0  0  0  0
  -20.5662  -26.2269   23.3584 H   0  0  0  0  0  0
  -21.6641  -26.7446   22.1200 H   0  0  0  0  0  0
  -19.6919  -25.6310   21.1210 H   0  0  0  0  0  0
  -19.6685  -27.3212   20.6736 H   0  0  0  0  0  0
  -17.4192  -26.6640   21.4027 H   0  0  0  0  0  0
  -18.0357  -26.0051   22.9011 H   0  0  0  0  0  0
  -19.7922  -30.7242   24.2299 H   0  0  0  0  0  0
  -17.5005  -31.6252   24.5168 H   0  0  0  0  0  0
  -15.5344  -30.2990   23.7634 H   0  0  0  0  0  0
  -15.8659  -28.0825   22.7046 H   0  0  0  0  0  0
  -24.5947  -30.6989   25.7827 H   0  0  0  0  0  0
  -24.8901  -32.2811   26.4937 H   0  0  0  0  0  0
  -25.8110  -30.8857   27.0242 H   0  0  0  0  0  0
  -26.2827  -29.6811   24.1149 H   0  0  0  0  0  0
  -27.4076  -29.7249   25.4529 H   0  0  0  0  0  0
  -27.8663  -30.4362   23.9233 H   0  0  0  0  0  0
  -27.2716  -33.3592   26.2090 H   0  0  0  0  0  0
  -28.3873  -32.6824   25.0318 H   0  0  0  0  0  0
  -28.0732  -31.8390   26.5397 H   0  0  0  0  0  0
  -28.2592  -38.0120   24.7515 H   0  0  0  0  0  0
  -28.1082  -36.2649   24.6272 H   0  0  0  0  0  0
  -27.2300  -37.1451   25.8865 H   0  0  0  0  0  0
  -20.9296  -29.8824   21.7013 H   0  0  0  0  0  0
  -26.0185  -38.2884   24.1407 H   0  0  0  0  0  0
  -30.6937  -21.9968   20.7970 H   0  0  0  0  0  0
  -26.3524  -20.0317   17.5983 H   0  0  0  0  0  0
  -27.1508  -21.0190   16.3713 H   0  0  0  0  0  0
  -25.9947  -21.7517   17.4907 H   0  0  0  0  0  0
  -31.0764  -24.2878   18.2152 H   0  0  0  0  0  0
  -30.4747  -25.9188   18.5125 H   0  0  0  0  0  0
  -29.5187  -24.7860   17.5691 H   0  0  0  0  0  0
  -31.3984  -24.0913   20.7543 H   0  0  0  0  0  0
  -30.0125  -24.2111   21.8406 H   0  0  0  0  0  0
  -30.6649  -25.6473   21.0634 H   0  0  0  0  0  0
  -29.9026  -14.7028   23.0922 H   0  0  0  0  0  0
  -28.5200  -15.6262   22.4663 H   0  0  0  0  0  0
  -29.9302  -16.4493   23.0842 H   0  0  0  0  0  0
  -31.1697  -19.6484   20.8556 H   0  0  0  0  0  0
  -31.0312  -19.0765   19.2226 H   0  0  0  0  0  0
  -28.9670  -17.7416   19.9062 H   0  0  0  0  0  0
  -29.2156  -18.2699   21.5564 H   0  0  0  0  0  0
  -31.4951  -17.1804   21.5584 H   0  0  0  0  0  0
  -31.3059  -16.8465   19.8711 H   0  0  0  0  0  0
  -27.6589  -24.8283   20.8158 H   0  0  0  0  0  0
  -27.5909  -24.9960   19.0722 H   0  0  0  0  0  0
  1 25  1  0  0  0
  1 30  2  0  0  0
  1 86  1  0  0  0
  2  3  1  0  0  0
  2 25  1  0  0  0
  2 87  1  0  0  0
  2 88  1  0  0  0
  3  4  1  0  0  0
  3 89  1  0  0  0
  3 90  1  0  0  0
  4  5  1  0  0  0
  4 91  1  0  0  0
  4 92  1  0  0  0
  5  6  1  0  0  0
  5 26  1  0  0  0
  5 93  1  0  0  0
  6 25  1  0  0  0
  6 94  1  0  0  0
  6 95  1  0  0  0
  7  8  2  0  0  0
  7 26  1  0  0  0
  7 29  1  0  0  0
  8  9  1  0  0  0
  8 22  1  0  0  0
  9 10  1  0  0  0
  9 27  2  0  0  0
 10 11  2  0  0  0
 10 15  1  0  0  0
 11 12  1  0  0  0
 11 96  1  0  0  0
 12 13  2  0  0  0
 12 97  1  0  0  0
 13 14  1  0  0  0
 13 31  1  0  0  0
 14 15  2  0  0  0
 14 98  1  0  0  0
 15 99  1  0  0  0
 16 17  2  0  0  0
 16 21  1  0  0  0
 16 31  1  0  0  0
 17 18  1  0  0  0
 17100  1  0  0  0
 18 19  2  0  0  0
 18101  1  0  0  0
 19 20  1  0  0  0
 19 24  1  0  0  0
 20 21  2  0  0  0
 20102  1  0  0  0
 21 23  1  0  0  0
 22 28  1  0  0  0
 22 32  2  0  0  0
 26 27  1  0  0  0
 28103  1  0  0  0
 28104  1  0  0  0
 29105  1  0  0  0
 29106  1  0  0  0
 33 34  1  0  0  0
 33 66  1  0  0  0
 33 70  2  0  0  0
 34 36  1  0  0  0
 34 59  1  0  0  0
 34107  1  0  0  0
 35 44  2  0  0  0
 35 45  1  0  0  0
 35 68  1  0  0  0
 36 56  1  0  0  0
 36108  1  0  0  0
 37 39  1  0  0  0
 37 47  1  0  0  0
 37 66  1  0  0  0
 37109  1  0  0  0
 38 43  2  0  0  0
 38 46  1  0  0  0
 38 47  1  0  0  0
 39 64  1  0  0  0
 39 67  2  0  0  0
 40 52  1  0  0  0
 40 53  2  0  0  0
 40 58  1  0  0  0
 41110  1  0  0  0
 41111  1  0  0  0
 41112  1  0  0  0
 41 48  1  0  0  0
 42 43  1  0  0  0
 42 66  1  0  0  0
 42113  1  0  0  0
 42114  1  0  0  0
 43 44  1  0  0  0
 44115  1  0  0  0
 45 46  2  0  0  0
 45116  1  0  0  0
 46117  1  0  0  0
 47118  1  0  0  0
 47119  1  0  0  0
 48 56  1  0  0  0
 48 65  1  0  0  0
 48120  1  0  0  0
 49 50  1  0  0  0
 49 53  1  0  0  0
 49 64  1  0  0  0
 49121  1  0  0  0
 50 51  1  0  0  0
 50122  1  0  0  0
 50123  1  0  0  0
 51 52  1  0  0  0
 51124  1  0  0  0
 51125  1  0  0  0
 52126  1  0  0  0
 52127  1  0  0  0
 53 54  1  0  0  0
 54 55  2  0  0  0
 54128  1  0  0  0
 55 57  1  0  0  0
 55129  1  0  0  0
 56 69  2  0  0  0
 57 58  2  0  0  0
 57130  1  0  0  0
 58131  1  0  0  0
 59 60  1  0  0  0
 59 61  1  0  0  0
 59 62  1  0  0  0
 60132  1  0  0  0
 60133  1  0  0  0
 60134  1  0  0  0
 61135  1  0  0  0
 61136  1  0  0  0
 61137  1  0  0  0
 62138  1  0  0  0
 62139  1  0  0  0
 62140  1  0  0  0
 63 65  1  0  0  0
 63141  1  0  0  0
 63142  1  0  0  0
 63143  1  0  0  0
 64144  1  0  0  0
 65145  1  0  0  0
 68 82  1  0  0  0
 71 72  2  0  0  0
 71 73  1  0  0  0
 71146  1  0  0  0
 72 79  1  0  0  0
 72 84  1  0  0  0
 73 83  1  0  0  0
 73 85  2  0  0  0
 74 75  1  0  0  0
 74 84  2  0  0  0
 74 85  1  0  0  0
 75147  1  0  0  0
 75148  1  0  0  0
 75149  1  0  0  0
 76150  1  0  0  0
 76151  1  0  0  0
 76152  1  0  0  0
 76 83  1  0  0  0
 77 83  1  0  0  0
 77153  1  0  0  0
 77154  1  0  0  0
 77155  1  0  0  0
 78 86  1  0  0  0
 78156  1  0  0  0
 78157  1  0  0  0
 78158  1  0  0  0
 79 80  1  0  0  0
 79159  1  0  0  0
 79160  1  0  0  0
 80 81  1  0  0  0
 80161  1  0  0  0
 80162  1  0  0  0
 81 86  1  0  0  0
 81163  1  0  0  0
 81164  1  0  0  0
 82 83  1  0  0  0
 82165  1  0  0  0
 82166  1  0  0  0
M  ISO  4   1 100  68 101  82 101  86 100
M  END
> <chiral flag>
0

> <version>
0

> <s_m_source_file>
/data/baiqing/PycharmProjects/Reinvent-master-3.2/result/LINK_invent/BTK/process_docking_weight1_custom_sum_contain_oxygen_bond_distance_aromatic_linkinvent_7_9_3/rearranged_h_0071.sdf

> <i_m_source_file_index>
5

> <r_mmod_Potential_Energy-OPLS-2005>
-313.691619873047

> <r_mmod_Stretch_Energy-OPLS-2005>
45.4552421569824

> <r_mmod_Bend_Energy-OPLS-2005>
125.50830078125

> <r_mmod_Torsional_Energy-OPLS-2005>
245.132995605469

> <r_mmod_Improper_Torsional_Energy-OPLS-2005>
9.50010585784912

> <r_mmod_Van_der_Waal_Energy-OPLS-2005>
191.662399291992

> <r_mmod_Electrostatic_Energy-OPLS-2005>
-742.468872070312

> <r_mmod_Solvation_Energy-OPLS-2005>
-204.888259887695

> <b_mmod_Minimization_Converged-OPLS-2005>
0

> <r_mmod_RMS_Derivative-OPLS-2005>
2.45880198478699

$$$$
5
                    3D
 Structure written by MMmdl.
162170  0  0  1  0            999 V2000
  -30.6241  -14.7281   20.5492 C   0  0  0  0  0  0
  -30.4349  -12.4603   19.4839 C   0  0  0  0  0  0
  -29.5168  -12.5274   18.2415 C   0  0  0  0  0  0
  -28.0392  -12.3476   18.6403 C   0  0  0  0  0  0
  -27.6459  -13.2270   19.8544 C   0  0  2  0  0  0
  -28.6789  -13.1147   20.9911 C   0  0  0  0  0  0
  -25.2546  -13.8179   20.5681 C   0  0  0  0  0  0
  -24.1822  -13.0430   20.9180 C   0  0  0  0  0  0
  -24.6401  -11.6903   20.8726 C   0  0  0  0  0  0
  -23.9071  -10.4291   21.0404 C   0  0  0  0  0  0
  -24.3630   -9.4209   21.9184 C   0  0  0  0  0  0
  -23.6298   -8.2256   22.0761 C   0  0  0  0  0  0
  -22.4272   -8.0299   21.3559 C   0  0  0  0  0  0
  -21.9906   -9.0264   20.4650 C   0  0  0  0  0  0
  -22.7243  -10.2141   20.3049 C   0  0  0  0  0  0
  -21.6853   -6.0750   22.5300 C   0  0  0  0  0  0
  -21.4009   -6.5648   23.8231 C   0  0  0  0  0  0
  -21.3655   -5.6795   24.9188 C   0  0  0  0  0  0
  -21.6042   -4.3064   24.7236 C   0  0  0  0  0  0
  -21.8817   -3.8158   23.4355 C   0  0  0  0  0  0
  -21.9192   -4.6976   22.3412 C   0  0  0  0  0  0
  -22.7854  -13.5242   21.1830 C   0  0  0  0  0  0
  -22.1666   -4.2156   21.0995 F   0  0  0  0  0  0
  -21.5619   -3.4557   25.7754 F   0  0  0  0  0  0
  -29.9898  -13.5021   20.4459 N   0  0  0  0  0  0
  -26.2947  -12.9364   20.3244 N   0  0  0  0  0  0
  -25.9322  -11.6512   20.5712 N   0  0  0  0  0  0
  -22.0486  -12.8244   22.0392 N   0  0  0  0  0  0
  -25.4267  -15.1901   20.4153 N   0  0  0  0  0  0
  -31.7490  -14.8616   20.0539 O   0  0  0  0  0  0
  -21.6639   -6.8893   21.4262 O   0  0  0  0  0  0
  -22.3545  -14.5556   20.6689 O   0  0  0  0  0  0
  -24.6308  -31.8531   23.1979 C   0  0  0  0  0  0
  -25.9130  -32.4746   23.8326 C   0  0  1  0  0  0
  -27.2288  -27.2643   20.1397 C   0  0  0  0  0  0
  -25.5923  -33.8548   24.2250 N   0  0  0  0  0  0
  -23.4284  -30.4739   21.5396 C   0  0  2  0  0  0
  -24.8792  -28.9199   20.1096 C   0  0  0  0  0  0
  -22.7491  -29.4584   22.4901 C   0  0  0  0  0  0
  -18.0278  -28.1382   22.8477 C   0  0  0  0  0  0
  -24.1489  -36.7281   23.2648 C   0  0  0  0  0  0
  -25.9737  -30.7694   21.3758 C   0  0  0  0  0  0
  -26.0491  -29.3926   20.7172 C   0  0  0  0  0  0
  -27.2263  -28.5787   20.7168 C   0  0  0  0  0  0
  -26.0354  -26.8545   19.5039 C   0  0  0  0  0  0
  -24.8778  -27.6591   19.4910 C   0  0  0  0  0  0
  -23.6484  -29.8057   20.1566 C   0  0  0  0  0  0
  -25.4117  -36.3069   24.0336 C   0  0  1  0  0  0
  -20.5881  -28.3686   23.1267 C   0  0  2  0  0  0
  -20.6771  -26.9401   22.5406 C   0  0  0  0  0  0
  -19.5763  -26.6374   21.5201 C   0  0  0  0  0  0
  -18.1935  -26.7924   22.1606 C   0  0  0  0  0  0
  -19.1532  -28.8851   23.2867 C   0  0  0  0  0  0
  -18.9462  -30.1452   23.8890 C   0  0  0  0  0  0
  -17.6467  -30.6587   24.0555 C   0  0  0  0  0  0
  -25.9051  -34.9436   23.5096 C   0  0  0  0  0  0
  -16.5353  -29.9085   23.6338 C   0  0  0  0  0  0
  -16.7267  -28.6498   23.0360 C   0  0  0  0  0  0
  -26.4496  -31.6585   25.0721 C   0  0  0  0  0  0
  -25.3715  -31.3732   26.1440 C   0  0  0  0  0  0
  -27.0366  -30.3016   24.6210 C   0  0  0  0  0  0
  -27.6058  -32.4327   25.7481 C   0  0  0  0  0  0
  -27.5574  -37.1795   24.8466 C   0  0  0  0  0  0
  -21.4192  -29.3038   22.3654 N   0  0  0  0  0  0
  -26.4287  -37.3770   23.9408 N   0  0  0  0  0  0
  -24.6967  -31.0494   22.0949 N   0  0  0  0  0  0
  -23.4179  -28.8130   23.3009 O   0  0  0  0  0  0
  -28.3339  -26.3856   20.2158 O   0  0  0  0  0  0
  -26.5622  -34.8915   22.4661 O   0  0  0  0  0  0
  -23.5458  -32.1343   23.7280 O   0  0  0  0  0  0
  -29.5138  -21.5930   19.2061 C   0  0  0  0  0  0
  -29.2200  -22.3025   20.4188 C   0  0  0  0  0  0
  -29.0242  -21.2002   21.2677 C   0  0  0  0  0  0
  -28.6192  -21.1776   22.7082 C   0  0  0  0  0  0
  -30.6102  -24.3747   19.9700 C   0  0  0  0  0  0
  -29.4565  -24.2107   22.1482 C   0  0  0  0  0  0
  -29.6170  -15.8837   22.4466 C   0  0  0  0  0  0
  -29.2722  -18.5259   21.1350 C   0  0  0  0  0  0
  -30.0099  -17.2698   20.4046 C   0  0  0  0  0  0
  -28.1436  -24.8946   20.0971 C   0  0  0  0  0  0
  -29.3049  -23.9049   20.6446 C   0  0  0  0  0  0
  -29.5712  -20.2553   19.3158 N   0  0  0  0  0  0
  -29.3127  -19.9681   20.6104 N   0  0  0  0  0  0
  -29.9234  -15.8498   21.0096 N   0  0  0  0  0  0
  -31.4768  -12.5849   19.1855 H   0  0  0  0  0  0
  -30.3859  -11.4723   19.9447 H   0  0  0  0  0  0
  -29.8044  -11.7639   17.5183 H   0  0  0  0  0  0
  -29.6468  -13.4868   17.7383 H   0  0  0  0  0  0
  -27.8874  -11.2951   18.8812 H   0  0  0  0  0  0
  -27.3878  -12.5617   17.7919 H   0  0  0  0  0  0
  -27.6539  -14.2603   19.5050 H   0  0  0  0  0  0
  -28.7182  -12.0953   21.3782 H   0  0  0  0  0  0
  -28.3581  -13.7313   21.8259 H   0  0  0  0  0  0
  -25.2781   -9.5695   22.4755 H   0  0  0  0  0  0
  -24.0009   -7.4647   22.7477 H   0  0  0  0  0  0
  -21.0835   -8.8789   19.8954 H   0  0  0  0  0  0
  -22.3704  -10.9687   19.6161 H   0  0  0  0  0  0
  -21.2006   -7.6156   23.9754 H   0  0  0  0  0  0
  -21.1470   -6.0518   25.9094 H   0  0  0  0  0  0
  -22.0594   -2.7623   23.2862 H   0  0  0  0  0  0
  -22.4094  -11.9920   22.4807 H   0  0  0  0  0  0
  -21.1115  -13.1299   22.2593 H   0  0  0  0  0  0
  -24.6662  -15.8497   20.5400 H   0  0  0  0  0  0
  -26.2963  -15.6329   20.1446 H   0  0  0  0  0  0
  -26.7192  -32.5395   23.1063 H   0  0  0  0  0  0
  -25.0077  -33.9681   25.0401 H   0  0  0  0  0  0
  -22.7254  -31.2954   21.3903 H   0  0  0  0  0  0
  -23.3756  -35.9604   23.3307 H   0  0  0  0  0  0
  -24.3586  -36.8899   22.2060 H   0  0  0  0  0  0
  -23.7224  -37.6480   23.6666 H   0  0  0  0  0  0
  -26.1082  -31.5305   20.6065 H   0  0  0  0  0  0
  -26.8527  -30.8197   22.0066 H   0  0  0  0  0  0
  -28.1224  -28.9352   21.2059 H   0  0  0  0  0  0
  -25.9711  -25.8862   19.0290 H   0  0  0  0  0  0
  -23.9823  -27.2882   19.0119 H   0  0  0  0  0  0
  -23.7707  -30.5802   19.3988 H   0  0  0  0  0  0
  -22.7690  -29.2354   19.8538 H   0  0  0  0  0  0
  -25.1297  -36.1927   25.0829 H   0  0  0  0  0  0
  -20.9965  -28.3264   24.1392 H   0  0  0  0  0  0
  -20.5665  -26.2287   23.3601 H   0  0  0  0  0  0
  -21.6643  -26.7430   22.1205 H   0  0  0  0  0  0
  -19.6931  -25.6284   21.1241 H   0  0  0  0  0  0
  -19.6724  -27.3171   20.6723 H   0  0  0  0  0  0
  -17.4203  -26.6655   21.4010 H   0  0  0  0  0  0
  -18.0347  -26.0065   22.9006 H   0  0  0  0  0  0
  -19.7943  -30.7255   24.2264 H   0  0  0  0  0  0
  -17.5031  -31.6279   24.5139 H   0  0  0  0  0  0
  -15.5358  -30.2992   23.7683 H   0  0  0  0  0  0
  -15.8653  -28.0822   22.7099 H   0  0  0  0  0  0
  -24.5887  -30.7088   25.7762 H   0  0  0  0  0  0
  -24.8906  -32.2898   26.4872 H   0  0  0  0  0  0
  -25.8026  -30.8899   27.0216 H   0  0  0  0  0  0
  -26.2968  -29.6737   24.1237 H   0  0  0  0  0  0
  -27.4070  -29.7310   25.4739 H   0  0  0  0  0  0
  -27.8821  -30.4323   23.9451 H   0  0  0  0  0  0
  -27.2691  -33.3646   26.2034 H   0  0  0  0  0  0
  -28.3871  -32.6851   25.0297 H   0  0  0  0  0  0
  -28.0716  -31.8458   26.5405 H   0  0  0  0  0  0
  -28.2600  -38.0089   24.7519 H   0  0  0  0  0  0
  -28.1065  -36.2619   24.6291 H   0  0  0  0  0  0
  -27.2294  -37.1444   25.8872 H   0  0  0  0  0  0
  -20.9368  -29.8751   21.6856 H   0  0  0  0  0  0
  -26.0173  -38.2845   24.1420 H   0  0  0  0  0  0
  -29.7521  -22.0228   18.2427 H   0  0  0  0  0  0
  -29.4731  -21.3683   23.3582 H   0  0  0  0  0  0
  -28.1910  -20.2173   22.9933 H   0  0  0  0  0  0
  -27.8526  -21.9235   22.9107 H   0  0  0  0  0  0
  -31.4774  -23.8377   20.3567 H   0  0  0  0  0  0
  -30.7899  -25.4376   20.1399 H   0  0  0  0  0  0
  -30.5816  -24.2252   18.8908 H   0  0  0  0  0  0
  -28.5406  -24.0085   22.7002 H   0  0  0  0  0  0
  -29.6874  -25.2632   22.3159 H   0  0  0  0  0  0
  -30.2628  -23.6309   22.5986 H   0  0  0  0  0  0
  -30.2713  -16.5868   22.9621 H   0  0  0  0  0  0
  -29.7719  -14.9274   22.9499 H   0  0  0  0  0  0
  -28.5815  -16.1825   22.6150 H   0  0  0  0  0  0
  -29.6736  -18.5849   22.1450 H   0  0  0  0  0  0
  -28.2181  -18.2738   21.2585 H   0  0  0  0  0  0
  -31.0666  -17.5183   20.3008 H   0  0  0  0  0  0
  -29.6249  -17.2036   19.3876 H   0  0  0  0  0  0
  -27.2186  -24.6248   20.6081 H   0  0  0  0  0  0
  -27.9830  -24.6735   19.0420 H   0  0  0  0  0  0
  1 25  1  0  0  0
  1 30  2  0  0  0
  1 84  1  0  0  0
  2  3  1  0  0  0
  2 25  1  0  0  0
  2 85  1  0  0  0
  2 86  1  0  0  0
  3  4  1  0  0  0
  3 87  1  0  0  0
  3 88  1  0  0  0
  4  5  1  0  0  0
  4 89  1  0  0  0
  4 90  1  0  0  0
  5  6  1  0  0  0
  5 26  1  0  0  0
  5 91  1  0  0  0
  6 25  1  0  0  0
  6 92  1  0  0  0
  6 93  1  0  0  0
  7  8  2  0  0  0
  7 26  1  0  0  0
  7 29  1  0  0  0
  8  9  1  0  0  0
  8 22  1  0  0  0
  9 10  1  0  0  0
  9 27  2  0  0  0
 10 11  2  0  0  0
 10 15  1  0  0  0
 11 12  1  0  0  0
 11 94  1  0  0  0
 12 13  2  0  0  0
 12 95  1  0  0  0
 13 14  1  0  0  0
 13 31  1  0  0  0
 14 15  2  0  0  0
 14 96  1  0  0  0
 15 97  1  0  0  0
 16 17  2  0  0  0
 16 21  1  0  0  0
 16 31  1  0  0  0
 17 18  1  0  0  0
 17 98  1  0  0  0
 18 19  2  0  0  0
 18 99  1  0  0  0
 19 20  1  0  0  0
 19 24  1  0  0  0
 20 21  2  0  0  0
 20100  1  0  0  0
 21 23  1  0  0  0
 22 28  1  0  0  0
 22 32  2  0  0  0
 26 27  1  0  0  0
 28101  1  0  0  0
 28102  1  0  0  0
 29103  1  0  0  0
 29104  1  0  0  0
 33 34  1  0  0  0
 33 66  1  0  0  0
 33 70  2  0  0  0
 34 36  1  0  0  0
 34 59  1  0  0  0
 34105  1  0  0  0
 35 44  2  0  0  0
 35 45  1  0  0  0
 35 68  1  0  0  0
 36 56  1  0  0  0
 36106  1  0  0  0
 37 39  1  0  0  0
 37 47  1  0  0  0
 37 66  1  0  0  0
 37107  1  0  0  0
 38 43  2  0  0  0
 38 46  1  0  0  0
 38 47  1  0  0  0
 39 64  1  0  0  0
 39 67  2  0  0  0
 40 52  1  0  0  0
 40 53  2  0  0  0
 40 58  1  0  0  0
 41108  1  0  0  0
 41109  1  0  0  0
 41110  1  0  0  0
 41 48  1  0  0  0
 42 43  1  0  0  0
 42 66  1  0  0  0
 42111  1  0  0  0
 42112  1  0  0  0
 43 44  1  0  0  0
 44113  1  0  0  0
 45 46  2  0  0  0
 45114  1  0  0  0
 46115  1  0  0  0
 47116  1  0  0  0
 47117  1  0  0  0
 48 56  1  0  0  0
 48 65  1  0  0  0
 48118  1  0  0  0
 49 50  1  0  0  0
 49 53  1  0  0  0
 49 64  1  0  0  0
 49119  1  0  0  0
 50 51  1  0  0  0
 50120  1  0  0  0
 50121  1  0  0  0
 51 52  1  0  0  0
 51122  1  0  0  0
 51123  1  0  0  0
 52124  1  0  0  0
 52125  1  0  0  0
 53 54  1  0  0  0
 54 55  2  0  0  0
 54126  1  0  0  0
 55 57  1  0  0  0
 55127  1  0  0  0
 56 69  2  0  0  0
 57 58  2  0  0  0
 57128  1  0  0  0
 58129  1  0  0  0
 59 60  1  0  0  0
 59 61  1  0  0  0
 59 62  1  0  0  0
 60130  1  0  0  0
 60131  1  0  0  0
 60132  1  0  0  0
 61133  1  0  0  0
 61134  1  0  0  0
 61135  1  0  0  0
 62136  1  0  0  0
 62137  1  0  0  0
 62138  1  0  0  0
 63 65  1  0  0  0
 63139  1  0  0  0
 63140  1  0  0  0
 63141  1  0  0  0
 64142  1  0  0  0
 65143  1  0  0  0
 68 80  1  0  0  0
 71 72  1  0  0  0
 71 82  2  0  0  0
 71144  1  0  0  0
 72 73  2  0  0  0
 72 81  1  0  0  0
 73 74  1  0  0  0
 73 83  1  0  0  0
 74145  1  0  0  0
 74146  1  0  0  0
 74147  1  0  0  0
 75148  1  0  0  0
 75149  1  0  0  0
 75150  1  0  0  0
 75 81  1  0  0  0
 76 81  1  0  0  0
 76151  1  0  0  0
 76152  1  0  0  0
 76153  1  0  0  0
 77 84  1  0  0  0
 77154  1  0  0  0
 77155  1  0  0  0
 77156  1  0  0  0
 78 79  1  0  0  0
 78 83  1  0  0  0
 78157  1  0  0  0
 78158  1  0  0  0
 79 84  1  0  0  0
 79159  1  0  0  0
 79160  1  0  0  0
 80 81  1  0  0  0
 80161  1  0  0  0
 80162  1  0  0  0
 82 83  1  0  0  0
M  ISO  4   1 100  68 101  80 101  84 100
M  END
> <chiral flag>
0

> <version>
0

> <s_m_source_file>
/data/baiqing/PycharmProjects/Reinvent-master-3.2/result/LINK_invent/BTK/process_docking_weight1_custom_sum_contain_oxygen_bond_distance_aromatic_linkinvent_7_9_3/rearranged_h_0071.sdf

> <i_m_source_file_index>
6

> <r_mmod_Potential_Energy-OPLS-2005>
292.329284667969

> <r_mmod_Stretch_Energy-OPLS-2005>
138.104309082031

> <r_mmod_Bend_Energy-OPLS-2005>
177.040130615234

> <r_mmod_Torsional_Energy-OPLS-2005>
289.041900634766

> <r_mmod_Improper_Torsional_Energy-OPLS-2005>
7.64927101135254

> <r_mmod_Van_der_Waal_Energy-OPLS-2005>
124.481735229492

> <r_mmod_Electrostatic_Energy-OPLS-2005>
-314.444580078125

> <r_mmod_Solvation_Energy-OPLS-2005>
-206.721496582031

> <b_mmod_Minimization_Converged-OPLS-2005>
0

> <r_mmod_RMS_Derivative-OPLS-2005>
1.86211979389191

$$$$
6
                    3D
 Structure written by MMmdl.
167175  0  0  1  0            999 V2000
  -30.6108  -14.8560   20.5608 C   0  0  0  0  0  0
  -30.4406  -12.5564   19.4951 C   0  0  0  0  0  0
  -29.5208  -12.5403   18.2471 C   0  0  0  0  0  0
  -28.0441  -12.3329   18.6409 C   0  0  0  0  0  0
  -27.6371  -13.2145   19.8437 C   0  0  2  0  0  0
  -28.6814  -13.1383   20.9790 C   0  0  0  0  0  0
  -25.2517  -13.8115   20.5714 C   0  0  0  0  0  0
  -24.1786  -13.0365   20.9250 C   0  0  0  0  0  0
  -24.6377  -11.6867   20.8735 C   0  0  0  0  0  0
  -23.9064  -10.4255   21.0402 C   0  0  0  0  0  0
  -24.3610   -9.4152   21.9140 C   0  0  0  0  0  0
  -23.6273   -8.2200   22.0711 C   0  0  0  0  0  0
  -22.4242   -8.0279   21.3535 C   0  0  0  0  0  0
  -21.9910   -9.0258   20.4635 C   0  0  0  0  0  0
  -22.7250  -10.2122   20.3048 C   0  0  0  0  0  0
  -21.6830   -6.0735   22.5292 C   0  0  0  0  0  0
  -21.4024   -6.5619   23.8243 C   0  0  0  0  0  0
  -21.3677   -5.6732   24.9176 C   0  0  0  0  0  0
  -21.6049   -4.3006   24.7206 C   0  0  0  0  0  0
  -21.8830   -3.8135   23.4326 C   0  0  0  0  0  0
  -21.9190   -4.6970   22.3394 C   0  0  0  0  0  0
  -22.7827  -13.5237   21.1839 C   0  0  0  0  0  0
  -22.1644   -4.2168   21.0964 F   0  0  0  0  0  0
  -21.5627   -3.4487   25.7718 F   0  0  0  0  0  0
  -29.9729  -13.6088   20.4486 N   0  0  0  0  0  0
  -26.2888  -12.9268   20.3195 N   0  0  0  0  0  0
  -25.9291  -11.6439   20.5675 N   0  0  0  0  0  0
  -22.0388  -12.8304   22.0414 N   0  0  0  0  0  0
  -25.4165  -15.1808   20.4187 N   0  0  0  0  0  0
  -31.6889  -14.9399   19.9563 O   0  0  0  0  0  0
  -21.6607   -6.8876   21.4248 O   0  0  0  0  0  0
  -22.3541  -14.5483   20.6596 O   0  0  0  0  0  0
  -24.6381  -31.8465   23.1938 C   0  0  0  0  0  0
  -25.9234  -32.4708   23.8264 C   0  0  1  0  0  0
  -27.1797  -27.1694   20.1929 C   0  0  0  0  0  0
  -25.6015  -33.8497   24.2208 N   0  0  0  0  0  0
  -23.4351  -30.4739   21.5338 C   0  0  2  0  0  0
  -24.8770  -28.9058   20.1059 C   0  0  0  0  0  0
  -22.7544  -29.4604   22.4855 C   0  0  0  0  0  0
  -18.0312  -28.1410   22.8487 C   0  0  0  0  0  0
  -24.1489  -36.7220   23.2645 C   0  0  0  0  0  0
  -25.9848  -30.7394   21.3794 C   0  0  0  0  0  0
  -26.0462  -29.3508   20.7308 C   0  0  0  0  0  0
  -27.1975  -28.4959   20.7588 C   0  0  0  0  0  0
  -25.9844  -26.7970   19.5382 C   0  0  0  0  0  0
  -24.8540  -27.6403   19.4962 C   0  0  0  0  0  0
  -23.6590  -29.8115   20.1464 C   0  0  0  0  0  0
  -25.4126  -36.2995   24.0310 C   0  0  1  0  0  0
  -20.5918  -28.3730   23.1238 C   0  0  2  0  0  0
  -20.6795  -26.9436   22.5393 C   0  0  0  0  0  0
  -19.5760  -26.6400   21.5216 C   0  0  0  0  0  0
  -18.1955  -26.7956   22.1632 C   0  0  0  0  0  0
  -19.1575  -28.8885   23.2853 C   0  0  0  0  0  0
  -18.9495  -30.1494   23.8872 C   0  0  0  0  0  0
  -17.6492  -30.6607   24.0578 C   0  0  0  0  0  0
  -25.9075  -34.9389   23.5041 C   0  0  0  0  0  0
  -16.5379  -29.9101   23.6345 C   0  0  0  0  0  0
  -16.7305  -28.6524   23.0361 C   0  0  0  0  0  0
  -26.4591  -31.6564   25.0681 C   0  0  0  0  0  0
  -25.3844  -31.3746   26.1439 C   0  0  0  0  0  0
  -27.0491  -30.2982   24.6222 C   0  0  0  0  0  0
  -27.6104  -32.4352   25.7493 C   0  0  0  0  0  0
  -27.5564  -37.1758   24.8475 C   0  0  0  0  0  0
  -21.4238  -29.3044   22.3589 N   0  0  0  0  0  0
  -26.4268  -37.3726   23.9427 N   0  0  0  0  0  0
  -24.7065  -31.0431   22.0918 N   0  0  0  0  0  0
  -23.4229  -28.8152   23.2977 O   0  0  0  0  0  0
  -28.2493  -26.2403   20.3521 O   0  0  0  0  0  0
  -26.5620  -34.8882   22.4597 O   0  0  0  0  0  0
  -23.5535  -32.1315   23.7227 O   0  0  0  0  0  0
  -30.2147  -20.1170   21.2999 C   0  0  0  0  0  0
  -29.1670  -20.5264   20.4196 C   0  0  0  0  0  0
  -28.8791  -18.1645   20.0248 C   0  0  0  0  0  0
  -29.9570  -17.7274   20.8829 C   0  0  0  0  0  0
  -27.7624  -17.2764   17.9006 C   0  0  0  0  0  0
  -29.0862  -15.9467   22.4791 C   0  0  0  0  0  0
  -31.4940  -16.2704   22.3955 C   0  0  0  0  0  0
  -26.7134  -23.0146   20.9379 C   0  0  0  0  0  0
  -28.8579  -23.4963   22.0983 C   0  0  0  0  0  0
  -28.8475  -22.0351   19.8916 C   0  0  0  0  0  0
  -27.8823  -17.2067   19.4258 C   0  0  0  0  0  0
  -28.2923  -24.7878   19.8634 C   0  0  0  0  0  0
  -30.2280  -16.1982   21.4770 C   0  0  0  0  0  0
  -28.2122  -23.3457   20.6983 C   0  0  0  0  0  0
  -30.5708  -18.7909   21.5265 N   0  0  0  0  0  0
  -28.5275  -19.4879   19.7983 N   0  0  0  0  0  0
  -31.4756  -12.6942   19.1825 H   0  0  0  0  0  0
  -30.4338  -11.5797   19.9796 H   0  0  0  0  0  0
  -29.8297  -11.7458   17.5680 H   0  0  0  0  0  0
  -29.6261  -13.4739   17.6911 H   0  0  0  0  0  0
  -27.9009  -11.2805   18.8853 H   0  0  0  0  0  0
  -27.4015  -12.5324   17.7810 H   0  0  0  0  0  0
  -27.6258  -14.2222   19.4530 H   0  0  0  0  0  0
  -28.7653  -12.1122   21.3337 H   0  0  0  0  0  0
  -28.3197  -13.6747   21.8395 H   0  0  0  0  0  0
  -25.2783   -9.5602   22.4650 H   0  0  0  0  0  0
  -23.9996   -7.4584   22.7406 H   0  0  0  0  0  0
  -21.0860   -8.8818   19.8931 H   0  0  0  0  0  0
  -22.3754  -10.9655   19.6134 H   0  0  0  0  0  0
  -21.2011   -7.6113   23.9789 H   0  0  0  0  0  0
  -21.1472   -6.0414   25.9083 H   0  0  0  0  0  0
  -22.0591   -2.7612   23.2789 H   0  0  0  0  0  0
  -22.4004  -12.0083   22.5005 H   0  0  0  0  0  0
  -21.0998  -13.1389   22.2464 H   0  0  0  0  0  0
  -24.6413  -15.8261   20.5296 H   0  0  0  0  0  0
  -26.2468  -15.6168   20.0465 H   0  0  0  0  0  0
  -26.7304  -32.5315   23.0979 H   0  0  0  0  0  0
  -25.0258  -33.9600   25.0424 H   0  0  0  0  0  0
  -22.7351  -31.2979   21.3893 H   0  0  0  0  0  0
  -23.3725  -35.9576   23.3298 H   0  0  0  0  0  0
  -24.3571  -36.8861   22.2065 H   0  0  0  0  0  0
  -23.7271  -37.6425   23.6684 H   0  0  0  0  0  0
  -26.1307  -31.4913   20.6027 H   0  0  0  0  0  0
  -26.8597  -30.7879   22.0146 H   0  0  0  0  0  0
  -28.0834  -28.8229   21.2858 H   0  0  0  0  0  0
  -25.8629  -25.8156   19.1080 H   0  0  0  0  0  0
  -23.9514  -27.2889   19.0177 H   0  0  0  0  0  0
  -23.8034  -30.5909   19.3953 H   0  0  0  0  0  0
  -22.7688  -29.2626   19.8326 H   0  0  0  0  0  0
  -25.1308  -36.1787   25.0794 H   0  0  0  0  0  0
  -21.0036  -28.3325   24.1350 H   0  0  0  0  0  0
  -20.5733  -26.2341   23.3611 H   0  0  0  0  0  0
  -21.6658  -26.7472   22.1165 H   0  0  0  0  0  0
  -19.6891  -25.6308   21.1258 H   0  0  0  0  0  0
  -19.6692  -27.3190   20.6736 H   0  0  0  0  0  0
  -17.4226  -26.6735   21.4031 H   0  0  0  0  0  0
  -18.0318  -26.0123   22.9045 H   0  0  0  0  0  0
  -19.7978  -30.7332   24.2208 H   0  0  0  0  0  0
  -17.5053  -31.6281   24.5177 H   0  0  0  0  0  0
  -15.5377  -30.2998   23.7689 H   0  0  0  0  0  0
  -15.8717  -28.0852   22.7057 H   0  0  0  0  0  0
  -24.5960  -30.7149   25.7793 H   0  0  0  0  0  0
  -24.9125  -32.2955   26.4884 H   0  0  0  0  0  0
  -25.8195  -30.8915   27.0209 H   0  0  0  0  0  0
  -26.3108  -29.6680   24.1262 H   0  0  0  0  0  0
  -27.4201  -29.7293   25.4763 H   0  0  0  0  0  0
  -27.8957  -30.4235   23.9467 H   0  0  0  0  0  0
  -27.2643  -33.3659   26.2007 H   0  0  0  0  0  0
  -28.3970  -32.6938   25.0382 H   0  0  0  0  0  0
  -28.0729  -31.8555   26.5497 H   0  0  0  0  0  0
  -28.2565  -38.0067   24.7524 H   0  0  0  0  0  0
  -28.1072  -36.2598   24.6283 H   0  0  0  0  0  0
  -27.2293  -37.1396   25.8880 H   0  0  0  0  0  0
  -20.9431  -29.8768   21.6789 H   0  0  0  0  0  0
  -26.0100  -38.2768   24.1476 H   0  0  0  0  0  0
  -30.7852  -20.8700   21.8207 H   0  0  0  0  0  0
  -26.9683  -16.6121   17.5586 H   0  0  0  0  0  0
  -28.6879  -16.9773   17.4109 H   0  0  0  0  0  0
  -27.5028  -18.2833   17.5678 H   0  0  0  0  0  0
  -28.1193  -15.8548   21.9924 H   0  0  0  0  0  0
  -29.0011  -16.7749   23.1859 H   0  0  0  0  0  0
  -29.2757  -15.0636   23.0861 H   0  0  0  0  0  0
  -31.3657  -16.9329   23.2548 H   0  0  0  0  0  0
  -32.3761  -16.6179   21.8540 H   0  0  0  0  0  0
  -31.7456  -15.2949   22.8197 H   0  0  0  0  0  0
  -26.5928  -22.0531   21.4426 H   0  0  0  0  0  0
  -26.1567  -22.9469   19.9993 H   0  0  0  0  0  0
  -26.2140  -23.7638   21.5537 H   0  0  0  0  0  0
  -28.7084  -22.6043   22.7136 H   0  0  0  0  0  0
  -28.4076  -24.3249   22.6478 H   0  0  0  0  0  0
  -29.9336  -23.6798   22.0469 H   0  0  0  0  0  0
  -28.1658  -21.8619   19.0545 H   0  0  0  0  0  0
  -29.7587  -22.3634   19.3911 H   0  0  0  0  0  0
  -26.9213  -17.4394   19.8824 H   0  0  0  0  0  0
  -28.1485  -16.2016   19.7221 H   0  0  0  0  0  0
  -27.6380  -24.6914   18.9997 H   0  0  0  0  0  0
  -29.2859  -24.7624   19.4141 H   0  0  0  0  0  0
  1 25  1  0  0  0
  1 30  2  0  0  0
  1 83  1  0  0  0
  2  3  1  0  0  0
  2 25  1  0  0  0
  2 87  1  0  0  0
  2 88  1  0  0  0
  3  4  1  0  0  0
  3 89  1  0  0  0
  3 90  1  0  0  0
  4  5  1  0  0  0
  4 91  1  0  0  0
  4 92  1  0  0  0
  5  6  1  0  0  0
  5 26  1  0  0  0
  5 93  1  0  0  0
  6 25  1  0  0  0
  6 94  1  0  0  0
  6 95  1  0  0  0
  7  8  2  0  0  0
  7 26  1  0  0  0
  7 29  1  0  0  0
  8  9  1  0  0  0
  8 22  1  0  0  0
  9 10  1  0  0  0
  9 27  2  0  0  0
 10 11  2  0  0  0
 10 15  1  0  0  0
 11 12  1  0  0  0
 11 96  1  0  0  0
 12 13  2  0  0  0
 12 97  1  0  0  0
 13 14  1  0  0  0
 13 31  1  0  0  0
 14 15  2  0  0  0
 14 98  1  0  0  0
 15 99  1  0  0  0
 16 17  2  0  0  0
 16 21  1  0  0  0
 16 31  1  0  0  0
 17 18  1  0  0  0
 17100  1  0  0  0
 18 19  2  0  0  0
 18101  1  0  0  0
 19 20  1  0  0  0
 19 24  1  0  0  0
 20 21  2  0  0  0
 20102  1  0  0  0
 21 23  1  0  0  0
 22 28  1  0  0  0
 22 32  2  0  0  0
 26 27  1  0  0  0
 28103  1  0  0  0
 28104  1  0  0  0
 29105  1  0  0  0
 29106  1  0  0  0
 33 34  1  0  0  0
 33 66  1  0  0  0
 33 70  2  0  0  0
 34 36  1  0  0  0
 34 59  1  0  0  0
 34107  1  0  0  0
 35 44  2  0  0  0
 35 45  1  0  0  0
 35 68  1  0  0  0
 36 56  1  0  0  0
 36108  1  0  0  0
 37 39  1  0  0  0
 37 47  1  0  0  0
 37 66  1  0  0  0
 37109  1  0  0  0
 38 43  2  0  0  0
 38 46  1  0  0  0
 38 47  1  0  0  0
 39 64  1  0  0  0
 39 67  2  0  0  0
 40 52  1  0  0  0
 40 53  2  0  0  0
 40 58  1  0  0  0
 41110  1  0  0  0
 41111  1  0  0  0
 41112  1  0  0  0
 41 48  1  0  0  0
 42 43  1  0  0  0
 42 66  1  0  0  0
 42113  1  0  0  0
 42114  1  0  0  0
 43 44  1  0  0  0
 44115  1  0  0  0
 45 46  2  0  0  0
 45116  1  0  0  0
 46117  1  0  0  0
 47118  1  0  0  0
 47119  1  0  0  0
 48 56  1  0  0  0
 48 65  1  0  0  0
 48120  1  0  0  0
 49 50  1  0  0  0
 49 53  1  0  0  0
 49 64  1  0  0  0
 49121  1  0  0  0
 50 51  1  0  0  0
 50122  1  0  0  0
 50123  1  0  0  0
 51 52  1  0  0  0
 51124  1  0  0  0
 51125  1  0  0  0
 52126  1  0  0  0
 52127  1  0  0  0
 53 54  1  0  0  0
 54 55  2  0  0  0
 54128  1  0  0  0
 55 57  1  0  0  0
 55129  1  0  0  0
 56 69  2  0  0  0
 57 58  2  0  0  0
 57130  1  0  0  0
 58131  1  0  0  0
 59 60  1  0  0  0
 59 61  1  0  0  0
 59 62  1  0  0  0
 60132  1  0  0  0
 60133  1  0  0  0
 60134  1  0  0  0
 61135  1  0  0  0
 61136  1  0  0  0
 61137  1  0  0  0
 62138  1  0  0  0
 62139  1  0  0  0
 62140  1  0  0  0
 63 65  1  0  0  0
 63141  1  0  0  0
 63142  1  0  0  0
 63143  1  0  0  0
 64144  1  0  0  0
 65145  1  0  0  0
 68 82  1  0  0  0
 71 72  2  0  0  0
 71 85  1  0  0  0
 71146  1  0  0  0
 72 80  1  0  0  0
 72 86  1  0  0  0
 73 74  1  0  0  0
 73 81  1  0  0  0
 73 86  2  0  0  0
 74 83  1  0  0  0
 74 85  2  0  0  0
 75 81  1  0  0  0
 75147  1  0  0  0
 75148  1  0  0  0
 75149  1  0  0  0
 76150  1  0  0  0
 76151  1  0  0  0
 76152  1  0  0  0
 76 83  1  0  0  0
 77 83  1  0  0  0
 77153  1  0  0  0
 77154  1  0  0  0
 77155  1  0  0  0
 78156  1  0  0  0
 78157  1  0  0  0
 78158  1  0  0  0
 78 84  1  0  0  0
 79 84  1  0  0  0
 79159  1  0  0  0
 79160  1  0  0  0
 79161  1  0  0  0
 80 84  1  0  0  0
 80162  1  0  0  0
 80163  1  0  0  0
 81164  1  0  0  0
 81165  1  0  0  0
 82 84  1  0  0  0
 82166  1  0  0  0
 82167  1  0  0  0
M  ISO  4   1 100  68 101  82 101  83 100
M  END
> <chiral flag>
0

> <version>
0

> <s_m_source_file>
/data/baiqing/PycharmProjects/Reinvent-master-3.2/result/LINK_invent/BTK/process_docking_weight1_custom_sum_contain_oxygen_bond_distance_aromatic_linkinvent_7_9_3/rearranged_h_0071.sdf

> <i_m_source_file_index>
7

> <r_mmod_Potential_Energy-OPLS-2005>
601.637634277344

> <r_mmod_Stretch_Energy-OPLS-2005>
223.189849853516

> <r_mmod_Bend_Energy-OPLS-2005>
316.983642578125

> <r_mmod_Torsional_Energy-OPLS-2005>
189.643966674805

> <r_mmod_Improper_Torsional_Energy-OPLS-2005>
7.58275318145752

> <r_mmod_Van_der_Waal_Energy-OPLS-2005>
144.687347412109

> <r_mmod_Electrostatic_Energy-OPLS-2005>
-234.642822265625

> <r_mmod_Solvation_Energy-OPLS-2005>
-191.754928588867

> <b_mmod_Minimization_Converged-OPLS-2005>
0

> <r_mmod_RMS_Derivative-OPLS-2005>
8.78713512420654

$$$$
7
                    3D
 Structure written by MMmdl.
171179  0  0  1  0            999 V2000
  -30.6725  -14.5347   20.5393 C   0  0  0  0  0  0
  -30.4344  -12.3426   19.4180 C   0  0  0  0  0  0
  -29.4952  -12.5101   18.2036 C   0  0  0  0  0  0
  -28.0151  -12.3734   18.6147 C   0  0  0  0  0  0
  -27.6558  -13.2153   19.8706 C   0  0  2  0  0  0
  -28.7083  -13.0131   20.9878 C   0  0  0  0  0  0
  -25.2519  -13.8123   20.5680 C   0  0  0  0  0  0
  -24.1808  -13.0406   20.9243 C   0  0  0  0  0  0
  -24.6381  -11.6872   20.8762 C   0  0  0  0  0  0
  -23.9056  -10.4254   21.0404 C   0  0  0  0  0  0
  -24.3607   -9.4171   21.9169 C   0  0  0  0  0  0
  -23.6271   -8.2212   22.0733 C   0  0  0  0  0  0
  -22.4253   -8.0247   21.3543 C   0  0  0  0  0  0
  -21.9904   -9.0206   20.4638 C   0  0  0  0  0  0
  -22.7234  -10.2091   20.3048 C   0  0  0  0  0  0
  -21.6823   -6.0705   22.5269 C   0  0  0  0  0  0
  -21.4000   -6.5621   23.8212 C   0  0  0  0  0  0
  -21.3675   -5.6786   24.9173 C   0  0  0  0  0  0
  -21.6046   -4.3042   24.7224 C   0  0  0  0  0  0
  -21.8827   -3.8127   23.4341 C   0  0  0  0  0  0
  -21.9180   -4.6928   22.3401 C   0  0  0  0  0  0
  -22.7839  -13.5200   21.1892 C   0  0  0  0  0  0
  -22.1646   -4.2139   21.0979 F   0  0  0  0  0  0
  -21.5633   -3.4536   25.7738 F   0  0  0  0  0  0
  -30.0336  -13.3352   20.4278 N   0  0  0  0  0  0
  -26.3001  -12.9340   20.3380 N   0  0  0  0  0  0
  -25.9319  -11.6491   20.5799 N   0  0  0  0  0  0
  -22.0462  -12.8215   22.0454 N   0  0  0  0  0  0
  -25.4136  -15.1827   20.3975 N   0  0  0  0  0  0
  -31.8236  -14.7160   20.1304 O   0  0  0  0  0  0
  -21.6613   -6.8845   21.4247 O   0  0  0  0  0  0
  -22.3536  -14.5493   20.6686 O   0  0  0  0  0  0
  -24.6176  -31.8635   23.2050 C   0  0  0  0  0  0
  -25.9059  -32.4794   23.8368 C   0  0  1  0  0  0
  -27.2412  -27.3961   20.0850 C   0  0  0  0  0  0
  -25.5906  -33.8590   24.2313 N   0  0  0  0  0  0
  -23.4082  -30.4860   21.5459 C   0  0  2  0  0  0
  -24.8527  -28.9410   20.1166 C   0  0  0  0  0  0
  -22.7425  -29.4645   22.4972 C   0  0  0  0  0  0
  -18.0289  -28.1402   22.8497 C   0  0  0  0  0  0
  -24.1483  -36.7289   23.2644 C   0  0  0  0  0  0
  -25.9404  -30.8195   21.3599 C   0  0  0  0  0  0
  -26.0158  -29.4502   20.7048 C   0  0  0  0  0  0
  -27.2084  -28.6860   20.6801 C   0  0  0  0  0  0
  -26.0437  -26.8928   19.5335 C   0  0  0  0  0  0
  -24.8619  -27.6619   19.5309 C   0  0  0  0  0  0
  -23.6181  -29.8147   20.1634 C   0  0  0  0  0  0
  -25.4106  -36.3087   24.0342 C   0  0  1  0  0  0
  -20.5867  -28.3687   23.1322 C   0  0  2  0  0  0
  -20.6774  -26.9428   22.5418 C   0  0  0  0  0  0
  -19.5753  -26.6413   21.5215 C   0  0  0  0  0  0
  -18.1932  -26.7952   22.1624 C   0  0  0  0  0  0
  -19.1527  -28.8869   23.2907 C   0  0  0  0  0  0
  -18.9450  -30.1472   23.8928 C   0  0  0  0  0  0
  -17.6443  -30.6601   24.0576 C   0  0  0  0  0  0
  -25.9039  -34.9457   23.5122 C   0  0  0  0  0  0
  -16.5341  -29.9099   23.6331 C   0  0  0  0  0  0
  -16.7270  -28.6517   23.0353 C   0  0  0  0  0  0
  -26.4488  -31.6582   25.0705 C   0  0  0  0  0  0
  -25.3755  -31.3657   26.1456 C   0  0  0  0  0  0
  -27.0326  -30.3029   24.6079 C   0  0  0  0  0  0
  -27.6082  -32.4295   25.7458 C   0  0  0  0  0  0
  -27.5572  -37.1792   24.8473 C   0  0  0  0  0  0
  -21.4156  -29.3039   22.3710 N   0  0  0  0  0  0
  -26.4290  -37.3771   23.9416 N   0  0  0  0  0  0
  -24.6742  -31.0709   22.0949 N   0  0  0  0  0  0
  -23.4172  -28.8222   23.3060 O   0  0  0  0  0  0
  -28.4405  -26.6935   20.1336 O   0  0  0  0  0  0
  -26.5595  -34.8907   22.4683 O   0  0  0  0  0  0
  -23.5363  -32.1413   23.7419 O   0  0  0  0  0  0
  -29.4284  -23.0436   19.4083 C   0  0  0  0  0  0
  -28.0038  -22.4696   20.9135 C   0  0  0  0  0  0
  -28.7174  -24.1775   19.7823 C   0  0  0  0  0  0
  -29.5003  -19.7968   22.4933 C   0  0  0  0  0  0
  -30.9915  -20.4628   19.9025 C   0  0  0  0  0  0
  -28.3610  -25.7611   17.7972 C   0  0  0  0  0  0
  -30.3789  -25.9442   19.1904 C   0  0  0  0  0  0
  -27.7792  -17.3037   21.7181 C   0  0  0  0  0  0
  -28.3485  -17.6840   19.3258 C   0  0  0  0  0  0
  -30.1656  -17.0307   20.9458 C   0  0  0  0  0  0
  -28.9177  -19.4828   21.0944 C   0  0  1  0  0  0
  -29.4525  -20.5167   20.0166 C   0  0  1  0  0  0
  -28.8758  -25.6206   19.2461 C   0  0  0  0  0  0
  -28.8528  -17.9042   20.7683 C   0  0  0  0  0  0
  -27.7892  -23.7821   20.7468 N   0  0  0  0  0  0
  -28.9897  -21.9397   20.1585 N   0  0  0  0  0  0
  -29.8999  -15.5633   20.9554 N   0  0  0  0  0  0
  -31.4767  -12.4483   19.1089 H   0  0  0  0  0  0
  -30.3436  -11.3370   19.8289 H   0  0  0  0  0  0
  -29.7329  -11.7670   17.4419 H   0  0  0  0  0  0
  -29.6581  -13.4870   17.7505 H   0  0  0  0  0  0
  -27.8215  -11.3185   18.8035 H   0  0  0  0  0  0
  -27.3657  -12.6422   17.7811 H   0  0  0  0  0  0
  -27.6815  -14.2638   19.5715 H   0  0  0  0  0  0
  -28.6947  -11.9788   21.3323 H   0  0  0  0  0  0
  -28.4764  -13.6141   21.8681 H   0  0  0  0  0  0
  -25.2737   -9.5638   22.4764 H   0  0  0  0  0  0
  -23.9964   -7.4625   22.7461 H   0  0  0  0  0  0
  -21.0825   -8.8705   19.8972 H   0  0  0  0  0  0
  -22.3656  -10.9613   19.6165 H   0  0  0  0  0  0
  -21.1990   -7.6129   23.9702 H   0  0  0  0  0  0
  -21.1513   -6.0516   25.9094 H   0  0  0  0  0  0
  -22.0607   -2.7586   23.2836 H   0  0  0  0  0  0
  -22.4016  -11.9849   22.4853 H   0  0  0  0  0  0
  -21.1065  -13.1227   22.2624 H   0  0  0  0  0  0
  -24.6501  -15.8322   20.5418 H   0  0  0  0  0  0
  -26.2544  -15.6338   20.0657 H   0  0  0  0  0  0
  -26.7129  -32.5478   23.1134 H   0  0  0  0  0  0
  -25.0089  -33.9766   25.0481 H   0  0  0  0  0  0
  -22.6990  -31.3045   21.4015 H   0  0  0  0  0  0
  -23.3739  -35.9625   23.3311 H   0  0  0  0  0  0
  -24.3595  -36.8888   22.2055 H   0  0  0  0  0  0
  -23.7231  -37.6493   23.6660 H   0  0  0  0  0  0
  -26.0598  -31.5850   20.5919 H   0  0  0  0  0  0
  -26.8277  -30.8709   21.9791 H   0  0  0  0  0  0
  -28.1105  -29.0848   21.1214 H   0  0  0  0  0  0
  -25.9893  -25.8902   19.1412 H   0  0  0  0  0  0
  -23.9581  -27.2509   19.1020 H   0  0  0  0  0  0
  -23.7385  -30.5885   19.4040 H   0  0  0  0  0  0
  -22.7416  -29.2405   19.8582 H   0  0  0  0  0  0
  -25.1275  -36.1943   25.0832 H   0  0  0  0  0  0
  -20.9974  -28.3249   24.1429 H   0  0  0  0  0  0
  -20.5696  -26.2290   23.3596 H   0  0  0  0  0  0
  -21.6642  -26.7484   22.1185 H   0  0  0  0  0  0
  -19.6903  -25.6326   21.1235 H   0  0  0  0  0  0
  -19.6686  -27.3237   20.6750 H   0  0  0  0  0  0
  -17.4194  -26.6722   21.4022 H   0  0  0  0  0  0
  -18.0322  -26.0103   22.9028 H   0  0  0  0  0  0
  -19.7925  -30.7291   24.2296 H   0  0  0  0  0  0
  -17.4998  -31.6281   24.5182 H   0  0  0  0  0  0
  -15.5339  -30.3004   23.7653 H   0  0  0  0  0  0
  -15.8674  -28.0847   22.7044 H   0  0  0  0  0  0
  -24.5973  -30.6953   25.7785 H   0  0  0  0  0  0
  -24.8899  -32.2785   26.4908 H   0  0  0  0  0  0
  -25.8131  -30.8839   27.0211 H   0  0  0  0  0  0
  -26.2846  -29.6767   24.1191 H   0  0  0  0  0  0
  -27.4169  -29.7290   25.4525 H   0  0  0  0  0  0
  -27.8662  -30.4373   23.9184 H   0  0  0  0  0  0
  -27.2742  -33.3620   26.2038 H   0  0  0  0  0  0
  -28.3889  -32.6800   25.0255 H   0  0  0  0  0  0
  -28.0764  -31.8399   26.5362 H   0  0  0  0  0  0
  -28.2589  -38.0087   24.7504 H   0  0  0  0  0  0
  -28.1064  -36.2608   24.6314 H   0  0  0  0  0  0
  -27.2306  -37.1458   25.8884 H   0  0  0  0  0  0
  -20.9326  -29.8722   21.6893 H   0  0  0  0  0  0
  -26.0163  -38.2842   24.1418 H   0  0  0  0  0  0
  -30.2114  -22.9523   18.6679 H   0  0  0  0  0  0
  -27.4073  -21.8862   21.6000 H   0  0  0  0  0  0
  -29.4233  -20.8584   22.7248 H   0  0  0  0  0  0
  -30.5562  -19.5303   22.5636 H   0  0  0  0  0  0
  -28.9712  -19.2787   23.2924 H   0  0  0  0  0  0
  -31.4711  -20.8869   20.7863 H   0  0  0  0  0  0
  -31.3596  -21.0073   19.0319 H   0  0  0  0  0  0
  -31.3459  -19.4404   19.7911 H   0  0  0  0  0  0
  -28.9601  -25.1507   17.1225 H   0  0  0  0  0  0
  -28.4307  -26.7912   17.4454 H   0  0  0  0  0  0
  -27.3374  -25.4272   17.6584 H   0  0  0  0  0  0
  -30.9050  -25.2916   18.4922 H   0  0  0  0  0  0
  -30.8489  -25.8227   20.1654 H   0  0  0  0  0  0
  -30.5528  -26.9724   18.8686 H   0  0  0  0  0  0
  -26.8437  -17.8610   21.6901 H   0  0  0  0  0  0
  -28.1136  -17.2771   22.7560 H   0  0  0  0  0  0
  -27.5192  -16.2813   21.4603 H   0  0  0  0  0  0
  -28.1990  -16.6282   19.1048 H   0  0  0  0  0  0
  -29.0709  -18.0432   18.5911 H   0  0  0  0  0  0
  -27.3991  -18.1900   19.1395 H   0  0  0  0  0  0
  -30.8908  -17.2505   20.1611 H   0  0  0  0  0  0
  -30.6517  -17.2772   21.8882 H   0  0  0  0  0  0
  -27.8627  -19.7545   21.1630 H   0  0  0  0  0  0
  -29.0559  -20.2050   19.0538 H   0  0  0  0  0  0
  -28.9667  -15.3008   21.2364 H   0  0  0  0  0  0
  1 25  1  0  0  0
  1 30  2  0  0  0
  1 87  1  0  0  0
  2  3  1  0  0  0
  2 25  1  0  0  0
  2 88  1  0  0  0
  2 89  1  0  0  0
  3  4  1  0  0  0
  3 90  1  0  0  0
  3 91  1  0  0  0
  4  5  1  0  0  0
  4 92  1  0  0  0
  4 93  1  0  0  0
  5  6  1  0  0  0
  5 26  1  0  0  0
  5 94  1  0  0  0
  6 25  1  0  0  0
  6 95  1  0  0  0
  6 96  1  0  0  0
  7  8  2  0  0  0
  7 26  1  0  0  0
  7 29  1  0  0  0
  8  9  1  0  0  0
  8 22  1  0  0  0
  9 10  1  0  0  0
  9 27  2  0  0  0
 10 11  2  0  0  0
 10 15  1  0  0  0
 11 12  1  0  0  0
 11 97  1  0  0  0
 12 13  2  0  0  0
 12 98  1  0  0  0
 13 14  1  0  0  0
 13 31  1  0  0  0
 14 15  2  0  0  0
 14 99  1  0  0  0
 15100  1  0  0  0
 16 17  2  0  0  0
 16 21  1  0  0  0
 16 31  1  0  0  0
 17 18  1  0  0  0
 17101  1  0  0  0
 18 19  2  0  0  0
 18102  1  0  0  0
 19 20  1  0  0  0
 19 24  1  0  0  0
 20 21  2  0  0  0
 20103  1  0  0  0
 21 23  1  0  0  0
 22 28  1  0  0  0
 22 32  2  0  0  0
 26 27  1  0  0  0
 28104  1  0  0  0
 28105  1  0  0  0
 29106  1  0  0  0
 29107  1  0  0  0
 33 34  1  0  0  0
 33 66  1  0  0  0
 33 70  2  0  0  0
 34 36  1  0  0  0
 34 59  1  0  0  0
 34108  1  0  0  0
 35 44  2  0  0  0
 35 45  1  0  0  0
 35 68  1  0  0  0
 36 56  1  0  0  0
 36109  1  0  0  0
 37 39  1  0  0  0
 37 47  1  0  0  0
 37 66  1  0  0  0
 37110  1  0  0  0
 38 43  2  0  0  0
 38 46  1  0  0  0
 38 47  1  0  0  0
 39 64  1  0  0  0
 39 67  2  0  0  0
 40 52  1  0  0  0
 40 53  2  0  0  0
 40 58  1  0  0  0
 41111  1  0  0  0
 41112  1  0  0  0
 41113  1  0  0  0
 41 48  1  0  0  0
 42 43  1  0  0  0
 42 66  1  0  0  0
 42114  1  0  0  0
 42115  1  0  0  0
 43 44  1  0  0  0
 44116  1  0  0  0
 45 46  2  0  0  0
 45117  1  0  0  0
 46118  1  0  0  0
 47119  1  0  0  0
 47120  1  0  0  0
 48 56  1  0  0  0
 48 65  1  0  0  0
 48121  1  0  0  0
 49 50  1  0  0  0
 49 53  1  0  0  0
 49 64  1  0  0  0
 49122  1  0  0  0
 50 51  1  0  0  0
 50123  1  0  0  0
 50124  1  0  0  0
 51 52  1  0  0  0
 51125  1  0  0  0
 51126  1  0  0  0
 52127  1  0  0  0
 52128  1  0  0  0
 53 54  1  0  0  0
 54 55  2  0  0  0
 54129  1  0  0  0
 55 57  1  0  0  0
 55130  1  0  0  0
 56 69  2  0  0  0
 57 58  2  0  0  0
 57131  1  0  0  0
 58132  1  0  0  0
 59 60  1  0  0  0
 59 61  1  0  0  0
 59 62  1  0  0  0
 60133  1  0  0  0
 60134  1  0  0  0
 60135  1  0  0  0
 61136  1  0  0  0
 61137  1  0  0  0
 61138  1  0  0  0
 62139  1  0  0  0
 62140  1  0  0  0
 62141  1  0  0  0
 63 65  1  0  0  0
 63142  1  0  0  0
 63143  1  0  0  0
 63144  1  0  0  0
 64145  1  0  0  0
 65146  1  0  0  0
 68 83  1  0  0  0
 71 73  2  0  0  0
 71 86  1  0  0  0
 71147  1  0  0  0
 72 85  2  0  0  0
 72 86  1  0  0  0
 72148  1  0  0  0
 73 83  1  0  0  0
 73 85  1  0  0  0
 74149  1  0  0  0
 74150  1  0  0  0
 74151  1  0  0  0
 74 81  1  0  0  0
 75152  1  0  0  0
 75153  1  0  0  0
 75154  1  0  0  0
 75 82  1  0  0  0
 76155  1  0  0  0
 76156  1  0  0  0
 76157  1  0  0  0
 76 83  1  0  0  0
 77 83  1  0  0  0
 77158  1  0  0  0
 77159  1  0  0  0
 77160  1  0  0  0
 78161  1  0  0  0
 78162  1  0  0  0
 78163  1  0  0  0
 78 84  1  0  0  0
 79 84  1  0  0  0
 79164  1  0  0  0
 79165  1  0  0  0
 79166  1  0  0  0
 80 84  1  0  0  0
 80 87  1  0  0  0
 80167  1  0  0  0
 80168  1  0  0  0
 81 82  1  0  0  0
 81 84  1  0  0  0
 81169  1  0  0  0
 82 86  1  0  0  0
 82170  1  0  0  0
 87171  1  0  0  0
M  ISO  4   1 100  68 101  83 101  87 100
M  END
> <chiral flag>
0

> <version>
0

> <s_m_source_file>
/data/baiqing/PycharmProjects/Reinvent-master-3.2/result/LINK_invent/BTK/process_docking_weight1_custom_sum_contain_oxygen_bond_distance_aromatic_linkinvent_7_9_3/rearranged_h_0071.sdf

> <i_m_source_file_index>
8

> <r_mmod_Potential_Energy-OPLS-2005>
-5.45225143432617

> <r_mmod_Stretch_Energy-OPLS-2005>
66.677490234375

> <r_mmod_Bend_Energy-OPLS-2005>
177.595352172852

> <r_mmod_Torsional_Energy-OPLS-2005>
253.749130249023

> <r_mmod_Improper_Torsional_Energy-OPLS-2005>
4.61930131912231

> <r_mmod_Van_der_Waal_Energy-OPLS-2005>
130.327987670898

> <r_mmod_Electrostatic_Energy-OPLS-2005>
-447.116363525391

> <r_mmod_Solvation_Energy-OPLS-2005>
-212.496032714844

> <b_mmod_Minimization_Converged-OPLS-2005>
0

> <r_mmod_RMS_Derivative-OPLS-2005>
3.91903519630432

$$$$
8
                    3D
 Structure written by MMmdl.
179188  0  0  1  0            999 V2000
  -30.4221  -14.7467   20.5358 C   0  0  0  0  0  0
  -30.4096  -12.4721   19.5141 C   0  0  0  0  0  0
  -29.4992  -12.5178   18.2601 C   0  0  0  0  0  0
  -28.0247  -12.3207   18.6479 C   0  0  0  0  0  0
  -27.6022  -13.1929   19.8499 C   0  0  2  0  0  0
  -28.6163  -13.0749   21.0020 C   0  0  0  0  0  0
  -25.2227  -13.7988   20.5534 C   0  0  0  0  0  0
  -24.1696  -13.0496   20.9111 C   0  0  0  0  0  0
  -24.6222  -11.6800   20.8792 C   0  0  0  0  0  0
  -23.9000  -10.4282   21.0423 C   0  0  0  0  0  0
  -24.3530   -9.4168   21.9228 C   0  0  0  0  0  0
  -23.6221   -8.2194   22.0799 C   0  0  0  0  0  0
  -22.4210   -8.0227   21.3516 C   0  0  0  0  0  0
  -21.9798   -9.0244   20.4640 C   0  0  0  0  0  0
  -22.7154  -10.2104   20.3084 C   0  0  0  0  0  0
  -21.6837   -6.0695   22.5284 C   0  0  0  0  0  0
  -21.4019   -6.5630   23.8212 C   0  0  0  0  0  0
  -21.3657   -5.6780   24.9180 C   0  0  0  0  0  0
  -21.6020   -4.3038   24.7231 C   0  0  0  0  0  0
  -21.8829   -3.8127   23.4365 C   0  0  0  0  0  0
  -21.9196   -4.6935   22.3416 C   0  0  0  0  0  0
  -22.7674  -13.5202   21.1919 C   0  0  0  0  0  0
  -22.1655   -4.2134   21.0984 F   0  0  0  0  0  0
  -21.5628   -3.4536   25.7746 F   0  0  0  0  0  0
  -29.9021  -13.4813   20.4843 N   0  0  0  0  0  0
  -26.2660  -12.9202   20.3146 N   0  0  0  0  0  0
  -25.9129  -11.6356   20.5738 N   0  0  0  0  0  0
  -22.0388  -12.8288   22.0374 N   0  0  0  0  0  0
  -25.3855  -15.1832   20.3773 N   0  0  0  0  0  0
  -31.6358  -14.8546   20.2525 O   0  0  0  0  0  0
  -21.6617   -6.8813   21.4213 O   0  0  0  0  0  0
  -22.3381  -14.5634   20.6690 O   0  0  0  0  0  0
  -24.6151  -31.8544   23.2071 C   0  0  0  0  0  0
  -25.9166  -32.4652   23.8469 C   0  0  1  0  0  0
  -27.0379  -27.3442   20.1927 C   0  0  0  0  0  0
  -25.6175  -33.8474   24.2373 N   0  0  0  0  0  0
  -23.3863  -30.5043   21.5578 C   0  0  2  0  0  0
  -24.8451  -29.0458   20.0467 C   0  0  0  0  0  0
  -22.6884  -29.4751   22.4912 C   0  0  0  0  0  0
  -17.8438  -28.2460   22.8612 C   0  0  0  0  0  0
  -24.1560  -36.7262   23.2633 C   0  0  0  0  0  0
  -25.9332  -30.7569   21.4499 C   0  0  0  0  0  0
  -25.9644  -29.3984   20.7885 C   0  0  0  0  0  0
  -27.0501  -28.5271   20.9710 C   0  0  0  0  0  0
  -26.1938  -27.2818   19.0557 C   0  0  0  0  0  0
  -24.9603  -27.9543   19.1738 C   0  0  0  0  0  0
  -23.6379  -29.9149   20.1404 C   0  0  0  0  0  0
  -25.4209  -36.3090   24.0295 C   0  0  1  0  0  0
  -20.4590  -28.4386   23.1818 C   0  0  2  0  0  0
  -20.4943  -27.0205   22.5650 C   0  0  0  0  0  0
  -19.4163  -26.8687   21.3870 C   0  0  0  0  0  0
  -17.9777  -27.0064   21.9556 C   0  0  0  0  0  0
  -18.9903  -28.9456   23.3347 C   0  0  0  0  0  0
  -18.7804  -30.2094   23.9432 C   0  0  0  0  0  0
  -17.4803  -30.7301   24.1558 C   0  0  0  0  0  0
  -25.9115  -34.9386   23.5170 C   0  0  0  0  0  0
  -16.3616  -29.9697   23.7302 C   0  0  0  0  0  0
  -16.5345  -28.7723   23.0334 C   0  0  0  0  0  0
  -26.4575  -31.6536   25.0856 C   0  0  0  0  0  0
  -25.3658  -31.3783   26.1467 C   0  0  0  0  0  0
  -27.0362  -30.2904   24.6436 C   0  0  0  0  0  0
  -27.6082  -32.4215   25.7658 C   0  0  0  0  0  0
  -27.5602  -37.1808   24.8467 C   0  0  0  0  0  0
  -21.3282  -29.4027   22.4539 N   0  0  0  0  0  0
  -26.4361  -37.3840   23.9366 N   0  0  0  0  0  0
  -24.6452  -31.0583   22.1189 N   0  0  0  0  0  0
  -23.3814  -28.7375   23.2056 O   0  0  0  0  0  0
  -27.0862  -26.1457   20.9072 O   0  0  0  0  0  0
  -26.5545  -34.8913   22.4660 O   0  0  0  0  0  0
  -23.5426  -32.1537   23.7381 O   0  0  0  0  0  0
  -27.1012  -16.5002   23.6859 C   0  0  0  0  0  0
  -28.1129  -15.9494   22.8699 C   0  0  0  0  0  0
  -22.4567  -20.4483   22.5809 C   0  0  0  0  0  0
  -26.2417  -17.5044   23.2121 C   0  0  0  0  0  0
  -28.2477  -16.3957   21.5390 C   0  0  0  0  0  0
  -26.4041  -17.9151   21.8658 C   0  0  0  0  0  0
  -23.4991  -21.3931   22.7944 C   0  0  0  0  0  0
  -24.3587  -19.5539   21.8152 C   0  0  0  0  0  0
  -25.2586  -18.0908   24.2292 C   0  0  0  0  0  0
  -26.3877  -20.2837   20.7583 C   0  0  0  0  0  0
  -30.4911  -17.2688   21.1073 C   0  0  0  0  0  0
  -29.1698  -16.5230   19.1673 C   0  0  0  0  0  0
  -22.3811  -18.1919   21.2298 C   0  0  0  0  0  0
  -23.9556  -22.8049   23.2963 C   0  0  0  0  0  0
  -23.4851  -24.1737   22.6005 C   0  0  0  0  0  0
  -24.5126  -25.4209   22.4003 C   0  0  0  0  0  0
  -25.6732  -25.4745   21.2105 C   0  0  0  0  0  0
  -25.5562  -18.9796   21.1085 C   0  0  1  0  0  0
  -29.5383  -16.1366   20.6354 C   0  0  0  0  0  0
  -27.3914  -17.3783   21.1004 N   0  0  0  0  0  0
  -23.0326  -19.3573   21.8712 N   0  0  0  0  0  0
  -24.5743  -20.6091   22.5962 N   0  3  0  0  0  0
  -31.4462  -12.6495   19.2245 H   0  0  0  0  0  0
  -30.3849  -11.4946   19.9908 H   0  0  0  0  0  0
  -29.8220  -11.7521   17.5526 H   0  0  0  0  0  0
  -29.6287  -13.4801   17.7599 H   0  0  0  0  0  0
  -27.8827  -11.2679   18.8860 H   0  0  0  0  0  0
  -27.3816  -12.5293   17.7942 H   0  0  0  0  0  0
  -27.5896  -14.2122   19.4900 H   0  0  0  0  0  0
  -28.6573  -12.0600   21.3886 H   0  0  0  0  0  0
  -28.2985  -13.6657   21.8583 H   0  0  0  0  0  0
  -25.2666   -9.5738   22.4793 H   0  0  0  0  0  0
  -23.9987   -7.4606   22.7515 H   0  0  0  0  0  0
  -21.0734   -8.8677   19.8963 H   0  0  0  0  0  0
  -22.3536  -10.9621   19.6198 H   0  0  0  0  0  0
  -21.1988   -7.6153   23.9695 H   0  0  0  0  0  0
  -21.1475   -6.0532   25.9076 H   0  0  0  0  0  0
  -22.0604   -2.7599   23.2874 H   0  0  0  0  0  0
  -22.3847  -11.9853   22.4801 H   0  0  0  0  0  0
  -21.1075  -13.1326   22.2725 H   0  0  0  0  0  0
  -24.6298  -15.8194   20.5566 H   0  0  0  0  0  0
  -26.2697  -15.6565   20.2552 H   0  0  0  0  0  0
  -26.7115  -32.5331   23.1247 H   0  0  0  0  0  0
  -25.0643  -33.9824   25.0618 H   0  0  0  0  0  0
  -22.7527  -31.3476   21.3673 H   0  0  0  0  0  0
  -23.3789  -35.9609   23.3250 H   0  0  0  0  0  0
  -24.3606  -36.8936   22.2055 H   0  0  0  0  0  0
  -23.7269  -37.6406   23.6642 H   0  0  0  0  0  0
  -26.1510  -31.4688   20.6569 H   0  0  0  0  0  0
  -26.7976  -30.7749   22.0829 H   0  0  0  0  0  0
  -27.6248  -28.5750   21.8946 H   0  0  0  0  0  0
  -26.3710  -26.5917   18.2066 H   0  0  0  0  0  0
  -24.1076  -27.6774   18.5334 H   0  0  0  0  0  0
  -23.8630  -30.6792   19.3870 H   0  0  0  0  0  0
  -22.7812  -29.3865   19.7517 H   0  0  0  0  0  0
  -25.1325  -36.1864   25.0719 H   0  0  0  0  0  0
  -20.8806  -28.3693   24.1872 H   0  0  0  0  0  0
  -20.1696  -26.3121   23.3588 H   0  0  0  0  0  0
  -21.5153  -26.8453   22.3093 H   0  0  0  0  0  0
  -19.4389  -26.0470   20.7232 H   0  0  0  0  0  0
  -19.5381  -27.7499   20.7168 H   0  0  0  0  0  0
  -17.3180  -27.1269   21.0709 H   0  0  0  0  0  0
  -17.4162  -26.1324   22.3643 H   0  0  0  0  0  0
  -19.5989  -30.8361   24.2400 H   0  0  0  0  0  0
  -17.2820  -31.6482   24.6703 H   0  0  0  0  0  0
  -15.3801  -30.3521   23.9066 H   0  0  0  0  0  0
  -15.6466  -28.2428   22.6511 H   0  0  0  0  0  0
  -24.5877  -30.7275   25.7698 H   0  0  0  0  0  0
  -24.9007  -32.3034   26.4804 H   0  0  0  0  0  0
  -25.7852  -30.8897   27.0291 H   0  0  0  0  0  0
  -26.3047  -29.6712   24.1450 H   0  0  0  0  0  0
  -27.3921  -29.7125   25.4980 H   0  0  0  0  0  0
  -27.8994  -30.4069   23.9901 H   0  0  0  0  0  0
  -27.2768  -33.3525   26.2296 H   0  0  0  0  0  0
  -28.4030  -32.6777   25.0597 H   0  0  0  0  0  0
  -28.0718  -31.8305   26.5652 H   0  0  0  0  0  0
  -28.2528  -38.0207   24.7530 H   0  0  0  0  0  0
  -28.1187  -36.2658   24.6234 H   0  0  0  0  0  0
  -27.2302  -37.1399   25.8897 H   0  0  0  0  0  0
  -20.7661  -29.9998   21.8499 H   0  0  0  0  0  0
  -26.0132  -38.2813   24.1458 H   0  0  0  0  0  0
  -26.9780  -16.1540   24.7115 H   0  0  0  0  0  0
  -28.8035  -15.2317   23.3055 H   0  0  0  0  0  0
  -21.3672  -20.4512   22.8153 H   0  0  0  0  0  0
  -25.3447  -17.6033   25.2106 H   0  0  0  0  0  0
  -24.2170  -17.9463   23.9298 H   0  0  0  0  0  0
  -25.4374  -19.1501   24.4474 H   0  0  0  0  0  0
  -27.2112  -20.1300   20.0656 H   0  0  0  0  0  0
  -26.7972  -20.7478   21.6458 H   0  0  0  0  0  0
  -25.7297  -21.0283   20.3039 H   0  0  0  0  0  0
  -29.9989  -18.2416   21.0557 H   0  0  0  0  0  0
  -31.4092  -17.3569   20.5062 H   0  0  0  0  0  0
  -30.7949  -17.1374   22.1494 H   0  0  0  0  0  0
  -28.9952  -17.5905   19.0557 H   0  0  0  0  0  0
  -28.2573  -16.0685   18.8260 H   0  0  0  0  0  0
  -29.9272  -16.2593   18.4270 H   0  0  0  0  0  0
  -21.2728  -18.1268   21.3545 H   0  0  0  0  0  0
  -22.7539  -17.1931   21.5277 H   0  0  0  0  0  0
  -22.5166  -18.2273   20.1431 H   0  0  0  0  0  0
  -25.0149  -22.9070   23.0355 H   0  0  0  0  0  0
  -24.0300  -22.8198   24.3885 H   0  0  0  0  0  0
  -22.5854  -24.5536   23.1226 H   0  0  0  0  0  0
  -22.8792  -23.9576   21.7181 H   0  0  0  0  0  0
  -24.4788  -26.1791   23.2468 H   0  0  0  0  0  0
  -23.5636  -25.9048   22.0001 H   0  0  0  0  0  0
  -24.9683  -26.1503   20.6962 H   0  0  0  0  0  0
  -25.5714  -24.6841   20.4699 H   0  0  0  0  0  0
  -25.1705  -18.5588   20.1756 H   0  0  0  0  0  0
  -25.5032  -20.8443   22.9399 H   0  0  0  0  0  0
  1 25  1  0  0  0
  1 30  2  0  0  0
  1 89  1  0  0  0
  2  3  1  0  0  0
  2 25  1  0  0  0
  2 93  1  0  0  0
  2 94  1  0  0  0
  3  4  1  0  0  0
  3 95  1  0  0  0
  3 96  1  0  0  0
  4  5  1  0  0  0
  4 97  1  0  0  0
  4 98  1  0  0  0
  5  6  1  0  0  0
  5 26  1  0  0  0
  5 99  1  0  0  0
  6 25  1  0  0  0
  6100  1  0  0  0
  6101  1  0  0  0
  7  8  2  0  0  0
  7 26  1  0  0  0
  7 29  1  0  0  0
  8  9  1  0  0  0
  8 22  1  0  0  0
  9 10  1  0  0  0
  9 27  2  0  0  0
 10 11  2  0  0  0
 10 15  1  0  0  0
 11 12  1  0  0  0
 11102  1  0  0  0
 12 13  2  0  0  0
 12103  1  0  0  0
 13 14  1  0  0  0
 13 31  1  0  0  0
 14 15  2  0  0  0
 14104  1  0  0  0
 15105  1  0  0  0
 16 17  2  0  0  0
 16 21  1  0  0  0
 16 31  1  0  0  0
 17 18  1  0  0  0
 17106  1  0  0  0
 18 19  2  0  0  0
 18107  1  0  0  0
 19 20  1  0  0  0
 19 24  1  0  0  0
 20 21  2  0  0  0
 20108  1  0  0  0
 21 23  1  0  0  0
 22 28  1  0  0  0
 22 32  2  0  0  0
 26 27  1  0  0  0
 28109  1  0  0  0
 28110  1  0  0  0
 29111  1  0  0  0
 29112  1  0  0  0
 33 34  1  0  0  0
 33 66  1  0  0  0
 33 70  2  0  0  0
 34 36  1  0  0  0
 34 59  1  0  0  0
 34113  1  0  0  0
 35 44  2  0  0  0
 35 45  1  0  0  0
 35 68  1  0  0  0
 36 56  1  0  0  0
 36114  1  0  0  0
 37 39  1  0  0  0
 37 47  1  0  0  0
 37 66  1  0  0  0
 37115  1  0  0  0
 38 43  2  0  0  0
 38 46  1  0  0  0
 38 47  1  0  0  0
 39 64  1  0  0  0
 39 67  2  0  0  0
 40 52  1  0  0  0
 40 53  2  0  0  0
 40 58  1  0  0  0
 41116  1  0  0  0
 41117  1  0  0  0
 41118  1  0  0  0
 41 48  1  0  0  0
 42 43  1  0  0  0
 42 66  1  0  0  0
 42119  1  0  0  0
 42120  1  0  0  0
 43 44  1  0  0  0
 44121  1  0  0  0
 45 46  2  0  0  0
 45122  1  0  0  0
 46123  1  0  0  0
 47124  1  0  0  0
 47125  1  0  0  0
 48 56  1  0  0  0
 48 65  1  0  0  0
 48126  1  0  0  0
 49 50  1  0  0  0
 49 53  1  0  0  0
 49 64  1  0  0  0
 49127  1  0  0  0
 50 51  1  0  0  0
 50128  1  0  0  0
 50129  1  0  0  0
 51 52  1  0  0  0
 51130  1  0  0  0
 51131  1  0  0  0
 52132  1  0  0  0
 52133  1  0  0  0
 53 54  1  0  0  0
 54 55  2  0  0  0
 54134  1  0  0  0
 55 57  1  0  0  0
 55135  1  0  0  0
 56 69  2  0  0  0
 57 58  2  0  0  0
 57136  1  0  0  0
 58137  1  0  0  0
 59 60  1  0  0  0
 59 61  1  0  0  0
 59 62  1  0  0  0
 60138  1  0  0  0
 60139  1  0  0  0
 60140  1  0  0  0
 61141  1  0  0  0
 61142  1  0  0  0
 61143  1  0  0  0
 62144  1  0  0  0
 62145  1  0  0  0
 62146  1  0  0  0
 63 65  1  0  0  0
 63147  1  0  0  0
 63148  1  0  0  0
 63149  1  0  0  0
 64150  1  0  0  0
 65151  1  0  0  0
 68 87  1  0  0  0
 71 72  2  0  0  0
 71 74  1  0  0  0
 71152  1  0  0  0
 72 75  1  0  0  0
 72153  1  0  0  0
 73 77  2  0  0  0
 73 91  1  0  0  0
 73154  1  0  0  0
 74 76  2  0  0  0
 74 79  1  0  0  0
 75 89  1  0  0  0
 75 90  2  0  0  0
 76 88  1  0  0  0
 76 90  1  0  0  0
 77 84  1  0  0  0
 77 92  1  0  0  0
 78 88  1  0  0  0
 78 91  1  0  0  0
 78 92  2  0  0  0
 79155  1  0  0  0
 79156  1  0  0  0
 79157  1  0  0  0
 80158  1  0  0  0
 80159  1  0  0  0
 80160  1  0  0  0
 80 88  1  0  0  0
 81161  1  0  0  0
 81162  1  0  0  0
 81163  1  0  0  0
 81 89  1  0  0  0
 82 89  1  0  0  0
 82164  1  0  0  0
 82165  1  0  0  0
 82166  1  0  0  0
 83 91  1  0  0  0
 83167  1  0  0  0
 83168  1  0  0  0
 83169  1  0  0  0
 84 85  1  0  0  0
 84170  1  0  0  0
 84171  1  0  0  0
 85 86  1  0  0  0
 85172  1  0  0  0
 85173  1  0  0  0
 86 87  1  0  0  0
 86174  1  0  0  0
 86175  1  0  0  0
 87176  1  0  0  0
 87177  1  0  0  0
 88178  1  0  0  0
 92179  1  0  0  0
M  CHG  1  92   1
M  ISO  4   1 100  68 101  87 101  89 100
M  END
> <chiral flag>
0

> <version>
0

> <s_m_source_file>
/data/baiqing/PycharmProjects/Reinvent-master-3.2/result/LINK_invent/BTK/process_docking_weight1_custom_sum_contain_oxygen_bond_distance_aromatic_linkinvent_7_9_3/rearranged_h_0071.sdf

> <i_m_source_file_index>
9

> <r_mmod_Potential_Energy-OPLS-2005>
1212.86328125

> <r_mmod_Stretch_Energy-OPLS-2005>
226.974884033203

> <r_mmod_Bend_Energy-OPLS-2005>
534.636840820312

> <r_mmod_Torsional_Energy-OPLS-2005>
418.842742919922

> <r_mmod_Improper_Torsional_Energy-OPLS-2005>
26.0651836395264

> <r_mmod_Van_der_Waal_Energy-OPLS-2005>
188.819000244141

> <r_mmod_Electrostatic_Energy-OPLS-2005>
-288.489898681641

> <r_mmod_Solvation_Energy-OPLS-2005>
-380.850463867188

> <b_mmod_Minimization_Converged-OPLS-2005>
0

> <r_mmod_RMS_Derivative-OPLS-2005>
71.6355438232422

$$$$
9
                    3D
 Structure written by MMmdl.
173181  0  0  1  0            999 V2000
  -30.5894  -14.9993   20.2887 C   0  0  0  0  0  0
  -30.4481  -12.6109   19.4807 C   0  0  0  0  0  0
  -29.5242  -12.4299   18.2579 C   0  0  0  0  0  0
  -28.0503  -12.2548   18.6853 C   0  0  0  0  0  0
  -27.6130  -13.2149   19.8200 C   0  0  2  0  0  0
  -28.6776  -13.3610   20.9235 C   0  0  0  0  0  0
  -25.2481  -13.8098   20.5828 C   0  0  0  0  0  0
  -24.1745  -13.0365   20.9320 C   0  0  0  0  0  0
  -24.6325  -11.6842   20.8845 C   0  0  0  0  0  0
  -23.8984  -10.4241   21.0464 C   0  0  0  0  0  0
  -24.3556   -9.4151   21.9216 C   0  0  0  0  0  0
  -23.6265   -8.2174   22.0769 C   0  0  0  0  0  0
  -22.4255   -8.0228   21.3542 C   0  0  0  0  0  0
  -21.9877   -9.0190   20.4651 C   0  0  0  0  0  0
  -22.7175  -10.2094   20.3085 C   0  0  0  0  0  0
  -21.6835   -6.0701   22.5262 C   0  0  0  0  0  0
  -21.3989   -6.5605   23.8186 C   0  0  0  0  0  0
  -21.3717   -5.6780   24.9163 C   0  0  0  0  0  0
  -21.6073   -4.3043   24.7230 C   0  0  0  0  0  0
  -21.8805   -3.8123   23.4345 C   0  0  0  0  0  0
  -21.9175   -4.6930   22.3390 C   0  0  0  0  0  0
  -22.7778  -13.5178   21.1954 C   0  0  0  0  0  0
  -22.1643   -4.2110   21.0977 F   0  0  0  0  0  0
  -21.5684   -3.4536   25.7753 F   0  0  0  0  0  0
  -29.9335  -13.7630   20.2668 N   0  0  0  0  0  0
  -26.2838  -12.9236   20.3373 N   0  0  0  0  0  0
  -25.9250  -11.6407   20.5857 N   0  0  0  0  0  0
  -22.0393  -12.8167   22.0491 N   0  0  0  0  0  0
  -25.4247  -15.1813   20.4290 N   0  0  0  0  0  0
  -31.8057  -14.9088   20.4819 O   0  0  0  0  0  0
  -21.6621   -6.8832   21.4221 O   0  0  0  0  0  0
  -22.3474  -14.5483   20.6805 O   0  0  0  0  0  0
  -24.6410  -31.8451   23.1871 C   0  0  0  0  0  0
  -25.9170  -32.4717   23.8263 C   0  0  1  0  0  0
  -27.2293  -27.1491   20.1207 C   0  0  0  0  0  0
  -25.5930  -33.8518   24.2188 N   0  0  0  0  0  0
  -23.4430  -30.4606   21.5352 C   0  0  2  0  0  0
  -24.8944  -28.8909   20.1084 C   0  0  0  0  0  0
  -22.7555  -29.4511   22.4886 C   0  0  0  0  0  0
  -18.0309  -28.1357   22.8484 C   0  0  0  0  0  0
  -24.1494  -36.7267   23.2640 C   0  0  0  0  0  0
  -25.9983  -30.7212   21.3822 C   0  0  0  0  0  0
  -26.0717  -29.3327   20.7251 C   0  0  0  0  0  0
  -27.2330  -28.4747   20.7222 C   0  0  0  0  0  0
  -26.0240  -26.8113   19.4655 C   0  0  0  0  0  0
  -24.8821  -27.6421   19.4707 C   0  0  0  0  0  0
  -23.6669  -29.7864   20.1558 C   0  0  0  0  0  0
  -25.4128  -36.3031   24.0311 C   0  0  1  0  0  0
  -20.5917  -28.3654   23.1267 C   0  0  2  0  0  0
  -20.6773  -26.9361   22.5417 C   0  0  0  0  0  0
  -19.5747  -26.6337   21.5216 C   0  0  0  0  0  0
  -18.1933  -26.7896   22.1631 C   0  0  0  0  0  0
  -19.1564  -28.8826   23.2866 C   0  0  0  0  0  0
  -18.9472  -30.1431   23.8872 C   0  0  0  0  0  0
  -17.6475  -30.6553   24.0538 C   0  0  0  0  0  0
  -25.9079  -34.9414   23.5061 C   0  0  0  0  0  0
  -16.5363  -29.9051   23.6325 C   0  0  0  0  0  0
  -16.7292  -28.6464   23.0351 C   0  0  0  0  0  0
  -26.4490  -31.6578   25.0690 C   0  0  0  0  0  0
  -25.3681  -31.3765   26.1381 C   0  0  0  0  0  0
  -27.0335  -30.2987   24.6233 C   0  0  0  0  0  0
  -27.6028  -32.4320   25.7493 C   0  0  0  0  0  0
  -27.5581  -37.1781   24.8463 C   0  0  0  0  0  0
  -21.4250  -29.3001   22.3653 N   0  0  0  0  0  0
  -26.4297  -37.3747   23.9411 N   0  0  0  0  0  0
  -24.7145  -31.0282   22.0921 N   0  0  0  0  0  0
  -23.4211  -28.8057   23.3016 O   0  0  0  0  0  0
  -28.3114  -26.1964   20.2121 O   0  0  0  0  0  0
  -26.5660  -34.8900   22.4635 O   0  0  0  0  0  0
  -23.5521  -32.1326   23.7091 O   0  0  0  0  0  0
  -28.9983  -18.3258   21.1273 C   0  0  0  0  0  0
  -29.8266  -17.9548   20.0816 C   0  0  0  0  0  0
  -29.3677  -20.3293   20.0889 C   0  0  0  0  0  0
  -31.2676  -16.5175   18.4411 C   0  0  0  0  0  0
  -28.8680  -16.1821   18.6397 C   0  0  0  0  0  0
  -32.3082  -20.9704   15.9497 C   0  0  0  0  0  0
  -30.4803  -20.0309   14.5337 C   0  0  0  0  0  0
  -32.1541  -18.4916   15.5831 C   0  0  0  0  0  0
  -29.1108  -21.8817   19.5724 C   0  0  0  0  0  0
  -28.8252  -23.3116   20.4116 C   0  0  0  0  0  0
  -30.3626  -19.6621   16.9990 C   0  0  0  0  0  0
  -31.0139  -19.6243   18.4030 C   0  0  0  0  0  0
  -28.3229  -24.7390   19.6625 C   0  0  0  0  0  0
  -30.1262  -16.4257   19.4871 C   0  0  0  0  0  0
  -31.3352  -19.7838   15.7909 C   0  0  0  0  0  0
  -30.0855  -19.2737   19.5101 N   0  0  0  0  0  0
  -28.7445  -19.6984   21.0958 N   0  3  0  0  0  0
  -31.4774  -12.7760   19.1530 H   0  0  0  0  0  0
  -30.4718  -11.7066   20.0924 H   0  0  0  0  0  0
  -29.8405  -11.5528   17.6922 H   0  0  0  0  0  0
  -29.6363  -13.2739   17.5810 H   0  0  0  0  0  0
  -27.9286  -11.2226   19.0168 H   0  0  0  0  0  0
  -27.3912  -12.3725   17.8249 H   0  0  0  0  0  0
  -27.5028  -14.1668   19.3302 H   0  0  0  0  0  0
  -28.7939  -12.4222   21.4688 H   0  0  0  0  0  0
  -28.3794  -14.1148   21.6540 H   0  0  0  0  0  0
  -25.2694   -9.5620   22.4797 H   0  0  0  0  0  0
  -23.9983   -7.4534   22.7455 H   0  0  0  0  0  0
  -21.0835   -8.8676   19.8911 H   0  0  0  0  0  0
  -22.3625  -10.9630   19.6203 H   0  0  0  0  0  0
  -21.1933   -7.6108   23.9662 H   0  0  0  0  0  0
  -21.1617   -6.0535   25.9075 H   0  0  0  0  0  0
  -22.0551   -2.7578   23.2852 H   0  0  0  0  0  0
  -22.4009  -11.9827   22.4862 H   0  0  0  0  0  0
  -21.1012  -13.1197   22.2695 H   0  0  0  0  0  0
  -24.6660  -15.8459   20.5420 H   0  0  0  0  0  0
  -26.2970  -15.6156   20.1591 H   0  0  0  0  0  0
  -26.7228  -32.5317   23.0987 H   0  0  0  0  0  0
  -25.0032  -33.9667   25.0297 H   0  0  0  0  0  0
  -22.7427  -31.2847   21.3793 H   0  0  0  0  0  0
  -23.3765  -35.9594   23.3289 H   0  0  0  0  0  0
  -24.3582  -36.8921   22.2057 H   0  0  0  0  0  0
  -23.7247  -37.6458   23.6691 H   0  0  0  0  0  0
  -26.1429  -31.4768   20.6078 H   0  0  0  0  0  0
  -26.8731  -30.7791   22.0187 H   0  0  0  0  0  0
  -28.1273  -28.8055   21.2297 H   0  0  0  0  0  0
  -25.9039  -25.8695   18.9560 H   0  0  0  0  0  0
  -23.9818  -27.2988   18.9814 H   0  0  0  0  0  0
  -23.7905  -30.5588   19.3955 H   0  0  0  0  0  0
  -22.7829  -29.2201   19.8528 H   0  0  0  0  0  0
  -25.1316  -36.1872   25.0810 H   0  0  0  0  0  0
  -21.0015  -28.3208   24.1385 H   0  0  0  0  0  0
  -20.5643  -26.2253   23.3620 H   0  0  0  0  0  0
  -21.6638  -26.7331   22.1222 H   0  0  0  0  0  0
  -19.6902  -25.6243   21.1250 H   0  0  0  0  0  0
  -19.6705  -27.3141   20.6743 H   0  0  0  0  0  0
  -17.4201  -26.6655   21.4032 H   0  0  0  0  0  0
  -18.0320  -26.0043   22.9025 H   0  0  0  0  0  0
  -19.7952  -30.7260   24.2226 H   0  0  0  0  0  0
  -17.5018  -31.6245   24.5114 H   0  0  0  0  0  0
  -15.5357  -30.2925   23.7658 H   0  0  0  0  0  0
  -15.8707  -28.0773   22.7072 H   0  0  0  0  0  0
  -24.5873  -30.7110   25.7690 H   0  0  0  0  0  0
  -24.8844  -32.2943   26.4734 H   0  0  0  0  0  0
  -25.7945  -30.8976   27.0207 H   0  0  0  0  0  0
  -26.2917  -29.6747   24.1239 H   0  0  0  0  0  0
  -27.3971  -29.7249   25.4769 H   0  0  0  0  0  0
  -27.8819  -30.4252   23.9511 H   0  0  0  0  0  0
  -27.2643  -33.3659   26.2008 H   0  0  0  0  0  0
  -28.3886  -32.6832   25.0352 H   0  0  0  0  0  0
  -28.0643  -31.8480   26.5473 H   0  0  0  0  0  0
  -28.2563  -38.0103   24.7502 H   0  0  0  0  0  0
  -28.1098  -36.2621   24.6287 H   0  0  0  0  0  0
  -27.2287  -37.1426   25.8860 H   0  0  0  0  0  0
  -20.9432  -29.8756   21.6899 H   0  0  0  0  0  0
  -26.0158  -38.2825   24.1406 H   0  0  0  0  0  0
  -28.4949  -17.6918   21.8444 H   0  0  0  0  0  0
  -30.9933  -17.1047   17.5758 H   0  0  0  0  0  0
  -31.5325  -15.5438   18.0240 H   0  0  0  0  0  0
  -32.1823  -16.9206   18.8743 H   0  0  0  0  0  0
  -28.7293  -16.9778   17.9087 H   0  0  0  0  0  0
  -27.9698  -16.1948   19.2513 H   0  0  0  0  0  0
  -28.9206  -15.2608   18.0691 H   0  0  0  0  0  0
  -32.9756  -21.0519   15.0895 H   0  0  0  0  0  0
  -32.9445  -20.8639   16.8274 H   0  0  0  0  0  0
  -31.7765  -21.9188   16.0366 H   0  0  0  0  0  0
  -31.0840  -20.0695   13.6265 H   0  0  0  0  0  0
  -29.9377  -20.9747   14.6026 H   0  0  0  0  0  0
  -29.7367  -19.2435   14.3998 H   0  0  0  0  0  0
  -32.8358  -18.5921   14.7380 H   0  0  0  0  0  0
  -31.5169  -17.6289   15.3776 H   0  0  0  0  0  0
  -32.7701  -18.2481   16.4499 H   0  0  0  0  0  0
  -28.2592  -21.7628   18.9037 H   0  0  0  0  0  0
  -29.9403  -22.1033   18.9030 H   0  0  0  0  0  0
  -29.7386  -23.5379   20.9612 H   0  0  0  0  0  0
  -28.0807  -23.0943   21.1780 H   0  0  0  0  0  0
  -29.6689  -20.5023   16.9732 H   0  0  0  0  0  0
  -29.7381  -18.7819   16.8519 H   0  0  0  0  0  0
  -31.4451  -20.5978   18.6312 H   0  0  0  0  0  0
  -31.8824  -18.9792   18.4468 H   0  0  0  0  0  0
  -27.3512  -24.4924   19.2506 H   0  0  0  0  0  0
  -28.9556  -24.8268   18.7790 H   0  0  0  0  0  0
  -28.1056  -20.1588   21.7328 H   0  0  0  0  0  0
  1 25  1  0  0  0
  1 30  2  0  0  0
  1 84  1  0  0  0
  2  3  1  0  0  0
  2 25  1  0  0  0
  2 88  1  0  0  0
  2 89  1  0  0  0
  3  4  1  0  0  0
  3 90  1  0  0  0
  3 91  1  0  0  0
  4  5  1  0  0  0
  4 92  1  0  0  0
  4 93  1  0  0  0
  5  6  1  0  0  0
  5 26  1  0  0  0
  5 94  1  0  0  0
  6 25  1  0  0  0
  6 95  1  0  0  0
  6 96  1  0  0  0
  7  8  2  0  0  0
  7 26  1  0  0  0
  7 29  1  0  0  0
  8  9  1  0  0  0
  8 22  1  0  0  0
  9 10  1  0  0  0
  9 27  2  0  0  0
 10 11  2  0  0  0
 10 15  1  0  0  0
 11 12  1  0  0  0
 11 97  1  0  0  0
 12 13  2  0  0  0
 12 98  1  0  0  0
 13 14  1  0  0  0
 13 31  1  0  0  0
 14 15  2  0  0  0
 14 99  1  0  0  0
 15100  1  0  0  0
 16 17  2  0  0  0
 16 21  1  0  0  0
 16 31  1  0  0  0
 17 18  1  0  0  0
 17101  1  0  0  0
 18 19  2  0  0  0
 18102  1  0  0  0
 19 20  1  0  0  0
 19 24  1  0  0  0
 20 21  2  0  0  0
 20103  1  0  0  0
 21 23  1  0  0  0
 22 28  1  0  0  0
 22 32  2  0  0  0
 26 27  1  0  0  0
 28104  1  0  0  0
 28105  1  0  0  0
 29106  1  0  0  0
 29107  1  0  0  0
 33 34  1  0  0  0
 33 66  1  0  0  0
 33 70  2  0  0  0
 34 36  1  0  0  0
 34 59  1  0  0  0
 34108  1  0  0  0
 35 44  2  0  0  0
 35 45  1  0  0  0
 35 68  1  0  0  0
 36 56  1  0  0  0
 36109  1  0  0  0
 37 39  1  0  0  0
 37 47  1  0  0  0
 37 66  1  0  0  0
 37110  1  0  0  0
 38 43  2  0  0  0
 38 46  1  0  0  0
 38 47  1  0  0  0
 39 64  1  0  0  0
 39 67  2  0  0  0
 40 52  1  0  0  0
 40 53  2  0  0  0
 40 58  1  0  0  0
 41111  1  0  0  0
 41112  1  0  0  0
 41113  1  0  0  0
 41 48  1  0  0  0
 42 43  1  0  0  0
 42 66  1  0  0  0
 42114  1  0  0  0
 42115  1  0  0  0
 43 44  1  0  0  0
 44116  1  0  0  0
 45 46  2  0  0  0
 45117  1  0  0  0
 46118  1  0  0  0
 47119  1  0  0  0
 47120  1  0  0  0
 48 56  1  0  0  0
 48 65  1  0  0  0
 48121  1  0  0  0
 49 50  1  0  0  0
 49 53  1  0  0  0
 49 64  1  0  0  0
 49122  1  0  0  0
 50 51  1  0  0  0
 50123  1  0  0  0
 50124  1  0  0  0
 51 52  1  0  0  0
 51125  1  0  0  0
 51126  1  0  0  0
 52127  1  0  0  0
 52128  1  0  0  0
 53 54  1  0  0  0
 54 55  2  0  0  0
 54129  1  0  0  0
 55 57  1  0  0  0
 55130  1  0  0  0
 56 69  2  0  0  0
 57 58  2  0  0  0
 57131  1  0  0  0
 58132  1  0  0  0
 59 60  1  0  0  0
 59 61  1  0  0  0
 59 62  1  0  0  0
 60133  1  0  0  0
 60134  1  0  0  0
 60135  1  0  0  0
 61136  1  0  0  0
 61137  1  0  0  0
 61138  1  0  0  0
 62139  1  0  0  0
 62140  1  0  0  0
 62141  1  0  0  0
 63 65  1  0  0  0
 63142  1  0  0  0
 63143  1  0  0  0
 63144  1  0  0  0
 64145  1  0  0  0
 65146  1  0  0  0
 68 83  1  0  0  0
 71 72  2  0  0  0
 71 87  1  0  0  0
 71147  1  0  0  0
 72 84  1  0  0  0
 72 86  1  0  0  0
 73 79  1  0  0  0
 73 86  1  0  0  0
 73 87  2  0  0  0
 74148  1  0  0  0
 74149  1  0  0  0
 74150  1  0  0  0
 74 84  1  0  0  0
 75 84  1  0  0  0
 75151  1  0  0  0
 75152  1  0  0  0
 75153  1  0  0  0
 76154  1  0  0  0
 76155  1  0  0  0
 76156  1  0  0  0
 76 85  1  0  0  0
 77 85  1  0  0  0
 77157  1  0  0  0
 77158  1  0  0  0
 77159  1  0  0  0
 78 85  1  0  0  0
 78160  1  0  0  0
 78161  1  0  0  0
 78162  1  0  0  0
 79 80  1  0  0  0
 79163  1  0  0  0
 79164  1  0  0  0
 80 83  1  0  0  0
 80165  1  0  0  0
 80166  1  0  0  0
 81 82  1  0  0  0
 81 85  1  0  0  0
 81167  1  0  0  0
 81168  1  0  0  0
 82 86  1  0  0  0
 82169  1  0  0  0
 82170  1  0  0  0
 83171  1  0  0  0
 83172  1  0  0  0
 87173  1  0  0  0
M  CHG  1  87   1
M  ISO  4   1 100  68 101  83 101  84 100
M  END
> <chiral flag>
0

> <version>
0

> <s_m_source_file>
/data/baiqing/PycharmProjects/Reinvent-master-3.2/result/LINK_invent/BTK/process_docking_weight1_custom_sum_contain_oxygen_bond_distance_aromatic_linkinvent_7_9_3/rearranged_h_0071.sdf

> <i_m_source_file_index>
10

> <r_mmod_Potential_Energy-OPLS-2005>
706.757263183594

> <r_mmod_Stretch_Energy-OPLS-2005>
294.020812988281

> <r_mmod_Bend_Energy-OPLS-2005>
329.818328857422

> <r_mmod_Torsional_Energy-OPLS-2005>
280.855834960938

> <r_mmod_Improper_Torsional_Energy-OPLS-2005>
22.9558696746826

> <r_mmod_Van_der_Waal_Energy-OPLS-2005>
133.819519042969

> <r_mmod_Electrostatic_Energy-OPLS-2005>
-181.366546630859

> <r_mmod_Solvation_Energy-OPLS-2005>
-403.230804443359

> <b_mmod_Minimization_Converged-OPLS-2005>
0

> <r_mmod_RMS_Derivative-OPLS-2005>
3.5849883556366

$$$$
10
                    3D
 Structure written by MMmdl.
164172  0  0  1  0            999 V2000
  -30.6748  -14.7543   20.3600 C   0  0  0  0  0  0
  -30.4137  -12.4450   19.4743 C   0  0  0  0  0  0
  -29.4991  -12.4342   18.2321 C   0  0  0  0  0  0
  -28.0308  -12.2406   18.6575 C   0  0  0  0  0  0
  -27.6139  -13.1883   19.8085 C   0  0  2  0  0  0
  -28.6670  -13.2724   20.9341 C   0  0  0  0  0  0
  -25.2507  -13.8052   20.5741 C   0  0  0  0  0  0
  -24.1761  -13.0363   20.9247 C   0  0  0  0  0  0
  -24.6302  -11.6821   20.8787 C   0  0  0  0  0  0
  -23.8979  -10.4237   21.0442 C   0  0  0  0  0  0
  -24.3562   -9.4161   21.9213 C   0  0  0  0  0  0
  -23.6257   -8.2189   22.0769 C   0  0  0  0  0  0
  -22.4248   -8.0229   21.3548 C   0  0  0  0  0  0
  -21.9861   -9.0195   20.4655 C   0  0  0  0  0  0
  -22.7165  -10.2086   20.3081 C   0  0  0  0  0  0
  -21.6828   -6.0701   22.5275 C   0  0  0  0  0  0
  -21.3989   -6.5615   23.8201 C   0  0  0  0  0  0
  -21.3667   -5.6787   24.9179 C   0  0  0  0  0  0
  -21.6056   -4.3046   24.7237 C   0  0  0  0  0  0
  -21.8829   -3.8125   23.4364 C   0  0  0  0  0  0
  -21.9188   -4.6929   22.3408 C   0  0  0  0  0  0
  -22.7816  -13.5213   21.1883 C   0  0  0  0  0  0
  -22.1662   -4.2115   21.0990 F   0  0  0  0  0  0
  -21.5648   -3.4539   25.7757 F   0  0  0  0  0  0
  -29.9718  -13.5680   20.3341 N   0  0  0  0  0  0
  -26.2812  -12.9143   20.3187 N   0  0  0  0  0  0
  -25.9199  -11.6344   20.5763 N   0  0  0  0  0  0
  -22.0421  -12.8243   22.0433 N   0  0  0  0  0  0
  -25.4292  -15.1768   20.4236 N   0  0  0  0  0  0
  -31.9020  -14.6633   20.3059 O   0  0  0  0  0  0
  -21.6618   -6.8826   21.4233 O   0  0  0  0  0  0
  -22.3545  -14.5530   20.6705 O   0  0  0  0  0  0
  -24.6264  -31.8607   23.2046 C   0  0  0  0  0  0
  -25.9105  -32.4793   23.8369 C   0  0  1  0  0  0
  -27.2188  -27.3091   20.1231 C   0  0  0  0  0  0
  -25.5919  -33.8593   24.2293 N   0  0  0  0  0  0
  -23.4219  -30.4870   21.5461 C   0  0  2  0  0  0
  -24.8698  -28.9479   20.1081 C   0  0  0  0  0  0
  -22.7497  -29.4623   22.4922 C   0  0  0  0  0  0
  -18.0295  -28.1375   22.8492 C   0  0  0  0  0  0
  -24.1489  -36.7292   23.2641 C   0  0  0  0  0  0
  -25.9668  -30.7908   21.3784 C   0  0  0  0  0  0
  -26.0405  -29.4187   20.7170 C   0  0  0  0  0  0
  -27.2189  -28.6124   20.7136 C   0  0  0  0  0  0
  -26.0246  -26.9030   19.4794 C   0  0  0  0  0  0
  -24.8648  -27.6961   19.4789 C   0  0  0  0  0  0
  -23.6388  -29.8289   20.1587 C   0  0  0  0  0  0
  -25.4118  -36.3100   24.0330 C   0  0  1  0  0  0
  -20.5903  -28.3681   23.1276 C   0  0  2  0  0  0
  -20.6787  -26.9398   22.5407 C   0  0  0  0  0  0
  -19.5761  -26.6374   21.5213 C   0  0  0  0  0  0
  -18.1938  -26.7916   22.1626 C   0  0  0  0  0  0
  -19.1551  -28.8847   23.2876 C   0  0  0  0  0  0
  -18.9468  -30.1451   23.8895 C   0  0  0  0  0  0
  -17.6464  -30.6575   24.0563 C   0  0  0  0  0  0
  -25.9053  -34.9464   23.5116 C   0  0  0  0  0  0
  -16.5357  -29.9074   23.6327 C   0  0  0  0  0  0
  -16.7280  -28.6492   23.0353 C   0  0  0  0  0  0
  -26.4486  -31.6602   25.0737 C   0  0  0  0  0  0
  -25.3711  -31.3724   26.1455 C   0  0  0  0  0  0
  -27.0331  -30.3034   24.6180 C   0  0  0  0  0  0
  -27.6060  -32.4330   25.7486 C   0  0  0  0  0  0
  -27.5582  -37.1810   24.8471 C   0  0  0  0  0  0
  -21.4215  -29.3035   22.3677 N   0  0  0  0  0  0
  -26.4302  -37.3789   23.9405 N   0  0  0  0  0  0
  -24.6906  -31.0616   22.1000 N   0  0  0  0  0  0
  -23.4226  -28.8149   23.2984 O   0  0  0  0  0  0
  -28.3161  -26.4281   20.2018 O   0  0  0  0  0  0
  -26.5624  -34.8924   22.4684 O   0  0  0  0  0  0
  -23.5418  -32.1404   23.7366 O   0  0  0  0  0  0
  -30.6115  -20.9213   21.0257 C   0  0  0  0  0  0
  -29.2876  -21.0659   20.6878 C   0  0  0  0  0  0
  -29.7708  -18.8271   21.0212 C   0  0  0  0  0  0
  -30.4118  -16.9052   22.5661 C   0  0  0  0  0  0
  -31.2027  -16.9734   19.2163 C   0  0  0  0  0  0
  -28.9037  -16.2208   19.0725 C   0  0  0  0  0  0
  -27.4280  -19.3325   20.3998 C   0  0  0  0  0  0
  -28.4342  -22.3295   20.3642 C   0  0  0  0  0  0
  -29.0186  -23.8145   20.5197 C   0  0  0  0  0  0
  -28.0213  -24.9765   20.0662 C   0  0  0  0  0  0
  -29.6922  -17.2638   21.2526 C   0  0  2  0  0  0
  -30.0964  -16.2574   20.0515 C   0  0  0  0  0  0
  -28.8081  -19.7414   20.6838 N   0  0  0  0  0  0
  -30.8663  -19.5786   21.2074 N   0  3  0  0  0  0
  -31.4568  -12.5334   19.1656 H   0  0  0  0  0  0
  -30.3439  -11.4997   20.0156 H   0  0  0  0  0  0
  -29.7952  -11.6302   17.5576 H   0  0  0  0  0  0
  -29.6128  -13.3589   17.6660 H   0  0  0  0  0  0
  -27.9182  -11.2031   18.9739 H   0  0  0  0  0  0
  -27.3680  -12.3665   17.8009 H   0  0  0  0  0  0
  -27.5271  -14.1392   19.3144 H   0  0  0  0  0  0
  -28.7083  -12.3396   21.4973 H   0  0  0  0  0  0
  -28.3998  -14.0552   21.6450 H   0  0  0  0  0  0
  -25.2694   -9.5646   22.4806 H   0  0  0  0  0  0
  -23.9959   -7.4588   22.7496 H   0  0  0  0  0  0
  -21.0786   -8.8700   19.8969 H   0  0  0  0  0  0
  -22.3601  -10.9636   19.6208 H   0  0  0  0  0  0
  -21.1958   -7.6124   23.9681 H   0  0  0  0  0  0
  -21.1496   -6.0535   25.9080 H   0  0  0  0  0  0
  -22.0606   -2.7581   23.2891 H   0  0  0  0  0  0
  -22.3997  -11.9889   22.4831 H   0  0  0  0  0  0
  -21.1049  -13.1325   22.2599 H   0  0  0  0  0  0
  -24.6725  -15.8383   20.5577 H   0  0  0  0  0  0
  -26.2882  -15.6095   20.1158 H   0  0  0  0  0  0
  -26.7180  -32.5471   23.1123 H   0  0  0  0  0  0
  -25.0079  -33.9745   25.0447 H   0  0  0  0  0  0
  -22.7140  -31.3068   21.4051 H   0  0  0  0  0  0
  -23.3763  -35.9614   23.3315 H   0  0  0  0  0  0
  -24.3585  -36.8898   22.2056 H   0  0  0  0  0  0
  -23.7228  -37.6491   23.6652 H   0  0  0  0  0  0
  -26.1016  -31.5561   20.6121 H   0  0  0  0  0  0
  -26.8464  -30.8386   22.0087 H   0  0  0  0  0  0
  -28.1153  -28.9678   21.2023 H   0  0  0  0  0  0
  -25.9458  -25.9491   18.9798 H   0  0  0  0  0  0
  -23.9689  -27.3323   18.9941 H   0  0  0  0  0  0
  -23.7596  -30.6103   19.4063 H   0  0  0  0  0  0
  -22.7597  -29.2590   19.8531 H   0  0  0  0  0  0
  -25.1301  -36.1966   25.0822 H   0  0  0  0  0  0
  -20.9994  -28.3249   24.1399 H   0  0  0  0  0  0
  -20.5696  -26.2280   23.3608 H   0  0  0  0  0  0
  -21.6648  -26.7426   22.1194 H   0  0  0  0  0  0
  -19.6911  -25.6288   21.1243 H   0  0  0  0  0  0
  -19.6692  -27.3186   20.6749 H   0  0  0  0  0  0
  -17.4208  -26.6677   21.4026 H   0  0  0  0  0  0
  -18.0324  -26.0048   22.9017 H   0  0  0  0  0  0
  -19.7943  -30.7270   24.2255 H   0  0  0  0  0  0
  -17.5017  -31.6255   24.5163 H   0  0  0  0  0  0
  -15.5359  -30.2976   23.7639 H   0  0  0  0  0  0
  -15.8685  -28.0811   22.7062 H   0  0  0  0  0  0
  -24.5897  -30.7066   25.7768 H   0  0  0  0  0  0
  -24.8879  -32.2879   26.4880 H   0  0  0  0  0  0
  -25.8022  -30.8898   27.0234 H   0  0  0  0  0  0
  -26.2901  -29.6791   24.1208 H   0  0  0  0  0  0
  -27.4051  -29.7287   25.4671 H   0  0  0  0  0  0
  -27.8758  -30.4339   23.9386 H   0  0  0  0  0  0
  -27.2701  -33.3654   26.2030 H   0  0  0  0  0  0
  -28.3866  -32.6854   25.0295 H   0  0  0  0  0  0
  -28.0723  -31.8471   26.5415 H   0  0  0  0  0  0
  -28.2617  -38.0095   24.7520 H   0  0  0  0  0  0
  -28.1065  -36.2631   24.6305 H   0  0  0  0  0  0
  -27.2298  -37.1457   25.8874 H   0  0  0  0  0  0
  -20.9391  -29.8778   21.6911 H   0  0  0  0  0  0
  -26.0193  -38.2867   24.1406 H   0  0  0  0  0  0
  -31.3796  -21.6707   21.1553 H   0  0  0  0  0  0
  -30.0643  -17.5360   23.3845 H   0  0  0  0  0  0
  -31.4915  -17.0234   22.4772 H   0  0  0  0  0  0
  -30.2159  -15.8753   22.8663 H   0  0  0  0  0  0
  -32.0919  -17.1847   19.8116 H   0  0  0  0  0  0
  -30.8747  -17.9220   18.7914 H   0  0  0  0  0  0
  -31.5179  -16.3629   18.3680 H   0  0  0  0  0  0
  -28.8107  -17.1438   18.5023 H   0  0  0  0  0  0
  -27.9573  -16.1216   19.5945 H   0  0  0  0  0  0
  -28.9991  -15.4315   18.3298 H   0  0  0  0  0  0
  -26.8518  -20.1760   20.0238 H   0  0  0  0  0  0
  -26.9655  -18.9679   21.3164 H   0  0  0  0  0  0
  -27.4206  -18.5489   19.6455 H   0  0  0  0  0  0
  -27.5325  -22.2688   20.9734 H   0  0  0  0  0  0
  -28.0877  -22.2159   19.3364 H   0  0  0  0  0  0
  -29.2897  -23.9791   21.5631 H   0  0  0  0  0  0
  -29.9424  -23.8991   19.9467 H   0  0  0  0  0  0
  -27.0971  -24.7838   20.6145 H   0  0  0  0  0  0
  -27.8012  -24.7975   19.0128 H   0  0  0  0  0  0
  -28.6379  -17.0969   21.4747 H   0  0  0  0  0  0
  -31.7675  -19.2088   21.4825 H   0  0  0  0  0  0
  1 25  1  0  0  0
  1 30  2  0  0  0
  1 82  1  0  0  0
  2  3  1  0  0  0
  2 25  1  0  0  0
  2 85  1  0  0  0
  2 86  1  0  0  0
  3  4  1  0  0  0
  3 87  1  0  0  0
  3 88  1  0  0  0
  4  5  1  0  0  0
  4 89  1  0  0  0
  4 90  1  0  0  0
  5  6  1  0  0  0
  5 26  1  0  0  0
  5 91  1  0  0  0
  6 25  1  0  0  0
  6 92  1  0  0  0
  6 93  1  0  0  0
  7  8  2  0  0  0
  7 26  1  0  0  0
  7 29  1  0  0  0
  8  9  1  0  0  0
  8 22  1  0  0  0
  9 10  1  0  0  0
  9 27  2  0  0  0
 10 11  2  0  0  0
 10 15  1  0  0  0
 11 12  1  0  0  0
 11 94  1  0  0  0
 12 13  2  0  0  0
 12 95  1  0  0  0
 13 14  1  0  0  0
 13 31  1  0  0  0
 14 15  2  0  0  0
 14 96  1  0  0  0
 15 97  1  0  0  0
 16 17  2  0  0  0
 16 21  1  0  0  0
 16 31  1  0  0  0
 17 18  1  0  0  0
 17 98  1  0  0  0
 18 19  2  0  0  0
 18 99  1  0  0  0
 19 20  1  0  0  0
 19 24  1  0  0  0
 20 21  2  0  0  0
 20100  1  0  0  0
 21 23  1  0  0  0
 22 28  1  0  0  0
 22 32  2  0  0  0
 26 27  1  0  0  0
 28101  1  0  0  0
 28102  1  0  0  0
 29103  1  0  0  0
 29104  1  0  0  0
 33 34  1  0  0  0
 33 66  1  0  0  0
 33 70  2  0  0  0
 34 36  1  0  0  0
 34 59  1  0  0  0
 34105  1  0  0  0
 35 44  2  0  0  0
 35 45  1  0  0  0
 35 68  1  0  0  0
 36 56  1  0  0  0
 36106  1  0  0  0
 37 39  1  0  0  0
 37 47  1  0  0  0
 37 66  1  0  0  0
 37107  1  0  0  0
 38 43  2  0  0  0
 38 46  1  0  0  0
 38 47  1  0  0  0
 39 64  1  0  0  0
 39 67  2  0  0  0
 40 52  1  0  0  0
 40 53  2  0  0  0
 40 58  1  0  0  0
 41108  1  0  0  0
 41109  1  0  0  0
 41110  1  0  0  0
 41 48  1  0  0  0
 42 43  1  0  0  0
 42 66  1  0  0  0
 42111  1  0  0  0
 42112  1  0  0  0
 43 44  1  0  0  0
 44113  1  0  0  0
 45 46  2  0  0  0
 45114  1  0  0  0
 46115  1  0  0  0
 47116  1  0  0  0
 47117  1  0  0  0
 48 56  1  0  0  0
 48 65  1  0  0  0
 48118  1  0  0  0
 49 50  1  0  0  0
 49 53  1  0  0  0
 49 64  1  0  0  0
 49119  1  0  0  0
 50 51  1  0  0  0
 50120  1  0  0  0
 50121  1  0  0  0
 51 52  1  0  0  0
 51122  1  0  0  0
 51123  1  0  0  0
 52124  1  0  0  0
 52125  1  0  0  0
 53 54  1  0  0  0
 54 55  2  0  0  0
 54126  1  0  0  0
 55 57  1  0  0  0
 55127  1  0  0  0
 56 69  2  0  0  0
 57 58  2  0  0  0
 57128  1  0  0  0
 58129  1  0  0  0
 59 60  1  0  0  0
 59 61  1  0  0  0
 59 62  1  0  0  0
 60130  1  0  0  0
 60131  1  0  0  0
 60132  1  0  0  0
 61133  1  0  0  0
 61134  1  0  0  0
 61135  1  0  0  0
 62136  1  0  0  0
 62137  1  0  0  0
 62138  1  0  0  0
 63 65  1  0  0  0
 63139  1  0  0  0
 63140  1  0  0  0
 63141  1  0  0  0
 64142  1  0  0  0
 65143  1  0  0  0
 68 80  1  0  0  0
 71 72  2  0  0  0
 71 84  1  0  0  0
 71144  1  0  0  0
 72 78  1  0  0  0
 72 83  1  0  0  0
 73 81  1  0  0  0
 73 83  1  0  0  0
 73 84  2  0  0  0
 74145  1  0  0  0
 74146  1  0  0  0
 74147  1  0  0  0
 74 81  1  0  0  0
 75148  1  0  0  0
 75149  1  0  0  0
 75150  1  0  0  0
 75 82  1  0  0  0
 76 82  1  0  0  0
 76151  1  0  0  0
 76152  1  0  0  0
 76153  1  0  0  0
 77 83  1  0  0  0
 77154  1  0  0  0
 77155  1  0  0  0
 77156  1  0  0  0
 78 79  1  0  0  0
 78157  1  0  0  0
 78158  1  0  0  0
 79 80  1  0  0  0
 79159  1  0  0  0
 79160  1  0  0  0
 80161  1  0  0  0
 80162  1  0  0  0
 81 82  1  0  0  0
 81163  1  0  0  0
 84164  1  0  0  0
M  CHG  1  84   1
M  ISO  4   1 100  68 101  80 101  82 100
M  END
> <chiral flag>
0

> <version>
0

> <s_m_source_file>
/data/baiqing/PycharmProjects/Reinvent-master-3.2/result/LINK_invent/BTK/process_docking_weight1_custom_sum_contain_oxygen_bond_distance_aromatic_linkinvent_7_9_3/rearranged_h_0071.sdf

> <i_m_source_file_index>
11

> <r_mmod_Potential_Energy-OPLS-2005>
190.445404052734

> <r_mmod_Stretch_Energy-OPLS-2005>
110.429237365723

> <r_mmod_Bend_Energy-OPLS-2005>
176.064651489258

> <r_mmod_Torsional_Energy-OPLS-2005>
228.375427246094

> <r_mmod_Improper_Torsional_Energy-OPLS-2005>
9.59089946746826

> <r_mmod_Van_der_Waal_Energy-OPLS-2005>
137.897613525391

> <r_mmod_Electrostatic_Energy-OPLS-2005>
-171.477355957031

> <r_mmod_Solvation_Energy-OPLS-2005>
-399.489044189453

> <b_mmod_Minimization_Converged-OPLS-2005>
0

> <r_mmod_RMS_Derivative-OPLS-2005>
1.84373009204865

$$$$
11
                    3D
 Structure written by MMmdl.
176184  0  0  1  0            999 V2000
  -30.7356  -14.7620   20.3503 C   0  0  0  0  0  0
  -30.4357  -12.4998   19.3818 C   0  0  0  0  0  0
  -29.4571  -12.3795   18.2045 C   0  0  0  0  0  0
  -28.0296  -12.1442   18.7257 C   0  0  0  0  0  0
  -27.6199  -13.1469   19.8256 C   0  0  2  0  0  0
  -28.7140  -13.2459   20.9124 C   0  0  0  0  0  0
  -25.2438  -13.7857   20.5824 C   0  0  0  0  0  0
  -24.1634  -13.0231   20.9332 C   0  0  0  0  0  0
  -24.6193  -11.6715   20.8929 C   0  0  0  0  0  0
  -23.8874  -10.4138   21.0513 C   0  0  0  0  0  0
  -24.3470   -9.4031   21.9236 C   0  0  0  0  0  0
  -23.6147   -8.2089   22.0754 C   0  0  0  0  0  0
  -22.4149   -8.0157   21.3521 C   0  0  0  0  0  0
  -21.9772   -9.0103   20.4617 C   0  0  0  0  0  0
  -22.7104  -10.1988   20.3049 C   0  0  0  0  0  0
  -21.6795   -6.0629   22.5265 C   0  0  0  0  0  0
  -21.4005   -6.5546   23.8203 C   0  0  0  0  0  0
  -21.3679   -5.6715   24.9178 C   0  0  0  0  0  0
  -21.6056   -4.2980   24.7268 C   0  0  0  0  0  0
  -21.8820   -3.8050   23.4397 C   0  0  0  0  0  0
  -21.9163   -4.6855   22.3425 C   0  0  0  0  0  0
  -22.7679  -13.5117   21.1951 C   0  0  0  0  0  0
  -22.1630   -4.2025   21.1008 F   0  0  0  0  0  0
  -21.5661   -3.4497   25.7802 F   0  0  0  0  0  0
  -29.9631  -13.6242   20.2196 N   0  0  0  0  0  0
  -26.2810  -12.8941   20.3449 N   0  0  0  0  0  0
  -25.9100  -11.6187   20.6029 N   0  0  0  0  0  0
  -22.0310  -12.8099   22.0542 N   0  0  0  0  0  0
  -25.4107  -15.1493   20.4236 N   0  0  0  0  0  0
  -31.9107  -14.5414   20.6228 O   0  0  0  0  0  0
  -21.6533   -6.8751   21.4219 O   0  0  0  0  0  0
  -22.3404  -14.5429   20.6814 O   0  0  0  0  0  0
  -24.6262  -31.8618   23.1967 C   0  0  0  0  0  0
  -25.9136  -32.4777   23.8262 C   0  0  1  0  0  0
  -27.2235  -27.3345   20.0851 C   0  0  0  0  0  0
  -25.6004  -33.8581   24.2242 N   0  0  0  0  0  0
  -23.4118  -30.4873   21.5440 C   0  0  2  0  0  0
  -24.8493  -28.9478   20.1072 C   0  0  0  0  0  0
  -22.7475  -29.4637   22.4940 C   0  0  0  0  0  0
  -18.0264  -28.1383   22.8526 C   0  0  0  0  0  0
  -24.1486  -36.7217   23.2618 C   0  0  0  0  0  0
  -25.9451  -30.8065   21.3461 C   0  0  0  0  0  0
  -26.0200  -29.4333   20.6919 C   0  0  0  0  0  0
  -27.2042  -28.6408   20.6686 C   0  0  0  0  0  0
  -26.0064  -26.8938   19.5111 C   0  0  0  0  0  0
  -24.8414  -27.6824   19.5097 C   0  0  0  0  0  0
  -23.6163  -29.8225   20.1596 C   0  0  0  0  0  0
  -25.4095  -36.3040   24.0325 C   0  0  1  0  0  0
  -20.5900  -28.3686   23.1288 C   0  0  2  0  0  0
  -20.6780  -26.9423   22.5405 C   0  0  0  0  0  0
  -19.5728  -26.6415   21.5225 C   0  0  0  0  0  0
  -18.1913  -26.7931   22.1646 C   0  0  0  0  0  0
  -19.1535  -28.8836   23.2923 C   0  0  0  0  0  0
  -18.9492  -30.1463   23.8937 C   0  0  0  0  0  0
  -17.6504  -30.6638   24.0591 C   0  0  0  0  0  0
  -25.9074  -34.9462   23.5063 C   0  0  0  0  0  0
  -16.5384  -29.9159   23.6348 C   0  0  0  0  0  0
  -16.7254  -28.6541   23.0406 C   0  0  0  0  0  0
  -26.4538  -31.6535   25.0577 C   0  0  0  0  0  0
  -25.3816  -31.3711   26.1345 C   0  0  0  0  0  0
  -27.0246  -30.2936   24.5875 C   0  0  0  0  0  0
  -27.6093  -32.4241   25.7382 C   0  0  0  0  0  0
  -27.5537  -37.1730   24.8491 C   0  0  0  0  0  0
  -21.4189  -29.3049   22.3698 N   0  0  0  0  0  0
  -26.4236  -37.3757   23.9466 N   0  0  0  0  0  0
  -24.6811  -31.0686   22.0872 N   0  0  0  0  0  0
  -23.4239  -28.8180   23.2990 O   0  0  0  0  0  0
  -28.3956  -26.5577   20.1920 O   0  0  0  0  0  0
  -26.5650  -34.8941   22.4635 O   0  0  0  0  0  0
  -23.5448  -32.1396   23.7337 O   0  0  0  0  0  0
  -30.2806  -19.5689   20.6967 C   0  0  0  0  0  0
  -29.2500  -18.7333   20.1557 C   0  0  0  0  0  0
  -27.8527  -20.6666   20.2432 C   0  0  0  0  0  0
  -28.9041  -21.5020   20.7045 C   0  0  0  0  0  0
  -26.4240  -21.1388   20.0437 C   0  0  0  0  0  0
  -30.9173  -23.8460   20.2314 C   0  0  0  0  0  0
  -29.0231  -17.6323   17.9976 C   0  0  0  0  0  0
  -28.0301  -16.5263   19.9700 C   0  0  0  0  0  0
  -31.8542  -17.0328   19.8587 C   0  0  0  0  0  0
  -30.9586  -15.6789   18.0893 C   0  0  0  0  0  0
  -27.7403  -24.5032   18.6997 C   0  0  0  0  0  0
  -29.8013  -25.7961   18.5212 C   0  0  0  0  0  0
  -28.6613  -22.9866   21.1613 C   0  0  0  0  0  0
  -29.4614  -24.2415   20.5837 C   0  0  2  0  0  0
  -29.2931  -17.2542   19.5004 C   0  0  0  0  0  0
  -30.5942  -16.1835   19.5248 C   0  0  0  0  0  0
  -28.7674  -25.2709   19.5444 C   0  0  0  0  0  0
  -30.1040  -20.9048   20.9716 N   0  0  0  0  0  0
  -28.0386  -19.3502   19.9918 N   0  0  0  0  0  0
  -31.4423  -12.6642   18.9925 H   0  0  0  0  0  0
  -30.4805  -11.5728   19.9517 H   0  0  0  0  0  0
  -29.7565  -11.5601   17.5509 H   0  0  0  0  0  0
  -29.4663  -13.2678   17.5859 H   0  0  0  0  0  0
  -28.0199  -11.1486   19.1700 H   0  0  0  0  0  0
  -27.3101  -12.1219   17.9071 H   0  0  0  0  0  0
  -27.5455  -14.0641   19.2808 H   0  0  0  0  0  0
  -28.8271  -12.2816   21.4108 H   0  0  0  0  0  0
  -28.4561  -13.9562   21.6991 H   0  0  0  0  0  0
  -25.2643   -9.5488   22.4794 H   0  0  0  0  0  0
  -23.9846   -7.4449   22.7432 H   0  0  0  0  0  0
  -21.0735   -8.8597   19.8883 H   0  0  0  0  0  0
  -22.3610  -10.9499   19.6131 H   0  0  0  0  0  0
  -21.1989   -7.6052   23.9690 H   0  0  0  0  0  0
  -21.1531   -6.0454   25.9077 H   0  0  0  0  0  0
  -22.0605   -2.7517   23.2944 H   0  0  0  0  0  0
  -22.3925  -11.9728   22.4859 H   0  0  0  0  0  0
  -21.0997  -13.1213   22.2921 H   0  0  0  0  0  0
  -24.6800  -15.8392   20.5506 H   0  0  0  0  0  0
  -26.2955  -15.5554   20.1546 H   0  0  0  0  0  0
  -26.7171  -32.5457   23.0983 H   0  0  0  0  0  0
  -25.0251  -33.9717   25.0455 H   0  0  0  0  0  0
  -22.7052  -31.3100   21.4059 H   0  0  0  0  0  0
  -23.3774  -35.9526   23.3294 H   0  0  0  0  0  0
  -24.3558  -36.8803   22.2022 H   0  0  0  0  0  0
  -23.7193  -37.6398   23.6623 H   0  0  0  0  0  0
  -26.0489  -31.5651   20.5666 H   0  0  0  0  0  0
  -26.8410  -30.8718   21.9548 H   0  0  0  0  0  0
  -28.1081  -29.0201   21.1246 H   0  0  0  0  0  0
  -25.8528  -25.9264   19.0878 H   0  0  0  0  0  0
  -23.9323  -27.2905   19.0772 H   0  0  0  0  0  0
  -23.7268  -30.5940   19.3945 H   0  0  0  0  0  0
  -22.7325  -29.2531   19.8658 H   0  0  0  0  0  0
  -25.1255  -36.1820   25.0794 H   0  0  0  0  0  0
  -21.0005  -28.3214   24.1403 H   0  0  0  0  0  0
  -20.5692  -26.2298   23.3592 H   0  0  0  0  0  0
  -21.6635  -26.7485   22.1177 H   0  0  0  0  0  0
  -19.6940  -25.6348   21.1205 H   0  0  0  0  0  0
  -19.6648  -27.3283   20.6801 H   0  0  0  0  0  0
  -17.4188  -26.6716   21.4051 H   0  0  0  0  0  0
  -18.0325  -26.0048   22.9002 H   0  0  0  0  0  0
  -19.7977  -30.7259   24.2328 H   0  0  0  0  0  0
  -17.5075  -31.6311   24.5207 H   0  0  0  0  0  0
  -15.5399  -30.3127   23.7620 H   0  0  0  0  0  0
  -15.8634  -28.0888   22.7168 H   0  0  0  0  0  0
  -24.6072  -30.6919   25.7759 H   0  0  0  0  0  0
  -24.8934  -32.2894   26.4620 H   0  0  0  0  0  0
  -25.8222  -30.9079   27.0185 H   0  0  0  0  0  0
  -26.2694  -29.6781   24.0944 H   0  0  0  0  0  0
  -27.4022  -29.7050   25.4241 H   0  0  0  0  0  0
  -27.8568  -30.4200   23.8944 H   0  0  0  0  0  0
  -27.2714  -33.3598   26.1857 H   0  0  0  0  0  0
  -28.3987  -32.6676   25.0264 H   0  0  0  0  0  0
  -28.0635  -31.8396   26.5376 H   0  0  0  0  0  0
  -28.2585  -38.0009   24.7535 H   0  0  0  0  0  0
  -28.0997  -36.2526   24.6325 H   0  0  0  0  0  0
  -27.2272  -37.1390   25.8907 H   0  0  0  0  0  0
  -20.9375  -29.8771   21.6916 H   0  0  0  0  0  0
  -26.0086  -38.2788   24.1589 H   0  0  0  0  0  0
  -31.2822  -19.2390   20.9056 H   0  0  0  0  0  0
  -26.3760  -22.0903   19.5264 H   0  0  0  0  0  0
  -25.9239  -21.2326   21.0079 H   0  0  0  0  0  0
  -25.8606  -20.4280   19.4403 H   0  0  0  0  0  0
  -31.3698  -23.2318   21.0076 H   0  0  0  0  0  0
  -31.5704  -24.7124   20.1419 H   0  0  0  0  0  0
  -30.9642  -23.2820   19.2996 H   0  0  0  0  0  0
  -28.1400  -18.2507   17.8524 H   0  0  0  0  0  0
  -28.8164  -16.7943   17.3376 H   0  0  0  0  0  0
  -29.8587  -18.1926   17.5802 H   0  0  0  0  0  0
  -27.1893  -17.1599   20.2424 H   0  0  0  0  0  0
  -28.1927  -15.8934   20.8361 H   0  0  0  0  0  0
  -27.6373  -15.9889   19.1165 H   0  0  0  0  0  0
  -31.8715  -17.9597   19.2834 H   0  0  0  0  0  0
  -32.7952  -16.5453   19.5920 H   0  0  0  0  0  0
  -31.9124  -17.2491   20.9246 H   0  0  0  0  0  0
  -31.3127  -16.4642   17.4239 H   0  0  0  0  0  0
  -30.1183  -15.2004   17.6093 H   0  0  0  0  0  0
  -31.7561  -14.9334   18.0791 H   0  0  0  0  0  0
  -28.2002  -23.6103   18.2738 H   0  0  0  0  0  0
  -27.3831  -25.0877   17.8506 H   0  0  0  0  0  0
  -26.8906  -24.1741   19.2867 H   0  0  0  0  0  0
  -30.2831  -24.9804   17.9807 H   0  0  0  0  0  0
  -30.5788  -26.3827   19.0082 H   0  0  0  0  0  0
  -29.3515  -26.4344   17.7583 H   0  0  0  0  0  0
  -28.9120  -22.9416   22.2226 H   0  0  0  0  0  0
  -27.5966  -23.2052   21.1867 H   0  0  0  0  0  0
  -29.5761  -24.8712   21.4669 H   0  0  0  0  0  0
  1 25  1  0  0  0
  1 30  2  0  0  0
  1 86  1  0  0  0
  2  3  1  0  0  0
  2 25  1  0  0  0
  2 90  1  0  0  0
  2 91  1  0  0  0
  3  4  1  0  0  0
  3 92  1  0  0  0
  3 93  1  0  0  0
  4  5  1  0  0  0
  4 94  1  0  0  0
  4 95  1  0  0  0
  5  6  1  0  0  0
  5 26  1  0  0  0
  5 96  1  0  0  0
  6 25  1  0  0  0
  6 97  1  0  0  0
  6 98  1  0  0  0
  7  8  2  0  0  0
  7 26  1  0  0  0
  7 29  1  0  0  0
  8  9  1  0  0  0
  8 22  1  0  0  0
  9 10  1  0  0  0
  9 27  2  0  0  0
 10 11  2  0  0  0
 10 15  1  0  0  0
 11 12  1  0  0  0
 11 99  1  0  0  0
 12 13  2  0  0  0
 12100  1  0  0  0
 13 14  1  0  0  0
 13 31  1  0  0  0
 14 15  2  0  0  0
 14101  1  0  0  0
 15102  1  0  0  0
 16 17  2  0  0  0
 16 21  1  0  0  0
 16 31  1  0  0  0
 17 18  1  0  0  0
 17103  1  0  0  0
 18 19  2  0  0  0
 18104  1  0  0  0
 19 20  1  0  0  0
 19 24  1  0  0  0
 20 21  2  0  0  0
 20105  1  0  0  0
 21 23  1  0  0  0
 22 28  1  0  0  0
 22 32  2  0  0  0
 26 27  1  0  0  0
 28106  1  0  0  0
 28107  1  0  0  0
 29108  1  0  0  0
 29109  1  0  0  0
 33 34  1  0  0  0
 33 66  1  0  0  0
 33 70  2  0  0  0
 34 36  1  0  0  0
 34 59  1  0  0  0
 34110  1  0  0  0
 35 44  2  0  0  0
 35 45  1  0  0  0
 35 68  1  0  0  0
 36 56  1  0  0  0
 36111  1  0  0  0
 37 39  1  0  0  0
 37 47  1  0  0  0
 37 66  1  0  0  0
 37112  1  0  0  0
 38 43  2  0  0  0
 38 46  1  0  0  0
 38 47  1  0  0  0
 39 64  1  0  0  0
 39 67  2  0  0  0
 40 52  1  0  0  0
 40 53  2  0  0  0
 40 58  1  0  0  0
 41113  1  0  0  0
 41114  1  0  0  0
 41115  1  0  0  0
 41 48  1  0  0  0
 42 43  1  0  0  0
 42 66  1  0  0  0
 42116  1  0  0  0
 42117  1  0  0  0
 43 44  1  0  0  0
 44118  1  0  0  0
 45 46  2  0  0  0
 45119  1  0  0  0
 46120  1  0  0  0
 47121  1  0  0  0
 47122  1  0  0  0
 48 56  1  0  0  0
 48 65  1  0  0  0
 48123  1  0  0  0
 49 50  1  0  0  0
 49 53  1  0  0  0
 49 64  1  0  0  0
 49124  1  0  0  0
 50 51  1  0  0  0
 50125  1  0  0  0
 50126  1  0  0  0
 51 52  1  0  0  0
 51127  1  0  0  0
 51128  1  0  0  0
 52129  1  0  0  0
 52130  1  0  0  0
 53 54  1  0  0  0
 54 55  2  0  0  0
 54131  1  0  0  0
 55 57  1  0  0  0
 55132  1  0  0  0
 56 69  2  0  0  0
 57 58  2  0  0  0
 57133  1  0  0  0
 58134  1  0  0  0
 59 60  1  0  0  0
 59 61  1  0  0  0
 59 62  1  0  0  0
 60135  1  0  0  0
 60136  1  0  0  0
 60137  1  0  0  0
 61138  1  0  0  0
 61139  1  0  0  0
 61140  1  0  0  0
 62141  1  0  0  0
 62142  1  0  0  0
 62143  1  0  0  0
 63 65  1  0  0  0
 63144  1  0  0  0
 63145  1  0  0  0
 63146  1  0  0  0
 64147  1  0  0  0
 65148  1  0  0  0
 68 87  1  0  0  0
 71 72  2  0  0  0
 71 88  1  0  0  0
 71149  1  0  0  0
 72 85  1  0  0  0
 72 89  1  0  0  0
 73 74  1  0  0  0
 73 75  1  0  0  0
 73 89  2  0  0  0
 74 83  1  0  0  0
 74 88  2  0  0  0
 75150  1  0  0  0
 75151  1  0  0  0
 75152  1  0  0  0
 76153  1  0  0  0
 76154  1  0  0  0
 76155  1  0  0  0
 76 84  1  0  0  0
 77156  1  0  0  0
 77157  1  0  0  0
 77158  1  0  0  0
 77 85  1  0  0  0
 78 85  1  0  0  0
 78159  1  0  0  0
 78160  1  0  0  0
 78161  1  0  0  0
 79162  1  0  0  0
 79163  1  0  0  0
 79164  1  0  0  0
 79 86  1  0  0  0
 80 86  1  0  0  0
 80165  1  0  0  0
 80166  1  0  0  0
 80167  1  0  0  0
 81168  1  0  0  0
 81169  1  0  0  0
 81170  1  0  0  0
 81 87  1  0  0  0
 82 87  1  0  0  0
 82171  1  0  0  0
 82172  1  0  0  0
 82173  1  0  0  0
 83 84  1  0  0  0
 83174  1  0  0  0
 83175  1  0  0  0
 84 87  1  0  0  0
 84176  1  0  0  0
 85 86  1  0  0  0
M  ISO  4   1 100  68 101  86 100  87 101
M  END
> <chiral flag>
0

> <version>
0

> <s_m_source_file>
/data/baiqing/PycharmProjects/Reinvent-master-3.2/result/LINK_invent/BTK/process_docking_weight1_custom_sum_contain_oxygen_bond_distance_aromatic_linkinvent_7_9_3/rearranged_h_0071.sdf

> <i_m_source_file_index>
12

> <r_mmod_Potential_Energy-OPLS-2005>
685.824890136719

> <r_mmod_Stretch_Energy-OPLS-2005>
147.245849609375

> <r_mmod_Bend_Energy-OPLS-2005>
353.94140625

> <r_mmod_Torsional_Energy-OPLS-2005>
267.008056640625

> <r_mmod_Improper_Torsional_Energy-OPLS-2005>
29.1385803222656

> <r_mmod_Van_der_Waal_Energy-OPLS-2005>
244.459884643555

> <r_mmod_Electrostatic_Energy-OPLS-2005>
-313.457611083984

> <r_mmod_Solvation_Energy-OPLS-2005>
-177.641464233398

> <b_mmod_Minimization_Converged-OPLS-2005>
0

> <r_mmod_RMS_Derivative-OPLS-2005>
6.51532506942749

$$$$
12
                    3D
 Structure written by MMmdl.
159167  0  0  1  0            999 V2000
  -30.5364  -14.9972   20.4044 C   0  0  0  0  0  0
  -30.4383  -12.6187   19.4857 C   0  0  0  0  0  0
  -29.5153  -12.5369   18.2467 C   0  0  0  0  0  0
  -28.0529  -12.2984   18.6688 C   0  0  0  0  0  0
  -27.6222  -13.2295   19.8276 C   0  0  2  0  0  0
  -28.6743  -13.2706   20.9569 C   0  0  0  0  0  0
  -25.2354  -13.8118   20.5605 C   0  0  0  0  0  0
  -24.1725  -13.0351   20.9224 C   0  0  0  0  0  0
  -24.6363  -11.6868   20.8763 C   0  0  0  0  0  0
  -23.9055  -10.4262   21.0409 C   0  0  0  0  0  0
  -24.3628   -9.4206   21.9195 C   0  0  0  0  0  0
  -23.6320   -8.2228   22.0751 C   0  0  0  0  0  0
  -22.4289   -8.0280   21.3551 C   0  0  0  0  0  0
  -21.9911   -9.0232   20.4633 C   0  0  0  0  0  0
  -22.7227  -10.2121   20.3049 C   0  0  0  0  0  0
  -21.6856   -6.0736   22.5292 C   0  0  0  0  0  0
  -21.4007   -6.5628   23.8229 C   0  0  0  0  0  0
  -21.3652   -5.6773   24.9180 C   0  0  0  0  0  0
  -21.6051   -4.3041   24.7229 C   0  0  0  0  0  0
  -21.8826   -3.8142   23.4346 C   0  0  0  0  0  0
  -21.9200   -4.6962   22.3408 C   0  0  0  0  0  0
  -22.7745  -13.5162   21.1883 C   0  0  0  0  0  0
  -22.1686   -4.2154   21.0981 F   0  0  0  0  0  0
  -21.5626   -3.4531   25.7744 F   0  0  0  0  0  0
  -29.9408  -13.7244   20.3633 N   0  0  0  0  0  0
  -26.2832  -12.9348   20.3208 N   0  0  0  0  0  0
  -25.9298  -11.6503   20.5787 N   0  0  0  0  0  0
  -22.0387  -12.8176   22.0462 N   0  0  0  0  0  0
  -25.3682  -15.1842   20.3889 N   0  0  0  0  0  0
  -31.7467  -14.9727   20.1479 O   0  0  0  0  0  0
  -21.6640   -6.8882   21.4266 O   0  0  0  0  0  0
  -22.3443  -14.5471   20.6738 O   0  0  0  0  0  0
  -24.6431  -31.8451   23.1856 C   0  0  0  0  0  0
  -25.9199  -32.4714   23.8257 C   0  0  1  0  0  0
  -27.2301  -27.1471   20.1563 C   0  0  0  0  0  0
  -25.5957  -33.8520   24.2181 N   0  0  0  0  0  0
  -23.4462  -30.4611   21.5323 C   0  0  2  0  0  0
  -24.8994  -28.8761   20.1202 C   0  0  0  0  0  0
  -22.7556  -29.4556   22.4878 C   0  0  0  0  0  0
  -18.0300  -28.1377   22.8465 C   0  0  0  0  0  0
  -24.1496  -36.7272   23.2639 C   0  0  0  0  0  0
  -25.9998  -30.7215   21.3808 C   0  0  0  0  0  0
  -26.0760  -29.3287   20.7310 C   0  0  0  0  0  0
  -27.2457  -28.4810   20.7281 C   0  0  0  0  0  0
  -26.0274  -26.7831   19.5187 C   0  0  0  0  0  0
  -24.8861  -27.6162   19.4997 C   0  0  0  0  0  0
  -23.6758  -29.7799   20.1560 C   0  0  0  0  0  0
  -25.4121  -36.3045   24.0316 C   0  0  1  0  0  0
  -20.5908  -28.3702   23.1245 C   0  0  2  0  0  0
  -20.6776  -26.9408   22.5403 C   0  0  0  0  0  0
  -19.5756  -26.6364   21.5211 C   0  0  0  0  0  0
  -18.1940  -26.7914   22.1619 C   0  0  0  0  0  0
  -19.1550  -28.8855   23.2851 C   0  0  0  0  0  0
  -18.9481  -30.1456   23.8873 C   0  0  0  0  0  0
  -17.6479  -30.6584   24.0557 C   0  0  0  0  0  0
  -25.9061  -34.9423   23.5049 C   0  0  0  0  0  0
  -16.5370  -29.9083   23.6328 C   0  0  0  0  0  0
  -16.7287  -28.6500   23.0348 C   0  0  0  0  0  0
  -26.4518  -31.6585   25.0695 C   0  0  0  0  0  0
  -25.3671  -31.3811   26.1375 C   0  0  0  0  0  0
  -27.0388  -30.2994   24.6235 C   0  0  0  0  0  0
  -27.6038  -32.4343   25.7481 C   0  0  0  0  0  0
  -27.5577  -37.1794   24.8455 C   0  0  0  0  0  0
  -21.4248  -29.3055   22.3632 N   0  0  0  0  0  0
  -26.4281  -37.3763   23.9405 N   0  0  0  0  0  0
  -24.7162  -31.0308   22.0890 N   0  0  0  0  0  0
  -23.4207  -28.8066   23.2998 O   0  0  0  0  0  0
  -28.3111  -26.2016   20.1289 O   0  0  0  0  0  0
  -26.5642  -34.8929   22.4628 O   0  0  0  0  0  0
  -23.5551  -32.1327   23.7080 O   0  0  0  0  0  0
  -30.7512  -19.6523   18.7924 C   0  0  0  0  0  0
  -30.3556  -17.8427   19.8886 C   0  0  0  0  0  0
  -30.6322  -20.9908   18.1316 C   0  0  0  0  0  0
  -30.0044  -16.7893   22.1930 C   0  0  0  0  0  0
  -28.3132  -16.5137   20.3774 C   0  0  0  0  0  0
  -29.1221  -21.8924   20.7053 C   0  0  0  0  0  0
  -28.5471  -23.2698   19.9173 C   0  0  0  0  0  0
  -28.8832  -20.2390   20.3815 C   0  0  0  0  0  0
  -28.2025  -24.7470   20.6602 C   0  0  0  0  0  0
  -29.8151  -16.5222   20.6880 C   0  0  0  0  0  0
  -31.6312  -18.7587   18.3557 N   0  0  0  0  0  0
  -31.3838  -17.6203   19.0557 N   0  0  0  0  0  0
  -29.9532  -19.2427   19.8115 N   0  0  0  0  0  0
  -31.4669  -12.7762   19.1586 H   0  0  0  0  0  0
  -30.4482  -11.6673   20.0211 H   0  0  0  0  0  0
  -29.8485  -11.7440   17.5763 H   0  0  0  0  0  0
  -29.5930  -13.4670   17.6772 H   0  0  0  0  0  0
  -27.9623  -11.2594   18.9852 H   0  0  0  0  0  0
  -27.3822  -12.4199   17.8180 H   0  0  0  0  0  0
  -27.5641  -14.2089   19.3671 H   0  0  0  0  0  0
  -28.7818  -12.2841   21.4084 H   0  0  0  0  0  0
  -28.3699  -13.9231   21.7721 H   0  0  0  0  0  0
  -25.2777   -9.5704   22.4763 H   0  0  0  0  0  0
  -24.0045   -7.4598   22.7440 H   0  0  0  0  0  0
  -21.0850   -8.8729   19.8918 H   0  0  0  0  0  0
  -22.3681  -10.9658   19.6158 H   0  0  0  0  0  0
  -21.1998   -7.6132   23.9742 H   0  0  0  0  0  0
  -21.1465   -6.0491   25.9086 H   0  0  0  0  0  0
  -22.0615   -2.7604   23.2848 H   0  0  0  0  0  0
  -22.4016  -11.9933   22.5004 H   0  0  0  0  0  0
  -21.0970  -13.1178   22.2547 H   0  0  0  0  0  0
  -24.5771  -15.8073   20.5106 H   0  0  0  0  0  0
  -26.2009  -15.6590   20.0700 H   0  0  0  0  0  0
  -26.7247  -32.5321   23.0972 H   0  0  0  0  0  0
  -25.0136  -33.9646   25.0352 H   0  0  0  0  0  0
  -22.7479  -31.2858   21.3699 H   0  0  0  0  0  0
  -23.3775  -35.9594   23.3278 H   0  0  0  0  0  0
  -24.3574  -36.8924   22.2055 H   0  0  0  0  0  0
  -23.7243  -37.6458   23.6690 H   0  0  0  0  0  0
  -26.1429  -31.4685   20.5995 H   0  0  0  0  0  0
  -26.8746  -30.7840   22.0153 H   0  0  0  0  0  0
  -28.1464  -28.8289   21.2143 H   0  0  0  0  0  0
  -25.9645  -25.8177   19.0352 H   0  0  0  0  0  0
  -23.9879  -27.2631   19.0125 H   0  0  0  0  0  0
  -23.8197  -30.5487   19.3967 H   0  0  0  0  0  0
  -22.7909  -29.2246   19.8408 H   0  0  0  0  0  0
  -25.1318  -36.1876   25.0811 H   0  0  0  0  0  0
  -21.0006  -28.3286   24.1365 H   0  0  0  0  0  0
  -20.5660  -26.2320   23.3622 H   0  0  0  0  0  0
  -21.6645  -26.7406   22.1210 H   0  0  0  0  0  0
  -19.6922  -25.6272   21.1252 H   0  0  0  0  0  0
  -19.6698  -27.3157   20.6730 H   0  0  0  0  0  0
  -17.4210  -26.6666   21.4024 H   0  0  0  0  0  0
  -18.0340  -26.0063   22.9014 H   0  0  0  0  0  0
  -19.7964  -30.7272   24.2240 H   0  0  0  0  0  0
  -17.5041  -31.6259   24.5162 H   0  0  0  0  0  0
  -15.5368  -30.2985   23.7663 H   0  0  0  0  0  0
  -15.8684  -28.0821   22.7072 H   0  0  0  0  0  0
  -24.5825  -30.7193   25.7688 H   0  0  0  0  0  0
  -24.8891  -32.3026   26.4717 H   0  0  0  0  0  0
  -25.7915  -30.9021   27.0201 H   0  0  0  0  0  0
  -26.3013  -29.6711   24.1224 H   0  0  0  0  0  0
  -27.4029  -29.7303   25.4792 H   0  0  0  0  0  0
  -27.8894  -30.4285   23.9536 H   0  0  0  0  0  0
  -27.2635  -33.3660   26.2017 H   0  0  0  0  0  0
  -28.3883  -32.6873   25.0333 H   0  0  0  0  0  0
  -28.0663  -31.8482   26.5434 H   0  0  0  0  0  0
  -28.2583  -38.0100   24.7518 H   0  0  0  0  0  0
  -28.1088  -36.2637   24.6269 H   0  0  0  0  0  0
  -27.2289  -37.1407   25.8851 H   0  0  0  0  0  0
  -20.9450  -29.8847   21.6875 H   0  0  0  0  0  0
  -26.0158  -38.2837   24.1409 H   0  0  0  0  0  0
  -31.1047  -20.9750   17.1505 H   0  0  0  0  0  0
  -31.1233  -21.7594   18.7259 H   0  0  0  0  0  0
  -29.5850  -21.2547   17.9801 H   0  0  0  0  0  0
  -29.4847  -17.6933   22.5106 H   0  0  0  0  0  0
  -31.0600  -16.9123   22.4384 H   0  0  0  0  0  0
  -29.6169  -15.9645   22.7938 H   0  0  0  0  0  0
  -27.8628  -17.4818   20.5986 H   0  0  0  0  0  0
  -27.7788  -15.8049   20.9955 H   0  0  0  0  0  0
  -28.1277  -16.3269   19.3190 H   0  0  0  0  0  0
  -28.6808  -21.9992   21.6966 H   0  0  0  0  0  0
  -30.1844  -22.0420   20.9016 H   0  0  0  0  0  0
  -27.6323  -22.9748   19.4053 H   0  0  0  0  0  0
  -29.2444  -23.4764   19.1054 H   0  0  0  0  0  0
  -28.5679  -19.7899   21.3230 H   0  0  0  0  0  0
  -28.0047  -20.1498   19.7407 H   0  0  0  0  0  0
  -28.8615  -24.7695   21.5271 H   0  0  0  0  0  0
  -27.2094  -24.6453   21.1008 H   0  0  0  0  0  0
  1 25  1  0  0  0
  1 30  2  0  0  0
  1 80  1  0  0  0
  2  3  1  0  0  0
  2 25  1  0  0  0
  2 84  1  0  0  0
  2 85  1  0  0  0
  3  4  1  0  0  0
  3 86  1  0  0  0
  3 87  1  0  0  0
  4  5  1  0  0  0
  4 88  1  0  0  0
  4 89  1  0  0  0
  5  6  1  0  0  0
  5 26  1  0  0  0
  5 90  1  0  0  0
  6 25  1  0  0  0
  6 91  1  0  0  0
  6 92  1  0  0  0
  7  8  2  0  0  0
  7 26  1  0  0  0
  7 29  1  0  0  0
  8  9  1  0  0  0
  8 22  1  0  0  0
  9 10  1  0  0  0
  9 27  2  0  0  0
 10 11  2  0  0  0
 10 15  1  0  0  0
 11 12  1  0  0  0
 11 93  1  0  0  0
 12 13  2  0  0  0
 12 94  1  0  0  0
 13 14  1  0  0  0
 13 31  1  0  0  0
 14 15  2  0  0  0
 14 95  1  0  0  0
 15 96  1  0  0  0
 16 17  2  0  0  0
 16 21  1  0  0  0
 16 31  1  0  0  0
 17 18  1  0  0  0
 17 97  1  0  0  0
 18 19  2  0  0  0
 18 98  1  0  0  0
 19 20  1  0  0  0
 19 24  1  0  0  0
 20 21  2  0  0  0
 20 99  1  0  0  0
 21 23  1  0  0  0
 22 28  1  0  0  0
 22 32  2  0  0  0
 26 27  1  0  0  0
 28100  1  0  0  0
 28101  1  0  0  0
 29102  1  0  0  0
 29103  1  0  0  0
 33 34  1  0  0  0
 33 66  1  0  0  0
 33 70  2  0  0  0
 34 36  1  0  0  0
 34 59  1  0  0  0
 34104  1  0  0  0
 35 44  2  0  0  0
 35 45  1  0  0  0
 35 68  1  0  0  0
 36 56  1  0  0  0
 36105  1  0  0  0
 37 39  1  0  0  0
 37 47  1  0  0  0
 37 66  1  0  0  0
 37106  1  0  0  0
 38 43  2  0  0  0
 38 46  1  0  0  0
 38 47  1  0  0  0
 39 64  1  0  0  0
 39 67  2  0  0  0
 40 52  1  0  0  0
 40 53  2  0  0  0
 40 58  1  0  0  0
 41107  1  0  0  0
 41108  1  0  0  0
 41109  1  0  0  0
 41 48  1  0  0  0
 42 43  1  0  0  0
 42 66  1  0  0  0
 42110  1  0  0  0
 42111  1  0  0  0
 43 44  1  0  0  0
 44112  1  0  0  0
 45 46  2  0  0  0
 45113  1  0  0  0
 46114  1  0  0  0
 47115  1  0  0  0
 47116  1  0  0  0
 48 56  1  0  0  0
 48 65  1  0  0  0
 48117  1  0  0  0
 49 50  1  0  0  0
 49 53  1  0  0  0
 49 64  1  0  0  0
 49118  1  0  0  0
 50 51  1  0  0  0
 50119  1  0  0  0
 50120  1  0  0  0
 51 52  1  0  0  0
 51121  1  0  0  0
 51122  1  0  0  0
 52123  1  0  0  0
 52124  1  0  0  0
 53 54  1  0  0  0
 54 55  2  0  0  0
 54125  1  0  0  0
 55 57  1  0  0  0
 55126  1  0  0  0
 56 69  2  0  0  0
 57 58  2  0  0  0
 57127  1  0  0  0
 58128  1  0  0  0
 59 60  1  0  0  0
 59 61  1  0  0  0
 59 62  1  0  0  0
 60129  1  0  0  0
 60130  1  0  0  0
 60131  1  0  0  0
 61132  1  0  0  0
 61133  1  0  0  0
 61134  1  0  0  0
 62135  1  0  0  0
 62136  1  0  0  0
 62137  1  0  0  0
 63 65  1  0  0  0
 63138  1  0  0  0
 63139  1  0  0  0
 63140  1  0  0  0
 64141  1  0  0  0
 65142  1  0  0  0
 68 79  1  0  0  0
 71 73  1  0  0  0
 71 81  2  0  0  0
 71 83  1  0  0  0
 72 80  1  0  0  0
 72 82  2  0  0  0
 72 83  1  0  0  0
 73143  1  0  0  0
 73144  1  0  0  0
 73145  1  0  0  0
 74146  1  0  0  0
 74147  1  0  0  0
 74148  1  0  0  0
 74 80  1  0  0  0
 75 80  1  0  0  0
 75149  1  0  0  0
 75150  1  0  0  0
 75151  1  0  0  0
 76 77  1  0  0  0
 76 78  1  0  0  0
 76152  1  0  0  0
 76153  1  0  0  0
 77 79  1  0  0  0
 77154  1  0  0  0
 77155  1  0  0  0
 78 83  1  0  0  0
 78156  1  0  0  0
 78157  1  0  0  0
 79158  1  0  0  0
 79159  1  0  0  0
 81 82  1  0  0  0
M  ISO  4   1 100  68 101  79 101  80 100
M  END
> <chiral flag>
0

> <version>
0

> <s_m_source_file>
/data/baiqing/PycharmProjects/Reinvent-master-3.2/result/LINK_invent/BTK/process_docking_weight1_custom_sum_contain_oxygen_bond_distance_aromatic_linkinvent_7_9_3/rearranged_h_0071.sdf

> <i_m_source_file_index>
13

> <r_mmod_Potential_Energy-OPLS-2005>
696.375183105469

> <r_mmod_Stretch_Energy-OPLS-2005>
304.029815673828

> <r_mmod_Bend_Energy-OPLS-2005>
337.665344238281

> <r_mmod_Torsional_Energy-OPLS-2005>
250.250564575195

> <r_mmod_Improper_Torsional_Energy-OPLS-2005>
3.001380443573

> <r_mmod_Van_der_Waal_Energy-OPLS-2005>
117.400650024414

> <r_mmod_Electrostatic_Energy-OPLS-2005>
-273.772064208984

> <r_mmod_Solvation_Energy-OPLS-2005>
-235.223052978516

> <b_mmod_Minimization_Converged-OPLS-2005>
0

> <r_mmod_RMS_Derivative-OPLS-2005>
3.25427460670471

$$$$
13
                    3D
 Structure written by MMmdl.
157165  0  0  1  0            999 V2000
  -30.6217  -14.7137   20.4791 C   0  0  0  0  0  0
  -30.4333  -12.4405   19.4631 C   0  0  0  0  0  0
  -29.5070  -12.5051   18.2292 C   0  0  0  0  0  0
  -28.0349  -12.3260   18.6469 C   0  0  0  0  0  0
  -27.6445  -13.2246   19.8502 C   0  0  2  0  0  0
  -28.6890  -13.1445   20.9846 C   0  0  0  0  0  0
  -25.2541  -13.8182   20.5686 C   0  0  0  0  0  0
  -24.1818  -13.0445   20.9209 C   0  0  0  0  0  0
  -24.6393  -11.6916   20.8752 C   0  0  0  0  0  0
  -23.9058  -10.4299   21.0410 C   0  0  0  0  0  0
  -24.3616   -9.4216   21.9188 C   0  0  0  0  0  0
  -23.6297   -8.2247   22.0750 C   0  0  0  0  0  0
  -22.4279   -8.0283   21.3541 C   0  0  0  0  0  0
  -21.9910   -9.0254   20.4643 C   0  0  0  0  0  0
  -22.7228  -10.2139   20.3057 C   0  0  0  0  0  0
  -21.6850   -6.0742   22.5275 C   0  0  0  0  0  0
  -21.4014   -6.5645   23.8209 C   0  0  0  0  0  0
  -21.3661   -5.6795   24.9173 C   0  0  0  0  0  0
  -21.6040   -4.3059   24.7223 C   0  0  0  0  0  0
  -21.8816   -3.8153   23.4347 C   0  0  0  0  0  0
  -21.9195   -4.6971   22.3401 C   0  0  0  0  0  0
  -22.7848  -13.5236   21.1871 C   0  0  0  0  0  0
  -22.1661   -4.2155   21.0981 F   0  0  0  0  0  0
  -21.5633   -3.4543   25.7742 F   0  0  0  0  0  0
  -29.9919  -13.4934   20.4035 N   0  0  0  0  0  0
  -26.2954  -12.9372   20.3270 N   0  0  0  0  0  0
  -25.9318  -11.6526   20.5740 N   0  0  0  0  0  0
  -22.0490  -12.8224   22.0424 N   0  0  0  0  0  0
  -25.4271  -15.1899   20.4080 N   0  0  0  0  0  0
  -31.8066  -14.8136   20.1542 O   0  0  0  0  0  0
  -21.6640   -6.8888   21.4234 O   0  0  0  0  0  0
  -22.3542  -14.5549   20.6728 O   0  0  0  0  0  0
  -24.6303  -31.8564   23.2001 C   0  0  0  0  0  0
  -25.9123  -32.4768   23.8349 C   0  0  1  0  0  0
  -27.2196  -27.2770   20.1300 C   0  0  0  0  0  0
  -25.5923  -33.8567   24.2268 N   0  0  0  0  0  0
  -23.4268  -30.4798   21.5425 C   0  0  2  0  0  0
  -24.8743  -28.9281   20.1128 C   0  0  0  0  0  0
  -22.7500  -29.4614   22.4907 C   0  0  0  0  0  0
  -18.0309  -28.1362   22.8472 C   0  0  0  0  0  0
  -24.1489  -36.7283   23.2638 C   0  0  0  0  0  0
  -25.9721  -30.7752   21.3781 C   0  0  0  0  0  0
  -26.0448  -29.3981   20.7222 C   0  0  0  0  0  0
  -27.2225  -28.5848   20.7191 C   0  0  0  0  0  0
  -26.0323  -26.8778   19.4801 C   0  0  0  0  0  0
  -24.8722  -27.6757   19.4813 C   0  0  0  0  0  0
  -23.6439  -29.8130   20.1589 C   0  0  0  0  0  0
  -25.4114  -36.3072   24.0330 C   0  0  1  0  0  0
  -20.5904  -28.3692   23.1269 C   0  0  2  0  0  0
  -20.6804  -26.9403   22.5418 C   0  0  0  0  0  0
  -19.5793  -26.6367   21.5207 C   0  0  0  0  0  0
  -18.1970  -26.7902   22.1616 C   0  0  0  0  0  0
  -19.1550  -28.8840   23.2858 C   0  0  0  0  0  0
  -18.9455  -30.1439   23.8878 C   0  0  0  0  0  0
  -17.6450  -30.6561   24.0535 C   0  0  0  0  0  0
  -25.9050  -34.9446   23.5094 C   0  0  0  0  0  0
  -16.5349  -29.9049   23.6305 C   0  0  0  0  0  0
  -16.7286  -28.6461   23.0340 C   0  0  0  0  0  0
  -26.4486  -31.6595   25.0743 C   0  0  0  0  0  0
  -25.3717  -31.3754   26.1469 C   0  0  0  0  0  0
  -27.0339  -30.3018   24.6236 C   0  0  0  0  0  0
  -27.6050  -32.4331   25.7513 C   0  0  0  0  0  0
  -27.5577  -37.1802   24.8466 C   0  0  0  0  0  0
  -21.4201  -29.3048   22.3650 N   0  0  0  0  0  0
  -26.4288  -37.3771   23.9407 N   0  0  0  0  0  0
  -24.6956  -31.0540   22.0972 N   0  0  0  0  0  0
  -23.4203  -28.8147   23.2995 O   0  0  0  0  0  0
  -28.3141  -26.3865   20.1541 O   0  0  0  0  0  0
  -26.5617  -34.8916   22.4664 O   0  0  0  0  0  0
  -23.5451  -32.1369   23.7302 O   0  0  0  0  0  0
  -27.6944  -22.0792   21.6855 C   0  0  0  0  0  0
  -27.4256  -20.7941   22.1670 C   0  0  0  0  0  0
  -28.6404  -22.2336   20.6599 C   0  0  0  0  0  0
  -28.9470  -19.8486   20.7135 C   0  0  0  0  0  0
  -26.3987  -20.5683   23.2553 C   0  0  0  0  0  0
  -31.6202  -17.6134   21.2182 C   0  0  0  0  0  0
  -29.4344  -18.4590   20.0953 C   0  0  0  0  0  0
  -28.0632  -24.9611   20.5751 C   0  0  0  0  0  0
  -30.1201  -17.3186   21.0241 C   0  0  1  0  0  0
  -28.9624  -23.6986   20.0914 C   0  0  0  0  0  0
  -28.0423  -19.7049   21.6759 N   0  0  0  0  0  0
  -29.2633  -21.0745   20.1891 N   0  0  0  0  0  0
  -29.8409  -15.8264   20.7500 N   0  0  0  0  0  0
  -30.2283  -23.9727   20.4119 F   0  0  0  0  0  0
  -28.8690  -23.6408   18.7618 F   0  0  0  0  0  0
  -31.4745  -12.5664   19.1605 H   0  0  0  0  0  0
  -30.3759  -11.4589   19.9366 H   0  0  0  0  0  0
  -29.7877  -11.7369   17.5076 H   0  0  0  0  0  0
  -29.6311  -13.4649   17.7242 H   0  0  0  0  0  0
  -27.8959  -11.2767   18.9101 H   0  0  0  0  0  0
  -27.3736  -12.5158   17.8006 H   0  0  0  0  0  0
  -27.6438  -14.2476   19.4737 H   0  0  0  0  0  0
  -28.7189  -12.1416   21.4127 H   0  0  0  0  0  0
  -28.4247  -13.8170   21.8023 H   0  0  0  0  0  0
  -25.2759   -9.5705   22.4762 H   0  0  0  0  0  0
  -24.0013   -7.4638   22.7464 H   0  0  0  0  0  0
  -21.0848   -8.8766   19.8942 H   0  0  0  0  0  0
  -22.3681  -10.9682   19.6172 H   0  0  0  0  0  0
  -21.1996   -7.6151   23.9716 H   0  0  0  0  0  0
  -21.1487   -6.0531   25.9078 H   0  0  0  0  0  0
  -22.0592   -2.7616   23.2842 H   0  0  0  0  0  0
  -22.4106  -11.9884   22.4809 H   0  0  0  0  0  0
  -21.1101  -13.1240   22.2620 H   0  0  0  0  0  0
  -24.6656  -15.8488   20.5261 H   0  0  0  0  0  0
  -26.2721  -15.6205   20.0555 H   0  0  0  0  0  0
  -26.7197  -32.5429   23.1096 H   0  0  0  0  0  0
  -25.0104  -33.9714   25.0436 H   0  0  0  0  0  0
  -22.7241  -31.3023   21.3960 H   0  0  0  0  0  0
  -23.3753  -35.9615   23.3302 H   0  0  0  0  0  0
  -24.3571  -36.8896   22.2050 H   0  0  0  0  0  0
  -23.7242  -37.6488   23.6652 H   0  0  0  0  0  0
  -26.1083  -31.5359   20.6081 H   0  0  0  0  0  0
  -26.8501  -30.8235   22.0110 H   0  0  0  0  0  0
  -28.1191  -28.9410   21.2064 H   0  0  0  0  0  0
  -25.9848  -25.9288   18.9674 H   0  0  0  0  0  0
  -23.9798  -27.3154   18.9899 H   0  0  0  0  0  0
  -23.7646  -30.5889   19.4012 H   0  0  0  0  0  0
  -22.7628  -29.2437   19.8556 H   0  0  0  0  0  0
  -25.1293  -36.1925   25.0825 H   0  0  0  0  0  0
  -21.0000  -28.3299   24.1390 H   0  0  0  0  0  0
  -20.5675  -26.2301   23.3626 H   0  0  0  0  0  0
  -21.6684  -26.7438   22.1237 H   0  0  0  0  0  0
  -19.6955  -25.6269   21.1259 H   0  0  0  0  0  0
  -19.6732  -27.3174   20.6732 H   0  0  0  0  0  0
  -17.4245  -26.6631   21.4021 H   0  0  0  0  0  0
  -18.0379  -26.0044   22.9016 H   0  0  0  0  0  0
  -19.7913  -30.7261   24.2268 H   0  0  0  0  0  0
  -17.4996  -31.6245   24.5123 H   0  0  0  0  0  0
  -15.5343  -30.2947   23.7621 H   0  0  0  0  0  0
  -15.8692  -28.0764   22.7075 H   0  0  0  0  0  0
  -24.5889  -30.7095   25.7806 H   0  0  0  0  0  0
  -24.8915  -32.2938   26.4869 H   0  0  0  0  0  0
  -25.8037  -30.8955   27.0262 H   0  0  0  0  0  0
  -26.2940  -29.6772   24.1223 H   0  0  0  0  0  0
  -27.3973  -29.7263   25.4758 H   0  0  0  0  0  0
  -27.8824  -30.4288   23.9511 H   0  0  0  0  0  0
  -27.2661  -33.3627   26.2087 H   0  0  0  0  0  0
  -28.3863  -32.6894   25.0348 H   0  0  0  0  0  0
  -28.0717  -31.8466   26.5434 H   0  0  0  0  0  0
  -28.2605  -38.0089   24.7494 H   0  0  0  0  0  0
  -28.1055  -36.2619   24.6306 H   0  0  0  0  0  0
  -27.2287  -37.1467   25.8867 H   0  0  0  0  0  0
  -20.9380  -29.8747   21.6843 H   0  0  0  0  0  0
  -26.0162  -38.2845   24.1403 H   0  0  0  0  0  0
  -27.1698  -22.9267   22.1043 H   0  0  0  0  0  0
  -25.3926  -20.6763   22.8507 H   0  0  0  0  0  0
  -26.5254  -21.2962   24.0570 H   0  0  0  0  0  0
  -26.4864  -19.5712   23.6873 H   0  0  0  0  0  0
  -31.7792  -18.6375   21.5583 H   0  0  0  0  0  0
  -32.1761  -17.4914   20.2883 H   0  0  0  0  0  0
  -32.0635  -16.9548   21.9661 H   0  0  0  0  0  0
  -30.0952  -18.6765   19.2553 H   0  0  0  0  0  0
  -28.5482  -18.0200   19.6368 H   0  0  0  0  0  0
  -28.1256  -24.9907   21.6633 H   0  0  0  0  0  0
  -27.0308  -24.6825   20.3725 H   0  0  0  0  0  0
  -29.6622  -17.4562   22.0039 H   0  0  0  0  0  0
  -28.8781  -15.5714   20.9148 H   0  0  0  0  0  0
  1 25  1  0  0  0
  1 30  2  0  0  0
  1 83  1  0  0  0
  2  3  1  0  0  0
  2 25  1  0  0  0
  2 86  1  0  0  0
  2 87  1  0  0  0
  3  4  1  0  0  0
  3 88  1  0  0  0
  3 89  1  0  0  0
  4  5  1  0  0  0
  4 90  1  0  0  0
  4 91  1  0  0  0
  5  6  1  0  0  0
  5 26  1  0  0  0
  5 92  1  0  0  0
  6 25  1  0  0  0
  6 93  1  0  0  0
  6 94  1  0  0  0
  7  8  2  0  0  0
  7 26  1  0  0  0
  7 29  1  0  0  0
  8  9  1  0  0  0
  8 22  1  0  0  0
  9 10  1  0  0  0
  9 27  2  0  0  0
 10 11  2  0  0  0
 10 15  1  0  0  0
 11 12  1  0  0  0
 11 95  1  0  0  0
 12 13  2  0  0  0
 12 96  1  0  0  0
 13 14  1  0  0  0
 13 31  1  0  0  0
 14 15  2  0  0  0
 14 97  1  0  0  0
 15 98  1  0  0  0
 16 17  2  0  0  0
 16 21  1  0  0  0
 16 31  1  0  0  0
 17 18  1  0  0  0
 17 99  1  0  0  0
 18 19  2  0  0  0
 18100  1  0  0  0
 19 20  1  0  0  0
 19 24  1  0  0  0
 20 21  2  0  0  0
 20101  1  0  0  0
 21 23  1  0  0  0
 22 28  1  0  0  0
 22 32  2  0  0  0
 26 27  1  0  0  0
 28102  1  0  0  0
 28103  1  0  0  0
 29104  1  0  0  0
 29105  1  0  0  0
 33 34  1  0  0  0
 33 66  1  0  0  0
 33 70  2  0  0  0
 34 36  1  0  0  0
 34 59  1  0  0  0
 34106  1  0  0  0
 35 44  2  0  0  0
 35 45  1  0  0  0
 35 68  1  0  0  0
 36 56  1  0  0  0
 36107  1  0  0  0
 37 39  1  0  0  0
 37 47  1  0  0  0
 37 66  1  0  0  0
 37108  1  0  0  0
 38 43  2  0  0  0
 38 46  1  0  0  0
 38 47  1  0  0  0
 39 64  1  0  0  0
 39 67  2  0  0  0
 40 52  1  0  0  0
 40 53  2  0  0  0
 40 58  1  0  0  0
 41109  1  0  0  0
 41110  1  0  0  0
 41111  1  0  0  0
 41 48  1  0  0  0
 42 43  1  0  0  0
 42 66  1  0  0  0
 42112  1  0  0  0
 42113  1  0  0  0
 43 44  1  0  0  0
 44114  1  0  0  0
 45 46  2  0  0  0
 45115  1  0  0  0
 46116  1  0  0  0
 47117  1  0  0  0
 47118  1  0  0  0
 48 56  1  0  0  0
 48 65  1  0  0  0
 48119  1  0  0  0
 49 50  1  0  0  0
 49 53  1  0  0  0
 49 64  1  0  0  0
 49120  1  0  0  0
 50 51  1  0  0  0
 50121  1  0  0  0
 50122  1  0  0  0
 51 52  1  0  0  0
 51123  1  0  0  0
 51124  1  0  0  0
 52125  1  0  0  0
 52126  1  0  0  0
 53 54  1  0  0  0
 54 55  2  0  0  0
 54127  1  0  0  0
 55 57  1  0  0  0
 55128  1  0  0  0
 56 69  2  0  0  0
 57 58  2  0  0  0
 57129  1  0  0  0
 58130  1  0  0  0
 59 60  1  0  0  0
 59 61  1  0  0  0
 59 62  1  0  0  0
 60131  1  0  0  0
 60132  1  0  0  0
 60133  1  0  0  0
 61134  1  0  0  0
 61135  1  0  0  0
 61136  1  0  0  0
 62137  1  0  0  0
 62138  1  0  0  0
 62139  1  0  0  0
 63 65  1  0  0  0
 63140  1  0  0  0
 63141  1  0  0  0
 63142  1  0  0  0
 64143  1  0  0  0
 65144  1  0  0  0
 68 78  1  0  0  0
 71 72  2  0  0  0
 71 73  1  0  0  0
 71145  1  0  0  0
 72 75  1  0  0  0
 72 81  1  0  0  0
 73 80  1  0  0  0
 73 82  2  0  0  0
 74 77  1  0  0  0
 74 81  2  0  0  0
 74 82  1  0  0  0
 75146  1  0  0  0
 75147  1  0  0  0
 75148  1  0  0  0
 76149  1  0  0  0
 76150  1  0  0  0
 76151  1  0  0  0
 76 79  1  0  0  0
 77 79  1  0  0  0
 77152  1  0  0  0
 77153  1  0  0  0
 78 80  1  0  0  0
 78154  1  0  0  0
 78155  1  0  0  0
 79 83  1  0  0  0
 79156  1  0  0  0
 80 84  1  0  0  0
 80 85  1  0  0  0
 83157  1  0  0  0
M  ISO  4   1 100  68 101  78 101  83 100
M  END
> <chiral flag>
0

> <version>
0

> <s_m_source_file>
/data/baiqing/PycharmProjects/Reinvent-master-3.2/result/LINK_invent/BTK/process_docking_weight1_custom_sum_contain_oxygen_bond_distance_aromatic_linkinvent_7_9_3/rearranged_h_0071.sdf

> <i_m_source_file_index>
14

> <r_mmod_Potential_Energy-OPLS-2005>
-110.108520507812

> <r_mmod_Stretch_Energy-OPLS-2005>
124.465370178223

> <r_mmod_Bend_Energy-OPLS-2005>
175.187316894531

> <r_mmod_Torsional_Energy-OPLS-2005>
210.470016479492

> <r_mmod_Improper_Torsional_Energy-OPLS-2005>
4.96525478363037

> <r_mmod_Van_der_Waal_Energy-OPLS-2005>
145.296997070312

> <r_mmod_Electrostatic_Energy-OPLS-2005>
-617.090454101562

> <r_mmod_Solvation_Energy-OPLS-2005>
-227.231628417969

> <b_mmod_Minimization_Converged-OPLS-2005>
0

> <r_mmod_RMS_Derivative-OPLS-2005>
1.80222904682159

$$$$
14
                    3D
 Structure written by MMmdl.
161170  0  0  1  0            999 V2000
  -30.6719  -14.5457   20.6076 C   0  0  0  0  0  0
  -30.3984  -12.3580   19.4479 C   0  0  0  0  0  0
  -29.4863  -12.5410   18.2149 C   0  0  0  0  0  0
  -28.0007  -12.4275   18.5963 C   0  0  0  0  0  0
  -27.6451  -13.2320   19.8744 C   0  0  2  0  0  0
  -28.6742  -13.0039   20.9972 C   0  0  0  0  0  0
  -25.2434  -13.8226   20.5609 C   0  0  0  0  0  0
  -24.1763  -13.0459   20.9177 C   0  0  0  0  0  0
  -24.6357  -11.6928   20.8739 C   0  0  0  0  0  0
  -23.9054  -10.4289   21.0400 C   0  0  0  0  0  0
  -24.3621   -9.4218   21.9176 C   0  0  0  0  0  0
  -23.6297   -8.2260   22.0759 C   0  0  0  0  0  0
  -22.4292   -8.0271   21.3536 C   0  0  0  0  0  0
  -21.9908   -9.0253   20.4663 C   0  0  0  0  0  0
  -22.7228  -10.2131   20.3055 C   0  0  0  0  0  0
  -21.6860   -6.0749   22.5285 C   0  0  0  0  0  0
  -21.4014   -6.5641   23.8215 C   0  0  0  0  0  0
  -21.3658   -5.6791   24.9173 C   0  0  0  0  0  0
  -21.6047   -4.3054   24.7221 C   0  0  0  0  0  0
  -21.8819   -3.8154   23.4334 C   0  0  0  0  0  0
  -21.9187   -4.6979   22.3397 C   0  0  0  0  0  0
  -22.7794  -13.5238   21.1858 C   0  0  0  0  0  0
  -22.1667   -4.2146   21.0981 F   0  0  0  0  0  0
  -21.5622   -3.4542   25.7741 F   0  0  0  0  0  0
  -29.9966  -13.3576   20.4672 N   0  0  0  0  0  0
  -26.2900  -12.9441   20.3339 N   0  0  0  0  0  0
  -25.9274  -11.6571   20.5726 N   0  0  0  0  0  0
  -22.0459  -12.8223   22.0426 N   0  0  0  0  0  0
  -25.4102  -15.1943   20.3943 N   0  0  0  0  0  0
  -31.7260  -14.7062   19.9801 O   0  0  0  0  0  0
  -21.6644   -6.8881   21.4245 O   0  0  0  0  0  0
  -22.3459  -14.5526   20.6684 O   0  0  0  0  0  0
  -24.6212  -31.8673   23.2071 C   0  0  0  0  0  0
  -25.9071  -32.4826   23.8445 C   0  0  1  0  0  0
  -27.1458  -27.2982   20.1662 C   0  0  0  0  0  0
  -25.5891  -33.8638   24.2392 N   0  0  0  0  0  0
  -23.4254  -30.4839   21.5515 C   0  0  2  0  0  0
  -24.8650  -28.9535   20.1087 C   0  0  0  0  0  0
  -22.7455  -29.4566   22.4999 C   0  0  0  0  0  0
  -18.0214  -28.1437   22.8448 C   0  0  0  0  0  0
  -24.1500  -36.7344   23.2639 C   0  0  0  0  0  0
  -25.9622  -30.7848   21.3931 C   0  0  0  0  0  0
  -26.0195  -29.4089   20.7494 C   0  0  0  0  0  0
  -27.1679  -28.5691   20.7947 C   0  0  0  0  0  0
  -26.0065  -26.9324   19.4208 C   0  0  0  0  0  0
  -24.8497  -27.7328   19.4207 C   0  0  0  0  0  0
  -23.6413  -29.8405   20.1524 C   0  0  0  0  0  0
  -25.4110  -36.3106   24.0366 C   0  0  1  0  0  0
  -20.5725  -28.3898   23.1463 C   0  0  2  0  0  0
  -20.6769  -26.9612   22.5640 C   0  0  0  0  0  0
  -19.5842  -26.6458   21.5374 C   0  0  0  0  0  0
  -18.2021  -26.7978   22.1735 C   0  0  0  0  0  0
  -19.1325  -28.9000   23.2943 C   0  0  0  0  0  0
  -18.9086  -30.1540   23.8929 C   0  0  0  0  0  0
  -17.6059  -30.6762   24.0311 C   0  0  0  0  0  0
  -25.9009  -34.9465   23.5154 C   0  0  0  0  0  0
  -16.5026  -29.8985   23.6096 C   0  0  0  0  0  0
  -16.7106  -28.6336   23.0323 C   0  0  0  0  0  0
  -26.4460  -31.6575   25.0794 C   0  0  0  0  0  0
  -25.3733  -31.3679   26.1559 C   0  0  0  0  0  0
  -27.0335  -30.3001   24.6127 C   0  0  0  0  0  0
  -27.6064  -32.4274   25.7565 C   0  0  0  0  0  0
  -27.5594  -37.1834   24.8462 C   0  0  0  0  0  0
  -21.4141  -29.3430   22.4091 N   0  0  0  0  0  0
  -26.4274  -37.3805   23.9418 N   0  0  0  0  0  0
  -24.6871  -31.0664   22.1085 N   0  0  0  0  0  0
  -23.4174  -28.7597   23.2742 O   0  0  0  0  0  0
  -28.1739  -26.3694   20.2891 O   0  0  0  0  0  0
  -26.5559  -34.8901   22.4673 O   0  0  0  0  0  0
  -23.5354  -32.1389   23.7364 O   0  0  0  0  0  0
  -28.9518  -18.4397   19.2233 C   0  0  0  0  0  0
  -28.5243  -18.9944   20.3996 C   0  0  0  0  0  0
  -28.0571  -22.9811   21.0799 C   0  0  0  0  0  0
  -29.4962  -16.9722   20.8301 C   0  0  0  0  0  0
  -27.8644  -25.0595   20.7437 C   0  0  0  0  0  0
  -31.4990  -16.3475   22.1519 C   0  0  0  0  0  0
  -28.3694  -18.1424   22.7748 C   0  0  0  0  0  0
  -25.7547  -22.6750   22.2361 C   0  0  0  0  0  0
  -27.8352  -20.3564   20.5497 C   0  0  0  0  0  0
  -28.6369  -21.5499   21.1880 C   0  0  0  0  0  0
  -30.2176  -15.7731   21.5249 C   0  0  2  0  0  0
  -28.7361  -24.0238   20.5434 N   0  0  0  0  0  0
  -26.7258  -24.7326   21.3638 N   0  0  0  0  0  0
  -28.7971  -18.0279   21.3701 N   0  0  0  0  0  0
  -26.8504  -23.3832   21.5646 N   0  0  0  0  0  0
  -29.5983  -17.2728   19.5310 N   0  3  0  0  0  0
  -29.5204  -15.3231   22.5571 F   0  0  0  0  0  0
  -31.4475  -12.4454   19.1507 H   0  0  0  0  0  0
  -30.3011  -11.3446   19.8459 H   0  0  0  0  0  0
  -29.7325  -11.8117   17.4440 H   0  0  0  0  0  0
  -29.6782  -13.5219   17.7780 H   0  0  0  0  0  0
  -27.7610  -11.3757   18.7344 H   0  0  0  0  0  0
  -27.3799  -12.7712   17.7707 H   0  0  0  0  0  0
  -27.6880  -14.2881   19.6108 H   0  0  0  0  0  0
  -28.6596  -11.9562   21.3116 H   0  0  0  0  0  0
  -28.3781  -13.5565   21.8804 H   0  0  0  0  0  0
  -25.2766   -9.5694   22.4746 H   0  0  0  0  0  0
  -24.0013   -7.4647   22.7458 H   0  0  0  0  0  0
  -21.0848   -8.8763   19.8962 H   0  0  0  0  0  0
  -22.3681  -10.9671   19.6165 H   0  0  0  0  0  0
  -21.2018   -7.6149   23.9715 H   0  0  0  0  0  0
  -21.1482   -6.0525   25.9072 H   0  0  0  0  0  0
  -22.0601   -2.7610   23.2841 H   0  0  0  0  0  0
  -22.4105  -11.9893   22.4812 H   0  0  0  0  0  0
  -21.1086  -13.1239   22.2683 H   0  0  0  0  0  0
  -24.6143  -15.8218   20.4253 H   0  0  0  0  0  0
  -26.2298  -15.6189   19.9852 H   0  0  0  0  0  0
  -26.7136  -32.5500   23.1244 H   0  0  0  0  0  0
  -25.0277  -33.9818   25.0635 H   0  0  0  0  0  0
  -22.7233  -31.3105   21.4107 H   0  0  0  0  0  0
  -23.3742  -35.9685   23.3266 H   0  0  0  0  0  0
  -24.3609  -36.8962   22.2054 H   0  0  0  0  0  0
  -23.7251  -37.6541   23.6645 H   0  0  0  0  0  0
  -26.0857  -31.5213   20.6000 H   0  0  0  0  0  0
  -26.8583  -30.8517   22.0080 H   0  0  0  0  0  0
  -28.0555  -28.8497   21.3407 H   0  0  0  0  0  0
  -25.9803  -25.9948   18.8909 H   0  0  0  0  0  0
  -23.9701  -27.3942   18.8992 H   0  0  0  0  0  0
  -23.8061  -30.6238   19.4099 H   0  0  0  0  0  0
  -22.7579  -29.2889   19.8282 H   0  0  0  0  0  0
  -25.1257  -36.2053   25.0864 H   0  0  0  0  0  0
  -20.9653  -28.3329   24.1675 H   0  0  0  0  0  0
  -20.5344  -26.2756   23.4020 H   0  0  0  0  0  0
  -21.6619  -26.7302   22.1559 H   0  0  0  0  0  0
  -19.7117  -25.6224   21.2032 H   0  0  0  0  0  0
  -19.6836  -27.3086   20.6808 H   0  0  0  0  0  0
  -17.4103  -26.6330   21.4439 H   0  0  0  0  0  0
  -18.0908  -26.0239   22.9339 H   0  0  0  0  0  0
  -19.7601  -30.7092   24.2545 H   0  0  0  0  0  0
  -17.4449  -31.6432   24.4723 H   0  0  0  0  0  0
  -15.4931  -30.2598   23.7322 H   0  0  0  0  0  0
  -15.8678  -28.0240   22.7264 H   0  0  0  0  0  0
  -24.5922  -30.6995   25.7911 H   0  0  0  0  0  0
  -24.8901  -32.2832   26.4983 H   0  0  0  0  0  0
  -25.8111  -30.8886   27.0322 H   0  0  0  0  0  0
  -26.2892  -29.6798   24.1126 H   0  0  0  0  0  0
  -27.4053  -29.7215   25.4588 H   0  0  0  0  0  0
  -27.8725  -30.4354   23.9320 H   0  0  0  0  0  0
  -27.2689  -33.3574   26.2144 H   0  0  0  0  0  0
  -28.3873  -32.6816   25.0401 H   0  0  0  0  0  0
  -28.0703  -31.8393   26.5483 H   0  0  0  0  0  0
  -28.2588  -38.0157   24.7486 H   0  0  0  0  0  0
  -28.1133  -36.2676   24.6317 H   0  0  0  0  0  0
  -27.2310  -37.1496   25.8865 H   0  0  0  0  0  0
  -20.9318  -29.9971   21.8128 H   0  0  0  0  0  0
  -26.0212  -38.2878   24.1406 H   0  0  0  0  0  0
  -28.8747  -18.8170   18.2193 H   0  0  0  0  0  0
  -32.1132  -16.8297   21.3872 H   0  0  0  0  0  0
  -32.0985  -15.5621   22.6052 H   0  0  0  0  0  0
  -31.2754  -17.0933   22.9134 H   0  0  0  0  0  0
  -27.2736  -18.1561   22.7962 H   0  0  0  0  0  0
  -28.7292  -19.0789   23.2056 H   0  0  0  0  0  0
  -28.7197  -17.3236   23.3916 H   0  0  0  0  0  0
  -25.8684  -21.5895   22.2572 H   0  0  0  0  0  0
  -24.8066  -22.9013   21.7668 H   0  0  0  0  0  0
  -25.6958  -22.9929   23.2798 H   0  0  0  0  0  0
  -26.8819  -20.2007   21.0433 H   0  0  0  0  0  0
  -27.5776  -20.6684   19.5441 H   0  0  0  0  0  0
  -28.8179  -21.3254   22.2300 H   0  0  0  0  0  0
  -29.6348  -21.5865   20.7322 H   0  0  0  0  0  0
  -30.1227  -16.7384   18.8435 H   0  0  0  0  0  0
  1 25  1  0  0  0
  1 30  2  0  0  0
  1 81  1  0  0  0
  2  3  1  0  0  0
  2 25  1  0  0  0
  2 88  1  0  0  0
  2 89  1  0  0  0
  3  4  1  0  0  0
  3 90  1  0  0  0
  3 91  1  0  0  0
  4  5  1  0  0  0
  4 92  1  0  0  0
  4 93  1  0  0  0
  5  6  1  0  0  0
  5 26  1  0  0  0
  5 94  1  0  0  0
  6 25  1  0  0  0
  6 95  1  0  0  0
  6 96  1  0  0  0
  7  8  2  0  0  0
  7 26  1  0  0  0
  7 29  1  0  0  0
  8  9  1  0  0  0
  8 22  1  0  0  0
  9 10  1  0  0  0
  9 27  2  0  0  0
 10 11  2  0  0  0
 10 15  1  0  0  0
 11 12  1  0  0  0
 11 97  1  0  0  0
 12 13  2  0  0  0
 12 98  1  0  0  0
 13 14  1  0  0  0
 13 31  1  0  0  0
 14 15  2  0  0  0
 14 99  1  0  0  0
 15100  1  0  0  0
 16 17  2  0  0  0
 16 21  1  0  0  0
 16 31  1  0  0  0
 17 18  1  0  0  0
 17101  1  0  0  0
 18 19  2  0  0  0
 18102  1  0  0  0
 19 20  1  0  0  0
 19 24  1  0  0  0
 20 21  2  0  0  0
 20103  1  0  0  0
 21 23  1  0  0  0
 22 28  1  0  0  0
 22 32  2  0  0  0
 26 27  1  0  0  0
 28104  1  0  0  0
 28105  1  0  0  0
 29106  1  0  0  0
 29107  1  0  0  0
 33 34  1  0  0  0
 33 66  1  0  0  0
 33 70  2  0  0  0
 34 36  1  0  0  0
 34 59  1  0  0  0
 34108  1  0  0  0
 35 44  2  0  0  0
 35 45  1  0  0  0
 35 68  1  0  0  0
 36 56  1  0  0  0
 36109  1  0  0  0
 37 39  1  0  0  0
 37 47  1  0  0  0
 37 66  1  0  0  0
 37110  1  0  0  0
 38 43  2  0  0  0
 38 46  1  0  0  0
 38 47  1  0  0  0
 39 64  1  0  0  0
 39 67  2  0  0  0
 40 52  1  0  0  0
 40 53  2  0  0  0
 40 58  1  0  0  0
 41111  1  0  0  0
 41112  1  0  0  0
 41113  1  0  0  0
 41 48  1  0  0  0
 42 43  1  0  0  0
 42 66  1  0  0  0
 42114  1  0  0  0
 42115  1  0  0  0
 43 44  1  0  0  0
 44116  1  0  0  0
 45 46  2  0  0  0
 45117  1  0  0  0
 46118  1  0  0  0
 47119  1  0  0  0
 47120  1  0  0  0
 48 56  1  0  0  0
 48 65  1  0  0  0
 48121  1  0  0  0
 49 50  1  0  0  0
 49 53  1  0  0  0
 49 64  1  0  0  0
 49122  1  0  0  0
 50 51  1  0  0  0
 50123  1  0  0  0
 50124  1  0  0  0
 51 52  1  0  0  0
 51125  1  0  0  0
 51126  1  0  0  0
 52127  1  0  0  0
 52128  1  0  0  0
 53 54  1  0  0  0
 54 55  2  0  0  0
 54129  1  0  0  0
 55 57  1  0  0  0
 55130  1  0  0  0
 56 69  2  0  0  0
 57 58  2  0  0  0
 57131  1  0  0  0
 58132  1  0  0  0
 59 60  1  0  0  0
 59 61  1  0  0  0
 59 62  1  0  0  0
 60133  1  0  0  0
 60134  1  0  0  0
 60135  1  0  0  0
 61136  1  0  0  0
 61137  1  0  0  0
 61138  1  0  0  0
 62139  1  0  0  0
 62140  1  0  0  0
 62141  1  0  0  0
 63 65  1  0  0  0
 63142  1  0  0  0
 63143  1  0  0  0
 63144  1  0  0  0
 64145  1  0  0  0
 65146  1  0  0  0
 68 75  1  0  0  0
 71 72  2  0  0  0
 71 86  1  0  0  0
 71147  1  0  0  0
 72 79  1  0  0  0
 72 84  1  0  0  0
 73 80  1  0  0  0
 73 82  2  0  0  0
 73 85  1  0  0  0
 74 81  1  0  0  0
 74 84  1  0  0  0
 74 86  2  0  0  0
 75 82  1  0  0  0
 75 83  2  0  0  0
 76148  1  0  0  0
 76149  1  0  0  0
 76150  1  0  0  0
 76 81  1  0  0  0
 77 84  1  0  0  0
 77151  1  0  0  0
 77152  1  0  0  0
 77153  1  0  0  0
 78 85  1  0  0  0
 78154  1  0  0  0
 78155  1  0  0  0
 78156  1  0  0  0
 79 80  1  0  0  0
 79157  1  0  0  0
 79158  1  0  0  0
 80159  1  0  0  0
 80160  1  0  0  0
 81 87  1  0  0  0
 83 85  1  0  0  0
 86161  1  0  0  0
M  CHG  1  86   1
M  ISO  4   1 100  68 101  75 101  81 100
M  END
> <chiral flag>
0

> <version>
0

> <s_m_source_file>
/data/baiqing/PycharmProjects/Reinvent-master-3.2/result/LINK_invent/BTK/process_docking_weight1_custom_sum_contain_oxygen_bond_distance_aromatic_linkinvent_7_9_3/rearranged_h_0071.sdf

> <i_m_source_file_index>
15

> <r_mmod_Potential_Energy-OPLS-2005>
37.6712760925293

> <r_mmod_Stretch_Energy-OPLS-2005>
75.1312637329102

> <r_mmod_Bend_Energy-OPLS-2005>
163.662536621094

> <r_mmod_Torsional_Energy-OPLS-2005>
193.417144775391

> <r_mmod_Improper_Torsional_Energy-OPLS-2005>
3.49579453468323

> <r_mmod_Van_der_Waal_Energy-OPLS-2005>
124.52075958252

> <r_mmod_Electrostatic_Energy-OPLS-2005>
-149.042816162109

> <r_mmod_Solvation_Energy-OPLS-2005>
-432.894470214844

> <b_mmod_Minimization_Converged-OPLS-2005>
0

> <r_mmod_RMS_Derivative-OPLS-2005>
18.3220348358154

$$$$
15
                    3D
 Structure written by MMmdl.
167175  0  0  1  0            999 V2000
  -30.5574  -14.9513   20.5089 C   0  0  0  0  0  0
  -30.4412  -12.6043   19.5012 C   0  0  0  0  0  0
  -29.5232  -12.5629   18.2541 C   0  0  0  0  0  0
  -28.0507  -12.3430   18.6521 C   0  0  0  0  0  0
  -27.6347  -13.2431   19.8420 C   0  0  2  0  0  0
  -28.6746  -13.1814   20.9744 C   0  0  0  0  0  0
  -25.2467  -13.8200   20.5643 C   0  0  0  0  0  0
  -24.1779  -13.0432   20.9202 C   0  0  0  0  0  0
  -24.6393  -11.6916   20.8720 C   0  0  0  0  0  0
  -23.9072  -10.4290   21.0390 C   0  0  0  0  0  0
  -24.3616   -9.4210   21.9178 C   0  0  0  0  0  0
  -23.6291   -8.2247   22.0753 C   0  0  0  0  0  0
  -22.4282   -8.0275   21.3540 C   0  0  0  0  0  0
  -21.9907   -9.0248   20.4645 C   0  0  0  0  0  0
  -22.7237  -10.2129   20.3048 C   0  0  0  0  0  0
  -21.6858   -6.0728   22.5279 C   0  0  0  0  0  0
  -21.4017   -6.5630   23.8205 C   0  0  0  0  0  0
  -21.3663   -5.6782   24.9172 C   0  0  0  0  0  0
  -21.6045   -4.3049   24.7222 C   0  0  0  0  0  0
  -21.8822   -3.8140   23.4346 C   0  0  0  0  0  0
  -21.9193   -4.6953   22.3400 C   0  0  0  0  0  0
  -22.7811  -13.5214   21.1871 C   0  0  0  0  0  0
  -22.1664   -4.2137   21.0980 F   0  0  0  0  0  0
  -21.5628   -3.4533   25.7738 F   0  0  0  0  0  0
  -29.9522  -13.6800   20.4283 N   0  0  0  0  0  0
  -26.2893  -12.9423   20.3198 N   0  0  0  0  0  0
  -25.9325  -11.6559   20.5684 N   0  0  0  0  0  0
  -22.0460  -12.8192   22.0426 N   0  0  0  0  0  0
  -25.4115  -15.1916   20.4068 N   0  0  0  0  0  0
  -31.6965  -14.9863   20.0246 O   0  0  0  0  0  0
  -21.6647   -6.8871   21.4239 O   0  0  0  0  0  0
  -22.3488  -14.5522   20.6733 O   0  0  0  0  0  0
  -24.6429  -31.8468   23.1879 C   0  0  0  0  0  0
  -25.9219  -32.4699   23.8255 C   0  0  1  0  0  0
  -27.2058  -27.1384   20.1376 C   0  0  0  0  0  0
  -25.5989  -33.8506   24.2187 N   0  0  0  0  0  0
  -23.4454  -30.4665   21.5351 C   0  0  2  0  0  0
  -24.8928  -28.8981   20.1007 C   0  0  0  0  0  0
  -22.7564  -29.4561   22.4850 C   0  0  0  0  0  0
  -18.0313  -28.1386   22.8475 C   0  0  0  0  0  0
  -24.1491  -36.7250   23.2634 C   0  0  0  0  0  0
  -26.0019  -30.7119   21.3948 C   0  0  0  0  0  0
  -26.0695  -29.3279   20.7278 C   0  0  0  0  0  0
  -27.2278  -28.4629   20.7324 C   0  0  0  0  0  0
  -26.0096  -26.8181   19.4581 C   0  0  0  0  0  0
  -24.8755  -27.6572   19.4491 C   0  0  0  0  0  0
  -23.6696  -29.8007   20.1519 C   0  0  0  0  0  0
  -25.4124  -36.3037   24.0318 C   0  0  1  0  0  0
  -20.5924  -28.3728   23.1221 C   0  0  2  0  0  0
  -20.6817  -26.9435   22.5392 C   0  0  0  0  0  0
  -19.5786  -26.6381   21.5214 C   0  0  0  0  0  0
  -18.1955  -26.7931   22.1612 C   0  0  0  0  0  0
  -19.1567  -28.8877   23.2832 C   0  0  0  0  0  0
  -18.9484  -30.1470   23.8869 C   0  0  0  0  0  0
  -17.6483  -30.6584   24.0562 C   0  0  0  0  0  0
  -25.9085  -34.9418   23.5054 C   0  0  0  0  0  0
  -16.5375  -29.9075   23.6340 C   0  0  0  0  0  0
  -16.7301  -28.6490   23.0366 C   0  0  0  0  0  0
  -26.4523  -31.6560   25.0702 C   0  0  0  0  0  0
  -25.3663  -31.3774   26.1366 C   0  0  0  0  0  0
  -27.0422  -30.2951   24.6324 C   0  0  0  0  0  0
  -27.6044  -32.4349   25.7486 C   0  0  0  0  0  0
  -27.5582  -37.1773   24.8468 C   0  0  0  0  0  0
  -21.4262  -29.3052   22.3588 N   0  0  0  0  0  0
  -26.4298  -37.3739   23.9406 N   0  0  0  0  0  0
  -24.7154  -31.0307   22.0924 N   0  0  0  0  0  0
  -23.4209  -28.8109   23.3001 O   0  0  0  0  0  0
  -28.2432  -26.1401   20.2202 O   0  0  0  0  0  0
  -26.5664  -34.8933   22.4626 O   0  0  0  0  0  0
  -23.5555  -32.1388   23.7099 O   0  0  0  0  0  0
  -28.9374  -18.9739   20.8791 C   0  0  0  0  0  0
  -30.2127  -19.8808   19.3847 C   0  0  0  0  0  0
  -29.1484  -20.2584   20.1721 C   0  0  0  0  0  0
  -29.8017  -17.8949   20.5443 C   0  0  0  0  0  0
  -30.2055  -23.3886   19.6003 C   0  0  0  0  0  0
  -27.1750  -21.5098   21.2221 C   0  0  0  0  0  0
  -27.5485  -21.6256   18.7817 C   0  0  0  0  0  0
  -28.7936  -16.1504   22.1122 C   0  0  0  0  0  0
  -31.1591  -16.6572   22.2569 C   0  0  0  0  0  0
  -31.7243  -17.9335   18.8839 C   0  0  0  0  0  0
  -27.9329  -24.6356   19.9728 C   0  0  0  0  0  0
  -28.8554  -23.2586   20.3139 C   0  0  1  0  0  0
  -28.2652  -21.6734   20.1466 C   0  0  0  0  0  0
  -30.0296  -16.3966   21.2277 C   0  0  0  0  0  0
  -30.6079  -18.5348   19.5911 N   0  0  0  0  0  0
  -31.4735  -12.7555   19.1842 H   0  0  0  0  0  0
  -30.4463  -11.6347   20.0018 H   0  0  0  0  0  0
  -29.8479  -11.7778   17.5699 H   0  0  0  0  0  0
  -29.6158  -13.5030   17.7076 H   0  0  0  0  0  0
  -27.9334  -11.2933   18.9257 H   0  0  0  0  0  0
  -27.3953  -12.5107   17.7962 H   0  0  0  0  0  0
  -27.6207  -14.2647   19.4616 H   0  0  0  0  0  0
  -28.7773  -12.1551   21.3288 H   0  0  0  0  0  0
  -28.3106  -13.7084   21.8422 H   0  0  0  0  0  0
  -25.2762   -9.5686   22.4750 H   0  0  0  0  0  0
  -23.9994   -7.4641   22.7477 H   0  0  0  0  0  0
  -21.0838   -8.8772   19.8954 H   0  0  0  0  0  0
  -22.3698  -10.9662   19.6150 H   0  0  0  0  0  0
  -21.2016   -7.6139   23.9701 H   0  0  0  0  0  0
  -21.1479   -6.0520   25.9069 H   0  0  0  0  0  0
  -22.0596   -2.7602   23.2853 H   0  0  0  0  0  0
  -22.4083  -11.9859   22.4810 H   0  0  0  0  0  0
  -21.1079  -13.1213   22.2621 H   0  0  0  0  0  0
  -24.6447  -15.8438   20.5276 H   0  0  0  0  0  0
  -26.2630  -15.6361   20.0879 H   0  0  0  0  0  0
  -26.7271  -32.5299   23.0964 H   0  0  0  0  0  0
  -25.0150  -33.9625   25.0346 H   0  0  0  0  0  0
  -22.7507  -31.2946   21.3850 H   0  0  0  0  0  0
  -23.3774  -35.9559   23.3293 H   0  0  0  0  0  0
  -24.3537  -36.8911   22.2045 H   0  0  0  0  0  0
  -23.7267  -37.6452   23.6678 H   0  0  0  0  0  0
  -26.1768  -31.4694   20.6312 H   0  0  0  0  0  0
  -26.8619  -30.7476   22.0507 H   0  0  0  0  0  0
  -28.1215  -28.7802   21.2513 H   0  0  0  0  0  0
  -25.9085  -25.8760   18.9400 H   0  0  0  0  0  0
  -23.9802  -27.3261   18.9402 H   0  0  0  0  0  0
  -23.8061  -30.5834   19.4049 H   0  0  0  0  0  0
  -22.7830  -29.2471   19.8371 H   0  0  0  0  0  0
  -25.1310  -36.1854   25.0818 H   0  0  0  0  0  0
  -21.0012  -28.3334   24.1349 H   0  0  0  0  0  0
  -20.5776  -26.2329   23.3600 H   0  0  0  0  0  0
  -21.6673  -26.7497   22.1150 H   0  0  0  0  0  0
  -19.6968  -25.6288   21.1253 H   0  0  0  0  0  0
  -19.6722  -27.3190   20.6738 H   0  0  0  0  0  0
  -17.4245  -26.6712   21.3992 H   0  0  0  0  0  0
  -18.0323  -26.0057   22.8986 H   0  0  0  0  0  0
  -19.7964  -30.7278   24.2238 H   0  0  0  0  0  0
  -17.5045  -31.6267   24.5159 H   0  0  0  0  0  0
  -15.5374  -30.2966   23.7688 H   0  0  0  0  0  0
  -15.8702  -28.0796   22.7106 H   0  0  0  0  0  0
  -24.5863  -30.7116   25.7659 H   0  0  0  0  0  0
  -24.8796  -32.2955   26.4667 H   0  0  0  0  0  0
  -25.7878  -30.9016   27.0226 H   0  0  0  0  0  0
  -26.3053  -29.6618   24.1373 H   0  0  0  0  0  0
  -27.4077  -29.7316   25.4918 H   0  0  0  0  0  0
  -27.8942  -30.4182   23.9632 H   0  0  0  0  0  0
  -27.2649  -33.3701   26.1948 H   0  0  0  0  0  0
  -28.3892  -32.6845   25.0332 H   0  0  0  0  0  0
  -28.0656  -31.8546   26.5490 H   0  0  0  0  0  0
  -28.2586  -38.0078   24.7530 H   0  0  0  0  0  0
  -28.1098  -36.2617   24.6282 H   0  0  0  0  0  0
  -27.2284  -37.1424   25.8865 H   0  0  0  0  0  0
  -20.9495  -29.8720   21.6716 H   0  0  0  0  0  0
  -26.0178  -38.2818   24.1385 H   0  0  0  0  0  0
  -28.1663  -18.8604   21.6266 H   0  0  0  0  0  0
  -30.7339  -20.4720   18.6430 H   0  0  0  0  0  0
  -30.6366  -24.3789   19.7567 H   0  0  0  0  0  0
  -30.1020  -23.2366   18.5262 H   0  0  0  0  0  0
  -30.9146  -22.6535   19.9797 H   0  0  0  0  0  0
  -26.5736  -20.6142   21.0554 H   0  0  0  0  0  0
  -26.4820  -22.3514   21.2361 H   0  0  0  0  0  0
  -27.6158  -21.4251   22.2150 H   0  0  0  0  0  0
  -26.9941  -20.6928   18.6625 H   0  0  0  0  0  0
  -28.2599  -21.6802   17.9577 H   0  0  0  0  0  0
  -26.8282  -22.4329   18.6543 H   0  0  0  0  0  0
  -28.5712  -17.0111   22.7416 H   0  0  0  0  0  0
  -28.9606  -15.3496   22.8292 H   0  0  0  0  0  0
  -27.9026  -15.9535   21.5181 H   0  0  0  0  0  0
  -30.8955  -17.4486   22.9592 H   0  0  0  0  0  0
  -32.0835  -16.9680   21.7719 H   0  0  0  0  0  0
  -31.3896  -15.7702   22.8490 H   0  0  0  0  0  0
  -32.1803  -18.6592   18.2091 H   0  0  0  0  0  0
  -31.3814  -17.0857   18.2904 H   0  0  0  0  0  0
  -32.4851  -17.6021   19.5894 H   0  0  0  0  0  0
  -26.9773  -24.4679   20.4692 H   0  0  0  0  0  0
  -27.7204  -24.5792   18.9050 H   0  0  0  0  0  0
  -29.0894  -23.3508   21.3751 H   0  0  0  0  0  0
  1 25  1  0  0  0
  1 30  2  0  0  0
  1 84  1  0  0  0
  2  3  1  0  0  0
  2 25  1  0  0  0
  2 86  1  0  0  0
  2 87  1  0  0  0
  3  4  1  0  0  0
  3 88  1  0  0  0
  3 89  1  0  0  0
  4  5  1  0  0  0
  4 90  1  0  0  0
  4 91  1  0  0  0
  5  6  1  0  0  0
  5 26  1  0  0  0
  5 92  1  0  0  0
  6 25  1  0  0  0
  6 93  1  0  0  0
  6 94  1  0  0  0
  7  8  2  0  0  0
  7 26  1  0  0  0
  7 29  1  0  0  0
  8  9  1  0  0  0
  8 22  1  0  0  0
  9 10  1  0  0  0
  9 27  2  0  0  0
 10 11  2  0  0  0
 10 15  1  0  0  0
 11 12  1  0  0  0
 11 95  1  0  0  0
 12 13  2  0  0  0
 12 96  1  0  0  0
 13 14  1  0  0  0
 13 31  1  0  0  0
 14 15  2  0  0  0
 14 97  1  0  0  0
 15 98  1  0  0  0
 16 17  2  0  0  0
 16 21  1  0  0  0
 16 31  1  0  0  0
 17 18  1  0  0  0
 17 99  1  0  0  0
 18 19  2  0  0  0
 18100  1  0  0  0
 19 20  1  0  0  0
 19 24  1  0  0  0
 20 21  2  0  0  0
 20101  1  0  0  0
 21 23  1  0  0  0
 22 28  1  0  0  0
 22 32  2  0  0  0
 26 27  1  0  0  0
 28102  1  0  0  0
 28103  1  0  0  0
 29104  1  0  0  0
 29105  1  0  0  0
 33 34  1  0  0  0
 33 66  1  0  0  0
 33 70  2  0  0  0
 34 36  1  0  0  0
 34 59  1  0  0  0
 34106  1  0  0  0
 35 44  2  0  0  0
 35 45  1  0  0  0
 35 68  1  0  0  0
 36 56  1  0  0  0
 36107  1  0  0  0
 37 39  1  0  0  0
 37 47  1  0  0  0
 37 66  1  0  0  0
 37108  1  0  0  0
 38 43  2  0  0  0
 38 46  1  0  0  0
 38 47  1  0  0  0
 39 64  1  0  0  0
 39 67  2  0  0  0
 40 52  1  0  0  0
 40 53  2  0  0  0
 40 58  1  0  0  0
 41109  1  0  0  0
 41110  1  0  0  0
 41111  1  0  0  0
 41 48  1  0  0  0
 42 43  1  0  0  0
 42 66  1  0  0  0
 42112  1  0  0  0
 42113  1  0  0  0
 43 44  1  0  0  0
 44114  1  0  0  0
 45 46  2  0  0  0
 45115  1  0  0  0
 46116  1  0  0  0
 47117  1  0  0  0
 47118  1  0  0  0
 48 56  1  0  0  0
 48 65  1  0  0  0
 48119  1  0  0  0
 49 50  1  0  0  0
 49 53  1  0  0  0
 49 64  1  0  0  0
 49120  1  0  0  0
 50 51  1  0  0  0
 50121  1  0  0  0
 50122  1  0  0  0
 51 52  1  0  0  0
 51123  1  0  0  0
 51124  1  0  0  0
 52125  1  0  0  0
 52126  1  0  0  0
 53 54  1  0  0  0
 54 55  2  0  0  0
 54127  1  0  0  0
 55 57  1  0  0  0
 55128  1  0  0  0
 56 69  2  0  0  0
 57 58  2  0  0  0
 57129  1  0  0  0
 58130  1  0  0  0
 59 60  1  0  0  0
 59 61  1  0  0  0
 59 62  1  0  0  0
 60131  1  0  0  0
 60132  1  0  0  0
 60133  1  0  0  0
 61134  1  0  0  0
 61135  1  0  0  0
 61136  1  0  0  0
 62137  1  0  0  0
 62138  1  0  0  0
 62139  1  0  0  0
 63 65  1  0  0  0
 63140  1  0  0  0
 63141  1  0  0  0
 63142  1  0  0  0
 64143  1  0  0  0
 65144  1  0  0  0
 68 81  1  0  0  0
 71 73  1  0  0  0
 71 74  2  0  0  0
 71145  1  0  0  0
 72 73  2  0  0  0
 72 85  1  0  0  0
 72146  1  0  0  0
 73 83  1  0  0  0
 74 84  1  0  0  0
 74 85  1  0  0  0
 75147  1  0  0  0
 75148  1  0  0  0
 75149  1  0  0  0
 75 82  1  0  0  0
 76150  1  0  0  0
 76151  1  0  0  0
 76152  1  0  0  0
 76 83  1  0  0  0
 77 83  1  0  0  0
 77153  1  0  0  0
 77154  1  0  0  0
 77155  1  0  0  0
 78156  1  0  0  0
 78157  1  0  0  0
 78158  1  0  0  0
 78 84  1  0  0  0
 79 84  1  0  0  0
 79159  1  0  0  0
 79160  1  0  0  0
 79161  1  0  0  0
 80 85  1  0  0  0
 80162  1  0  0  0
 80163  1  0  0  0
 80164  1  0  0  0
 81 82  1  0  0  0
 81165  1  0  0  0
 81166  1  0  0  0
 82 83  1  0  0  0
 82167  1  0  0  0
M  ISO  4   1 100  68 101  81 101  84 100
M  END
> <chiral flag>
0

> <version>
0

> <s_m_source_file>
/data/baiqing/PycharmProjects/Reinvent-master-3.2/result/LINK_invent/BTK/process_docking_weight1_custom_sum_contain_oxygen_bond_distance_aromatic_linkinvent_7_9_3/rearranged_h_0071.sdf

> <i_m_source_file_index>
16

> <r_mmod_Potential_Energy-OPLS-2005>
625.904418945312

> <r_mmod_Stretch_Energy-OPLS-2005>
287.542266845703

> <r_mmod_Bend_Energy-OPLS-2005>
325.845611572266

> <r_mmod_Torsional_Energy-OPLS-2005>
203.873962402344

> <r_mmod_Improper_Torsional_Energy-OPLS-2005>
3.9638078212738

> <r_mmod_Van_der_Waal_Energy-OPLS-2005>
127.696716308594

> <r_mmod_Electrostatic_Energy-OPLS-2005>
-331.077819824219

> <r_mmod_Solvation_Energy-OPLS-2005>
-175.015625

> <b_mmod_Minimization_Converged-OPLS-2005>
0

> <r_mmod_RMS_Derivative-OPLS-2005>
2.67357063293457

$$$$
16
                    3D
 Structure written by MMmdl.
179187  0  0  1  0            999 V2000
  -30.6104  -14.7472   20.5160 C   0  0  0  0  0  0
  -30.4164  -12.4644   19.4848 C   0  0  0  0  0  0
  -29.5026  -12.5200   18.2369 C   0  0  0  0  0  0
  -28.0222  -12.3434   18.6293 C   0  0  0  0  0  0
  -27.6301  -13.2205   19.8476 C   0  0  2  0  0  0
  -28.6724  -13.1000   20.9798 C   0  0  0  0  0  0
  -25.2534  -13.8201   20.5753 C   0  0  0  0  0  0
  -24.1813  -13.0484   20.9262 C   0  0  0  0  0  0
  -24.6319  -11.6951   20.8693 C   0  0  0  0  0  0
  -23.8990  -10.4345   21.0354 C   0  0  0  0  0  0
  -24.3590   -9.4303   21.9121 C   0  0  0  0  0  0
  -23.6306   -8.2312   22.0704 C   0  0  0  0  0  0
  -22.4302   -8.0309   21.3479 C   0  0  0  0  0  0
  -21.9886   -9.0279   20.4580 C   0  0  0  0  0  0
  -22.7166  -10.2180   20.3014 C   0  0  0  0  0  0
  -21.6921   -6.0738   22.5274 C   0  0  0  0  0  0
  -21.4057   -6.5639   23.8198 C   0  0  0  0  0  0
  -21.3644   -5.6789   24.9167 C   0  0  0  0  0  0
  -21.6046   -4.3037   24.7238 C   0  0  0  0  0  0
  -21.8830   -3.8146   23.4356 C   0  0  0  0  0  0
  -21.9207   -4.6962   22.3418 C   0  0  0  0  0  0
  -22.7872  -13.5310   21.1943 C   0  0  0  0  0  0
  -22.1619   -4.2118   21.0976 F   0  0  0  0  0  0
  -21.5612   -3.4529   25.7746 F   0  0  0  0  0  0
  -29.9657  -13.5214   20.4318 N   0  0  0  0  0  0
  -26.2857  -12.9342   20.3235 N   0  0  0  0  0  0
  -25.9228  -11.6500   20.5672 N   0  0  0  0  0  0
  -22.0475  -12.8226   22.0432 N   0  0  0  0  0  0
  -25.4391  -15.1893   20.4200 N   0  0  0  0  0  0
  -31.7592  -14.7890   20.0661 O   0  0  0  0  0  0
  -21.6681   -6.8896   21.4229 O   0  0  0  0  0  0
  -22.3642  -14.5692   20.6881 O   0  0  0  0  0  0
  -24.6289  -31.8574   23.2032 C   0  0  0  0  0  0
  -25.9145  -32.4758   23.8390 C   0  0  1  0  0  0
  -27.2025  -27.2792   20.1292 C   0  0  0  0  0  0
  -25.5955  -33.8564   24.2291 N   0  0  0  0  0  0
  -23.4255  -30.4831   21.5469 C   0  0  2  0  0  0
  -24.8689  -28.9401   20.1152 C   0  0  0  0  0  0
  -22.7531  -29.4603   22.4941 C   0  0  0  0  0  0
  -18.0286  -28.1378   22.8477 C   0  0  0  0  0  0
  -24.1484  -36.7262   23.2642 C   0  0  0  0  0  0
  -25.9757  -30.7745   21.3891 C   0  0  0  0  0  0
  -26.0434  -29.4037   20.7216 C   0  0  0  0  0  0
  -27.2171  -28.5862   20.7178 C   0  0  0  0  0  0
  -26.0044  -26.8853   19.4899 C   0  0  0  0  0  0
  -24.8539  -27.6886   19.4880 C   0  0  0  0  0  0
  -23.6472  -29.8271   20.1595 C   0  0  0  0  0  0
  -25.4115  -36.3060   24.0331 C   0  0  1  0  0  0
  -20.5896  -28.3688   23.1278 C   0  0  2  0  0  0
  -20.6778  -26.9412   22.5405 C   0  0  0  0  0  0
  -19.5744  -26.6373   21.5211 C   0  0  0  0  0  0
  -18.1921  -26.7917   22.1621 C   0  0  0  0  0  0
  -19.1545  -28.8853   23.2854 C   0  0  0  0  0  0
  -18.9468  -30.1446   23.8880 C   0  0  0  0  0  0
  -17.6466  -30.6573   24.0551 C   0  0  0  0  0  0
  -25.9061  -34.9443   23.5110 C   0  0  0  0  0  0
  -16.5351  -29.9074   23.6325 C   0  0  0  0  0  0
  -16.7272  -28.6485   23.0363 C   0  0  0  0  0  0
  -26.4511  -31.6593   25.0787 C   0  0  0  0  0  0
  -25.3748  -31.3757   26.1522 C   0  0  0  0  0  0
  -27.0374  -30.3007   24.6311 C   0  0  0  0  0  0
  -27.6049  -32.4368   25.7551 C   0  0  0  0  0  0
  -27.5580  -37.1788   24.8467 C   0  0  0  0  0  0
  -21.4243  -29.3028   22.3702 N   0  0  0  0  0  0
  -26.4279  -37.3771   23.9424 N   0  0  0  0  0  0
  -24.6961  -31.0585   22.1006 N   0  0  0  0  0  0
  -23.4246  -28.8134   23.3027 O   0  0  0  0  0  0
  -28.2884  -26.3813   20.1871 O   0  0  0  0  0  0
  -26.5614  -34.8906   22.4666 O   0  0  0  0  0  0
  -23.5455  -32.1416   23.7327 O   0  0  0  0  0  0
  -28.6259  -17.6516   17.9723 C   0  0  0  0  0  0
  -29.2988  -18.7936   18.3335 C   0  0  0  0  0  0
  -29.5885  -17.2087   19.9207 C   0  0  0  0  0  0
  -29.0270  -21.2512   17.4191 C   0  0  0  0  0  0
  -29.2720  -19.4051   15.8931 C   0  0  0  0  0  0
  -31.2470  -19.9131   17.2310 C   0  0  0  0  0  0
  -31.1840  -16.7586   21.9033 C   0  0  0  0  0  0
  -28.8321  -16.0670   22.0257 C   0  0  0  0  0  0
  -30.2358  -21.4952   22.4281 C   0  0  0  0  0  0
  -31.2949  -21.7191   20.2460 C   0  0  0  0  0  0
  -29.1315  -23.8315   20.3710 C   0  0  0  0  0  0
  -28.7765  -22.2638   20.5844 C   0  0  0  0  0  0
  -29.8588  -19.6022   20.8553 C   0  0  0  0  0  0
  -27.9749  -24.9159   20.2051 C   0  0  0  0  0  0
  -29.7065  -19.8693   17.3063 C   0  0  0  0  0  0
  -30.0236  -16.1836   21.0537 C   0  0  0  0  0  0
  -29.9852  -21.2390   20.9113 C   0  0  0  0  0  0
  -29.5967  -18.5982   19.7051 N   0  0  0  0  0  0
  -28.8790  -16.7112   18.9070 N   0  3  0  0  0  0
  -31.4600  -12.5700   19.1906 H   0  0  0  0  0  0
  -30.3441  -11.4855   19.9604 H   0  0  0  0  0  0
  -29.7891  -11.7428   17.5265 H   0  0  0  0  0  0
  -29.6382  -13.4690   17.7201 H   0  0  0  0  0  0
  -27.8634  -11.2950   18.8764 H   0  0  0  0  0  0
  -27.3681  -12.5499   17.7807 H   0  0  0  0  0  0
  -27.6251  -14.2442   19.4840 H   0  0  0  0  0  0
  -28.7320  -12.0605   21.3035 H   0  0  0  0  0  0
  -28.3852  -13.6213   21.8867 H   0  0  0  0  0  0
  -25.2758   -9.5833   22.4641 H   0  0  0  0  0  0
  -24.0049   -7.4774   22.7471 H   0  0  0  0  0  0
  -21.0789   -8.8821   19.8924 H   0  0  0  0  0  0
  -22.3609  -10.9727   19.6136 H   0  0  0  0  0  0
  -21.2050   -7.6157   23.9676 H   0  0  0  0  0  0
  -21.1444   -6.0518   25.9045 H   0  0  0  0  0  0
  -22.0622   -2.7614   23.2898 H   0  0  0  0  0  0
  -22.4106  -11.9793   22.4584 H   0  0  0  0  0  0
  -21.1086  -13.1174   22.2697 H   0  0  0  0  0  0
  -24.7433  -15.8676   20.7145 H   0  0  0  0  0  0
  -26.2906  -15.6181   20.0866 H   0  0  0  0  0  0
  -26.7226  -32.5396   23.1151 H   0  0  0  0  0  0
  -25.0141  -33.9736   25.0459 H   0  0  0  0  0  0
  -22.7182  -31.3018   21.4013 H   0  0  0  0  0  0
  -23.3755  -35.9581   23.3294 H   0  0  0  0  0  0
  -24.3564  -36.8892   22.2053 H   0  0  0  0  0  0
  -23.7215  -37.6458   23.6668 H   0  0  0  0  0  0
  -26.1410  -31.5461   20.6348 H   0  0  0  0  0  0
  -26.8418  -30.7996   22.0389 H   0  0  0  0  0  0
  -28.1173  -28.9353   21.2099 H   0  0  0  0  0  0
  -25.9064  -25.9368   18.9864 H   0  0  0  0  0  0
  -23.9563  -27.3268   19.0059 H   0  0  0  0  0  0
  -23.7958  -30.6069   19.4127 H   0  0  0  0  0  0
  -22.7645  -29.2737   19.8341 H   0  0  0  0  0  0
  -25.1283  -36.1914   25.0822 H   0  0  0  0  0  0
  -20.9947  -28.3223   24.1409 H   0  0  0  0  0  0
  -20.5661  -26.2294   23.3605 H   0  0  0  0  0  0
  -21.6648  -26.7419   22.1197 H   0  0  0  0  0  0
  -19.6906  -25.6273   21.1243 H   0  0  0  0  0  0
  -19.6674  -27.3177   20.6732 H   0  0  0  0  0  0
  -17.4199  -26.6660   21.4019 H   0  0  0  0  0  0
  -18.0311  -26.0055   22.9011 H   0  0  0  0  0  0
  -19.7945  -30.7254   24.2260 H   0  0  0  0  0  0
  -17.5019  -31.6252   24.5155 H   0  0  0  0  0  0
  -15.5347  -30.2975   23.7650 H   0  0  0  0  0  0
  -15.8669  -28.0776   22.7131 H   0  0  0  0  0  0
  -24.5877  -30.7155   25.7863 H   0  0  0  0  0  0
  -24.9010  -32.2947   26.4998 H   0  0  0  0  0  0
  -25.8082  -30.8898   27.0277 H   0  0  0  0  0  0
  -26.2994  -29.6749   24.1289 H   0  0  0  0  0  0
  -27.3987  -29.7270   25.4854 H   0  0  0  0  0  0
  -27.8901  -30.4258   23.9633 H   0  0  0  0  0  0
  -27.2617  -33.3640   26.2160 H   0  0  0  0  0  0
  -28.3843  -32.7001   25.0383 H   0  0  0  0  0  0
  -28.0767  -31.8515   26.5460 H   0  0  0  0  0  0
  -28.2576  -38.0105   24.7527 H   0  0  0  0  0  0
  -28.1099  -36.2638   24.6265 H   0  0  0  0  0  0
  -27.2310  -37.1395   25.8872 H   0  0  0  0  0  0
  -20.9465  -29.8813   21.6939 H   0  0  0  0  0  0
  -26.0153  -38.2839   24.1443 H   0  0  0  0  0  0
  -28.1259  -17.3719   17.0547 H   0  0  0  0  0  0
  -27.9645  -21.1531   17.6415 H   0  0  0  0  0  0
  -29.0843  -21.7914   16.4719 H   0  0  0  0  0  0
  -29.4782  -21.9342   18.1202 H   0  0  0  0  0  0
  -29.6395  -20.0833   15.1200 H   0  0  0  0  0  0
  -28.1847  -19.3727   15.8004 H   0  0  0  0  0  0
  -29.6616  -18.4204   15.6367 H   0  0  0  0  0  0
  -31.6191  -20.7389   16.6204 H   0  0  0  0  0  0
  -31.6149  -18.9964   16.7658 H   0  0  0  0  0  0
  -31.7221  -19.9481   18.2086 H   0  0  0  0  0  0
  -30.8758  -17.5797   22.5486 H   0  0  0  0  0  0
  -32.0095  -17.1043   21.2790 H   0  0  0  0  0  0
  -31.5950  -16.0059   22.5784 H   0  0  0  0  0  0
  -28.5950  -17.0332   22.4702 H   0  0  0  0  0  0
  -29.0482  -15.3996   22.8570 H   0  0  0  0  0  0
  -27.9208  -15.7402   21.5308 H   0  0  0  0  0  0
  -30.3947  -22.5476   22.6648 H   0  0  0  0  0  0
  -31.1144  -20.9692   22.8031 H   0  0  0  0  0  0
  -29.3954  -21.1704   23.0448 H   0  0  0  0  0  0
  -31.6005  -22.6767   20.6688 H   0  0  0  0  0  0
  -31.2280  -21.8878   19.1775 H   0  0  0  0  0  0
  -32.1215  -21.0285   20.4203 H   0  0  0  0  0  0
  -29.7638  -23.9252   19.4885 H   0  0  0  0  0  0
  -29.7521  -24.1606   21.2015 H   0  0  0  0  0  0
  -28.1725  -21.8946   19.7632 H   0  0  0  0  0  0
  -28.0646  -22.2133   21.4109 H   0  0  0  0  0  0
  -29.1083  -19.3332   21.6017 H   0  0  0  0  0  0
  -30.8100  -19.2618   21.2580 H   0  0  0  0  0  0
  -27.2500  -24.7383   21.0017 H   0  0  0  0  0  0
  -27.4764  -24.6443   19.2763 H   0  0  0  0  0  0
  -28.6242  -15.7410   18.7945 H   0  0  0  0  0  0
  1 25  1  0  0  0
  1 30  2  0  0  0
  1 86  1  0  0  0
  2  3  1  0  0  0
  2 25  1  0  0  0
  2 90  1  0  0  0
  2 91  1  0  0  0
  3  4  1  0  0  0
  3 92  1  0  0  0
  3 93  1  0  0  0
  4  5  1  0  0  0
  4 94  1  0  0  0
  4 95  1  0  0  0
  5  6  1  0  0  0
  5 26  1  0  0  0
  5 96  1  0  0  0
  6 25  1  0  0  0
  6 97  1  0  0  0
  6 98  1  0  0  0
  7  8  2  0  0  0
  7 26  1  0  0  0
  7 29  1  0  0  0
  8  9  1  0  0  0
  8 22  1  0  0  0
  9 10  1  0  0  0
  9 27  2  0  0  0
 10 11  2  0  0  0
 10 15  1  0  0  0
 11 12  1  0  0  0
 11 99  1  0  0  0
 12 13  2  0  0  0
 12100  1  0  0  0
 13 14  1  0  0  0
 13 31  1  0  0  0
 14 15  2  0  0  0
 14101  1  0  0  0
 15102  1  0  0  0
 16 17  2  0  0  0
 16 21  1  0  0  0
 16 31  1  0  0  0
 17 18  1  0  0  0
 17103  1  0  0  0
 18 19  2  0  0  0
 18104  1  0  0  0
 19 20  1  0  0  0
 19 24  1  0  0  0
 20 21  2  0  0  0
 20105  1  0  0  0
 21 23  1  0  0  0
 22 28  1  0  0  0
 22 32  2  0  0  0
 26 27  1  0  0  0
 28106  1  0  0  0
 28107  1  0  0  0
 29108  1  0  0  0
 29109  1  0  0  0
 33 34  1  0  0  0
 33 66  1  0  0  0
 33 70  2  0  0  0
 34 36  1  0  0  0
 34 59  1  0  0  0
 34110  1  0  0  0
 35 44  2  0  0  0
 35 45  1  0  0  0
 35 68  1  0  0  0
 36 56  1  0  0  0
 36111  1  0  0  0
 37 39  1  0  0  0
 37 47  1  0  0  0
 37 66  1  0  0  0
 37112  1  0  0  0
 38 43  2  0  0  0
 38 46  1  0  0  0
 38 47  1  0  0  0
 39 64  1  0  0  0
 39 67  2  0  0  0
 40 52  1  0  0  0
 40 53  2  0  0  0
 40 58  1  0  0  0
 41113  1  0  0  0
 41114  1  0  0  0
 41115  1  0  0  0
 41 48  1  0  0  0
 42 43  1  0  0  0
 42 66  1  0  0  0
 42116  1  0  0  0
 42117  1  0  0  0
 43 44  1  0  0  0
 44118  1  0  0  0
 45 46  2  0  0  0
 45119  1  0  0  0
 46120  1  0  0  0
 47121  1  0  0  0
 47122  1  0  0  0
 48 56  1  0  0  0
 48 65  1  0  0  0
 48123  1  0  0  0
 49 50  1  0  0  0
 49 53  1  0  0  0
 49 64  1  0  0  0
 49124  1  0  0  0
 50 51  1  0  0  0
 50125  1  0  0  0
 50126  1  0  0  0
 51 52  1  0  0  0
 51127  1  0  0  0
 51128  1  0  0  0
 52129  1  0  0  0
 52130  1  0  0  0
 53 54  1  0  0  0
 54 55  2  0  0  0
 54131  1  0  0  0
 55 57  1  0  0  0
 55132  1  0  0  0
 56 69  2  0  0  0
 57 58  2  0  0  0
 57133  1  0  0  0
 58134  1  0  0  0
 59 60  1  0  0  0
 59 61  1  0  0  0
 59 62  1  0  0  0
 60135  1  0  0  0
 60136  1  0  0  0
 60137  1  0  0  0
 61138  1  0  0  0
 61139  1  0  0  0
 61140  1  0  0  0
 62141  1  0  0  0
 62142  1  0  0  0
 62143  1  0  0  0
 63 65  1  0  0  0
 63144  1  0  0  0
 63145  1  0  0  0
 63146  1  0  0  0
 64147  1  0  0  0
 65148  1  0  0  0
 68 84  1  0  0  0
 71 72  2  0  0  0
 71 89  1  0  0  0
 71149  1  0  0  0
 72 85  1  0  0  0
 72 88  1  0  0  0
 73 86  1  0  0  0
 73 88  1  0  0  0
 73 89  2  0  0  0
 74150  1  0  0  0
 74151  1  0  0  0
 74152  1  0  0  0
 74 85  1  0  0  0
 75 85  1  0  0  0
 75153  1  0  0  0
 75154  1  0  0  0
 75155  1  0  0  0
 76 85  1  0  0  0
 76156  1  0  0  0
 76157  1  0  0  0
 76158  1  0  0  0
 77159  1  0  0  0
 77160  1  0  0  0
 77161  1  0  0  0
 77 86  1  0  0  0
 78 86  1  0  0  0
 78162  1  0  0  0
 78163  1  0  0  0
 78164  1  0  0  0
 79165  1  0  0  0
 79166  1  0  0  0
 79167  1  0  0  0
 79 87  1  0  0  0
 80 87  1  0  0  0
 80168  1  0  0  0
 80169  1  0  0  0
 80170  1  0  0  0
 81 82  1  0  0  0
 81 84  1  0  0  0
 81171  1  0  0  0
 81172  1  0  0  0
 82 87  1  0  0  0
 82173  1  0  0  0
 82174  1  0  0  0
 83 87  1  0  0  0
 83 88  1  0  0  0
 83175  1  0  0  0
 83176  1  0  0  0
 84177  1  0  0  0
 84178  1  0  0  0
 89179  1  0  0  0
M  CHG  1  89   1
M  ISO  4   1 100  68 101  84 101  86 100
M  END
> <chiral flag>
0

> <version>
0

> <s_m_source_file>
/data/baiqing/PycharmProjects/Reinvent-master-3.2/result/LINK_invent/BTK/process_docking_weight1_custom_sum_contain_oxygen_bond_distance_aromatic_linkinvent_7_9_3/rearranged_h_0071.sdf

> <i_m_source_file_index>
17

> <r_mmod_Potential_Energy-OPLS-2005>
444.081420898438

> <r_mmod_Stretch_Energy-OPLS-2005>
156.063217163086

> <r_mmod_Bend_Energy-OPLS-2005>
304.762847900391

> <r_mmod_Torsional_Energy-OPLS-2005>
289.607543945312

> <r_mmod_Improper_Torsional_Energy-OPLS-2005>
3.65295505523682

> <r_mmod_Van_der_Waal_Energy-OPLS-2005>
153.199859619141

> <r_mmod_Electrostatic_Energy-OPLS-2005>
-158.840713500977

> <r_mmod_Solvation_Energy-OPLS-2005>
-382.245086669922

> <b_mmod_Minimization_Converged-OPLS-2005>
0

> <r_mmod_RMS_Derivative-OPLS-2005>
6.63139629364014

$$$$
17
                    3D
 Structure written by MMmdl.
183192  0  0  1  0            999 V2000
  -30.7230  -14.5097   20.5531 C   0  0  0  0  0  0
  -30.4168  -12.3191   19.4439 C   0  0  0  0  0  0
  -29.4982  -12.4912   18.2153 C   0  0  0  0  0  0
  -28.0126  -12.3734   18.6147 C   0  0  0  0  0  0
  -27.6578  -13.2039   19.8784 C   0  0  2  0  0  0
  -28.7036  -12.9677   20.9873 C   0  0  0  0  0  0
  -25.2564  -13.8140   20.5664 C   0  0  0  0  0  0
  -24.1827  -13.0414   20.9175 C   0  0  0  0  0  0
  -24.6387  -11.6882   20.8735 C   0  0  0  0  0  0
  -23.9054  -10.4275   21.0400 C   0  0  0  0  0  0
  -24.3607   -9.4182   21.9173 C   0  0  0  0  0  0
  -23.6277   -8.2222   22.0740 C   0  0  0  0  0  0
  -22.4265   -8.0270   21.3528 C   0  0  0  0  0  0
  -21.9906   -9.0245   20.4630 C   0  0  0  0  0  0
  -22.7232  -10.2122   20.3041 C   0  0  0  0  0  0
  -21.6848   -6.0731   22.5274 C   0  0  0  0  0  0
  -21.4017   -6.5641   23.8206 C   0  0  0  0  0  0
  -21.3656   -5.6794   24.9173 C   0  0  0  0  0  0
  -21.6038   -4.3054   24.7229 C   0  0  0  0  0  0
  -21.8818   -3.8142   23.4351 C   0  0  0  0  0  0
  -21.9192   -4.6956   22.3404 C   0  0  0  0  0  0
  -22.7856  -13.5212   21.1864 C   0  0  0  0  0  0
  -22.1653   -4.2138   21.0978 F   0  0  0  0  0  0
  -21.5623   -3.4540   25.7743 F   0  0  0  0  0  0
  -30.0228  -13.3325   20.4483 N   0  0  0  0  0  0
  -26.3001  -12.9296   20.3389 N   0  0  0  0  0  0
  -25.9314  -11.6461   20.5780 N   0  0  0  0  0  0
  -22.0513  -12.8188   22.0426 N   0  0  0  0  0  0
  -25.4296  -15.1851   20.4035 N   0  0  0  0  0  0
  -31.8612  -14.5601   20.0717 O   0  0  0  0  0  0
  -21.6614   -6.8876   21.4240 O   0  0  0  0  0  0
  -22.3523  -14.5515   20.6725 O   0  0  0  0  0  0
  -24.6132  -31.8667   23.2112 C   0  0  0  0  0  0
  -25.9033  -32.4819   23.8410 C   0  0  1  0  0  0
  -27.2445  -27.4350   20.0986 C   0  0  0  0  0  0
  -25.5899  -33.8616   24.2360 N   0  0  0  0  0  0
  -23.4064  -30.4873   21.5481 C   0  0  2  0  0  0
  -24.8589  -28.9476   20.1206 C   0  0  0  0  0  0
  -22.7409  -29.4643   22.4973 C   0  0  0  0  0  0
  -18.0273  -28.1396   22.8494 C   0  0  0  0  0  0
  -24.1480  -36.7304   23.2637 C   0  0  0  0  0  0
  -25.9326  -30.8294   21.3678 C   0  0  0  0  0  0
  -26.0151  -29.4592   20.7241 C   0  0  0  0  0  0
  -27.2129  -28.7071   20.7182 C   0  0  0  0  0  0
  -26.0765  -26.9408   19.4849 C   0  0  0  0  0  0
  -24.8833  -27.6866   19.4987 C   0  0  0  0  0  0
  -23.6224  -29.8155   20.1645 C   0  0  0  0  0  0
  -25.4097  -36.3111   24.0354 C   0  0  1  0  0  0
  -20.5858  -28.3678   23.1310 C   0  0  2  0  0  0
  -20.6748  -26.9418   22.5409 C   0  0  0  0  0  0
  -19.5730  -26.6398   21.5200 C   0  0  0  0  0  0
  -18.1914  -26.7946   22.1623 C   0  0  0  0  0  0
  -19.1520  -28.8853   23.2901 C   0  0  0  0  0  0
  -18.9448  -30.1462   23.8918 C   0  0  0  0  0  0
  -17.6448  -30.6595   24.0579 C   0  0  0  0  0  0
  -25.9018  -34.9472   23.5145 C   0  0  0  0  0  0
  -16.5341  -29.9106   23.6330 C   0  0  0  0  0  0
  -16.7261  -28.6523   23.0350 C   0  0  0  0  0  0
  -26.4477  -31.6587   25.0722 C   0  0  0  0  0  0
  -25.3771  -31.3690   26.1492 C   0  0  0  0  0  0
  -27.0298  -30.3030   24.6083 C   0  0  0  0  0  0
  -27.6078  -32.4281   25.7475 C   0  0  0  0  0  0
  -27.5587  -37.1806   24.8471 C   0  0  0  0  0  0
  -21.4133  -29.3042   22.3716 N   0  0  0  0  0  0
  -26.4288  -37.3795   23.9428 N   0  0  0  0  0  0
  -24.6681  -31.0758   22.1019 N   0  0  0  0  0  0
  -23.4163  -28.8170   23.3009 O   0  0  0  0  0  0
  -28.3878  -26.6715   20.0301 O   0  0  0  0  0  0
  -26.5554  -34.8911   22.4696 O   0  0  0  0  0  0
  -23.5317  -32.1401   23.7499 O   0  0  0  0  0  0
  -27.6762  -22.8040   19.8772 C   0  0  0  0  0  0
  -28.1113  -21.6568   19.1797 C   0  0  0  0  0  0
  -29.8442  -22.9569   20.9586 C   0  0  0  0  0  0
  -29.2615  -16.4567   18.6632 C   0  0  0  0  0  0
  -28.5446  -23.4809   20.7610 C   0  0  0  0  0  0
  -29.4204  -21.1555   19.3498 C   0  0  0  0  0  0
  -30.2920  -21.7990   20.2632 C   0  0  0  0  0  0
  -29.8337  -16.8192   19.9117 C   0  0  0  0  0  0
  -29.1724  -17.6052   17.9239 C   0  0  0  0  0  0
  -28.0814  -24.3965   23.0653 C   0  0  0  0  0  0
  -31.3675  -16.5379   21.8920 C   0  0  0  0  0  0
  -28.9921  -15.8700   22.0680 C   0  0  0  0  0  0
  -28.2782  -16.3397   15.9314 C   0  0  0  0  0  0
  -29.8586  -18.1917   15.5452 C   0  0  0  0  0  0
  -27.4837  -18.6374   16.3463 C   0  0  0  0  0  0
  -32.4106  -21.8034   21.4044 C   0  0  0  0  0  0
  -29.9335  -20.0413   18.4229 C   0  0  0  0  0  0
  -28.7860  -26.0420   21.2527 C   0  0  0  0  0  0
  -28.0509  -24.7018   21.5579 C   0  0  1  0  0  0
  -30.1895  -15.9027   21.0995 C   0  0  0  0  0  0
  -28.7173  -17.7211   16.4754 C   0  0  0  0  0  0
  -29.9692  -18.1489   19.9767 N   0  0  0  0  0  0
  -29.6192  -18.6398   18.7552 N   0  0  0  0  0  0
  -31.5583  -21.2730   20.4007 O   0  0  0  0  0  0
  -31.4629  -12.3901   19.1403 H   0  0  0  0  0  0
  -30.3126  -11.3142   19.8579 H   0  0  0  0  0  0
  -29.7384  -11.7421   17.4611 H   0  0  0  0  0  0
  -29.6860  -13.4552   17.7457 H   0  0  0  0  0  0
  -27.8098  -11.3180   18.8014 H   0  0  0  0  0  0
  -27.3727  -12.6619   17.7807 H   0  0  0  0  0  0
  -27.6973  -14.2532   19.5995 H   0  0  0  0  0  0
  -28.7002  -11.9104   21.2556 H   0  0  0  0  0  0
  -28.4493  -13.4525   21.9214 H   0  0  0  0  0  0
  -25.2757   -9.5641   22.4746 H   0  0  0  0  0  0
  -23.9971   -7.4607   22.7463 H   0  0  0  0  0  0
  -21.0834   -8.8770   19.8942 H   0  0  0  0  0  0
  -22.3692  -10.9663   19.6143 H   0  0  0  0  0  0
  -21.2010   -7.6149   23.9712 H   0  0  0  0  0  0
  -21.1480   -6.0522   25.9072 H   0  0  0  0  0  0
  -22.0602   -2.7606   23.2852 H   0  0  0  0  0  0
  -22.4147  -11.9813   22.4734 H   0  0  0  0  0  0
  -21.1150  -13.1209   22.2711 H   0  0  0  0  0  0
  -24.6658  -15.8426   20.5119 H   0  0  0  0  0  0
  -26.2848  -15.6218   20.0832 H   0  0  0  0  0  0
  -26.7114  -32.5564   23.1186 H   0  0  0  0  0  0
  -25.0133  -33.9791   25.0559 H   0  0  0  0  0  0
  -22.6968  -31.3040   21.4026 H   0  0  0  0  0  0
  -23.3738  -35.9641   23.3291 H   0  0  0  0  0  0
  -24.3572  -36.8902   22.2049 H   0  0  0  0  0  0
  -23.7224  -37.6515   23.6627 H   0  0  0  0  0  0
  -26.0390  -31.5898   20.5939 H   0  0  0  0  0  0
  -26.8218  -30.8931   21.9828 H   0  0  0  0  0  0
  -28.1084  -29.1032   21.1770 H   0  0  0  0  0  0
  -26.0955  -25.9748   18.9990 H   0  0  0  0  0  0
  -23.9968  -27.2908   19.0226 H   0  0  0  0  0  0
  -23.7468  -30.5862   19.4034 H   0  0  0  0  0  0
  -22.7483  -29.2362   19.8611 H   0  0  0  0  0  0
  -25.1266  -36.1990   25.0847 H   0  0  0  0  0  0
  -20.9957  -28.3250   24.1431 H   0  0  0  0  0  0
  -20.5622  -26.2296   23.3599 H   0  0  0  0  0  0
  -21.6624  -26.7450   22.1226 H   0  0  0  0  0  0
  -19.6871  -25.6302   21.1246 H   0  0  0  0  0  0
  -19.6670  -27.3195   20.6717 H   0  0  0  0  0  0
  -17.4184  -26.6707   21.4031 H   0  0  0  0  0  0
  -18.0314  -26.0089   22.9017 H   0  0  0  0  0  0
  -19.7920  -30.7275   24.2289 H   0  0  0  0  0  0
  -17.5011  -31.6277   24.5186 H   0  0  0  0  0  0
  -15.5349  -30.3024   23.7626 H   0  0  0  0  0  0
  -15.8660  -28.0852   22.7044 H   0  0  0  0  0  0
  -24.5983  -30.6972   25.7863 H   0  0  0  0  0  0
  -24.8905  -32.2827   26.4908 H   0  0  0  0  0  0
  -25.8157  -30.8928   27.0268 H   0  0  0  0  0  0
  -26.2830  -29.6796   24.1147 H   0  0  0  0  0  0
  -27.4081  -29.7263   25.4532 H   0  0  0  0  0  0
  -27.8660  -30.4334   23.9212 H   0  0  0  0  0  0
  -27.2741  -33.3587   26.2066 H   0  0  0  0  0  0
  -28.3883  -32.6807   25.0292 H   0  0  0  0  0  0
  -28.0744  -31.8384   26.5374 H   0  0  0  0  0  0
  -28.2610  -38.0101   24.7523 H   0  0  0  0  0  0
  -28.1082  -36.2633   24.6283 H   0  0  0  0  0  0
  -27.2315  -37.1452   25.8878 H   0  0  0  0  0  0
  -20.9281  -29.8830   21.7001 H   0  0  0  0  0  0
  -26.0179  -38.2875   24.1436 H   0  0  0  0  0  0
  -26.6670  -23.1635   19.7258 H   0  0  0  0  0  0
  -27.4404  -21.1766   18.4813 H   0  0  0  0  0  0
  -30.4938  -23.4665   21.6551 H   0  0  0  0  0  0
  -28.9996  -15.4683   18.3270 H   0  0  0  0  0  0
  -27.5385  -23.4782   23.2896 H   0  0  0  0  0  0
  -27.6217  -25.2014   23.6396 H   0  0  0  0  0  0
  -29.1014  -24.2752   23.4310 H   0  0  0  0  0  0
  -31.0816  -17.4839   22.3535 H   0  0  0  0  0  0
  -32.2214  -16.7577   21.2481 H   0  0  0  0  0  0
  -31.7115  -15.8820   22.6934 H   0  0  0  0  0  0
  -28.7872  -16.8671   22.4592 H   0  0  0  0  0  0
  -29.1832  -15.2322   22.9308 H   0  0  0  0  0  0
  -28.0749  -15.5579   21.5750 H   0  0  0  0  0  0
  -29.0971  -15.6189   15.9481 H   0  0  0  0  0  0
  -27.9330  -16.4028   14.8985 H   0  0  0  0  0  0
  -27.4590  -15.9188   16.5159 H   0  0  0  0  0  0
  -30.7091  -17.5104   15.5945 H   0  0  0  0  0  0
  -30.2358  -19.1838   15.7752 H   0  0  0  0  0  0
  -29.5322  -18.2179   14.5046 H   0  0  0  0  0  0
  -26.6465  -18.2439   16.9242 H   0  0  0  0  0  0
  -27.1553  -18.7147   15.3093 H   0  0  0  0  0  0
  -27.6598  -19.6492   16.6973 H   0  0  0  0  0  0
  -33.3299  -21.2184   21.4309 H   0  0  0  0  0  0
  -31.9546  -21.7412   22.3933 H   0  0  0  0  0  0
  -32.6832  -22.8381   21.1941 H   0  0  0  0  0  0
  -31.0167  -20.1143   18.3163 H   0  0  0  0  0  0
  -29.5517  -20.2814   17.4379 H   0  0  0  0  0  0
  -29.8636  -25.8785   21.2242 H   0  0  0  0  0  0
  -28.6223  -26.7443   22.0714 H   0  0  0  0  0  0
  -26.9993  -24.8517   21.3083 H   0  0  0  0  0  0
  1 25  1  0  0  0
  1 30  2  0  0  0
  1 90  1  0  0  0
  2  3  1  0  0  0
  2 25  1  0  0  0
  2 95  1  0  0  0
  2 96  1  0  0  0
  3  4  1  0  0  0
  3 97  1  0  0  0
  3 98  1  0  0  0
  4  5  1  0  0  0
  4 99  1  0  0  0
  4100  1  0  0  0
  5  6  1  0  0  0
  5 26  1  0  0  0
  5101  1  0  0  0
  6 25  1  0  0  0
  6102  1  0  0  0
  6103  1  0  0  0
  7  8  2  0  0  0
  7 26  1  0  0  0
  7 29  1  0  0  0
  8  9  1  0  0  0
  8 22  1  0  0  0
  9 10  1  0  0  0
  9 27  2  0  0  0
 10 11  2  0  0  0
 10 15  1  0  0  0
 11 12  1  0  0  0
 11104  1  0  0  0
 12 13  2  0  0  0
 12105  1  0  0  0
 13 14  1  0  0  0
 13 31  1  0  0  0
 14 15  2  0  0  0
 14106  1  0  0  0
 15107  1  0  0  0
 16 17  2  0  0  0
 16 21  1  0  0  0
 16 31  1  0  0  0
 17 18  1  0  0  0
 17108  1  0  0  0
 18 19  2  0  0  0
 18109  1  0  0  0
 19 20  1  0  0  0
 19 24  1  0  0  0
 20 21  2  0  0  0
 20110  1  0  0  0
 21 23  1  0  0  0
 22 28  1  0  0  0
 22 32  2  0  0  0
 26 27  1  0  0  0
 28111  1  0  0  0
 28112  1  0  0  0
 29113  1  0  0  0
 29114  1  0  0  0
 33 34  1  0  0  0
 33 66  1  0  0  0
 33 70  2  0  0  0
 34 36  1  0  0  0
 34 59  1  0  0  0
 34115  1  0  0  0
 35 44  2  0  0  0
 35 45  1  0  0  0
 35 68  1  0  0  0
 36 56  1  0  0  0
 36116  1  0  0  0
 37 39  1  0  0  0
 37 47  1  0  0  0
 37 66  1  0  0  0
 37117  1  0  0  0
 38 43  2  0  0  0
 38 46  1  0  0  0
 38 47  1  0  0  0
 39 64  1  0  0  0
 39 67  2  0  0  0
 40 52  1  0  0  0
 40 53  2  0  0  0
 40 58  1  0  0  0
 41118  1  0  0  0
 41119  1  0  0  0
 41120  1  0  0  0
 41 48  1  0  0  0
 42 43  1  0  0  0
 42 66  1  0  0  0
 42121  1  0  0  0
 42122  1  0  0  0
 43 44  1  0  0  0
 44123  1  0  0  0
 45 46  2  0  0  0
 45124  1  0  0  0
 46125  1  0  0  0
 47126  1  0  0  0
 47127  1  0  0  0
 48 56  1  0  0  0
 48 65  1  0  0  0
 48128  1  0  0  0
 49 50  1  0  0  0
 49 53  1  0  0  0
 49 64  1  0  0  0
 49129  1  0  0  0
 50 51  1  0  0  0
 50130  1  0  0  0
 50131  1  0  0  0
 51 52  1  0  0  0
 51132  1  0  0  0
 51133  1  0  0  0
 52134  1  0  0  0
 52135  1  0  0  0
 53 54  1  0  0  0
 54 55  2  0  0  0
 54136  1  0  0  0
 55 57  1  0  0  0
 55137  1  0  0  0
 56 69  2  0  0  0
 57 58  2  0  0  0
 57138  1  0  0  0
 58139  1  0  0  0
 59 60  1  0  0  0
 59 61  1  0  0  0
 59 62  1  0  0  0
 60140  1  0  0  0
 60141  1  0  0  0
 60142  1  0  0  0
 61143  1  0  0  0
 61144  1  0  0  0
 61145  1  0  0  0
 62146  1  0  0  0
 62147  1  0  0  0
 62148  1  0  0  0
 63 65  1  0  0  0
 63149  1  0  0  0
 63150  1  0  0  0
 63151  1  0  0  0
 64152  1  0  0  0
 65153  1  0  0  0
 68 88  1  0  0  0
 71 72  2  0  0  0
 71 75  1  0  0  0
 71154  1  0  0  0
 72 76  1  0  0  0
 72155  1  0  0  0
 73 75  2  0  0  0
 73 77  1  0  0  0
 73156  1  0  0  0
 74 78  1  0  0  0
 74 79  2  0  0  0
 74157  1  0  0  0
 75 89  1  0  0  0
 76 77  2  0  0  0
 76 87  1  0  0  0
 77 94  1  0  0  0
 78 90  1  0  0  0
 78 92  2  0  0  0
 79 91  1  0  0  0
 79 93  1  0  0  0
 80158  1  0  0  0
 80159  1  0  0  0
 80160  1  0  0  0
 80 89  1  0  0  0
 81161  1  0  0  0
 81162  1  0  0  0
 81163  1  0  0  0
 81 90  1  0  0  0
 82 90  1  0  0  0
 82164  1  0  0  0
 82165  1  0  0  0
 82166  1  0  0  0
 83167  1  0  0  0
 83168  1  0  0  0
 83169  1  0  0  0
 83 91  1  0  0  0
 84 91  1  0  0  0
 84170  1  0  0  0
 84171  1  0  0  0
 84172  1  0  0  0
 85 91  1  0  0  0
 85173  1  0  0  0
 85174  1  0  0  0
 85175  1  0  0  0
 86 94  1  0  0  0
 86176  1  0  0  0
 86177  1  0  0  0
 86178  1  0  0  0
 87 93  1  0  0  0
 87179  1  0  0  0
 87180  1  0  0  0
 88 89  1  0  0  0
 88181  1  0  0  0
 88182  1  0  0  0
 89183  1  0  0  0
 92 93  1  0  0  0
M  ISO  4   1 100  68 101  88 101  90 100
M  END
> <chiral flag>
0

> <version>
0

> <s_m_source_file>
/data/baiqing/PycharmProjects/Reinvent-master-3.2/result/LINK_invent/BTK/process_docking_weight1_custom_sum_contain_oxygen_bond_distance_aromatic_linkinvent_7_9_3/rearranged_h_0071.sdf

> <i_m_source_file_index>
18

> <r_mmod_Potential_Energy-OPLS-2005>
110.112251281738

> <r_mmod_Stretch_Energy-OPLS-2005>
53.5063400268555

> <r_mmod_Bend_Energy-OPLS-2005>
153.968963623047

> <r_mmod_Torsional_Energy-OPLS-2005>
221.574523925781

> <r_mmod_Improper_Torsional_Energy-OPLS-2005>
4.787841796875

> <r_mmod_Van_der_Waal_Energy-OPLS-2005>
152.714767456055

> <r_mmod_Electrostatic_Energy-OPLS-2005>
-294.463745117188

> <r_mmod_Solvation_Energy-OPLS-2005>
-197.932815551758

> <b_mmod_Minimization_Converged-OPLS-2005>
0

> <r_mmod_RMS_Derivative-OPLS-2005>
2.41284656524658

$$$$
18
                    3D
 Structure written by MMmdl.
168176  0  0  1  0            999 V2000
  -30.7145  -14.6526   20.5078 C   0  0  0  0  0  0
  -30.4399  -12.4033   19.4648 C   0  0  0  0  0  0
  -29.5019  -12.4697   18.2374 C   0  0  0  0  0  0
  -28.0267  -12.2857   18.6495 C   0  0  0  0  0  0
  -27.6410  -13.1631   19.8623 C   0  0  2  0  0  0
  -28.7126  -13.0504   20.9828 C   0  0  0  0  0  0
  -25.2347  -13.7918   20.5498 C   0  0  0  0  0  0
  -24.1680  -13.0254   20.9164 C   0  0  0  0  0  0
  -24.6282  -11.6755   20.8823 C   0  0  0  0  0  0
  -23.8976  -10.4187   21.0460 C   0  0  0  0  0  0
  -24.3551   -9.4113   21.9219 C   0  0  0  0  0  0
  -23.6250   -8.2148   22.0760 C   0  0  0  0  0  0
  -22.4231   -8.0206   21.3551 C   0  0  0  0  0  0
  -21.9862   -9.0174   20.4650 C   0  0  0  0  0  0
  -22.7174  -10.2058   20.3074 C   0  0  0  0  0  0
  -21.6833   -6.0693   22.5294 C   0  0  0  0  0  0
  -21.4004   -6.5620   23.8219 C   0  0  0  0  0  0
  -21.3646   -5.6782   24.9190 C   0  0  0  0  0  0
  -21.6035   -4.3043   24.7250 C   0  0  0  0  0  0
  -21.8840   -3.8121   23.4383 C   0  0  0  0  0  0
  -21.9196   -4.6926   22.3427 C   0  0  0  0  0  0
  -22.7727  -13.5085   21.1861 C   0  0  0  0  0  0
  -22.1679   -4.2114   21.1003 F   0  0  0  0  0  0
  -21.5615   -3.4535   25.7768 F   0  0  0  0  0  0
  -30.0180  -13.4542   20.4285 N   0  0  0  0  0  0
  -26.2877  -12.9077   20.3391 N   0  0  0  0  0  0
  -25.9216  -11.6307   20.5953 N   0  0  0  0  0  0
  -22.0407  -12.8109   22.0475 N   0  0  0  0  0  0
  -25.3704  -15.1609   20.3561 N   0  0  0  0  0  0
  -31.8946  -14.6103   20.1600 O   0  0  0  0  0  0
  -21.6596   -6.8817   21.4251 O   0  0  0  0  0  0
  -22.3402  -14.5408   20.6728 O   0  0  0  0  0  0
  -24.6168  -31.8660   23.2073 C   0  0  0  0  0  0
  -25.9060  -32.4803   23.8379 C   0  0  1  0  0  0
  -27.2497  -27.4161   20.1236 C   0  0  0  0  0  0
  -25.5905  -33.8605   24.2312 N   0  0  0  0  0  0
  -23.4068  -30.4859   21.5478 C   0  0  2  0  0  0
  -24.8591  -28.9377   20.1259 C   0  0  0  0  0  0
  -22.7413  -29.4663   22.4994 C   0  0  0  0  0  0
  -18.0274  -28.1370   22.8493 C   0  0  0  0  0  0
  -24.1483  -36.7322   23.2639 C   0  0  0  0  0  0
  -25.9350  -30.8224   21.3654 C   0  0  0  0  0  0
  -26.0151  -29.4486   20.7306 C   0  0  0  0  0  0
  -27.2131  -28.6940   20.7320 C   0  0  0  0  0  0
  -26.0815  -26.9210   19.5100 C   0  0  0  0  0  0
  -24.8871  -27.6706   19.5144 C   0  0  0  0  0  0
  -23.6195  -29.8079   20.1670 C   0  0  0  0  0  0
  -25.4098  -36.3096   24.0335 C   0  0  1  0  0  0
  -20.5864  -28.3676   23.1311 C   0  0  2  0  0  0
  -20.6767  -26.9408   22.5414 C   0  0  0  0  0  0
  -19.5747  -26.6384   21.5207 C   0  0  0  0  0  0
  -18.1924  -26.7919   22.1619 C   0  0  0  0  0  0
  -19.1521  -28.8835   23.2899 C   0  0  0  0  0  0
  -18.9455  -30.1443   23.8904 C   0  0  0  0  0  0
  -17.6458  -30.6580   24.0565 C   0  0  0  0  0  0
  -25.9031  -34.9461   23.5117 C   0  0  0  0  0  0
  -16.5349  -29.9080   23.6326 C   0  0  0  0  0  0
  -16.7264  -28.6495   23.0346 C   0  0  0  0  0  0
  -26.4468  -31.6586   25.0719 C   0  0  0  0  0  0
  -25.3742  -31.3697   26.1478 C   0  0  0  0  0  0
  -27.0312  -30.3030   24.6106 C   0  0  0  0  0  0
  -27.6036  -32.4310   25.7481 C   0  0  0  0  0  0
  -27.5571  -37.1805   24.8459 C   0  0  0  0  0  0
  -21.4141  -29.3043   22.3713 N   0  0  0  0  0  0
  -26.4280  -37.3784   23.9406 N   0  0  0  0  0  0
  -24.6706  -31.0744   22.0984 N   0  0  0  0  0  0
  -23.4163  -28.8237   23.3078 O   0  0  0  0  0  0
  -28.4148  -26.6821   20.0304 O   0  0  0  0  0  0
  -26.5603  -34.8925   22.4686 O   0  0  0  0  0  0
  -23.5358  -32.1430   23.7449 O   0  0  0  0  0  0
  -29.9454  -20.6963   20.9486 C   0  0  0  0  0  0
  -30.7935  -18.7414   20.9931 C   0  0  0  0  0  0
  -30.9457  -20.0708   24.1168 C   0  0  0  0  0  0
  -32.6403  -17.0872   21.2245 C   0  0  0  0  0  0
  -28.9804  -21.8505   21.2071 C   0  0  0  0  0  0
  -29.5193  -23.3075   21.1086 C   0  0  0  0  0  0
  -28.3746  -24.3709   21.0234 C   0  0  0  0  0  0
  -29.8191  -19.5537   23.2178 C   0  0  0  0  0  0
  -28.7884  -25.8679   21.1557 C   0  0  0  0  0  0
  -31.1085  -17.2696   21.3554 C   0  0  2  0  0  0
  -30.1142  -16.1472   20.7037 C   0  0  0  0  0  0
  -28.8709  -16.2127   21.6438 C   0  0  0  0  0  0
  -29.6875  -16.6013   19.2589 C   0  0  0  0  0  0
  -30.5274  -20.5197   19.7595 N   0  0  0  0  0  0
  -31.1060  -19.2723   19.8020 N   0  0  0  0  0  0
  -30.1750  -19.6560   21.8016 N   0  0  0  0  0  0
  -29.1371  -15.6776   22.8373 F   0  0  0  0  0  0
  -27.8222  -15.6138   21.1458 F   0  0  0  0  0  0
  -28.4246  -17.4456   21.8459 F   0  0  0  0  0  0
  -28.9944  -15.6726   18.6127 F   0  0  0  0  0  0
  -28.9038  -17.6804   19.2463 F   0  0  0  0  0  0
  -30.7554  -16.8224   18.4890 F   0  0  0  0  0  0
  -31.4744  -12.5058   19.1314 H   0  0  0  0  0  0
  -30.3963  -11.4165   19.9288 H   0  0  0  0  0  0
  -29.7794  -11.7012   17.5145 H   0  0  0  0  0  0
  -29.6269  -13.4230   17.7244 H   0  0  0  0  0  0
  -27.8778  -11.2354   18.8991 H   0  0  0  0  0  0
  -27.3663  -12.4949   17.8077 H   0  0  0  0  0  0
  -27.6088  -14.1599   19.4556 H   0  0  0  0  0  0
  -28.7636  -12.0105   21.3094 H   0  0  0  0  0  0
  -28.4552  -13.5748   21.8982 H   0  0  0  0  0  0
  -25.2709   -9.5598   22.4772 H   0  0  0  0  0  0
  -23.9981   -7.4523   22.7449 H   0  0  0  0  0  0
  -21.0809   -8.8692   19.8938 H   0  0  0  0  0  0
  -22.3645  -10.9606   19.6175 H   0  0  0  0  0  0
  -21.1998   -7.6128   23.9719 H   0  0  0  0  0  0
  -21.1435   -6.0510   25.9089 H   0  0  0  0  0  0
  -22.0622   -2.7584   23.2902 H   0  0  0  0  0  0
  -22.4045  -11.9778   22.4877 H   0  0  0  0  0  0
  -21.1019  -13.1127   22.2708 H   0  0  0  0  0  0
  -24.6139  -15.8170   20.5105 H   0  0  0  0  0  0
  -26.2726  -15.6064   20.2427 H   0  0  0  0  0  0
  -26.7141  -32.5515   23.1148 H   0  0  0  0  0  0
  -25.0033  -33.9752   25.0437 H   0  0  0  0  0  0
  -22.6982  -31.3038   21.4025 H   0  0  0  0  0  0
  -23.3724  -35.9676   23.3293 H   0  0  0  0  0  0
  -24.3585  -36.8956   22.2058 H   0  0  0  0  0  0
  -23.7267  -37.6535   23.6667 H   0  0  0  0  0  0
  -26.0460  -31.5750   20.5836 H   0  0  0  0  0  0
  -26.8246  -30.8861   21.9797 H   0  0  0  0  0  0
  -28.1087  -29.0920   21.1881 H   0  0  0  0  0  0
  -26.1024  -25.9557   19.0234 H   0  0  0  0  0  0
  -24.0028  -27.2701   19.0384 H   0  0  0  0  0  0
  -23.7282  -30.5776   19.4020 H   0  0  0  0  0  0
  -22.7427  -29.2272   19.8752 H   0  0  0  0  0  0
  -25.1269  -36.1940   25.0825 H   0  0  0  0  0  0
  -20.9958  -28.3242   24.1432 H   0  0  0  0  0  0
  -20.5666  -26.2284   23.3601 H   0  0  0  0  0  0
  -21.6640  -26.7442   22.1213 H   0  0  0  0  0  0
  -19.6914  -25.6301   21.1225 H   0  0  0  0  0  0
  -19.6676  -27.3200   20.6740 H   0  0  0  0  0  0
  -17.4195  -26.6669   21.4019 H   0  0  0  0  0  0
  -18.0326  -26.0044   22.8999 H   0  0  0  0  0  0
  -19.7936  -30.7254   24.2269 H   0  0  0  0  0  0
  -17.5020  -31.6261   24.5171 H   0  0  0  0  0  0
  -15.5353  -30.2989   23.7642 H   0  0  0  0  0  0
  -15.8664  -28.0822   22.7048 H   0  0  0  0  0  0
  -24.5889  -30.7065   25.7827 H   0  0  0  0  0  0
  -24.8960  -32.2860   26.4959 H   0  0  0  0  0  0
  -25.8112  -30.8846   27.0219 H   0  0  0  0  0  0
  -26.2868  -29.6775   24.1171 H   0  0  0  0  0  0
  -27.4099  -29.7278   25.4566 H   0  0  0  0  0  0
  -27.8685  -30.4350   23.9250 H   0  0  0  0  0  0
  -27.2647  -33.3603   26.2071 H   0  0  0  0  0  0
  -28.3835  -32.6888   25.0303 H   0  0  0  0  0  0
  -28.0713  -31.8433   26.5388 H   0  0  0  0  0  0
  -28.2575  -38.0111   24.7506 H   0  0  0  0  0  0
  -28.1082  -36.2648   24.6267 H   0  0  0  0  0  0
  -27.2306  -37.1437   25.8866 H   0  0  0  0  0  0
  -20.9311  -29.8748   21.6911 H   0  0  0  0  0  0
  -26.0161  -38.2860   24.1403 H   0  0  0  0  0  0
  -30.6561  -20.0045   25.1658 H   0  0  0  0  0  0
  -31.1854  -21.1124   23.9043 H   0  0  0  0  0  0
  -31.8565  -19.4845   23.9882 H   0  0  0  0  0  0
  -33.1708  -17.9123   21.7017 H   0  0  0  0  0  0
  -32.9530  -17.0676   20.1806 H   0  0  0  0  0  0
  -32.9937  -16.1792   21.7138 H   0  0  0  0  0  0
  -28.4899  -21.7339   22.1694 H   0  0  0  0  0  0
  -28.1774  -21.7374   20.4784 H   0  0  0  0  0  0
  -30.1513  -23.4052   20.2248 H   0  0  0  0  0  0
  -30.1603  -23.5047   21.9687 H   0  0  0  0  0  0
  -27.6484  -24.1599   21.8106 H   0  0  0  0  0  0
  -27.8302  -24.2291   20.0892 H   0  0  0  0  0  0
  -28.8960  -20.0940   23.4157 H   0  0  0  0  0  0
  -29.6094  -18.5241   23.4925 H   0  0  0  0  0  0
  -29.8723  -25.9370   21.2553 H   0  0  0  0  0  0
  -28.3882  -26.2862   22.0817 H   0  0  0  0  0  0
  -30.9731  -17.1923   22.4317 H   0  0  0  0  0  0
  1 25  1  0  0  0
  1 30  2  0  0  0
  1 81  1  0  0  0
  2  3  1  0  0  0
  2 25  1  0  0  0
  2 93  1  0  0  0
  2 94  1  0  0  0
  3  4  1  0  0  0
  3 95  1  0  0  0
  3 96  1  0  0  0
  4  5  1  0  0  0
  4 97  1  0  0  0
  4 98  1  0  0  0
  5  6  1  0  0  0
  5 26  1  0  0  0
  5 99  1  0  0  0
  6 25  1  0  0  0
  6100  1  0  0  0
  6101  1  0  0  0
  7  8  2  0  0  0
  7 26  1  0  0  0
  7 29  1  0  0  0
  8  9  1  0  0  0
  8 22  1  0  0  0
  9 10  1  0  0  0
  9 27  2  0  0  0
 10 11  2  0  0  0
 10 15  1  0  0  0
 11 12  1  0  0  0
 11102  1  0  0  0
 12 13  2  0  0  0
 12103  1  0  0  0
 13 14  1  0  0  0
 13 31  1  0  0  0
 14 15  2  0  0  0
 14104  1  0  0  0
 15105  1  0  0  0
 16 17  2  0  0  0
 16 21  1  0  0  0
 16 31  1  0  0  0
 17 18  1  0  0  0
 17106  1  0  0  0
 18 19  2  0  0  0
 18107  1  0  0  0
 19 20  1  0  0  0
 19 24  1  0  0  0
 20 21  2  0  0  0
 20108  1  0  0  0
 21 23  1  0  0  0
 22 28  1  0  0  0
 22 32  2  0  0  0
 26 27  1  0  0  0
 28109  1  0  0  0
 28110  1  0  0  0
 29111  1  0  0  0
 29112  1  0  0  0
 33 34  1  0  0  0
 33 66  1  0  0  0
 33 70  2  0  0  0
 34 36  1  0  0  0
 34 59  1  0  0  0
 34113  1  0  0  0
 35 44  2  0  0  0
 35 45  1  0  0  0
 35 68  1  0  0  0
 36 56  1  0  0  0
 36114  1  0  0  0
 37 39  1  0  0  0
 37 47  1  0  0  0
 37 66  1  0  0  0
 37115  1  0  0  0
 38 43  2  0  0  0
 38 46  1  0  0  0
 38 47  1  0  0  0
 39 64  1  0  0  0
 39 67  2  0  0  0
 40 52  1  0  0  0
 40 53  2  0  0  0
 40 58  1  0  0  0
 41116  1  0  0  0
 41117  1  0  0  0
 41118  1  0  0  0
 41 48  1  0  0  0
 42 43  1  0  0  0
 42 66  1  0  0  0
 42119  1  0  0  0
 42120  1  0  0  0
 43 44  1  0  0  0
 44121  1  0  0  0
 45 46  2  0  0  0
 45122  1  0  0  0
 46123  1  0  0  0
 47124  1  0  0  0
 47125  1  0  0  0
 48 56  1  0  0  0
 48 65  1  0  0  0
 48126  1  0  0  0
 49 50  1  0  0  0
 49 53  1  0  0  0
 49 64  1  0  0  0
 49127  1  0  0  0
 50 51  1  0  0  0
 50128  1  0  0  0
 50129  1  0  0  0
 51 52  1  0  0  0
 51130  1  0  0  0
 51131  1  0  0  0
 52132  1  0  0  0
 52133  1  0  0  0
 53 54  1  0  0  0
 54 55  2  0  0  0
 54134  1  0  0  0
 55 57  1  0  0  0
 55135  1  0  0  0
 56 69  2  0  0  0
 57 58  2  0  0  0
 57136  1  0  0  0
 58137  1  0  0  0
 59 60  1  0  0  0
 59 61  1  0  0  0
 59 62  1  0  0  0
 60138  1  0  0  0
 60139  1  0  0  0
 60140  1  0  0  0
 61141  1  0  0  0
 61142  1  0  0  0
 61143  1  0  0  0
 62144  1  0  0  0
 62145  1  0  0  0
 62146  1  0  0  0
 63 65  1  0  0  0
 63147  1  0  0  0
 63148  1  0  0  0
 63149  1  0  0  0
 64150  1  0  0  0
 65151  1  0  0  0
 68 79  1  0  0  0
 71 75  1  0  0  0
 71 84  2  0  0  0
 71 86  1  0  0  0
 72 80  1  0  0  0
 72 85  2  0  0  0
 72 86  1  0  0  0
 73 78  1  0  0  0
 73152  1  0  0  0
 73153  1  0  0  0
 73154  1  0  0  0
 74155  1  0  0  0
 74156  1  0  0  0
 74157  1  0  0  0
 74 80  1  0  0  0
 75 76  1  0  0  0
 75158  1  0  0  0
 75159  1  0  0  0
 76 77  1  0  0  0
 76160  1  0  0  0
 76161  1  0  0  0
 77 79  1  0  0  0
 77162  1  0  0  0
 77163  1  0  0  0
 78 86  1  0  0  0
 78164  1  0  0  0
 78165  1  0  0  0
 79166  1  0  0  0
 79167  1  0  0  0
 80 81  1  0  0  0
 80168  1  0  0  0
 81 82  1  0  0  0
 81 83  1  0  0  0
 82 87  1  0  0  0
 82 88  1  0  0  0
 82 89  1  0  0  0
 83 90  1  0  0  0
 83 91  1  0  0  0
 83 92  1  0  0  0
 84 85  1  0  0  0
M  ISO  4   1 100  68 101  79 101  81 100
M  END
> <chiral flag>
0

> <version>
0

> <s_m_source_file>
/data/baiqing/PycharmProjects/Reinvent-master-3.2/result/LINK_invent/BTK/process_docking_weight1_custom_sum_contain_oxygen_bond_distance_aromatic_linkinvent_7_9_3/rearranged_h_0071.sdf

> <i_m_source_file_index>
19

> <r_mmod_Potential_Energy-OPLS-2005>
153.934692382812

> <r_mmod_Stretch_Energy-OPLS-2005>
80.1744003295898

> <r_mmod_Bend_Energy-OPLS-2005>
182.731414794922

> <r_mmod_Torsional_Energy-OPLS-2005>
226.803192138672

> <r_mmod_Improper_Torsional_Energy-OPLS-2005>
7.8693265914917

> <r_mmod_Van_der_Waal_Energy-OPLS-2005>
176.004302978516

> <r_mmod_Electrostatic_Energy-OPLS-2005>
-359.454711914062

> <r_mmod_Solvation_Energy-OPLS-2005>
-196.586273193359

> <b_mmod_Minimization_Converged-OPLS-2005>
0

> <r_mmod_RMS_Derivative-OPLS-2005>
2.0613796710968

$$$$
19
                    3D
 Structure written by MMmdl.
169177  0  0  1  0            999 V2000
  -30.5118  -15.0156   20.4303 C   0  0  0  0  0  0
  -30.4341  -12.6280   19.5303 C   0  0  0  0  0  0
  -29.5293  -12.5574   18.2771 C   0  0  0  0  0  0
  -28.0623  -12.3297   18.6839 C   0  0  0  0  0  0
  -27.6261  -13.2600   19.8466 C   0  0  2  0  0  0
  -28.6602  -13.3072   20.9920 C   0  0  0  0  0  0
  -25.2416  -13.8228   20.5711 C   0  0  0  0  0  0
  -24.1747  -13.0438   20.9219 C   0  0  0  0  0  0
  -24.6381  -11.6926   20.8743 C   0  0  0  0  0  0
  -23.9082  -10.4288   21.0394 C   0  0  0  0  0  0
  -24.3626   -9.4207   21.9184 C   0  0  0  0  0  0
  -23.6290   -8.2247   22.0756 C   0  0  0  0  0  0
  -22.4275   -8.0279   21.3539 C   0  0  0  0  0  0
  -21.9912   -9.0254   20.4645 C   0  0  0  0  0  0
  -22.7244  -10.2132   20.3050 C   0  0  0  0  0  0
  -21.6852   -6.0728   22.5271 C   0  0  0  0  0  0
  -21.4018   -6.5634   23.8203 C   0  0  0  0  0  0
  -21.3661   -5.6792   24.9167 C   0  0  0  0  0  0
  -21.6048   -4.3055   24.7223 C   0  0  0  0  0  0
  -21.8818   -3.8139   23.4344 C   0  0  0  0  0  0
  -21.9195   -4.6955   22.3398 C   0  0  0  0  0  0
  -22.7766  -13.5202   21.1886 C   0  0  0  0  0  0
  -22.1660   -4.2141   21.0974 F   0  0  0  0  0  0
  -21.5634   -3.4540   25.7737 F   0  0  0  0  0  0
  -29.9373  -13.7366   20.4066 N   0  0  0  0  0  0
  -26.2859  -12.9493   20.3274 N   0  0  0  0  0  0
  -25.9325  -11.6612   20.5741 N   0  0  0  0  0  0
  -22.0447  -12.8171   22.0452 N   0  0  0  0  0  0
  -25.4023  -15.1960   20.4129 N   0  0  0  0  0  0
  -31.6973  -15.0843   20.0900 O   0  0  0  0  0  0
  -21.6638   -6.8872   21.4231 O   0  0  0  0  0  0
  -22.3434  -14.5503   20.6732 O   0  0  0  0  0  0
  -24.6490  -31.8377   23.1835 C   0  0  0  0  0  0
  -25.9226  -32.4672   23.8264 C   0  0  1  0  0  0
  -27.2177  -27.0767   20.1845 C   0  0  0  0  0  0
  -25.5932  -33.8485   24.2152 N   0  0  0  0  0  0
  -23.4587  -30.4534   21.5283 C   0  0  2  0  0  0
  -24.9155  -28.8711   20.1119 C   0  0  0  0  0  0
  -22.7610  -29.4486   22.4822 C   0  0  0  0  0  0
  -18.0305  -28.1396   22.8473 C   0  0  0  0  0  0
  -24.1483  -36.7245   23.2649 C   0  0  0  0  0  0
  -26.0197  -30.6951   21.3956 C   0  0  0  0  0  0
  -26.0930  -29.2991   20.7420 C   0  0  0  0  0  0
  -27.2470  -28.4184   20.7577 C   0  0  0  0  0  0
  -26.0205  -26.7689   19.5034 C   0  0  0  0  0  0
  -24.8954  -27.6223   19.4731 C   0  0  0  0  0  0
  -23.6929  -29.7788   20.1495 C   0  0  0  0  0  0
  -25.4121  -36.3010   24.0303 C   0  0  1  0  0  0
  -20.5929  -28.3719   23.1220 C   0  0  2  0  0  0
  -20.6796  -26.9417   22.5398 C   0  0  0  0  0  0
  -19.5768  -26.6375   21.5215 C   0  0  0  0  0  0
  -18.1938  -26.7935   22.1612 C   0  0  0  0  0  0
  -19.1572  -28.8877   23.2829 C   0  0  0  0  0  0
  -18.9483  -30.1468   23.8866 C   0  0  0  0  0  0
  -17.6484  -30.6592   24.0561 C   0  0  0  0  0  0
  -25.9079  -34.9381   23.5043 C   0  0  0  0  0  0
  -16.5367  -29.9089   23.6346 C   0  0  0  0  0  0
  -16.7288  -28.6504   23.0375 C   0  0  0  0  0  0
  -26.4516  -31.6588   25.0750 C   0  0  0  0  0  0
  -25.3654  -31.3772   26.1403 C   0  0  0  0  0  0
  -27.0422  -30.2983   24.6388 C   0  0  0  0  0  0
  -27.6034  -32.4372   25.7526 C   0  0  0  0  0  0
  -27.5570  -37.1764   24.8456 C   0  0  0  0  0  0
  -21.4297  -29.3035   22.3584 N   0  0  0  0  0  0
  -26.4280  -37.3725   23.9400 N   0  0  0  0  0  0
  -24.7289  -31.0185   22.0895 N   0  0  0  0  0  0
  -23.4221  -28.8022   23.2984 O   0  0  0  0  0  0
  -28.2396  -26.0424   20.2176 O   0  0  0  0  0  0
  -26.5697  -34.8888   22.4649 O   0  0  0  0  0  0
  -23.5584  -32.1291   23.7007 O   0  0  0  0  0  0
  -29.1102  -22.5577   19.2584 C   0  0  0  0  0  0
  -28.5411  -23.0911   20.4008 C   0  0  0  0  0  0
  -29.0355  -20.7063   20.6329 C   0  0  0  0  0  0
  -27.8602  -18.5792   21.5987 C   0  0  0  0  0  0
  -30.1926  -19.0851   22.3579 C   0  0  0  0  0  0
  -26.1377  -23.4842   23.4351 C   0  0  0  0  0  0
  -25.6230  -21.6679   21.7656 C   0  0  0  0  0  0
  -26.1842  -21.1424   24.1601 C   0  0  0  0  0  0
  -27.8965  -24.5946   20.7377 C   0  0  0  0  0  0
  -28.0557  -21.9443   22.6460 C   0  0  0  0  0  0
  -29.8545  -17.7628   20.2436 C   0  0  0  0  0  0
  -29.2364  -19.0905   21.1421 C   0  0  0  0  0  0
  -26.5190  -22.0598   22.9604 C   0  0  0  0  0  0
  -28.5186  -21.8953   21.2289 N   0  0  0  0  0  0
  -29.3849  -21.1933   19.4277 N   0  3  0  0  0  0
  -29.7277  -16.2035   20.6380 N   0  0  0  0  0  0
  -31.4728  -12.7752   19.2338 H   0  0  0  0  0  0
  -30.4130  -11.6783   20.0675 H   0  0  0  0  0  0
  -29.8609  -11.7624   17.6095 H   0  0  0  0  0  0
  -29.6121  -13.4879   17.7136 H   0  0  0  0  0  0
  -27.9623  -11.2874   18.9908 H   0  0  0  0  0  0
  -27.4010  -12.4595   17.8253 H   0  0  0  0  0  0
  -27.5851  -14.2601   19.4166 H   0  0  0  0  0  0
  -28.7529  -12.3349   21.4789 H   0  0  0  0  0  0
  -28.3428  -14.0060   21.7666 H   0  0  0  0  0  0
  -25.2765   -9.5690   22.4769 H   0  0  0  0  0  0
  -23.9992   -7.4645   22.7485 H   0  0  0  0  0  0
  -21.0843   -8.8774   19.8959 H   0  0  0  0  0  0
  -22.3689  -10.9673   19.6167 H   0  0  0  0  0  0
  -21.2007   -7.6145   23.9699 H   0  0  0  0  0  0
  -21.1487   -6.0526   25.9071 H   0  0  0  0  0  0
  -22.0597   -2.7601   23.2847 H   0  0  0  0  0  0
  -22.4067  -11.9825   22.4823 H   0  0  0  0  0  0
  -21.1078  -13.1183   22.2713 H   0  0  0  0  0  0
  -24.6185  -15.8343   20.4948 H   0  0  0  0  0  0
  -26.2418  -15.6451   20.0715 H   0  0  0  0  0  0
  -26.7314  -32.5263   23.1004 H   0  0  0  0  0  0
  -25.0009  -33.9589   25.0246 H   0  0  0  0  0  0
  -22.7645  -31.2800   21.3681 H   0  0  0  0  0  0
  -23.3750  -35.9568   23.3286 H   0  0  0  0  0  0
  -24.3559  -36.8929   22.2070 H   0  0  0  0  0  0
  -23.7230  -37.6418   23.6730 H   0  0  0  0  0  0
  -26.1834  -31.4463   20.6217 H   0  0  0  0  0  0
  -26.8851  -30.7503   22.0452 H   0  0  0  0  0  0
  -28.1427  -28.7353   21.2738 H   0  0  0  0  0  0
  -25.9374  -25.8146   19.0034 H   0  0  0  0  0  0
  -24.0002  -27.2944   18.9611 H   0  0  0  0  0  0
  -23.8353  -30.5517   19.3935 H   0  0  0  0  0  0
  -22.8095  -29.2212   19.8359 H   0  0  0  0  0  0
  -25.1303  -36.1842   25.0795 H   0  0  0  0  0  0
  -21.0011  -28.3329   24.1355 H   0  0  0  0  0  0
  -20.5708  -26.2327   23.3618 H   0  0  0  0  0  0
  -21.6657  -26.7439   22.1185 H   0  0  0  0  0  0
  -19.6943  -25.6280   21.1270 H   0  0  0  0  0  0
  -19.6730  -27.3170   20.6728 H   0  0  0  0  0  0
  -17.4220  -26.6694   21.4003 H   0  0  0  0  0  0
  -18.0317  -26.0080   22.9009 H   0  0  0  0  0  0
  -19.7966  -30.7271   24.2247 H   0  0  0  0  0  0
  -17.5049  -31.6280   24.5139 H   0  0  0  0  0  0
  -15.5366  -30.2981   23.7704 H   0  0  0  0  0  0
  -15.8685  -28.0809   22.7135 H   0  0  0  0  0  0
  -24.5873  -30.7093   25.7682 H   0  0  0  0  0  0
  -24.8790  -32.2941   26.4744 H   0  0  0  0  0  0
  -25.7897  -30.8996   27.0247 H   0  0  0  0  0  0
  -26.3088  -29.6640   24.1388 H   0  0  0  0  0  0
  -27.4012  -29.7347   25.5008 H   0  0  0  0  0  0
  -27.8988  -30.4209   23.9749 H   0  0  0  0  0  0
  -27.2656  -33.3732   26.1979 H   0  0  0  0  0  0
  -28.3898  -32.6829   25.0384 H   0  0  0  0  0  0
  -28.0632  -31.8577   26.5538 H   0  0  0  0  0  0
  -28.2534  -38.0108   24.7542 H   0  0  0  0  0  0
  -28.1110  -36.2626   24.6244 H   0  0  0  0  0  0
  -27.2280  -37.1371   25.8855 H   0  0  0  0  0  0
  -20.9530  -29.8764   21.6772 H   0  0  0  0  0  0
  -26.0140  -38.2776   24.1460 H   0  0  0  0  0  0
  -29.3223  -23.0533   18.3223 H   0  0  0  0  0  0
  -27.4195  -19.2243   22.3467 H   0  0  0  0  0  0
  -27.9230  -17.5902   22.0529 H   0  0  0  0  0  0
  -27.1630  -18.5199   20.7630 H   0  0  0  0  0  0
  -29.8090  -19.5816   23.2415 H   0  0  0  0  0  0
  -31.1456  -19.5545   22.1106 H   0  0  0  0  0  0
  -30.4131  -18.0670   22.6823 H   0  0  0  0  0  0
  -25.1668  -23.4931   23.9336 H   0  0  0  0  0  0
  -26.0406  -24.2040   22.6288 H   0  0  0  0  0  0
  -26.8571  -23.8792   24.1538 H   0  0  0  0  0  0
  -24.5766  -21.5982   22.0629 H   0  0  0  0  0  0
  -25.8959  -20.7013   21.3433 H   0  0  0  0  0  0
  -25.6691  -22.3996   20.9596 H   0  0  0  0  0  0
  -25.1474  -21.2568   24.4804 H   0  0  0  0  0  0
  -26.8122  -21.3697   25.0227 H   0  0  0  0  0  0
  -26.3139  -20.0862   23.9409 H   0  0  0  0  0  0
  -28.0305  -24.7146   21.8118 H   0  0  0  0  0  0
  -26.8249  -24.4638   20.5977 H   0  0  0  0  0  0
  -28.4376  -21.0686   23.1467 H   0  0  0  0  0  0
  -28.6037  -22.7580   23.1228 H   0  0  0  0  0  0
  -30.9119  -17.9517   20.0532 H   0  0  0  0  0  0
  -29.3909  -17.8286   19.2579 H   0  0  0  0  0  0
  -29.8070  -20.6214   18.7076 H   0  0  0  0  0  0
  -28.8025  -15.9719   20.9672 H   0  0  0  0  0  0
  1 25  1  0  0  0
  1 30  2  0  0  0
  1 86  1  0  0  0
  2  3  1  0  0  0
  2 25  1  0  0  0
  2 87  1  0  0  0
  2 88  1  0  0  0
  3  4  1  0  0  0
  3 89  1  0  0  0
  3 90  1  0  0  0
  4  5  1  0  0  0
  4 91  1  0  0  0
  4 92  1  0  0  0
  5  6  1  0  0  0
  5 26  1  0  0  0
  5 93  1  0  0  0
  6 25  1  0  0  0
  6 94  1  0  0  0
  6 95  1  0  0  0
  7  8  2  0  0  0
  7 26  1  0  0  0
  7 29  1  0  0  0
  8  9  1  0  0  0
  8 22  1  0  0  0
  9 10  1  0  0  0
  9 27  2  0  0  0
 10 11  2  0  0  0
 10 15  1  0  0  0
 11 12  1  0  0  0
 11 96  1  0  0  0
 12 13  2  0  0  0
 12 97  1  0  0  0
 13 14  1  0  0  0
 13 31  1  0  0  0
 14 15  2  0  0  0
 14 98  1  0  0  0
 15 99  1  0  0  0
 16 17  2  0  0  0
 16 21  1  0  0  0
 16 31  1  0  0  0
 17 18  1  0  0  0
 17100  1  0  0  0
 18 19  2  0  0  0
 18101  1  0  0  0
 19 20  1  0  0  0
 19 24  1  0  0  0
 20 21  2  0  0  0
 20102  1  0  0  0
 21 23  1  0  0  0
 22 28  1  0  0  0
 22 32  2  0  0  0
 26 27  1  0  0  0
 28103  1  0  0  0
 28104  1  0  0  0
 29105  1  0  0  0
 29106  1  0  0  0
 33 34  1  0  0  0
 33 66  1  0  0  0
 33 70  2  0  0  0
 34 36  1  0  0  0
 34 59  1  0  0  0
 34107  1  0  0  0
 35 44  2  0  0  0
 35 45  1  0  0  0
 35 68  1  0  0  0
 36 56  1  0  0  0
 36108  1  0  0  0
 37 39  1  0  0  0
 37 47  1  0  0  0
 37 66  1  0  0  0
 37109  1  0  0  0
 38 43  2  0  0  0
 38 46  1  0  0  0
 38 47  1  0  0  0
 39 64  1  0  0  0
 39 67  2  0  0  0
 40 52  1  0  0  0
 40 53  2  0  0  0
 40 58  1  0  0  0
 41110  1  0  0  0
 41111  1  0  0  0
 41112  1  0  0  0
 41 48  1  0  0  0
 42 43  1  0  0  0
 42 66  1  0  0  0
 42113  1  0  0  0
 42114  1  0  0  0
 43 44  1  0  0  0
 44115  1  0  0  0
 45 46  2  0  0  0
 45116  1  0  0  0
 46117  1  0  0  0
 47118  1  0  0  0
 47119  1  0  0  0
 48 56  1  0  0  0
 48 65  1  0  0  0
 48120  1  0  0  0
 49 50  1  0  0  0
 49 53  1  0  0  0
 49 64  1  0  0  0
 49121  1  0  0  0
 50 51  1  0  0  0
 50122  1  0  0  0
 50123  1  0  0  0
 51 52  1  0  0  0
 51124  1  0  0  0
 51125  1  0  0  0
 52126  1  0  0  0
 52127  1  0  0  0
 53 54  1  0  0  0
 54 55  2  0  0  0
 54128  1  0  0  0
 55 57  1  0  0  0
 55129  1  0  0  0
 56 69  2  0  0  0
 57 58  2  0  0  0
 57130  1  0  0  0
 58131  1  0  0  0
 59 60  1  0  0  0
 59 61  1  0  0  0
 59 62  1  0  0  0
 60132  1  0  0  0
 60133  1  0  0  0
 60134  1  0  0  0
 61135  1  0  0  0
 61136  1  0  0  0
 61137  1  0  0  0
 62138  1  0  0  0
 62139  1  0  0  0
 62140  1  0  0  0
 63 65  1  0  0  0
 63141  1  0  0  0
 63142  1  0  0  0
 63143  1  0  0  0
 64144  1  0  0  0
 65145  1  0  0  0
 68 79  1  0  0  0
 71 72  2  0  0  0
 71 85  1  0  0  0
 71146  1  0  0  0
 72 79  1  0  0  0
 72 84  1  0  0  0
 73 82  1  0  0  0
 73 84  1  0  0  0
 73 85  2  0  0  0
 74147  1  0  0  0
 74148  1  0  0  0
 74149  1  0  0  0
 74 82  1  0  0  0
 75 82  1  0  0  0
 75150  1  0  0  0
 75151  1  0  0  0
 75152  1  0  0  0
 76153  1  0  0  0
 76154  1  0  0  0
 76155  1  0  0  0
 76 83  1  0  0  0
 77 83  1  0  0  0
 77156  1  0  0  0
 77157  1  0  0  0
 77158  1  0  0  0
 78 83  1  0  0  0
 78159  1  0  0  0
 78160  1  0  0  0
 78161  1  0  0  0
 79162  1  0  0  0
 79163  1  0  0  0
 80 83  1  0  0  0
 80 84  1  0  0  0
 80164  1  0  0  0
 80165  1  0  0  0
 81 82  1  0  0  0
 81 86  1  0  0  0
 81166  1  0  0  0
 81167  1  0  0  0
 85168  1  0  0  0
 86169  1  0  0  0
M  CHG  1  85   1
M  ISO  4   1 100  68 101  79 101  86 100
M  END
> <chiral flag>
0

> <version>
0

> <s_m_source_file>
/data/baiqing/PycharmProjects/Reinvent-master-3.2/result/LINK_invent/BTK/process_docking_weight1_custom_sum_contain_oxygen_bond_distance_aromatic_linkinvent_7_9_3/rearranged_h_0071.sdf

> <i_m_source_file_index>
20

> <r_mmod_Potential_Energy-OPLS-2005>
629.566101074219

> <r_mmod_Stretch_Energy-OPLS-2005>
347.26904296875

> <r_mmod_Bend_Energy-OPLS-2005>
315.238647460938

> <r_mmod_Torsional_Energy-OPLS-2005>
283.839050292969

> <r_mmod_Improper_Torsional_Energy-OPLS-2005>
5.15246438980103

> <r_mmod_Van_der_Waal_Energy-OPLS-2005>
111.035820007324

> <r_mmod_Electrostatic_Energy-OPLS-2005>
-262.921875

> <r_mmod_Solvation_Energy-OPLS-2005>
-417.374176025391

> <b_mmod_Minimization_Converged-OPLS-2005>
0

> <r_mmod_RMS_Derivative-OPLS-2005>
2.68273019790649

$$$$
20
                    3D
 Structure written by MMmdl.
162170  0  0  1  0            999 V2000
  -30.7015  -14.5142   20.5738 C   0  0  0  0  0  0
  -30.4180  -12.3365   19.4257 C   0  0  0  0  0  0
  -29.4919  -12.5047   18.2051 C   0  0  0  0  0  0
  -28.0160  -12.3562   18.6221 C   0  0  0  0  0  0
  -27.6550  -13.2130   19.8662 C   0  0  2  0  0  0
  -28.6980  -13.0286   20.9898 C   0  0  0  0  0  0
  -25.2570  -13.8164   20.5684 C   0  0  0  0  0  0
  -24.1831  -13.0428   20.9181 C   0  0  0  0  0  0
  -24.6391  -11.6899   20.8735 C   0  0  0  0  0  0
  -23.9057  -10.4286   21.0407 C   0  0  0  0  0  0
  -24.3610   -9.4207   21.9182 C   0  0  0  0  0  0
  -23.6287   -8.2244   22.0755 C   0  0  0  0  0  0
  -22.4270   -8.0278   21.3549 C   0  0  0  0  0  0
  -21.9904   -9.0251   20.4651 C   0  0  0  0  0  0
  -22.7228  -10.2128   20.3058 C   0  0  0  0  0  0
  -21.6855   -6.0733   22.5279 C   0  0  0  0  0  0
  -21.4019   -6.5637   23.8213 C   0  0  0  0  0  0
  -21.3658   -5.6789   24.9172 C   0  0  0  0  0  0
  -21.6045   -4.3054   24.7227 C   0  0  0  0  0  0
  -21.8817   -3.8144   23.4343 C   0  0  0  0  0  0
  -21.9191   -4.6962   22.3403 C   0  0  0  0  0  0
  -22.7861  -13.5232   21.1835 C   0  0  0  0  0  0
  -22.1661   -4.2149   21.0981 F   0  0  0  0  0  0
  -21.5627   -3.4532   25.7735 F   0  0  0  0  0  0
  -30.0188  -13.3435   20.4245 N   0  0  0  0  0  0
  -26.2999  -12.9345   20.3343 N   0  0  0  0  0  0
  -25.9319  -11.6497   20.5760 N   0  0  0  0  0  0
  -22.0494  -12.8249   22.0405 N   0  0  0  0  0  0
  -25.4274  -15.1881   20.4098 N   0  0  0  0  0  0
  -31.8375  -14.6531   20.1147 O   0  0  0  0  0  0
  -21.6640   -6.8874   21.4240 O   0  0  0  0  0  0
  -22.3558  -14.5531   20.6662 O   0  0  0  0  0  0
  -24.6162  -31.8661   23.2066 C   0  0  0  0  0  0
  -25.9047  -32.4814   23.8365 C   0  0  1  0  0  0
  -27.2329  -27.4022   20.0922 C   0  0  0  0  0  0
  -25.5908  -33.8609   24.2318 N   0  0  0  0  0  0
  -23.4053  -30.4866   21.5481 C   0  0  2  0  0  0
  -24.8497  -28.9463   20.1129 C   0  0  0  0  0  0
  -22.7408  -29.4646   22.4994 C   0  0  0  0  0  0
  -18.0268  -28.1351   22.8489 C   0  0  0  0  0  0
  -24.1488  -36.7306   23.2633 C   0  0  0  0  0  0
  -25.9361  -30.8178   21.3650 C   0  0  0  0  0  0
  -26.0095  -29.4482   20.7151 C   0  0  0  0  0  0
  -27.1996  -28.6814   20.7043 C   0  0  0  0  0  0
  -26.0497  -26.9197   19.4893 C   0  0  0  0  0  0
  -24.8663  -27.6825   19.4992 C   0  0  0  0  0  0
  -23.6123  -29.8143   20.1645 C   0  0  0  0  0  0
  -25.4107  -36.3110   24.0340 C   0  0  1  0  0  0
  -20.5862  -28.3646   23.1326 C   0  0  2  0  0  0
  -20.6777  -26.9395   22.5394 C   0  0  0  0  0  0
  -19.5750  -26.6381   21.5189 C   0  0  0  0  0  0
  -18.1931  -26.7908   22.1603 C   0  0  0  0  0  0
  -19.1518  -28.8814   23.2904 C   0  0  0  0  0  0
  -18.9444  -30.1425   23.8913 C   0  0  0  0  0  0
  -17.6445  -30.6573   24.0548 C   0  0  0  0  0  0
  -25.9038  -34.9471   23.5127 C   0  0  0  0  0  0
  -16.5338  -29.9061   23.6310 C   0  0  0  0  0  0
  -16.7257  -28.6468   23.0356 C   0  0  0  0  0  0
  -26.4471  -31.6587   25.0696 C   0  0  0  0  0  0
  -25.3731  -31.3682   26.1442 C   0  0  0  0  0  0
  -27.0303  -30.3030   24.6068 C   0  0  0  0  0  0
  -27.6054  -32.4292   25.7467 C   0  0  0  0  0  0
  -27.5583  -37.1804   24.8466 C   0  0  0  0  0  0
  -21.4129  -29.3047   22.3761 N   0  0  0  0  0  0
  -26.4299  -37.3790   23.9411 N   0  0  0  0  0  0
  -24.6710  -31.0719   22.0985 N   0  0  0  0  0  0
  -23.4178  -28.8178   23.3029 O   0  0  0  0  0  0
  -28.4159  -26.6809   20.1129 O   0  0  0  0  0  0
  -26.5600  -34.8926   22.4691 O   0  0  0  0  0  0
  -23.5350  -32.1423   23.7455 O   0  0  0  0  0  0
  -28.3599  -20.0049   22.1664 C   0  0  0  0  0  0
  -28.9615  -18.7727   22.4793 C   0  0  0  0  0  0
  -28.4184  -20.5136   20.8550 C   0  0  0  0  0  0
  -29.6165  -18.0311   21.4719 C   0  0  0  0  0  0
  -29.0287  -19.6690   19.8837 C   0  0  0  0  0  0
  -29.0535  -20.0263   18.4114 C   0  0  0  0  0  0
  -30.5233  -16.4884   23.3203 C   0  0  0  0  0  0
  -31.9598  -17.1861   21.4380 C   0  0  0  0  0  0
  -28.0181  -24.1800   20.3636 C   0  0  0  0  0  0
  -28.5218  -25.3740   19.5009 C   0  0  0  0  0  0
  -28.4479  -22.7671   19.8582 C   0  0  0  0  0  0
  -30.5068  -16.7917   21.8036 C   0  0  0  0  0  0
  -29.5965  -18.4670   20.1865 N   0  0  0  0  0  0
  -30.0300  -15.5274   21.1734 N   0  0  0  0  0  0
  -27.8047  -21.7428   20.6356 O   0  0  0  0  0  0
  -31.4619  -12.4306   19.1237 H   0  0  0  0  0  0
  -30.3215  -11.3334   19.8439 H   0  0  0  0  0  0
  -29.7403  -11.7690   17.4392 H   0  0  0  0  0  0
  -29.6515  -13.4844   17.7514 H   0  0  0  0  0  0
  -27.8406  -11.3012   18.8361 H   0  0  0  0  0  0
  -27.3611  -12.6072   17.7870 H   0  0  0  0  0  0
  -27.6863  -14.2561   19.5492 H   0  0  0  0  0  0
  -28.6894  -12.0003   21.3533 H   0  0  0  0  0  0
  -28.4531  -13.6465   21.8549 H   0  0  0  0  0  0
  -25.2749   -9.5687   22.4764 H   0  0  0  0  0  0
  -23.9992   -7.4642   22.7477 H   0  0  0  0  0  0
  -21.0833   -8.8764   19.8963 H   0  0  0  0  0  0
  -22.3679  -10.9665   19.6173 H   0  0  0  0  0  0
  -21.2018   -7.6145   23.9716 H   0  0  0  0  0  0
  -21.1485   -6.0520   25.9077 H   0  0  0  0  0  0
  -22.0598   -2.7606   23.2842 H   0  0  0  0  0  0
  -22.4096  -11.9908   22.4805 H   0  0  0  0  0  0
  -21.1118  -13.1304   22.2596 H   0  0  0  0  0  0
  -24.6544  -15.8363   20.5147 H   0  0  0  0  0  0
  -26.2759  -15.6341   20.0847 H   0  0  0  0  0  0
  -26.7115  -32.5526   23.1122 H   0  0  0  0  0  0
  -25.0079  -33.9755   25.0482 H   0  0  0  0  0  0
  -22.6962  -31.3055   21.4057 H   0  0  0  0  0  0
  -23.3760  -35.9632   23.3306 H   0  0  0  0  0  0
  -24.3576  -36.8902   22.2041 H   0  0  0  0  0  0
  -23.7237  -37.6508   23.6644 H   0  0  0  0  0  0
  -26.0519  -31.5800   20.5929 H   0  0  0  0  0  0
  -26.8245  -30.8737   21.9823 H   0  0  0  0  0  0
  -28.0966  -29.0656   21.1702 H   0  0  0  0  0  0
  -26.0169  -25.9545   19.0077 H   0  0  0  0  0  0
  -23.9740  -27.2897   19.0317 H   0  0  0  0  0  0
  -23.7173  -30.5856   19.4010 H   0  0  0  0  0  0
  -22.7365  -29.2287   19.8764 H   0  0  0  0  0  0
  -25.1286  -36.1969   25.0835 H   0  0  0  0  0  0
  -20.9946  -28.3191   24.1448 H   0  0  0  0  0  0
  -20.5678  -26.2233   23.3555 H   0  0  0  0  0  0
  -21.6647  -26.7446   22.1176 H   0  0  0  0  0  0
  -19.6910  -25.6296   21.1206 H   0  0  0  0  0  0
  -19.6691  -27.3220   20.6743 H   0  0  0  0  0  0
  -17.4196  -26.6657   21.4007 H   0  0  0  0  0  0
  -18.0351  -26.0013   22.8973 H   0  0  0  0  0  0
  -19.7917  -30.7225   24.2317 H   0  0  0  0  0  0
  -17.4987  -31.6257   24.5140 H   0  0  0  0  0  0
  -15.5330  -30.2960   23.7627 H   0  0  0  0  0  0
  -15.8650  -28.0781   22.7084 H   0  0  0  0  0  0
  -24.5927  -30.7003   25.7777 H   0  0  0  0  0  0
  -24.8889  -32.2826   26.4876 H   0  0  0  0  0  0
  -25.8072  -30.8867   27.0215 H   0  0  0  0  0  0
  -26.2842  -29.6804   24.1111 H   0  0  0  0  0  0
  -27.4068  -29.7244   25.4515 H   0  0  0  0  0  0
  -27.8689  -30.4352   23.9225 H   0  0  0  0  0  0
  -27.2691  -33.3589   26.2064 H   0  0  0  0  0  0
  -28.3861  -32.6837   25.0291 H   0  0  0  0  0  0
  -28.0739  -31.8402   26.5358 H   0  0  0  0  0  0
  -28.2605  -38.0091   24.7521 H   0  0  0  0  0  0
  -28.1073  -36.2627   24.6303 H   0  0  0  0  0  0
  -27.2301  -37.1470   25.8865 H   0  0  0  0  0  0
  -20.9275  -29.8782   21.7000 H   0  0  0  0  0  0
  -26.0193  -38.2876   24.1394 H   0  0  0  0  0  0
  -27.8744  -20.5776   22.9430 H   0  0  0  0  0  0
  -28.9387  -18.4508   23.5090 H   0  0  0  0  0  0
  -28.0783  -20.3906   18.0902 H   0  0  0  0  0  0
  -29.2973  -19.1580   17.7986 H   0  0  0  0  0  0
  -29.8016  -20.7931   18.2155 H   0  0  0  0  0  0
  -30.8943  -17.3356   23.8982 H   0  0  0  0  0  0
  -31.1734  -15.6457   23.5553 H   0  0  0  0  0  0
  -29.5296  -16.2388   23.6944 H   0  0  0  0  0  0
  -32.2450  -18.1146   21.9350 H   0  0  0  0  0  0
  -32.0768  -17.3496   20.3659 H   0  0  0  0  0  0
  -32.6853  -16.4327   21.7445 H   0  0  0  0  0  0
  -26.9312  -24.2225   20.4280 H   0  0  0  0  0  0
  -28.3843  -24.3058   21.3821 H   0  0  0  0  0  0
  -29.5876  -25.2251   19.3257 H   0  0  0  0  0  0
  -28.0733  -25.3616   18.5063 H   0  0  0  0  0  0
  -29.5332  -22.6690   19.9114 H   0  0  0  0  0  0
  -28.1613  -22.6580   18.8119 H   0  0  0  0  0  0
  -29.0575  -15.3305   21.3509 H   0  0  0  0  0  0
  1 25  1  0  0  0
  1 30  2  0  0  0
  1 84  1  0  0  0
  2  3  1  0  0  0
  2 25  1  0  0  0
  2 86  1  0  0  0
  2 87  1  0  0  0
  3  4  1  0  0  0
  3 88  1  0  0  0
  3 89  1  0  0  0
  4  5  1  0  0  0
  4 90  1  0  0  0
  4 91  1  0  0  0
  5  6  1  0  0  0
  5 26  1  0  0  0
  5 92  1  0  0  0
  6 25  1  0  0  0
  6 93  1  0  0  0
  6 94  1  0  0  0
  7  8  2  0  0  0
  7 26  1  0  0  0
  7 29  1  0  0  0
  8  9  1  0  0  0
  8 22  1  0  0  0
  9 10  1  0  0  0
  9 27  2  0  0  0
 10 11  2  0  0  0
 10 15  1  0  0  0
 11 12  1  0  0  0
 11 95  1  0  0  0
 12 13  2  0  0  0
 12 96  1  0  0  0
 13 14  1  0  0  0
 13 31  1  0  0  0
 14 15  2  0  0  0
 14 97  1  0  0  0
 15 98  1  0  0  0
 16 17  2  0  0  0
 16 21  1  0  0  0
 16 31  1  0  0  0
 17 18  1  0  0  0
 17 99  1  0  0  0
 18 19  2  0  0  0
 18100  1  0  0  0
 19 20  1  0  0  0
 19 24  1  0  0  0
 20 21  2  0  0  0
 20101  1  0  0  0
 21 23  1  0  0  0
 22 28  1  0  0  0
 22 32  2  0  0  0
 26 27  1  0  0  0
 28102  1  0  0  0
 28103  1  0  0  0
 29104  1  0  0  0
 29105  1  0  0  0
 33 34  1  0  0  0
 33 66  1  0  0  0
 33 70  2  0  0  0
 34 36  1  0  0  0
 34 59  1  0  0  0
 34106  1  0  0  0
 35 44  2  0  0  0
 35 45  1  0  0  0
 35 68  1  0  0  0
 36 56  1  0  0  0
 36107  1  0  0  0
 37 39  1  0  0  0
 37 47  1  0  0  0
 37 66  1  0  0  0
 37108  1  0  0  0
 38 43  2  0  0  0
 38 46  1  0  0  0
 38 47  1  0  0  0
 39 64  1  0  0  0
 39 67  2  0  0  0
 40 52  1  0  0  0
 40 53  2  0  0  0
 40 58  1  0  0  0
 41109  1  0  0  0
 41110  1  0  0  0
 41111  1  0  0  0
 41 48  1  0  0  0
 42 43  1  0  0  0
 42 66  1  0  0  0
 42112  1  0  0  0
 42113  1  0  0  0
 43 44  1  0  0  0
 44114  1  0  0  0
 45 46  2  0  0  0
 45115  1  0  0  0
 46116  1  0  0  0
 47117  1  0  0  0
 47118  1  0  0  0
 48 56  1  0  0  0
 48 65  1  0  0  0
 48119  1  0  0  0
 49 50  1  0  0  0
 49 53  1  0  0  0
 49 64  1  0  0  0
 49120  1  0  0  0
 50 51  1  0  0  0
 50121  1  0  0  0
 50122  1  0  0  0
 51 52  1  0  0  0
 51123  1  0  0  0
 51124  1  0  0  0
 52125  1  0  0  0
 52126  1  0  0  0
 53 54  1  0  0  0
 54 55  2  0  0  0
 54127  1  0  0  0
 55 57  1  0  0  0
 55128  1  0  0  0
 56 69  2  0  0  0
 57 58  2  0  0  0
 57129  1  0  0  0
 58130  1  0  0  0
 59 60  1  0  0  0
 59 61  1  0  0  0
 59 62  1  0  0  0
 60131  1  0  0  0
 60132  1  0  0  0
 60133  1  0  0  0
 61134  1  0  0  0
 61135  1  0  0  0
 61136  1  0  0  0
 62137  1  0  0  0
 62138  1  0  0  0
 62139  1  0  0  0
 63 65  1  0  0  0
 63140  1  0  0  0
 63141  1  0  0  0
 63142  1  0  0  0
 64143  1  0  0  0
 65144  1  0  0  0
 68 80  1  0  0  0
 71 72  2  0  0  0
 71 73  1  0  0  0
 71145  1  0  0  0
 72 74  1  0  0  0
 72146  1  0  0  0
 73 75  2  0  0  0
 73 85  1  0  0  0
 74 82  1  0  0  0
 74 83  2  0  0  0
 75 76  1  0  0  0
 75 83  1  0  0  0
 76147  1  0  0  0
 76148  1  0  0  0
 76149  1  0  0  0
 77150  1  0  0  0
 77151  1  0  0  0
 77152  1  0  0  0
 77 82  1  0  0  0
 78 82  1  0  0  0
 78153  1  0  0  0
 78154  1  0  0  0
 78155  1  0  0  0
 79 80  1  0  0  0
 79 81  1  0  0  0
 79156  1  0  0  0
 79157  1  0  0  0
 80158  1  0  0  0
 80159  1  0  0  0
 81 85  1  0  0  0
 81160  1  0  0  0
 81161  1  0  0  0
 82 84  1  0  0  0
 84162  1  0  0  0
M  ISO  4   1 100  68 101  80 101  84 100
M  END
> <chiral flag>
0

> <version>
0

> <s_m_source_file>
/data/baiqing/PycharmProjects/Reinvent-master-3.2/result/LINK_invent/BTK/process_docking_weight1_custom_sum_contain_oxygen_bond_distance_aromatic_linkinvent_7_9_3/rearranged_h_0071.sdf

> <i_m_source_file_index>
21

> <r_mmod_Potential_Energy-OPLS-2005>
-266.069305419922

> <r_mmod_Stretch_Energy-OPLS-2005>
48.6333999633789

> <r_mmod_Bend_Energy-OPLS-2005>
137.421356201172

> <r_mmod_Torsional_Energy-OPLS-2005>
201.090972900391

> <r_mmod_Improper_Torsional_Energy-OPLS-2005>
3.066241979599

> <r_mmod_Van_der_Waal_Energy-OPLS-2005>
160.709609985352

> <r_mmod_Electrostatic_Energy-OPLS-2005>
-622.162719726562

> <r_mmod_Solvation_Energy-OPLS-2005>
-212.954788208008

> <b_mmod_Minimization_Converged-OPLS-2005>
0

> <r_mmod_RMS_Derivative-OPLS-2005>
1.63911533355713

$$$$
21
                    3D
 Structure written by MMmdl.
162170  0  0  1  0            999 V2000
  -30.6179  -14.7077   20.4541 C   0  0  0  0  0  0
  -30.4326  -12.4266   19.4770 C   0  0  0  0  0  0
  -29.5091  -12.5078   18.2399 C   0  0  0  0  0  0
  -28.0350  -12.3359   18.6514 C   0  0  0  0  0  0
  -27.6480  -13.2273   19.8613 C   0  0  2  0  0  0
  -28.6921  -13.1360   20.9989 C   0  0  0  0  0  0
  -25.2533  -13.8198   20.5697 C   0  0  0  0  0  0
  -24.1809  -13.0453   20.9194 C   0  0  0  0  0  0
  -24.6389  -11.6925   20.8746 C   0  0  0  0  0  0
  -23.9063  -10.4300   21.0410 C   0  0  0  0  0  0
  -24.3612   -9.4212   21.9187 C   0  0  0  0  0  0
  -23.6293   -8.2244   22.0754 C   0  0  0  0  0  0
  -22.4277   -8.0279   21.3547 C   0  0  0  0  0  0
  -21.9910   -9.0251   20.4647 C   0  0  0  0  0  0
  -22.7234  -10.2137   20.3058 C   0  0  0  0  0  0
  -21.6851   -6.0735   22.5279 C   0  0  0  0  0  0
  -21.4006   -6.5638   23.8210 C   0  0  0  0  0  0
  -21.3663   -5.6794   24.9173 C   0  0  0  0  0  0
  -21.6049   -4.3057   24.7223 C   0  0  0  0  0  0
  -21.8818   -3.8147   23.4344 C   0  0  0  0  0  0
  -21.9192   -4.6963   22.3400 C   0  0  0  0  0  0
  -22.7833  -13.5242   21.1863 C   0  0  0  0  0  0
  -22.1663   -4.2146   21.0978 F   0  0  0  0  0  0
  -21.5635   -3.4541   25.7738 F   0  0  0  0  0  0
  -30.0049  -13.4762   20.4304 N   0  0  0  0  0  0
  -26.2963  -12.9392   20.3335 N   0  0  0  0  0  0
  -25.9322  -11.6535   20.5779 N   0  0  0  0  0  0
  -22.0481  -12.8228   22.0415 N   0  0  0  0  0  0
  -25.4264  -15.1909   20.4094 N   0  0  0  0  0  0
  -31.7758  -14.8365   20.0494 O   0  0  0  0  0  0
  -21.6643   -6.8877   21.4242 O   0  0  0  0  0  0
  -22.3518  -14.5553   20.6722 O   0  0  0  0  0  0
  -24.6344  -31.8551   23.2027 C   0  0  0  0  0  0
  -25.9169  -32.4754   23.8356 C   0  0  1  0  0  0
  -27.2149  -27.2585   20.1152 C   0  0  0  0  0  0
  -25.5968  -33.8558   24.2267 N   0  0  0  0  0  0
  -23.4306  -30.4843   21.5441 C   0  0  2  0  0  0
  -24.8779  -28.9470   20.1038 C   0  0  0  0  0  0
  -22.7535  -29.4592   22.4889 C   0  0  0  0  0  0
  -18.0302  -28.1399   22.8474 C   0  0  0  0  0  0
  -24.1481  -36.7273   23.2644 C   0  0  0  0  0  0
  -25.9810  -30.7660   21.3886 C   0  0  0  0  0  0
  -26.0502  -29.3920   20.7261 C   0  0  0  0  0  0
  -27.2183  -28.5591   20.7311 C   0  0  0  0  0  0
  -26.0239  -26.9165   19.4248 C   0  0  0  0  0  0
  -24.8717  -27.7169   19.4407 C   0  0  0  0  0  0
  -23.6493  -29.8314   20.1553 C   0  0  0  0  0  0
  -25.4106  -36.3065   24.0325 C   0  0  1  0  0  0
  -20.5912  -28.3702   23.1254 C   0  0  2  0  0  0
  -20.6788  -26.9415   22.5397 C   0  0  0  0  0  0
  -19.5760  -26.6375   21.5215 C   0  0  0  0  0  0
  -18.1937  -26.7938   22.1619 C   0  0  0  0  0  0
  -19.1560  -28.8871   23.2856 C   0  0  0  0  0  0
  -18.9485  -30.1482   23.8859 C   0  0  0  0  0  0
  -17.6481  -30.6593   24.0572 C   0  0  0  0  0  0
  -25.9054  -34.9438   23.5091 C   0  0  0  0  0  0
  -16.5367  -29.9091   23.6347 C   0  0  0  0  0  0
  -16.7286  -28.6523   23.0334 C   0  0  0  0  0  0
  -26.4517  -31.6591   25.0752 C   0  0  0  0  0  0
  -25.3726  -31.3765   26.1464 C   0  0  0  0  0  0
  -27.0380  -30.3006   24.6259 C   0  0  0  0  0  0
  -27.6045  -32.4354   25.7529 C   0  0  0  0  0  0
  -27.5571  -37.1797   24.8474 C   0  0  0  0  0  0
  -21.4242  -29.3053   22.3648 N   0  0  0  0  0  0
  -26.4282  -37.3768   23.9424 N   0  0  0  0  0  0
  -24.7012  -31.0531   22.0999 N   0  0  0  0  0  0
  -23.4248  -28.8105   23.2953 O   0  0  0  0  0  0
  -28.2751  -26.3110   20.2145 O   0  0  0  0  0  0
  -26.5620  -34.8915   22.4657 O   0  0  0  0  0  0
  -23.5485  -32.1357   23.7314 O   0  0  0  0  0  0
  -29.7418  -21.9799   21.3141 C   0  0  0  0  0  0
  -28.7018  -23.5561   20.1880 C   0  0  0  0  0  0
  -28.4500  -22.2904   19.6324 C   0  0  0  0  0  0
  -27.5445  -22.0056   18.4704 C   0  0  0  0  0  0
  -27.4890  -19.3800   20.6999 C   0  0  0  0  0  0
  -31.3956  -19.0945   20.4193 C   0  0  0  0  0  0
  -29.8609  -18.3790   22.2396 C   0  0  0  0  0  0
  -27.9543  -24.8998   19.7941 C   0  0  0  0  0  0
  -29.8227  -17.1542   19.9720 C   0  0  0  0  0  0
  -28.9086  -19.7329   20.2069 C   0  0  2  0  0  0
  -29.9673  -18.5961   20.7174 C   0  0  0  0  0  0
  -29.5625  -23.3208   21.2674 N   0  0  0  0  0  0
  -29.0909  -21.2533   20.3790 N   0  0  0  0  0  0
  -29.8316  -15.8141   20.6999 N   0  0  0  0  0  0
  -31.4752  -12.5409   19.1754 H   0  0  0  0  0  0
  -30.3661  -11.4422   19.9425 H   0  0  0  0  0  0
  -29.7837  -11.7424   17.5123 H   0  0  0  0  0  0
  -29.6420  -13.4688   17.7388 H   0  0  0  0  0  0
  -27.8869  -11.2863   18.9068 H   0  0  0  0  0  0
  -27.3771  -12.5377   17.8052 H   0  0  0  0  0  0
  -27.6521  -14.2534   19.4927 H   0  0  0  0  0  0
  -28.7114  -12.1321   21.4249 H   0  0  0  0  0  0
  -28.4301  -13.8078   21.8177 H   0  0  0  0  0  0
  -25.2756   -9.5690   22.4764 H   0  0  0  0  0  0
  -24.0009   -7.4631   22.7466 H   0  0  0  0  0  0
  -21.0845   -8.8758   19.8943 H   0  0  0  0  0  0
  -22.3686  -10.9672   19.6164 H   0  0  0  0  0  0
  -21.1987   -7.6144   23.9709 H   0  0  0  0  0  0
  -21.1491   -6.0526   25.9077 H   0  0  0  0  0  0
  -22.0594   -2.7608   23.2844 H   0  0  0  0  0  0
  -22.4110  -11.9891   22.4796 H   0  0  0  0  0  0
  -21.1094  -13.1243   22.2636 H   0  0  0  0  0  0
  -24.6582  -15.8465   20.4964 H   0  0  0  0  0  0
  -26.2795  -15.6230   20.0806 H   0  0  0  0  0  0
  -26.7247  -32.5377   23.1102 H   0  0  0  0  0  0
  -25.0194  -33.9700   25.0471 H   0  0  0  0  0  0
  -22.7276  -31.3087   21.4045 H   0  0  0  0  0  0
  -23.3747  -35.9608   23.3305 H   0  0  0  0  0  0
  -24.3574  -36.8883   22.2060 H   0  0  0  0  0  0
  -23.7223  -37.6469   23.6661 H   0  0  0  0  0  0
  -26.1303  -31.5287   20.6223 H   0  0  0  0  0  0
  -26.8557  -30.8034   22.0255 H   0  0  0  0  0  0
  -28.1061  -28.8928   21.2489 H   0  0  0  0  0  0
  -25.9236  -26.0013   18.8623 H   0  0  0  0  0  0
  -23.9838  -27.3788   18.9251 H   0  0  0  0  0  0
  -23.7771  -30.6134   19.4061 H   0  0  0  0  0  0
  -22.7682  -29.2673   19.8441 H   0  0  0  0  0  0
  -25.1282  -36.1907   25.0815 H   0  0  0  0  0  0
  -21.0001  -28.3269   24.1374 H   0  0  0  0  0  0
  -20.5696  -26.2319   23.3605 H   0  0  0  0  0  0
  -21.6652  -26.7436   22.1184 H   0  0  0  0  0  0
  -19.6914  -25.6278   21.1255 H   0  0  0  0  0  0
  -19.6686  -27.3185   20.6753 H   0  0  0  0  0  0
  -17.4210  -26.6708   21.4013 H   0  0  0  0  0  0
  -18.0308  -26.0080   22.9009 H   0  0  0  0  0  0
  -19.7965  -30.7326   24.2168 H   0  0  0  0  0  0
  -17.5035  -31.6253   24.5206 H   0  0  0  0  0  0
  -15.5371  -30.2981   23.7695 H   0  0  0  0  0  0
  -15.8686  -28.0855   22.7024 H   0  0  0  0  0  0
  -24.5938  -30.7049   25.7828 H   0  0  0  0  0  0
  -24.8881  -32.2947   26.4801 H   0  0  0  0  0  0
  -25.8036  -30.9038   27.0303 H   0  0  0  0  0  0
  -26.2985  -29.6737   24.1261 H   0  0  0  0  0  0
  -27.4052  -29.7266   25.4784 H   0  0  0  0  0  0
  -27.8860  -30.4282   23.9521 H   0  0  0  0  0  0
  -27.2639  -33.3693   26.2016 H   0  0  0  0  0  0
  -28.3900  -32.6860   25.0383 H   0  0  0  0  0  0
  -28.0660  -31.8543   26.5521 H   0  0  0  0  0  0
  -28.2593  -38.0094   24.7519 H   0  0  0  0  0  0
  -28.1056  -36.2623   24.6291 H   0  0  0  0  0  0
  -27.2297  -37.1431   25.8882 H   0  0  0  0  0  0
  -20.9439  -29.8822   21.6887 H   0  0  0  0  0  0
  -26.0145  -38.2837   24.1434 H   0  0  0  0  0  0
  -30.3314  -21.5144   22.0910 H   0  0  0  0  0  0
  -27.5743  -22.8193   17.7459 H   0  0  0  0  0  0
  -26.5114  -21.9016   18.8001 H   0  0  0  0  0  0
  -27.8211  -21.0992   17.9351 H   0  0  0  0  0  0
  -27.2447  -18.3327   20.5291 H   0  0  0  0  0  0
  -26.7265  -19.9704   20.1927 H   0  0  0  0  0  0
  -27.3787  -19.5734   21.7675 H   0  0  0  0  0  0
  -32.1339  -18.3195   20.6295 H   0  0  0  0  0  0
  -31.6714  -19.9649   21.0135 H   0  0  0  0  0  0
  -31.5039  -19.3684   19.3683 H   0  0  0  0  0  0
  -30.6435  -17.7088   22.5965 H   0  0  0  0  0  0
  -28.9088  -17.9279   22.5193 H   0  0  0  0  0  0
  -29.9591  -19.3142   22.7882 H   0  0  0  0  0  0
  -26.9414  -24.6934   20.1351 H   0  0  0  0  0  0
  -27.9106  -24.9375   18.7056 H   0  0  0  0  0  0
  -30.5466  -17.0955   19.1572 H   0  0  0  0  0  0
  -28.8702  -17.1558   19.4430 H   0  0  0  0  0  0
  -28.8978  -19.5891   19.1277 H   0  0  0  0  0  0
  -28.9497  -15.5857   21.1335 H   0  0  0  0  0  0
  1 25  1  0  0  0
  1 30  2  0  0  0
  1 84  1  0  0  0
  2  3  1  0  0  0
  2 25  1  0  0  0
  2 85  1  0  0  0
  2 86  1  0  0  0
  3  4  1  0  0  0
  3 87  1  0  0  0
  3 88  1  0  0  0
  4  5  1  0  0  0
  4 89  1  0  0  0
  4 90  1  0  0  0
  5  6  1  0  0  0
  5 26  1  0  0  0
  5 91  1  0  0  0
  6 25  1  0  0  0
  6 92  1  0  0  0
  6 93  1  0  0  0
  7  8  2  0  0  0
  7 26  1  0  0  0
  7 29  1  0  0  0
  8  9  1  0  0  0
  8 22  1  0  0  0
  9 10  1  0  0  0
  9 27  2  0  0  0
 10 11  2  0  0  0
 10 15  1  0  0  0
 11 12  1  0  0  0
 11 94  1  0  0  0
 12 13  2  0  0  0
 12 95  1  0  0  0
 13 14  1  0  0  0
 13 31  1  0  0  0
 14 15  2  0  0  0
 14 96  1  0  0  0
 15 97  1  0  0  0
 16 17  2  0  0  0
 16 21  1  0  0  0
 16 31  1  0  0  0
 17 18  1  0  0  0
 17 98  1  0  0  0
 18 19  2  0  0  0
 18 99  1  0  0  0
 19 20  1  0  0  0
 19 24  1  0  0  0
 20 21  2  0  0  0
 20100  1  0  0  0
 21 23  1  0  0  0
 22 28  1  0  0  0
 22 32  2  0  0  0
 26 27  1  0  0  0
 28101  1  0  0  0
 28102  1  0  0  0
 29103  1  0  0  0
 29104  1  0  0  0
 33 34  1  0  0  0
 33 66  1  0  0  0
 33 70  2  0  0  0
 34 36  1  0  0  0
 34 59  1  0  0  0
 34105  1  0  0  0
 35 44  2  0  0  0
 35 45  1  0  0  0
 35 68  1  0  0  0
 36 56  1  0  0  0
 36106  1  0  0  0
 37 39  1  0  0  0
 37 47  1  0  0  0
 37 66  1  0  0  0
 37107  1  0  0  0
 38 43  2  0  0  0
 38 46  1  0  0  0
 38 47  1  0  0  0
 39 64  1  0  0  0
 39 67  2  0  0  0
 40 52  1  0  0  0
 40 53  2  0  0  0
 40 58  1  0  0  0
 41108  1  0  0  0
 41109  1  0  0  0
 41110  1  0  0  0
 41 48  1  0  0  0
 42 43  1  0  0  0
 42 66  1  0  0  0
 42111  1  0  0  0
 42112  1  0  0  0
 43 44  1  0  0  0
 44113  1  0  0  0
 45 46  2  0  0  0
 45114  1  0  0  0
 46115  1  0  0  0
 47116  1  0  0  0
 47117  1  0  0  0
 48 56  1  0  0  0
 48 65  1  0  0  0
 48118  1  0  0  0
 49 50  1  0  0  0
 49 53  1  0  0  0
 49 64  1  0  0  0
 49119  1  0  0  0
 50 51  1  0  0  0
 50120  1  0  0  0
 50121  1  0  0  0
 51 52  1  0  0  0
 51122  1  0  0  0
 51123  1  0  0  0
 52124  1  0  0  0
 52125  1  0  0  0
 53 54  1  0  0  0
 54 55  2  0  0  0
 54126  1  0  0  0
 55 57  1  0  0  0
 55127  1  0  0  0
 56 69  2  0  0  0
 57 58  2  0  0  0
 57128  1  0  0  0
 58129  1  0  0  0
 59 60  1  0  0  0
 59 61  1  0  0  0
 59 62  1  0  0  0
 60130  1  0  0  0
 60131  1  0  0  0
 60132  1  0  0  0
 61133  1  0  0  0
 61134  1  0  0  0
 61135  1  0  0  0
 62136  1  0  0  0
 62137  1  0  0  0
 62138  1  0  0  0
 63 65  1  0  0  0
 63139  1  0  0  0
 63140  1  0  0  0
 63141  1  0  0  0
 64142  1  0  0  0
 65143  1  0  0  0
 68 78  1  0  0  0
 71 82  2  0  0  0
 71 83  1  0  0  0
 71144  1  0  0  0
 72 73  2  0  0  0
 72 78  1  0  0  0
 72 82  1  0  0  0
 73 74  1  0  0  0
 73 83  1  0  0  0
 74145  1  0  0  0
 74146  1  0  0  0
 74147  1  0  0  0
 75148  1  0  0  0
 75149  1  0  0  0
 75150  1  0  0  0
 75 80  1  0  0  0
 76151  1  0  0  0
 76152  1  0  0  0
 76153  1  0  0  0
 76 81  1  0  0  0
 77 81  1  0  0  0
 77154  1  0  0  0
 77155  1  0  0  0
 77156  1  0  0  0
 78157  1  0  0  0
 78158  1  0  0  0
 79 81  1  0  0  0
 79 84  1  0  0  0
 79159  1  0  0  0
 79160  1  0  0  0
 80 81  1  0  0  0
 80 83  1  0  0  0
 80161  1  0  0  0
 84162  1  0  0  0
M  ISO  4   1 100  68 101  78 101  84 100
M  END
> <chiral flag>
0

> <version>
0

> <s_m_source_file>
/data/baiqing/PycharmProjects/Reinvent-master-3.2/result/LINK_invent/BTK/process_docking_weight1_custom_sum_contain_oxygen_bond_distance_aromatic_linkinvent_7_9_3/rearranged_h_0071.sdf

> <i_m_source_file_index>
22

> <r_mmod_Potential_Energy-OPLS-2005>
237.941177368164

> <r_mmod_Stretch_Energy-OPLS-2005>
126.623878479004

> <r_mmod_Bend_Energy-OPLS-2005>
211.595092773438

> <r_mmod_Torsional_Energy-OPLS-2005>
272.147705078125

> <r_mmod_Improper_Torsional_Energy-OPLS-2005>
9.38724803924561

> <r_mmod_Van_der_Waal_Energy-OPLS-2005>
129.276412963867

> <r_mmod_Electrostatic_Energy-OPLS-2005>
-364.618713378906

> <r_mmod_Solvation_Energy-OPLS-2005>
-230.898315429688

> <b_mmod_Minimization_Converged-OPLS-2005>
0

> <r_mmod_RMS_Derivative-OPLS-2005>
2.12444472312927

$$$$
22
                    3D
 Structure written by MMmdl.
166174  0  0  1  0            999 V2000
  -30.5371  -15.0527   20.2774 C   0  0  0  0  0  0
  -30.4267  -12.6334   19.4754 C   0  0  0  0  0  0
  -29.5022  -12.4445   18.2501 C   0  0  0  0  0  0
  -28.0449  -12.2210   18.6889 C   0  0  0  0  0  0
  -27.5966  -13.1777   19.8168 C   0  0  2  0  0  0
  -28.6601  -13.3747   20.9172 C   0  0  0  0  0  0
  -25.2476  -13.8006   20.5763 C   0  0  0  0  0  0
  -24.1727  -13.0333   20.9315 C   0  0  0  0  0  0
  -24.6272  -11.6822   20.8882 C   0  0  0  0  0  0
  -23.8945  -10.4265   21.0513 C   0  0  0  0  0  0
  -24.3553   -9.4205   21.9266 C   0  0  0  0  0  0
  -23.6265   -8.2242   22.0816 C   0  0  0  0  0  0
  -22.4260   -8.0296   21.3572 C   0  0  0  0  0  0
  -21.9868   -9.0259   20.4685 C   0  0  0  0  0  0
  -22.7172  -10.2144   20.3110 C   0  0  0  0  0  0
  -21.6829   -6.0798   22.5311 C   0  0  0  0  0  0
  -21.3997   -6.5699   23.8255 C   0  0  0  0  0  0
  -21.3620   -5.6836   24.9203 C   0  0  0  0  0  0
  -21.6025   -4.3091   24.7224 C   0  0  0  0  0  0
  -21.8857   -3.8216   23.4338 C   0  0  0  0  0  0
  -21.9215   -4.7050   22.3416 C   0  0  0  0  0  0
  -22.7804  -13.5232   21.1888 C   0  0  0  0  0  0
  -22.1720   -4.2258   21.0992 F   0  0  0  0  0  0
  -21.5564   -3.4555   25.7714 F   0  0  0  0  0  0
  -29.9142  -13.7902   20.2693 N   0  0  0  0  0  0
  -26.2762  -12.9020   20.3350 N   0  0  0  0  0  0
  -25.9174  -11.6246   20.5908 N   0  0  0  0  0  0
  -22.0339  -12.8281   22.0403 N   0  0  0  0  0  0
  -25.4222  -15.1691   20.4053 N   0  0  0  0  0  0
  -31.7688  -14.9875   20.3545 O   0  0  0  0  0  0
  -21.6615   -6.8911   21.4269 O   0  0  0  0  0  0
  -22.3615  -14.5587   20.6765 O   0  0  0  0  0  0
  -24.6350  -31.8455   23.1914 C   0  0  0  0  0  0
  -25.9112  -32.4721   23.8340 C   0  0  1  0  0  0
  -27.2359  -27.1499   20.1700 C   0  0  0  0  0  0
  -25.5878  -33.8544   24.2219 N   0  0  0  0  0  0
  -23.4394  -30.4546   21.5387 C   0  0  2  0  0  0
  -24.8937  -28.8790   20.1036 C   0  0  0  0  0  0
  -22.7519  -29.4519   22.4959 C   0  0  0  0  0  0
  -18.0246  -28.1403   22.8471 C   0  0  0  0  0  0
  -24.1424  -36.7274   23.2646 C   0  0  0  0  0  0
  -25.9859  -30.7223   21.3863 C   0  0  0  0  0  0
  -26.0587  -29.3300   20.7337 C   0  0  0  0  0  0
  -27.2205  -28.4768   20.7598 C   0  0  0  0  0  0
  -26.0584  -26.7989   19.4745 C   0  0  0  0  0  0
  -24.9060  -27.6283   19.4578 C   0  0  0  0  0  0
  -23.6599  -29.7719   20.1590 C   0  0  0  0  0  0
  -25.4074  -36.3075   24.0309 C   0  0  1  0  0  0
  -20.5830  -28.3729   23.1245 C   0  0  2  0  0  0
  -20.6733  -26.9443   22.5406 C   0  0  0  0  0  0
  -19.5735  -26.6391   21.5190 C   0  0  0  0  0  0
  -18.1892  -26.7953   22.1589 C   0  0  0  0  0  0
  -19.1501  -28.8889   23.2820 C   0  0  0  0  0  0
  -18.9447  -30.1490   23.8828 C   0  0  0  0  0  0
  -17.6453  -30.6619   24.0548 C   0  0  0  0  0  0
  -25.9065  -34.9437   23.5095 C   0  0  0  0  0  0
  -16.5325  -29.9114   23.6342 C   0  0  0  0  0  0
  -16.7236  -28.6519   23.0371 C   0  0  0  0  0  0
  -26.4447  -31.6634   25.0793 C   0  0  0  0  0  0
  -25.3634  -31.3816   26.1504 C   0  0  0  0  0  0
  -27.0372  -30.3066   24.6392 C   0  0  0  0  0  0
  -27.6012  -32.4436   25.7522 C   0  0  0  0  0  0
  -27.5555  -37.1739   24.8446 C   0  0  0  0  0  0
  -21.4229  -29.3024   22.3667 N   0  0  0  0  0  0
  -26.4229  -37.3805   23.9445 N   0  0  0  0  0  0
  -24.7068  -31.0295   22.0957 N   0  0  0  0  0  0
  -23.4161  -28.8124   23.3147 O   0  0  0  0  0  0
  -28.3192  -26.2155   20.3445 O   0  0  0  0  0  0
  -26.5706  -34.8921   22.4713 O   0  0  0  0  0  0
  -23.5463  -32.1357   23.7100 O   0  0  0  0  0  0
  -30.0306  -19.3628   19.7842 C   0  0  0  0  0  0
  -28.7626  -19.7155   21.4430 C   0  0  0  0  0  0
  -29.7457  -18.0439   20.2847 C   0  0  0  0  0  0
  -31.7865  -21.7895   21.7816 C   0  0  0  0  0  0
  -27.1689  -22.6106   19.4335 C   0  0  0  0  0  0
  -28.5308  -16.2593   19.0627 C   0  0  0  0  0  0
  -30.4512  -22.5276   21.5596 C   0  0  0  0  0  0
  -30.8579  -16.6634   18.3537 C   0  0  0  0  0  0
  -28.5461  -24.8025   19.7403 C   0  0  0  0  0  0
  -28.3082  -23.2020   20.2856 C   0  0  2  0  0  0
  -29.5427  -22.0448   20.3913 C   0  0  2  0  0  0
  -29.9280  -16.5188   19.6174 C   0  0  1  0  0  0
  -28.9011  -18.3627   21.3710 N   0  0  0  0  0  0
  -29.3895  -20.4581   20.5049 N   0  0  0  0  0  0
  -30.3338  -17.4373   17.2000 N   0  3  0  0  0  0
  -31.4496  -12.7848   19.1320 H   0  0  0  0  0  0
  -30.4502  -11.7279   20.0885 H   0  0  0  0  0  0
  -29.8234  -11.5843   17.6620 H   0  0  0  0  0  0
  -29.5623  -13.3071   17.5879 H   0  0  0  0  0  0
  -27.9740  -11.1874   19.0260 H   0  0  0  0  0  0
  -27.3719  -12.3098   17.8346 H   0  0  0  0  0  0
  -27.4350  -14.0886   19.2854 H   0  0  0  0  0  0
  -28.8063  -12.4569   21.4896 H   0  0  0  0  0  0
  -28.3328  -14.1361   21.6269 H   0  0  0  0  0  0
  -25.2707   -9.5758   22.4803 H   0  0  0  0  0  0
  -24.0029   -7.4676   22.7534 H   0  0  0  0  0  0
  -21.0817   -8.8791   19.8961 H   0  0  0  0  0  0
  -22.3674  -10.9717   19.6219 H   0  0  0  0  0  0
  -21.2004   -7.6211   23.9790 H   0  0  0  0  0  0
  -21.1338   -6.0542   25.9095 H   0  0  0  0  0  0
  -22.0642   -2.7688   23.2800 H   0  0  0  0  0  0
  -22.3841  -11.9903   22.4772 H   0  0  0  0  0  0
  -21.1010  -13.1499   22.2586 H   0  0  0  0  0  0
  -24.6627  -15.8327   20.5050 H   0  0  0  0  0  0
  -26.2800  -15.5961   20.0814 H   0  0  0  0  0  0
  -26.7191  -32.5322   23.1087 H   0  0  0  0  0  0
  -24.9924  -33.9737   25.0291 H   0  0  0  0  0  0
  -22.7315  -31.2709   21.3829 H   0  0  0  0  0  0
  -23.3738  -35.9553   23.3285 H   0  0  0  0  0  0
  -24.3489  -36.8993   22.2072 H   0  0  0  0  0  0
  -23.7090  -37.6409   23.6750 H   0  0  0  0  0  0
  -26.1181  -31.4676   20.6003 H   0  0  0  0  0  0
  -26.8637  -30.7842   22.0199 H   0  0  0  0  0  0
  -28.0978  -28.8192   21.2913 H   0  0  0  0  0  0
  -26.0008  -25.8416   18.9760 H   0  0  0  0  0  0
  -24.0128  -27.2855   18.9508 H   0  0  0  0  0  0
  -23.7667  -30.5393   19.3919 H   0  0  0  0  0  0
  -22.7762  -29.1984   19.8790 H   0  0  0  0  0  0
  -25.1201  -36.1961   25.0790 H   0  0  0  0  0  0
  -20.9814  -28.3337   24.1401 H   0  0  0  0  0  0
  -20.5585  -26.2364   23.3638 H   0  0  0  0  0  0
  -21.6625  -26.7446   22.1229 H   0  0  0  0  0  0
  -19.6911  -25.6273   21.1297 H   0  0  0  0  0  0
  -19.6702  -27.3145   20.6677 H   0  0  0  0  0  0
  -17.4163  -26.6636   21.4009 H   0  0  0  0  0  0
  -18.0306  -26.0112   22.8996 H   0  0  0  0  0  0
  -19.7935  -30.7297   24.2180 H   0  0  0  0  0  0
  -17.5030  -31.6303   24.5174 H   0  0  0  0  0  0
  -15.5328  -30.3007   23.7784 H   0  0  0  0  0  0
  -15.8604  -28.0859   22.7136 H   0  0  0  0  0  0
  -24.5811  -30.7156   25.7831 H   0  0  0  0  0  0
  -24.8761  -32.2956   26.4923 H   0  0  0  0  0  0
  -25.7868  -30.9011   27.0328 H   0  0  0  0  0  0
  -26.3049  -29.6776   24.1312 H   0  0  0  0  0  0
  -27.3928  -29.7368   25.4986 H   0  0  0  0  0  0
  -27.8947  -30.4374   23.9791 H   0  0  0  0  0  0
  -27.2694  -33.3826   26.1974 H   0  0  0  0  0  0
  -28.3849  -32.6884   25.0334 H   0  0  0  0  0  0
  -28.0672  -31.8677   26.5527 H   0  0  0  0  0  0
  -28.2493  -38.0119   24.7629 H   0  0  0  0  0  0
  -28.1118  -36.2639   24.6092 H   0  0  0  0  0  0
  -27.2281  -37.1197   25.8851 H   0  0  0  0  0  0
  -20.9496  -29.8714   21.6799 H   0  0  0  0  0  0
  -26.0110  -38.2841   24.1635 H   0  0  0  0  0  0
  -30.6311  -19.6292   18.9297 H   0  0  0  0  0  0
  -28.2103  -20.1918   22.2439 H   0  0  0  0  0  0
  -32.3156  -22.2212   22.6337 H   0  0  0  0  0  0
  -32.4452  -21.8509   20.9161 H   0  0  0  0  0  0
  -31.6272  -20.7369   22.0123 H   0  0  0  0  0  0
  -27.3968  -22.6885   18.3673 H   0  0  0  0  0  0
  -26.2301  -23.1383   19.6110 H   0  0  0  0  0  0
  -26.9868  -21.5566   19.6411 H   0  0  0  0  0  0
  -28.1361  -17.1180   18.5214 H   0  0  0  0  0  0
  -27.8435  -16.0955   19.8859 H   0  0  0  0  0  0
  -28.5530  -15.4280   18.3619 H   0  0  0  0  0  0
  -30.6575  -23.5928   21.4450 H   0  0  0  0  0  0
  -29.8832  -22.4429   22.4885 H   0  0  0  0  0  0
  -31.0695  -15.6773   17.9365 H   0  0  0  0  0  0
  -31.8220  -17.0803   18.6426 H   0  0  0  0  0  0
  -28.1535  -24.8715   18.7266 H   0  0  0  0  0  0
  -29.6237  -24.8381   19.5712 H   0  0  0  0  0  0
  -27.8946  -23.2683   21.2924 H   0  0  0  0  0  0
  -30.1068  -22.1886   19.4699 H   0  0  0  0  0  0
  -29.3953  -17.1676   16.9597 H   0  0  0  0  0  0
  -30.9141  -17.2512   16.3988 H   0  0  0  0  0  0
  -30.3577  -18.4248   17.3716 H   0  0  0  0  0  0
  1 25  1  0  0  0
  1 30  2  0  0  0
  1 82  1  0  0  0
  2  3  1  0  0  0
  2 25  1  0  0  0
  2 86  1  0  0  0
  2 87  1  0  0  0
  3  4  1  0  0  0
  3 88  1  0  0  0
  3 89  1  0  0  0
  4  5  1  0  0  0
  4 90  1  0  0  0
  4 91  1  0  0  0
  5  6  1  0  0  0
  5 26  1  0  0  0
  5 92  1  0  0  0
  6 25  1  0  0  0
  6 93  1  0  0  0
  6 94  1  0  0  0
  7  8  2  0  0  0
  7 26  1  0  0  0
  7 29  1  0  0  0
  8  9  1  0  0  0
  8 22  1  0  0  0
  9 10  1  0  0  0
  9 27  2  0  0  0
 10 11  2  0  0  0
 10 15  1  0  0  0
 11 12  1  0  0  0
 11 95  1  0  0  0
 12 13  2  0  0  0
 12 96  1  0  0  0
 13 14  1  0  0  0
 13 31  1  0  0  0
 14 15  2  0  0  0
 14 97  1  0  0  0
 15 98  1  0  0  0
 16 17  2  0  0  0
 16 21  1  0  0  0
 16 31  1  0  0  0
 17 18  1  0  0  0
 17 99  1  0  0  0
 18 19  2  0  0  0
 18100  1  0  0  0
 19 20  1  0  0  0
 19 24  1  0  0  0
 20 21  2  0  0  0
 20101  1  0  0  0
 21 23  1  0  0  0
 22 28  1  0  0  0
 22 32  2  0  0  0
 26 27  1  0  0  0
 28102  1  0  0  0
 28103  1  0  0  0
 29104  1  0  0  0
 29105  1  0  0  0
 33 34  1  0  0  0
 33 66  1  0  0  0
 33 70  2  0  0  0
 34 36  1  0  0  0
 34 59  1  0  0  0
 34106  1  0  0  0
 35 44  2  0  0  0
 35 45  1  0  0  0
 35 68  1  0  0  0
 36 56  1  0  0  0
 36107  1  0  0  0
 37 39  1  0  0  0
 37 47  1  0  0  0
 37 66  1  0  0  0
 37108  1  0  0  0
 38 43  2  0  0  0
 38 46  1  0  0  0
 38 47  1  0  0  0
 39 64  1  0  0  0
 39 67  2  0  0  0
 40 52  1  0  0  0
 40 53  2  0  0  0
 40 58  1  0  0  0
 41109  1  0  0  0
 41110  1  0  0  0
 41111  1  0  0  0
 41 48  1  0  0  0
 42 43  1  0  0  0
 42 66  1  0  0  0
 42112  1  0  0  0
 42113  1  0  0  0
 43 44  1  0  0  0
 44114  1  0  0  0
 45 46  2  0  0  0
 45115  1  0  0  0
 46116  1  0  0  0
 47117  1  0  0  0
 47118  1  0  0  0
 48 56  1  0  0  0
 48 65  1  0  0  0
 48119  1  0  0  0
 49 50  1  0  0  0
 49 53  1  0  0  0
 49 64  1  0  0  0
 49120  1  0  0  0
 50 51  1  0  0  0
 50121  1  0  0  0
 50122  1  0  0  0
 51 52  1  0  0  0
 51123  1  0  0  0
 51124  1  0  0  0
 52125  1  0  0  0
 52126  1  0  0  0
 53 54  1  0  0  0
 54 55  2  0  0  0
 54127  1  0  0  0
 55 57  1  0  0  0
 55128  1  0  0  0
 56 69  2  0  0  0
 57 58  2  0  0  0
 57129  1  0  0  0
 58130  1  0  0  0
 59 60  1  0  0  0
 59 61  1  0  0  0
 59 62  1  0  0  0
 60131  1  0  0  0
 60132  1  0  0  0
 60133  1  0  0  0
 61134  1  0  0  0
 61135  1  0  0  0
 61136  1  0  0  0
 62137  1  0  0  0
 62138  1  0  0  0
 62139  1  0  0  0
 63 65  1  0  0  0
 63140  1  0  0  0
 63141  1  0  0  0
 63142  1  0  0  0
 64143  1  0  0  0
 65144  1  0  0  0
 68 79  1  0  0  0
 71 73  2  0  0  0
 71 84  1  0  0  0
 71145  1  0  0  0
 72 83  2  0  0  0
 72 84  1  0  0  0
 72146  1  0  0  0
 73 82  1  0  0  0
 73 83  1  0  0  0
 74 77  1  0  0  0
 74147  1  0  0  0
 74148  1  0  0  0
 74149  1  0  0  0
 75150  1  0  0  0
 75151  1  0  0  0
 75152  1  0  0  0
 75 80  1  0  0  0
 76153  1  0  0  0
 76154  1  0  0  0
 76155  1  0  0  0
 76 82  1  0  0  0
 77156  1  0  0  0
 77157  1  0  0  0
 77 81  1  0  0  0
 78 82  1  0  0  0
 78 85  1  0  0  0
 78158  1  0  0  0
 78159  1  0  0  0
 79 80  1  0  0  0
 79160  1  0  0  0
 79161  1  0  0  0
 80 81  1  0  0  0
 80162  1  0  0  0
 81 84  1  0  0  0
 81163  1  0  0  0
 85164  1  0  0  0
 85165  1  0  0  0
 85166  1  0  0  0
M  CHG  1  85   1
M  ISO  4   1 100  68 101  79 101  82 100
M  END
> <chiral flag>
0

> <version>
0

> <s_m_source_file>
/data/baiqing/PycharmProjects/Reinvent-master-3.2/result/LINK_invent/BTK/process_docking_weight1_custom_sum_contain_oxygen_bond_distance_aromatic_linkinvent_7_9_3/rearranged_h_0071.sdf

> <i_m_source_file_index>
23

> <r_mmod_Potential_Energy-OPLS-2005>
658.51171875

> <r_mmod_Stretch_Energy-OPLS-2005>
309.901123046875

> <r_mmod_Bend_Energy-OPLS-2005>
380.547729492188

> <r_mmod_Torsional_Energy-OPLS-2005>
282.978179931641

> <r_mmod_Improper_Torsional_Energy-OPLS-2005>
21.6173973083496

> <r_mmod_Van_der_Waal_Energy-OPLS-2005>
123.17692565918

> <r_mmod_Electrostatic_Energy-OPLS-2005>
-206.484634399414

> <r_mmod_Solvation_Energy-OPLS-2005>
-500.807403564453

> <b_mmod_Minimization_Converged-OPLS-2005>
0

> <r_mmod_RMS_Derivative-OPLS-2005>
6.36505603790283

$$$$
23
                    3D
 Structure written by MMmdl.
179187  0  0  1  0            999 V2000
  -30.6682  -14.5737   20.4050 C   0  0  0  0  0  0
  -30.4205  -12.3067   19.4760 C   0  0  0  0  0  0
  -29.5056  -12.3789   18.2364 C   0  0  0  0  0  0
  -28.0165  -12.3135   18.6367 C   0  0  0  0  0  0
  -27.6442  -13.2133   19.8487 C   0  0  2  0  0  0
  -28.6911  -13.1252   20.9756 C   0  0  0  0  0  0
  -25.2552  -13.8187   20.5712 C   0  0  0  0  0  0
  -24.1809  -13.0450   20.9203 C   0  0  0  0  0  0
  -24.6373  -11.6918   20.8767 C   0  0  0  0  0  0
  -23.9044  -10.4298   21.0427 C   0  0  0  0  0  0
  -24.3598   -9.4211   21.9197 C   0  0  0  0  0  0
  -23.6281   -8.2242   22.0761 C   0  0  0  0  0  0
  -22.4267   -8.0279   21.3546 C   0  0  0  0  0  0
  -21.9898   -9.0254   20.4649 C   0  0  0  0  0  0
  -22.7223  -10.2137   20.3066 C   0  0  0  0  0  0
  -21.6850   -6.0727   22.5278 C   0  0  0  0  0  0
  -21.4016   -6.5635   23.8209 C   0  0  0  0  0  0
  -21.3659   -5.6790   24.9172 C   0  0  0  0  0  0
  -21.6041   -4.3052   24.7224 C   0  0  0  0  0  0
  -21.8821   -3.8142   23.4348 C   0  0  0  0  0  0
  -21.9195   -4.6956   22.3403 C   0  0  0  0  0  0
  -22.7832  -13.5244   21.1853 C   0  0  0  0  0  0
  -22.1663   -4.2142   21.0979 F   0  0  0  0  0  0
  -21.5627   -3.4538   25.7738 F   0  0  0  0  0  0
  -30.0116  -13.3807   20.3947 N   0  0  0  0  0  0
  -26.2957  -12.9346   20.3322 N   0  0  0  0  0  0
  -25.9300  -11.6509   20.5815 N   0  0  0  0  0  0
  -22.0469  -12.8242   22.0414 N   0  0  0  0  0  0
  -25.4289  -15.1902   20.4166 N   0  0  0  0  0  0
  -31.8792  -14.6426   20.1952 O   0  0  0  0  0  0
  -21.6639   -6.8869   21.4238 O   0  0  0  0  0  0
  -22.3521  -14.5542   20.6695 O   0  0  0  0  0  0
  -24.6151  -31.8670   23.2082 C   0  0  0  0  0  0
  -25.9032  -32.4818   23.8394 C   0  0  1  0  0  0
  -27.2344  -27.4174   20.1209 C   0  0  0  0  0  0
  -25.5876  -33.8613   24.2325 N   0  0  0  0  0  0
  -23.4052  -30.4894   21.5491 C   0  0  2  0  0  0
  -24.8551  -28.9505   20.1171 C   0  0  0  0  0  0
  -22.7415  -29.4658   22.4980 C   0  0  0  0  0  0
  -18.0267  -28.1387   22.8499 C   0  0  0  0  0  0
  -24.1485  -36.7327   23.2641 C   0  0  0  0  0  0
  -25.9340  -30.8312   21.3608 C   0  0  0  0  0  0
  -26.0148  -29.4621   20.7137 C   0  0  0  0  0  0
  -27.2111  -28.7050   20.7073 C   0  0  0  0  0  0
  -26.0622  -26.9235   19.5114 C   0  0  0  0  0  0
  -24.8743  -27.6825   19.5084 C   0  0  0  0  0  0
  -23.6157  -29.8192   20.1653 C   0  0  0  0  0  0
  -25.4103  -36.3107   24.0336 C   0  0  1  0  0  0
  -20.5861  -28.3683   23.1314 C   0  0  2  0  0  0
  -20.6762  -26.9416   22.5415 C   0  0  0  0  0  0
  -19.5740  -26.6391   21.5218 C   0  0  0  0  0  0
  -18.1918  -26.7935   22.1630 C   0  0  0  0  0  0
  -19.1518  -28.8849   23.2906 C   0  0  0  0  0  0
  -18.9449  -30.1450   23.8925 C   0  0  0  0  0  0
  -17.6454  -30.6596   24.0566 C   0  0  0  0  0  0
  -25.9030  -34.9470   23.5137 C   0  0  0  0  0  0
  -16.5342  -29.9101   23.6328 C   0  0  0  0  0  0
  -16.7255  -28.6510   23.0362 C   0  0  0  0  0  0
  -26.4461  -31.6592   25.0716 C   0  0  0  0  0  0
  -25.3720  -31.3668   26.1454 C   0  0  0  0  0  0
  -27.0293  -30.3038   24.6080 C   0  0  0  0  0  0
  -27.6047  -32.4305   25.7472 C   0  0  0  0  0  0
  -27.5583  -37.1804   24.8463 C   0  0  0  0  0  0
  -21.4143  -29.3039   22.3711 N   0  0  0  0  0  0
  -26.4294  -37.3791   23.9410 N   0  0  0  0  0  0
  -24.6702  -31.0768   22.0983 N   0  0  0  0  0  0
  -23.4178  -28.8210   23.3035 O   0  0  0  0  0  0
  -28.3809  -26.6496   20.1254 O   0  0  0  0  0  0
  -26.5613  -34.8927   22.4711 O   0  0  0  0  0  0
  -23.5340  -32.1423   23.7474 O   0  0  0  0  0  0
  -28.8766  -17.7325   19.4889 C   0  0  0  0  0  0
  -29.3224  -16.4279   19.1495 C   0  0  0  0  0  0
  -29.9025  -15.8777   20.2736 C   0  0  0  0  0  0
  -29.2720  -18.0360   20.7578 C   0  0  0  0  0  0
  -29.2209  -15.8684   17.7532 C   0  0  0  0  0  0
  -31.9914  -17.8056   25.1672 C   0  0  0  0  0  0
  -34.1186  -17.3264   23.8979 C   0  0  0  0  0  0
  -27.9069  -21.7433   22.9063 C   0  0  0  0  0  0
  -26.6382  -22.3393   20.8653 C   0  0  0  0  0  0
  -29.1371  -19.3690   21.4895 C   0  0  0  0  0  0
  -28.2787  -20.4403   20.7334 C   0  0  0  0  0  0
  -28.8414  -24.1875   20.1673 C   0  0  0  0  0  0
  -29.1502  -22.9054   21.0214 C   0  0  0  0  0  0
  -31.9070  -17.2779   22.6621 C   0  0  0  0  0  0
  -30.4595  -16.7557   22.6035 C   0  0  0  0  0  0
  -28.3210  -25.4450   20.9232 C   0  0  0  0  0  0
  -32.6178  -17.0153   24.0062 C   0  0  0  0  0  0
  -28.0190  -21.8612   21.3716 C   0  0  0  0  0  0
  -29.8897  -16.8783   21.2657 N   0  0  0  0  0  0
  -31.4677  -12.3833   19.1792 H   0  0  0  0  0  0
  -30.3175  -11.3396   19.9711 H   0  0  0  0  0  0
  -29.7350  -11.5491   17.5667 H   0  0  0  0  0  0
  -29.7180  -13.2732   17.6620 H   0  0  0  0  0  0
  -27.8046  -11.2721   18.8809 H   0  0  0  0  0  0
  -27.3834  -12.5524   17.7818 H   0  0  0  0  0  0
  -27.6405  -14.2391   19.4945 H   0  0  0  0  0  0
  -28.6730  -12.1428   21.4501 H   0  0  0  0  0  0
  -28.4710  -13.8533   21.7585 H   0  0  0  0  0  0
  -25.2741   -9.5690   22.4773 H   0  0  0  0  0  0
  -23.9989   -7.4634   22.7481 H   0  0  0  0  0  0
  -21.0829   -8.8776   19.8952 H   0  0  0  0  0  0
  -22.3685  -10.9679   19.6177 H   0  0  0  0  0  0
  -21.2011   -7.6145   23.9712 H   0  0  0  0  0  0
  -21.1477   -6.0520   25.9073 H   0  0  0  0  0  0
  -22.0602   -2.7606   23.2854 H   0  0  0  0  0  0
  -22.4085  -11.9912   22.4815 H   0  0  0  0  0  0
  -21.1091  -13.1279   22.2613 H   0  0  0  0  0  0
  -24.6721  -15.8522   20.5473 H   0  0  0  0  0  0
  -26.3012  -15.6321   20.1508 H   0  0  0  0  0  0
  -26.7104  -32.5548   23.1165 H   0  0  0  0  0  0
  -24.9963  -33.9766   25.0427 H   0  0  0  0  0  0
  -22.6940  -31.3056   21.4079 H   0  0  0  0  0  0
  -23.3738  -35.9671   23.3301 H   0  0  0  0  0  0
  -24.3576  -36.8955   22.2058 H   0  0  0  0  0  0
  -23.7254  -37.6531   23.6671 H   0  0  0  0  0  0
  -26.0403  -31.5927   20.5872 H   0  0  0  0  0  0
  -26.8229  -30.8941   21.9757 H   0  0  0  0  0  0
  -28.1080  -29.0925   21.1705 H   0  0  0  0  0  0
  -26.0702  -25.9492   19.0445 H   0  0  0  0  0  0
  -23.9832  -27.2870   19.0407 H   0  0  0  0  0  0
  -23.7234  -30.5931   19.4041 H   0  0  0  0  0  0
  -22.7391  -29.2385   19.8722 H   0  0  0  0  0  0
  -25.1281  -36.1969   25.0829 H   0  0  0  0  0  0
  -20.9958  -28.3264   24.1437 H   0  0  0  0  0  0
  -20.5686  -26.2290   23.3609 H   0  0  0  0  0  0
  -21.6634  -26.7471   22.1201 H   0  0  0  0  0  0
  -19.6908  -25.6308   21.1243 H   0  0  0  0  0  0
  -19.6682  -27.3204   20.6753 H   0  0  0  0  0  0
  -17.4187  -26.6685   21.4029 H   0  0  0  0  0  0
  -18.0311  -26.0072   22.9022 H   0  0  0  0  0  0
  -19.7923  -30.7247   24.2325 H   0  0  0  0  0  0
  -17.5011  -31.6283   24.5159 H   0  0  0  0  0  0
  -15.5343  -30.3016   23.7646 H   0  0  0  0  0  0
  -15.8649  -28.0834   22.7092 H   0  0  0  0  0  0
  -24.5910  -30.7011   25.7763 H   0  0  0  0  0  0
  -24.8876  -32.2797   26.4928 H   0  0  0  0  0  0
  -25.8060  -30.8806   27.0199 H   0  0  0  0  0  0
  -26.2820  -29.6770   24.1194 H   0  0  0  0  0  0
  -27.4136  -29.7302   25.4525 H   0  0  0  0  0  0
  -27.8626  -30.4366   23.9174 H   0  0  0  0  0  0
  -27.2698  -33.3610   26.2073 H   0  0  0  0  0  0
  -28.3839  -32.6857   25.0276 H   0  0  0  0  0  0
  -28.0738  -31.8408   26.5357 H   0  0  0  0  0  0
  -28.2589  -38.0113   24.7522 H   0  0  0  0  0  0
  -28.1091  -36.2639   24.6274 H   0  0  0  0  0  0
  -27.2296  -37.1439   25.8865 H   0  0  0  0  0  0
  -20.9310  -29.8729   21.6903 H   0  0  0  0  0  0
  -26.0182  -38.2869   24.1413 H   0  0  0  0  0  0
  -28.3803  -18.4219   18.8181 H   0  0  0  0  0  0
  -29.0160  -16.6698   17.0425 H   0  0  0  0  0  0
  -28.4139  -15.1449   17.6570 H   0  0  0  0  0  0
  -30.1646  -15.4130   17.4548 H   0  0  0  0  0  0
  -32.5148  -17.6080   26.1037 H   0  0  0  0  0  0
  -30.9471  -17.5364   25.3246 H   0  0  0  0  0  0
  -32.0334  -18.8807   24.9882 H   0  0  0  0  0  0
  -34.6402  -17.0925   24.8268 H   0  0  0  0  0  0
  -34.2937  -18.3800   23.6764 H   0  0  0  0  0  0
  -34.5882  -16.7405   23.1067 H   0  0  0  0  0  0
  -27.1526  -21.0122   23.2004 H   0  0  0  0  0  0
  -27.6259  -22.6960   23.3577 H   0  0  0  0  0  0
  -28.8513  -21.4415   23.3604 H   0  0  0  0  0  0
  -25.8479  -21.6447   21.1536 H   0  0  0  0  0  0
  -26.6042  -22.4182   19.7785 H   0  0  0  0  0  0
  -26.3548  -23.3030   21.2837 H   0  0  0  0  0  0
  -30.1294  -19.7808   21.6747 H   0  0  0  0  0  0
  -28.6966  -19.1849   22.4691 H   0  0  0  0  0  0
  -27.3122  -19.9638   20.5627 H   0  0  0  0  0  0
  -28.6927  -20.5865   19.7344 H   0  0  0  0  0  0
  -28.1969  -23.9545   19.3206 H   0  0  0  0  0  0
  -29.7875  -24.4852   19.7146 H   0  0  0  0  0  0
  -29.6453  -23.2354   21.9362 H   0  0  0  0  0  0
  -29.9424  -22.3680   20.4973 H   0  0  0  0  0  0
  -31.9228  -18.3447   22.4371 H   0  0  0  0  0  0
  -32.4779  -16.7998   21.8649 H   0  0  0  0  0  0
  -29.8236  -17.2980   23.3021 H   0  0  0  0  0  0
  -30.4153  -15.7125   22.9161 H   0  0  0  0  0  0
  -28.9497  -25.6189   21.7972 H   0  0  0  0  0  0
  -27.3198  -25.2715   21.3163 H   0  0  0  0  0  0
  -32.5249  -15.9523   24.2350 H   0  0  0  0  0  0
  1 25  1  0  0  0
  1 30  2  0  0  0
  1 73  1  0  0  0
  2  3  1  0  0  0
  2 25  1  0  0  0
  2 90  1  0  0  0
  2 91  1  0  0  0
  3  4  1  0  0  0
  3 92  1  0  0  0
  3 93  1  0  0  0
  4  5  1  0  0  0
  4 94  1  0  0  0
  4 95  1  0  0  0
  5  6  1  0  0  0
  5 26  1  0  0  0
  5 96  1  0  0  0
  6 25  1  0  0  0
  6 97  1  0  0  0
  6 98  1  0  0  0
  7  8  2  0  0  0
  7 26  1  0  0  0
  7 29  1  0  0  0
  8  9  1  0  0  0
  8 22  1  0  0  0
  9 10  1  0  0  0
  9 27  2  0  0  0
 10 11  2  0  0  0
 10 15  1  0  0  0
 11 12  1  0  0  0
 11 99  1  0  0  0
 12 13  2  0  0  0
 12100  1  0  0  0
 13 14  1  0  0  0
 13 31  1  0  0  0
 14 15  2  0  0  0
 14101  1  0  0  0
 15102  1  0  0  0
 16 17  2  0  0  0
 16 21  1  0  0  0
 16 31  1  0  0  0
 17 18  1  0  0  0
 17103  1  0  0  0
 18 19  2  0  0  0
 18104  1  0  0  0
 19 20  1  0  0  0
 19 24  1  0  0  0
 20 21  2  0  0  0
 20105  1  0  0  0
 21 23  1  0  0  0
 22 28  1  0  0  0
 22 32  2  0  0  0
 26 27  1  0  0  0
 28106  1  0  0  0
 28107  1  0  0  0
 29108  1  0  0  0
 29109  1  0  0  0
 33 34  1  0  0  0
 33 66  1  0  0  0
 33 70  2  0  0  0
 34 36  1  0  0  0
 34 59  1  0  0  0
 34110  1  0  0  0
 35 44  2  0  0  0
 35 45  1  0  0  0
 35 68  1  0  0  0
 36 56  1  0  0  0
 36111  1  0  0  0
 37 39  1  0  0  0
 37 47  1  0  0  0
 37 66  1  0  0  0
 37112  1  0  0  0
 38 43  2  0  0  0
 38 46  1  0  0  0
 38 47  1  0  0  0
 39 64  1  0  0  0
 39 67  2  0  0  0
 40 52  1  0  0  0
 40 53  2  0  0  0
 40 58  1  0  0  0
 41113  1  0  0  0
 41114  1  0  0  0
 41115  1  0  0  0
 41 48  1  0  0  0
 42 43  1  0  0  0
 42 66  1  0  0  0
 42116  1  0  0  0
 42117  1  0  0  0
 43 44  1  0  0  0
 44118  1  0  0  0
 45 46  2  0  0  0
 45119  1  0  0  0
 46120  1  0  0  0
 47121  1  0  0  0
 47122  1  0  0  0
 48 56  1  0  0  0
 48 65  1  0  0  0
 48123  1  0  0  0
 49 50  1  0  0  0
 49 53  1  0  0  0
 49 64  1  0  0  0
 49124  1  0  0  0
 50 51  1  0  0  0
 50125  1  0  0  0
 50126  1  0  0  0
 51 52  1  0  0  0
 51127  1  0  0  0
 51128  1  0  0  0
 52129  1  0  0  0
 52130  1  0  0  0
 53 54  1  0  0  0
 54 55  2  0  0  0
 54131  1  0  0  0
 55 57  1  0  0  0
 55132  1  0  0  0
 56 69  2  0  0  0
 57 58  2  0  0  0
 57133  1  0  0  0
 58134  1  0  0  0
 59 60  1  0  0  0
 59 61  1  0  0  0
 59 62  1  0  0  0
 60135  1  0  0  0
 60136  1  0  0  0
 60137  1  0  0  0
 61138  1  0  0  0
 61139  1  0  0  0
 61140  1  0  0  0
 62141  1  0  0  0
 62142  1  0  0  0
 62143  1  0  0  0
 63 65  1  0  0  0
 63144  1  0  0  0
 63145  1  0  0  0
 63146  1  0  0  0
 64147  1  0  0  0
 65148  1  0  0  0
 68 86  1  0  0  0
 71 72  1  0  0  0
 71 74  2  0  0  0
 71149  1  0  0  0
 72 73  2  0  0  0
 72 75  1  0  0  0
 73 89  1  0  0  0
 74 80  1  0  0  0
 74 89  1  0  0  0
 75150  1  0  0  0
 75151  1  0  0  0
 75152  1  0  0  0
 76153  1  0  0  0
 76154  1  0  0  0
 76155  1  0  0  0
 76 87  1  0  0  0
 77 87  1  0  0  0
 77156  1  0  0  0
 77157  1  0  0  0
 77158  1  0  0  0
 78159  1  0  0  0
 78160  1  0  0  0
 78161  1  0  0  0
 78 88  1  0  0  0
 79 88  1  0  0  0
 79162  1  0  0  0
 79163  1  0  0  0
 79164  1  0  0  0
 80 81  1  0  0  0
 80165  1  0  0  0
 80166  1  0  0  0
 81 88  1  0  0  0
 81167  1  0  0  0
 81168  1  0  0  0
 82 83  1  0  0  0
 82 86  1  0  0  0
 82169  1  0  0  0
 82170  1  0  0  0
 83 88  1  0  0  0
 83171  1  0  0  0
 83172  1  0  0  0
 84 85  1  0  0  0
 84 87  1  0  0  0
 84173  1  0  0  0
 84174  1  0  0  0
 85 89  1  0  0  0
 85175  1  0  0  0
 85176  1  0  0  0
 86177  1  0  0  0
 86178  1  0  0  0
 87179  1  0  0  0
M  ISO  4   1 100  68 101  73 100  86 101
M  END
> <chiral flag>
0

> <version>
0

> <s_m_source_file>
/data/baiqing/PycharmProjects/Reinvent-master-3.2/result/LINK_invent/BTK/process_docking_weight1_custom_sum_contain_oxygen_bond_distance_aromatic_linkinvent_7_9_3/rearranged_h_0071.sdf

> <i_m_source_file_index>
24

> <r_mmod_Potential_Energy-OPLS-2005>
187.034851074219

> <r_mmod_Stretch_Energy-OPLS-2005>
51.3330383300781

> <r_mmod_Bend_Energy-OPLS-2005>
126.916976928711

> <r_mmod_Torsional_Energy-OPLS-2005>
302.250854492188

> <r_mmod_Improper_Torsional_Energy-OPLS-2005>
10.7065992355347

> <r_mmod_Van_der_Waal_Energy-OPLS-2005>
115.319465637207

> <r_mmod_Electrostatic_Energy-OPLS-2005>
-287.355621337891

> <r_mmod_Solvation_Energy-OPLS-2005>
-168.072540283203

> <b_mmod_Minimization_Converged-OPLS-2005>
0

> <r_mmod_RMS_Derivative-OPLS-2005>
1.30970060825348

$$$$
25
                    3D
 Structure written by MMmdl.
161169  0  0  1  0            999 V2000
  -30.7073  -14.5541   20.5913 C   0  0  0  0  0  0
  -30.4189  -12.3785   19.4345 C   0  0  0  0  0  0
  -29.4846  -12.5297   18.2155 C   0  0  0  0  0  0
  -28.0116  -12.3655   18.6345 C   0  0  0  0  0  0
  -27.6488  -13.2230   19.8755 C   0  0  2  0  0  0
  -28.6973  -13.0531   21.0000 C   0  0  0  0  0  0
  -25.2351  -13.8145   20.5515 C   0  0  0  0  0  0
  -24.1707  -13.0405   20.9185 C   0  0  0  0  0  0
  -24.6355  -11.6906   20.8795 C   0  0  0  0  0  0
  -23.9054  -10.4286   21.0431 C   0  0  0  0  0  0
  -24.3617   -9.4207   21.9195 C   0  0  0  0  0  0
  -23.6296   -8.2245   22.0757 C   0  0  0  0  0  0
  -22.4273   -8.0279   21.3548 C   0  0  0  0  0  0
  -21.9917   -9.0245   20.4640 C   0  0  0  0  0  0
  -22.7240  -10.2133   20.3056 C   0  0  0  0  0  0
  -21.6849   -6.0740   22.5287 C   0  0  0  0  0  0
  -21.4013   -6.5636   23.8220 C   0  0  0  0  0  0
  -21.3660   -5.6789   24.9177 C   0  0  0  0  0  0
  -21.6051   -4.3047   24.7229 C   0  0  0  0  0  0
  -21.8821   -3.8143   23.4340 C   0  0  0  0  0  0
  -21.9193   -4.6972   22.3399 C   0  0  0  0  0  0
  -22.7735  -13.5185   21.1867 C   0  0  0  0  0  0
  -22.1651   -4.2165   21.0977 F   0  0  0  0  0  0
  -21.5641   -3.4522   25.7730 F   0  0  0  0  0  0
  -30.0203  -13.3789   20.4425 N   0  0  0  0  0  0
  -26.2922  -12.9408   20.3391 N   0  0  0  0  0  0
  -25.9304  -11.6555   20.5897 N   0  0  0  0  0  0
  -22.0419  -12.8171   22.0465 N   0  0  0  0  0  0
  -25.3705  -15.1833   20.3488 N   0  0  0  0  0  0
  -31.8153  -14.7187   20.0728 O   0  0  0  0  0  0
  -21.6631   -6.8878   21.4241 O   0  0  0  0  0  0
  -22.3410  -14.5507   20.6745 O   0  0  0  0  0  0
  -24.6176  -31.8647   23.2018 C   0  0  0  0  0  0
  -25.9049  -32.4776   23.8343 C   0  0  1  0  0  0
  -27.2324  -27.3618   20.1062 C   0  0  0  0  0  0
  -25.5871  -33.8571   24.2287 N   0  0  0  0  0  0
  -23.4072  -30.4881   21.5443 C   0  0  2  0  0  0
  -24.8526  -28.9439   20.1114 C   0  0  0  0  0  0
  -22.7435  -29.4637   22.4915 C   0  0  0  0  0  0
  -18.0271  -28.1359   22.8473 C   0  0  0  0  0  0
  -24.1497  -36.7301   23.2652 C   0  0  0  0  0  0
  -25.9464  -30.8047   21.3716 C   0  0  0  0  0  0
  -26.0182  -29.4362   20.7111 C   0  0  0  0  0  0
  -27.2011  -28.6530   20.7033 C   0  0  0  0  0  0
  -26.0381  -26.8993   19.4991 C   0  0  0  0  0  0
  -24.8633  -27.6795   19.5025 C   0  0  0  0  0  0
  -23.6191  -29.8222   20.1600 C   0  0  0  0  0  0
  -25.4116  -36.3078   24.0354 C   0  0  1  0  0  0
  -20.5880  -28.3629   23.1290 C   0  0  2  0  0  0
  -20.6764  -26.9347   22.5399 C   0  0  0  0  0  0
  -19.5739  -26.6349   21.5189 C   0  0  0  0  0  0
  -18.1906  -26.7888   22.1610 C   0  0  0  0  0  0
  -19.1536  -28.8812   23.2867 C   0  0  0  0  0  0
  -18.9481  -30.1434   23.8858 C   0  0  0  0  0  0
  -17.6486  -30.6569   24.0550 C   0  0  0  0  0  0
  -25.9059  -34.9449   23.5130 C   0  0  0  0  0  0
  -16.5363  -29.9077   23.6332 C   0  0  0  0  0  0
  -16.7267  -28.6492   23.0346 C   0  0  0  0  0  0
  -26.4464  -31.6610   25.0719 C   0  0  0  0  0  0
  -25.3692  -31.3813   26.1468 C   0  0  0  0  0  0
  -27.0402  -30.3047   24.6212 C   0  0  0  0  0  0
  -27.6014  -32.4395   25.7470 C   0  0  0  0  0  0
  -27.5586  -37.1799   24.8464 C   0  0  0  0  0  0
  -21.4154  -29.3021   22.3706 N   0  0  0  0  0  0
  -26.4295  -37.3775   23.9429 N   0  0  0  0  0  0
  -24.6750  -31.0697   22.0955 N   0  0  0  0  0  0
  -23.4213  -28.8159   23.2921 O   0  0  0  0  0  0
  -28.4168  -26.6252   20.1674 O   0  0  0  0  0  0
  -26.5646  -34.8924   22.4705 O   0  0  0  0  0  0
  -23.5362  -32.1439   23.7401 O   0  0  0  0  0  0
  -31.3280  -20.4948   20.4529 C   0  0  0  0  0  0
  -32.0288  -19.2809   20.3600 C   0  0  0  0  0  0
  -29.9487  -20.4258   20.6811 C   0  0  0  0  0  0
  -30.0964  -18.0874   20.6919 C   0  0  0  0  0  0
  -33.5309  -19.2436   20.1689 C   0  0  0  0  0  0
  -28.0056  -16.7771   21.4225 C   0  0  0  0  0  0
  -30.7537  -15.7937   22.6448 C   0  0  0  0  0  0
  -28.8549  -24.1213   20.6845 C   0  0  0  0  0  0
  -28.5726  -25.2708   19.6388 C   0  0  0  0  0  0
  -29.2684  -22.7267   20.0645 C   0  0  0  0  0  0
  -29.3894  -16.6940   20.7435 C   0  0  2  0  0  0
  -31.4063  -18.0921   20.4683 N   0  0  0  0  0  0
  -29.3501  -19.2091   20.7933 N   0  0  0  0  0  0
  -30.1318  -15.5341   21.3429 N   0  0  0  0  0  0
  -29.1457  -21.5492   20.9159 O   0  0  0  0  0  0
  -31.4584  -12.4922   19.1218 H   0  0  0  0  0  0
  -30.3455  -11.3768   19.8598 H   0  0  0  0  0  0
  -29.7415  -11.7963   17.4489 H   0  0  0  0  0  0
  -29.6238  -13.5125   17.7613 H   0  0  0  0  0  0
  -27.8396  -11.3099   18.8482 H   0  0  0  0  0  0
  -27.3510  -12.6144   17.8029 H   0  0  0  0  0  0
  -27.6734  -14.2647   19.5560 H   0  0  0  0  0  0
  -28.6962  -12.0293   21.3749 H   0  0  0  0  0  0
  -28.4447  -13.6726   21.8599 H   0  0  0  0  0  0
  -25.2771   -9.5700   22.4752 H   0  0  0  0  0  0
  -24.0011   -7.4651   22.7481 H   0  0  0  0  0  0
  -21.0854   -8.8763   19.8936 H   0  0  0  0  0  0
  -22.3701  -10.9666   19.6155 H   0  0  0  0  0  0
  -21.1990   -7.6143   23.9738 H   0  0  0  0  0  0
  -21.1478   -6.0500   25.9090 H   0  0  0  0  0  0
  -22.0597   -2.7607   23.2830 H   0  0  0  0  0  0
  -22.4026  -11.9799   22.4788 H   0  0  0  0  0  0
  -21.1073  -13.1211   22.2755 H   0  0  0  0  0  0
  -24.5796  -15.8131   20.4263 H   0  0  0  0  0  0
  -26.1981  -15.6357   19.9871 H   0  0  0  0  0  0
  -26.7095  -32.5444   23.1078 H   0  0  0  0  0  0
  -24.9936  -33.9754   25.0370 H   0  0  0  0  0  0
  -22.6941  -31.3034   21.4012 H   0  0  0  0  0  0
  -23.3758  -35.9637   23.3307 H   0  0  0  0  0  0
  -24.3550  -36.8941   22.2058 H   0  0  0  0  0  0
  -23.7270  -37.6507   23.6690 H   0  0  0  0  0  0
  -26.0956  -31.5776   20.6174 H   0  0  0  0  0  0
  -26.8192  -30.8358   22.0124 H   0  0  0  0  0  0
  -28.0939  -29.0316   21.1806 H   0  0  0  0  0  0
  -25.9683  -25.9346   19.0250 H   0  0  0  0  0  0
  -23.9619  -27.2984   19.0421 H   0  0  0  0  0  0
  -23.7308  -30.6006   19.4048 H   0  0  0  0  0  0
  -22.7405  -29.2492   19.8598 H   0  0  0  0  0  0
  -25.1293  -36.1925   25.0847 H   0  0  0  0  0  0
  -20.9978  -28.3187   24.1417 H   0  0  0  0  0  0
  -20.5632  -26.2225   23.3591 H   0  0  0  0  0  0
  -21.6623  -26.7363   22.1183 H   0  0  0  0  0  0
  -19.6905  -25.6253   21.1221 H   0  0  0  0  0  0
  -19.6697  -27.3174   20.6712 H   0  0  0  0  0  0
  -17.4178  -26.6640   21.4007 H   0  0  0  0  0  0
  -18.0294  -26.0032   22.9007 H   0  0  0  0  0  0
  -19.7989  -30.7244   24.2182 H   0  0  0  0  0  0
  -17.5078  -31.6250   24.5166 H   0  0  0  0  0  0
  -15.5377  -30.2991   23.7695 H   0  0  0  0  0  0
  -15.8652  -28.0835   22.7071 H   0  0  0  0  0  0
  -24.5775  -30.7264   25.7810 H   0  0  0  0  0  0
  -24.8978  -32.3041   26.4875 H   0  0  0  0  0  0
  -25.7965  -30.8958   27.0253 H   0  0  0  0  0  0
  -26.3046  -29.6704   24.1263 H   0  0  0  0  0  0
  -27.4177  -29.7370   25.4731 H   0  0  0  0  0  0
  -27.8829  -30.4364   23.9421 H   0  0  0  0  0  0
  -27.2587  -33.3699   26.2007 H   0  0  0  0  0  0
  -28.3799  -32.6996   25.0277 H   0  0  0  0  0  0
  -28.0716  -31.8575   26.5411 H   0  0  0  0  0  0
  -28.2597  -38.0104   24.7511 H   0  0  0  0  0  0
  -28.1108  -36.2647   24.6286 H   0  0  0  0  0  0
  -27.2311  -37.1410   25.8868 H   0  0  0  0  0  0
  -20.9309  -29.8767   21.6953 H   0  0  0  0  0  0
  -26.0192  -38.2862   24.1408 H   0  0  0  0  0  0
  -31.8527  -21.4379   20.3997 H   0  0  0  0  0  0
  -33.9703  -20.2366   20.2739 H   0  0  0  0  0  0
  -33.7873  -18.8644   19.1788 H   0  0  0  0  0  0
  -33.9887  -18.5944   20.9168 H   0  0  0  0  0  0
  -27.3247  -17.4121   20.8542 H   0  0  0  0  0  0
  -28.0752  -17.1795   22.4329 H   0  0  0  0  0  0
  -27.5434  -15.7991   21.5081 H   0  0  0  0  0  0
  -30.6437  -14.9235   23.2935 H   0  0  0  0  0  0
  -30.3004  -16.6418   23.1572 H   0  0  0  0  0  0
  -31.8206  -15.9977   22.5337 H   0  0  0  0  0  0
  -27.9751  -23.9942   21.3168 H   0  0  0  0  0  0
  -29.6500  -24.4498   21.3569 H   0  0  0  0  0  0
  -29.4400  -25.3346   18.9794 H   0  0  0  0  0  0
  -27.7681  -24.9703   18.9719 H   0  0  0  0  0  0
  -30.2719  -22.8187   19.6526 H   0  0  0  0  0  0
  -28.6167  -22.5381   19.2108 H   0  0  0  0  0  0
  -29.2049  -16.4367   19.6994 H   0  0  0  0  0  0
  1 25  1  0  0  0
  1 30  2  0  0  0
  1 84  1  0  0  0
  2  3  1  0  0  0
  2 25  1  0  0  0
  2 86  1  0  0  0
  2 87  1  0  0  0
  3  4  1  0  0  0
  3 88  1  0  0  0
  3 89  1  0  0  0
  4  5  1  0  0  0
  4 90  1  0  0  0
  4 91  1  0  0  0
  5  6  1  0  0  0
  5 26  1  0  0  0
  5 92  1  0  0  0
  6 25  1  0  0  0
  6 93  1  0  0  0
  6 94  1  0  0  0
  7  8  2  0  0  0
  7 26  1  0  0  0
  7 29  1  0  0  0
  8  9  1  0  0  0
  8 22  1  0  0  0
  9 10  1  0  0  0
  9 27  2  0  0  0
 10 11  2  0  0  0
 10 15  1  0  0  0
 11 12  1  0  0  0
 11 95  1  0  0  0
 12 13  2  0  0  0
 12 96  1  0  0  0
 13 14  1  0  0  0
 13 31  1  0  0  0
 14 15  2  0  0  0
 14 97  1  0  0  0
 15 98  1  0  0  0
 16 17  2  0  0  0
 16 21  1  0  0  0
 16 31  1  0  0  0
 17 18  1  0  0  0
 17 99  1  0  0  0
 18 19  2  0  0  0
 18100  1  0  0  0
 19 20  1  0  0  0
 19 24  1  0  0  0
 20 21  2  0  0  0
 20101  1  0  0  0
 21 23  1  0  0  0
 22 28  1  0  0  0
 22 32  2  0  0  0
 26 27  1  0  0  0
 28102  1  0  0  0
 28103  1  0  0  0
 29104  1  0  0  0
 29105  1  0  0  0
 33 34  1  0  0  0
 33 66  1  0  0  0
 33 70  2  0  0  0
 34 36  1  0  0  0
 34 59  1  0  0  0
 34106  1  0  0  0
 35 44  2  0  0  0
 35 45  1  0  0  0
 35 68  1  0  0  0
 36 56  1  0  0  0
 36107  1  0  0  0
 37 39  1  0  0  0
 37 47  1  0  0  0
 37 66  1  0  0  0
 37108  1  0  0  0
 38 43  2  0  0  0
 38 46  1  0  0  0
 38 47  1  0  0  0
 39 64  1  0  0  0
 39 67  2  0  0  0
 40 52  1  0  0  0
 40 53  2  0  0  0
 40 58  1  0  0  0
 41109  1  0  0  0
 41110  1  0  0  0
 41111  1  0  0  0
 41 48  1  0  0  0
 42 43  1  0  0  0
 42 66  1  0  0  0
 42112  1  0  0  0
 42113  1  0  0  0
 43 44  1  0  0  0
 44114  1  0  0  0
 45 46  2  0  0  0
 45115  1  0  0  0
 46116  1  0  0  0
 47117  1  0  0  0
 47118  1  0  0  0
 48 56  1  0  0  0
 48 65  1  0  0  0
 48119  1  0  0  0
 49 50  1  0  0  0
 49 53  1  0  0  0
 49 64  1  0  0  0
 49120  1  0  0  0
 50 51  1  0  0  0
 50121  1  0  0  0
 50122  1  0  0  0
 51 52  1  0  0  0
 51123  1  0  0  0
 51124  1  0  0  0
 52125  1  0  0  0
 52126  1  0  0  0
 53 54  1  0  0  0
 54 55  2  0  0  0
 54127  1  0  0  0
 55 57  1  0  0  0
 55128  1  0  0  0
 56 69  2  0  0  0
 57 58  2  0  0  0
 57129  1  0  0  0
 58130  1  0  0  0
 59 60  1  0  0  0
 59 61  1  0  0  0
 59 62  1  0  0  0
 60131  1  0  0  0
 60132  1  0  0  0
 60133  1  0  0  0
 61134  1  0  0  0
 61135  1  0  0  0
 61136  1  0  0  0
 62137  1  0  0  0
 62138  1  0  0  0
 62139  1  0  0  0
 63 65  1  0  0  0
 63140  1  0  0  0
 63141  1  0  0  0
 63142  1  0  0  0
 64143  1  0  0  0
 65144  1  0  0  0
 68 79  1  0  0  0
 71 72  2  0  0  0
 71 73  1  0  0  0
 71145  1  0  0  0
 72 75  1  0  0  0
 72 82  1  0  0  0
 73 83  2  0  0  0
 73 85  1  0  0  0
 74 81  1  0  0  0
 74 82  2  0  0  0
 74 83  1  0  0  0
 75146  1  0  0  0
 75147  1  0  0  0
 75148  1  0  0  0
 76149  1  0  0  0
 76150  1  0  0  0
 76151  1  0  0  0
 76 81  1  0  0  0
 77 84  1  0  0  0
 77152  1  0  0  0
 77153  1  0  0  0
 77154  1  0  0  0
 78 79  1  0  0  0
 78 80  1  0  0  0
 78155  1  0  0  0
 78156  1  0  0  0
 79157  1  0  0  0
 79158  1  0  0  0
 80 85  1  0  0  0
 80159  1  0  0  0
 80160  1  0  0  0
 81 84  1  0  0  0
 81161  1  0  0  0
M  ISO  4   1 100  68 101  79 101  84 100
M  END
> <chiral flag>
0

> <version>
0

> <s_m_source_file>
/data/baiqing/PycharmProjects/Reinvent-master-3.2/result/LINK_invent/BTK/process_docking_weight1_custom_sum_contain_oxygen_bond_distance_aromatic_linkinvent_7_9_3/rearranged_h_0071.sdf

> <i_m_source_file_index>
25

> <r_mmod_Potential_Energy-OPLS-2005>
-377.289031982422

> <r_mmod_Stretch_Energy-OPLS-2005>
62.468433380127

> <r_mmod_Bend_Energy-OPLS-2005>
141.319610595703

> <r_mmod_Torsional_Energy-OPLS-2005>
297.999053955078

> <r_mmod_Improper_Torsional_Energy-OPLS-2005>
4.33994150161743

> <r_mmod_Van_der_Waal_Energy-OPLS-2005>
154.398620605469

> <r_mmod_Electrostatic_Energy-OPLS-2005>
-847.629760742188

> <r_mmod_Solvation_Energy-OPLS-2005>
-217.471588134766

> <b_mmod_Minimization_Converged-OPLS-2005>
0

> <r_mmod_RMS_Derivative-OPLS-2005>
4.40183353424072

$$$$
26
                    3D
 Structure written by MMmdl.
163171  0  0  1  0            999 V2000
  -30.6447  -14.6786   20.3660 C   0  0  0  0  0  0
  -30.4391  -12.3764   19.4630 C   0  0  0  0  0  0
  -29.5017  -12.3543   18.2332 C   0  0  0  0  0  0
  -28.0180  -12.2870   18.6507 C   0  0  0  0  0  0
  -27.6428  -13.2091   19.8455 C   0  0  2  0  0  0
  -28.7038  -13.1606   20.9655 C   0  0  0  0  0  0
  -25.2550  -13.8158   20.5736 C   0  0  0  0  0  0
  -24.1808  -13.0444   20.9242 C   0  0  0  0  0  0
  -24.6365  -11.6914   20.8800 C   0  0  0  0  0  0
  -23.9046  -10.4305   21.0430 C   0  0  0  0  0  0
  -24.3608   -9.4226   21.9207 C   0  0  0  0  0  0
  -23.6292   -8.2259   22.0764 C   0  0  0  0  0  0
  -22.4275   -8.0288   21.3550 C   0  0  0  0  0  0
  -21.9902   -9.0262   20.4655 C   0  0  0  0  0  0
  -22.7219  -10.2150   20.3073 C   0  0  0  0  0  0
  -21.6866   -6.0732   22.5277 C   0  0  0  0  0  0
  -21.4019   -6.5641   23.8208 C   0  0  0  0  0  0
  -21.3663   -5.6798   24.9174 C   0  0  0  0  0  0
  -21.6046   -4.3059   24.7237 C   0  0  0  0  0  0
  -21.8824   -3.8148   23.4363 C   0  0  0  0  0  0
  -21.9204   -4.6957   22.3411 C   0  0  0  0  0  0
  -22.7833  -13.5238   21.1885 C   0  0  0  0  0  0
  -22.1666   -4.2135   21.0992 F   0  0  0  0  0  0
  -21.5639   -3.4549   25.7761 F   0  0  0  0  0  0
  -30.0002  -13.4680   20.3500 N   0  0  0  0  0  0
  -26.2966  -12.9324   20.3371 N   0  0  0  0  0  0
  -25.9300  -11.6502   20.5888 N   0  0  0  0  0  0
  -22.0460  -12.8221   22.0422 N   0  0  0  0  0  0
  -25.4271  -15.1874   20.4132 N   0  0  0  0  0  0
  -31.8741  -14.7350   20.2783 O   0  0  0  0  0  0
  -21.6652   -6.8874   21.4235 O   0  0  0  0  0  0
  -22.3539  -14.5552   20.6726 O   0  0  0  0  0  0
  -24.6237  -31.8614   23.2053 C   0  0  0  0  0  0
  -25.9090  -32.4786   23.8379 C   0  0  1  0  0  0
  -27.2270  -27.3406   20.1160 C   0  0  0  0  0  0
  -25.5917  -33.8588   24.2298 N   0  0  0  0  0  0
  -23.4175  -30.4848   21.5461 C   0  0  2  0  0  0
  -24.8658  -28.9477   20.1110 C   0  0  0  0  0  0
  -22.7475  -29.4614   22.4939 C   0  0  0  0  0  0
  -18.0288  -28.1378   22.8484 C   0  0  0  0  0  0
  -24.1490  -36.7298   23.2639 C   0  0  0  0  0  0
  -25.9574  -30.7989   21.3763 C   0  0  0  0  0  0
  -26.0336  -29.4291   20.7170 C   0  0  0  0  0  0
  -27.2165  -28.6362   20.7116 C   0  0  0  0  0  0
  -26.0371  -26.9120   19.4803 C   0  0  0  0  0  0
  -24.8689  -27.6933   19.4845 C   0  0  0  0  0  0
  -23.6329  -29.8228   20.1602 C   0  0  0  0  0  0
  -25.4111  -36.3082   24.0334 C   0  0  1  0  0  0
  -20.5887  -28.3665   23.1293 C   0  0  2  0  0  0
  -20.6774  -26.9390   22.5411 C   0  0  0  0  0  0
  -19.5744  -26.6369   21.5214 C   0  0  0  0  0  0
  -18.1924  -26.7919   22.1623 C   0  0  0  0  0  0
  -19.1539  -28.8840   23.2881 C   0  0  0  0  0  0
  -18.9464  -30.1446   23.8889 C   0  0  0  0  0  0
  -17.6463  -30.6579   24.0557 C   0  0  0  0  0  0
  -25.9047  -34.9453   23.5110 C   0  0  0  0  0  0
  -16.5353  -29.9075   23.6330 C   0  0  0  0  0  0
  -16.7276  -28.6496   23.0346 C   0  0  0  0  0  0
  -26.4485  -31.6590   25.0741 C   0  0  0  0  0  0
  -25.3736  -31.3720   26.1481 C   0  0  0  0  0  0
  -27.0325  -30.3018   24.6178 C   0  0  0  0  0  0
  -27.6049  -32.4322   25.7510 C   0  0  0  0  0  0
  -27.5580  -37.1798   24.8461 C   0  0  0  0  0  0
  -21.4188  -29.3025   22.3697 N   0  0  0  0  0  0
  -26.4286  -37.3777   23.9414 N   0  0  0  0  0  0
  -24.6844  -31.0647   22.0991 N   0  0  0  0  0  0
  -23.4213  -28.8145   23.2997 O   0  0  0  0  0  0
  -28.3457  -26.4982   20.1793 O   0  0  0  0  0  0
  -26.5607  -34.8912   22.4672 O   0  0  0  0  0  0
  -23.5401  -32.1399   23.7384 O   0  0  0  0  0  0
  -28.8651  -19.2719   20.0602 C   0  0  0  0  0  0
  -30.7954  -17.7145   21.1400 C   0  0  0  0  0  0
  -29.8969  -19.8870   20.8182 C   0  0  0  0  0  0
  -29.8036  -17.1046   20.3231 C   0  0  0  0  0  0
  -27.6247  -22.1528   21.3267 C   0  0  0  0  0  0
  -31.3579  -21.8161   20.1270 C   0  0  0  0  0  0
  -30.4547  -21.7356   22.4634 C   0  0  0  0  0  0
  -29.8372  -15.6890   18.3555 C   0  0  0  0  0  0
  -29.2161  -24.0401   20.5877 C   0  0  0  0  0  0
  -28.1079  -25.0463   20.0701 C   0  0  0  0  0  0
  -28.9226  -22.4546   20.5438 C   0  0  1  0  0  0
  -30.1170  -21.4558   20.9777 C   0  0  0  0  0  0
  -30.8469  -19.0655   21.3664 N   0  0  0  0  0  0
  -28.8163  -17.9222   19.8353 N   0  0  0  0  0  0
  -29.9219  -15.7292   19.8315 N   0  0  0  0  0  0
  -31.4774  -12.4953   19.1475 H   0  0  0  0  0  0
  -30.3941  -11.4256   19.9961 H   0  0  0  0  0  0
  -29.7370  -11.4812   17.6230 H   0  0  0  0  0  0
  -29.6753  -13.1992   17.5756 H   0  0  0  0  0  0
  -27.8240  -11.2487   18.9216 H   0  0  0  0  0  0
  -27.3747  -12.4947   17.7941 H   0  0  0  0  0  0
  -27.6235  -14.2235   19.4584 H   0  0  0  0  0  0
  -28.7279  -12.1778   21.4384 H   0  0  0  0  0  0
  -28.4699  -13.8820   21.7502 H   0  0  0  0  0  0
  -25.2752   -9.5727   22.4785 H   0  0  0  0  0  0
  -24.0033   -7.4652   22.7458 H   0  0  0  0  0  0
  -21.0849   -8.8765   19.8943 H   0  0  0  0  0  0
  -22.3662  -10.9701   19.6201 H   0  0  0  0  0  0
  -21.1989   -7.6148   23.9704 H   0  0  0  0  0  0
  -21.1483   -6.0534   25.9071 H   0  0  0  0  0  0
  -22.0591   -2.7607   23.2874 H   0  0  0  0  0  0
  -22.4074  -11.9887   22.4827 H   0  0  0  0  0  0
  -21.1067  -13.1222   22.2612 H   0  0  0  0  0  0
  -24.6630  -15.8452   20.5241 H   0  0  0  0  0  0
  -26.2895  -15.6259   20.1138 H   0  0  0  0  0  0
  -26.7163  -32.5461   23.1137 H   0  0  0  0  0  0
  -25.0085  -33.9745   25.0454 H   0  0  0  0  0  0
  -22.7093  -31.3034   21.4035 H   0  0  0  0  0  0
  -23.3752  -35.9631   23.3290 H   0  0  0  0  0  0
  -24.3588  -36.8928   22.2056 H   0  0  0  0  0  0
  -23.7243  -37.6497   23.6667 H   0  0  0  0  0  0
  -26.0891  -31.5643   20.6106 H   0  0  0  0  0  0
  -26.8378  -30.8448   22.0059 H   0  0  0  0  0  0
  -28.1102  -28.9961   21.2031 H   0  0  0  0  0  0
  -25.9803  -25.9549   18.9851 H   0  0  0  0  0  0
  -23.9755  -27.3179   19.0046 H   0  0  0  0  0  0
  -23.7537  -30.5998   19.4047 H   0  0  0  0  0  0
  -22.7550  -29.2506   19.8540 H   0  0  0  0  0  0
  -25.1288  -36.1939   25.0827 H   0  0  0  0  0  0
  -20.9975  -28.3233   24.1415 H   0  0  0  0  0  0
  -20.5668  -26.2272   23.3607 H   0  0  0  0  0  0
  -21.6643  -26.7414   22.1202 H   0  0  0  0  0  0
  -19.6903  -25.6280   21.1237 H   0  0  0  0  0  0
  -19.6689  -27.3186   20.6748 H   0  0  0  0  0  0
  -17.4196  -26.6671   21.4025 H   0  0  0  0  0  0
  -18.0314  -26.0064   22.9018 H   0  0  0  0  0  0
  -19.7940  -30.7266   24.2253 H   0  0  0  0  0  0
  -17.5011  -31.6258   24.5156 H   0  0  0  0  0  0
  -15.5349  -30.2965   23.7661 H   0  0  0  0  0  0
  -15.8678  -28.0814   22.7057 H   0  0  0  0  0  0
  -24.5907  -30.7070   25.7814 H   0  0  0  0  0  0
  -24.8941  -32.2886   26.4926 H   0  0  0  0  0  0
  -25.8076  -30.8888   27.0245 H   0  0  0  0  0  0
  -26.2895  -29.6776   24.1200 H   0  0  0  0  0  0
  -27.4028  -29.7260   25.4670 H   0  0  0  0  0  0
  -27.8762  -30.4310   23.9397 H   0  0  0  0  0  0
  -27.2662  -33.3616   26.2099 H   0  0  0  0  0  0
  -28.3859  -32.6887   25.0341 H   0  0  0  0  0  0
  -28.0720  -31.8443   26.5422 H   0  0  0  0  0  0
  -28.2574  -38.0114   24.7520 H   0  0  0  0  0  0
  -28.1094  -36.2643   24.6264 H   0  0  0  0  0  0
  -27.2304  -37.1426   25.8863 H   0  0  0  0  0  0
  -20.9360  -29.8777   21.6942 H   0  0  0  0  0  0
  -26.0167  -38.2850   24.1425 H   0  0  0  0  0  0
  -28.0974  -19.8611   19.5812 H   0  0  0  0  0  0
  -31.6130  -17.1363   21.5442 H   0  0  0  0  0  0
  -26.7631  -22.6406   20.8723 H   0  0  0  0  0  0
  -27.6879  -22.5022   22.3574 H   0  0  0  0  0  0
  -27.3889  -21.0912   21.3616 H   0  0  0  0  0  0
  -32.2104  -21.1794   20.3647 H   0  0  0  0  0  0
  -31.7002  -22.8358   20.2952 H   0  0  0  0  0  0
  -31.1570  -21.7037   19.0609 H   0  0  0  0  0  0
  -31.3720  -21.2316   22.7697 H   0  0  0  0  0  0
  -29.6635  -21.3867   23.1270 H   0  0  0  0  0  0
  -30.6169  -22.7929   22.6619 H   0  0  0  0  0  0
  -28.8896  -15.2671   18.0264 H   0  0  0  0  0  0
  -29.9147  -16.6750   17.8963 H   0  0  0  0  0  0
  -30.6523  -15.1211   17.9013 H   0  0  0  0  0  0
  -29.4490  -24.3302   21.6109 H   0  0  0  0  0  0
  -30.1121  -24.2634   20.0116 H   0  0  0  0  0  0
  -27.1929  -24.8232   20.6187 H   0  0  0  0  0  0
  -27.9127  -24.8153   19.0226 H   0  0  0  0  0  0
  -28.7094  -22.2281   19.4980 H   0  0  0  0  0  0
  1 25  1  0  0  0
  1 30  2  0  0  0
  1 85  1  0  0  0
  2  3  1  0  0  0
  2 25  1  0  0  0
  2 86  1  0  0  0
  2 87  1  0  0  0
  3  4  1  0  0  0
  3 88  1  0  0  0
  3 89  1  0  0  0
  4  5  1  0  0  0
  4 90  1  0  0  0
  4 91  1  0  0  0
  5  6  1  0  0  0
  5 26  1  0  0  0
  5 92  1  0  0  0
  6 25  1  0  0  0
  6 93  1  0  0  0
  6 94  1  0  0  0
  7  8  2  0  0  0
  7 26  1  0  0  0
  7 29  1  0  0  0
  8  9  1  0  0  0
  8 22  1  0  0  0
  9 10  1  0  0  0
  9 27  2  0  0  0
 10 11  2  0  0  0
 10 15  1  0  0  0
 11 12  1  0  0  0
 11 95  1  0  0  0
 12 13  2  0  0  0
 12 96  1  0  0  0
 13 14  1  0  0  0
 13 31  1  0  0  0
 14 15  2  0  0  0
 14 97  1  0  0  0
 15 98  1  0  0  0
 16 17  2  0  0  0
 16 21  1  0  0  0
 16 31  1  0  0  0
 17 18  1  0  0  0
 17 99  1  0  0  0
 18 19  2  0  0  0
 18100  1  0  0  0
 19 20  1  0  0  0
 19 24  1  0  0  0
 20 21  2  0  0  0
 20101  1  0  0  0
 21 23  1  0  0  0
 22 28  1  0  0  0
 22 32  2  0  0  0
 26 27  1  0  0  0
 28102  1  0  0  0
 28103  1  0  0  0
 29104  1  0  0  0
 29105  1  0  0  0
 33 34  1  0  0  0
 33 66  1  0  0  0
 33 70  2  0  0  0
 34 36  1  0  0  0
 34 59  1  0  0  0
 34106  1  0  0  0
 35 44  2  0  0  0
 35 45  1  0  0  0
 35 68  1  0  0  0
 36 56  1  0  0  0
 36107  1  0  0  0
 37 39  1  0  0  0
 37 47  1  0  0  0
 37 66  1  0  0  0
 37108  1  0  0  0
 38 43  2  0  0  0
 38 46  1  0  0  0
 38 47  1  0  0  0
 39 64  1  0  0  0
 39 67  2  0  0  0
 40 52  1  0  0  0
 40 53  2  0  0  0
 40 58  1  0  0  0
 41109  1  0  0  0
 41110  1  0  0  0
 41111  1  0  0  0
 41 48  1  0  0  0
 42 43  1  0  0  0
 42 66  1  0  0  0
 42112  1  0  0  0
 42113  1  0  0  0
 43 44  1  0  0  0
 44114  1  0  0  0
 45 46  2  0  0  0
 45115  1  0  0  0
 46116  1  0  0  0
 47117  1  0  0  0
 47118  1  0  0  0
 48 56  1  0  0  0
 48 65  1  0  0  0
 48119  1  0  0  0
 49 50  1  0  0  0
 49 53  1  0  0  0
 49 64  1  0  0  0
 49120  1  0  0  0
 50 51  1  0  0  0
 50121  1  0  0  0
 50122  1  0  0  0
 51 52  1  0  0  0
 51123  1  0  0  0
 51124  1  0  0  0
 52125  1  0  0  0
 52126  1  0  0  0
 53 54  1  0  0  0
 54 55  2  0  0  0
 54127  1  0  0  0
 55 57  1  0  0  0
 55128  1  0  0  0
 56 69  2  0  0  0
 57 58  2  0  0  0
 57129  1  0  0  0
 58130  1  0  0  0
 59 60  1  0  0  0
 59 61  1  0  0  0
 59 62  1  0  0  0
 60131  1  0  0  0
 60132  1  0  0  0
 60133  1  0  0  0
 61134  1  0  0  0
 61135  1  0  0  0
 61136  1  0  0  0
 62137  1  0  0  0
 62138  1  0  0  0
 62139  1  0  0  0
 63 65  1  0  0  0
 63140  1  0  0  0
 63141  1  0  0  0
 63142  1  0  0  0
 64143  1  0  0  0
 65144  1  0  0  0
 68 80  1  0  0  0
 71 73  2  0  0  0
 71 84  1  0  0  0
 71145  1  0  0  0
 72 74  1  0  0  0
 72 83  2  0  0  0
 72146  1  0  0  0
 73 82  1  0  0  0
 73 83  1  0  0  0
 74 84  2  0  0  0
 74 85  1  0  0  0
 75147  1  0  0  0
 75148  1  0  0  0
 75149  1  0  0  0
 75 81  1  0  0  0
 76150  1  0  0  0
 76151  1  0  0  0
 76152  1  0  0  0
 76 82  1  0  0  0
 77 82  1  0  0  0
 77153  1  0  0  0
 77154  1  0  0  0
 77155  1  0  0  0
 78 85  1  0  0  0
 78156  1  0  0  0
 78157  1  0  0  0
 78158  1  0  0  0
 79 80  1  0  0  0
 79 81  1  0  0  0
 79159  1  0  0  0
 79160  1  0  0  0
 80161  1  0  0  0
 80162  1  0  0  0
 81 82  1  0  0  0
 81163  1  0  0  0
M  ISO  4   1 100  68 101  80 101  85 100
M  END
> <chiral flag>
0

> <version>
0

> <s_m_source_file>
/data/baiqing/PycharmProjects/Reinvent-master-3.2/result/LINK_invent/BTK/process_docking_weight1_custom_sum_contain_oxygen_bond_distance_aromatic_linkinvent_7_9_3/rearranged_h_0071.sdf

> <i_m_source_file_index>
26

> <r_mmod_Potential_Energy-OPLS-2005>
362.460571289062

> <r_mmod_Stretch_Energy-OPLS-2005>
92.9983367919922

> <r_mmod_Bend_Energy-OPLS-2005>
155.94758605957

> <r_mmod_Torsional_Energy-OPLS-2005>
309.964660644531

> <r_mmod_Improper_Torsional_Energy-OPLS-2005>
26.944974899292

> <r_mmod_Van_der_Waal_Energy-OPLS-2005>
168.963455200195

> <r_mmod_Electrostatic_Energy-OPLS-2005>
-273.294494628906

> <r_mmod_Solvation_Energy-OPLS-2005>
-187.559524536133

> <b_mmod_Minimization_Converged-OPLS-2005>
0

> <r_mmod_RMS_Derivative-OPLS-2005>
1.86516714096069

$$$$
27
                    3D
 Structure written by MMmdl.
161170  0  0  1  0            999 V2000
  -30.5511  -14.8941   20.4373 C   0  0  0  0  0  0
  -30.4476  -12.5533   19.5060 C   0  0  0  0  0  0
  -29.5334  -12.5445   18.2584 C   0  0  0  0  0  0
  -28.0573  -12.3435   18.6579 C   0  0  0  0  0  0
  -27.6395  -13.2507   19.8470 C   0  0  2  0  0  0
  -28.6780  -13.2362   20.9908 C   0  0  0  0  0  0
  -25.2505  -13.8248   20.5717 C   0  0  0  0  0  0
  -24.1820  -13.0474   20.9209 C   0  0  0  0  0  0
  -24.6447  -11.6957   20.8756 C   0  0  0  0  0  0
  -23.9124  -10.4306   21.0398 C   0  0  0  0  0  0
  -24.3682   -9.4235   21.9170 C   0  0  0  0  0  0
  -23.6357   -8.2273   22.0739 C   0  0  0  0  0  0
  -22.4323   -8.0309   21.3553 C   0  0  0  0  0  0
  -21.9945   -9.0284   20.4661 C   0  0  0  0  0  0
  -22.7284  -10.2150   20.3063 C   0  0  0  0  0  0
  -21.6842   -6.0765   22.5273 C   0  0  0  0  0  0
  -21.4032   -6.5664   23.8223 C   0  0  0  0  0  0
  -21.3661   -5.6800   24.9173 C   0  0  0  0  0  0
  -21.6056   -4.3063   24.7210 C   0  0  0  0  0  0
  -21.8840   -3.8164   23.4324 C   0  0  0  0  0  0
  -21.9196   -4.6991   22.3379 C   0  0  0  0  0  0
  -22.7837  -13.5278   21.1835 C   0  0  0  0  0  0
  -22.1665   -4.2204   21.0943 F   0  0  0  0  0  0
  -21.5630   -3.4518   25.7694 F   0  0  0  0  0  0
  -29.9700  -13.6344   20.4118 N   0  0  0  0  0  0
  -26.2943  -12.9480   20.3223 N   0  0  0  0  0  0
  -25.9383  -11.6620   20.5714 N   0  0  0  0  0  0
  -22.0446  -12.8317   22.0405 N   0  0  0  0  0  0
  -25.4171  -15.1953   20.4088 N   0  0  0  0  0  0
  -31.7365  -14.9943   20.1008 O   0  0  0  0  0  0
  -21.6681   -6.8901   21.4246 O   0  0  0  0  0  0
  -22.3550  -14.5569   20.6618 O   0  0  0  0  0  0
  -24.6380  -31.8495   23.1927 C   0  0  0  0  0  0
  -25.9171  -32.4741   23.8291 C   0  0  1  0  0  0
  -27.2061  -27.1523   20.1901 C   0  0  0  0  0  0
  -25.5948  -33.8559   24.2203 N   0  0  0  0  0  0
  -23.4389  -30.4715   21.5346 C   0  0  2  0  0  0
  -24.8941  -28.9027   20.1098 C   0  0  0  0  0  0
  -22.7520  -29.4605   22.4867 C   0  0  0  0  0  0
  -18.0297  -28.1395   22.8476 C   0  0  0  0  0  0
  -24.1483  -36.7275   23.2633 C   0  0  0  0  0  0
  -25.9954  -30.7303   21.3930 C   0  0  0  0  0  0
  -26.0694  -29.3433   20.7373 C   0  0  0  0  0  0
  -27.2306  -28.4877   20.7574 C   0  0  0  0  0  0
  -26.0188  -26.8171   19.5059 C   0  0  0  0  0  0
  -24.8837  -27.6531   19.4774 C   0  0  0  0  0  0
  -23.6664  -29.7983   20.1541 C   0  0  0  0  0  0
  -25.4137  -36.3084   24.0298 C   0  0  1  0  0  0
  -20.5903  -28.3751   23.1233 C   0  0  2  0  0  0
  -20.6794  -26.9460   22.5426 C   0  0  0  0  0  0
  -19.5775  -26.6385   21.5228 C   0  0  0  0  0  0
  -18.1939  -26.7940   22.1607 C   0  0  0  0  0  0
  -19.1544  -28.8887   23.2855 C   0  0  0  0  0  0
  -18.9465  -30.1455   23.8929 C   0  0  0  0  0  0
  -17.6480  -30.6602   24.0556 C   0  0  0  0  0  0
  -25.9095  -34.9457   23.5064 C   0  0  0  0  0  0
  -16.5373  -29.9095   23.6333 C   0  0  0  0  0  0
  -16.7288  -28.6490   23.0397 C   0  0  0  0  0  0
  -26.4485  -31.6609   25.0750 C   0  0  0  0  0  0
  -25.3642  -31.3814   26.1412 C   0  0  0  0  0  0
  -27.0317  -30.2983   24.6378 C   0  0  0  0  0  0
  -27.6004  -32.4376   25.7555 C   0  0  0  0  0  0
  -27.5598  -37.1782   24.8441 C   0  0  0  0  0  0
  -21.4228  -29.3067   22.3571 N   0  0  0  0  0  0
  -26.4293  -37.3795   23.9403 N   0  0  0  0  0  0
  -24.7093  -31.0363   22.0969 N   0  0  0  0  0  0
  -23.4174  -28.8186   23.3012 O   0  0  0  0  0  0
  -28.2278  -26.1402   20.2645 O   0  0  0  0  0  0
  -26.5689  -34.8944   22.4660 O   0  0  0  0  0  0
  -23.5500  -32.1404   23.7126 O   0  0  0  0  0  0
  -27.8788  -22.2670   19.7816 C   0  0  0  0  0  0
  -28.4986  -23.2873   20.5665 C   0  0  0  0  0  0
  -29.5069  -22.6890   21.3783 C   0  0  0  0  0  0
  -29.1031  -20.4153   20.6884 C   0  0  0  0  0  0
  -30.2384  -23.5577   22.3960 C   0  0  0  0  0  0
  -29.4363  -24.7972   22.8925 C   0  0  0  0  0  0
  -27.9778  -24.9109   22.3998 C   0  0  0  0  0  0
  -27.8529  -24.7660   20.8728 C   0  0  1  0  0  0
  -27.6553  -18.3521   21.2118 C   0  0  0  0  0  0
  -29.6974  -18.6931   22.5300 C   0  0  0  0  0  0
  -29.9186  -17.5697   20.2678 C   0  0  0  0  0  0
  -29.1330  -18.7948   21.0930 C   0  0  0  0  0  0
  -28.1819  -20.9115   19.8325 N   0  0  0  0  0  0
  -29.7919  -21.3272   21.4166 N   0  0  0  0  0  0
  -29.7506  -16.0407   20.6359 N   0  0  0  0  0  0
  -31.4822  -12.7118   19.2010 H   0  0  0  0  0  0
  -30.4262  -11.5888   20.0155 H   0  0  0  0  0  0
  -29.8550  -11.7600   17.5720 H   0  0  0  0  0  0
  -29.6477  -13.4877   17.7222 H   0  0  0  0  0  0
  -27.9297  -11.2952   18.9206 H   0  0  0  0  0  0
  -27.4168  -12.5238   17.7963 H   0  0  0  0  0  0
  -27.6156  -14.2665   19.4542 H   0  0  0  0  0  0
  -28.7483  -12.2491   21.4497 H   0  0  0  0  0  0
  -28.3868  -13.9214   21.7869 H   0  0  0  0  0  0
  -25.2834   -9.5729   22.4745 H   0  0  0  0  0  0
  -24.0074   -7.4678   22.7466 H   0  0  0  0  0  0
  -21.0871   -8.8860   19.8964 H   0  0  0  0  0  0
  -22.3772  -10.9732   19.6194 H   0  0  0  0  0  0
  -21.2004   -7.6152   23.9763 H   0  0  0  0  0  0
  -21.1477   -6.0484   25.9089 H   0  0  0  0  0  0
  -22.0591   -2.7627   23.2783 H   0  0  0  0  0  0
  -22.4022  -12.0013   22.4903 H   0  0  0  0  0  0
  -21.1051  -13.1369   22.2483 H   0  0  0  0  0  0
  -24.6468  -15.8436   20.5254 H   0  0  0  0  0  0
  -26.2542  -15.6380   20.0535 H   0  0  0  0  0  0
  -26.7261  -32.5341   23.1028 H   0  0  0  0  0  0
  -24.9932  -33.9707   25.0224 H   0  0  0  0  0  0
  -22.7413  -31.2994   21.3828 H   0  0  0  0  0  0
  -23.3788  -35.9557   23.3248 H   0  0  0  0  0  0
  -24.3546  -36.8979   22.2058 H   0  0  0  0  0  0
  -23.7196  -37.6435   23.6716 H   0  0  0  0  0  0
  -26.1524  -31.4857   20.6190 H   0  0  0  0  0  0
  -26.8665  -30.7766   22.0383 H   0  0  0  0  0  0
  -28.1210  -28.8208   21.2725 H   0  0  0  0  0  0
  -25.9459  -25.8575   19.0151 H   0  0  0  0  0  0
  -23.9895  -27.3112   18.9725 H   0  0  0  0  0  0
  -23.7955  -30.5750   19.3997 H   0  0  0  0  0  0
  -22.7817  -29.2362   19.8468 H   0  0  0  0  0  0
  -25.1303  -36.1895   25.0785 H   0  0  0  0  0  0
  -21.0005  -28.3392   24.1348 H   0  0  0  0  0  0
  -20.5673  -26.2403   23.3654 H   0  0  0  0  0  0
  -21.6659  -26.7468   22.1230 H   0  0  0  0  0  0
  -19.6944  -25.6276   21.1290 H   0  0  0  0  0  0
  -19.6719  -27.3160   20.6719 H   0  0  0  0  0  0
  -17.4231  -26.6739   21.3989 H   0  0  0  0  0  0
  -18.0309  -26.0058   22.8967 H   0  0  0  0  0  0
  -19.7956  -30.7228   24.2359 H   0  0  0  0  0  0
  -17.5052  -31.6306   24.5109 H   0  0  0  0  0  0
  -15.5373  -30.3022   23.7639 H   0  0  0  0  0  0
  -15.8675  -28.0776   22.7194 H   0  0  0  0  0  0
  -24.5785  -30.7242   25.7678 H   0  0  0  0  0  0
  -24.8877  -32.3018   26.4809 H   0  0  0  0  0  0
  -25.7853  -30.8947   27.0217 H   0  0  0  0  0  0
  -26.2947  -29.6762   24.1306 H   0  0  0  0  0  0
  -27.3767  -29.7247   25.4989 H   0  0  0  0  0  0
  -27.8927  -30.4152   23.9799 H   0  0  0  0  0  0
  -27.2535  -33.3583   26.2248 H   0  0  0  0  0  0
  -28.3760  -32.7115   25.0401 H   0  0  0  0  0  0
  -28.0767  -31.8480   26.5394 H   0  0  0  0  0  0
  -28.2557  -38.0132   24.7541 H   0  0  0  0  0  0
  -28.1132  -36.2662   24.6146 H   0  0  0  0  0  0
  -27.2313  -37.1291   25.8838 H   0  0  0  0  0  0
  -20.9448  -29.8717   21.6685 H   0  0  0  0  0  0
  -26.0151  -38.2844   24.1477 H   0  0  0  0  0  0
  -27.0146  -22.5207   19.1837 H   0  0  0  0  0  0
  -31.1670  -23.8941   21.9318 H   0  0  0  0  0  0
  -30.5421  -22.9472   23.2522 H   0  0  0  0  0  0
  -29.9671  -25.7005   22.5890 H   0  0  0  0  0  0
  -29.4468  -24.8045   23.9839 H   0  0  0  0  0  0
  -27.5272  -25.8404   22.7468 H   0  0  0  0  0  0
  -27.3939  -24.1181   22.8716 H   0  0  0  0  0  0
  -26.7914  -24.6155   20.6852 H   0  0  0  0  0  0
  -27.0984  -19.0023   21.8892 H   0  0  0  0  0  0
  -27.5552  -17.3353   21.5890 H   0  0  0  0  0  0
  -27.1555  -18.3899   20.2445 H   0  0  0  0  0  0
  -29.1152  -19.2826   23.2385 H   0  0  0  0  0  0
  -30.7213  -19.0657   22.5736 H   0  0  0  0  0  0
  -29.7086  -17.6666   22.8966 H   0  0  0  0  0  0
  -30.9892  -17.7878   20.2480 H   0  0  0  0  0  0
  -29.5990  -17.6412   19.2285 H   0  0  0  0  0  0
  -28.8184  -15.8035   20.9345 H   0  0  0  0  0  0
  1 25  1  0  0  0
  1 30  2  0  0  0
  1 85  1  0  0  0
  2  3  1  0  0  0
  2 25  1  0  0  0
  2 86  1  0  0  0
  2 87  1  0  0  0
  3  4  1  0  0  0
  3 88  1  0  0  0
  3 89  1  0  0  0
  4  5  1  0  0  0
  4 90  1  0  0  0
  4 91  1  0  0  0
  5  6  1  0  0  0
  5 26  1  0  0  0
  5 92  1  0  0  0
  6 25  1  0  0  0
  6 93  1  0  0  0
  6 94  1  0  0  0
  7  8  2  0  0  0
  7 26  1  0  0  0
  7 29  1  0  0  0
  8  9  1  0  0  0
  8 22  1  0  0  0
  9 10  1  0  0  0
  9 27  2  0  0  0
 10 11  2  0  0  0
 10 15  1  0  0  0
 11 12  1  0  0  0
 11 95  1  0  0  0
 12 13  2  0  0  0
 12 96  1  0  0  0
 13 14  1  0  0  0
 13 31  1  0  0  0
 14 15  2  0  0  0
 14 97  1  0  0  0
 15 98  1  0  0  0
 16 17  2  0  0  0
 16 21  1  0  0  0
 16 31  1  0  0  0
 17 18  1  0  0  0
 17 99  1  0  0  0
 18 19  2  0  0  0
 18100  1  0  0  0
 19 20  1  0  0  0
 19 24  1  0  0  0
 20 21  2  0  0  0
 20101  1  0  0  0
 21 23  1  0  0  0
 22 28  1  0  0  0
 22 32  2  0  0  0
 26 27  1  0  0  0
 28102  1  0  0  0
 28103  1  0  0  0
 29104  1  0  0  0
 29105  1  0  0  0
 33 34  1  0  0  0
 33 66  1  0  0  0
 33 70  2  0  0  0
 34 36  1  0  0  0
 34 59  1  0  0  0
 34106  1  0  0  0
 35 44  2  0  0  0
 35 45  1  0  0  0
 35 68  1  0  0  0
 36 56  1  0  0  0
 36107  1  0  0  0
 37 39  1  0  0  0
 37 47  1  0  0  0
 37 66  1  0  0  0
 37108  1  0  0  0
 38 43  2  0  0  0
 38 46  1  0  0  0
 38 47  1  0  0  0
 39 64  1  0  0  0
 39 67  2  0  0  0
 40 52  1  0  0  0
 40 53  2  0  0  0
 40 58  1  0  0  0
 41109  1  0  0  0
 41110  1  0  0  0
 41111  1  0  0  0
 41 48  1  0  0  0
 42 43  1  0  0  0
 42 66  1  0  0  0
 42112  1  0  0  0
 42113  1  0  0  0
 43 44  1  0  0  0
 44114  1  0  0  0
 45 46  2  0  0  0
 45115  1  0  0  0
 46116  1  0  0  0
 47117  1  0  0  0
 47118  1  0  0  0
 48 56  1  0  0  0
 48 65  1  0  0  0
 48119  1  0  0  0
 49 50  1  0  0  0
 49 53  1  0  0  0
 49 64  1  0  0  0
 49120  1  0  0  0
 50 51  1  0  0  0
 50121  1  0  0  0
 50122  1  0  0  0
 51 52  1  0  0  0
 51123  1  0  0  0
 51124  1  0  0  0
 52125  1  0  0  0
 52126  1  0  0  0
 53 54  1  0  0  0
 54 55  2  0  0  0
 54127  1  0  0  0
 55 57  1  0  0  0
 55128  1  0  0  0
 56 69  2  0  0  0
 57 58  2  0  0  0
 57129  1  0  0  0
 58130  1  0  0  0
 59 60  1  0  0  0
 59 61  1  0  0  0
 59 62  1  0  0  0
 60131  1  0  0  0
 60132  1  0  0  0
 60133  1  0  0  0
 61134  1  0  0  0
 61135  1  0  0  0
 61136  1  0  0  0
 62137  1  0  0  0
 62138  1  0  0  0
 62139  1  0  0  0
 63 65  1  0  0  0
 63140  1  0  0  0
 63141  1  0  0  0
 63142  1  0  0  0
 64143  1  0  0  0
 65144  1  0  0  0
 68 78  1  0  0  0
 71 72  2  0  0  0
 71 83  1  0  0  0
 71145  1  0  0  0
 72 73  1  0  0  0
 72 78  1  0  0  0
 73 75  1  0  0  0
 73 84  2  0  0  0
 74 82  1  0  0  0
 74 83  2  0  0  0
 74 84  1  0  0  0
 75 76  1  0  0  0
 75146  1  0  0  0
 75147  1  0  0  0
 76 77  1  0  0  0
 76148  1  0  0  0
 76149  1  0  0  0
 77 78  1  0  0  0
 77150  1  0  0  0
 77151  1  0  0  0
 78152  1  0  0  0
 79153  1  0  0  0
 79154  1  0  0  0
 79155  1  0  0  0
 79 82  1  0  0  0
 80 82  1  0  0  0
 80156  1  0  0  0
 80157  1  0  0  0
 80158  1  0  0  0
 81 82  1  0  0  0
 81 85  1  0  0  0
 81159  1  0  0  0
 81160  1  0  0  0
 85161  1  0  0  0
M  ISO  4   1 100  68 101  78 101  85 100
M  END
> <chiral flag>
0

> <version>
0

> <s_m_source_file>
/data/baiqing/PycharmProjects/Reinvent-master-3.2/result/LINK_invent/BTK/process_docking_weight1_custom_sum_contain_oxygen_bond_distance_aromatic_linkinvent_7_9_3/rearranged_h_0071.sdf

> <i_m_source_file_index>
27

> <r_mmod_Potential_Energy-OPLS-2005>
80.4961853027344

> <r_mmod_Stretch_Energy-OPLS-2005>
221.210998535156

> <r_mmod_Bend_Energy-OPLS-2005>
255.789810180664

> <r_mmod_Torsional_Energy-OPLS-2005>
274.933502197266

> <r_mmod_Improper_Torsional_Energy-OPLS-2005>
12.1756076812744

> <r_mmod_Van_der_Waal_Energy-OPLS-2005>
143.465423583984

> <r_mmod_Electrostatic_Energy-OPLS-2005>
-772.27783203125

> <r_mmod_Solvation_Energy-OPLS-2005>
-227.749099731445

> <b_mmod_Minimization_Converged-OPLS-2005>
0

> <r_mmod_RMS_Derivative-OPLS-2005>
5.96112823486328

$$$$
28
                    3D
 Structure written by MMmdl.
162170  0  0  1  0            999 V2000
  -30.7569  -14.4829   20.4663 C   0  0  0  0  0  0
  -30.3962  -12.2947   19.4199 C   0  0  0  0  0  0
  -29.4757  -12.4822   18.1977 C   0  0  0  0  0  0
  -27.9994  -12.3532   18.6173 C   0  0  0  0  0  0
  -27.6439  -13.2227   19.8538 C   0  0  2  0  0  0
  -28.7007  -13.0855   20.9738 C   0  0  0  0  0  0
  -25.2386  -13.8069   20.5638 C   0  0  0  0  0  0
  -24.1731  -13.0328   20.9243 C   0  0  0  0  0  0
  -24.6384  -11.6848   20.8776 C   0  0  0  0  0  0
  -23.9070  -10.4245   21.0414 C   0  0  0  0  0  0
  -24.3605   -9.4163   21.9185 C   0  0  0  0  0  0
  -23.6264   -8.2218   22.0751 C   0  0  0  0  0  0
  -22.4248   -8.0268   21.3543 C   0  0  0  0  0  0
  -21.9908   -9.0250   20.4636 C   0  0  0  0  0  0
  -22.7259  -10.2109   20.3054 C   0  0  0  0  0  0
  -21.6835   -6.0739   22.5289 C   0  0  0  0  0  0
  -21.4016   -6.5656   23.8221 C   0  0  0  0  0  0
  -21.3639   -5.6805   24.9173 C   0  0  0  0  0  0
  -21.6044   -4.3067   24.7228 C   0  0  0  0  0  0
  -21.8821   -3.8157   23.4352 C   0  0  0  0  0  0
  -21.9177   -4.6970   22.3411 C   0  0  0  0  0  0
  -22.7758  -13.5124   21.1906 C   0  0  0  0  0  0
  -22.1631   -4.2158   21.0976 F   0  0  0  0  0  0
  -21.5618   -3.4550   25.7736 F   0  0  0  0  0  0
  -30.0229  -13.3392   20.3842 N   0  0  0  0  0  0
  -26.2926  -12.9367   20.3338 N   0  0  0  0  0  0
  -25.9321  -11.6508   20.5813 N   0  0  0  0  0  0
  -22.0438  -12.8109   22.0496 N   0  0  0  0  0  0
  -25.3753  -15.1739   20.3839 N   0  0  0  0  0  0
  -31.9651  -14.4951   20.2230 O   0  0  0  0  0  0
  -21.6607   -6.8867   21.4238 O   0  0  0  0  0  0
  -22.3450  -14.5442   20.6766 O   0  0  0  0  0  0
  -24.6142  -31.8693   23.2070 C   0  0  0  0  0  0
  -25.9054  -32.4826   23.8362 C   0  0  1  0  0  0
  -27.2483  -27.4455   20.0787 C   0  0  0  0  0  0
  -25.5918  -33.8625   24.2296 N   0  0  0  0  0  0
  -23.3990  -30.4871   21.5489 C   0  0  2  0  0  0
  -24.8440  -28.9469   20.1184 C   0  0  0  0  0  0
  -22.7393  -29.4653   22.5010 C   0  0  0  0  0  0
  -18.0259  -28.1364   22.8497 C   0  0  0  0  0  0
  -24.1468  -36.7304   23.2634 C   0  0  0  0  0  0
  -25.9233  -30.8319   21.3565 C   0  0  0  0  0  0
  -26.0025  -29.4642   20.7113 C   0  0  0  0  0  0
  -27.1995  -28.7191   20.6915 C   0  0  0  0  0  0
  -26.0623  -26.9329   19.4990 C   0  0  0  0  0  0
  -24.8681  -27.6792   19.5137 C   0  0  0  0  0  0
  -23.6038  -29.8072   20.1673 C   0  0  0  0  0  0
  -25.4094  -36.3122   24.0344 C   0  0  1  0  0  0
  -20.5854  -28.3648   23.1313 C   0  0  2  0  0  0
  -20.6755  -26.9388   22.5401 C   0  0  0  0  0  0
  -19.5734  -26.6379   21.5195 C   0  0  0  0  0  0
  -18.1911  -26.7912   22.1611 C   0  0  0  0  0  0
  -19.1514  -28.8825   23.2902 C   0  0  0  0  0  0
  -18.9446  -30.1440   23.8891 C   0  0  0  0  0  0
  -17.6454  -30.6581   24.0557 C   0  0  0  0  0  0
  -25.9025  -34.9490   23.5106 C   0  0  0  0  0  0
  -16.5337  -29.9082   23.6339 C   0  0  0  0  0  0
  -16.7255  -28.6494   23.0374 C   0  0  0  0  0  0
  -26.4470  -31.6607   25.0699 C   0  0  0  0  0  0
  -25.3728  -31.3756   26.1453 C   0  0  0  0  0  0
  -27.0295  -30.3043   24.6081 C   0  0  0  0  0  0
  -27.6027  -32.4338   25.7482 C   0  0  0  0  0  0
  -27.5569  -37.1803   24.8465 C   0  0  0  0  0  0
  -21.4126  -29.3031   22.3738 N   0  0  0  0  0  0
  -26.4266  -37.3820   23.9420 N   0  0  0  0  0  0
  -24.6639  -31.0791   22.0957 N   0  0  0  0  0  0
  -23.4172  -28.8240   23.3092 O   0  0  0  0  0  0
  -28.4637  -26.7877   20.0641 O   0  0  0  0  0  0
  -26.5560  -34.8956   22.4659 O   0  0  0  0  0  0
  -23.5343  -32.1454   23.7474 O   0  0  0  0  0  0
  -27.6694  -20.0518   19.1930 C   0  0  0  0  0  0
  -28.1284  -20.4563   20.4758 C   0  0  0  0  0  0
  -27.5976  -18.6905   19.2570 C   0  0  0  0  0  0
  -27.0786  -17.7422   18.2225 C   0  0  0  0  0  0
  -30.5890  -16.5290   19.2014 C   0  0  0  0  0  0
  -28.2679  -21.8570   21.0289 C   0  0  0  0  0  0
  -28.3150  -22.9611   19.9489 C   0  0  0  0  0  0
  -28.3545  -24.3859   20.5376 C   0  0  0  0  0  0
  -28.1305  -16.9854   21.1240 C   0  0  0  0  0  0
  -29.5434  -16.4224   21.3904 C   0  0  0  0  0  0
  -28.5953  -25.4857   19.4844 C   0  0  0  0  0  0
  -28.3888  -19.4069   21.2480 N   0  0  0  0  0  0
  -28.0661  -18.3158   20.5101 N   0  0  0  0  0  0
  -30.0744  -15.6407   20.2592 N   0  0  0  0  0  0
  -31.4430  -12.3491   19.1127 H   0  0  0  0  0  0
  -30.2640  -11.3042   19.8606 H   0  0  0  0  0  0
  -29.7117  -11.7475   17.4273 H   0  0  0  0  0  0
  -29.6467  -13.4624   17.7488 H   0  0  0  0  0  0
  -27.8145  -11.3030   18.8379 H   0  0  0  0  0  0
  -27.3436  -12.6064   17.7827 H   0  0  0  0  0  0
  -27.6577  -14.2549   19.5060 H   0  0  0  0  0  0
  -28.6743  -12.0869   21.4127 H   0  0  0  0  0  0
  -28.4840  -13.7794   21.7853 H   0  0  0  0  0  0
  -25.2732   -9.5640   22.4763 H   0  0  0  0  0  0
  -23.9978   -7.4593   22.7449 H   0  0  0  0  0  0
  -21.0861   -8.8775   19.8901 H   0  0  0  0  0  0
  -22.3741  -10.9648   19.6158 H   0  0  0  0  0  0
  -21.2036   -7.6163   23.9739 H   0  0  0  0  0  0
  -21.1431   -6.0528   25.9079 H   0  0  0  0  0  0
  -22.0610   -2.7627   23.2854 H   0  0  0  0  0  0
  -22.4097  -11.9760   22.4832 H   0  0  0  0  0  0
  -21.1063  -13.1100   22.2758 H   0  0  0  0  0  0
  -24.5793  -15.7981   20.4438 H   0  0  0  0  0  0
  -26.1851  -15.5941   19.9551 H   0  0  0  0  0  0
  -26.7139  -32.5540   23.1145 H   0  0  0  0  0  0
  -25.0190  -33.9781   25.0526 H   0  0  0  0  0  0
  -22.6874  -31.3027   21.4072 H   0  0  0  0  0  0
  -23.3748  -35.9617   23.3305 H   0  0  0  0  0  0
  -24.3540  -36.8893   22.2035 H   0  0  0  0  0  0
  -23.7197  -37.6513   23.6627 H   0  0  0  0  0  0
  -26.0223  -31.5886   20.5780 H   0  0  0  0  0  0
  -26.8163  -30.8960   21.9670 H   0  0  0  0  0  0
  -28.0948  -29.1236   21.1447 H   0  0  0  0  0  0
  -26.0332  -25.9633   19.0269 H   0  0  0  0  0  0
  -23.9747  -27.2724   19.0576 H   0  0  0  0  0  0
  -23.6988  -30.5692   19.3944 H   0  0  0  0  0  0
  -22.7320  -29.2119   19.8885 H   0  0  0  0  0  0
  -25.1273  -36.1964   25.0837 H   0  0  0  0  0  0
  -20.9934  -28.3194   24.1443 H   0  0  0  0  0  0
  -20.5652  -26.2252   23.3585 H   0  0  0  0  0  0
  -21.6627  -26.7432   22.1202 H   0  0  0  0  0  0
  -19.6886  -25.6299   21.1206 H   0  0  0  0  0  0
  -19.6683  -27.3193   20.6731 H   0  0  0  0  0  0
  -17.4199  -26.6691   21.3998 H   0  0  0  0  0  0
  -18.0315  -26.0020   22.8978 H   0  0  0  0  0  0
  -19.7921  -30.7276   24.2232 H   0  0  0  0  0  0
  -17.5011  -31.6264   24.5169 H   0  0  0  0  0  0
  -15.5342  -30.3007   23.7670 H   0  0  0  0  0  0
  -15.8643  -28.0825   22.7110 H   0  0  0  0  0  0
  -24.5901  -30.7097   25.7811 H   0  0  0  0  0  0
  -24.8946  -32.2949   26.4842 H   0  0  0  0  0  0
  -25.8097  -30.8977   27.0233 H   0  0  0  0  0  0
  -26.2836  -29.6836   24.1117 H   0  0  0  0  0  0
  -27.4025  -29.7262   25.4548 H   0  0  0  0  0  0
  -27.8695  -30.4348   23.9256 H   0  0  0  0  0  0
  -27.2615  -33.3639   26.2037 H   0  0  0  0  0  0
  -28.3877  -32.6879   25.0351 H   0  0  0  0  0  0
  -28.0660  -31.8482   26.5433 H   0  0  0  0  0  0
  -28.2618  -38.0077   24.7543 H   0  0  0  0  0  0
  -28.1042  -36.2625   24.6268 H   0  0  0  0  0  0
  -27.2291  -37.1425   25.8868 H   0  0  0  0  0  0
  -20.9290  -29.8733   21.6943 H   0  0  0  0  0  0
  -26.0164  -38.2901   24.1445 H   0  0  0  0  0  0
  -27.3774  -20.6735   18.3581 H   0  0  0  0  0  0
  -26.4096  -18.2646   17.5395 H   0  0  0  0  0  0
  -26.5074  -16.9281   18.6604 H   0  0  0  0  0  0
  -27.8821  -17.3132   17.6258 H   0  0  0  0  0  0
  -29.8142  -17.1685   18.7919 H   0  0  0  0  0  0
  -30.9953  -15.9732   18.3538 H   0  0  0  0  0  0
  -31.3836  -17.1743   19.5788 H   0  0  0  0  0  0
  -29.1568  -21.9236   21.6553 H   0  0  0  0  0  0
  -27.4236  -22.0545   21.6901 H   0  0  0  0  0  0
  -27.4388  -22.8841   19.3017 H   0  0  0  0  0  0
  -29.1850  -22.8010   19.3126 H   0  0  0  0  0  0
  -29.1481  -24.4472   21.2842 H   0  0  0  0  0  0
  -27.4221  -24.5850   21.0682 H   0  0  0  0  0  0
  -27.5730  -17.0290   22.0605 H   0  0  0  0  0  0
  -27.6022  -16.2875   20.4928 H   0  0  0  0  0  0
  -29.4903  -15.7836   22.2725 H   0  0  0  0  0  0
  -30.2309  -17.2236   21.6625 H   0  0  0  0  0  0
  -27.9864  -25.3502   18.5912 H   0  0  0  0  0  0
  -29.6241  -25.3976   19.1307 H   0  0  0  0  0  0
  1 25  1  0  0  0
  1 30  2  0  0  0
  1 84  1  0  0  0
  2  3  1  0  0  0
  2 25  1  0  0  0
  2 85  1  0  0  0
  2 86  1  0  0  0
  3  4  1  0  0  0
  3 87  1  0  0  0
  3 88  1  0  0  0
  4  5  1  0  0  0
  4 89  1  0  0  0
  4 90  1  0  0  0
  5  6  1  0  0  0
  5 26  1  0  0  0
  5 91  1  0  0  0
  6 25  1  0  0  0
  6 92  1  0  0  0
  6 93  1  0  0  0
  7  8  2  0  0  0
  7 26  1  0  0  0
  7 29  1  0  0  0
  8  9  1  0  0  0
  8 22  1  0  0  0
  9 10  1  0  0  0
  9 27  2  0  0  0
 10 11  2  0  0  0
 10 15  1  0  0  0
 11 12  1  0  0  0
 11 94  1  0  0  0
 12 13  2  0  0  0
 12 95  1  0  0  0
 13 14  1  0  0  0
 13 31  1  0  0  0
 14 15  2  0  0  0
 14 96  1  0  0  0
 15 97  1  0  0  0
 16 17  2  0  0  0
 16 21  1  0  0  0
 16 31  1  0  0  0
 17 18  1  0  0  0
 17 98  1  0  0  0
 18 19  2  0  0  0
 18 99  1  0  0  0
 19 20  1  0  0  0
 19 24  1  0  0  0
 20 21  2  0  0  0
 20100  1  0  0  0
 21 23  1  0  0  0
 22 28  1  0  0  0
 22 32  2  0  0  0
 26 27  1  0  0  0
 28101  1  0  0  0
 28102  1  0  0  0
 29103  1  0  0  0
 29104  1  0  0  0
 33 34  1  0  0  0
 33 66  1  0  0  0
 33 70  2  0  0  0
 34 36  1  0  0  0
 34 59  1  0  0  0
 34105  1  0  0  0
 35 44  2  0  0  0
 35 45  1  0  0  0
 35 68  1  0  0  0
 36 56  1  0  0  0
 36106  1  0  0  0
 37 39  1  0  0  0
 37 47  1  0  0  0
 37 66  1  0  0  0
 37107  1  0  0  0
 38 43  2  0  0  0
 38 46  1  0  0  0
 38 47  1  0  0  0
 39 64  1  0  0  0
 39 67  2  0  0  0
 40 52  1  0  0  0
 40 53  2  0  0  0
 40 58  1  0  0  0
 41108  1  0  0  0
 41109  1  0  0  0
 41110  1  0  0  0
 41 48  1  0  0  0
 42 43  1  0  0  0
 42 66  1  0  0  0
 42111  1  0  0  0
 42112  1  0  0  0
 43 44  1  0  0  0
 44113  1  0  0  0
 45 46  2  0  0  0
 45114  1  0  0  0
 46115  1  0  0  0
 47116  1  0  0  0
 47117  1  0  0  0
 48 56  1  0  0  0
 48 65  1  0  0  0
 48118  1  0  0  0
 49 50  1  0  0  0
 49 53  1  0  0  0
 49 64  1  0  0  0
 49119  1  0  0  0
 50 51  1  0  0  0
 50120  1  0  0  0
 50121  1  0  0  0
 51 52  1  0  0  0
 51122  1  0  0  0
 51123  1  0  0  0
 52124  1  0  0  0
 52125  1  0  0  0
 53 54  1  0  0  0
 54 55  2  0  0  0
 54126  1  0  0  0
 55 57  1  0  0  0
 55127  1  0  0  0
 56 69  2  0  0  0
 57 58  2  0  0  0
 57128  1  0  0  0
 58129  1  0  0  0
 59 60  1  0  0  0
 59 61  1  0  0  0
 59 62  1  0  0  0
 60130  1  0  0  0
 60131  1  0  0  0
 60132  1  0  0  0
 61133  1  0  0  0
 61134  1  0  0  0
 61135  1  0  0  0
 62136  1  0  0  0
 62137  1  0  0  0
 62138  1  0  0  0
 63 65  1  0  0  0
 63139  1  0  0  0
 63140  1  0  0  0
 63141  1  0  0  0
 64142  1  0  0  0
 65143  1  0  0  0
 68 81  1  0  0  0
 71 72  1  0  0  0
 71 73  2  0  0  0
 71144  1  0  0  0
 72 76  1  0  0  0
 72 82  2  0  0  0
 73 74  1  0  0  0
 73 83  1  0  0  0
 74145  1  0  0  0
 74146  1  0  0  0
 74147  1  0  0  0
 75 84  1  0  0  0
 75148  1  0  0  0
 75149  1  0  0  0
 75150  1  0  0  0
 76 77  1  0  0  0
 76151  1  0  0  0
 76152  1  0  0  0
 77 78  1  0  0  0
 77153  1  0  0  0
 77154  1  0  0  0
 78 81  1  0  0  0
 78155  1  0  0  0
 78156  1  0  0  0
 79 80  1  0  0  0
 79 83  1  0  0  0
 79157  1  0  0  0
 79158  1  0  0  0
 80 84  1  0  0  0
 80159  1  0  0  0
 80160  1  0  0  0
 81161  1  0  0  0
 81162  1  0  0  0
 82 83  1  0  0  0
M  ISO  4   1 100  68 101  81 101  84 100
M  END
> <chiral flag>
0

> <version>
0

> <s_m_source_file>
/data/baiqing/PycharmProjects/Reinvent-master-3.2/result/LINK_invent/BTK/process_docking_weight1_custom_sum_contain_oxygen_bond_distance_aromatic_linkinvent_7_9_3/rearranged_h_0071.sdf

> <i_m_source_file_index>
28

> <r_mmod_Potential_Energy-OPLS-2005>
80.9851913452148

> <r_mmod_Stretch_Energy-OPLS-2005>
35.6945571899414

> <r_mmod_Bend_Energy-OPLS-2005>
110.699829101562

> <r_mmod_Torsional_Energy-OPLS-2005>
284.979705810547

> <r_mmod_Improper_Torsional_Energy-OPLS-2005>
22.8477916717529

> <r_mmod_Van_der_Waal_Energy-OPLS-2005>
126.772018432617

> <r_mmod_Electrostatic_Energy-OPLS-2005>
-324.326446533203

> <r_mmod_Solvation_Energy-OPLS-2005>
-203.856735229492

> <b_mmod_Minimization_Converged-OPLS-2005>
0

> <r_mmod_RMS_Derivative-OPLS-2005>
3.35310363769531

$$$$
29
                    3D
 Structure written by MMmdl.
172180  0  0  1  0            999 V2000
  -30.6755  -14.6741   20.3913 C   0  0  0  0  0  0
  -30.4211  -12.3930   19.4577 C   0  0  0  0  0  0
  -29.4977  -12.4339   18.2231 C   0  0  0  0  0  0
  -28.0176  -12.3131   18.6440 C   0  0  0  0  0  0
  -27.6318  -13.2133   19.8523 C   0  0  2  0  0  0
  -28.6954  -13.1800   20.9706 C   0  0  0  0  0  0
  -25.2504  -13.8134   20.5779 C   0  0  0  0  0  0
  -24.1769  -13.0406   20.9243 C   0  0  0  0  0  0
  -24.6344  -11.6878   20.8798 C   0  0  0  0  0  0
  -23.9025  -10.4270   21.0435 C   0  0  0  0  0  0
  -24.3591   -9.4186   21.9202 C   0  0  0  0  0  0
  -23.6277   -8.2219   22.0757 C   0  0  0  0  0  0
  -22.4261   -8.0263   21.3543 C   0  0  0  0  0  0
  -21.9892   -9.0235   20.4646 C   0  0  0  0  0  0
  -22.7211  -10.2119   20.3067 C   0  0  0  0  0  0
  -21.6845   -6.0726   22.5279 C   0  0  0  0  0  0
  -21.4005   -6.5634   23.8211 C   0  0  0  0  0  0
  -21.3658   -5.6789   24.9175 C   0  0  0  0  0  0
  -21.6047   -4.3052   24.7228 C   0  0  0  0  0  0
  -21.8819   -3.8142   23.4349 C   0  0  0  0  0  0
  -21.9189   -4.6956   22.3404 C   0  0  0  0  0  0
  -22.7798  -13.5215   21.1874 C   0  0  0  0  0  0
  -22.1661   -4.2142   21.0982 F   0  0  0  0  0  0
  -21.5634   -3.4537   25.7741 F   0  0  0  0  0  0
  -29.9937  -13.4830   20.3551 N   0  0  0  0  0  0
  -26.2907  -12.9286   20.3414 N   0  0  0  0  0  0
  -25.9274  -11.6454   20.5860 N   0  0  0  0  0  0
  -22.0428  -12.8216   22.0426 N   0  0  0  0  0  0
  -25.4225  -15.1862   20.4212 N   0  0  0  0  0  0
  -31.8998  -14.6944   20.2456 O   0  0  0  0  0  0
  -21.6628   -6.8863   21.4238 O   0  0  0  0  0  0
  -22.3502  -14.5523   20.6712 O   0  0  0  0  0  0
  -24.6244  -31.8599   23.2028 C   0  0  0  0  0  0
  -25.9097  -32.4778   23.8354 C   0  0  1  0  0  0
  -27.2285  -27.3304   20.0993 C   0  0  0  0  0  0
  -25.5916  -33.8580   24.2283 N   0  0  0  0  0  0
  -23.4172  -30.4833   21.5446 C   0  0  2  0  0  0
  -24.8629  -28.9432   20.1016 C   0  0  0  0  0  0
  -22.7467  -29.4619   22.4936 C   0  0  0  0  0  0
  -18.0283  -28.1382   22.8492 C   0  0  0  0  0  0
  -24.1487  -36.7294   23.2639 C   0  0  0  0  0  0
  -25.9565  -30.7917   21.3735 C   0  0  0  0  0  0
  -26.0278  -29.4218   20.7116 C   0  0  0  0  0  0
  -27.2044  -28.6208   20.7114 C   0  0  0  0  0  0
  -26.0389  -26.9029   19.4710 C   0  0  0  0  0  0
  -24.8698  -27.6877   19.4747 C   0  0  0  0  0  0
  -23.6291  -29.8194   20.1578 C   0  0  0  0  0  0
  -25.4113  -36.3090   24.0332 C   0  0  1  0  0  0
  -20.5883  -28.3682   23.1289 C   0  0  2  0  0  0
  -20.6771  -26.9406   22.5415 C   0  0  0  0  0  0
  -19.5746  -26.6385   21.5216 C   0  0  0  0  0  0
  -18.1927  -26.7928   22.1627 C   0  0  0  0  0  0
  -19.1536  -28.8850   23.2887 C   0  0  0  0  0  0
  -18.9459  -30.1453   23.8901 C   0  0  0  0  0  0
  -17.6459  -30.6586   24.0564 C   0  0  0  0  0  0
  -25.9048  -34.9455   23.5111 C   0  0  0  0  0  0
  -16.5350  -29.9085   23.6329 C   0  0  0  0  0  0
  -16.7270  -28.6501   23.0355 C   0  0  0  0  0  0
  -26.4489  -31.6589   25.0722 C   0  0  0  0  0  0
  -25.3729  -31.3716   26.1452 C   0  0  0  0  0  0
  -27.0331  -30.3016   24.6171 C   0  0  0  0  0  0
  -27.6052  -32.4323   25.7490 C   0  0  0  0  0  0
  -27.5581  -37.1805   24.8466 C   0  0  0  0  0  0
  -21.4181  -29.3036   22.3682 N   0  0  0  0  0  0
  -26.4293  -37.3783   23.9407 N   0  0  0  0  0  0
  -24.6846  -31.0619   22.0972 N   0  0  0  0  0  0
  -23.4197  -28.8163   23.3015 O   0  0  0  0  0  0
  -28.3552  -26.5077   20.2523 O   0  0  0  0  0  0
  -26.5620  -34.8921   22.4680 O   0  0  0  0  0  0
  -23.5413  -32.1397   23.7366 O   0  0  0  0  0  0
  -27.9829  -21.6623   20.2359 C   0  0  0  0  0  0
  -27.8001  -23.0806   20.1819 C   0  0  0  0  0  0
  -29.2716  -21.1043   20.0428 C   0  0  0  0  0  0
  -28.9222  -23.9178   19.8916 C   0  0  0  0  0  0
  -26.4023  -23.6326   20.3656 C   0  0  0  0  0  0
  -30.6125  -19.4249   18.7059 C   0  0  0  0  0  0
  -30.2846  -26.0123   19.2624 C   0  0  0  0  0  0
  -28.3063  -25.4529   17.9183 C   0  0  0  0  0  0
  -30.4691  -19.2926   22.1355 C   0  0  0  0  0  0
  -28.3505  -18.1234   21.5787 C   0  0  0  0  0  0
  -29.4813  -16.1097   18.9055 C   0  0  0  0  0  0
  -30.5813  -17.1579   20.7782 C   0  0  0  0  0  0
  -29.5180  -19.5538   19.7896 C   0  0  1  0  0  0
  -28.8514  -25.4320   19.3638 C   0  0  0  0  0  0
  -29.7317  -18.5209   21.0176 C   0  0  0  0  0  0
  -30.3226  -21.9639   19.9168 N   0  0  0  0  0  0
  -30.1419  -23.2977   19.7984 N   0  0  0  0  0  0
  -29.9719  -15.8649   20.2691 N   0  0  0  0  0  0
  -31.4636  -12.4901   19.1493 H   0  0  0  0  0  0
  -30.3451  -11.4308   19.9666 H   0  0  0  0  0  0
  -29.7517  -11.6184   17.5446 H   0  0  0  0  0  0
  -29.6635  -13.3469   17.6531 H   0  0  0  0  0  0
  -27.8475  -11.2677   18.9035 H   0  0  0  0  0  0
  -27.3646  -12.5200   17.7954 H   0  0  0  0  0  0
  -27.5810  -14.2275   19.4793 H   0  0  0  0  0  0
  -28.7215  -12.2043   21.4578 H   0  0  0  0  0  0
  -28.4582  -13.9119   21.7448 H   0  0  0  0  0  0
  -25.2733   -9.5668   22.4779 H   0  0  0  0  0  0
  -23.9990   -7.4608   22.7470 H   0  0  0  0  0  0
  -21.0828   -8.8748   19.8948 H   0  0  0  0  0  0
  -22.3670  -10.9662   19.6180 H   0  0  0  0  0  0
  -21.1989   -7.6141   23.9712 H   0  0  0  0  0  0
  -21.1485   -6.0521   25.9079 H   0  0  0  0  0  0
  -22.0599   -2.7604   23.2850 H   0  0  0  0  0  0
  -22.4037  -11.9881   22.4828 H   0  0  0  0  0  0
  -21.1043  -13.1246   22.2613 H   0  0  0  0  0  0
  -24.6625  -15.8461   20.5443 H   0  0  0  0  0  0
  -26.2907  -15.6263   20.1447 H   0  0  0  0  0  0
  -26.7162  -32.5446   23.1098 H   0  0  0  0  0  0
  -25.0061  -33.9721   25.0427 H   0  0  0  0  0  0
  -22.7104  -31.3036   21.4033 H   0  0  0  0  0  0
  -23.3751  -35.9625   23.3311 H   0  0  0  0  0  0
  -24.3577  -36.8905   22.2051 H   0  0  0  0  0  0
  -23.7236  -37.6497   23.6654 H   0  0  0  0  0  0
  -26.0892  -31.5571   20.6077 H   0  0  0  0  0  0
  -26.8368  -30.8368   22.0031 H   0  0  0  0  0  0
  -28.0930  -28.9757   21.2145 H   0  0  0  0  0  0
  -25.9614  -25.9357   19.0129 H   0  0  0  0  0  0
  -23.9736  -27.3093   19.0023 H   0  0  0  0  0  0
  -23.7428  -30.5964   19.4011 H   0  0  0  0  0  0
  -22.7501  -29.2455   19.8588 H   0  0  0  0  0  0
  -25.1297  -36.1948   25.0826 H   0  0  0  0  0  0
  -20.9977  -28.3257   24.1409 H   0  0  0  0  0  0
  -20.5672  -26.2293   23.3615 H   0  0  0  0  0  0
  -21.6639  -26.7437   22.1206 H   0  0  0  0  0  0
  -19.6905  -25.6298   21.1242 H   0  0  0  0  0  0
  -19.6682  -27.3198   20.6749 H   0  0  0  0  0  0
  -17.4198  -26.6680   21.4028 H   0  0  0  0  0  0
  -18.0320  -26.0070   22.9022 H   0  0  0  0  0  0
  -19.7934  -30.7270   24.2273 H   0  0  0  0  0  0
  -17.5011  -31.6266   24.5165 H   0  0  0  0  0  0
  -15.5349  -30.2989   23.7649 H   0  0  0  0  0  0
  -15.8671  -28.0818   22.7073 H   0  0  0  0  0  0
  -24.5909  -30.7060   25.7780 H   0  0  0  0  0  0
  -24.8914  -32.2875   26.4888 H   0  0  0  0  0  0
  -25.8062  -30.8889   27.0221 H   0  0  0  0  0  0
  -26.2900  -29.6767   24.1203 H   0  0  0  0  0  0
  -27.4034  -29.7273   25.4672 H   0  0  0  0  0  0
  -27.8770  -30.4305   23.9391 H   0  0  0  0  0  0
  -27.2667  -33.3621   26.2073 H   0  0  0  0  0  0
  -28.3859  -32.6885   25.0316 H   0  0  0  0  0  0
  -28.0725  -31.8446   26.5401 H   0  0  0  0  0  0
  -28.2608  -38.0094   24.7512 H   0  0  0  0  0  0
  -28.1071  -36.2627   24.6303 H   0  0  0  0  0  0
  -27.2299  -37.1465   25.8870 H   0  0  0  0  0  0
  -20.9354  -29.8760   21.6897 H   0  0  0  0  0  0
  -26.0182  -38.2862   24.1399 H   0  0  0  0  0  0
  -27.1335  -21.0056   20.3585 H   0  0  0  0  0  0
  -25.7949  -22.9547   20.9661 H   0  0  0  0  0  0
  -25.9068  -23.7535   19.4031 H   0  0  0  0  0  0
  -26.4281  -24.5864   20.8903 H   0  0  0  0  0  0
  -30.3941  -20.0725   17.8562 H   0  0  0  0  0  0
  -30.7037  -18.4243   18.3034 H   0  0  0  0  0  0
  -31.5904  -19.7101   19.0948 H   0  0  0  0  0  0
  -30.9099  -25.4549   18.5641 H   0  0  0  0  0  0
  -30.7850  -26.0029   20.2317 H   0  0  0  0  0  0
  -30.2750  -27.0452   18.9120 H   0  0  0  0  0  0
  -27.3461  -24.9523   17.8245 H   0  0  0  0  0  0
  -28.9773  -24.9130   17.2498 H   0  0  0  0  0  0
  -28.2111  -26.4674   17.5315 H   0  0  0  0  0  0
  -30.6139  -18.6828   23.0279 H   0  0  0  0  0  0
  -29.9188  -20.1768   22.4580 H   0  0  0  0  0  0
  -31.4536  -19.6227   21.8023 H   0  0  0  0  0  0
  -28.4457  -17.4697   22.4467 H   0  0  0  0  0  0
  -27.7471  -17.5937   20.8422 H   0  0  0  0  0  0
  -27.7791  -18.9978   21.8917 H   0  0  0  0  0  0
  -28.7718  -16.9332   18.8663 H   0  0  0  0  0  0
  -28.9930  -15.2621   18.4431 H   0  0  0  0  0  0
  -30.3167  -16.3331   18.2426 H   0  0  0  0  0  0
  -30.9878  -16.8734   21.7507 H   0  0  0  0  0  0
  -31.4764  -17.3782   20.1954 H   0  0  0  0  0  0
  -28.6081  -19.2304   19.2827 H   0  0  0  0  0  0
  1 25  1  0  0  0
  1 30  2  0  0  0
  1 88  1  0  0  0
  2  3  1  0  0  0
  2 25  1  0  0  0
  2 89  1  0  0  0
  2 90  1  0  0  0
  3  4  1  0  0  0
  3 91  1  0  0  0
  3 92  1  0  0  0
  4  5  1  0  0  0
  4 93  1  0  0  0
  4 94  1  0  0  0
  5  6  1  0  0  0
  5 26  1  0  0  0
  5 95  1  0  0  0
  6 25  1  0  0  0
  6 96  1  0  0  0
  6 97  1  0  0  0
  7  8  2  0  0  0
  7 26  1  0  0  0
  7 29  1  0  0  0
  8  9  1  0  0  0
  8 22  1  0  0  0
  9 10  1  0  0  0
  9 27  2  0  0  0
 10 11  2  0  0  0
 10 15  1  0  0  0
 11 12  1  0  0  0
 11 98  1  0  0  0
 12 13  2  0  0  0
 12 99  1  0  0  0
 13 14  1  0  0  0
 13 31  1  0  0  0
 14 15  2  0  0  0
 14100  1  0  0  0
 15101  1  0  0  0
 16 17  2  0  0  0
 16 21  1  0  0  0
 16 31  1  0  0  0
 17 18  1  0  0  0
 17102  1  0  0  0
 18 19  2  0  0  0
 18103  1  0  0  0
 19 20  1  0  0  0
 19 24  1  0  0  0
 20 21  2  0  0  0
 20104  1  0  0  0
 21 23  1  0  0  0
 22 28  1  0  0  0
 22 32  2  0  0  0
 26 27  1  0  0  0
 28105  1  0  0  0
 28106  1  0  0  0
 29107  1  0  0  0
 29108  1  0  0  0
 33 34  1  0  0  0
 33 66  1  0  0  0
 33 70  2  0  0  0
 34 36  1  0  0  0
 34 59  1  0  0  0
 34109  1  0  0  0
 35 44  2  0  0  0
 35 45  1  0  0  0
 35 68  1  0  0  0
 36 56  1  0  0  0
 36110  1  0  0  0
 37 39  1  0  0  0
 37 47  1  0  0  0
 37 66  1  0  0  0
 37111  1  0  0  0
 38 43  2  0  0  0
 38 46  1  0  0  0
 38 47  1  0  0  0
 39 64  1  0  0  0
 39 67  2  0  0  0
 40 52  1  0  0  0
 40 53  2  0  0  0
 40 58  1  0  0  0
 41112  1  0  0  0
 41113  1  0  0  0
 41114  1  0  0  0
 41 48  1  0  0  0
 42 43  1  0  0  0
 42 66  1  0  0  0
 42115  1  0  0  0
 42116  1  0  0  0
 43 44  1  0  0  0
 44117  1  0  0  0
 45 46  2  0  0  0
 45118  1  0  0  0
 46119  1  0  0  0
 47120  1  0  0  0
 47121  1  0  0  0
 48 56  1  0  0  0
 48 65  1  0  0  0
 48122  1  0  0  0
 49 50  1  0  0  0
 49 53  1  0  0  0
 49 64  1  0  0  0
 49123  1  0  0  0
 50 51  1  0  0  0
 50124  1  0  0  0
 50125  1  0  0  0
 51 52  1  0  0  0
 51126  1  0  0  0
 51127  1  0  0  0
 52128  1  0  0  0
 52129  1  0  0  0
 53 54  1  0  0  0
 54 55  2  0  0  0
 54130  1  0  0  0
 55 57  1  0  0  0
 55131  1  0  0  0
 56 69  2  0  0  0
 57 58  2  0  0  0
 57132  1  0  0  0
 58133  1  0  0  0
 59 60  1  0  0  0
 59 61  1  0  0  0
 59 62  1  0  0  0
 60134  1  0  0  0
 60135  1  0  0  0
 60136  1  0  0  0
 61137  1  0  0  0
 61138  1  0  0  0
 61139  1  0  0  0
 62140  1  0  0  0
 62141  1  0  0  0
 62142  1  0  0  0
 63 65  1  0  0  0
 63143  1  0  0  0
 63144  1  0  0  0
 63145  1  0  0  0
 64146  1  0  0  0
 65147  1  0  0  0
 68 84  1  0  0  0
 71 72  2  0  0  0
 71 73  1  0  0  0
 71148  1  0  0  0
 72 74  1  0  0  0
 72 75  1  0  0  0
 73 83  1  0  0  0
 73 86  2  0  0  0
 74 84  1  0  0  0
 74 87  2  0  0  0
 75149  1  0  0  0
 75150  1  0  0  0
 75151  1  0  0  0
 76152  1  0  0  0
 76153  1  0  0  0
 76154  1  0  0  0
 76 83  1  0  0  0
 77155  1  0  0  0
 77156  1  0  0  0
 77157  1  0  0  0
 77 84  1  0  0  0
 78 84  1  0  0  0
 78158  1  0  0  0
 78159  1  0  0  0
 78160  1  0  0  0
 79161  1  0  0  0
 79162  1  0  0  0
 79163  1  0  0  0
 79 85  1  0  0  0
 80 85  1  0  0  0
 80164  1  0  0  0
 80165  1  0  0  0
 80166  1  0  0  0
 81 88  1  0  0  0
 81167  1  0  0  0
 81168  1  0  0  0
 81169  1  0  0  0
 82 85  1  0  0  0
 82 88  1  0  0  0
 82170  1  0  0  0
 82171  1  0  0  0
 83 85  1  0  0  0
 83172  1  0  0  0
 86 87  1  0  0  0
M  ISO  4   1 100  68 101  84 101  88 100
M  END
> <chiral flag>
0

> <version>
0

> <s_m_source_file>
/data/baiqing/PycharmProjects/Reinvent-master-3.2/result/LINK_invent/BTK/process_docking_weight1_custom_sum_contain_oxygen_bond_distance_aromatic_linkinvent_7_9_3/rearranged_h_0071.sdf

> <i_m_source_file_index>
29

> <r_mmod_Potential_Energy-OPLS-2005>
480.859710693359

> <r_mmod_Stretch_Energy-OPLS-2005>
107.379348754883

> <r_mmod_Bend_Energy-OPLS-2005>
234.13362121582

> <r_mmod_Torsional_Energy-OPLS-2005>
337.473052978516

> <r_mmod_Improper_Torsional_Energy-OPLS-2005>
15.2177963256836

> <r_mmod_Van_der_Waal_Energy-OPLS-2005>
161.54997253418

> <r_mmod_Electrostatic_Energy-OPLS-2005>
-242.011413574219

> <r_mmod_Solvation_Energy-OPLS-2005>
-200.622817993164

> <b_mmod_Minimization_Converged-OPLS-2005>
0

> <r_mmod_RMS_Derivative-OPLS-2005>
0.405728757381439

$$$$
30
                    3D
 Structure written by MMmdl.
158166  0  0  1  0            999 V2000
  -30.4944  -14.9719   20.4419 C   0  0  0  0  0  0
  -30.4540  -12.5969   19.5124 C   0  0  0  0  0  0
  -29.5330  -12.5348   18.2682 C   0  0  0  0  0  0
  -28.0648  -12.3018   18.6781 C   0  0  0  0  0  0
  -27.6313  -13.2311   19.8383 C   0  0  2  0  0  0
  -28.6711  -13.2546   20.9814 C   0  0  0  0  0  0
  -25.2493  -13.8163   20.5694 C   0  0  0  0  0  0
  -24.1783  -13.0404   20.9206 C   0  0  0  0  0  0
  -24.6383  -11.6889   20.8741 C   0  0  0  0  0  0
  -23.9060  -10.4276   21.0418 C   0  0  0  0  0  0
  -24.3620   -9.4205   21.9204 C   0  0  0  0  0  0
  -23.6299   -8.2243   22.0770 C   0  0  0  0  0  0
  -22.4285   -8.0270   21.3555 C   0  0  0  0  0  0
  -21.9920   -9.0236   20.4661 C   0  0  0  0  0  0
  -22.7234  -10.2118   20.3071 C   0  0  0  0  0  0
  -21.6828   -6.0761   22.5276 C   0  0  0  0  0  0
  -21.4001   -6.5666   23.8215 C   0  0  0  0  0  0
  -21.3666   -5.6807   24.9165 C   0  0  0  0  0  0
  -21.6050   -4.3073   24.7215 C   0  0  0  0  0  0
  -21.8817   -3.8177   23.4324 C   0  0  0  0  0  0
  -21.9185   -4.7001   22.3391 C   0  0  0  0  0  0
  -22.7813  -13.5204   21.1867 C   0  0  0  0  0  0
  -22.1652   -4.2205   21.0960 F   0  0  0  0  0  0
  -21.5637   -3.4543   25.7720 F   0  0  0  0  0  0
  -29.9548  -13.6819   20.4063 N   0  0  0  0  0  0
  -26.2890  -12.9347   20.3220 N   0  0  0  0  0  0
  -25.9312  -11.6496   20.5725 N   0  0  0  0  0  0
  -22.0464  -12.8184   22.0429 N   0  0  0  0  0  0
  -25.4178  -15.1889   20.4166 N   0  0  0  0  0  0
  -31.6772  -15.0706   20.0839 O   0  0  0  0  0  0
  -21.6623   -6.8893   21.4236 O   0  0  0  0  0  0
  -22.3486  -14.5498   20.6719 O   0  0  0  0  0  0
  -24.6425  -31.8450   23.1908 C   0  0  0  0  0  0
  -25.9200  -32.4697   23.8289 C   0  0  1  0  0  0
  -27.2192  -27.1439   20.1509 C   0  0  0  0  0  0
  -25.5959  -33.8506   24.2189 N   0  0  0  0  0  0
  -23.4448  -30.4667   21.5376 C   0  0  2  0  0  0
  -24.8945  -28.8966   20.1132 C   0  0  0  0  0  0
  -22.7557  -29.4550   22.4867 C   0  0  0  0  0  0
  -18.0304  -28.1376   22.8481 C   0  0  0  0  0  0
  -24.1491  -36.7239   23.2647 C   0  0  0  0  0  0
  -26.0024  -30.7207   21.3915 C   0  0  0  0  0  0
  -26.0735  -29.3350   20.7288 C   0  0  0  0  0  0
  -27.2362  -28.4759   20.7310 C   0  0  0  0  0  0
  -26.0146  -26.8117   19.4888 C   0  0  0  0  0  0
  -24.8779  -27.6469   19.4784 C   0  0  0  0  0  0
  -23.6699  -29.7973   20.1571 C   0  0  0  0  0  0
  -25.4131  -36.3029   24.0314 C   0  0  1  0  0  0
  -20.5923  -28.3696   23.1238 C   0  0  2  0  0  0
  -20.6792  -26.9394   22.5411 C   0  0  0  0  0  0
  -19.5753  -26.6351   21.5228 C   0  0  0  0  0  0
  -18.1931  -26.7913   22.1627 C   0  0  0  0  0  0
  -19.1568  -28.8855   23.2848 C   0  0  0  0  0  0
  -18.9482  -30.1463   23.8847 C   0  0  0  0  0  0
  -17.6476  -30.6574   24.0554 C   0  0  0  0  0  0
  -25.9085  -34.9410   23.5058 C   0  0  0  0  0  0
  -16.5366  -29.9053   23.6351 C   0  0  0  0  0  0
  -16.7291  -28.6482   23.0357 C   0  0  0  0  0  0
  -26.4518  -31.6578   25.0738 C   0  0  0  0  0  0
  -25.3690  -31.3779   26.1426 C   0  0  0  0  0  0
  -27.0410  -30.2974   24.6355 C   0  0  0  0  0  0
  -27.6054  -32.4350   25.7514 C   0  0  0  0  0  0
  -27.5568  -37.1779   24.8461 C   0  0  0  0  0  0
  -21.4254  -29.3018   22.3602 N   0  0  0  0  0  0
  -26.4280  -37.3748   23.9408 N   0  0  0  0  0  0
  -24.7161  -31.0318   22.0942 N   0  0  0  0  0  0
  -23.4212  -28.8093   23.3008 O   0  0  0  0  0  0
  -28.2761  -26.1577   20.2107 O   0  0  0  0  0  0
  -26.5660  -34.8898   22.4628 O   0  0  0  0  0  0
  -23.5545  -32.1316   23.7145 O   0  0  0  0  0  0
  -30.9169  -18.6128   19.8713 C   0  0  0  0  0  0
  -29.8750  -17.9192   20.4543 C   0  0  0  0  0  0
  -29.4113  -20.2805   20.3322 C   0  0  0  0  0  0
  -32.6498  -20.5005   18.3733 C   0  0  0  0  0  0
  -27.3264  -24.5157   21.7722 C   0  0  0  0  0  0
  -28.6046  -21.7140   20.4942 C   0  0  0  0  0  0
  -29.0502  -23.3244   20.2185 C   0  0  0  0  0  0
  -31.5005  -21.0370   19.2522 C   0  0  0  0  0  0
  -27.9829  -24.6304   20.3839 C   0  0  2  0  0  0
  -29.6228  -16.3451   20.8533 C   0  0  0  0  0  0
  -30.6209  -19.9876   19.7952 N   0  0  0  0  0  0
  -28.9790  -19.0116   20.7039 N   0  3  0  0  0  0
  -28.3729  -16.1541   20.4384 F   0  0  0  0  0  0
  -29.5805  -16.3617   22.1855 F   0  0  0  0  0  0
  -31.4878  -12.7639   19.2074 H   0  0  0  0  0  0
  -30.4543  -11.6421   20.0404 H   0  0  0  0  0  0
  -29.8617  -11.7407   17.5977 H   0  0  0  0  0  0
  -29.6142  -13.4667   17.7062 H   0  0  0  0  0  0
  -27.9692  -11.2604   18.9861 H   0  0  0  0  0  0
  -27.4036  -12.4280   17.8208 H   0  0  0  0  0  0
  -27.5834  -14.2207   19.3903 H   0  0  0  0  0  0
  -28.7617  -12.2739   21.4509 H   0  0  0  0  0  0
  -28.3583  -13.9362   21.7731 H   0  0  0  0  0  0
  -25.2767   -9.5686   22.4776 H   0  0  0  0  0  0
  -24.0030   -7.4632   22.7472 H   0  0  0  0  0  0
  -21.0872   -8.8715   19.8961 H   0  0  0  0  0  0
  -22.3685  -10.9645   19.6175 H   0  0  0  0  0  0
  -21.1971   -7.6169   23.9727 H   0  0  0  0  0  0
  -21.1488   -6.0533   25.9067 H   0  0  0  0  0  0
  -22.0599   -2.7649   23.2777 H   0  0  0  0  0  0
  -22.4077  -11.9835   22.4794 H   0  0  0  0  0  0
  -21.1094  -13.1232   22.2653 H   0  0  0  0  0  0
  -24.6535  -15.8428   20.5412 H   0  0  0  0  0  0
  -26.2780  -15.6354   20.1251 H   0  0  0  0  0  0
  -26.7260  -32.5300   23.1017 H   0  0  0  0  0  0
  -25.0120  -33.9624   25.0346 H   0  0  0  0  0  0
  -22.7466  -31.2926   21.3845 H   0  0  0  0  0  0
  -23.3771  -35.9548   23.3298 H   0  0  0  0  0  0
  -24.3574  -36.8880   22.2062 H   0  0  0  0  0  0
  -23.7224  -37.6421   23.6695 H   0  0  0  0  0  0
  -26.1660  -31.4799   20.6259 H   0  0  0  0  0  0
  -26.8700  -30.7623   22.0395 H   0  0  0  0  0  0
  -28.1343  -28.8072   21.2323 H   0  0  0  0  0  0
  -25.9131  -25.8684   18.9764 H   0  0  0  0  0  0
  -23.9787  -27.3059   18.9839 H   0  0  0  0  0  0
  -23.7970  -30.5712   19.3986 H   0  0  0  0  0  0
  -22.7848  -29.2358   19.8531 H   0  0  0  0  0  0
  -25.1323  -36.1853   25.0804 H   0  0  0  0  0  0
  -21.0026  -28.3287   24.1358 H   0  0  0  0  0  0
  -20.5697  -26.2301   23.3630 H   0  0  0  0  0  0
  -21.6655  -26.7392   22.1200 H   0  0  0  0  0  0
  -19.6918  -25.6257   21.1259 H   0  0  0  0  0  0
  -19.6704  -27.3161   20.6759 H   0  0  0  0  0  0
  -17.4217  -26.6680   21.4012 H   0  0  0  0  0  0
  -18.0303  -26.0050   22.9011 H   0  0  0  0  0  0
  -19.7965  -30.7303   24.2167 H   0  0  0  0  0  0
  -17.5029  -31.6256   24.5149 H   0  0  0  0  0  0
  -15.5364  -30.2931   23.7716 H   0  0  0  0  0  0
  -15.8692  -28.0794   22.7079 H   0  0  0  0  0  0
  -24.5871  -30.7125   25.7740 H   0  0  0  0  0  0
  -24.8877  -32.2966   26.4790 H   0  0  0  0  0  0
  -25.7950  -30.8984   27.0248 H   0  0  0  0  0  0
  -26.3060  -29.6675   24.1334 H   0  0  0  0  0  0
  -27.3978  -29.7300   25.4963 H   0  0  0  0  0  0
  -27.8975  -30.4209   23.9725 H   0  0  0  0  0  0
  -27.2664  -33.3686   26.2017 H   0  0  0  0  0  0
  -28.3901  -32.6851   25.0361 H   0  0  0  0  0  0
  -28.0682  -31.8522   26.5486 H   0  0  0  0  0  0
  -28.2581  -38.0080   24.7522 H   0  0  0  0  0  0
  -28.1058  -36.2610   24.6273 H   0  0  0  0  0  0
  -27.2274  -37.1414   25.8856 H   0  0  0  0  0  0
  -20.9450  -29.8713   21.6772 H   0  0  0  0  0  0
  -26.0140  -38.2803   24.1435 H   0  0  0  0  0  0
  -31.8518  -18.2063   19.5150 H   0  0  0  0  0  0
  -33.3290  -19.8513   18.9295 H   0  0  0  0  0  0
  -33.2477  -21.3235   17.9829 H   0  0  0  0  0  0
  -32.2714  -19.9380   17.5170 H   0  0  0  0  0  0
  -26.9308  -23.5151   21.9431 H   0  0  0  0  0  0
  -26.4872  -25.2015   21.8889 H   0  0  0  0  0  0
  -28.0420  -24.7283   22.5663 H   0  0  0  0  0  0
  -28.2883  -21.6741   21.5355 H   0  0  0  0  0  0
  -27.6937  -21.5504   19.9215 H   0  0  0  0  0  0
  -29.4306  -23.3810   19.1992 H   0  0  0  0  0  0
  -29.9134  -23.5284   20.8533 H   0  0  0  0  0  0
  -30.8848  -21.7143   18.6593 H   0  0  0  0  0  0
  -31.8934  -21.6040   20.0989 H   0  0  0  0  0  0
  -27.2120  -24.3938   19.6551 H   0  0  0  0  0  0
  -28.0743  -18.8672   21.1357 H   0  0  0  0  0  0
  1 25  1  0  0  0
  1 30  2  0  0  0
  1 80  1  0  0  0
  2  3  1  0  0  0
  2 25  1  0  0  0
  2 85  1  0  0  0
  2 86  1  0  0  0
  3  4  1  0  0  0
  3 87  1  0  0  0
  3 88  1  0  0  0
  4  5  1  0  0  0
  4 89  1  0  0  0
  4 90  1  0  0  0
  5  6  1  0  0  0
  5 26  1  0  0  0
  5 91  1  0  0  0
  6 25  1  0  0  0
  6 92  1  0  0  0
  6 93  1  0  0  0
  7  8  2  0  0  0
  7 26  1  0  0  0
  7 29  1  0  0  0
  8  9  1  0  0  0
  8 22  1  0  0  0
  9 10  1  0  0  0
  9 27  2  0  0  0
 10 11  2  0  0  0
 10 15  1  0  0  0
 11 12  1  0  0  0
 11 94  1  0  0  0
 12 13  2  0  0  0
 12 95  1  0  0  0
 13 14  1  0  0  0
 13 31  1  0  0  0
 14 15  2  0  0  0
 14 96  1  0  0  0
 15 97  1  0  0  0
 16 17  2  0  0  0
 16 21  1  0  0  0
 16 31  1  0  0  0
 17 18  1  0  0  0
 17 98  1  0  0  0
 18 19  2  0  0  0
 18 99  1  0  0  0
 19 20  1  0  0  0
 19 24  1  0  0  0
 20 21  2  0  0  0
 20100  1  0  0  0
 21 23  1  0  0  0
 22 28  1  0  0  0
 22 32  2  0  0  0
 26 27  1  0  0  0
 28101  1  0  0  0
 28102  1  0  0  0
 29103  1  0  0  0
 29104  1  0  0  0
 33 34  1  0  0  0
 33 66  1  0  0  0
 33 70  2  0  0  0
 34 36  1  0  0  0
 34 59  1  0  0  0
 34105  1  0  0  0
 35 44  2  0  0  0
 35 45  1  0  0  0
 35 68  1  0  0  0
 36 56  1  0  0  0
 36106  1  0  0  0
 37 39  1  0  0  0
 37 47  1  0  0  0
 37 66  1  0  0  0
 37107  1  0  0  0
 38 43  2  0  0  0
 38 46  1  0  0  0
 38 47  1  0  0  0
 39 64  1  0  0  0
 39 67  2  0  0  0
 40 52  1  0  0  0
 40 53  2  0  0  0
 40 58  1  0  0  0
 41108  1  0  0  0
 41109  1  0  0  0
 41110  1  0  0  0
 41 48  1  0  0  0
 42 43  1  0  0  0
 42 66  1  0  0  0
 42111  1  0  0  0
 42112  1  0  0  0
 43 44  1  0  0  0
 44113  1  0  0  0
 45 46  2  0  0  0
 45114  1  0  0  0
 46115  1  0  0  0
 47116  1  0  0  0
 47117  1  0  0  0
 48 56  1  0  0  0
 48 65  1  0  0  0
 48118  1  0  0  0
 49 50  1  0  0  0
 49 53  1  0  0  0
 49 64  1  0  0  0
 49119  1  0  0  0
 50 51  1  0  0  0
 50120  1  0  0  0
 50121  1  0  0  0
 51 52  1  0  0  0
 51122  1  0  0  0
 51123  1  0  0  0
 52124  1  0  0  0
 52125  1  0  0  0
 53 54  1  0  0  0
 54 55  2  0  0  0
 54126  1  0  0  0
 55 57  1  0  0  0
 55127  1  0  0  0
 56 69  2  0  0  0
 57 58  2  0  0  0
 57128  1  0  0  0
 58129  1  0  0  0
 59 60  1  0  0  0
 59 61  1  0  0  0
 59 62  1  0  0  0
 60130  1  0  0  0
 60131  1  0  0  0
 60132  1  0  0  0
 61133  1  0  0  0
 61134  1  0  0  0
 61135  1  0  0  0
 62136  1  0  0  0
 62137  1  0  0  0
 62138  1  0  0  0
 63 65  1  0  0  0
 63139  1  0  0  0
 63140  1  0  0  0
 63141  1  0  0  0
 64142  1  0  0  0
 65143  1  0  0  0
 68 79  1  0  0  0
 71 72  2  0  0  0
 71 81  1  0  0  0
 71144  1  0  0  0
 72 80  1  0  0  0
 72 82  1  0  0  0
 73 76  1  0  0  0
 73 81  1  0  0  0
 73 82  2  0  0  0
 74 78  1  0  0  0
 74145  1  0  0  0
 74146  1  0  0  0
 74147  1  0  0  0
 75148  1  0  0  0
 75149  1  0  0  0
 75150  1  0  0  0
 75 79  1  0  0  0
 76 77  1  0  0  0
 76151  1  0  0  0
 76152  1  0  0  0
 77 79  1  0  0  0
 77153  1  0  0  0
 77154  1  0  0  0
 78 81  1  0  0  0
 78155  1  0  0  0
 78156  1  0  0  0
 79157  1  0  0  0
 80 83  1  0  0  0
 80 84  1  0  0  0
 82158  1  0  0  0
M  CHG  1  82   1
M  ISO  4   1 100  68 101  79 101  80 100
M  END
> <chiral flag>
0

> <version>
0

> <s_m_source_file>
/data/baiqing/PycharmProjects/Reinvent-master-3.2/result/LINK_invent/BTK/process_docking_weight1_custom_sum_contain_oxygen_bond_distance_aromatic_linkinvent_7_9_3/rearranged_h_0071.sdf

> <i_m_source_file_index>
30

> <r_mmod_Potential_Energy-OPLS-2005>
511.978332519531

> <r_mmod_Stretch_Energy-OPLS-2005>
270.621490478516

> <r_mmod_Bend_Energy-OPLS-2005>
268.348724365234

> <r_mmod_Torsional_Energy-OPLS-2005>
200.766464233398

> <r_mmod_Improper_Torsional_Energy-OPLS-2005>
2.05619192123413

> <r_mmod_Van_der_Waal_Energy-OPLS-2005>
114.844444274902

> <r_mmod_Electrostatic_Energy-OPLS-2005>
-148.534729003906

> <r_mmod_Solvation_Energy-OPLS-2005>
-393.110778808594

> <b_mmod_Minimization_Converged-OPLS-2005>
0

> <r_mmod_RMS_Derivative-OPLS-2005>
2.38692998886108

$$$$
31
                    3D
 Structure written by MMmdl.
184192  0  0  1  0            999 V2000
  -30.7518  -14.4515   20.5473 C   0  0  0  0  0  0
  -30.4078  -12.2823   19.4571 C   0  0  0  0  0  0
  -29.5037  -12.4988   18.2280 C   0  0  0  0  0  0
  -28.0212  -12.3735   18.6269 C   0  0  0  0  0  0
  -27.6625  -13.2224   19.8775 C   0  0  2  0  0  0
  -28.7010  -13.0412   21.0101 C   0  0  0  0  0  0
  -25.2564  -13.8197   20.5659 C   0  0  0  0  0  0
  -24.1834  -13.0450   20.9146 C   0  0  0  0  0  0
  -24.6413  -11.6924   20.8713 C   0  0  0  0  0  0
  -23.9086  -10.4297   21.0396 C   0  0  0  0  0  0
  -24.3631   -9.4200   21.9167 C   0  0  0  0  0  0
  -23.6294   -8.2240   22.0740 C   0  0  0  0  0  0
  -22.4270   -8.0281   21.3538 C   0  0  0  0  0  0
  -21.9920   -9.0254   20.4630 C   0  0  0  0  0  0
  -22.7261  -10.2134   20.3043 C   0  0  0  0  0  0
  -21.6854   -6.0722   22.5268 C   0  0  0  0  0  0
  -21.4019   -6.5625   23.8204 C   0  0  0  0  0  0
  -21.3666   -5.6780   24.9167 C   0  0  0  0  0  0
  -21.6052   -4.3039   24.7218 C   0  0  0  0  0  0
  -21.8821   -3.8134   23.4337 C   0  0  0  0  0  0
  -21.9196   -4.6950   22.3397 C   0  0  0  0  0  0
  -22.7847  -13.5212   21.1816 C   0  0  0  0  0  0
  -22.1660   -4.2134   21.0973 F   0  0  0  0  0  0
  -21.5639   -3.4527   25.7734 F   0  0  0  0  0  0
  -30.0361  -13.2995   20.4543 N   0  0  0  0  0  0
  -26.3035  -12.9415   20.3368 N   0  0  0  0  0  0
  -25.9351  -11.6557   20.5766 N   0  0  0  0  0  0
  -22.0515  -12.8193   22.0385 N   0  0  0  0  0  0
  -25.4241  -15.1916   20.4074 N   0  0  0  0  0  0
  -31.8970  -14.5482   20.1032 O   0  0  0  0  0  0
  -21.6640   -6.8874   21.4232 O   0  0  0  0  0  0
  -22.3513  -14.5514   20.6669 O   0  0  0  0  0  0
  -24.6161  -31.8704   23.2068 C   0  0  0  0  0  0
  -25.9059  -32.4815   23.8369 C   0  0  1  0  0  0
  -27.2184  -27.4158   20.0732 C   0  0  0  0  0  0
  -25.5939  -33.8616   24.2303 N   0  0  0  0  0  0
  -23.4023  -30.4945   21.5525 C   0  0  2  0  0  0
  -24.8416  -28.9656   20.1103 C   0  0  0  0  0  0
  -22.7415  -29.4688   22.5014 C   0  0  0  0  0  0
  -18.0281  -28.1376   22.8504 C   0  0  0  0  0  0
  -24.1525  -36.7299   23.2632 C   0  0  0  0  0  0
  -25.9366  -30.8214   21.3698 C   0  0  0  0  0  0
  -26.0069  -29.4592   20.7091 C   0  0  0  0  0  0
  -27.1971  -28.6912   20.6906 C   0  0  0  0  0  0
  -26.0308  -26.9572   19.4504 C   0  0  0  0  0  0
  -24.8493  -27.7144   19.4791 C   0  0  0  0  0  0
  -23.6046  -29.8303   20.1664 C   0  0  0  0  0  0
  -25.4145  -36.3102   24.0327 C   0  0  1  0  0  0
  -20.5869  -28.3693   23.1327 C   0  0  2  0  0  0
  -20.6797  -26.9438   22.5424 C   0  0  0  0  0  0
  -19.5766  -26.6395   21.5234 C   0  0  0  0  0  0
  -18.1939  -26.7926   22.1625 C   0  0  0  0  0  0
  -19.1526  -28.8847   23.2909 C   0  0  0  0  0  0
  -18.9450  -30.1449   23.8920 C   0  0  0  0  0  0
  -17.6455  -30.6594   24.0563 C   0  0  0  0  0  0
  -25.9067  -34.9477   23.5104 C   0  0  0  0  0  0
  -16.5351  -29.9090   23.6334 C   0  0  0  0  0  0
  -16.7267  -28.6496   23.0369 C   0  0  0  0  0  0
  -26.4468  -31.6581   25.0695 C   0  0  0  0  0  0
  -25.3709  -31.3710   26.1418 C   0  0  0  0  0  0
  -27.0304  -30.3016   24.6089 C   0  0  0  0  0  0
  -27.6034  -32.4314   25.7453 C   0  0  0  0  0  0
  -27.5606  -37.1804   24.8466 C   0  0  0  0  0  0
  -21.4147  -29.3054   22.3731 N   0  0  0  0  0  0
  -26.4331  -37.3783   23.9393 N   0  0  0  0  0  0
  -24.6697  -31.0778   22.0991 N   0  0  0  0  0  0
  -23.4187  -28.8253   23.3073 O   0  0  0  0  0  0
  -28.3735  -26.6482   20.0986 O   0  0  0  0  0  0
  -26.5623  -34.8918   22.4663 O   0  0  0  0  0  0
  -23.5345  -32.1509   23.7431 O   0  0  0  0  0  0
  -28.0538  -22.2932   19.2020 C   0  0  0  0  0  0
  -29.0673  -22.8624   19.9344 C   0  0  0  0  0  0
  -29.4371  -20.6362   19.7700 C   0  0  0  0  0  0
  -31.7267  -19.5983   19.6707 C   0  0  0  0  0  0
  -28.7839  -17.6659   15.4692 C   0  0  0  0  0  0
  -26.5411  -17.5696   16.6194 C   0  0  0  0  0  0
  -30.6857  -24.7274   19.6047 C   0  0  0  0  0  0
  -29.4940  -24.4358   21.8158 C   0  0  0  0  0  0
  -30.3507  -18.5902   22.2600 C   0  0  0  0  0  0
  -28.3402  -17.9101   20.9657 C   0  0  0  0  0  0
  -28.0944  -19.5774   16.9870 C   0  0  0  0  0  0
  -27.4792  -20.0014   18.3361 C   0  0  0  0  0  0
  -30.5738  -16.8743   20.4091 C   0  0  0  0  0  0
  -28.2212  -25.2425   19.7943 C   0  0  0  0  0  0
  -30.2091  -19.3136   19.7910 C   0  0  1  0  0  0
  -27.9954  -18.0577   16.7250 C   0  0  0  0  0  0
  -29.3686  -24.3145   20.2875 C   0  0  0  0  0  0
  -29.8523  -18.1883   20.8561 C   0  0  0  0  0  0
  -28.3065  -20.9477   19.1013 N   0  0  0  0  0  0
  -29.8705  -21.7984   20.2943 N   0  3  0  0  0  0
  -30.0900  -15.5687   20.9078 N   0  0  0  0  0  0
  -31.4596  -12.3306   19.1675 H   0  0  0  0  0  0
  -30.2671  -11.2827   19.8729 H   0  0  0  0  0  0
  -29.7458  -11.7767   17.4478 H   0  0  0  0  0  0
  -29.6923  -13.4859   17.8014 H   0  0  0  0  0  0
  -27.8209  -11.3199   18.8223 H   0  0  0  0  0  0
  -27.3832  -12.6536   17.7880 H   0  0  0  0  0  0
  -27.6998  -14.2654   19.5633 H   0  0  0  0  0  0
  -28.6594  -12.0270   21.4090 H   0  0  0  0  0  0
  -28.4789  -13.7004   21.8508 H   0  0  0  0  0  0
  -25.2791   -9.5646   22.4723 H   0  0  0  0  0  0
  -23.9988   -7.4629   22.7458 H   0  0  0  0  0  0
  -21.0853   -8.8784   19.8932 H   0  0  0  0  0  0
  -22.3736  -10.9663   19.6134 H   0  0  0  0  0  0
  -21.2014   -7.6134   23.9697 H   0  0  0  0  0  0
  -21.1491   -6.0513   25.9070 H   0  0  0  0  0  0
  -22.0603   -2.7593   23.2845 H   0  0  0  0  0  0
  -22.4171  -11.9883   22.4796 H   0  0  0  0  0  0
  -21.1116  -13.1165   22.2585 H   0  0  0  0  0  0
  -24.6502  -15.8383   20.5100 H   0  0  0  0  0  0
  -26.2733  -15.6353   20.0848 H   0  0  0  0  0  0
  -26.7117  -32.5494   23.1113 H   0  0  0  0  0  0
  -25.0115  -33.9806   25.0462 H   0  0  0  0  0  0
  -22.6900  -31.3105   21.4157 H   0  0  0  0  0  0
  -23.3794  -35.9625   23.3309 H   0  0  0  0  0  0
  -24.3624  -36.8897   22.2044 H   0  0  0  0  0  0
  -23.7283  -37.6505   23.6644 H   0  0  0  0  0  0
  -26.0655  -31.5898   20.6064 H   0  0  0  0  0  0
  -26.8188  -30.8607   21.9968 H   0  0  0  0  0  0
  -28.0938  -29.0668   21.1642 H   0  0  0  0  0  0
  -25.9805  -26.0149   18.9256 H   0  0  0  0  0  0
  -23.9554  -27.3354   19.0033 H   0  0  0  0  0  0
  -23.6986  -30.6025   19.4025 H   0  0  0  0  0  0
  -22.7299  -29.2428   19.8823 H   0  0  0  0  0  0
  -25.1325  -36.1965   25.0824 H   0  0  0  0  0  0
  -20.9942  -28.3271   24.1456 H   0  0  0  0  0  0
  -20.5784  -26.2304   23.3615 H   0  0  0  0  0  0
  -21.6663  -26.7552   22.1171 H   0  0  0  0  0  0
  -19.6956  -25.6315   21.1259 H   0  0  0  0  0  0
  -19.6690  -27.3206   20.6764 H   0  0  0  0  0  0
  -17.4235  -26.6704   21.4000 H   0  0  0  0  0  0
  -18.0303  -26.0053   22.8993 H   0  0  0  0  0  0
  -19.7928  -30.7253   24.2309 H   0  0  0  0  0  0
  -17.5017  -31.6276   24.5153 H   0  0  0  0  0  0
  -15.5350  -30.2996   23.7654 H   0  0  0  0  0  0
  -15.8664  -28.0809   22.7099 H   0  0  0  0  0  0
  -24.5900  -30.7040   25.7738 H   0  0  0  0  0  0
  -24.8873  -32.2878   26.4799 H   0  0  0  0  0  0
  -25.8029  -30.8916   27.0211 H   0  0  0  0  0  0
  -26.2855  -29.6765   24.1141 H   0  0  0  0  0  0
  -27.4078  -29.7241   25.4538 H   0  0  0  0  0  0
  -27.8688  -30.4319   23.9243 H   0  0  0  0  0  0
  -27.2646  -33.3622   26.2012 H   0  0  0  0  0  0
  -28.3830  -32.6870   25.0264 H   0  0  0  0  0  0
  -28.0715  -31.8460   26.5375 H   0  0  0  0  0  0
  -28.2611  -38.0112   24.7524 H   0  0  0  0  0  0
  -28.1123  -36.2643   24.6300 H   0  0  0  0  0  0
  -27.2318  -37.1438   25.8867 H   0  0  0  0  0  0
  -20.9328  -29.8736   21.6904 H   0  0  0  0  0  0
  -26.0224  -38.2868   24.1359 H   0  0  0  0  0  0
  -27.2001  -22.7435   18.7131 H   0  0  0  0  0  0
  -31.9251  -20.2694   18.8351 H   0  0  0  0  0  0
  -32.3110  -18.6999   19.4748 H   0  0  0  0  0  0
  -32.1352  -20.0683   20.5646 H   0  0  0  0  0  0
  -28.7611  -16.5865   15.3137 H   0  0  0  0  0  0
  -29.8305  -17.9599   15.5497 H   0  0  0  0  0  0
  -28.3720  -18.1389   14.5772 H   0  0  0  0  0  0
  -26.5037  -16.4956   16.4313 H   0  0  0  0  0  0
  -26.0115  -18.0647   15.8044 H   0  0  0  0  0  0
  -25.9818  -17.7501   17.5374 H   0  0  0  0  0  0
  -31.5322  -24.1352   19.9536 H   0  0  0  0  0  0
  -30.9156  -25.7754   19.8036 H   0  0  0  0  0  0
  -30.6258  -24.6039   18.5227 H   0  0  0  0  0  0
  -30.3164  -23.8367   22.2056 H   0  0  0  0  0  0
  -28.5796  -24.1079   22.3109 H   0  0  0  0  0  0
  -29.6751  -25.4684   22.1154 H   0  0  0  0  0  0
  -30.1161  -17.8213   22.9972 H   0  0  0  0  0  0
  -29.8935  -19.5214   22.5963 H   0  0  0  0  0  0
  -31.4313  -18.7271   22.2894 H   0  0  0  0  0  0
  -28.1143  -17.2253   21.7843 H   0  0  0  0  0  0
  -27.9573  -17.4422   20.0597 H   0  0  0  0  0  0
  -27.7718  -18.8184   21.1674 H   0  0  0  0  0  0
  -29.1412  -19.8772   16.9424 H   0  0  0  0  0  0
  -27.6095  -20.1305   16.1818 H   0  0  0  0  0  0
  -27.2676  -19.1501   18.9685 H   0  0  0  0  0  0
  -26.5094  -20.4676   18.1626 H   0  0  0  0  0  0
  -31.6347  -16.9614   20.6487 H   0  0  0  0  0  0
  -30.5205  -16.8020   19.3209 H   0  0  0  0  0  0
  -27.3070  -24.8645   20.2556 H   0  0  0  0  0  0
  -28.1082  -25.1374   18.7137 H   0  0  0  0  0  0
  -29.9495  -18.8825   18.8293 H   0  0  0  0  0  0
  -28.4565  -17.5342   17.5638 H   0  0  0  0  0  0
  -30.7264  -21.8874   20.8282 H   0  0  0  0  0  0
  -29.1449  -15.4884   21.2499 H   0  0  0  0  0  0
  1 25  1  0  0  0
  1 30  2  0  0  0
  1 91  1  0  0  0
  2  3  1  0  0  0
  2 25  1  0  0  0
  2 92  1  0  0  0
  2 93  1  0  0  0
  3  4  1  0  0  0
  3 94  1  0  0  0
  3 95  1  0  0  0
  4  5  1  0  0  0
  4 96  1  0  0  0
  4 97  1  0  0  0
  5  6  1  0  0  0
  5 26  1  0  0  0
  5 98  1  0  0  0
  6 25  1  0  0  0
  6 99  1  0  0  0
  6100  1  0  0  0
  7  8  2  0  0  0
  7 26  1  0  0  0
  7 29  1  0  0  0
  8  9  1  0  0  0
  8 22  1  0  0  0
  9 10  1  0  0  0
  9 27  2  0  0  0
 10 11  2  0  0  0
 10 15  1  0  0  0
 11 12  1  0  0  0
 11101  1  0  0  0
 12 13  2  0  0  0
 12102  1  0  0  0
 13 14  1  0  0  0
 13 31  1  0  0  0
 14 15  2  0  0  0
 14103  1  0  0  0
 15104  1  0  0  0
 16 17  2  0  0  0
 16 21  1  0  0  0
 16 31  1  0  0  0
 17 18  1  0  0  0
 17105  1  0  0  0
 18 19  2  0  0  0
 18106  1  0  0  0
 19 20  1  0  0  0
 19 24  1  0  0  0
 20 21  2  0  0  0
 20107  1  0  0  0
 21 23  1  0  0  0
 22 28  1  0  0  0
 22 32  2  0  0  0
 26 27  1  0  0  0
 28108  1  0  0  0
 28109  1  0  0  0
 29110  1  0  0  0
 29111  1  0  0  0
 33 34  1  0  0  0
 33 66  1  0  0  0
 33 70  2  0  0  0
 34 36  1  0  0  0
 34 59  1  0  0  0
 34112  1  0  0  0
 35 44  2  0  0  0
 35 45  1  0  0  0
 35 68  1  0  0  0
 36 56  1  0  0  0
 36113  1  0  0  0
 37 39  1  0  0  0
 37 47  1  0  0  0
 37 66  1  0  0  0
 37114  1  0  0  0
 38 43  2  0  0  0
 38 46  1  0  0  0
 38 47  1  0  0  0
 39 64  1  0  0  0
 39 67  2  0  0  0
 40 52  1  0  0  0
 40 53  2  0  0  0
 40 58  1  0  0  0
 41115  1  0  0  0
 41116  1  0  0  0
 41117  1  0  0  0
 41 48  1  0  0  0
 42 43  1  0  0  0
 42 66  1  0  0  0
 42118  1  0  0  0
 42119  1  0  0  0
 43 44  1  0  0  0
 44120  1  0  0  0
 45 46  2  0  0  0
 45121  1  0  0  0
 46122  1  0  0  0
 47123  1  0  0  0
 47124  1  0  0  0
 48 56  1  0  0  0
 48 65  1  0  0  0
 48125  1  0  0  0
 49 50  1  0  0  0
 49 53  1  0  0  0
 49 64  1  0  0  0
 49126  1  0  0  0
 50 51  1  0  0  0
 50127  1  0  0  0
 50128  1  0  0  0
 51 52  1  0  0  0
 51129  1  0  0  0
 51130  1  0  0  0
 52131  1  0  0  0
 52132  1  0  0  0
 53 54  1  0  0  0
 54 55  2  0  0  0
 54133  1  0  0  0
 55 57  1  0  0  0
 55134  1  0  0  0
 56 69  2  0  0  0
 57 58  2  0  0  0
 57135  1  0  0  0
 58136  1  0  0  0
 59 60  1  0  0  0
 59 61  1  0  0  0
 59 62  1  0  0  0
 60137  1  0  0  0
 60138  1  0  0  0
 60139  1  0  0  0
 61140  1  0  0  0
 61141  1  0  0  0
 61142  1  0  0  0
 62143  1  0  0  0
 62144  1  0  0  0
 62145  1  0  0  0
 63 65  1  0  0  0
 63146  1  0  0  0
 63147  1  0  0  0
 63148  1  0  0  0
 64149  1  0  0  0
 65150  1  0  0  0
 68 84  1  0  0  0
 71 72  2  0  0  0
 71 89  1  0  0  0
 71151  1  0  0  0
 72 87  1  0  0  0
 72 90  1  0  0  0
 73 85  1  0  0  0
 73 89  1  0  0  0
 73 90  2  0  0  0
 74152  1  0  0  0
 74153  1  0  0  0
 74154  1  0  0  0
 74 85  1  0  0  0
 75155  1  0  0  0
 75156  1  0  0  0
 75157  1  0  0  0
 75 86  1  0  0  0
 76 86  1  0  0  0
 76158  1  0  0  0
 76159  1  0  0  0
 76160  1  0  0  0
 77161  1  0  0  0
 77162  1  0  0  0
 77163  1  0  0  0
 77 87  1  0  0  0
 78 87  1  0  0  0
 78164  1  0  0  0
 78165  1  0  0  0
 78166  1  0  0  0
 79167  1  0  0  0
 79168  1  0  0  0
 79169  1  0  0  0
 79 88  1  0  0  0
 80 88  1  0  0  0
 80170  1  0  0  0
 80171  1  0  0  0
 80172  1  0  0  0
 81 82  1  0  0  0
 81 86  1  0  0  0
 81173  1  0  0  0
 81174  1  0  0  0
 82 89  1  0  0  0
 82175  1  0  0  0
 82176  1  0  0  0
 83 88  1  0  0  0
 83 91  1  0  0  0
 83177  1  0  0  0
 83178  1  0  0  0
 84 87  1  0  0  0
 84179  1  0  0  0
 84180  1  0  0  0
 85 88  1  0  0  0
 85181  1  0  0  0
 86182  1  0  0  0
 90183  1  0  0  0
 91184  1  0  0  0
M  CHG  1  90   1
M  ISO  4   1 100  68 101  84 101  91 100
M  END
> <chiral flag>
0

> <version>
0

> <s_m_source_file>
/data/baiqing/PycharmProjects/Reinvent-master-3.2/result/LINK_invent/BTK/process_docking_weight1_custom_sum_contain_oxygen_bond_distance_aromatic_linkinvent_7_9_3/rearranged_h_0071.sdf

> <i_m_source_file_index>
31

> <r_mmod_Potential_Energy-OPLS-2005>
-38.3063125610352

> <r_mmod_Stretch_Energy-OPLS-2005>
46.8109588623047

> <r_mmod_Bend_Energy-OPLS-2005>
128.727325439453

> <r_mmod_Torsional_Energy-OPLS-2005>
276.958648681641

> <r_mmod_Improper_Torsional_Energy-OPLS-2005>
7.41814136505127

> <r_mmod_Van_der_Waal_Energy-OPLS-2005>
137.497528076172

> <r_mmod_Electrostatic_Energy-OPLS-2005>
-262.616912841797

> <r_mmod_Solvation_Energy-OPLS-2005>
-391.725067138672

> <b_mmod_Minimization_Converged-OPLS-2005>
0

> <r_mmod_RMS_Derivative-OPLS-2005>
2.17066788673401

$$$$
32
                    3D
 Structure written by MMmdl.
161169  0  0  1  0            999 V2000
  -30.5634  -14.9690   20.3361 C   0  0  0  0  0  0
  -30.4315  -12.5871   19.4941 C   0  0  0  0  0  0
  -29.5155  -12.5129   18.2501 C   0  0  0  0  0  0
  -28.0483  -12.2861   18.6657 C   0  0  0  0  0  0
  -27.6164  -13.2277   19.8153 C   0  0  2  0  0  0
  -28.6674  -13.3222   20.9429 C   0  0  0  0  0  0
  -25.2492  -13.8156   20.5756 C   0  0  0  0  0  0
  -24.1774  -13.0423   20.9245 C   0  0  0  0  0  0
  -24.6364  -11.6892   20.8785 C   0  0  0  0  0  0
  -23.9026  -10.4293   21.0413 C   0  0  0  0  0  0
  -24.3597   -9.4228   21.9197 C   0  0  0  0  0  0
  -23.6286   -8.2258   22.0765 C   0  0  0  0  0  0
  -22.4267   -8.0295   21.3552 C   0  0  0  0  0  0
  -21.9887   -9.0250   20.4650 C   0  0  0  0  0  0
  -22.7200  -10.2134   20.3058 C   0  0  0  0  0  0
  -21.6869   -6.0748   22.5277 C   0  0  0  0  0  0
  -21.4024   -6.5648   23.8217 C   0  0  0  0  0  0
  -21.3653   -5.6791   24.9173 C   0  0  0  0  0  0
  -21.6037   -4.3056   24.7212 C   0  0  0  0  0  0
  -21.8825   -3.8153   23.4339 C   0  0  0  0  0  0
  -21.9200   -4.6973   22.3398 C   0  0  0  0  0  0
  -22.7810  -13.5236   21.1869 C   0  0  0  0  0  0
  -22.1670   -4.2174   21.0976 F   0  0  0  0  0  0
  -21.5612   -3.4526   25.7719 F   0  0  0  0  0  0
  -29.9488  -13.7121   20.3408 N   0  0  0  0  0  0
  -26.2844  -12.9316   20.3212 N   0  0  0  0  0  0
  -25.9284  -11.6475   20.5770 N   0  0  0  0  0  0
  -22.0432  -12.8243   22.0419 N   0  0  0  0  0  0
  -25.4228  -15.1896   20.4248 N   0  0  0  0  0  0
  -31.8014  -14.9347   20.2820 O   0  0  0  0  0  0
  -21.6649   -6.8888   21.4243 O   0  0  0  0  0  0
  -22.3522  -14.5552   20.6731 O   0  0  0  0  0  0
  -24.6423  -31.8444   23.1896 C   0  0  0  0  0  0
  -25.9208  -32.4696   23.8281 C   0  0  1  0  0  0
  -27.2200  -27.1306   20.1595 C   0  0  0  0  0  0
  -25.5967  -33.8509   24.2197 N   0  0  0  0  0  0
  -23.4458  -30.4636   21.5329 C   0  0  2  0  0  0
  -24.8971  -28.8890   20.1073 C   0  0  0  0  0  0
  -22.7557  -29.4558   22.4851 C   0  0  0  0  0  0
  -18.0303  -28.1419   22.8480 C   0  0  0  0  0  0
  -24.1476  -36.7246   23.2637 C   0  0  0  0  0  0
  -26.0006  -30.7154   21.3876 C   0  0  0  0  0  0
  -26.0708  -29.3241   20.7345 C   0  0  0  0  0  0
  -27.2271  -28.4599   20.7498 C   0  0  0  0  0  0
  -26.0280  -26.8087   19.4690 C   0  0  0  0  0  0
  -24.8899  -27.6445   19.4593 C   0  0  0  0  0  0
  -23.6738  -29.7926   20.1509 C   0  0  0  0  0  0
  -25.4115  -36.3039   24.0306 C   0  0  1  0  0  0
  -20.5915  -28.3749   23.1227 C   0  0  2  0  0  0
  -20.6785  -26.9450   22.5404 C   0  0  0  0  0  0
  -19.5762  -26.6399   21.5210 C   0  0  0  0  0  0
  -18.1945  -26.7956   22.1624 C   0  0  0  0  0  0
  -19.1563  -28.8894   23.2850 C   0  0  0  0  0  0
  -18.9484  -30.1489   23.8885 C   0  0  0  0  0  0
  -17.6486  -30.6613   24.0573 C   0  0  0  0  0  0
  -25.9076  -34.9408   23.5051 C   0  0  0  0  0  0
  -16.5373  -29.9121   23.6341 C   0  0  0  0  0  0
  -16.7288  -28.6534   23.0358 C   0  0  0  0  0  0
  -26.4526  -31.6569   25.0721 C   0  0  0  0  0  0
  -25.3708  -31.3767   26.1410 C   0  0  0  0  0  0
  -27.0368  -30.2965   24.6279 C   0  0  0  0  0  0
  -27.6062  -32.4314   25.7520 C   0  0  0  0  0  0
  -27.5567  -37.1782   24.8472 C   0  0  0  0  0  0
  -21.4248  -29.3070   22.3592 N   0  0  0  0  0  0
  -26.4274  -37.3759   23.9416 N   0  0  0  0  0  0
  -24.7160  -31.0290   22.0927 N   0  0  0  0  0  0
  -23.4191  -28.8099   23.2993 O   0  0  0  0  0  0
  -28.2738  -26.1491   20.2758 O   0  0  0  0  0  0
  -26.5664  -34.8908   22.4634 O   0  0  0  0  0  0
  -23.5532  -32.1326   23.7097 O   0  0  0  0  0  0
  -28.5044  -20.0739   21.9051 C   0  0  0  0  0  0
  -29.0944  -20.2763   20.6542 C   0  0  0  0  0  0
  -28.4350  -18.7716   22.4475 C   0  0  0  0  0  0
  -29.5871  -17.8337   20.6577 C   0  0  0  0  0  0
  -28.1761  -19.2651   24.9066 C   0  0  0  0  0  0
  -27.5257  -16.9999   24.0743 C   0  0  0  0  0  0
  -26.1417  -18.9635   23.4429 C   0  0  0  0  0  0
  -28.9442  -21.7426   19.9133 C   0  0  0  0  0  0
  -28.8170  -23.2724   20.6256 C   0  0  0  0  0  0
  -28.1363  -24.6385   19.8984 C   0  0  0  0  0  0
  -27.5890  -18.5028   23.7065 C   0  0  0  0  0  0
  -29.8486  -16.4133   19.8504 C   0  0  0  0  0  0
  -29.6077  -19.1033   20.0505 N   0  0  0  0  0  0
  -28.9953  -17.6999   21.8406 N   0  0  0  0  0  0
  -28.6478  -16.1177   19.3652 F   0  0  0  0  0  0
  -30.5698  -16.8042   18.7947 F   0  0  0  0  0  0
  -31.4684  -12.7212   19.1856 H   0  0  0  0  0  0
  -30.4036  -11.6508   20.0527 H   0  0  0  0  0  0
  -29.8424  -11.7099   17.5871 H   0  0  0  0  0  0
  -29.5973  -13.4394   17.6782 H   0  0  0  0  0  0
  -27.9505  -11.2473   18.9802 H   0  0  0  0  0  0
  -27.3866  -12.4091   17.8079 H   0  0  0  0  0  0
  -27.5280  -14.1934   19.3348 H   0  0  0  0  0  0
  -28.7600  -12.3700   21.4682 H   0  0  0  0  0  0
  -28.3671  -14.0605   21.6872 H   0  0  0  0  0  0
  -25.2743   -9.5736   22.4763 H   0  0  0  0  0  0
  -24.0012   -7.4657   22.7476 H   0  0  0  0  0  0
  -21.0822   -8.8746   19.8947 H   0  0  0  0  0  0
  -22.3645  -10.9671   19.6169 H   0  0  0  0  0  0
  -21.2026   -7.6159   23.9727 H   0  0  0  0  0  0
  -21.1460   -6.0522   25.9082 H   0  0  0  0  0  0
  -22.0610   -2.7620   23.2826 H   0  0  0  0  0  0
  -22.4036  -11.9927   22.4853 H   0  0  0  0  0  0
  -21.1051  -13.1284   22.2604 H   0  0  0  0  0  0
  -24.6575  -15.8409   20.5615 H   0  0  0  0  0  0
  -26.2824  -15.6375   20.1348 H   0  0  0  0  0  0
  -26.7268  -32.5304   23.1003 H   0  0  0  0  0  0
  -25.0133  -33.9629   25.0353 H   0  0  0  0  0  0
  -22.7488  -31.2904   21.3795 H   0  0  0  0  0  0
  -23.3748  -35.9574   23.3295 H   0  0  0  0  0  0
  -24.3563  -36.8891   22.2058 H   0  0  0  0  0  0
  -23.7212  -37.6430   23.6679 H   0  0  0  0  0  0
  -26.1478  -31.4615   20.6062 H   0  0  0  0  0  0
  -26.8749  -30.7755   22.0249 H   0  0  0  0  0  0
  -28.1145  -28.7864   21.2735 H   0  0  0  0  0  0
  -25.9353  -25.8713   18.9429 H   0  0  0  0  0  0
  -23.9968  -27.3105   18.9490 H   0  0  0  0  0  0
  -23.8142  -30.5698   19.3990 H   0  0  0  0  0  0
  -22.7871  -29.2389   19.8380 H   0  0  0  0  0  0
  -25.1293  -36.1863   25.0797 H   0  0  0  0  0  0
  -21.0012  -28.3355   24.1346 H   0  0  0  0  0  0
  -20.5666  -26.2375   23.3635 H   0  0  0  0  0  0
  -21.6656  -26.7455   22.1212 H   0  0  0  0  0  0
  -19.6928  -25.6303   21.1264 H   0  0  0  0  0  0
  -19.6697  -27.3193   20.6722 H   0  0  0  0  0  0
  -17.4209  -26.6696   21.4035 H   0  0  0  0  0  0
  -18.0354  -26.0113   22.9030 H   0  0  0  0  0  0
  -19.7960  -30.7306   24.2244 H   0  0  0  0  0  0
  -17.5045  -31.6284   24.5192 H   0  0  0  0  0  0
  -15.5379  -30.3022   23.7663 H   0  0  0  0  0  0
  -15.8688  -28.0846   22.7082 H   0  0  0  0  0  0
  -24.5907  -30.7087   25.7742 H   0  0  0  0  0  0
  -24.8855  -32.2945   26.4738 H   0  0  0  0  0  0
  -25.7977  -30.9019   27.0250 H   0  0  0  0  0  0
  -26.2986  -29.6741   24.1210 H   0  0  0  0  0  0
  -27.3909  -29.7208   25.4841 H   0  0  0  0  0  0
  -27.8924  -30.4209   23.9637 H   0  0  0  0  0  0
  -27.2672  -33.3623   26.2071 H   0  0  0  0  0  0
  -28.3911  -32.6850   25.0388 H   0  0  0  0  0  0
  -28.0696  -31.8453   26.5467 H   0  0  0  0  0  0
  -28.2578  -38.0082   24.7521 H   0  0  0  0  0  0
  -28.1053  -36.2610   24.6280 H   0  0  0  0  0  0
  -27.2284  -37.1420   25.8875 H   0  0  0  0  0  0
  -20.9447  -29.8797   21.6794 H   0  0  0  0  0  0
  -26.0124  -38.2814   24.1461 H   0  0  0  0  0  0
  -28.0209  -20.9006   22.4072 H   0  0  0  0  0  0
  -29.1839  -18.9185   25.1381 H   0  0  0  0  0  0
  -27.5651  -19.1312   25.8000 H   0  0  0  0  0  0
  -28.2354  -20.3351   24.7133 H   0  0  0  0  0  0
  -28.5137  -16.5872   24.2792 H   0  0  0  0  0  0
  -27.0797  -16.4143   23.2688 H   0  0  0  0  0  0
  -26.9188  -16.8326   24.9635 H   0  0  0  0  0  0
  -26.0816  -20.0340   23.2506 H   0  0  0  0  0  0
  -25.4877  -18.7488   24.2886 H   0  0  0  0  0  0
  -25.7347  -18.4570   22.5667 H   0  0  0  0  0  0
  -28.0522  -21.6282   19.2991 H   0  0  0  0  0  0
  -29.7609  -21.7927   19.1930 H   0  0  0  0  0  0
  -28.2585  -23.1316   21.5507 H   0  0  0  0  0  0
  -29.8201  -23.5396   20.9562 H   0  0  0  0  0  0
  -27.0749  -24.4021   19.8958 H   0  0  0  0  0  0
  -28.4406  -24.6036   18.8522 H   0  0  0  0  0  0
  1 25  1  0  0  0
  1 30  2  0  0  0
  1 82  1  0  0  0
  2  3  1  0  0  0
  2 25  1  0  0  0
  2 87  1  0  0  0
  2 88  1  0  0  0
  3  4  1  0  0  0
  3 89  1  0  0  0
  3 90  1  0  0  0
  4  5  1  0  0  0
  4 91  1  0  0  0
  4 92  1  0  0  0
  5  6  1  0  0  0
  5 26  1  0  0  0
  5 93  1  0  0  0
  6 25  1  0  0  0
  6 94  1  0  0  0
  6 95  1  0  0  0
  7  8  2  0  0  0
  7 26  1  0  0  0
  7 29  1  0  0  0
  8  9  1  0  0  0
  8 22  1  0  0  0
  9 10  1  0  0  0
  9 27  2  0  0  0
 10 11  2  0  0  0
 10 15  1  0  0  0
 11 12  1  0  0  0
 11 96  1  0  0  0
 12 13  2  0  0  0
 12 97  1  0  0  0
 13 14  1  0  0  0
 13 31  1  0  0  0
 14 15  2  0  0  0
 14 98  1  0  0  0
 15 99  1  0  0  0
 16 17  2  0  0  0
 16 21  1  0  0  0
 16 31  1  0  0  0
 17 18  1  0  0  0
 17100  1  0  0  0
 18 19  2  0  0  0
 18101  1  0  0  0
 19 20  1  0  0  0
 19 24  1  0  0  0
 20 21  2  0  0  0
 20102  1  0  0  0
 21 23  1  0  0  0
 22 28  1  0  0  0
 22 32  2  0  0  0
 26 27  1  0  0  0
 28103  1  0  0  0
 28104  1  0  0  0
 29105  1  0  0  0
 29106  1  0  0  0
 33 34  1  0  0  0
 33 66  1  0  0  0
 33 70  2  0  0  0
 34 36  1  0  0  0
 34 59  1  0  0  0
 34107  1  0  0  0
 35 44  2  0  0  0
 35 45  1  0  0  0
 35 68  1  0  0  0
 36 56  1  0  0  0
 36108  1  0  0  0
 37 39  1  0  0  0
 37 47  1  0  0  0
 37 66  1  0  0  0
 37109  1  0  0  0
 38 43  2  0  0  0
 38 46  1  0  0  0
 38 47  1  0  0  0
 39 64  1  0  0  0
 39 67  2  0  0  0
 40 52  1  0  0  0
 40 53  2  0  0  0
 40 58  1  0  0  0
 41110  1  0  0  0
 41111  1  0  0  0
 41112  1  0  0  0
 41 48  1  0  0  0
 42 43  1  0  0  0
 42 66  1  0  0  0
 42113  1  0  0  0
 42114  1  0  0  0
 43 44  1  0  0  0
 44115  1  0  0  0
 45 46  2  0  0  0
 45116  1  0  0  0
 46117  1  0  0  0
 47118  1  0  0  0
 47119  1  0  0  0
 48 56  1  0  0  0
 48 65  1  0  0  0
 48120  1  0  0  0
 49 50  1  0  0  0
 49 53  1  0  0  0
 49 64  1  0  0  0
 49121  1  0  0  0
 50 51  1  0  0  0
 50122  1  0  0  0
 50123  1  0  0  0
 51 52  1  0  0  0
 51124  1  0  0  0
 51125  1  0  0  0
 52126  1  0  0  0
 52127  1  0  0  0
 53 54  1  0  0  0
 54 55  2  0  0  0
 54128  1  0  0  0
 55 57  1  0  0  0
 55129  1  0  0  0
 56 69  2  0  0  0
 57 58  2  0  0  0
 57130  1  0  0  0
 58131  1  0  0  0
 59 60  1  0  0  0
 59 61  1  0  0  0
 59 62  1  0  0  0
 60132  1  0  0  0
 60133  1  0  0  0
 60134  1  0  0  0
 61135  1  0  0  0
 61136  1  0  0  0
 61137  1  0  0  0
 62138  1  0  0  0
 62139  1  0  0  0
 62140  1  0  0  0
 63 65  1  0  0  0
 63141  1  0  0  0
 63142  1  0  0  0
 63143  1  0  0  0
 64144  1  0  0  0
 65145  1  0  0  0
 68 80  1  0  0  0
 71 72  2  0  0  0
 71 73  1  0  0  0
 71146  1  0  0  0
 72 78  1  0  0  0
 72 83  1  0  0  0
 73 81  1  0  0  0
 73 84  2  0  0  0
 74 82  1  0  0  0
 74 83  2  0  0  0
 74 84  1  0  0  0
 75147  1  0  0  0
 75148  1  0  0  0
 75149  1  0  0  0
 75 81  1  0  0  0
 76 81  1  0  0  0
 76150  1  0  0  0
 76151  1  0  0  0
 76152  1  0  0  0
 77 81  1  0  0  0
 77153  1  0  0  0
 77154  1  0  0  0
 77155  1  0  0  0
 78 79  1  0  0  0
 78156  1  0  0  0
 78157  1  0  0  0
 79 80  1  0  0  0
 79158  1  0  0  0
 79159  1  0  0  0
 80160  1  0  0  0
 80161  1  0  0  0
 82 85  1  0  0  0
 82 86  1  0  0  0
M  ISO  4   1 100  68 101  80 101  82 100
M  END
> <chiral flag>
0

> <version>
0

> <s_m_source_file>
/data/baiqing/PycharmProjects/Reinvent-master-3.2/result/LINK_invent/BTK/process_docking_weight1_custom_sum_contain_oxygen_bond_distance_aromatic_linkinvent_7_9_3/rearranged_h_0071.sdf

> <i_m_source_file_index>
32

> <r_mmod_Potential_Energy-OPLS-2005>
342.957122802734

> <r_mmod_Stretch_Energy-OPLS-2005>
270.971069335938

> <r_mmod_Bend_Energy-OPLS-2005>
298.52490234375

> <r_mmod_Torsional_Energy-OPLS-2005>
222.567977905273

> <r_mmod_Improper_Torsional_Energy-OPLS-2005>
19.8568286895752

> <r_mmod_Van_der_Waal_Energy-OPLS-2005>
143.676086425781

> <r_mmod_Electrostatic_Energy-OPLS-2005>
-621.617431640625

> <r_mmod_Solvation_Energy-OPLS-2005>
-200.199584960938

> <b_mmod_Minimization_Converged-OPLS-2005>
0

> <r_mmod_RMS_Derivative-OPLS-2005>
2.57333588600159

$$$$
33
                    3D
 Structure written by MMmdl.
180188  0  0  1  0            999 V2000
  -30.7806  -14.6215   20.4210 C   0  0  0  0  0  0
  -30.3806  -12.3744   19.4807 C   0  0  0  0  0  0
  -29.4877  -12.4695   18.2305 C   0  0  0  0  0  0
  -28.0134  -12.3341   18.6429 C   0  0  0  0  0  0
  -27.6315  -13.2495   19.8376 C   0  0  2  0  0  0
  -28.6815  -13.2321   20.9693 C   0  0  0  0  0  0
  -25.2467  -13.8263   20.5739 C   0  0  0  0  0  0
  -24.1783  -13.0474   20.9253 C   0  0  0  0  0  0
  -24.6397  -11.6959   20.8775 C   0  0  0  0  0  0
  -23.9085  -10.4313   21.0420 C   0  0  0  0  0  0
  -24.3635   -9.4219   21.9187 C   0  0  0  0  0  0
  -23.6309   -8.2252   22.0756 C   0  0  0  0  0  0
  -22.4289   -8.0290   21.3548 C   0  0  0  0  0  0
  -21.9928   -9.0268   20.4649 C   0  0  0  0  0  0
  -22.7258  -10.2152   20.3065 C   0  0  0  0  0  0
  -21.6859   -6.0740   22.5276 C   0  0  0  0  0  0
  -21.4018   -6.5640   23.8209 C   0  0  0  0  0  0
  -21.3664   -5.6795   24.9172 C   0  0  0  0  0  0
  -21.6047   -4.3056   24.7224 C   0  0  0  0  0  0
  -21.8820   -3.8150   23.4342 C   0  0  0  0  0  0
  -21.9196   -4.6968   22.3400 C   0  0  0  0  0  0
  -22.7800  -13.5237   21.1900 C   0  0  0  0  0  0
  -22.1665   -4.2151   21.0979 F   0  0  0  0  0  0
  -21.5633   -3.4539   25.7737 F   0  0  0  0  0  0
  -29.9963  -13.4932   20.3772 N   0  0  0  0  0  0
  -26.2902  -12.9509   20.3291 N   0  0  0  0  0  0
  -25.9331  -11.6630   20.5779 N   0  0  0  0  0  0
  -22.0452  -12.8207   22.0449 N   0  0  0  0  0  0
  -25.4114  -15.1983   20.4135 N   0  0  0  0  0  0
  -31.9802  -14.4360   20.2228 O   0  0  0  0  0  0
  -21.6652   -6.8887   21.4239 O   0  0  0  0  0  0
  -22.3476  -14.5529   20.6738 O   0  0  0  0  0  0
  -24.6226  -31.8626   23.2055 C   0  0  0  0  0  0
  -25.9085  -32.4789   23.8371 C   0  0  1  0  0  0
  -27.2064  -27.3500   20.1197 C   0  0  0  0  0  0
  -25.5910  -33.8589   24.2290 N   0  0  0  0  0  0
  -23.4142  -30.4878   21.5484 C   0  0  2  0  0  0
  -24.8599  -28.9537   20.1035 C   0  0  0  0  0  0
  -22.7460  -29.4633   22.4951 C   0  0  0  0  0  0
  -18.0280  -28.1390   22.8490 C   0  0  0  0  0  0
  -24.1492  -36.7302   23.2639 C   0  0  0  0  0  0
  -25.9528  -30.8043   21.3727 C   0  0  0  0  0  0
  -26.0272  -29.4365   20.7115 C   0  0  0  0  0  0
  -27.2101  -28.6445   20.7122 C   0  0  0  0  0  0
  -26.0304  -26.9190   19.4725 C   0  0  0  0  0  0
  -24.8615  -27.6997   19.4727 C   0  0  0  0  0  0
  -23.6255  -29.8283   20.1603 C   0  0  0  0  0  0
  -25.4114  -36.3087   24.0330 C   0  0  1  0  0  0
  -20.5876  -28.3684   23.1294 C   0  0  2  0  0  0
  -20.6773  -26.9410   22.5419 C   0  0  0  0  0  0
  -19.5751  -26.6388   21.5219 C   0  0  0  0  0  0
  -18.1928  -26.7932   22.1626 C   0  0  0  0  0  0
  -19.1532  -28.8854   23.2884 C   0  0  0  0  0  0
  -18.9458  -30.1457   23.8899 C   0  0  0  0  0  0
  -17.6457  -30.6592   24.0566 C   0  0  0  0  0  0
  -25.9046  -34.9458   23.5110 C   0  0  0  0  0  0
  -16.5347  -29.9093   23.6332 C   0  0  0  0  0  0
  -16.7267  -28.6512   23.0351 C   0  0  0  0  0  0
  -26.4484  -31.6590   25.0728 C   0  0  0  0  0  0
  -25.3725  -31.3720   26.1457 C   0  0  0  0  0  0
  -27.0326  -30.3019   24.6164 C   0  0  0  0  0  0
  -27.6047  -32.4324   25.7493 C   0  0  0  0  0  0
  -27.5578  -37.1802   24.8463 C   0  0  0  0  0  0
  -21.4176  -29.3036   22.3689 N   0  0  0  0  0  0
  -26.4295  -37.3776   23.9401 N   0  0  0  0  0  0
  -24.6818  -31.0670   22.0991 N   0  0  0  0  0  0
  -23.4198  -28.8166   23.3015 O   0  0  0  0  0  0
  -28.2769  -26.4621   20.1916 O   0  0  0  0  0  0
  -26.5620  -34.8918   22.4678 O   0  0  0  0  0  0
  -23.5396  -32.1411   23.7401 O   0  0  0  0  0  0
  -27.4797  -18.7045   21.3590 C   0  0  0  0  0  0
  -29.2998  -20.6124   20.6278 C   0  0  0  0  0  0
  -27.0810  -20.0710   21.3619 C   0  0  0  0  0  0
  -28.0161  -21.0842   20.9819 C   0  0  0  0  0  0
  -28.7955  -18.3241   21.0344 C   0  0  0  0  0  0
  -29.7213  -16.7244   22.7862 C   0  0  0  0  0  0
  -23.9766  -17.6064   23.9841 C   0  0  0  0  0  0
  -22.7534  -19.1580   22.4163 C   0  0  0  0  0  0
  -31.7295  -16.9454   20.5411 C   0  0  0  0  0  0
  -25.6563  -20.4112   21.8130 C   0  0  0  0  0  0
  -27.6380  -22.6094   21.0618 C   0  0  0  0  0  0
  -25.1758  -19.6395   23.0639 C   0  0  0  0  0  0
  -28.4580  -23.7921   20.3993 C   0  0  0  0  0  0
  -29.8965  -16.4113   18.8326 C   0  0  0  0  0  0
  -27.9608  -25.2116   20.9065 C   0  0  0  0  0  0
  -29.2987  -16.8446   21.3096 C   0  0  2  0  0  0
  -24.1189  -18.5504   22.7814 C   0  0  0  0  0  0
  -30.3618  -16.1837   20.3098 C   0  0  1  0  0  0
  -29.6672  -19.2952   20.6496 N   0  0  0  0  0  0
  -30.1888  -17.7583   18.2949 N   0  3  0  0  0  0
  -31.4284  -12.3812   19.1781 H   0  0  0  0  0  0
  -30.2360  -11.4175   19.9850 H   0  0  0  0  0  0
  -29.7485  -11.6852   17.5185 H   0  0  0  0  0  0
  -29.6511  -13.4170   17.7160 H   0  0  0  0  0  0
  -27.8496  -11.2896   18.9106 H   0  0  0  0  0  0
  -27.3613  -12.5330   17.7914 H   0  0  0  0  0  0
  -27.6113  -14.2623   19.4387 H   0  0  0  0  0  0
  -28.6855  -12.2660   21.4765 H   0  0  0  0  0  0
  -28.4454  -13.9742   21.7315 H   0  0  0  0  0  0
  -25.2783   -9.5692   22.4756 H   0  0  0  0  0  0
  -24.0022   -7.4641   22.7464 H   0  0  0  0  0  0
  -21.0868   -8.8787   19.8942 H   0  0  0  0  0  0
  -22.3719  -10.9693   19.6174 H   0  0  0  0  0  0
  -21.2005   -7.6147   23.9710 H   0  0  0  0  0  0
  -21.1488   -6.0525   25.9075 H   0  0  0  0  0  0
  -22.0594   -2.7610   23.2842 H   0  0  0  0  0  0
  -22.4092  -11.9878   22.4835 H   0  0  0  0  0  0
  -21.1053  -13.1193   22.2630 H   0  0  0  0  0  0
  -24.6312  -15.8371   20.5167 H   0  0  0  0  0  0
  -26.2384  -15.6418   20.0406 H   0  0  0  0  0  0
  -26.7154  -32.5476   23.1122 H   0  0  0  0  0  0
  -25.0039  -33.9741   25.0420 H   0  0  0  0  0  0
  -22.7064  -31.3075   21.4105 H   0  0  0  0  0  0
  -23.3749  -35.9639   23.3308 H   0  0  0  0  0  0
  -24.3583  -36.8920   22.2052 H   0  0  0  0  0  0
  -23.7256  -37.6510   23.6662 H   0  0  0  0  0  0
  -26.0818  -31.5713   20.6075 H   0  0  0  0  0  0
  -26.8343  -30.8490   22.0005 H   0  0  0  0  0  0
  -28.1024  -29.0001   21.2081 H   0  0  0  0  0  0
  -26.0063  -25.9503   18.9938 H   0  0  0  0  0  0
  -23.9682  -27.3263   18.9915 H   0  0  0  0  0  0
  -23.7360  -30.6082   19.4062 H   0  0  0  0  0  0
  -22.7468  -29.2544   19.8615 H   0  0  0  0  0  0
  -25.1292  -36.1943   25.0824 H   0  0  0  0  0  0
  -20.9966  -28.3263   24.1414 H   0  0  0  0  0  0
  -20.5693  -26.2286   23.3613 H   0  0  0  0  0  0
  -21.6639  -26.7456   22.1198 H   0  0  0  0  0  0
  -19.6913  -25.6304   21.1242 H   0  0  0  0  0  0
  -19.6694  -27.3207   20.6757 H   0  0  0  0  0  0
  -17.4196  -26.6679   21.4029 H   0  0  0  0  0  0
  -18.0323  -26.0081   22.9031 H   0  0  0  0  0  0
  -19.7935  -30.7273   24.2274 H   0  0  0  0  0  0
  -17.5014  -31.6274   24.5165 H   0  0  0  0  0  0
  -15.5349  -30.2994   23.7666 H   0  0  0  0  0  0
  -15.8664  -28.0836   22.7062 H   0  0  0  0  0  0
  -24.5893  -30.7076   25.7788 H   0  0  0  0  0  0
  -24.8917  -32.2881   26.4897 H   0  0  0  0  0  0
  -25.8048  -30.8888   27.0225 H   0  0  0  0  0  0
  -26.2896  -29.6772   24.1189 H   0  0  0  0  0  0
  -27.4037  -29.7267   25.4658 H   0  0  0  0  0  0
  -27.8758  -30.4317   23.9375 H   0  0  0  0  0  0
  -27.2658  -33.3620   26.2080 H   0  0  0  0  0  0
  -28.3845  -32.6893   25.0311 H   0  0  0  0  0  0
  -28.0728  -31.8446   26.5399 H   0  0  0  0  0  0
  -28.2593  -38.0100   24.7502 H   0  0  0  0  0  0
  -28.1078  -36.2630   24.6301 H   0  0  0  0  0  0
  -27.2294  -37.1461   25.8866 H   0  0  0  0  0  0
  -20.9351  -29.8751   21.6895 H   0  0  0  0  0  0
  -26.0181  -38.2855   24.1395 H   0  0  0  0  0  0
  -26.7857  -17.9421   21.6843 H   0  0  0  0  0  0
  -30.0730  -21.3088   20.3396 H   0  0  0  0  0  0
  -28.8924  -16.9803   23.4466 H   0  0  0  0  0  0
  -30.5408  -17.4032   23.0228 H   0  0  0  0  0  0
  -30.0365  -15.7121   23.0372 H   0  0  0  0  0  0
  -23.2412  -16.8249   23.7889 H   0  0  0  0  0  0
  -23.6598  -18.1449   24.8781 H   0  0  0  0  0  0
  -24.9214  -17.1117   24.2115 H   0  0  0  0  0  0
  -22.0137  -18.3787   22.2302 H   0  0  0  0  0  0
  -22.8066  -19.7691   21.5157 H   0  0  0  0  0  0
  -22.3707  -19.7896   23.2193 H   0  0  0  0  0  0
  -31.6727  -18.0228   20.6160 H   0  0  0  0  0  0
  -32.4478  -16.7624   19.7400 H   0  0  0  0  0  0
  -32.2097  -16.6314   21.4700 H   0  0  0  0  0  0
  -24.9876  -20.2516   20.9675 H   0  0  0  0  0  0
  -25.5675  -21.4666   22.0584 H   0  0  0  0  0  0
  -27.5508  -22.8322   22.1264 H   0  0  0  0  0  0
  -26.6316  -22.7079   20.6548 H   0  0  0  0  0  0
  -24.7488  -20.3525   23.7705 H   0  0  0  0  0  0
  -26.0338  -19.2201   23.5906 H   0  0  0  0  0  0
  -28.3643  -23.7298   19.3149 H   0  0  0  0  0  0
  -29.5193  -23.6950   20.6272 H   0  0  0  0  0  0
  -28.8242  -16.2305   18.7511 H   0  0  0  0  0  0
  -30.3683  -15.6983   18.1539 H   0  0  0  0  0  0
  -28.3461  -25.3446   21.9175 H   0  0  0  0  0  0
  -26.8849  -25.1240   21.0600 H   0  0  0  0  0  0
  -28.3993  -16.2362   21.2102 H   0  0  0  0  0  0
  -24.4570  -17.9481   21.9369 H   0  0  0  0  0  0
  -29.9235  -18.4618   18.9776 H   0  0  0  0  0  0
  -29.6876  -17.9201   17.4385 H   0  0  0  0  0  0
  -31.1707  -17.8632   18.1092 H   0  0  0  0  0  0
  1 25  1  0  0  0
  1 30  2  0  0  0
  1 88  1  0  0  0
  2  3  1  0  0  0
  2 25  1  0  0  0
  2 91  1  0  0  0
  2 92  1  0  0  0
  3  4  1  0  0  0
  3 93  1  0  0  0
  3 94  1  0  0  0
  4  5  1  0  0  0
  4 95  1  0  0  0
  4 96  1  0  0  0
  5  6  1  0  0  0
  5 26  1  0  0  0
  5 97  1  0  0  0
  6 25  1  0  0  0
  6 98  1  0  0  0
  6 99  1  0  0  0
  7  8  2  0  0  0
  7 26  1  0  0  0
  7 29  1  0  0  0
  8  9  1  0  0  0
  8 22  1  0  0  0
  9 10  1  0  0  0
  9 27  2  0  0  0
 10 11  2  0  0  0
 10 15  1  0  0  0
 11 12  1  0  0  0
 11100  1  0  0  0
 12 13  2  0  0  0
 12101  1  0  0  0
 13 14  1  0  0  0
 13 31  1  0  0  0
 14 15  2  0  0  0
 14102  1  0  0  0
 15103  1  0  0  0
 16 17  2  0  0  0
 16 21  1  0  0  0
 16 31  1  0  0  0
 17 18  1  0  0  0
 17104  1  0  0  0
 18 19  2  0  0  0
 18105  1  0  0  0
 19 20  1  0  0  0
 19 24  1  0  0  0
 20 21  2  0  0  0
 20106  1  0  0  0
 21 23  1  0  0  0
 22 28  1  0  0  0
 22 32  2  0  0  0
 26 27  1  0  0  0
 28107  1  0  0  0
 28108  1  0  0  0
 29109  1  0  0  0
 29110  1  0  0  0
 33 34  1  0  0  0
 33 66  1  0  0  0
 33 70  2  0  0  0
 34 36  1  0  0  0
 34 59  1  0  0  0
 34111  1  0  0  0
 35 44  2  0  0  0
 35 45  1  0  0  0
 35 68  1  0  0  0
 36 56  1  0  0  0
 36112  1  0  0  0
 37 39  1  0  0  0
 37 47  1  0  0  0
 37 66  1  0  0  0
 37113  1  0  0  0
 38 43  2  0  0  0
 38 46  1  0  0  0
 38 47  1  0  0  0
 39 64  1  0  0  0
 39 67  2  0  0  0
 40 52  1  0  0  0
 40 53  2  0  0  0
 40 58  1  0  0  0
 41114  1  0  0  0
 41115  1  0  0  0
 41116  1  0  0  0
 41 48  1  0  0  0
 42 43  1  0  0  0
 42 66  1  0  0  0
 42117  1  0  0  0
 42118  1  0  0  0
 43 44  1  0  0  0
 44119  1  0  0  0
 45 46  2  0  0  0
 45120  1  0  0  0
 46121  1  0  0  0
 47122  1  0  0  0
 47123  1  0  0  0
 48 56  1  0  0  0
 48 65  1  0  0  0
 48124  1  0  0  0
 49 50  1  0  0  0
 49 53  1  0  0  0
 49 64  1  0  0  0
 49125  1  0  0  0
 50 51  1  0  0  0
 50126  1  0  0  0
 50127  1  0  0  0
 51 52  1  0  0  0
 51128  1  0  0  0
 51129  1  0  0  0
 52130  1  0  0  0
 52131  1  0  0  0
 53 54  1  0  0  0
 54 55  2  0  0  0
 54132  1  0  0  0
 55 57  1  0  0  0
 55133  1  0  0  0
 56 69  2  0  0  0
 57 58  2  0  0  0
 57134  1  0  0  0
 58135  1  0  0  0
 59 60  1  0  0  0
 59 61  1  0  0  0
 59 62  1  0  0  0
 60136  1  0  0  0
 60137  1  0  0  0
 60138  1  0  0  0
 61139  1  0  0  0
 61140  1  0  0  0
 61141  1  0  0  0
 62142  1  0  0  0
 62143  1  0  0  0
 62144  1  0  0  0
 63 65  1  0  0  0
 63145  1  0  0  0
 63146  1  0  0  0
 63147  1  0  0  0
 64148  1  0  0  0
 65149  1  0  0  0
 68 85  1  0  0  0
 71 73  2  0  0  0
 71 75  1  0  0  0
 71150  1  0  0  0
 72 74  2  0  0  0
 72 89  1  0  0  0
 72151  1  0  0  0
 73 74  1  0  0  0
 73 80  1  0  0  0
 74 81  1  0  0  0
 75 86  1  0  0  0
 75 89  2  0  0  0
 76152  1  0  0  0
 76153  1  0  0  0
 76154  1  0  0  0
 76 86  1  0  0  0
 77155  1  0  0  0
 77156  1  0  0  0
 77157  1  0  0  0
 77 87  1  0  0  0
 78 87  1  0  0  0
 78158  1  0  0  0
 78159  1  0  0  0
 78160  1  0  0  0
 79161  1  0  0  0
 79162  1  0  0  0
 79163  1  0  0  0
 79 88  1  0  0  0
 80 82  1  0  0  0
 80164  1  0  0  0
 80165  1  0  0  0
 81 83  1  0  0  0
 81166  1  0  0  0
 81167  1  0  0  0
 82 87  1  0  0  0
 82168  1  0  0  0
 82169  1  0  0  0
 83 85  1  0  0  0
 83170  1  0  0  0
 83171  1  0  0  0
 84 88  1  0  0  0
 84 90  1  0  0  0
 84172  1  0  0  0
 84173  1  0  0  0
 85174  1  0  0  0
 85175  1  0  0  0
 86 88  1  0  0  0
 86176  1  0  0  0
 87177  1  0  0  0
 90178  1  0  0  0
 90179  1  0  0  0
 90180  1  0  0  0
M  CHG  1  90   1
M  ISO  4   1 100  68 101  85 101  88 100
M  END
> <chiral flag>
0

> <version>
0

> <s_m_source_file>
/data/baiqing/PycharmProjects/Reinvent-master-3.2/result/LINK_invent/BTK/process_docking_weight1_custom_sum_contain_oxygen_bond_distance_aromatic_linkinvent_7_9_3/rearranged_h_0071.sdf

> <i_m_source_file_index>
33

> <r_mmod_Potential_Energy-OPLS-2005>
-140.673385620117

> <r_mmod_Stretch_Energy-OPLS-2005>
92.3466567993164

> <r_mmod_Bend_Energy-OPLS-2005>
195.126831054688

> <r_mmod_Torsional_Energy-OPLS-2005>
262.917388916016

> <r_mmod_Improper_Torsional_Energy-OPLS-2005>
10.691686630249

> <r_mmod_Van_der_Waal_Energy-OPLS-2005>
173.385131835938

> <r_mmod_Electrostatic_Energy-OPLS-2005>
-520.234191894531

> <r_mmod_Solvation_Energy-OPLS-2005>
-426.063293457031

> <b_mmod_Minimization_Converged-OPLS-2005>
0

> <r_mmod_RMS_Derivative-OPLS-2005>
0.943703353404999

$$$$
34
                    3D
 Structure written by MMmdl.
164172  0  0  1  0            999 V2000
  -30.6401  -14.9221   20.3243 C   0  0  0  0  0  0
  -30.4480  -12.5616   19.4789 C   0  0  0  0  0  0
  -29.5170  -12.4334   18.2528 C   0  0  0  0  0  0
  -28.0485  -12.2492   18.6830 C   0  0  0  0  0  0
  -27.6173  -13.2099   19.8173 C   0  0  2  0  0  0
  -28.6811  -13.3467   20.9296 C   0  0  0  0  0  0
  -25.2518  -13.8108   20.5827 C   0  0  0  0  0  0
  -24.1787  -13.0365   20.9307 C   0  0  0  0  0  0
  -24.6351  -11.6845   20.8819 C   0  0  0  0  0  0
  -23.9028  -10.4240   21.0450 C   0  0  0  0  0  0
  -24.3606   -9.4159   21.9200 C   0  0  0  0  0  0
  -23.6285   -8.2201   22.0766 C   0  0  0  0  0  0
  -22.4265   -8.0259   21.3549 C   0  0  0  0  0  0
  -21.9886   -9.0228   20.4662 C   0  0  0  0  0  0
  -22.7221  -10.2092   20.3082 C   0  0  0  0  0  0
  -21.6820   -6.0747   22.5284 C   0  0  0  0  0  0
  -21.3994   -6.5658   23.8216 C   0  0  0  0  0  0
  -21.3641   -5.6801   24.9175 C   0  0  0  0  0  0
  -21.6033   -4.3066   24.7211 C   0  0  0  0  0  0
  -21.8835   -3.8167   23.4331 C   0  0  0  0  0  0
  -21.9190   -4.6987   22.3395 C   0  0  0  0  0  0
  -22.7823  -13.5202   21.1909 C   0  0  0  0  0  0
  -22.1671   -4.2191   21.0965 F   0  0  0  0  0  0
  -21.5614   -3.4540   25.7713 F   0  0  0  0  0  0
  -29.9621  -13.7034   20.3007 N   0  0  0  0  0  0
  -26.2874  -12.9221   20.3330 N   0  0  0  0  0  0
  -25.9262  -11.6395   20.5801 N   0  0  0  0  0  0
  -22.0437  -12.8188   22.0451 N   0  0  0  0  0  0
  -25.4196  -15.1843   20.4358 N   0  0  0  0  0  0
  -31.8649  -14.8174   20.4211 O   0  0  0  0  0  0
  -21.6617   -6.8867   21.4240 O   0  0  0  0  0  0
  -22.3520  -14.5492   20.6712 O   0  0  0  0  0  0
  -24.6407  -31.8499   23.1928 C   0  0  0  0  0  0
  -25.9205  -32.4715   23.8308 C   0  0  1  0  0  0
  -27.2203  -27.1910   20.1759 C   0  0  0  0  0  0
  -25.5979  -33.8503   24.2223 N   0  0  0  0  0  0
  -23.4395  -30.4754   21.5383 C   0  0  2  0  0  0
  -24.8864  -28.8938   20.1357 C   0  0  0  0  0  0
  -22.7530  -29.4639   22.4873 C   0  0  0  0  0  0
  -18.0317  -28.1376   22.8495 C   0  0  0  0  0  0
  -24.1505  -36.7248   23.2648 C   0  0  0  0  0  0
  -25.9888  -30.7433   21.3835 C   0  0  0  0  0  0
  -26.0613  -29.3520   20.7453 C   0  0  0  0  0  0
  -27.2335  -28.5177   20.7507 C   0  0  0  0  0  0
  -26.0189  -26.8045   19.5475 C   0  0  0  0  0  0
  -24.8723  -27.6312   19.5280 C   0  0  0  0  0  0
  -23.6645  -29.8016   20.1624 C   0  0  0  0  0  0
  -25.4137  -36.3011   24.0327 C   0  0  1  0  0  0
  -20.5924  -28.3756   23.1220 C   0  0  2  0  0  0
  -20.6811  -26.9462   22.5396 C   0  0  0  0  0  0
  -19.5789  -26.6392   21.5192 C   0  0  0  0  0  0
  -18.1976  -26.7940   22.1601 C   0  0  0  0  0  0
  -19.1575  -28.8855   23.2845 C   0  0  0  0  0  0
  -18.9499  -30.1449   23.8889 C   0  0  0  0  0  0
  -17.6487  -30.6590   24.0564 C   0  0  0  0  0  0
  -25.9076  -34.9394   23.5074 C   0  0  0  0  0  0
  -16.5369  -29.9088   23.6338 C   0  0  0  0  0  0
  -16.7286  -28.6482   23.0396 C   0  0  0  0  0  0
  -26.4556  -31.6520   25.0699 C   0  0  0  0  0  0
  -25.3743  -31.3684   26.1387 C   0  0  0  0  0  0
  -27.0398  -30.2913   24.6210 C   0  0  0  0  0  0
  -27.6107  -32.4259   25.7500 C   0  0  0  0  0  0
  -27.5572  -37.1786   24.8462 C   0  0  0  0  0  0
  -21.4239  -29.3099   22.3605 N   0  0  0  0  0  0
  -26.4280  -37.3739   23.9413 N   0  0  0  0  0  0
  -24.7101  -31.0439   22.0928 N   0  0  0  0  0  0
  -23.4169  -28.8210   23.3032 O   0  0  0  0  0  0
  -28.3193  -26.2925   20.0532 O   0  0  0  0  0  0
  -26.5644  -34.8915   22.4628 O   0  0  0  0  0  0
  -23.5545  -32.1297   23.7215 O   0  0  0  0  0  0
  -30.5561  -20.1467   20.3969 C   0  0  0  0  0  0
  -29.2534  -20.7178   20.4555 C   0  0  0  0  0  0
  -28.3163  -19.6496   20.6433 C   0  0  0  0  0  0
  -29.8914  -17.8467   20.4127 C   0  0  0  0  0  0
  -26.8454  -19.9158   20.8530 C   0  0  0  0  0  0
  -28.8853  -16.1756   18.7701 C   0  0  0  0  0  0
  -31.2259  -16.6754   18.6036 C   0  0  0  0  0  0
  -26.7257  -23.4278   20.8028 C   0  0  0  0  0  0
  -28.5829  -23.0626   22.4582 C   0  0  0  0  0  0
  -28.9619  -22.3006   20.0907 C   0  0  0  0  0  0
  -28.6327  -25.1257   20.9754 C   0  0  0  0  0  0
  -30.1208  -16.3828   19.6704 C   0  0  0  0  0  0
  -28.2515  -23.4876   21.0070 C   0  0  0  0  0  0
  -30.8518  -18.7984   20.3685 N   0  0  0  0  0  0
  -28.6389  -18.3041   20.6204 N   0  0  0  0  0  0
  -31.4732  -12.7106   19.1367 H   0  0  0  0  0  0
  -30.4620  -11.6420   20.0649 H   0  0  0  0  0  0
  -29.8275  -11.5888   17.6354 H   0  0  0  0  0  0
  -29.6233  -13.3100   17.6154 H   0  0  0  0  0  0
  -27.9407  -11.2190   19.0191 H   0  0  0  0  0  0
  -27.3843  -12.3604   17.8266 H   0  0  0  0  0  0
  -27.4947  -14.1522   19.3147 H   0  0  0  0  0  0
  -28.7766  -12.4128   21.4875 H   0  0  0  0  0  0
  -28.3859  -14.1198   21.6430 H   0  0  0  0  0  0
  -25.2751   -9.5608   22.4764 H   0  0  0  0  0  0
  -23.9997   -7.4568   22.7467 H   0  0  0  0  0  0
  -21.0819   -8.8738   19.8966 H   0  0  0  0  0  0
  -22.3699  -10.9633   19.6192 H   0  0  0  0  0  0
  -21.1999   -7.6166   23.9728 H   0  0  0  0  0  0
  -21.1433   -6.0528   25.9069 H   0  0  0  0  0  0
  -22.0633   -2.7639   23.2804 H   0  0  0  0  0  0
  -22.4052  -11.9873   22.4882 H   0  0  0  0  0  0
  -21.1033  -13.1185   22.2619 H   0  0  0  0  0  0
  -24.6449  -15.8235   20.5782 H   0  0  0  0  0  0
  -26.2796  -15.6501   20.1755 H   0  0  0  0  0  0
  -26.7251  -32.5320   23.1042 H   0  0  0  0  0  0
  -25.0141  -33.9580   25.0378 H   0  0  0  0  0  0
  -22.7444  -31.3023   21.3807 H   0  0  0  0  0  0
  -23.3728  -35.9594   23.3269 H   0  0  0  0  0  0
  -24.3649  -36.8913   22.2074 H   0  0  0  0  0  0
  -23.7254  -37.6459   23.6677 H   0  0  0  0  0  0
  -26.1357  -31.4920   20.6040 H   0  0  0  0  0  0
  -26.8650  -30.7991   22.0155 H   0  0  0  0  0  0
  -28.1443  -28.8785   21.2052 H   0  0  0  0  0  0
  -25.9604  -25.8400   19.0623 H   0  0  0  0  0  0
  -23.9751  -27.2694   19.0516 H   0  0  0  0  0  0
  -22.7774  -29.2530   19.8481 H   0  0  0  0  0  0
  -23.8109  -30.5718   19.4034 H   0  0  0  0  0  0
  -25.1279  -36.1885   25.0808 H   0  0  0  0  0  0
  -21.0014  -28.3330   24.1317 H   0  0  0  0  0  0
  -20.5720  -26.2340   23.3594 H   0  0  0  0  0  0
  -21.6688  -26.7473   22.1180 H   0  0  0  0  0  0
  -19.6968  -25.6279   21.1261 H   0  0  0  0  0  0
  -19.6749  -27.3155   20.6684 H   0  0  0  0  0  0
  -17.4241  -26.6680   21.4007 H   0  0  0  0  0  0
  -18.0397  -26.0061   22.8970 H   0  0  0  0  0  0
  -19.7960  -30.7274   24.2281 H   0  0  0  0  0  0
  -17.5031  -31.6297   24.5136 H   0  0  0  0  0  0
  -15.5368  -30.2981   23.7652 H   0  0  0  0  0  0
  -15.8697  -28.0760   22.7173 H   0  0  0  0  0  0
  -24.5984  -30.6983   25.7689 H   0  0  0  0  0  0
  -24.8876  -32.2848   26.4730 H   0  0  0  0  0  0
  -25.8056  -30.8920   27.0196 H   0  0  0  0  0  0
  -26.2978  -29.6691   24.1216 H   0  0  0  0  0  0
  -27.4008  -29.7214   25.4775 H   0  0  0  0  0  0
  -27.8893  -30.4162   23.9506 H   0  0  0  0  0  0
  -27.2732  -33.3598   26.2024 H   0  0  0  0  0  0
  -28.3979  -32.6764   25.0361 H   0  0  0  0  0  0
  -28.0686  -31.8386   26.5474 H   0  0  0  0  0  0
  -28.2537  -38.0128   24.7518 H   0  0  0  0  0  0
  -28.1122  -36.2653   24.6240 H   0  0  0  0  0  0
  -27.2321  -37.1386   25.8878 H   0  0  0  0  0  0
  -20.9422  -29.8736   21.6747 H   0  0  0  0  0  0
  -26.0134  -38.2795   24.1431 H   0  0  0  0  0  0
  -31.4048  -20.7953   20.2570 H   0  0  0  0  0  0
  -26.2738  -18.9903   20.9357 H   0  0  0  0  0  0
  -26.4392  -20.4983   20.0288 H   0  0  0  0  0  0
  -26.7210  -20.4609   21.7893 H   0  0  0  0  0  0
  -28.9576  -15.2804   18.1597 H   0  0  0  0  0  0
  -28.7613  -16.9997   18.0642 H   0  0  0  0  0  0
  -27.9756  -16.1504   19.3617 H   0  0  0  0  0  0
  -30.9431  -17.4864   17.9349 H   0  0  0  0  0  0
  -31.4557  -15.8122   17.9763 H   0  0  0  0  0  0
  -32.1605  -16.9885   19.0733 H   0  0  0  0  0  0
  -26.2885  -22.4847   21.1122 H   0  0  0  0  0  0
  -26.4531  -23.5828   19.7606 H   0  0  0  0  0  0
  -26.2194  -24.1943   21.3901 H   0  0  0  0  0  0
  -28.3010  -22.0357   22.6844 H   0  0  0  0  0  0
  -28.0888  -23.6971   23.1945 H   0  0  0  0  0  0
  -29.6568  -23.1372   22.6435 H   0  0  0  0  0  0
  -28.4360  -22.2818   19.1366 H   0  0  0  0  0  0
  -29.9423  -22.6959   19.8204 H   0  0  0  0  0  0
  -29.7182  -25.1508   21.0579 H   0  0  0  0  0  0
  -28.2947  -25.5288   21.9322 H   0  0  0  0  0  0
  1 25  1  0  0  0
  1 30  2  0  0  0
  1 82  1  0  0  0
  2  3  1  0  0  0
  2 25  1  0  0  0
  2 86  1  0  0  0
  2 87  1  0  0  0
  3  4  1  0  0  0
  3 88  1  0  0  0
  3 89  1  0  0  0
  4  5  1  0  0  0
  4 90  1  0  0  0
  4 91  1  0  0  0
  5  6  1  0  0  0
  5 26  1  0  0  0
  5 92  1  0  0  0
  6 25  1  0  0  0
  6 93  1  0  0  0
  6 94  1  0  0  0
  7  8  2  0  0  0
  7 26  1  0  0  0
  7 29  1  0  0  0
  8  9  1  0  0  0
  8 22  1  0  0  0
  9 10  1  0  0  0
  9 27  2  0  0  0
 10 11  2  0  0  0
 10 15  1  0  0  0
 11 12  1  0  0  0
 11 95  1  0  0  0
 12 13  2  0  0  0
 12 96  1  0  0  0
 13 14  1  0  0  0
 13 31  1  0  0  0
 14 15  2  0  0  0
 14 97  1  0  0  0
 15 98  1  0  0  0
 16 17  2  0  0  0
 16 21  1  0  0  0
 16 31  1  0  0  0
 17 18  1  0  0  0
 17 99  1  0  0  0
 18 19  2  0  0  0
 18100  1  0  0  0
 19 20  1  0  0  0
 19 24  1  0  0  0
 20 21  2  0  0  0
 20101  1  0  0  0
 21 23  1  0  0  0
 22 28  1  0  0  0
 22 32  2  0  0  0
 26 27  1  0  0  0
 28102  1  0  0  0
 28103  1  0  0  0
 29104  1  0  0  0
 29105  1  0  0  0
 33 34  1  0  0  0
 33 66  1  0  0  0
 33 70  2  0  0  0
 34 36  1  0  0  0
 34 59  1  0  0  0
 34106  1  0  0  0
 35 44  2  0  0  0
 35 45  1  0  0  0
 35 68  1  0  0  0
 36 56  1  0  0  0
 36107  1  0  0  0
 37 39  1  0  0  0
 37 47  1  0  0  0
 37 66  1  0  0  0
 37108  1  0  0  0
 38 43  2  0  0  0
 38 46  1  0  0  0
 38 47  1  0  0  0
 39 64  1  0  0  0
 39 67  2  0  0  0
 40 52  1  0  0  0
 40 53  2  0  0  0
 40 58  1  0  0  0
 41109  1  0  0  0
 41110  1  0  0  0
 41111  1  0  0  0
 41 48  1  0  0  0
 42 43  1  0  0  0
 42 66  1  0  0  0
 42112  1  0  0  0
 42113  1  0  0  0
 43 44  1  0  0  0
 44114  1  0  0  0
 45 46  2  0  0  0
 45115  1  0  0  0
 46116  1  0  0  0
 47117  1  0  0  0
 47118  1  0  0  0
 48 56  1  0  0  0
 48 65  1  0  0  0
 48119  1  0  0  0
 49 50  1  0  0  0
 49 53  1  0  0  0
 49 64  1  0  0  0
 49120  1  0  0  0
 50 51  1  0  0  0
 50121  1  0  0  0
 50122  1  0  0  0
 51 52  1  0  0  0
 51123  1  0  0  0
 51124  1  0  0  0
 52125  1  0  0  0
 52126  1  0  0  0
 53 54  1  0  0  0
 54 55  2  0  0  0
 54127  1  0  0  0
 55 57  1  0  0  0
 55128  1  0  0  0
 56 69  2  0  0  0
 57 58  2  0  0  0
 57129  1  0  0  0
 58130  1  0  0  0
 59 60  1  0  0  0
 59 61  1  0  0  0
 59 62  1  0  0  0
 60131  1  0  0  0
 60132  1  0  0  0
 60133  1  0  0  0
 61134  1  0  0  0
 61135  1  0  0  0
 61136  1  0  0  0
 62137  1  0  0  0
 62138  1  0  0  0
 62139  1  0  0  0
 63 65  1  0  0  0
 63140  1  0  0  0
 63141  1  0  0  0
 63142  1  0  0  0
 64143  1  0  0  0
 65144  1  0  0  0
 68 81  1  0  0  0
 71 72  2  0  0  0
 71 84  1  0  0  0
 71145  1  0  0  0
 72 73  1  0  0  0
 72 80  1  0  0  0
 73 75  1  0  0  0
 73 85  2  0  0  0
 74 82  1  0  0  0
 74 84  2  0  0  0
 74 85  1  0  0  0
 75146  1  0  0  0
 75147  1  0  0  0
 75148  1  0  0  0
 76149  1  0  0  0
 76150  1  0  0  0
 76151  1  0  0  0
 76 82  1  0  0  0
 77 82  1  0  0  0
 77152  1  0  0  0
 77153  1  0  0  0
 77154  1  0  0  0
 78155  1  0  0  0
 78156  1  0  0  0
 78157  1  0  0  0
 78 83  1  0  0  0
 79 83  1  0  0  0
 79158  1  0  0  0
 79159  1  0  0  0
 79160  1  0  0  0
 80 83  1  0  0  0
 80161  1  0  0  0
 80162  1  0  0  0
 81 83  1  0  0  0
 81163  1  0  0  0
 81164  1  0  0  0
M  ISO  4   1 100  68 101  81 101  82 100
M  END
> <chiral flag>
0

> <version>
0

> <s_m_source_file>
/data/baiqing/PycharmProjects/Reinvent-master-3.2/result/LINK_invent/BTK/process_docking_weight1_custom_sum_contain_oxygen_bond_distance_aromatic_linkinvent_7_9_3/rearranged_h_0071.sdf

> <i_m_source_file_index>
34

> <r_mmod_Potential_Energy-OPLS-2005>
346.377838134766

> <r_mmod_Stretch_Energy-OPLS-2005>
218.44367980957

> <r_mmod_Bend_Energy-OPLS-2005>
362.035400390625

> <r_mmod_Torsional_Energy-OPLS-2005>
288.931030273438

> <r_mmod_Improper_Torsional_Energy-OPLS-2005>
24.7831802368164

> <r_mmod_Van_der_Waal_Energy-OPLS-2005>
160.111282348633

> <r_mmod_Electrostatic_Energy-OPLS-2005>
-683.351745605469

> <r_mmod_Solvation_Energy-OPLS-2005>
-199.882736206055

> <b_mmod_Minimization_Converged-OPLS-2005>
0

> <r_mmod_RMS_Derivative-OPLS-2005>
7.11915111541748

$$$$
35
                    3D
 Structure written by MMmdl.
167175  0  0  1  0            999 V2000
  -30.6086  -14.7168   20.4700 C   0  0  0  0  0  0
  -30.4363  -12.4383   19.4586 C   0  0  0  0  0  0
  -29.5073  -12.4998   18.2261 C   0  0  0  0  0  0
  -28.0344  -12.3208   18.6453 C   0  0  0  0  0  0
  -27.6426  -13.2229   19.8458 C   0  0  2  0  0  0
  -28.6889  -13.1416   20.9779 C   0  0  0  0  0  0
  -25.2532  -13.8181   20.5683 C   0  0  0  0  0  0
  -24.1817  -13.0438   20.9214 C   0  0  0  0  0  0
  -24.6390  -11.6913   20.8746 C   0  0  0  0  0  0
  -23.9059  -10.4291   21.0407 C   0  0  0  0  0  0
  -24.3611   -9.4208   21.9188 C   0  0  0  0  0  0
  -23.6289   -8.2241   22.0755 C   0  0  0  0  0  0
  -22.4273   -8.0276   21.3543 C   0  0  0  0  0  0
  -21.9907   -9.0248   20.4646 C   0  0  0  0  0  0
  -22.7230  -10.2130   20.3057 C   0  0  0  0  0  0
  -21.6853   -6.0735   22.5280 C   0  0  0  0  0  0
  -21.4013   -6.5640   23.8213 C   0  0  0  0  0  0
  -21.3658   -5.6794   24.9177 C   0  0  0  0  0  0
  -21.6042   -4.3056   24.7228 C   0  0  0  0  0  0
  -21.8820   -3.8148   23.4348 C   0  0  0  0  0  0
  -21.9191   -4.6963   22.3404 C   0  0  0  0  0  0
  -22.7842  -13.5232   21.1871 C   0  0  0  0  0  0
  -22.1665   -4.2147   21.0982 F   0  0  0  0  0  0
  -21.5624   -3.4541   25.7741 F   0  0  0  0  0  0
  -29.9902  -13.4921   20.3940 N   0  0  0  0  0  0
  -26.2942  -12.9369   20.3255 N   0  0  0  0  0  0
  -25.9314  -11.6522   20.5739 N   0  0  0  0  0  0
  -22.0483  -12.8212   22.0420 N   0  0  0  0  0  0
  -25.4228  -15.1897   20.4073 N   0  0  0  0  0  0
  -31.8021  -14.8371   20.1854 O   0  0  0  0  0  0
  -21.6640   -6.8872   21.4241 O   0  0  0  0  0  0
  -22.3527  -14.5537   20.6716 O   0  0  0  0  0  0
  -24.6300  -31.8542   23.2026 C   0  0  0  0  0  0
  -25.9120  -32.4764   23.8365 C   0  0  1  0  0  0
  -27.2236  -27.2765   20.1299 C   0  0  0  0  0  0
  -25.5918  -33.8568   24.2276 N   0  0  0  0  0  0
  -23.4304  -30.4767   21.5445 C   0  0  2  0  0  0
  -24.8786  -28.9273   20.1139 C   0  0  0  0  0  0
  -22.7514  -29.4576   22.4912 C   0  0  0  0  0  0
  -18.0300  -28.1365   22.8485 C   0  0  0  0  0  0
  -24.1472  -36.7265   23.2646 C   0  0  0  0  0  0
  -25.9756  -30.7716   21.3844 C   0  0  0  0  0  0
  -26.0496  -29.3968   20.7234 C   0  0  0  0  0  0
  -27.2279  -28.5853   20.7162 C   0  0  0  0  0  0
  -26.0338  -26.8776   19.4827 C   0  0  0  0  0  0
  -24.8739  -27.6748   19.4827 C   0  0  0  0  0  0
  -23.6498  -29.8132   20.1603 C   0  0  0  0  0  0
  -25.4107  -36.3069   24.0325 C   0  0  1  0  0  0
  -20.5908  -28.3666   23.1266 C   0  0  2  0  0  0
  -20.6775  -26.9380   22.5405 C   0  0  0  0  0  0
  -19.5748  -26.6360   21.5206 C   0  0  0  0  0  0
  -18.1934  -26.7913   22.1615 C   0  0  0  0  0  0
  -19.1555  -28.8834   23.2871 C   0  0  0  0  0  0
  -18.9472  -30.1441   23.8882 C   0  0  0  0  0  0
  -17.6472  -30.6574   24.0549 C   0  0  0  0  0  0
  -25.9045  -34.9440   23.5098 C   0  0  0  0  0  0
  -16.5359  -29.9068   23.6333 C   0  0  0  0  0  0
  -16.7287  -28.6482   23.0357 C   0  0  0  0  0  0
  -26.4505  -31.6602   25.0756 C   0  0  0  0  0  0
  -25.3741  -31.3733   26.1480 C   0  0  0  0  0  0
  -27.0388  -30.3034   24.6253 C   0  0  0  0  0  0
  -27.6054  -32.4368   25.7517 C   0  0  0  0  0  0
  -27.5573  -37.1787   24.8473 C   0  0  0  0  0  0
  -21.4220  -29.3014   22.3660 N   0  0  0  0  0  0
  -26.4288  -37.3762   23.9410 N   0  0  0  0  0  0
  -24.6978  -31.0518   22.0999 N   0  0  0  0  0  0
  -23.4211  -28.8091   23.2997 O   0  0  0  0  0  0
  -28.3210  -26.3886   20.1542 O   0  0  0  0  0  0
  -26.5619  -34.8909   22.4666 O   0  0  0  0  0  0
  -23.5444  -32.1348   23.7309 O   0  0  0  0  0  0
  -27.2866  -20.8709   22.1066 C   0  0  0  0  0  0
  -27.6249  -22.1347   21.6075 C   0  0  0  0  0  0
  -27.9362  -19.7105   21.6416 C   0  0  0  0  0  0
  -28.6255  -22.2590   20.6323 C   0  0  0  0  0  0
  -28.9862  -19.8248   20.6869 C   0  0  0  0  0  0
  -27.4136  -18.3887   22.1903 C   0  0  0  0  0  0
  -28.9570  -23.7011   18.5535 C   0  0  0  0  0  0
  -30.4438  -24.0228   20.5691 C   0  0  0  0  0  0
  -30.9566  -18.9586   19.3016 C   0  0  0  0  0  0
  -28.7152  -17.9880   18.9194 C   0  0  0  0  0  0
  -30.1512  -17.2814   20.9812 C   0  0  0  0  0  0
  -28.0744  -24.9624   20.5674 C   0  0  0  0  0  0
  -29.0121  -23.7202   20.0915 C   0  0  0  0  0  0
  -29.6617  -18.5139   20.0198 C   0  0  0  0  0  0
  -29.2786  -21.1031   20.1987 N   0  0  0  0  0  0
  -29.8083  -15.8207   20.6879 N   0  0  0  0  0  0
  -31.4770  -12.5687   19.1558 H   0  0  0  0  0  0
  -30.3822  -11.4582   19.9356 H   0  0  0  0  0  0
  -29.7853  -11.7314   17.5034 H   0  0  0  0  0  0
  -29.6302  -13.4578   17.7190 H   0  0  0  0  0  0
  -27.8959  -11.2729   18.9141 H   0  0  0  0  0  0
  -27.3723  -12.5053   17.7986 H   0  0  0  0  0  0
  -27.6400  -14.2443   19.4651 H   0  0  0  0  0  0
  -28.7207  -12.1388   21.4070 H   0  0  0  0  0  0
  -28.4286  -13.8134   21.7973 H   0  0  0  0  0  0
  -25.2751   -9.5690   22.4769 H   0  0  0  0  0  0
  -23.9999   -7.4633   22.7475 H   0  0  0  0  0  0
  -21.0839   -8.8757   19.8953 H   0  0  0  0  0  0
  -22.3679  -10.9668   19.6168 H   0  0  0  0  0  0
  -21.2010   -7.6149   23.9715 H   0  0  0  0  0  0
  -21.1480   -6.0527   25.9077 H   0  0  0  0  0  0
  -22.0599   -2.7610   23.2851 H   0  0  0  0  0  0
  -22.4100  -11.9867   22.4792 H   0  0  0  0  0  0
  -21.1105  -13.1243   22.2634 H   0  0  0  0  0  0
  -24.6435  -15.8328   20.4902 H   0  0  0  0  0  0
  -26.2492  -15.6199   20.0146 H   0  0  0  0  0  0
  -26.7191  -32.5416   23.1116 H   0  0  0  0  0  0
  -25.0105  -33.9716   25.0450 H   0  0  0  0  0  0
  -22.7273  -31.2992   21.3995 H   0  0  0  0  0  0
  -23.3751  -35.9581   23.3321 H   0  0  0  0  0  0
  -24.3565  -36.8886   22.2062 H   0  0  0  0  0  0
  -23.7211  -37.6459   23.6670 H   0  0  0  0  0  0
  -26.1210  -31.5374   20.6213 H   0  0  0  0  0  0
  -26.8497  -30.8154   22.0220 H   0  0  0  0  0  0
  -28.1286  -28.9411   21.1968 H   0  0  0  0  0  0
  -25.9858  -25.9294   18.9683 H   0  0  0  0  0  0
  -23.9792  -27.3153   18.9938 H   0  0  0  0  0  0
  -23.7802  -30.5909   19.4068 H   0  0  0  0  0  0
  -22.7686  -29.2495   19.8505 H   0  0  0  0  0  0
  -25.1285  -36.1933   25.0819 H   0  0  0  0  0  0
  -20.9997  -28.3240   24.1385 H   0  0  0  0  0  0
  -20.5663  -26.2263   23.3604 H   0  0  0  0  0  0
  -21.6639  -26.7387   22.1200 H   0  0  0  0  0  0
  -19.6890  -25.6272   21.1231 H   0  0  0  0  0  0
  -19.6688  -27.3169   20.6740 H   0  0  0  0  0  0
  -17.4196  -26.6669   21.4021 H   0  0  0  0  0  0
  -18.0328  -26.0051   22.9002 H   0  0  0  0  0  0
  -19.7953  -30.7259   24.2240 H   0  0  0  0  0  0
  -17.5030  -31.6263   24.5136 H   0  0  0  0  0  0
  -15.5360  -30.2954   23.7678 H   0  0  0  0  0  0
  -15.8690  -28.0798   22.7079 H   0  0  0  0  0  0
  -24.5899  -30.7103   25.7805 H   0  0  0  0  0  0
  -24.8948  -32.2896   26.4942 H   0  0  0  0  0  0
  -25.8065  -30.8883   27.0243 H   0  0  0  0  0  0
  -26.2982  -29.6747   24.1294 H   0  0  0  0  0  0
  -27.4107  -29.7338   25.4783 H   0  0  0  0  0  0
  -27.8838  -30.4339   23.9486 H   0  0  0  0  0  0
  -27.2656  -33.3673   26.2075 H   0  0  0  0  0  0
  -28.3862  -32.6930   25.0342 H   0  0  0  0  0  0
  -28.0718  -31.8517   26.5451 H   0  0  0  0  0  0
  -28.2593  -38.0084   24.7546 H   0  0  0  0  0  0
  -28.1068  -36.2620   24.6279 H   0  0  0  0  0  0
  -27.2293  -37.1423   25.8878 H   0  0  0  0  0  0
  -20.9396  -29.8768   21.6900 H   0  0  0  0  0  0
  -26.0164  -38.2824   24.1466 H   0  0  0  0  0  0
  -26.4967  -20.7948   22.8405 H   0  0  0  0  0  0
  -27.0939  -22.9945   21.9877 H   0  0  0  0  0  0
  -26.3506  -18.4639   22.4235 H   0  0  0  0  0  0
  -27.9305  -18.1348   23.1156 H   0  0  0  0  0  0
  -27.5112  -17.5600   21.4942 H   0  0  0  0  0  0
  -29.6306  -22.9495   18.1401 H   0  0  0  0  0  0
  -29.2452  -24.6667   18.1375 H   0  0  0  0  0  0
  -27.9502  -23.4742   18.2018 H   0  0  0  0  0  0
  -31.1509  -23.2751   20.2093 H   0  0  0  0  0  0
  -30.4921  -24.0195   21.6584 H   0  0  0  0  0  0
  -30.7883  -24.9977   20.2257 H   0  0  0  0  0  0
  -30.7579  -19.6897   18.5178 H   0  0  0  0  0  0
  -31.4608  -18.1163   18.8257 H   0  0  0  0  0  0
  -31.6587  -19.4128   20.0012 H   0  0  0  0  0  0
  -28.4846  -18.7738   18.1988 H   0  0  0  0  0  0
  -27.7655  -17.6396   19.3195 H   0  0  0  0  0  0
  -29.1601  -17.1618   18.3637 H   0  0  0  0  0  0
  -29.8116  -17.4708   21.9956 H   0  0  0  0  0  0
  -31.2338  -17.3314   21.1053 H   0  0  0  0  0  0
  -28.0992  -24.9916   21.6579 H   0  0  0  0  0  0
  -27.0522  -24.6763   20.3320 H   0  0  0  0  0  0
  -28.8331  -15.5918   20.7973 H   0  0  0  0  0  0
  1 25  1  0  0  0
  1 30  2  0  0  0
  1 86  1  0  0  0
  2  3  1  0  0  0
  2 25  1  0  0  0
  2 87  1  0  0  0
  2 88  1  0  0  0
  3  4  1  0  0  0
  3 89  1  0  0  0
  3 90  1  0  0  0
  4  5  1  0  0  0
  4 91  1  0  0  0
  4 92  1  0  0  0
  5  6  1  0  0  0
  5 26  1  0  0  0
  5 93  1  0  0  0
  6 25  1  0  0  0
  6 94  1  0  0  0
  6 95  1  0  0  0
  7  8  2  0  0  0
  7 26  1  0  0  0
  7 29  1  0  0  0
  8  9  1  0  0  0
  8 22  1  0  0  0
  9 10  1  0  0  0
  9 27  2  0  0  0
 10 11  2  0  0  0
 10 15  1  0  0  0
 11 12  1  0  0  0
 11 96  1  0  0  0
 12 13  2  0  0  0
 12 97  1  0  0  0
 13 14  1  0  0  0
 13 31  1  0  0  0
 14 15  2  0  0  0
 14 98  1  0  0  0
 15 99  1  0  0  0
 16 17  2  0  0  0
 16 21  1  0  0  0
 16 31  1  0  0  0
 17 18  1  0  0  0
 17100  1  0  0  0
 18 19  2  0  0  0
 18101  1  0  0  0
 19 20  1  0  0  0
 19 24  1  0  0  0
 20 21  2  0  0  0
 20102  1  0  0  0
 21 23  1  0  0  0
 22 28  1  0  0  0
 22 32  2  0  0  0
 26 27  1  0  0  0
 28103  1  0  0  0
 28104  1  0  0  0
 29105  1  0  0  0
 29106  1  0  0  0
 33 34  1  0  0  0
 33 66  1  0  0  0
 33 70  2  0  0  0
 34 36  1  0  0  0
 34 59  1  0  0  0
 34107  1  0  0  0
 35 44  2  0  0  0
 35 45  1  0  0  0
 35 68  1  0  0  0
 36 56  1  0  0  0
 36108  1  0  0  0
 37 39  1  0  0  0
 37 47  1  0  0  0
 37 66  1  0  0  0
 37109  1  0  0  0
 38 43  2  0  0  0
 38 46  1  0  0  0
 38 47  1  0  0  0
 39 64  1  0  0  0
 39 67  2  0  0  0
 40 52  1  0  0  0
 40 53  2  0  0  0
 40 58  1  0  0  0
 41110  1  0  0  0
 41111  1  0  0  0
 41112  1  0  0  0
 41 48  1  0  0  0
 42 43  1  0  0  0
 42 66  1  0  0  0
 42113  1  0  0  0
 42114  1  0  0  0
 43 44  1  0  0  0
 44115  1  0  0  0
 45 46  2  0  0  0
 45116  1  0  0  0
 46117  1  0  0  0
 47118  1  0  0  0
 47119  1  0  0  0
 48 56  1  0  0  0
 48 65  1  0  0  0
 48120  1  0  0  0
 49 50  1  0  0  0
 49 53  1  0  0  0
 49 64  1  0  0  0
 49121  1  0  0  0
 50 51  1  0  0  0
 50122  1  0  0  0
 50123  1  0  0  0
 51 52  1  0  0  0
 51124  1  0  0  0
 51125  1  0  0  0
 52126  1  0  0  0
 52127  1  0  0  0
 53 54  1  0  0  0
 54 55  2  0  0  0
 54128  1  0  0  0
 55 57  1  0  0  0
 55129  1  0  0  0
 56 69  2  0  0  0
 57 58  2  0  0  0
 57130  1  0  0  0
 58131  1  0  0  0
 59 60  1  0  0  0
 59 61  1  0  0  0
 59 62  1  0  0  0
 60132  1  0  0  0
 60133  1  0  0  0
 60134  1  0  0  0
 61135  1  0  0  0
 61136  1  0  0  0
 61137  1  0  0  0
 62138  1  0  0  0
 62139  1  0  0  0
 62140  1  0  0  0
 63 65  1  0  0  0
 63141  1  0  0  0
 63142  1  0  0  0
 63143  1  0  0  0
 64144  1  0  0  0
 65145  1  0  0  0
 68 82  1  0  0  0
 71 72  2  0  0  0
 71 73  1  0  0  0
 71146  1  0  0  0
 72 74  1  0  0  0
 72147  1  0  0  0
 73 75  2  0  0  0
 73 76  1  0  0  0
 74 83  1  0  0  0
 74 85  2  0  0  0
 75 84  1  0  0  0
 75 85  1  0  0  0
 76148  1  0  0  0
 76149  1  0  0  0
 76150  1  0  0  0
 77151  1  0  0  0
 77152  1  0  0  0
 77153  1  0  0  0
 77 83  1  0  0  0
 78 83  1  0  0  0
 78154  1  0  0  0
 78155  1  0  0  0
 78156  1  0  0  0
 79157  1  0  0  0
 79158  1  0  0  0
 79159  1  0  0  0
 79 84  1  0  0  0
 80 84  1  0  0  0
 80160  1  0  0  0
 80161  1  0  0  0
 80162  1  0  0  0
 81 84  1  0  0  0
 81 86  1  0  0  0
 81163  1  0  0  0
 81164  1  0  0  0
 82 83  1  0  0  0
 82165  1  0  0  0
 82166  1  0  0  0
 86167  1  0  0  0
M  ISO  4   1 100  68 101  82 101  86 100
M  END
> <chiral flag>
0

> <version>
0

> <s_m_source_file>
/data/baiqing/PycharmProjects/Reinvent-master-3.2/result/LINK_invent/BTK/process_docking_weight1_custom_sum_contain_oxygen_bond_distance_aromatic_linkinvent_7_9_3/rearranged_h_0071.sdf

> <i_m_source_file_index>
35

> <r_mmod_Potential_Energy-OPLS-2005>
-9.70521926879883

> <r_mmod_Stretch_Energy-OPLS-2005>
134.094360351562

> <r_mmod_Bend_Energy-OPLS-2005>
178.231475830078

> <r_mmod_Torsional_Energy-OPLS-2005>
236.407989501953

> <r_mmod_Improper_Torsional_Energy-OPLS-2005>
5.34552764892578

> <r_mmod_Van_der_Waal_Energy-OPLS-2005>
145.841720581055

> <r_mmod_Electrostatic_Energy-OPLS-2005>
-578.248474121094

> <r_mmod_Solvation_Energy-OPLS-2005>
-207.623550415039

> <b_mmod_Minimization_Converged-OPLS-2005>
0

> <r_mmod_RMS_Derivative-OPLS-2005>
1.52550363540649

$$$$
36
                    3D
 Structure written by MMmdl.
160168  0  0  1  0            999 V2000
  -30.4977  -14.9956   20.3862 C   0  0  0  0  0  0
  -30.4598  -12.6140   19.4898 C   0  0  0  0  0  0
  -29.5248  -12.5342   18.2550 C   0  0  0  0  0  0
  -28.0525  -12.3197   18.6688 C   0  0  0  0  0  0
  -27.6311  -13.2284   19.8520 C   0  0  2  0  0  0
  -28.6918  -13.2195   20.9724 C   0  0  0  0  0  0
  -25.2434  -13.8126   20.5685 C   0  0  0  0  0  0
  -24.1751  -13.0374   20.9224 C   0  0  0  0  0  0
  -24.6375  -11.6864   20.8793 C   0  0  0  0  0  0
  -23.9054  -10.4248   21.0431 C   0  0  0  0  0  0
  -24.3609   -9.4170   21.9201 C   0  0  0  0  0  0
  -23.6281   -8.2212   22.0761 C   0  0  0  0  0  0
  -22.4264   -8.0259   21.3546 C   0  0  0  0  0  0
  -21.9908   -9.0235   20.4650 C   0  0  0  0  0  0
  -22.7238  -10.2109   20.3066 C   0  0  0  0  0  0
  -21.6840   -6.0729   22.5280 C   0  0  0  0  0  0
  -21.4008   -6.5637   23.8213 C   0  0  0  0  0  0
  -21.3658   -5.6792   24.9175 C   0  0  0  0  0  0
  -21.6042   -4.3056   24.7225 C   0  0  0  0  0  0
  -21.8822   -3.8144   23.4350 C   0  0  0  0  0  0
  -21.9193   -4.6960   22.3408 C   0  0  0  0  0  0
  -22.7775  -13.5170   21.1874 C   0  0  0  0  0  0
  -22.1664   -4.2148   21.0987 F   0  0  0  0  0  0
  -21.5631   -3.4545   25.7741 F   0  0  0  0  0  0
  -29.9556  -13.6985   20.3849 N   0  0  0  0  0  0
  -26.2893  -12.9333   20.3355 N   0  0  0  0  0  0
  -25.9311  -11.6486   20.5830 N   0  0  0  0  0  0
  -22.0425  -12.8165   22.0438 N   0  0  0  0  0  0
  -25.3987  -15.1846   20.3993 N   0  0  0  0  0  0
  -31.7109  -15.0551   20.1562 O   0  0  0  0  0  0
  -21.6625   -6.8863   21.4239 O   0  0  0  0  0  0
  -22.3469  -14.5483   20.6728 O   0  0  0  0  0  0
  -24.6423  -31.8429   23.1862 C   0  0  0  0  0  0
  -25.9197  -32.4689   23.8261 C   0  0  1  0  0  0
  -27.2292  -27.1369   20.1572 C   0  0  0  0  0  0
  -25.5951  -33.8498   24.2178 N   0  0  0  0  0  0
  -23.4469  -30.4586   21.5319 C   0  0  2  0  0  0
  -24.9000  -28.8819   20.1104 C   0  0  0  0  0  0
  -22.7560  -29.4529   22.4860 C   0  0  0  0  0  0
  -18.0300  -28.1392   22.8472 C   0  0  0  0  0  0
  -24.1495  -36.7252   23.2641 C   0  0  0  0  0  0
  -26.0010  -30.7171   21.3850 C   0  0  0  0  0  0
  -26.0755  -29.3272   20.7282 C   0  0  0  0  0  0
  -27.2394  -28.4710   20.7331 C   0  0  0  0  0  0
  -26.0281  -26.7896   19.5009 C   0  0  0  0  0  0
  -24.8892  -27.6263   19.4813 C   0  0  0  0  0  0
  -23.6746  -29.7831   20.1528 C   0  0  0  0  0  0
  -25.4127  -36.3029   24.0309 C   0  0  1  0  0  0
  -20.5909  -28.3717   23.1236 C   0  0  2  0  0  0
  -20.6787  -26.9421   22.5406 C   0  0  0  0  0  0
  -19.5766  -26.6375   21.5211 C   0  0  0  0  0  0
  -18.1944  -26.7931   22.1620 C   0  0  0  0  0  0
  -19.1555  -28.8872   23.2846 C   0  0  0  0  0  0
  -18.9478  -30.1471   23.8867 C   0  0  0  0  0  0
  -17.6476  -30.6592   24.0553 C   0  0  0  0  0  0
  -25.9076  -34.9404   23.5053 C   0  0  0  0  0  0
  -16.5367  -29.9084   23.6334 C   0  0  0  0  0  0
  -16.7285  -28.6504   23.0352 C   0  0  0  0  0  0
  -26.4528  -31.6559   25.0703 C   0  0  0  0  0  0
  -25.3711  -31.3751   26.1397 C   0  0  0  0  0  0
  -27.0398  -30.2954   24.6288 C   0  0  0  0  0  0
  -27.6051  -32.4334   25.7498 C   0  0  0  0  0  0
  -27.5576  -37.1786   24.8462 C   0  0  0  0  0  0
  -21.4251  -29.3039   22.3604 N   0  0  0  0  0  0
  -26.4291  -37.3743   23.9402 N   0  0  0  0  0  0
  -24.7161  -31.0278   22.0897 N   0  0  0  0  0  0
  -23.4202  -28.8082   23.3019 O   0  0  0  0  0  0
  -28.2962  -26.1688   20.2394 O   0  0  0  0  0  0
  -26.5665  -34.8904   22.4634 O   0  0  0  0  0  0
  -23.5543  -32.1310   23.7079 O   0  0  0  0  0  0
  -28.0754  -20.9419   19.8140 C   0  0  0  0  0  0
  -29.9981  -20.7542   20.7022 C   0  0  0  0  0  0
  -29.0899  -21.7971   20.3676 C   0  0  0  0  0  0
  -30.5338  -23.8641   19.9345 C   0  0  0  0  0  0
  -29.3013  -23.6658   22.0933 C   0  0  0  0  0  0
  -28.6189  -16.4242   21.5541 C   0  0  0  0  0  0
  -28.8805  -16.5041   19.0246 C   0  0  0  0  0  0
  -30.3152  -17.9928   20.4996 C   0  0  0  0  0  0
  -28.0967  -24.6293   20.0588 C   0  0  0  0  0  0
  -29.1956  -23.4524   20.5730 C   0  0  0  0  0  0
  -29.6253  -16.4508   20.3851 C   0  0  0  0  0  0
  -28.3546  -19.6082   19.8139 N   0  0  0  0  0  0
  -29.5774  -19.4097   20.3850 N   0  0  0  0  0  0
  -31.4832  -12.7995   19.1607 H   0  0  0  0  0  0
  -30.4915  -11.6590   20.0166 H   0  0  0  0  0  0
  -29.8454  -11.7293   17.5920 H   0  0  0  0  0  0
  -29.6111  -13.4534   17.6746 H   0  0  0  0  0  0
  -27.9380  -11.2728   18.9532 H   0  0  0  0  0  0
  -27.3901  -12.4749   17.8167 H   0  0  0  0  0  0
  -27.5759  -14.2318   19.4493 H   0  0  0  0  0  0
  -28.8069  -12.2089   21.3678 H   0  0  0  0  0  0
  -28.3953  -13.8126   21.8332 H   0  0  0  0  0  0
  -25.2751   -9.5653   22.4775 H   0  0  0  0  0  0
  -23.9992   -7.4603   22.7478 H   0  0  0  0  0  0
  -21.0845   -8.8755   19.8949 H   0  0  0  0  0  0
  -22.3702  -10.9654   19.6178 H   0  0  0  0  0  0
  -21.1994   -7.6142   23.9716 H   0  0  0  0  0  0
  -21.1477   -6.0522   25.9080 H   0  0  0  0  0  0
  -22.0604   -2.7607   23.2851 H   0  0  0  0  0  0
  -22.4051  -11.9831   22.4823 H   0  0  0  0  0  0
  -21.1050  -13.1193   22.2655 H   0  0  0  0  0  0
  -24.6257  -15.8310   20.5126 H   0  0  0  0  0  0
  -26.2505  -15.6350   20.0915 H   0  0  0  0  0  0
  -26.7259  -32.5302   23.0989 H   0  0  0  0  0  0
  -25.0081  -33.9622   25.0313 H   0  0  0  0  0  0
  -22.7497  -31.2841   21.3752 H   0  0  0  0  0  0
  -23.3766  -35.9577   23.3289 H   0  0  0  0  0  0
  -24.3573  -36.8903   22.2058 H   0  0  0  0  0  0
  -23.7247  -37.6439   23.6694 H   0  0  0  0  0  0
  -26.1553  -31.4712   20.6120 H   0  0  0  0  0  0
  -26.8705  -30.7692   22.0276 H   0  0  0  0  0  0
  -28.1336  -28.8070   21.2388 H   0  0  0  0  0  0
  -25.9434  -25.8275   19.0173 H   0  0  0  0  0  0
  -23.9916  -27.2782   18.9891 H   0  0  0  0  0  0
  -23.8106  -30.5560   19.3959 H   0  0  0  0  0  0
  -22.7900  -29.2240   19.8429 H   0  0  0  0  0  0
  -25.1319  -36.1853   25.0802 H   0  0  0  0  0  0
  -21.0000  -28.3316   24.1358 H   0  0  0  0  0  0
  -20.5681  -26.2332   23.3624 H   0  0  0  0  0  0
  -21.6655  -26.7430   22.1210 H   0  0  0  0  0  0
  -19.6930  -25.6278   21.1260 H   0  0  0  0  0  0
  -19.6703  -27.3168   20.6726 H   0  0  0  0  0  0
  -17.4212  -26.6665   21.4025 H   0  0  0  0  0  0
  -18.0347  -26.0080   22.9022 H   0  0  0  0  0  0
  -19.7955  -30.7289   24.2228 H   0  0  0  0  0  0
  -17.5032  -31.6268   24.5163 H   0  0  0  0  0  0
  -15.5367  -30.2979   23.7673 H   0  0  0  0  0  0
  -15.8685  -28.0813   22.7084 H   0  0  0  0  0  0
  -24.5895  -30.7095   25.7719 H   0  0  0  0  0  0
  -24.8896  -32.2933   26.4768 H   0  0  0  0  0  0
  -25.7994  -30.8960   27.0210 H   0  0  0  0  0  0
  -26.3015  -29.6670   24.1293 H   0  0  0  0  0  0
  -27.4006  -29.7263   25.4868 H   0  0  0  0  0  0
  -27.8926  -30.4184   23.9608 H   0  0  0  0  0  0
  -27.2631  -33.3650   26.2020 H   0  0  0  0  0  0
  -28.3898  -32.6871   25.0358 H   0  0  0  0  0  0
  -28.0680  -31.8497   26.5463 H   0  0  0  0  0  0
  -28.2585  -38.0091   24.7514 H   0  0  0  0  0  0
  -28.1084  -36.2621   24.6292 H   0  0  0  0  0  0
  -27.2288  -37.1427   25.8864 H   0  0  0  0  0  0
  -20.9458  -29.8753   21.6781 H   0  0  0  0  0  0
  -26.0152  -38.2808   24.1417 H   0  0  0  0  0  0
  -27.1269  -21.2520   19.3980 H   0  0  0  0  0  0
  -30.9705  -20.8703   21.1597 H   0  0  0  0  0  0
  -31.3732  -23.3092   20.3538 H   0  0  0  0  0  0
  -30.7396  -24.9240   20.0868 H   0  0  0  0  0  0
  -30.5240  -23.6850   18.8590 H   0  0  0  0  0  0
  -30.1292  -23.1041   22.5265 H   0  0  0  0  0  0
  -28.3895  -23.3455   22.5986 H   0  0  0  0  0  0
  -29.4569  -24.7167   22.3411 H   0  0  0  0  0  0
  -28.1969  -17.4099   21.7491 H   0  0  0  0  0  0
  -29.0937  -16.0950   22.4791 H   0  0  0  0  0  0
  -27.7692  -15.7806   21.3567 H   0  0  0  0  0  0
  -27.8437  -16.8215   19.1363 H   0  0  0  0  0  0
  -28.8889  -15.5633   18.4792 H   0  0  0  0  0  0
  -29.3493  -17.2151   18.3440 H   0  0  0  0  0  0
  -31.1178  -18.0271   19.7621 H   0  0  0  0  0  0
  -30.8477  -18.0192   21.4513 H   0  0  0  0  0  0
  -27.1390  -24.3828   20.5181 H   0  0  0  0  0  0
  -27.9435  -24.4761   18.9900 H   0  0  0  0  0  0
  1 25  1  0  0  0
  1 30  2  0  0  0
  1 81  1  0  0  0
  2  3  1  0  0  0
  2 25  1  0  0  0
  2 84  1  0  0  0
  2 85  1  0  0  0
  3  4  1  0  0  0
  3 86  1  0  0  0
  3 87  1  0  0  0
  4  5  1  0  0  0
  4 88  1  0  0  0
  4 89  1  0  0  0
  5  6  1  0  0  0
  5 26  1  0  0  0
  5 90  1  0  0  0
  6 25  1  0  0  0
  6 91  1  0  0  0
  6 92  1  0  0  0
  7  8  2  0  0  0
  7 26  1  0  0  0
  7 29  1  0  0  0
  8  9  1  0  0  0
  8 22  1  0  0  0
  9 10  1  0  0  0
  9 27  2  0  0  0
 10 11  2  0  0  0
 10 15  1  0  0  0
 11 12  1  0  0  0
 11 93  1  0  0  0
 12 13  2  0  0  0
 12 94  1  0  0  0
 13 14  1  0  0  0
 13 31  1  0  0  0
 14 15  2  0  0  0
 14 95  1  0  0  0
 15 96  1  0  0  0
 16 17  2  0  0  0
 16 21  1  0  0  0
 16 31  1  0  0  0
 17 18  1  0  0  0
 17 97  1  0  0  0
 18 19  2  0  0  0
 18 98  1  0  0  0
 19 20  1  0  0  0
 19 24  1  0  0  0
 20 21  2  0  0  0
 20 99  1  0  0  0
 21 23  1  0  0  0
 22 28  1  0  0  0
 22 32  2  0  0  0
 26 27  1  0  0  0
 28100  1  0  0  0
 28101  1  0  0  0
 29102  1  0  0  0
 29103  1  0  0  0
 33 34  1  0  0  0
 33 66  1  0  0  0
 33 70  2  0  0  0
 34 36  1  0  0  0
 34 59  1  0  0  0
 34104  1  0  0  0
 35 44  2  0  0  0
 35 45  1  0  0  0
 35 68  1  0  0  0
 36 56  1  0  0  0
 36105  1  0  0  0
 37 39  1  0  0  0
 37 47  1  0  0  0
 37 66  1  0  0  0
 37106  1  0  0  0
 38 43  2  0  0  0
 38 46  1  0  0  0
 38 47  1  0  0  0
 39 64  1  0  0  0
 39 67  2  0  0  0
 40 52  1  0  0  0
 40 53  2  0  0  0
 40 58  1  0  0  0
 41107  1  0  0  0
 41108  1  0  0  0
 41109  1  0  0  0
 41 48  1  0  0  0
 42 43  1  0  0  0
 42 66  1  0  0  0
 42110  1  0  0  0
 42111  1  0  0  0
 43 44  1  0  0  0
 44112  1  0  0  0
 45 46  2  0  0  0
 45113  1  0  0  0
 46114  1  0  0  0
 47115  1  0  0  0
 47116  1  0  0  0
 48 56  1  0  0  0
 48 65  1  0  0  0
 48117  1  0  0  0
 49 50  1  0  0  0
 49 53  1  0  0  0
 49 64  1  0  0  0
 49118  1  0  0  0
 50 51  1  0  0  0
 50119  1  0  0  0
 50120  1  0  0  0
 51 52  1  0  0  0
 51121  1  0  0  0
 51122  1  0  0  0
 52123  1  0  0  0
 52124  1  0  0  0
 53 54  1  0  0  0
 54 55  2  0  0  0
 54125  1  0  0  0
 55 57  1  0  0  0
 55126  1  0  0  0
 56 69  2  0  0  0
 57 58  2  0  0  0
 57127  1  0  0  0
 58128  1  0  0  0
 59 60  1  0  0  0
 59 61  1  0  0  0
 59 62  1  0  0  0
 60129  1  0  0  0
 60130  1  0  0  0
 60131  1  0  0  0
 61132  1  0  0  0
 61133  1  0  0  0
 61134  1  0  0  0
 62135  1  0  0  0
 62136  1  0  0  0
 62137  1  0  0  0
 63 65  1  0  0  0
 63138  1  0  0  0
 63139  1  0  0  0
 63140  1  0  0  0
 64141  1  0  0  0
 65142  1  0  0  0
 68 79  1  0  0  0
 71 73  1  0  0  0
 71 82  2  0  0  0
 71143  1  0  0  0
 72 73  2  0  0  0
 72 83  1  0  0  0
 72144  1  0  0  0
 73 80  1  0  0  0
 74145  1  0  0  0
 74146  1  0  0  0
 74147  1  0  0  0
 74 80  1  0  0  0
 75 80  1  0  0  0
 75148  1  0  0  0
 75149  1  0  0  0
 75150  1  0  0  0
 76151  1  0  0  0
 76152  1  0  0  0
 76153  1  0  0  0
 76 81  1  0  0  0
 77 81  1  0  0  0
 77154  1  0  0  0
 77155  1  0  0  0
 77156  1  0  0  0
 78 81  1  0  0  0
 78 83  1  0  0  0
 78157  1  0  0  0
 78158  1  0  0  0
 79 80  1  0  0  0
 79159  1  0  0  0
 79160  1  0  0  0
 82 83  1  0  0  0
M  ISO  4   1 100  68 101  79 101  81 100
M  END
> <chiral flag>
0

> <version>
0

> <s_m_source_file>
/data/baiqing/PycharmProjects/Reinvent-master-3.2/result/LINK_invent/BTK/process_docking_weight1_custom_sum_contain_oxygen_bond_distance_aromatic_linkinvent_7_9_3/rearranged_h_0071.sdf

> <i_m_source_file_index>
36

> <r_mmod_Potential_Energy-OPLS-2005>
590.952270507812

> <r_mmod_Stretch_Energy-OPLS-2005>
284.52880859375

> <r_mmod_Bend_Energy-OPLS-2005>
278.036102294922

> <r_mmod_Torsional_Energy-OPLS-2005>
221.600601196289

> <r_mmod_Improper_Torsional_Energy-OPLS-2005>
5.96288585662842

> <r_mmod_Van_der_Waal_Energy-OPLS-2005>
113.200798034668

> <r_mmod_Electrostatic_Energy-OPLS-2005>
-323.638275146484

> <r_mmod_Solvation_Energy-OPLS-2005>
-192.09733581543

> <b_mmod_Minimization_Converged-OPLS-2005>
0

> <r_mmod_RMS_Derivative-OPLS-2005>
1.000523686409

$$$$
37
                    3D
 Structure written by MMmdl.
182191  0  0  1  0            999 V2000
  -30.6920  -14.5041   20.3544 C   0  0  0  0  0  0
  -30.3825  -12.2783   19.4062 C   0  0  0  0  0  0
  -29.4704  -12.4575   18.1717 C   0  0  0  0  0  0
  -27.9868  -12.3740   18.5948 C   0  0  0  0  0  0
  -27.6379  -13.2250   19.8486 C   0  0  2  0  0  0
  -28.6992  -13.1213   20.9660 C   0  0  0  0  0  0
  -25.2519  -13.8240   20.5787 C   0  0  0  0  0  0
  -24.1809  -13.0467   20.9242 C   0  0  0  0  0  0
  -24.6374  -11.6975   20.8744 C   0  0  0  0  0  0
  -23.9011  -10.4324   21.0293 C   0  0  0  0  0  0
  -24.3513   -9.4311   21.9158 C   0  0  0  0  0  0
  -23.6103   -8.2392   22.0808 C   0  0  0  0  0  0
  -22.4201   -8.0332   21.3552 C   0  0  0  0  0  0
  -21.9826   -9.0263   20.4619 C   0  0  0  0  0  0
  -22.7171  -10.2131   20.2965 C   0  0  0  0  0  0
  -21.6823   -6.0711   22.5182 C   0  0  0  0  0  0
  -21.3939   -6.5641   23.8069 C   0  0  0  0  0  0
  -21.3664   -5.6841   24.9087 C   0  0  0  0  0  0
  -21.6065   -4.3109   24.7200 C   0  0  0  0  0  0
  -21.8829   -3.8170   23.4328 C   0  0  0  0  0  0
  -21.9184   -4.6945   22.3361 C   0  0  0  0  0  0
  -22.7841  -13.5245   21.1848 C   0  0  0  0  0  0
  -22.1702   -4.2094   21.0950 F   0  0  0  0  0  0
  -21.5642   -3.4631   25.7743 F   0  0  0  0  0  0
  -30.0033  -13.3398   20.3495 N   0  0  0  0  0  0
  -26.2923  -12.9451   20.3369 N   0  0  0  0  0  0
  -25.9285  -11.6573   20.5769 N   0  0  0  0  0  0
  -22.0561  -12.8165   22.0438 N   0  0  0  0  0  0
  -25.4272  -15.1946   20.4185 N   0  0  0  0  0  0
  -31.9199  -14.5290   20.2822 O   0  0  0  0  0  0
  -21.6632   -6.8860   21.4157 O   0  0  0  0  0  0
  -22.3509  -14.5446   20.6576 O   0  0  0  0  0  0
  -24.6217  -31.8655   23.2145 C   0  0  0  0  0  0
  -25.9086  -32.4830   23.8458 C   0  0  1  0  0  0
  -27.2064  -27.3436   20.1410 C   0  0  0  0  0  0
  -25.5920  -33.8632   24.2379 N   0  0  0  0  0  0
  -23.4200  -30.4953   21.5471 C   0  0  2  0  0  0
  -24.8754  -28.9780   20.1054 C   0  0  0  0  0  0
  -22.7503  -29.4633   22.4886 C   0  0  0  0  0  0
  -18.0293  -28.1370   22.8491 C   0  0  0  0  0  0
  -24.1469  -36.7309   23.2643 C   0  0  0  0  0  0
  -25.9614  -30.8122   21.3880 C   0  0  0  0  0  0
  -26.0409  -29.4448   20.7260 C   0  0  0  0  0  0
  -27.2140  -28.6337   20.7524 C   0  0  0  0  0  0
  -26.0436  -26.9749   19.4221 C   0  0  0  0  0  0
  -24.8793  -27.7511   19.4355 C   0  0  0  0  0  0
  -23.6410  -29.8545   20.1544 C   0  0  0  0  0  0
  -25.4085  -36.3121   24.0352 C   0  0  1  0  0  0
  -20.5899  -28.3664   23.1274 C   0  0  2  0  0  0
  -20.6762  -26.9378   22.5400 C   0  0  0  0  0  0
  -19.5721  -26.6372   21.5206 C   0  0  0  0  0  0
  -18.1912  -26.7918   22.1635 C   0  0  0  0  0  0
  -19.1545  -28.8835   23.2885 C   0  0  0  0  0  0
  -18.9467  -30.1436   23.8908 C   0  0  0  0  0  0
  -17.6463  -30.6570   24.0559 C   0  0  0  0  0  0
  -25.9017  -34.9468   23.5165 C   0  0  0  0  0  0
  -16.5356  -29.9070   23.6309 C   0  0  0  0  0  0
  -16.7279  -28.6483   23.0344 C   0  0  0  0  0  0
  -26.4489  -31.6616   25.0799 C   0  0  0  0  0  0
  -25.3750  -31.3736   26.1554 C   0  0  0  0  0  0
  -27.0331  -30.3047   24.6218 C   0  0  0  0  0  0
  -27.6056  -32.4335   25.7561 C   0  0  0  0  0  0
  -27.5567  -37.1808   24.8468 C   0  0  0  0  0  0
  -21.4206  -29.3050   22.3673 N   0  0  0  0  0  0
  -26.4272  -37.3798   23.9434 N   0  0  0  0  0  0
  -24.6856  -31.0723   22.1072 N   0  0  0  0  0  0
  -23.4249  -28.8126   23.2893 O   0  0  0  0  0  0
  -28.2248  -26.3984   20.3211 O   0  0  0  0  0  0
  -26.5556  -34.8925   22.4712 O   0  0  0  0  0  0
  -23.5367  -32.1421   23.7472 O   0  0  0  0  0  0
  -28.2640  -19.0525   21.9524 C   0  0  0  0  0  0
  -27.8590  -20.8584   23.1513 C   0  0  0  0  0  0
  -28.0161  -19.5003   23.2675 C   0  0  0  0  0  0
  -27.9763  -20.0525   21.0669 C   0  0  0  0  0  0
  -27.5096  -18.4566   19.1065 C   0  0  0  0  0  0
  -29.3132  -20.2680   19.0027 C   0  0  0  0  0  0
  -28.4908  -17.7435   18.1404 C   0  0  0  0  0  0
  -30.3219  -19.1450   19.3065 C   0  0  0  0  0  0
  -27.9359  -19.9037   19.5691 C   0  0  2  0  0  0
  -29.9841  -17.8519   18.5389 C   0  0  2  0  0  0
  -26.1270  -22.9859   22.2011 C   0  0  0  0  0  0
  -29.3544  -18.6149   25.1704 C   0  0  0  0  0  0
  -27.5846  -17.1495   24.1441 C   0  0  0  0  0  0
  -26.8925  -19.1384   25.4712 C   0  0  0  0  0  0
  -30.7093  -16.6016   19.1227 C   0  0  0  0  0  0
  -28.3708  -23.7755   21.2111 C   0  0  0  0  0  0
  -27.6607  -25.0623   20.6246 C   0  0  0  0  0  0
  -27.3313  -22.5732   21.3248 C   0  0  2  0  0  0
  -27.9690  -18.6084   24.5027 C   0  0  0  0  0  0
  -27.7709  -21.2297   21.8082 N   0  0  0  0  0  0
  -30.0068  -15.5999   19.9523 N   0  0  0  0  0  0
  -31.4416  -12.3285   19.1110 H   0  0  0  0  0  0
  -30.2176  -11.2916   19.8511 H   0  0  0  0  0  0
  -29.6695  -11.7245   17.3832 H   0  0  0  0  0  0
  -29.6498  -13.4351   17.7175 H   0  0  0  0  0  0
  -27.7869  -11.3139   18.7858 H   0  0  0  0  0  0
  -27.3420  -12.6729   17.7661 H   0  0  0  0  0  0
  -27.6457  -14.2564   19.5098 H   0  0  0  0  0  0
  -28.5047  -13.8684   21.7473 H   0  0  0  0  0  0
  -28.6931  -12.1465   21.4543 H   0  0  0  0  0  0
  -25.2572   -9.5901   22.4811 H   0  0  0  0  0  0
  -23.9721   -7.4960   22.7764 H   0  0  0  0  0  0
  -21.0829   -8.8665   19.8892 H   0  0  0  0  0  0
  -22.3528  -10.9599   19.6048 H   0  0  0  0  0  0
  -21.1841   -7.6142   23.9536 H   0  0  0  0  0  0
  -21.1508   -6.0611   25.8969 H   0  0  0  0  0  0
  -22.0596   -2.7630   23.2833 H   0  0  0  0  0  0
  -22.4173  -11.9758   22.4706 H   0  0  0  0  0  0
  -21.1109  -13.1067   22.2656 H   0  0  0  0  0  0
  -24.6789  -15.8588   20.5595 H   0  0  0  0  0  0
  -26.2861  -15.6340   20.1145 H   0  0  0  0  0  0
  -26.7178  -32.5531   23.1232 H   0  0  0  0  0  0
  -25.0120  -33.9804   25.0559 H   0  0  0  0  0  0
  -22.7110  -31.3131   21.4095 H   0  0  0  0  0  0
  -23.3739  -35.9632   23.3287 H   0  0  0  0  0  0
  -24.3572  -36.8929   22.2064 H   0  0  0  0  0  0
  -23.7194  -37.6501   23.6652 H   0  0  0  0  0  0
  -26.0948  -31.5809   20.6252 H   0  0  0  0  0  0
  -26.8418  -30.8599   22.0178 H   0  0  0  0  0  0
  -28.0858  -28.9631   21.3011 H   0  0  0  0  0  0
  -25.9865  -26.0534   18.8607 H   0  0  0  0  0  0
  -23.9999  -27.3992   18.9151 H   0  0  0  0  0  0
  -23.7776  -30.6430   19.4117 H   0  0  0  0  0  0
  -22.7661  -29.2911   19.8282 H   0  0  0  0  0  0
  -25.1247  -36.1995   25.0837 H   0  0  0  0  0  0
  -21.0014  -28.3217   24.1385 H   0  0  0  0  0  0
  -20.5625  -26.2264   23.3592 H   0  0  0  0  0  0
  -21.6620  -26.7366   22.1200 H   0  0  0  0  0  0
  -19.6861  -25.6290   21.1210 H   0  0  0  0  0  0
  -19.6649  -27.3198   20.6746 H   0  0  0  0  0  0
  -17.4172  -26.6664   21.4049 H   0  0  0  0  0  0
  -18.0312  -26.0055   22.9029 H   0  0  0  0  0  0
  -19.7939  -30.7245   24.2283 H   0  0  0  0  0  0
  -17.5013  -31.6248   24.5164 H   0  0  0  0  0  0
  -15.5349  -30.2980   23.7625 H   0  0  0  0  0  0
  -15.8680  -28.0816   22.7052 H   0  0  0  0  0  0
  -24.5928  -30.7069   25.7924 H   0  0  0  0  0  0
  -24.8949  -32.2899   26.4999 H   0  0  0  0  0  0
  -25.8126  -30.8937   27.0318 H   0  0  0  0  0  0
  -26.2915  -29.6811   24.1229 H   0  0  0  0  0  0
  -27.4034  -29.7290   25.4710 H   0  0  0  0  0  0
  -27.8778  -30.4354   23.9455 H   0  0  0  0  0  0
  -27.2679  -33.3624   26.2160 H   0  0  0  0  0  0
  -28.3868  -32.6903   25.0400 H   0  0  0  0  0  0
  -28.0723  -31.8449   26.5467 H   0  0  0  0  0  0
  -28.2583  -38.0105   24.7513 H   0  0  0  0  0  0
  -28.1058  -36.2637   24.6277 H   0  0  0  0  0  0
  -27.2296  -37.1448   25.8873 H   0  0  0  0  0  0
  -20.9357  -29.8877   21.7003 H   0  0  0  0  0  0
  -26.0159  -38.2873   24.1442 H   0  0  0  0  0  0
  -28.5232  -18.0511   21.6597 H   0  0  0  0  0  0
  -27.6907  -21.5912   23.9290 H   0  0  0  0  0  0
  -27.3069  -17.7792   19.9336 H   0  0  0  0  0  0
  -26.5403  -18.5433   18.6188 H   0  0  0  0  0  0
  -29.2544  -20.4350   17.9244 H   0  0  0  0  0  0
  -29.6379  -21.2110   19.4394 H   0  0  0  0  0  0
  -28.3771  -18.2517   17.1833 H   0  0  0  0  0  0
  -28.1996  -16.7095   17.9327 H   0  0  0  0  0  0
  -30.3415  -18.9261   20.3763 H   0  0  0  0  0  0
  -31.3327  -19.4826   19.0583 H   0  0  0  0  0  0
  -27.2006  -20.6020   19.1562 H   0  0  0  0  0  0
  -30.4896  -17.9980   17.5796 H   0  0  0  0  0  0
  -25.4749  -23.7061   21.7083 H   0  0  0  0  0  0
  -26.4601  -23.4283   23.1393 H   0  0  0  0  0  0
  -25.5029  -22.1260   22.4560 H   0  0  0  0  0  0
  -30.1313  -18.2774   24.4833 H   0  0  0  0  0  0
  -29.3946  -17.9541   26.0349 H   0  0  0  0  0  0
  -29.6184  -19.6121   25.5233 H   0  0  0  0  0  0
  -28.2911  -16.6889   23.4489 H   0  0  0  0  0  0
  -26.5880  -17.0904   23.6921 H   0  0  0  0  0  0
  -27.5679  -16.5228   25.0392 H   0  0  0  0  0  0
  -27.1158  -20.1380   25.8294 H   0  0  0  0  0  0
  -26.7933  -18.4984   26.3489 H   0  0  0  0  0  0
  -25.9183  -19.1737   24.9792 H   0  0  0  0  0  0
  -31.6000  -16.9462   19.6551 H   0  0  0  0  0  0
  -31.0870  -16.0479   18.2604 H   0  0  0  0  0  0
  -28.7967  -23.9804   22.1885 H   0  0  0  0  0  0
  -29.2067  -23.4916   20.5643 H   0  0  0  0  0  0
  -26.8650  -25.2836   21.3361 H   0  0  0  0  0  0
  -27.1951  -24.6797   19.7217 H   0  0  0  0  0  0
  -26.9400  -22.4116   20.3187 H   0  0  0  0  0  0
  -28.9976  -15.5599   19.9209 H   0  0  0  0  0  0
  1 25  1  0  0  0
  1 30  2  0  0  0
  1 91  1  0  0  0
  2  3  1  0  0  0
  2 25  1  0  0  0
  2 92  1  0  0  0
  2 93  1  0  0  0
  3  4  1  0  0  0
  3 94  1  0  0  0
  3 95  1  0  0  0
  4  5  1  0  0  0
  4 96  1  0  0  0
  4 97  1  0  0  0
  5  6  1  0  0  0
  5 26  1  0  0  0
  5 98  1  0  0  0
  6 25  1  0  0  0
  6 99  1  0  0  0
  6100  1  0  0  0
  7  8  2  0  0  0
  7 26  1  0  0  0
  7 29  1  0  0  0
  8  9  1  0  0  0
  8 22  1  0  0  0
  9 10  1  0  0  0
  9 27  2  0  0  0
 10 11  2  0  0  0
 10 15  1  0  0  0
 11 12  1  0  0  0
 11101  1  0  0  0
 12 13  2  0  0  0
 12102  1  0  0  0
 13 14  1  0  0  0
 13 31  1  0  0  0
 14 15  2  0  0  0
 14103  1  0  0  0
 15104  1  0  0  0
 16 17  2  0  0  0
 16 21  1  0  0  0
 16 31  1  0  0  0
 17 18  1  0  0  0
 17105  1  0  0  0
 18 19  2  0  0  0
 18106  1  0  0  0
 19 20  1  0  0  0
 19 24  1  0  0  0
 20 21  2  0  0  0
 20107  1  0  0  0
 21 23  1  0  0  0
 22 28  1  0  0  0
 22 32  2  0  0  0
 26 27  1  0  0  0
 28108  1  0  0  0
 28109  1  0  0  0
 29110  1  0  0  0
 29111  1  0  0  0
 33 34  1  0  0  0
 33 66  1  0  0  0
 33 70  2  0  0  0
 34 36  1  0  0  0
 34 59  1  0  0  0
 34112  1  0  0  0
 35 44  2  0  0  0
 35 45  1  0  0  0
 35 68  1  0  0  0
 36 56  1  0  0  0
 36113  1  0  0  0
 37 39  1  0  0  0
 37 47  1  0  0  0
 37 66  1  0  0  0
 37114  1  0  0  0
 38 43  2  0  0  0
 38 46  1  0  0  0
 38 47  1  0  0  0
 39 64  1  0  0  0
 39 67  2  0  0  0
 40 52  1  0  0  0
 40 53  2  0  0  0
 40 58  1  0  0  0
 41115  1  0  0  0
 41116  1  0  0  0
 41117  1  0  0  0
 41 48  1  0  0  0
 42 43  1  0  0  0
 42 66  1  0  0  0
 42118  1  0  0  0
 42119  1  0  0  0
 43 44  1  0  0  0
 44120  1  0  0  0
 45 46  2  0  0  0
 45121  1  0  0  0
 46122  1  0  0  0
 47123  1  0  0  0
 47124  1  0  0  0
 48 56  1  0  0  0
 48 65  1  0  0  0
 48125  1  0  0  0
 49 50  1  0  0  0
 49 53  1  0  0  0
 49 64  1  0  0  0
 49126  1  0  0  0
 50 51  1  0  0  0
 50127  1  0  0  0
 50128  1  0  0  0
 51 52  1  0  0  0
 51129  1  0  0  0
 51130  1  0  0  0
 52131  1  0  0  0
 52132  1  0  0  0
 53 54  1  0  0  0
 54 55  2  0  0  0
 54133  1  0  0  0
 55 57  1  0  0  0
 55134  1  0  0  0
 56 69  2  0  0  0
 57 58  2  0  0  0
 57135  1  0  0  0
 58136  1  0  0  0
 59 60  1  0  0  0
 59 61  1  0  0  0
 59 62  1  0  0  0
 60137  1  0  0  0
 60138  1  0  0  0
 60139  1  0  0  0
 61140  1  0  0  0
 61141  1  0  0  0
 61142  1  0  0  0
 62143  1  0  0  0
 62144  1  0  0  0
 62145  1  0  0  0
 63 65  1  0  0  0
 63146  1  0  0  0
 63147  1  0  0  0
 63148  1  0  0  0
 64149  1  0  0  0
 65150  1  0  0  0
 68 87  1  0  0  0
 71 73  1  0  0  0
 71 74  2  0  0  0
 71151  1  0  0  0
 72 73  2  0  0  0
 72 90  1  0  0  0
 72152  1  0  0  0
 73 89  1  0  0  0
 74 90  1  0  0  0
 74 79  1  0  0  0
 75 77  1  0  0  0
 75 79  1  0  0  0
 75153  1  0  0  0
 75154  1  0  0  0
 76 78  1  0  0  0
 76 79  1  0  0  0
 76155  1  0  0  0
 76156  1  0  0  0
 77 80  1  0  0  0
 77157  1  0  0  0
 77158  1  0  0  0
 78 80  1  0  0  0
 78159  1  0  0  0
 78160  1  0  0  0
 79161  1  0  0  0
 80 85  1  0  0  0
 80162  1  0  0  0
 81163  1  0  0  0
 81164  1  0  0  0
 81165  1  0  0  0
 81 88  1  0  0  0
 82166  1  0  0  0
 82167  1  0  0  0
 82168  1  0  0  0
 82 89  1  0  0  0
 83 89  1  0  0  0
 83169  1  0  0  0
 83170  1  0  0  0
 83171  1  0  0  0
 84 89  1  0  0  0
 84172  1  0  0  0
 84173  1  0  0  0
 84174  1  0  0  0
 85 91  1  0  0  0
 85175  1  0  0  0
 85176  1  0  0  0
 86 87  1  0  0  0
 86 88  1  0  0  0
 86177  1  0  0  0
 86178  1  0  0  0
 87179  1  0  0  0
 87180  1  0  0  0
 88 90  1  0  0  0
 88181  1  0  0  0
 91182  1  0  0  0
M  ISO  4   1 100  68 101  87 101  91 100
M  END
> <chiral flag>
0

> <version>
0

> <s_m_source_file>
/data/baiqing/PycharmProjects/Reinvent-master-3.2/result/LINK_invent/BTK/process_docking_weight1_custom_sum_contain_oxygen_bond_distance_aromatic_linkinvent_7_9_3/rearranged_h_0071.sdf

> <i_m_source_file_index>
37

> <r_mmod_Potential_Energy-OPLS-2005>
199.171813964844

> <r_mmod_Stretch_Energy-OPLS-2005>
63.0740509033203

> <r_mmod_Bend_Energy-OPLS-2005>
186.8955078125

> <r_mmod_Torsional_Energy-OPLS-2005>
360.966674804688

> <r_mmod_Improper_Torsional_Energy-OPLS-2005>
17.9920444488525

> <r_mmod_Van_der_Waal_Energy-OPLS-2005>
155.590301513672

> <r_mmod_Electrostatic_Energy-OPLS-2005>
-464.39697265625

> <r_mmod_Solvation_Energy-OPLS-2005>
-188.290283203125

> <b_mmod_Minimization_Converged-OPLS-2005>
0

> <r_mmod_RMS_Derivative-OPLS-2005>
10.6658239364624

$$$$
38
                    3D
 Structure written by MMmdl.
159166  0  0  1  0            999 V2000
  -30.3422  -15.4808   20.3696 C   0  0  0  0  0  0
  -30.4478  -12.9590   19.5426 C   0  0  0  0  0  0
  -29.5502  -12.6362   18.3136 C   0  0  0  0  0  0
  -28.1097  -12.3066   18.7417 C   0  0  0  0  0  0
  -27.6104  -13.2864   19.8286 C   0  0  2  0  0  0
  -28.6461  -13.5010   20.9590 C   0  0  0  0  0  0
  -25.2251  -13.8175   20.5666 C   0  0  0  0  0  0
  -24.1682  -13.0341   20.9254 C   0  0  0  0  0  0
  -24.6418  -11.6878   20.8774 C   0  0  0  0  0  0
  -23.9120  -10.4247   21.0412 C   0  0  0  0  0  0
  -24.3655   -9.4166   21.9198 C   0  0  0  0  0  0
  -23.6312   -8.2215   22.0765 C   0  0  0  0  0  0
  -22.4294   -8.0264   21.3546 C   0  0  0  0  0  0
  -21.9942   -9.0237   20.4651 C   0  0  0  0  0  0
  -22.7289  -10.2104   20.3062 C   0  0  0  0  0  0
  -21.6850   -6.0738   22.5282 C   0  0  0  0  0  0
  -21.4003   -6.5640   23.8212 C   0  0  0  0  0  0
  -21.3662   -5.6795   24.9178 C   0  0  0  0  0  0
  -21.6049   -4.3059   24.7230 C   0  0  0  0  0  0
  -21.8818   -3.8151   23.4348 C   0  0  0  0  0  0
  -21.9190   -4.6966   22.3405 C   0  0  0  0  0  0
  -22.7696  -13.5082   21.1902 C   0  0  0  0  0  0
  -22.1660   -4.2150   21.0983 F   0  0  0  0  0  0
  -21.5638   -3.4545   25.7746 F   0  0  0  0  0  0
  -29.8499  -14.1112   20.3435 N   0  0  0  0  0  0
  -26.2804  -12.9543   20.3254 N   0  0  0  0  0  0
  -25.9377  -11.6629   20.5763 N   0  0  0  0  0  0
  -22.0382  -12.8075   22.0486 N   0  0  0  0  0  0
  -25.3528  -15.1896   20.3943 N   0  0  0  0  0  0
  -31.5547  -15.4582   20.0940 O   0  0  0  0  0  0
  -21.6638   -6.8878   21.4246 O   0  0  0  0  0  0
  -22.3352  -14.5383   20.6756 O   0  0  0  0  0  0
  -24.6732  -31.8119   23.1596 C   0  0  0  0  0  0
  -25.9351  -32.4536   23.8113 C   0  0  1  0  0  0
  -27.2336  -26.8124   20.2073 C   0  0  0  0  0  0
  -25.5982  -33.8355   24.2020 N   0  0  0  0  0  0
  -23.4955  -30.4157   21.5114 C   0  0  2  0  0  0
  -24.9541  -28.7770   20.1185 C   0  0  0  0  0  0
  -22.7724  -29.4360   22.4739 C   0  0  0  0  0  0
  -18.0330  -28.1411   22.8454 C   0  0  0  0  0  0
  -24.1497  -36.7180   23.2648 C   0  0  0  0  0  0
  -26.0706  -30.5815   21.4073 C   0  0  0  0  0  0
  -26.1405  -29.1572   20.7580 C   0  0  0  0  0  0
  -27.2701  -28.2006   20.7697 C   0  0  0  0  0  0
  -26.0118  -26.6099   19.5214 C   0  0  0  0  0  0
  -24.9216  -27.5264   19.4787 C   0  0  0  0  0  0
  -23.7445  -29.7184   20.1440 C   0  0  0  0  0  0
  -25.4143  -36.2940   24.0290 C   0  0  1  0  0  0
  -20.5959  -28.3762   23.1162 C   0  0  2  0  0  0
  -20.6804  -26.9432   22.5405 C   0  0  0  0  0  0
  -19.5779  -26.6369   21.5218 C   0  0  0  0  0  0
  -18.1955  -26.7940   22.1618 C   0  0  0  0  0  0
  -19.1595  -28.8910   23.2788 C   0  0  0  0  0  0
  -18.9500  -30.1495   23.8838 C   0  0  0  0  0  0
  -17.6493  -30.6598   24.0550 C   0  0  0  0  0  0
  -25.9112  -34.9323   23.4986 C   0  0  0  0  0  0
  -16.5381  -29.9083   23.6345 C   0  0  0  0  0  0
  -16.7308  -28.6506   23.0366 C   0  0  0  0  0  0
  -26.4574  -31.6518   25.0684 C   0  0  0  0  0  0
  -25.3668  -31.3794   26.1317 C   0  0  0  0  0  0
  -27.0486  -30.2869   24.6497 C   0  0  0  0  0  0
  -27.6047  -32.4353   25.7496 C   0  0  0  0  0  0
  -27.5571  -37.1743   24.8463 C   0  0  0  0  0  0
  -21.4378  -29.3028   22.3496 N   0  0  0  0  0  0
  -26.4282  -37.3684   23.9405 N   0  0  0  0  0  0
  -24.7687  -30.9668   22.0793 N   0  0  0  0  0  0
  -23.4213  -28.7943   23.3034 O   0  0  0  0  0  0
  -28.2353  -25.6633   20.2623 O   0  0  0  0  0  0
  -26.5744  -34.8879   22.4597 O   0  0  0  0  0  0
  -23.5769  -32.1138   23.6612 O   0  0  0  0  0  0
  -30.1678  -22.7042   21.2900 C   0  0  0  0  0  0
  -27.5181  -20.3590   19.5537 C   0  0  0  0  0  0
  -31.2047  -19.2778   20.5422 C   0  0  0  0  0  0
  -28.0573  -16.8966   20.3558 C   0  0  0  0  0  0
  -29.6467  -17.1899   22.2216 C   0  0  0  0  0  0
  -28.0274  -23.9650   20.2704 C   0  0  0  0  0  0
  -29.0709  -22.3961   20.2639 C   0  0  2  0  0  0
  -28.7799  -20.5379   20.4088 C   0  0  2  0  0  0
  -29.7545  -18.9246   20.1943 C   0  0  2  0  0  0
  -29.5315  -17.1119   20.6855 C   0  0  0  0  0  0
  -31.4502  -13.2020   19.1894 H   0  0  0  0  0  0
  -30.5808  -12.0729   20.1654 H   0  0  0  0  0  0
  -29.9728  -11.8096   17.7406 H   0  0  0  0  0  0
  -29.5386  -13.4986   17.6454 H   0  0  0  0  0  0
  -28.1027  -11.2896   19.1350 H   0  0  0  0  0  0
  -27.4415  -12.3098   17.8795 H   0  0  0  0  0  0
  -27.5051  -14.2344   19.3014 H   0  0  0  0  0  0
  -28.8731  -12.5606   21.4636 H   0  0  0  0  0  0
  -28.2547  -14.1498   21.7414 H   0  0  0  0  0  0
  -25.2791   -9.5643   22.4783 H   0  0  0  0  0  0
  -24.0017   -7.4600   22.7481 H   0  0  0  0  0  0
  -21.0878   -8.8759   19.8946 H   0  0  0  0  0  0
  -22.3750  -10.9649   19.6178 H   0  0  0  0  0  0
  -21.1981   -7.6146   23.9708 H   0  0  0  0  0  0
  -21.1492   -6.0532   25.9077 H   0  0  0  0  0  0
  -22.0598   -2.7614   23.2848 H   0  0  0  0  0  0
  -22.4041  -11.9767   22.4893 H   0  0  0  0  0  0
  -21.0987  -13.1067   22.2686 H   0  0  0  0  0  0
  -24.5674  -15.8186   20.5173 H   0  0  0  0  0  0
  -26.1874  -15.6576   20.0665 H   0  0  0  0  0  0
  -26.7426  -32.5046   23.0829 H   0  0  0  0  0  0
  -25.0052  -33.9419   25.0120 H   0  0  0  0  0  0
  -22.8148  -31.2496   21.3287 H   0  0  0  0  0  0
  -23.3784  -35.9484   23.3270 H   0  0  0  0  0  0
  -24.3563  -36.8883   22.2071 H   0  0  0  0  0  0
  -23.7239  -37.6343   23.6743 H   0  0  0  0  0  0
  -26.2602  -31.3139   20.6216 H   0  0  0  0  0  0
  -26.9260  -30.6469   22.0673 H   0  0  0  0  0  0
  -28.1684  -28.4966   21.2937 H   0  0  0  0  0  0
  -25.8647  -25.6590   19.0299 H   0  0  0  0  0  0
  -24.0228  -27.2280   18.9561 H   0  0  0  0  0  0
  -23.9091  -30.4817   19.3829 H   0  0  0  0  0  0
  -22.8528  -29.1770   19.8234 H   0  0  0  0  0  0
  -25.1347  -36.1720   25.0782 H   0  0  0  0  0  0
  -21.0037  -28.3387   24.1288 H   0  0  0  0  0  0
  -20.5683  -26.2383   23.3656 H   0  0  0  0  0  0
  -21.6663  -26.7398   22.1213 H   0  0  0  0  0  0
  -19.6946  -25.6266   21.1283 H   0  0  0  0  0  0
  -19.6728  -27.3150   20.6723 H   0  0  0  0  0  0
  -17.4230  -26.6677   21.4019 H   0  0  0  0  0  0
  -18.0343  -26.0101   22.9033 H   0  0  0  0  0  0
  -19.7980  -30.7313   24.2190 H   0  0  0  0  0  0
  -17.5050  -31.6274   24.5156 H   0  0  0  0  0  0
  -15.5380  -30.2969   23.7702 H   0  0  0  0  0  0
  -15.8708  -28.0800   22.7122 H   0  0  0  0  0  0
  -24.5875  -30.7133   25.7604 H   0  0  0  0  0  0
  -24.8831  -32.3001   26.4585 H   0  0  0  0  0  0
  -25.7860  -30.9054   27.0203 H   0  0  0  0  0  0
  -26.3173  -29.6518   24.1491 H   0  0  0  0  0  0
  -27.3962  -29.7272   25.5191 H   0  0  0  0  0  0
  -27.9141  -30.4026   23.9971 H   0  0  0  0  0  0
  -27.2609  -33.3716   26.1908 H   0  0  0  0  0  0
  -28.3939  -32.6821   25.0380 H   0  0  0  0  0  0
  -28.0631  -31.8597   26.5552 H   0  0  0  0  0  0
  -28.2552  -38.0072   24.7520 H   0  0  0  0  0  0
  -28.1109  -36.2596   24.6286 H   0  0  0  0  0  0
  -27.2281  -37.1371   25.8863 H   0  0  0  0  0  0
  -20.9658  -29.8708   21.6599 H   0  0  0  0  0  0
  -26.0124  -38.2737   24.1430 H   0  0  0  0  0  0
  -30.5363  -23.7251   21.1769 H   0  0  0  0  0  0
  -31.0228  -22.0392   21.1834 H   0  0  0  0  0  0
  -29.7905  -22.6019   22.3072 H   0  0  0  0  0  0
  -26.7959  -21.1525   19.7496 H   0  0  0  0  0  0
  -27.0059  -19.4212   19.7469 H   0  0  0  0  0  0
  -27.7621  -20.3907   18.4917 H   0  0  0  0  0  0
  -31.5481  -20.1347   19.9632 H   0  0  0  0  0  0
  -31.8761  -18.4477   20.3207 H   0  0  0  0  0  0
  -31.3113  -19.5213   21.5993 H   0  0  0  0  0  0
  -27.4293  -17.6372   20.8471 H   0  0  0  0  0  0
  -27.7183  -15.9489   20.7387 H   0  0  0  0  0  0
  -27.8709  -16.9338   19.2823 H   0  0  0  0  0  0
  -29.0761  -18.0254   22.6282 H   0  0  0  0  0  0
  -30.6844  -17.3203   22.5295 H   0  0  0  0  0  0
  -29.2820  -16.2838   22.7063 H   0  0  0  0  0  0
  -27.3937  -23.8348   21.1480 H   0  0  0  0  0  0
  -27.3387  -23.8109   19.4396 H   0  0  0  0  0  0
  -29.5548  -22.4696   19.2889 H   0  0  0  0  0  0
  -28.4480  -20.4529   21.4447 H   0  0  0  0  0  0
  -29.7684  -18.8305   19.1075 H   0  0  0  0  0  0
  1 25  1  0  0  0
  1 30  2  0  0  0
  1 80  1  0  0  0
  2  3  1  0  0  0
  2 25  1  0  0  0
  2 81  1  0  0  0
  2 82  1  0  0  0
  3  4  1  0  0  0
  3 83  1  0  0  0
  3 84  1  0  0  0
  4  5  1  0  0  0
  4 85  1  0  0  0
  4 86  1  0  0  0
  5  6  1  0  0  0
  5 26  1  0  0  0
  5 87  1  0  0  0
  6 25  1  0  0  0
  6 88  1  0  0  0
  6 89  1  0  0  0
  7  8  2  0  0  0
  7 26  1  0  0  0
  7 29  1  0  0  0
  8  9  1  0  0  0
  8 22  1  0  0  0
  9 10  1  0  0  0
  9 27  2  0  0  0
 10 11  2  0  0  0
 10 15  1  0  0  0
 11 12  1  0  0  0
 11 90  1  0  0  0
 12 13  2  0  0  0
 12 91  1  0  0  0
 13 14  1  0  0  0
 13 31  1  0  0  0
 14 15  2  0  0  0
 14 92  1  0  0  0
 15 93  1  0  0  0
 16 17  2  0  0  0
 16 21  1  0  0  0
 16 31  1  0  0  0
 17 18  1  0  0  0
 17 94  1  0  0  0
 18 19  2  0  0  0
 18 95  1  0  0  0
 19 20  1  0  0  0
 19 24  1  0  0  0
 20 21  2  0  0  0
 20 96  1  0  0  0
 21 23  1  0  0  0
 22 28  1  0  0  0
 22 32  2  0  0  0
 26 27  1  0  0  0
 28 97  1  0  0  0
 28 98  1  0  0  0
 29 99  1  0  0  0
 29100  1  0  0  0
 33 34  1  0  0  0
 33 66  1  0  0  0
 33 70  2  0  0  0
 34 36  1  0  0  0
 34 59  1  0  0  0
 34101  1  0  0  0
 35 44  2  0  0  0
 35 45  1  0  0  0
 35 68  1  0  0  0
 36 56  1  0  0  0
 36102  1  0  0  0
 37 39  1  0  0  0
 37 47  1  0  0  0
 37 66  1  0  0  0
 37103  1  0  0  0
 38 43  2  0  0  0
 38 46  1  0  0  0
 38 47  1  0  0  0
 39 64  1  0  0  0
 39 67  2  0  0  0
 40 52  1  0  0  0
 40 53  2  0  0  0
 40 58  1  0  0  0
 41104  1  0  0  0
 41105  1  0  0  0
 41106  1  0  0  0
 41 48  1  0  0  0
 42 43  1  0  0  0
 42 66  1  0  0  0
 42107  1  0  0  0
 42108  1  0  0  0
 43 44  1  0  0  0
 44109  1  0  0  0
 45 46  2  0  0  0
 45110  1  0  0  0
 46111  1  0  0  0
 47112  1  0  0  0
 47113  1  0  0  0
 48 56  1  0  0  0
 48 65  1  0  0  0
 48114  1  0  0  0
 49 50  1  0  0  0
 49 53  1  0  0  0
 49 64  1  0  0  0
 49115  1  0  0  0
 50 51  1  0  0  0
 50116  1  0  0  0
 50117  1  0  0  0
 51 52  1  0  0  0
 51118  1  0  0  0
 51119  1  0  0  0
 52120  1  0  0  0
 52121  1  0  0  0
 53 54  1  0  0  0
 54 55  2  0  0  0
 54122  1  0  0  0
 55 57  1  0  0  0
 55123  1  0  0  0
 56 69  2  0  0  0
 57 58  2  0  0  0
 57124  1  0  0  0
 58125  1  0  0  0
 59 60  1  0  0  0
 59 61  1  0  0  0
 59 62  1  0  0  0
 60126  1  0  0  0
 60127  1  0  0  0
 60128  1  0  0  0
 61129  1  0  0  0
 61130  1  0  0  0
 61131  1  0  0  0
 62132  1  0  0  0
 62133  1  0  0  0
 62134  1  0  0  0
 63 65  1  0  0  0
 63135  1  0  0  0
 63136  1  0  0  0
 63137  1  0  0  0
 64138  1  0  0  0
 65139  1  0  0  0
 68 76  1  0  0  0
 71140  1  0  0  0
 71141  1  0  0  0
 71142  1  0  0  0
 71 77  1  0  0  0
 72143  1  0  0  0
 72144  1  0  0  0
 72145  1  0  0  0
 72 78  1  0  0  0
 73146  1  0  0  0
 73147  1  0  0  0
 73148  1  0  0  0
 73 79  1  0  0  0
 74149  1  0  0  0
 74150  1  0  0  0
 74151  1  0  0  0
 74 80  1  0  0  0
 75 80  1  0  0  0
 75152  1  0  0  0
 75153  1  0  0  0
 75154  1  0  0  0
 76 77  1  0  0  0
 76155  1  0  0  0
 76156  1  0  0  0
 77 78  1  0  0  0
 77157  1  0  0  0
 78 79  1  0  0  0
 78158  1  0  0  0
 79 80  1  0  0  0
 79159  1  0  0  0
M  ISO  4   1 100  68 101  76 101  80 100
M  END
> <chiral flag>
0

> <version>
0

> <s_m_source_file>
/data/baiqing/PycharmProjects/Reinvent-master-3.2/result/LINK_invent/BTK/process_docking_weight1_custom_sum_contain_oxygen_bond_distance_aromatic_linkinvent_7_9_3/rearranged_h_0071.sdf

> <i_m_source_file_index>
38

> <r_mmod_Potential_Energy-OPLS-2005>
2128.7978515625

> <r_mmod_Stretch_Energy-OPLS-2005>
1007.98352050781

> <r_mmod_Bend_Energy-OPLS-2005>
585.3134765625

> <r_mmod_Torsional_Energy-OPLS-2005>
226.008087158203

> <r_mmod_Improper_Torsional_Energy-OPLS-2005>
1.48197078704834

> <r_mmod_Van_der_Waal_Energy-OPLS-2005>
109.405151367188

> <r_mmod_Electrostatic_Energy-OPLS-2005>
-295.775848388672

> <r_mmod_Solvation_Energy-OPLS-2005>
-174.846572875977

> <b_mmod_Minimization_Converged-OPLS-2005>
0

> <r_mmod_RMS_Derivative-OPLS-2005>
1.13618767261505

$$$$
39
                    3D
 Structure written by MMmdl.
164172  0  0  1  0            999 V2000
  -30.7070  -14.6602   20.3006 C   0  0  0  0  0  0
  -30.4117  -12.3718   19.4554 C   0  0  0  0  0  0
  -29.5186  -12.4589   18.2048 C   0  0  0  0  0  0
  -28.0250  -12.3506   18.5925 C   0  0  0  0  0  0
  -27.6267  -13.2371   19.8036 C   0  0  2  0  0  0
  -28.6843  -13.2199   20.9227 C   0  0  0  0  0  0
  -25.2303  -13.8017   20.5513 C   0  0  0  0  0  0
  -24.1709  -13.0229   20.9243 C   0  0  0  0  0  0
  -24.6394  -11.6767   20.8774 C   0  0  0  0  0  0
  -23.9084  -10.4137   21.0426 C   0  0  0  0  0  0
  -24.3628   -9.4062   21.9209 C   0  0  0  0  0  0
  -23.6287   -8.2108   22.0773 C   0  0  0  0  0  0
  -22.4261   -8.0185   21.3556 C   0  0  0  0  0  0
  -21.9904   -9.0133   20.4625 C   0  0  0  0  0  0
  -22.7249  -10.1997   20.3053 C   0  0  0  0  0  0
  -21.6795   -6.0667   22.5283 C   0  0  0  0  0  0
  -21.3901   -6.5560   23.8205 C   0  0  0  0  0  0
  -21.3720   -5.6749   24.9192 C   0  0  0  0  0  0
  -21.6122   -4.3007   24.7250 C   0  0  0  0  0  0
  -21.8799   -3.8081   23.4363 C   0  0  0  0  0  0
  -21.9133   -4.6908   22.3406 C   0  0  0  0  0  0
  -22.7730  -13.5016   21.1892 C   0  0  0  0  0  0
  -22.1648   -4.2108   21.0989 F   0  0  0  0  0  0
  -21.5763   -3.4498   25.7775 F   0  0  0  0  0  0
  -30.0082  -13.4806   20.3385 N   0  0  0  0  0  0
  -26.2869  -12.9342   20.3109 N   0  0  0  0  0  0
  -25.9325  -11.6476   20.5698 N   0  0  0  0  0  0
  -22.0414  -12.7972   22.0470 N   0  0  0  0  0  0
  -25.3561  -15.1700   20.3631 N   0  0  0  0  0  0
  -31.9363  -14.6146   20.3383 O   0  0  0  0  0  0
  -21.6587   -6.8810   21.4241 O   0  0  0  0  0  0
  -22.3373  -14.5334   20.6809 O   0  0  0  0  0  0
  -24.6281  -31.8631   23.1963 C   0  0  0  0  0  0
  -25.9135  -32.4766   23.8317 C   0  0  1  0  0  0
  -27.2602  -27.3842   20.0902 C   0  0  0  0  0  0
  -25.5967  -33.8568   24.2267 N   0  0  0  0  0  0
  -23.4161  -30.4917   21.5334 C   0  0  2  0  0  0
  -24.8608  -28.9404   20.1167 C   0  0  0  0  0  0
  -22.7475  -29.4733   22.4861 C   0  0  0  0  0  0
  -18.0305  -28.1334   22.8429 C   0  0  0  0  0  0
  -24.1513  -36.7337   23.2626 C   0  0  0  0  0  0
  -25.9507  -30.8209   21.3449 C   0  0  0  0  0  0
  -26.0305  -29.4504   20.6914 C   0  0  0  0  0  0
  -27.2297  -28.6916   20.6523 C   0  0  0  0  0  0
  -26.0534  -26.9026   19.5166 C   0  0  0  0  0  0
  -24.8685  -27.6633   19.5397 C   0  0  0  0  0  0
  -23.6295  -29.8150   20.1545 C   0  0  0  0  0  0
  -25.4095  -36.3067   24.0338 C   0  0  1  0  0  0
  -20.5914  -28.3717   23.1156 C   0  0  2  0  0  0
  -20.6761  -26.9423   22.5331 C   0  0  0  0  0  0
  -19.5765  -26.6323   21.5118 C   0  0  0  0  0  0
  -18.1969  -26.7861   22.1559 C   0  0  0  0  0  0
  -19.1558  -28.8807   23.2798 C   0  0  0  0  0  0
  -18.9524  -30.1382   23.8865 C   0  0  0  0  0  0
  -17.6552  -30.6550   24.0547 C   0  0  0  0  0  0
  -25.9047  -34.9463   23.5079 C   0  0  0  0  0  0
  -16.5439  -29.9074   23.6279 C   0  0  0  0  0  0
  -16.7304  -28.6479   23.0298 C   0  0  0  0  0  0
  -26.4505  -31.6520   25.0663 C   0  0  0  0  0  0
  -25.3770  -31.3759   26.1412 C   0  0  0  0  0  0
  -27.0249  -30.2922   24.6023 C   0  0  0  0  0  0
  -27.6020  -32.4236   25.7570 C   0  0  0  0  0  0
  -27.5570  -37.1797   24.8448 C   0  0  0  0  0  0
  -21.4194  -29.3150   22.3607 N   0  0  0  0  0  0
  -26.4252  -37.3764   23.9445 N   0  0  0  0  0  0
  -24.6843  -31.0749   22.0834 N   0  0  0  0  0  0
  -23.4194  -28.8286   23.2938 O   0  0  0  0  0  0
  -28.4227  -26.6027   20.1424 O   0  0  0  0  0  0
  -26.5638  -34.8950   22.4652 O   0  0  0  0  0  0
  -23.5470  -32.1454   23.7306 O   0  0  0  0  0  0
  -29.4398  -20.8999   20.9477 C   0  0  0  0  0  0
  -29.7338  -21.4308   19.6813 C   0  0  0  0  0  0
  -30.2527  -20.4886   18.7573 C   0  0  0  0  0  0
  -29.9106  -18.7203   20.2627 C   0  0  0  0  0  0
  -29.8119  -20.9371   16.2263 C   0  0  0  0  0  0
  -27.9630  -17.2019   20.2869 C   0  0  0  0  0  0
  -29.7701  -16.9215   22.0645 C   0  0  0  0  0  0
  -29.2529  -22.8560   19.2650 C   0  0  0  0  0  0
  -30.8203  -20.9209   17.3950 C   0  0  0  0  0  0
  -29.4707  -24.1611   20.1273 C   0  0  0  0  0  0
  -28.2698  -25.1659   19.9310 C   0  0  0  0  0  0
  -29.4935  -17.2123   20.5553 C   0  0  0  0  0  0
  -30.1430  -16.0245   19.6707 C   0  0  0  0  0  0
  -29.5384  -19.5825   21.2159 N   0  0  0  0  0  0
  -30.2684  -19.1492   19.0371 N   0  0  0  0  0  0
  -31.1841  -16.5753   19.0425 F   0  0  0  0  0  0
  -29.3090  -15.6861   18.6828 F   0  0  0  0  0  0
  -31.4657  -12.4305   19.1844 H   0  0  0  0  0  0
  -30.2739  -11.4129   19.9569 H   0  0  0  0  0  0
  -29.7734  -11.6645   17.4986 H   0  0  0  0  0  0
  -29.7189  -13.3957   17.6872 H   0  0  0  0  0  0
  -27.8215  -11.3021   18.8109 H   0  0  0  0  0  0
  -27.4099  -12.6092   17.7295 H   0  0  0  0  0  0
  -27.5897  -14.2471   19.4007 H   0  0  0  0  0  0
  -28.6868  -12.2588   21.4438 H   0  0  0  0  0  0
  -28.4428  -13.9821   21.6632 H   0  0  0  0  0  0
  -25.2781   -9.5507   22.4767 H   0  0  0  0  0  0
  -24.0005   -7.4415   22.7425 H   0  0  0  0  0  0
  -21.0885   -8.8558   19.8824 H   0  0  0  0  0  0
  -22.3748  -10.9508   19.6107 H   0  0  0  0  0  0
  -21.1778   -7.6039   23.9691 H   0  0  0  0  0  0
  -21.1679   -6.0492   25.9106 H   0  0  0  0  0  0
  -22.0549   -2.7533   23.2888 H   0  0  0  0  0  0
  -22.3969  -11.9600   22.4839 H   0  0  0  0  0  0
  -21.1012  -13.0981   22.2626 H   0  0  0  0  0  0
  -24.5732  -15.8113   20.4352 H   0  0  0  0  0  0
  -26.1656  -15.5825   19.9212 H   0  0  0  0  0  0
  -26.7231  -32.5481   23.1119 H   0  0  0  0  0  0
  -25.0038  -33.9629   25.0350 H   0  0  0  0  0  0
  -22.7163  -31.3148   21.3797 H   0  0  0  0  0  0
  -23.3709  -35.9720   23.3228 H   0  0  0  0  0  0
  -24.3638  -36.9003   22.2051 H   0  0  0  0  0  0
  -23.7317  -37.6551   23.6682 H   0  0  0  0  0  0
  -26.0661  -31.5846   20.5720 H   0  0  0  0  0  0
  -26.8383  -30.8779   21.9669 H   0  0  0  0  0  0
  -28.1348  -29.1003   21.0763 H   0  0  0  0  0  0
  -25.9929  -25.9322   19.0472 H   0  0  0  0  0  0
  -23.9624  -27.2472   19.1259 H   0  0  0  0  0  0
  -23.7778  -30.5884   19.4028 H   0  0  0  0  0  0
  -22.7507  -29.2565   19.8265 H   0  0  0  0  0  0
  -25.1255  -36.1896   25.0825 H   0  0  0  0  0  0
  -21.0010  -28.3305   24.1269 H   0  0  0  0  0  0
  -20.5476  -26.2455   23.3612 H   0  0  0  0  0  0
  -21.6656  -26.7316   22.1276 H   0  0  0  0  0  0
  -19.6969  -25.6216   21.1195 H   0  0  0  0  0  0
  -19.6616  -27.3062   20.6613 H   0  0  0  0  0  0
  -17.4197  -26.6520   21.4013 H   0  0  0  0  0  0
  -18.0466  -25.9976   22.8969 H   0  0  0  0  0  0
  -19.8028  -30.7142   24.2248 H   0  0  0  0  0  0
  -17.5146  -31.6226   24.5167 H   0  0  0  0  0  0
  -15.5444  -30.3022   23.7521 H   0  0  0  0  0  0
  -15.8723  -28.0800   22.7004 H   0  0  0  0  0  0
  -24.5923  -30.7091   25.7871 H   0  0  0  0  0  0
  -24.9000  -32.2978   26.4759 H   0  0  0  0  0  0
  -25.8084  -30.9067   27.0257 H   0  0  0  0  0  0
  -26.2749  -29.6809   24.0988 H   0  0  0  0  0  0
  -27.3905  -29.7048   25.4467 H   0  0  0  0  0  0
  -27.8683  -30.4203   23.9223 H   0  0  0  0  0  0
  -27.2490  -33.3491   26.2167 H   0  0  0  0  0  0
  -28.3895  -32.6829   25.0485 H   0  0  0  0  0  0
  -28.0604  -31.8341   26.5530 H   0  0  0  0  0  0
  -28.2515  -38.0166   24.7481 H   0  0  0  0  0  0
  -28.1110  -36.2657   24.6201 H   0  0  0  0  0  0
  -27.2326  -37.1411   25.8867 H   0  0  0  0  0  0
  -20.9399  -29.9078   21.6990 H   0  0  0  0  0  0
  -26.0119  -38.2854   24.1357 H   0  0  0  0  0  0
  -29.0271  -21.5170   21.7370 H   0  0  0  0  0  0
  -30.2883  -21.2856   15.3041 H   0  0  0  0  0  0
  -28.9743  -21.6014   16.4260 H   0  0  0  0  0  0
  -29.4080  -19.9477   16.0293 H   0  0  0  0  0  0
  -27.4128  -17.8820   20.9390 H   0  0  0  0  0  0
  -27.5819  -16.2074   20.4488 H   0  0  0  0  0  0
  -27.7383  -17.5076   19.2579 H   0  0  0  0  0  0
  -29.1175  -17.5079   22.7108 H   0  0  0  0  0  0
  -30.7993  -17.1701   22.3350 H   0  0  0  0  0  0
  -29.5996  -15.8914   22.3780 H   0  0  0  0  0  0
  -28.1764  -22.7182   19.1807 H   0  0  0  0  0  0
  -29.5721  -23.0920   18.2547 H   0  0  0  0  0  0
  -31.6625  -20.2818   17.1320 H   0  0  0  0  0  0
  -31.2734  -21.9100   17.5022 H   0  0  0  0  0  0
  -30.4146  -24.6233   19.8305 H   0  0  0  0  0  0
  -29.5657  -23.9219   21.1881 H   0  0  0  0  0  0
  -27.4682  -24.8122   20.5846 H   0  0  0  0  0  0
  -27.9193  -25.0355   18.9080 H   0  0  0  0  0  0
  1 25  1  0  0  0
  1 30  2  0  0  0
  1 83  1  0  0  0
  2  3  1  0  0  0
  2 25  1  0  0  0
  2 88  1  0  0  0
  2 89  1  0  0  0
  3  4  1  0  0  0
  3 90  1  0  0  0
  3 91  1  0  0  0
  4  5  1  0  0  0
  4 92  1  0  0  0
  4 93  1  0  0  0
  5  6  1  0  0  0
  5 26  1  0  0  0
  5 94  1  0  0  0
  6 25  1  0  0  0
  6 95  1  0  0  0
  6 96  1  0  0  0
  7  8  2  0  0  0
  7 26  1  0  0  0
  7 29  1  0  0  0
  8  9  1  0  0  0
  8 22  1  0  0  0
  9 10  1  0  0  0
  9 27  2  0  0  0
 10 11  2  0  0  0
 10 15  1  0  0  0
 11 12  1  0  0  0
 11 97  1  0  0  0
 12 13  2  0  0  0
 12 98  1  0  0  0
 13 14  1  0  0  0
 13 31  1  0  0  0
 14 15  2  0  0  0
 14 99  1  0  0  0
 15100  1  0  0  0
 16 17  2  0  0  0
 16 21  1  0  0  0
 16 31  1  0  0  0
 17 18  1  0  0  0
 17101  1  0  0  0
 18 19  2  0  0  0
 18102  1  0  0  0
 19 20  1  0  0  0
 19 24  1  0  0  0
 20 21  2  0  0  0
 20103  1  0  0  0
 21 23  1  0  0  0
 22 28  1  0  0  0
 22 32  2  0  0  0
 26 27  1  0  0  0
 28104  1  0  0  0
 28105  1  0  0  0
 29106  1  0  0  0
 29107  1  0  0  0
 33 34  1  0  0  0
 33 66  1  0  0  0
 33 70  2  0  0  0
 34 36  1  0  0  0
 34 59  1  0  0  0
 34108  1  0  0  0
 35 44  2  0  0  0
 35 45  1  0  0  0
 35 68  1  0  0  0
 36 56  1  0  0  0
 36109  1  0  0  0
 37 39  1  0  0  0
 37 47  1  0  0  0
 37 66  1  0  0  0
 37110  1  0  0  0
 38 43  2  0  0  0
 38 46  1  0  0  0
 38 47  1  0  0  0
 39 64  1  0  0  0
 39 67  2  0  0  0
 40 52  1  0  0  0
 40 53  2  0  0  0
 40 58  1  0  0  0
 41111  1  0  0  0
 41112  1  0  0  0
 41113  1  0  0  0
 41 48  1  0  0  0
 42 43  1  0  0  0
 42 66  1  0  0  0
 42114  1  0  0  0
 42115  1  0  0  0
 43 44  1  0  0  0
 44116  1  0  0  0
 45 46  2  0  0  0
 45117  1  0  0  0
 46118  1  0  0  0
 47119  1  0  0  0
 47120  1  0  0  0
 48 56  1  0  0  0
 48 65  1  0  0  0
 48121  1  0  0  0
 49 50  1  0  0  0
 49 53  1  0  0  0
 49 64  1  0  0  0
 49122  1  0  0  0
 50 51  1  0  0  0
 50123  1  0  0  0
 50124  1  0  0  0
 51 52  1  0  0  0
 51125  1  0  0  0
 51126  1  0  0  0
 52127  1  0  0  0
 52128  1  0  0  0
 53 54  1  0  0  0
 54 55  2  0  0  0
 54129  1  0  0  0
 55 57  1  0  0  0
 55130  1  0  0  0
 56 69  2  0  0  0
 57 58  2  0  0  0
 57131  1  0  0  0
 58132  1  0  0  0
 59 60  1  0  0  0
 59 61  1  0  0  0
 59 62  1  0  0  0
 60133  1  0  0  0
 60134  1  0  0  0
 60135  1  0  0  0
 61136  1  0  0  0
 61137  1  0  0  0
 61138  1  0  0  0
 62139  1  0  0  0
 62140  1  0  0  0
 62141  1  0  0  0
 63 65  1  0  0  0
 63142  1  0  0  0
 63143  1  0  0  0
 63144  1  0  0  0
 64145  1  0  0  0
 65146  1  0  0  0
 68 81  1  0  0  0
 71 72  2  0  0  0
 71 84  1  0  0  0
 71147  1  0  0  0
 72 73  1  0  0  0
 72 78  1  0  0  0
 73 79  1  0  0  0
 73 85  2  0  0  0
 74 82  1  0  0  0
 74 84  2  0  0  0
 74 85  1  0  0  0
 75 79  1  0  0  0
 75148  1  0  0  0
 75149  1  0  0  0
 75150  1  0  0  0
 76151  1  0  0  0
 76152  1  0  0  0
 76153  1  0  0  0
 76 82  1  0  0  0
 77 82  1  0  0  0
 77154  1  0  0  0
 77155  1  0  0  0
 77156  1  0  0  0
 78 80  1  0  0  0
 78157  1  0  0  0
 78158  1  0  0  0
 79159  1  0  0  0
 79160  1  0  0  0
 80 81  1  0  0  0
 80161  1  0  0  0
 80162  1  0  0  0
 81163  1  0  0  0
 81164  1  0  0  0
 82 83  1  0  0  0
 83 86  1  0  0  0
 83 87  1  0  0  0
M  ISO  4   1 100  68 101  81 101  83 100
M  END
> <chiral flag>
0

> <version>
0

> <s_m_source_file>
/data/baiqing/PycharmProjects/Reinvent-master-3.2/result/LINK_invent/BTK/process_docking_weight1_custom_sum_contain_oxygen_bond_distance_aromatic_linkinvent_7_9_3/rearranged_h_0071.sdf

> <i_m_source_file_index>
39

> <r_mmod_Potential_Energy-OPLS-2005>
-108.109016418457

> <r_mmod_Stretch_Energy-OPLS-2005>
82.5383453369141

> <r_mmod_Bend_Energy-OPLS-2005>
182.422668457031

> <r_mmod_Torsional_Energy-OPLS-2005>
243.612609863281

> <r_mmod_Improper_Torsional_Energy-OPLS-2005>
21.3823776245117

> <r_mmod_Van_der_Waal_Energy-OPLS-2005>
175.167373657227

> <r_mmod_Electrostatic_Energy-OPLS-2005>
-680.417907714844

> <r_mmod_Solvation_Energy-OPLS-2005>
-202.787216186523

> <b_mmod_Minimization_Converged-OPLS-2005>
0

> <r_mmod_RMS_Derivative-OPLS-2005>
9.79175853729248

$$$$
40
                    3D
 Structure written by MMmdl.
168176  0  0  1  0            999 V2000
  -30.5292  -14.9636   20.5416 C   0  0  0  0  0  0
  -30.4554  -12.6269   19.4945 C   0  0  0  0  0  0
  -29.5251  -12.5720   18.2558 C   0  0  0  0  0  0
  -28.0585  -12.3314   18.6640 C   0  0  0  0  0  0
  -27.6444  -13.2242   19.8575 C   0  0  2  0  0  0
  -28.6937  -13.1411   20.9876 C   0  0  0  0  0  0
  -25.2560  -13.8108   20.5666 C   0  0  0  0  0  0
  -24.1840  -13.0415   20.9229 C   0  0  0  0  0  0
  -24.6393  -11.6875   20.8738 C   0  0  0  0  0  0
  -23.9056  -10.4274   21.0411 C   0  0  0  0  0  0
  -24.3611   -9.4203   21.9193 C   0  0  0  0  0  0
  -23.6292   -8.2240   22.0763 C   0  0  0  0  0  0
  -22.4277   -8.0271   21.3550 C   0  0  0  0  0  0
  -21.9901   -9.0247   20.4662 C   0  0  0  0  0  0
  -22.7223  -10.2126   20.3074 C   0  0  0  0  0  0
  -21.6850   -6.0734   22.5272 C   0  0  0  0  0  0
  -21.4007   -6.5645   23.8203 C   0  0  0  0  0  0
  -21.3654   -5.6801   24.9167 C   0  0  0  0  0  0
  -21.6051   -4.3064   24.7223 C   0  0  0  0  0  0
  -21.8821   -3.8152   23.4344 C   0  0  0  0  0  0
  -21.9194   -4.6963   22.3399 C   0  0  0  0  0  0
  -22.7878  -13.5241   21.1882 C   0  0  0  0  0  0
  -22.1667   -4.2152   21.0976 F   0  0  0  0  0  0
  -21.5633   -3.4548   25.7736 F   0  0  0  0  0  0
  -29.9543  -13.6785   20.4465 N   0  0  0  0  0  0
  -26.2938  -12.9287   20.3227 N   0  0  0  0  0  0
  -25.9322  -11.6467   20.5730 N   0  0  0  0  0  0
  -22.0481  -12.8238   22.0402 N   0  0  0  0  0  0
  -25.4497  -15.1819   20.4137 N   0  0  0  0  0  0
  -31.6404  -15.0338   19.9954 O   0  0  0  0  0  0
  -21.6648   -6.8868   21.4233 O   0  0  0  0  0  0
  -22.3645  -14.5587   20.6742 O   0  0  0  0  0  0
  -24.6441  -31.8441   23.1897 C   0  0  0  0  0  0
  -25.9207  -32.4699   23.8291 C   0  0  1  0  0  0
  -27.2187  -27.1334   20.1491 C   0  0  0  0  0  0
  -25.5953  -33.8510   24.2205 N   0  0  0  0  0  0
  -23.4482  -30.4648   21.5347 C   0  0  2  0  0  0
  -24.8975  -28.8908   20.1129 C   0  0  0  0  0  0
  -22.7571  -29.4561   22.4867 C   0  0  0  0  0  0
  -18.0330  -28.1399   22.8473 C   0  0  0  0  0  0
  -24.1491  -36.7259   23.2642 C   0  0  0  0  0  0
  -26.0053  -30.7167   21.3886 C   0  0  0  0  0  0
  -26.0767  -29.3277   20.7297 C   0  0  0  0  0  0
  -27.2385  -28.4667   20.7284 C   0  0  0  0  0  0
  -26.0095  -26.7988   19.4979 C   0  0  0  0  0  0
  -24.8769  -27.6394   19.4810 C   0  0  0  0  0  0
  -23.6756  -29.7948   20.1542 C   0  0  0  0  0  0
  -25.4126  -36.3041   24.0318 C   0  0  1  0  0  0
  -20.5933  -28.3735   23.1235 C   0  0  2  0  0  0
  -20.6820  -26.9434   22.5415 C   0  0  0  0  0  0
  -19.5793  -26.6362   21.5238 C   0  0  0  0  0  0
  -18.1973  -26.7937   22.1636 C   0  0  0  0  0  0
  -19.1577  -28.8885   23.2842 C   0  0  0  0  0  0
  -18.9485  -30.1483   23.8869 C   0  0  0  0  0  0
  -17.6475  -30.6584   24.0556 C   0  0  0  0  0  0
  -25.9071  -34.9409   23.5071 C   0  0  0  0  0  0
  -16.5374  -29.9065   23.6335 C   0  0  0  0  0  0
  -16.7312  -28.6493   23.0344 C   0  0  0  0  0  0
  -26.4528  -31.6566   25.0730 C   0  0  0  0  0  0
  -25.3715  -31.3744   26.1425 C   0  0  0  0  0  0
  -27.0396  -30.2966   24.6306 C   0  0  0  0  0  0
  -27.6057  -32.4334   25.7514 C   0  0  0  0  0  0
  -27.5581  -37.1789   24.8468 C   0  0  0  0  0  0
  -21.4265  -29.3065   22.3608 N   0  0  0  0  0  0
  -26.4294  -37.3751   23.9406 N   0  0  0  0  0  0
  -24.7188  -31.0299   22.0924 N   0  0  0  0  0  0
  -23.4209  -28.8102   23.3013 O   0  0  0  0  0  0
  -28.2747  -26.1490   20.2050 O   0  0  0  0  0  0
  -26.5659  -34.8904   22.4650 O   0  0  0  0  0  0
  -23.5561  -32.1320   23.7113 O   0  0  0  0  0  0
  -30.5312  -19.9678   19.9088 C   0  0  0  0  0  0
  -29.2683  -20.2692   20.3712 C   0  0  0  0  0  0
  -29.7951  -17.9215   20.6694 C   0  0  0  0  0  0
  -31.3171  -16.6634   22.1646 C   0  0  0  0  0  0
  -23.9189  -19.4715   20.5887 C   0  0  0  0  0  0
  -28.4525  -21.7036   20.4299 C   0  0  0  0  0  0
  -29.0054  -23.2878   20.2664 C   0  0  0  0  0  0
  -27.4513  -18.6056   21.1985 C   0  0  0  0  0  0
  -29.0482  -16.0630   22.5595 C   0  0  0  0  0  0
  -27.9705  -24.6191   20.1529 C   0  0  0  0  0  0
  -26.2770  -19.4842   20.7366 C   0  0  0  0  0  0
  -30.0116  -16.3793   21.3413 C   0  0  2  0  0  0
  -28.8132  -18.9392   20.7370 N   0  0  0  0  0  0
  -30.7903  -18.6075   20.0693 N   0  3  0  0  0  0
  -27.5936  -15.8679   22.3534 N   0  3  0  0  0  0
  -25.0802  -18.7645   20.9985 O   0  0  0  0  0  0
  -31.4773  -12.8108   19.1616 H   0  0  0  0  0  0
  -30.5008  -11.6518   19.9817 H   0  0  0  0  0  0
  -29.8585  -11.7925   17.5694 H   0  0  0  0  0  0
  -29.5984  -13.5133   17.7085 H   0  0  0  0  0  0
  -27.9572  -11.2812   18.9411 H   0  0  0  0  0  0
  -27.3929  -12.4900   17.8151 H   0  0  0  0  0  0
  -27.6378  -14.2473   19.4799 H   0  0  0  0  0  0
  -28.8175  -12.0991   21.2912 H   0  0  0  0  0  0
  -28.3731  -13.6097   21.9040 H   0  0  0  0  0  0
  -25.2765   -9.5682   22.4757 H   0  0  0  0  0  0
  -24.0012   -7.4637   22.7480 H   0  0  0  0  0  0
  -21.0831   -8.8758   19.8974 H   0  0  0  0  0  0
  -22.3681  -10.9662   19.6186 H   0  0  0  0  0  0
  -21.1991   -7.6154   23.9691 H   0  0  0  0  0  0
  -21.1477   -6.0546   25.9063 H   0  0  0  0  0  0
  -22.0606   -2.7617   23.2846 H   0  0  0  0  0  0
  -22.4038  -11.9848   22.4752 H   0  0  0  0  0  0
  -21.1105  -13.1301   22.2599 H   0  0  0  0  0  0
  -24.5697  -15.6880   20.4495 H   0  0  0  0  0  0
  -25.9229  -15.4128   19.5478 H   0  0  0  0  0  0
  -26.7277  -32.5309   23.1024 H   0  0  0  0  0  0
  -25.0079  -33.9628   25.0339 H   0  0  0  0  0  0
  -22.7512  -31.2912   21.3798 H   0  0  0  0  0  0
  -23.3762  -35.9581   23.3295 H   0  0  0  0  0  0
  -24.3574  -36.8899   22.2057 H   0  0  0  0  0  0
  -23.7232  -37.6448   23.6685 H   0  0  0  0  0  0
  -26.1630  -31.4710   20.6168 H   0  0  0  0  0  0
  -26.8754  -30.7664   22.0319 H   0  0  0  0  0  0
  -28.1376  -28.7987   21.2288 H   0  0  0  0  0  0
  -25.9002  -25.8469   19.0034 H   0  0  0  0  0  0
  -23.9765  -27.3004   18.9869 H   0  0  0  0  0  0
  -23.8168  -30.5699   19.3995 H   0  0  0  0  0  0
  -22.7896  -29.2397   19.8401 H   0  0  0  0  0  0
  -25.1312  -36.1878   25.0812 H   0  0  0  0  0  0
  -21.0019  -28.3338   24.1355 H   0  0  0  0  0  0
  -20.5735  -26.2367   23.3659 H   0  0  0  0  0  0
  -21.6687  -26.7447   22.1209 H   0  0  0  0  0  0
  -19.6973  -25.6262   21.1291 H   0  0  0  0  0  0
  -19.6734  -27.3137   20.6735 H   0  0  0  0  0  0
  -17.4249  -26.6672   21.4037 H   0  0  0  0  0  0
  -18.0354  -26.0104   22.9056 H   0  0  0  0  0  0
  -19.7964  -30.7304   24.2226 H   0  0  0  0  0  0
  -17.5016  -31.6261   24.5156 H   0  0  0  0  0  0
  -15.5371  -30.2946   23.7678 H   0  0  0  0  0  0
  -15.8720  -28.0809   22.7056 H   0  0  0  0  0  0
  -24.5906  -30.7077   25.7749 H   0  0  0  0  0  0
  -24.8886  -32.2916   26.4808 H   0  0  0  0  0  0
  -25.8005  -30.8950   27.0232 H   0  0  0  0  0  0
  -26.3010  -29.6683   24.1312 H   0  0  0  0  0  0
  -27.4013  -29.7274   25.4879 H   0  0  0  0  0  0
  -27.8922  -30.4217   23.9627 H   0  0  0  0  0  0
  -27.2655  -33.3658   26.2036 H   0  0  0  0  0  0
  -28.3897  -32.6853   25.0360 H   0  0  0  0  0  0
  -28.0692  -31.8491   26.5473 H   0  0  0  0  0  0
  -28.2592  -38.0090   24.7516 H   0  0  0  0  0  0
  -28.1084  -36.2619   24.6301 H   0  0  0  0  0  0
  -27.2296  -37.1444   25.8870 H   0  0  0  0  0  0
  -20.9482  -29.8753   21.6757 H   0  0  0  0  0  0
  -26.0164  -38.2824   24.1402 H   0  0  0  0  0  0
  -31.2775  -20.6276   19.4864 H   0  0  0  0  0  0
  -32.1725  -16.9237   21.5400 H   0  0  0  0  0  0
  -31.6386  -15.8058   22.7597 H   0  0  0  0  0  0
  -31.1999  -17.4971   22.8595 H   0  0  0  0  0  0
  -23.0297  -18.8860   20.8220 H   0  0  0  0  0  0
  -23.9268  -19.6516   19.5127 H   0  0  0  0  0  0
  -23.8340  -20.4301   21.1034 H   0  0  0  0  0  0
  -27.9479  -21.7101   21.3944 H   0  0  0  0  0  0
  -27.6650  -21.6167   19.6830 H   0  0  0  0  0  0
  -29.6381  -23.3130   19.3791 H   0  0  0  0  0  0
  -29.6817  -23.4770   21.1007 H   0  0  0  0  0  0
  -27.2352  -17.6415   20.7461 H   0  0  0  0  0  0
  -27.4600  -18.5284   22.2862 H   0  0  0  0  0  0
  -29.1291  -16.8545   23.3069 H   0  0  0  0  0  0
  -29.4068  -15.1711   23.0768 H   0  0  0  0  0  0
  -27.2078  -24.4621   20.9165 H   0  0  0  0  0  0
  -27.4580  -24.4515   19.2062 H   0  0  0  0  0  0
  -26.3492  -19.6984   19.6695 H   0  0  0  0  0  0
  -26.2357  -20.4221   21.2882 H   0  0  0  0  0  0
  -31.6820  -18.1909   19.8277 H   0  0  0  0  0  0
  -27.1336  -16.6992   22.0265 H   0  0  0  0  0  0
  -27.1702  -15.6430   23.2400 H   0  0  0  0  0  0
  -27.3555  -15.1249   21.7193 H   0  0  0  0  0  0
  1 25  1  0  0  0
  1 30  2  0  0  0
  1 82  1  0  0  0
  2  3  1  0  0  0
  2 25  1  0  0  0
  2 87  1  0  0  0
  2 88  1  0  0  0
  3  4  1  0  0  0
  3 89  1  0  0  0
  3 90  1  0  0  0
  4  5  1  0  0  0
  4 91  1  0  0  0
  4 92  1  0  0  0
  5  6  1  0  0  0
  5 26  1  0  0  0
  5 93  1  0  0  0
  6 25  1  0  0  0
  6 94  1  0  0  0
  6 95  1  0  0  0
  7  8  2  0  0  0
  7 26  1  0  0  0
  7 29  1  0  0  0
  8  9  1  0  0  0
  8 22  1  0  0  0
  9 10  1  0  0  0
  9 27  2  0  0  0
 10 11  2  0  0  0
 10 15  1  0  0  0
 11 12  1  0  0  0
 11 96  1  0  0  0
 12 13  2  0  0  0
 12 97  1  0  0  0
 13 14  1  0  0  0
 13 31  1  0  0  0
 14 15  2  0  0  0
 14 98  1  0  0  0
 15 99  1  0  0  0
 16 17  2  0  0  0
 16 21  1  0  0  0
 16 31  1  0  0  0
 17 18  1  0  0  0
 17100  1  0  0  0
 18 19  2  0  0  0
 18101  1  0  0  0
 19 20  1  0  0  0
 19 24  1  0  0  0
 20 21  2  0  0  0
 20102  1  0  0  0
 21 23  1  0  0  0
 22 28  1  0  0  0
 22 32  2  0  0  0
 26 27  1  0  0  0
 28103  1  0  0  0
 28104  1  0  0  0
 29105  1  0  0  0
 29106  1  0  0  0
 33 34  1  0  0  0
 33 66  1  0  0  0
 33 70  2  0  0  0
 34 36  1  0  0  0
 34 59  1  0  0  0
 34107  1  0  0  0
 35 44  2  0  0  0
 35 45  1  0  0  0
 35 68  1  0  0  0
 36 56  1  0  0  0
 36108  1  0  0  0
 37 39  1  0  0  0
 37 47  1  0  0  0
 37 66  1  0  0  0
 37109  1  0  0  0
 38 43  2  0  0  0
 38 46  1  0  0  0
 38 47  1  0  0  0
 39 64  1  0  0  0
 39 67  2  0  0  0
 40 52  1  0  0  0
 40 53  2  0  0  0
 40 58  1  0  0  0
 41110  1  0  0  0
 41111  1  0  0  0
 41112  1  0  0  0
 41 48  1  0  0  0
 42 43  1  0  0  0
 42 66  1  0  0  0
 42113  1  0  0  0
 42114  1  0  0  0
 43 44  1  0  0  0
 44115  1  0  0  0
 45 46  2  0  0  0
 45116  1  0  0  0
 46117  1  0  0  0
 47118  1  0  0  0
 47119  1  0  0  0
 48 56  1  0  0  0
 48 65  1  0  0  0
 48120  1  0  0  0
 49 50  1  0  0  0
 49 53  1  0  0  0
 49 64  1  0  0  0
 49121  1  0  0  0
 50 51  1  0  0  0
 50122  1  0  0  0
 50123  1  0  0  0
 51 52  1  0  0  0
 51124  1  0  0  0
 51125  1  0  0  0
 52126  1  0  0  0
 52127  1  0  0  0
 53 54  1  0  0  0
 54 55  2  0  0  0
 54128  1  0  0  0
 55 57  1  0  0  0
 55129  1  0  0  0
 56 69  2  0  0  0
 57 58  2  0  0  0
 57130  1  0  0  0
 58131  1  0  0  0
 59 60  1  0  0  0
 59 61  1  0  0  0
 59 62  1  0  0  0
 60132  1  0  0  0
 60133  1  0  0  0
 60134  1  0  0  0
 61135  1  0  0  0
 61136  1  0  0  0
 61137  1  0  0  0
 62138  1  0  0  0
 62139  1  0  0  0
 62140  1  0  0  0
 63 65  1  0  0  0
 63141  1  0  0  0
 63142  1  0  0  0
 63143  1  0  0  0
 64144  1  0  0  0
 65145  1  0  0  0
 68 80  1  0  0  0
 71 72  2  0  0  0
 71 84  1  0  0  0
 71146  1  0  0  0
 72 76  1  0  0  0
 72 83  1  0  0  0
 73 82  1  0  0  0
 73 83  1  0  0  0
 73 84  2  0  0  0
 74147  1  0  0  0
 74148  1  0  0  0
 74149  1  0  0  0
 74 82  1  0  0  0
 75 86  1  0  0  0
 75150  1  0  0  0
 75151  1  0  0  0
 75152  1  0  0  0
 76 77  1  0  0  0
 76153  1  0  0  0
 76154  1  0  0  0
 77 80  1  0  0  0
 77155  1  0  0  0
 77156  1  0  0  0
 78 81  1  0  0  0
 78 83  1  0  0  0
 78157  1  0  0  0
 78158  1  0  0  0
 79 82  1  0  0  0
 79 85  1  0  0  0
 79159  1  0  0  0
 79160  1  0  0  0
 80161  1  0  0  0
 80162  1  0  0  0
 81 86  1  0  0  0
 81163  1  0  0  0
 81164  1  0  0  0
 84165  1  0  0  0
 85166  1  0  0  0
 85167  1  0  0  0
 85168  1  0  0  0
M  CHG  2  84   1  85   1
M  ISO  4   1 100  68 101  80 101  82 100
M  END
> <chiral flag>
0

> <version>
0

> <s_m_source_file>
/data/baiqing/PycharmProjects/Reinvent-master-3.2/result/LINK_invent/BTK/process_docking_weight1_custom_sum_contain_oxygen_bond_distance_aromatic_linkinvent_7_9_3/rearranged_h_0071.sdf

> <i_m_source_file_index>
40

> <r_mmod_Potential_Energy-OPLS-2005>
411.273284912109

> <r_mmod_Stretch_Energy-OPLS-2005>
321.496124267578

> <r_mmod_Bend_Energy-OPLS-2005>
355.991485595703

> <r_mmod_Torsional_Energy-OPLS-2005>
237.853118896484

> <r_mmod_Improper_Torsional_Energy-OPLS-2005>
9.19907093048096

> <r_mmod_Van_der_Waal_Energy-OPLS-2005>
144.466766357422

> <r_mmod_Electrostatic_Energy-OPLS-2005>
92.3573455810547

> <r_mmod_Solvation_Energy-OPLS-2005>
-937.418640136719

> <b_mmod_Minimization_Converged-OPLS-2005>
0

> <r_mmod_RMS_Derivative-OPLS-2005>
1.77749276161194

$$$$
41
                    3D
 Structure written by MMmdl.
172180  0  0  1  0            999 V2000
  -30.6182  -14.7857   20.4913 C   0  0  0  0  0  0
  -30.4556  -12.4711   19.4846 C   0  0  0  0  0  0
  -29.5266  -12.3734   18.2495 C   0  0  0  0  0  0
  -28.0357  -12.3050   18.6418 C   0  0  0  0  0  0
  -27.6452  -13.2174   19.8356 C   0  0  2  0  0  0
  -28.6887  -13.1233   20.9616 C   0  0  0  0  0  0
  -25.2547  -13.8178   20.5722 C   0  0  0  0  0  0
  -24.1808  -13.0430   20.9195 C   0  0  0  0  0  0
  -24.6376  -11.6901   20.8694 C   0  0  0  0  0  0
  -23.9043  -10.4274   21.0359 C   0  0  0  0  0  0
  -24.3584   -9.4220   21.9166 C   0  0  0  0  0  0
  -23.6280   -8.2247   22.0745 C   0  0  0  0  0  0
  -22.4276   -8.0244   21.3528 C   0  0  0  0  0  0
  -21.9879   -9.0210   20.4647 C   0  0  0  0  0  0
  -22.7187  -10.2110   20.3044 C   0  0  0  0  0  0
  -21.6855   -6.0730   22.5275 C   0  0  0  0  0  0
  -21.4024   -6.5637   23.8203 C   0  0  0  0  0  0
  -21.3671   -5.6779   24.9161 C   0  0  0  0  0  0
  -21.6035   -4.3042   24.7220 C   0  0  0  0  0  0
  -21.8826   -3.8138   23.4331 C   0  0  0  0  0  0
  -21.9198   -4.6958   22.3392 C   0  0  0  0  0  0
  -22.7829  -13.5218   21.1854 C   0  0  0  0  0  0
  -22.1668   -4.2139   21.0978 F   0  0  0  0  0  0
  -21.5620   -3.4529   25.7745 F   0  0  0  0  0  0
  -29.9814  -13.5506   20.3954 N   0  0  0  0  0  0
  -26.2943  -12.9361   20.3180 N   0  0  0  0  0  0
  -25.9287  -11.6524   20.5660 N   0  0  0  0  0  0
  -22.0485  -12.8230   22.0430 N   0  0  0  0  0  0
  -25.4286  -15.1919   20.4310 N   0  0  0  0  0  0
  -31.7943  -14.8674   20.1271 O   0  0  0  0  0  0
  -21.6629   -6.8849   21.4229 O   0  0  0  0  0  0
  -22.3530  -14.5539   20.6705 O   0  0  0  0  0  0
  -24.6292  -31.8587   23.1984 C   0  0  0  0  0  0
  -25.9148  -32.4752   23.8324 C   0  0  1  0  0  0
  -27.2229  -27.2868   20.1053 C   0  0  0  0  0  0
  -25.5959  -33.8555   24.2263 N   0  0  0  0  0  0
  -23.4236  -30.4867   21.5397 C   0  0  2  0  0  0
  -24.8665  -28.9364   20.1032 C   0  0  0  0  0  0
  -22.7466  -29.4672   22.4873 C   0  0  0  0  0  0
  -18.0302  -28.1383   22.8481 C   0  0  0  0  0  0
  -24.1489  -36.7287   23.2633 C   0  0  0  0  0  0
  -25.9692  -30.7767   21.3758 C   0  0  0  0  0  0
  -26.0386  -29.4028   20.7128 C   0  0  0  0  0  0
  -27.2152  -28.5886   20.7072 C   0  0  0  0  0  0
  -26.0297  -26.8904   19.4582 C   0  0  0  0  0  0
  -24.8675  -27.6861   19.4661 C   0  0  0  0  0  0
  -23.6361  -29.8228   20.1537 C   0  0  0  0  0  0
  -25.4113  -36.3076   24.0324 C   0  0  1  0  0  0
  -20.5902  -28.3727   23.1225 C   0  0  2  0  0  0
  -20.6794  -26.9445   22.5380 C   0  0  0  0  0  0
  -19.5761  -26.6389   21.5195 C   0  0  0  0  0  0
  -18.1945  -26.7935   22.1619 C   0  0  0  0  0  0
  -19.1561  -28.8866   23.2857 C   0  0  0  0  0  0
  -18.9495  -30.1457   23.8882 C   0  0  0  0  0  0
  -17.6493  -30.6586   24.0572 C   0  0  0  0  0  0
  -25.9069  -34.9444   23.5088 C   0  0  0  0  0  0
  -16.5377  -29.9095   23.6318 C   0  0  0  0  0  0
  -16.7295  -28.6514   23.0348 C   0  0  0  0  0  0
  -26.4518  -31.6570   25.0707 C   0  0  0  0  0  0
  -25.3750  -31.3726   26.1434 C   0  0  0  0  0  0
  -27.0352  -30.2981   24.6194 C   0  0  0  0  0  0
  -27.6065  -32.4306   25.7489 C   0  0  0  0  0  0
  -27.5578  -37.1797   24.8465 C   0  0  0  0  0  0
  -21.4186  -29.3089   22.3594 N   0  0  0  0  0  0
  -26.4296  -37.3776   23.9406 N   0  0  0  0  0  0
  -24.6933  -31.0583   22.0926 N   0  0  0  0  0  0
  -23.4184  -28.8196   23.2954 O   0  0  0  0  0  0
  -28.3348  -26.4152   20.1635 O   0  0  0  0  0  0
  -26.5633  -34.8924   22.4648 O   0  0  0  0  0  0
  -23.5451  -32.1398   23.7315 O   0  0  0  0  0  0
  -29.6965  -19.2019   18.9545 C   0  0  0  0  0  0
  -29.7734  -19.6669   20.2353 C   0  0  0  0  0  0
  -29.9379  -17.3408   20.2058 C   0  0  0  0  0  0
  -29.2714  -21.1023   22.2328 C   0  0  0  0  0  0
  -31.2854  -21.5603   20.7999 C   0  0  0  0  0  0
  -30.0349  -15.6694   17.5427 C   0  0  0  0  0  0
  -30.5585  -17.8288   16.5274 C   0  0  0  0  0  0
  -28.1834  -17.2558   17.1549 C   0  0  0  0  0  0
  -29.3214  -15.9485   22.1793 C   0  0  0  0  0  0
  -29.1730  -23.8518   20.3911 C   0  0  0  0  0  0
  -28.9886  -22.2886   19.9922 C   0  0  0  0  0  0
  -28.1629  -24.9670   19.8310 C   0  0  0  0  0  0
  -29.8052  -21.1410   20.7929 C   0  0  0  0  0  0
  -29.6578  -17.1380   17.5865 C   0  0  0  0  0  0
  -29.8163  -17.8121   18.9181 N   0  0  0  0  0  0
  -29.9522  -18.4839   20.9661 N   0  3  0  0  0  0
  -29.8992  -15.9499   20.8174 N   0  0  0  0  0  0
  -31.4863  -12.6154   19.1559 H   0  0  0  0  0  0
  -30.4508  -11.5133   20.0077 H   0  0  0  0  0  0
  -29.7799  -11.4718   17.6888 H   0  0  0  0  0  0
  -29.7125  -13.1701   17.5415 H   0  0  0  0  0  0
  -27.8409  -11.2663   18.9079 H   0  0  0  0  0  0
  -27.4068  -12.5114   17.7754 H   0  0  0  0  0  0
  -27.6514  -14.2423   19.4663 H   0  0  0  0  0  0
  -28.7550  -12.0997   21.3347 H   0  0  0  0  0  0
  -28.3592  -13.6910   21.8220 H   0  0  0  0  0  0
  -25.2722   -9.5728   22.4755 H   0  0  0  0  0  0
  -23.9980   -7.4666   22.7509 H   0  0  0  0  0  0
  -21.0778   -8.8724   19.8997 H   0  0  0  0  0  0
  -22.3597  -10.9638   19.6167 H   0  0  0  0  0  0
  -21.2038   -7.6150   23.9707 H   0  0  0  0  0  0
  -21.1474   -6.0516   25.9065 H   0  0  0  0  0  0
  -22.0605   -2.7601   23.2837 H   0  0  0  0  0  0
  -22.4020  -11.9860   22.4822 H   0  0  0  0  0  0
  -21.1125  -13.1322   22.2652 H   0  0  0  0  0  0
  -24.6658  -15.8438   20.5788 H   0  0  0  0  0  0
  -26.2769  -15.6427   20.1170 H   0  0  0  0  0  0
  -26.7212  -32.5397   23.1062 H   0  0  0  0  0  0
  -25.0099  -33.9701   25.0408 H   0  0  0  0  0  0
  -22.7204  -31.3096   21.3972 H   0  0  0  0  0  0
  -23.3762  -35.9611   23.3283 H   0  0  0  0  0  0
  -24.3583  -36.8923   22.2053 H   0  0  0  0  0  0
  -23.7248  -37.6482   23.6669 H   0  0  0  0  0  0
  -26.1145  -31.5425   20.6138 H   0  0  0  0  0  0
  -26.8442  -30.8153   22.0119 H   0  0  0  0  0  0
  -28.1122  -28.9398   21.1996 H   0  0  0  0  0  0
  -25.9602  -25.9445   18.9429 H   0  0  0  0  0  0
  -23.9753  -27.3265   18.9726 H   0  0  0  0  0  0
  -23.7523  -30.6027   19.3995 H   0  0  0  0  0  0
  -22.7515  -29.2592   19.8524 H   0  0  0  0  0  0
  -25.1300  -36.1908   25.0823 H   0  0  0  0  0  0
  -21.0052  -28.3356   24.1324 H   0  0  0  0  0  0
  -20.5672  -26.2378   23.3608 H   0  0  0  0  0  0
  -21.6664  -26.7436   22.1191 H   0  0  0  0  0  0
  -19.6932  -25.6302   21.1226 H   0  0  0  0  0  0
  -19.6681  -27.3192   20.6716 H   0  0  0  0  0  0
  -17.4211  -26.6671   21.4025 H   0  0  0  0  0  0
  -18.0357  -26.0071   22.9011 H   0  0  0  0  0  0
  -19.7976  -30.7269   24.2240 H   0  0  0  0  0  0
  -17.5060  -31.6255   24.5187 H   0  0  0  0  0  0
  -15.5389  -30.3001   23.7633 H   0  0  0  0  0  0
  -15.8700  -28.0819   22.7062 H   0  0  0  0  0  0
  -24.5928  -30.7072   25.7777 H   0  0  0  0  0  0
  -24.8945  -32.2895   26.4849 H   0  0  0  0  0  0
  -25.8079  -30.8915   27.0214 H   0  0  0  0  0  0
  -26.2930  -29.6723   24.1235 H   0  0  0  0  0  0
  -27.4043  -29.7249   25.4709 H   0  0  0  0  0  0
  -27.8805  -30.4228   23.9425 H   0  0  0  0  0  0
  -27.2673  -33.3615   26.2041 H   0  0  0  0  0  0
  -28.3898  -32.6852   25.0342 H   0  0  0  0  0  0
  -28.0713  -31.8450   26.5430 H   0  0  0  0  0  0
  -28.2593  -38.0099   24.7517 H   0  0  0  0  0  0
  -28.1077  -36.2629   24.6280 H   0  0  0  0  0  0
  -27.2294  -37.1437   25.8870 H   0  0  0  0  0  0
  -20.9347  -29.8822   21.6814 H   0  0  0  0  0  0
  -26.0162  -38.2844   24.1414 H   0  0  0  0  0  0
  -29.5554  -19.7870   18.0578 H   0  0  0  0  0  0
  -29.8627  -20.4478   22.8708 H   0  0  0  0  0  0
  -28.2400  -20.7515   22.2512 H   0  0  0  0  0  0
  -29.2909  -22.0854   22.6977 H   0  0  0  0  0  0
  -31.6759  -21.6389   19.7861 H   0  0  0  0  0  0
  -31.9032  -20.8445   21.3377 H   0  0  0  0  0  0
  -31.4302  -22.5242   21.2839 H   0  0  0  0  0  0
  -29.8857  -15.2486   16.5461 H   0  0  0  0  0  0
  -29.3672  -15.1257   18.2019 H   0  0  0  0  0  0
  -31.0835  -15.4994   17.7958 H   0  0  0  0  0  0
  -30.5710  -17.2690   15.5927 H   0  0  0  0  0  0
  -31.5936  -17.8940   16.8650 H   0  0  0  0  0  0
  -30.2312  -18.8333   16.2623 H   0  0  0  0  0  0
  -28.0200  -16.8532   16.1547 H   0  0  0  0  0  0
  -27.8536  -18.2939   17.1342 H   0  0  0  0  0  0
  -27.5269  -16.7148   17.8375 H   0  0  0  0  0  0
  -29.6145  -16.8138   22.7741 H   0  0  0  0  0  0
  -29.6280  -15.0987   22.7931 H   0  0  0  0  0  0
  -28.2295  -15.9608   22.1235 H   0  0  0  0  0  0
  -30.1838  -24.1476   20.1123 H   0  0  0  0  0  0
  -29.1482  -23.9323   21.4756 H   0  0  0  0  0  0
  -29.2372  -22.1965   18.9346 H   0  0  0  0  0  0
  -27.9262  -22.0516   20.0534 H   0  0  0  0  0  0
  -27.1867  -24.6462   20.1853 H   0  0  0  0  0  0
  -28.1305  -24.8868   18.7445 H   0  0  0  0  0  0
  -30.0695  -18.4793   21.9697 H   0  0  0  0  0  0
  1 25  1  0  0  0
  1 30  2  0  0  0
  1 87  1  0  0  0
  2  3  1  0  0  0
  2 25  1  0  0  0
  2 88  1  0  0  0
  2 89  1  0  0  0
  3  4  1  0  0  0
  3 90  1  0  0  0
  3 91  1  0  0  0
  4  5  1  0  0  0
  4 92  1  0  0  0
  4 93  1  0  0  0
  5  6  1  0  0  0
  5 26  1  0  0  0
  5 94  1  0  0  0
  6 25  1  0  0  0
  6 95  1  0  0  0
  6 96  1  0  0  0
  7  8  2  0  0  0
  7 26  1  0  0  0
  7 29  1  0  0  0
  8  9  1  0  0  0
  8 22  1  0  0  0
  9 10  1  0  0  0
  9 27  2  0  0  0
 10 11  2  0  0  0
 10 15  1  0  0  0
 11 12  1  0  0  0
 11 97  1  0  0  0
 12 13  2  0  0  0
 12 98  1  0  0  0
 13 14  1  0  0  0
 13 31  1  0  0  0
 14 15  2  0  0  0
 14 99  1  0  0  0
 15100  1  0  0  0
 16 17  2  0  0  0
 16 21  1  0  0  0
 16 31  1  0  0  0
 17 18  1  0  0  0
 17101  1  0  0  0
 18 19  2  0  0  0
 18102  1  0  0  0
 19 20  1  0  0  0
 19 24  1  0  0  0
 20 21  2  0  0  0
 20103  1  0  0  0
 21 23  1  0  0  0
 22 28  1  0  0  0
 22 32  2  0  0  0
 26 27  1  0  0  0
 28104  1  0  0  0
 28105  1  0  0  0
 29106  1  0  0  0
 29107  1  0  0  0
 33 34  1  0  0  0
 33 66  1  0  0  0
 33 70  2  0  0  0
 34 36  1  0  0  0
 34 59  1  0  0  0
 34108  1  0  0  0
 35 44  2  0  0  0
 35 45  1  0  0  0
 35 68  1  0  0  0
 36 56  1  0  0  0
 36109  1  0  0  0
 37 39  1  0  0  0
 37 47  1  0  0  0
 37 66  1  0  0  0
 37110  1  0  0  0
 38 43  2  0  0  0
 38 46  1  0  0  0
 38 47  1  0  0  0
 39 64  1  0  0  0
 39 67  2  0  0  0
 40 52  1  0  0  0
 40 53  2  0  0  0
 40 58  1  0  0  0
 41111  1  0  0  0
 41112  1  0  0  0
 41113  1  0  0  0
 41 48  1  0  0  0
 42 43  1  0  0  0
 42 66  1  0  0  0
 42114  1  0  0  0
 42115  1  0  0  0
 43 44  1  0  0  0
 44116  1  0  0  0
 45 46  2  0  0  0
 45117  1  0  0  0
 46118  1  0  0  0
 47119  1  0  0  0
 47120  1  0  0  0
 48 56  1  0  0  0
 48 65  1  0  0  0
 48121  1  0  0  0
 49 50  1  0  0  0
 49 53  1  0  0  0
 49 64  1  0  0  0
 49122  1  0  0  0
 50 51  1  0  0  0
 50123  1  0  0  0
 50124  1  0  0  0
 51 52  1  0  0  0
 51125  1  0  0  0
 51126  1  0  0  0
 52127  1  0  0  0
 52128  1  0  0  0
 53 54  1  0  0  0
 54 55  2  0  0  0
 54129  1  0  0  0
 55 57  1  0  0  0
 55130  1  0  0  0
 56 69  2  0  0  0
 57 58  2  0  0  0
 57131  1  0  0  0
 58132  1  0  0  0
 59 60  1  0  0  0
 59 61  1  0  0  0
 59 62  1  0  0  0
 60133  1  0  0  0
 60134  1  0  0  0
 60135  1  0  0  0
 61136  1  0  0  0
 61137  1  0  0  0
 61138  1  0  0  0
 62139  1  0  0  0
 62140  1  0  0  0
 62141  1  0  0  0
 63 65  1  0  0  0
 63142  1  0  0  0
 63143  1  0  0  0
 63144  1  0  0  0
 64145  1  0  0  0
 65146  1  0  0  0
 68 82  1  0  0  0
 71 72  2  0  0  0
 71 85  1  0  0  0
 71147  1  0  0  0
 72 83  1  0  0  0
 72 86  1  0  0  0
 73 85  1  0  0  0
 73 86  2  0  0  0
 73 87  1  0  0  0
 74148  1  0  0  0
 74149  1  0  0  0
 74150  1  0  0  0
 74 83  1  0  0  0
 75 83  1  0  0  0
 75151  1  0  0  0
 75152  1  0  0  0
 75153  1  0  0  0
 76154  1  0  0  0
 76155  1  0  0  0
 76156  1  0  0  0
 76 84  1  0  0  0
 77 84  1  0  0  0
 77157  1  0  0  0
 77158  1  0  0  0
 77159  1  0  0  0
 78 84  1  0  0  0
 78160  1  0  0  0
 78161  1  0  0  0
 78162  1  0  0  0
 79 87  1  0  0  0
 79163  1  0  0  0
 79164  1  0  0  0
 79165  1  0  0  0
 80 81  1  0  0  0
 80 82  1  0  0  0
 80166  1  0  0  0
 80167  1  0  0  0
 81 83  1  0  0  0
 81168  1  0  0  0
 81169  1  0  0  0
 82170  1  0  0  0
 82171  1  0  0  0
 84 85  1  0  0  0
 86172  1  0  0  0
M  CHG  1  86   1
M  ISO  4   1 100  68 101  82 101  87 100
M  END
> <chiral flag>
0

> <version>
0

> <s_m_source_file>
/data/baiqing/PycharmProjects/Reinvent-master-3.2/result/LINK_invent/BTK/process_docking_weight1_custom_sum_contain_oxygen_bond_distance_aromatic_linkinvent_7_9_3/rearranged_h_0071.sdf

> <i_m_source_file_index>
41

> <r_mmod_Potential_Energy-OPLS-2005>
276.582733154297

> <r_mmod_Stretch_Energy-OPLS-2005>
137.441696166992

> <r_mmod_Bend_Energy-OPLS-2005>
230.072326660156

> <r_mmod_Torsional_Energy-OPLS-2005>
322.816925048828

> <r_mmod_Improper_Torsional_Energy-OPLS-2005>
6.06543874740601

> <r_mmod_Van_der_Waal_Energy-OPLS-2005>
145.17839050293

> <r_mmod_Electrostatic_Energy-OPLS-2005>
-267.8720703125

> <r_mmod_Solvation_Energy-OPLS-2005>
-383.200714111328

> <b_mmod_Minimization_Converged-OPLS-2005>
0

> <r_mmod_RMS_Derivative-OPLS-2005>
4.19273519515991

$$$$
42
                    3D
 Structure written by MMmdl.
179187  0  0  1  0            999 V2000
  -30.7168  -14.5009   20.5177 C   0  0  0  0  0  0
  -30.4044  -12.3157   19.4417 C   0  0  0  0  0  0
  -29.4873  -12.4872   18.2133 C   0  0  0  0  0  0
  -28.0080  -12.3516   18.6237 C   0  0  0  0  0  0
  -27.6456  -13.2186   19.8567 C   0  0  2  0  0  0
  -28.6879  -13.0581   20.9806 C   0  0  0  0  0  0
  -25.2550  -13.8191   20.5724 C   0  0  0  0  0  0
  -24.1803  -13.0431   20.9182 C   0  0  0  0  0  0
  -24.6381  -11.6914   20.8728 C   0  0  0  0  0  0
  -23.9052  -10.4287   21.0399 C   0  0  0  0  0  0
  -24.3605   -9.4218   21.9200 C   0  0  0  0  0  0
  -23.6293   -8.2245   22.0755 C   0  0  0  0  0  0
  -22.4281   -8.0268   21.3538 C   0  0  0  0  0  0
  -21.9901   -9.0238   20.4646 C   0  0  0  0  0  0
  -22.7209  -10.2134   20.3053 C   0  0  0  0  0  0
  -21.6858   -6.0724   22.5266 C   0  0  0  0  0  0
  -21.4019   -6.5622   23.8197 C   0  0  0  0  0  0
  -21.3662   -5.6777   24.9159 C   0  0  0  0  0  0
  -21.6029   -4.3035   24.7214 C   0  0  0  0  0  0
  -21.8830   -3.8130   23.4336 C   0  0  0  0  0  0
  -21.9198   -4.6950   22.3394 C   0  0  0  0  0  0
  -22.7835  -13.5246   21.1856 C   0  0  0  0  0  0
  -22.1663   -4.2113   21.0984 F   0  0  0  0  0  0
  -21.5633   -3.4532   25.7749 F   0  0  0  0  0  0
  -30.0136  -13.3395   20.4259 N   0  0  0  0  0  0
  -26.2951  -12.9354   20.3315 N   0  0  0  0  0  0
  -25.9299  -11.6501   20.5744 N   0  0  0  0  0  0
  -22.0465  -12.8225   22.0414 N   0  0  0  0  0  0
  -25.4259  -15.1914   20.4193 N   0  0  0  0  0  0
  -31.9196  -14.4996   20.2454 O   0  0  0  0  0  0
  -21.6635   -6.8868   21.4231 O   0  0  0  0  0  0
  -22.3538  -14.5567   20.6734 O   0  0  0  0  0  0
  -24.6145  -31.8694   23.2033 C   0  0  0  0  0  0
  -25.9047  -32.4818   23.8359 C   0  0  1  0  0  0
  -27.2422  -27.4452   20.0968 C   0  0  0  0  0  0
  -25.5928  -33.8610   24.2277 N   0  0  0  0  0  0
  -23.3954  -30.4910   21.5440 C   0  0  2  0  0  0
  -24.8439  -28.9478   20.1153 C   0  0  0  0  0  0
  -22.7350  -29.4686   22.4987 C   0  0  0  0  0  0
  -18.0212  -28.1327   22.8401 C   0  0  0  0  0  0
  -24.1482  -36.7335   23.2640 C   0  0  0  0  0  0
  -25.9260  -30.8361   21.3532 C   0  0  0  0  0  0
  -25.9997  -29.4694   20.7077 C   0  0  0  0  0  0
  -27.1957  -28.7218   20.6989 C   0  0  0  0  0  0
  -26.0598  -26.9272   19.5122 C   0  0  0  0  0  0
  -24.8685  -27.6787   19.5129 C   0  0  0  0  0  0
  -23.6044  -29.8117   20.1612 C   0  0  0  0  0  0
  -25.4104  -36.3116   24.0331 C   0  0  1  0  0  0
  -20.5811  -28.3648   23.1230 C   0  0  2  0  0  0
  -20.6707  -26.9414   22.5246 C   0  0  0  0  0  0
  -19.5689  -26.6395   21.5000 C   0  0  0  0  0  0
  -18.1854  -26.7892   22.1443 C   0  0  0  0  0  0
  -19.1454  -28.8801   23.2873 C   0  0  0  0  0  0
  -18.9350  -30.1420   23.8881 C   0  0  0  0  0  0
  -17.6316  -30.6484   24.0579 C   0  0  0  0  0  0
  -25.9057  -34.9497   23.5096 C   0  0  0  0  0  0
  -16.5240  -29.8962   23.6269 C   0  0  0  0  0  0
  -16.7195  -28.6438   23.0195 C   0  0  0  0  0  0
  -26.4451  -31.6617   25.0697 C   0  0  0  0  0  0
  -25.3690  -31.3740   26.1408 C   0  0  0  0  0  0
  -27.0272  -30.3060   24.6108 C   0  0  0  0  0  0
  -27.6016  -32.4329   25.7501 C   0  0  0  0  0  0
  -27.5563  -37.1826   24.8456 C   0  0  0  0  0  0
  -21.4083  -29.3025   22.3677 N   0  0  0  0  0  0
  -26.4278  -37.3805   23.9407 N   0  0  0  0  0  0
  -24.6626  -31.0831   22.0913 N   0  0  0  0  0  0
  -23.4092  -28.8273   23.3057 O   0  0  0  0  0  0
  -28.4506  -26.7774   20.1127 O   0  0  0  0  0  0
  -26.5615  -34.8950   22.4642 O   0  0  0  0  0  0
  -23.5358  -32.1429   23.7471 O   0  0  0  0  0  0
  -28.4527  -18.5111   20.9202 C   0  0  0  0  0  0
  -27.8401  -19.6524   21.3671 C   0  0  0  0  0  0
  -28.1364  -18.2516   23.0908 C   0  0  0  0  0  0
  -27.1989  -16.3640   24.5315 C   0  0  0  0  0  0
  -27.0679  -18.7261   25.3452 C   0  0  0  0  0  0
  -31.0105  -16.9327   19.9097 C   0  0  0  0  0  0
  -30.7176  -16.4260   23.0248 C   0  0  0  0  0  0
  -26.5981  -20.4745   19.4022 C   0  0  0  0  0  0
  -26.4832  -21.7589   21.5590 C   0  0  0  0  0  0
  -28.5303  -23.0046   19.4450 C   0  0  0  0  0  0
  -28.3763  -24.3138   20.2544 C   0  0  0  0  0  0
  -28.6808  -21.6908   20.2533 C   0  0  0  0  0  0
  -28.6236  -25.5620   19.3832 C   0  0  0  0  0  0
  -27.9021  -17.7356   24.4976 C   0  0  0  0  0  0
  -30.0327  -15.9189   20.5926 C   0  0  2  0  0  0
  -29.5499  -16.4197   22.0051 C   0  0  2  0  0  0
  -27.3952  -20.9084   20.6493 C   0  0  0  0  0  0
  -28.7621  -17.7128   22.0090 N   0  0  0  0  0  0
  -27.6885  -19.4542   22.7073 N   0  3  0  0  0  0
  -31.4470  -12.3957   19.1314 H   0  0  0  0  0  0
  -30.2967  -11.3169   19.8658 H   0  0  0  0  0  0
  -29.7307  -11.7359   17.4604 H   0  0  0  0  0  0
  -29.6601  -13.4612   17.7525 H   0  0  0  0  0  0
  -27.8262  -11.2995   18.8502 H   0  0  0  0  0  0
  -27.3550  -12.5959   17.7852 H   0  0  0  0  0  0
  -27.6609  -14.2527   19.5210 H   0  0  0  0  0  0
  -28.6699  -12.0440   21.3792 H   0  0  0  0  0  0
  -28.4514  -13.6980   21.8249 H   0  0  0  0  0  0
  -25.2731   -9.5684   22.4793 H   0  0  0  0  0  0
  -23.9974   -7.4639   22.7483 H   0  0  0  0  0  0
  -21.0814   -8.8748   19.8971 H   0  0  0  0  0  0
  -22.3640  -10.9672   19.6165 H   0  0  0  0  0  0
  -21.1998   -7.6131   23.9685 H   0  0  0  0  0  0
  -21.1484   -6.0517   25.9063 H   0  0  0  0  0  0
  -22.0616   -2.7582   23.2850 H   0  0  0  0  0  0
  -22.4037  -11.9874   22.4794 H   0  0  0  0  0  0
  -21.1091  -13.1255   22.2598 H   0  0  0  0  0  0
  -24.6574  -15.8445   20.5308 H   0  0  0  0  0  0
  -26.2728  -15.6302   20.0819 H   0  0  0  0  0  0
  -26.7092  -32.5506   23.1114 H   0  0  0  0  0  0
  -25.0066  -33.9745   25.0412 H   0  0  0  0  0  0
  -22.6818  -31.3042   21.4006 H   0  0  0  0  0  0
  -23.3733  -35.9673   23.3318 H   0  0  0  0  0  0
  -24.3593  -36.8943   22.2050 H   0  0  0  0  0  0
  -23.7229  -37.6545   23.6635 H   0  0  0  0  0  0
  -26.0395  -31.5997   20.5809 H   0  0  0  0  0  0
  -26.8149  -30.8895   21.9723 H   0  0  0  0  0  0
  -28.0896  -29.1290   21.1506 H   0  0  0  0  0  0
  -26.0276  -25.9454   19.0694 H   0  0  0  0  0  0
  -23.9773  -27.2698   19.0578 H   0  0  0  0  0  0
  -23.7261  -30.5808   19.3983 H   0  0  0  0  0  0
  -22.7261  -29.2388   19.8523 H   0  0  0  0  0  0
  -25.1271  -36.1991   25.0825 H   0  0  0  0  0  0
  -20.9842  -28.3147   24.1355 H   0  0  0  0  0  0
  -20.5542  -26.2328   23.3452 H   0  0  0  0  0  0
  -21.6614  -26.7341   22.1145 H   0  0  0  0  0  0
  -19.6809  -25.6306   21.0997 H   0  0  0  0  0  0
  -19.6551  -27.3241   20.6522 H   0  0  0  0  0  0
  -17.4103  -26.6701   21.3826 H   0  0  0  0  0  0
  -18.0208  -25.9921   22.8703 H   0  0  0  0  0  0
  -19.7775  -30.7291   24.2312 H   0  0  0  0  0  0
  -17.4817  -31.6120   24.5273 H   0  0  0  0  0  0
  -15.5228  -30.2817   23.7659 H   0  0  0  0  0  0
  -15.8617  -28.0816   22.6759 H   0  0  0  0  0  0
  -24.5882  -30.7072   25.7710 H   0  0  0  0  0  0
  -24.8871  -32.2911   26.4828 H   0  0  0  0  0  0
  -25.8047  -30.8917   27.0175 H   0  0  0  0  0  0
  -26.2828  -29.6859   24.1099 H   0  0  0  0  0  0
  -27.3912  -29.7281   25.4614 H   0  0  0  0  0  0
  -27.8717  -30.4340   23.9330 H   0  0  0  0  0  0
  -27.2619  -33.3609   26.2126 H   0  0  0  0  0  0
  -28.3865  -32.6938   25.0380 H   0  0  0  0  0  0
  -28.0642  -31.8423   26.5421 H   0  0  0  0  0  0
  -28.2590  -38.0113   24.7508 H   0  0  0  0  0  0
  -28.1064  -36.2658   24.6297 H   0  0  0  0  0  0
  -27.2298  -37.1483   25.8862 H   0  0  0  0  0  0
  -20.9330  -29.8576   21.6720 H   0  0  0  0  0  0
  -26.0189  -38.2887   24.1421 H   0  0  0  0  0  0
  -28.7008  -18.2575   19.9019 H   0  0  0  0  0  0
  -27.7831  -15.5740   24.0725 H   0  0  0  0  0  0
  -26.2347  -16.3931   24.0228 H   0  0  0  0  0  0
  -27.0208  -16.0477   25.5595 H   0  0  0  0  0  0
  -26.0819  -18.8966   24.9126 H   0  0  0  0  0  0
  -27.5577  -19.6947   25.4592 H   0  0  0  0  0  0
  -26.9010  -18.3412   26.3489 H   0  0  0  0  0  0
  -30.7104  -17.9712   19.8967 H   0  0  0  0  0  0
  -31.2013  -16.6491   18.8736 H   0  0  0  0  0  0
  -31.9752  -16.9501   20.4139 H   0  0  0  0  0  0
  -30.5082  -16.9806   23.9302 H   0  0  0  0  0  0
  -31.6348  -16.8570   22.6226 H   0  0  0  0  0  0
  -30.9363  -15.4068   23.3475 H   0  0  0  0  0  0
  -25.7922  -19.7933   19.6751 H   0  0  0  0  0  0
  -27.2257  -19.9635   18.6701 H   0  0  0  0  0  0
  -26.1407  -21.3266   18.9010 H   0  0  0  0  0  0
  -25.6214  -21.1882   21.9099 H   0  0  0  0  0  0
  -26.0828  -22.6205   21.0252 H   0  0  0  0  0  0
  -27.0152  -22.1374   22.4316 H   0  0  0  0  0  0
  -29.4360  -23.1018   18.8440 H   0  0  0  0  0  0
  -27.7235  -22.9224   18.7199 H   0  0  0  0  0  0
  -29.0778  -24.3222   21.0931 H   0  0  0  0  0  0
  -27.3839  -24.3788   20.6952 H   0  0  0  0  0  0
  -29.2956  -21.8782   21.1342 H   0  0  0  0  0  0
  -29.2802  -21.0200   19.6334 H   0  0  0  0  0  0
  -28.0320  -25.5415   18.4672 H   0  0  0  0  0  0
  -29.6651  -25.5601   19.0488 H   0  0  0  0  0  0
  -28.8736  -17.6576   24.9754 H   0  0  0  0  0  0
  -29.1509  -15.8618   19.9579 H   0  0  0  0  0  0
  -28.8256  -15.6872   22.3250 H   0  0  0  0  0  0
  -27.2315  -20.1061   23.3318 H   0  0  0  0  0  0
  1 25  1  0  0  0
  1 30  2  0  0  0
  1 85  1  0  0  0
  2  3  1  0  0  0
  2 25  1  0  0  0
  2 90  1  0  0  0
  2 91  1  0  0  0
  3  4  1  0  0  0
  3 92  1  0  0  0
  3 93  1  0  0  0
  4  5  1  0  0  0
  4 94  1  0  0  0
  4 95  1  0  0  0
  5  6  1  0  0  0
  5 26  1  0  0  0
  5 96  1  0  0  0
  6 25  1  0  0  0
  6 97  1  0  0  0
  6 98  1  0  0  0
  7  8  2  0  0  0
  7 26  1  0  0  0
  7 29  1  0  0  0
  8  9  1  0  0  0
  8 22  1  0  0  0
  9 10  1  0  0  0
  9 27  2  0  0  0
 10 11  2  0  0  0
 10 15  1  0  0  0
 11 12  1  0  0  0
 11 99  1  0  0  0
 12 13  2  0  0  0
 12100  1  0  0  0
 13 14  1  0  0  0
 13 31  1  0  0  0
 14 15  2  0  0  0
 14101  1  0  0  0
 15102  1  0  0  0
 16 17  2  0  0  0
 16 21  1  0  0  0
 16 31  1  0  0  0
 17 18  1  0  0  0
 17103  1  0  0  0
 18 19  2  0  0  0
 18104  1  0  0  0
 19 20  1  0  0  0
 19 24  1  0  0  0
 20 21  2  0  0  0
 20105  1  0  0  0
 21 23  1  0  0  0
 22 28  1  0  0  0
 22 32  2  0  0  0
 26 27  1  0  0  0
 28106  1  0  0  0
 28107  1  0  0  0
 29108  1  0  0  0
 29109  1  0  0  0
 33 34  1  0  0  0
 33 66  1  0  0  0
 33 70  2  0  0  0
 34 36  1  0  0  0
 34 59  1  0  0  0
 34110  1  0  0  0
 35 44  2  0  0  0
 35 45  1  0  0  0
 35 68  1  0  0  0
 36 56  1  0  0  0
 36111  1  0  0  0
 37 39  1  0  0  0
 37 47  1  0  0  0
 37 66  1  0  0  0
 37112  1  0  0  0
 38 43  2  0  0  0
 38 46  1  0  0  0
 38 47  1  0  0  0
 39 64  1  0  0  0
 39 67  2  0  0  0
 40 52  1  0  0  0
 40 53  2  0  0  0
 40 58  1  0  0  0
 41113  1  0  0  0
 41114  1  0  0  0
 41115  1  0  0  0
 41 48  1  0  0  0
 42 43  1  0  0  0
 42 66  1  0  0  0
 42116  1  0  0  0
 42117  1  0  0  0
 43 44  1  0  0  0
 44118  1  0  0  0
 45 46  2  0  0  0
 45119  1  0  0  0
 46120  1  0  0  0
 47121  1  0  0  0
 47122  1  0  0  0
 48 56  1  0  0  0
 48 65  1  0  0  0
 48123  1  0  0  0
 49 50  1  0  0  0
 49 53  1  0  0  0
 49 64  1  0  0  0
 49124  1  0  0  0
 50 51  1  0  0  0
 50125  1  0  0  0
 50126  1  0  0  0
 51 52  1  0  0  0
 51127  1  0  0  0
 51128  1  0  0  0
 52129  1  0  0  0
 52130  1  0  0  0
 53 54  1  0  0  0
 54 55  2  0  0  0
 54131  1  0  0  0
 55 57  1  0  0  0
 55132  1  0  0  0
 56 69  2  0  0  0
 57 58  2  0  0  0
 57133  1  0  0  0
 58134  1  0  0  0
 59 60  1  0  0  0
 59 61  1  0  0  0
 59 62  1  0  0  0
 60135  1  0  0  0
 60136  1  0  0  0
 60137  1  0  0  0
 61138  1  0  0  0
 61139  1  0  0  0
 61140  1  0  0  0
 62141  1  0  0  0
 62142  1  0  0  0
 62143  1  0  0  0
 63 65  1  0  0  0
 63144  1  0  0  0
 63145  1  0  0  0
 63146  1  0  0  0
 64147  1  0  0  0
 65148  1  0  0  0
 68 83  1  0  0  0
 71 72  2  0  0  0
 71 88  1  0  0  0
 71149  1  0  0  0
 72 87  1  0  0  0
 72 89  1  0  0  0
 73 84  1  0  0  0
 73 88  1  0  0  0
 73 89  2  0  0  0
 74150  1  0  0  0
 74151  1  0  0  0
 74152  1  0  0  0
 74 84  1  0  0  0
 75 84  1  0  0  0
 75153  1  0  0  0
 75154  1  0  0  0
 75155  1  0  0  0
 76156  1  0  0  0
 76157  1  0  0  0
 76158  1  0  0  0
 76 85  1  0  0  0
 77159  1  0  0  0
 77160  1  0  0  0
 77161  1  0  0  0
 77 86  1  0  0  0
 78162  1  0  0  0
 78163  1  0  0  0
 78164  1  0  0  0
 78 87  1  0  0  0
 79 87  1  0  0  0
 79165  1  0  0  0
 79166  1  0  0  0
 79167  1  0  0  0
 80 81  1  0  0  0
 80 82  1  0  0  0
 80168  1  0  0  0
 80169  1  0  0  0
 81 83  1  0  0  0
 81170  1  0  0  0
 81171  1  0  0  0
 82 87  1  0  0  0
 82172  1  0  0  0
 82173  1  0  0  0
 83174  1  0  0  0
 83175  1  0  0  0
 84176  1  0  0  0
 85 86  1  0  0  0
 85177  1  0  0  0
 86 88  1  0  0  0
 86178  1  0  0  0
 89179  1  0  0  0
M  CHG  1  89   1
M  ISO  4   1 100  68 101  83 101  85 100
M  END
> <chiral flag>
0

> <version>
0

> <s_m_source_file>
/data/baiqing/PycharmProjects/Reinvent-master-3.2/result/LINK_invent/BTK/process_docking_weight1_custom_sum_contain_oxygen_bond_distance_aromatic_linkinvent_7_9_3/rearranged_h_0071.sdf

> <i_m_source_file_index>
42

> <r_mmod_Potential_Energy-OPLS-2005>
57.2829971313477

> <r_mmod_Stretch_Energy-OPLS-2005>
49.8297004699707

> <r_mmod_Bend_Energy-OPLS-2005>
139.823822021484

> <r_mmod_Torsional_Energy-OPLS-2005>
253.333633422852

> <r_mmod_Improper_Torsional_Energy-OPLS-2005>
8.625319480896

> <r_mmod_Van_der_Waal_Energy-OPLS-2005>
148.55793762207

> <r_mmod_Electrostatic_Energy-OPLS-2005>
-190.035934448242

> <r_mmod_Solvation_Energy-OPLS-2005>
-378.532165527344

> <b_mmod_Minimization_Converged-OPLS-2005>
0

> <r_mmod_RMS_Derivative-OPLS-2005>
6.41364812850952

$$$$
43
                    3D
 Structure written by MMmdl.
172180  0  0  1  0            999 V2000
  -30.2822  -15.8853   20.3025 C   0  0  0  0  0  0
  -30.3906  -13.2729   19.5166 C   0  0  0  0  0  0
  -29.5443  -12.7183   18.3334 C   0  0  0  0  0  0
  -28.1469  -12.3034   18.8037 C   0  0  0  0  0  0
  -27.5806  -13.3396   19.7952 C   0  0  2  0  0  0
  -28.5815  -13.8206   20.8791 C   0  0  0  0  0  0
  -25.2300  -13.8356   20.5848 C   0  0  0  0  0  0
  -24.1704  -13.0455   20.9305 C   0  0  0  0  0  0
  -24.6449  -11.6979   20.8750 C   0  0  0  0  0  0
  -23.9155  -10.4317   21.0390 C   0  0  0  0  0  0
  -24.3678   -9.4236   21.9186 C   0  0  0  0  0  0
  -23.6338   -8.2272   22.0758 C   0  0  0  0  0  0
  -22.4321   -8.0314   21.3545 C   0  0  0  0  0  0
  -21.9970   -9.0284   20.4635 C   0  0  0  0  0  0
  -22.7316  -10.2155   20.3046 C   0  0  0  0  0  0
  -21.6875   -6.0745   22.5279 C   0  0  0  0  0  0
  -21.4032   -6.5636   23.8212 C   0  0  0  0  0  0
  -21.3671   -5.6785   24.9172 C   0  0  0  0  0  0
  -21.6047   -4.3044   24.7214 C   0  0  0  0  0  0
  -21.8820   -3.8146   23.4338 C   0  0  0  0  0  0
  -21.9199   -4.6965   22.3396 C   0  0  0  0  0  0
  -22.7708  -13.5166   21.1927 C   0  0  0  0  0  0
  -22.1668   -4.2148   21.0971 F   0  0  0  0  0  0
  -21.5635   -3.4529   25.7731 F   0  0  0  0  0  0
  -29.7146  -14.5060   20.1862 N   0  0  0  0  0  0
  -26.2764  -12.9736   20.3269 N   0  0  0  0  0  0
  -25.9404  -11.6777   20.5671 N   0  0  0  0  0  0
  -22.0379  -12.8133   22.0477 N   0  0  0  0  0  0
  -25.3899  -15.2095   20.4302 N   0  0  0  0  0  0
  -31.4987  -15.5765   20.3497 O   0  0  0  0  0  0
  -21.6675   -6.8910   21.4254 O   0  0  0  0  0  0
  -22.3375  -14.5452   20.6760 O   0  0  0  0  0  0
  -24.7001  -31.7832   23.1383 C   0  0  0  0  0  0
  -25.9518  -32.4370   23.7983 C   0  0  1  0  0  0
  -27.2178  -26.5407   20.2417 C   0  0  0  0  0  0
  -25.6048  -33.8205   24.1866 N   0  0  0  0  0  0
  -23.5313  -30.3808   21.4970 C   0  0  2  0  0  0
  -24.9846  -28.6862   20.1290 C   0  0  0  0  0  0
  -22.7842  -29.4230   22.4671 C   0  0  0  0  0  0
  -18.0350  -28.1422   22.8457 C   0  0  0  0  0  0
  -24.1492  -36.7104   23.2658 C   0  0  0  0  0  0
  -26.1207  -30.4659   21.4241 C   0  0  0  0  0  0
  -26.1798  -29.0108   20.7809 C   0  0  0  0  0  0
  -27.2781  -27.9750   20.7920 C   0  0  0  0  0  0
  -25.9845  -26.4619   19.5369 C   0  0  0  0  0  0
  -24.9351  -27.4383   19.4816 C   0  0  0  0  0  0
  -23.7936  -29.6663   20.1392 C   0  0  0  0  0  0
  -25.4154  -36.2837   24.0273 C   0  0  1  0  0  0
  -20.5997  -28.3796   23.1111 C   0  0  2  0  0  0
  -20.6818  -26.9439   22.5410 C   0  0  0  0  0  0
  -19.5787  -26.6372   21.5227 C   0  0  0  0  0  0
  -18.1967  -26.7952   22.1617 C   0  0  0  0  0  0
  -19.1623  -28.8944   23.2764 C   0  0  0  0  0  0
  -18.9523  -30.1522   23.8808 C   0  0  0  0  0  0
  -17.6507  -30.6608   24.0544 C   0  0  0  0  0  0
  -25.9156  -34.9232   23.4911 C   0  0  0  0  0  0
  -16.5400  -29.9081   23.6351 C   0  0  0  0  0  0
  -16.7332  -28.6501   23.0375 C   0  0  0  0  0  0
  -26.4641  -31.6458   25.0671 C   0  0  0  0  0  0
  -25.3681  -31.3814   26.1277 C   0  0  0  0  0  0
  -27.0618  -30.2783   24.6680 C   0  0  0  0  0  0
  -27.6055  -32.4361   25.7501 C   0  0  0  0  0  0
  -27.5555  -37.1715   24.8469 C   0  0  0  0  0  0
  -21.4476  -29.3011   22.3411 N   0  0  0  0  0  0
  -26.4264  -37.3625   23.9409 N   0  0  0  0  0  0
  -24.8098  -30.9140   22.0707 N   0  0  0  0  0  0
  -23.4226  -28.7845   23.3081 O   0  0  0  0  0  0
  -28.1798  -25.2648   20.2264 O   0  0  0  0  0  0
  -26.5793  -34.8835   22.4526 O   0  0  0  0  0  0
  -23.5993  -32.0985   23.6249 O   0  0  0  0  0  0
  -32.1856  -20.3363   21.0597 C   0  0  0  0  0  0
  -32.6279  -20.1480   18.9436 C   0  0  0  0  0  0
  -32.9561  -21.4088   20.6647 C   0  0  0  0  0  0
  -32.8565  -22.5280   22.9057 C   0  0  0  0  0  0
  -33.0687  -23.9097   20.8468 C   0  0  0  0  0  0
  -35.0001  -22.4941   21.6357 C   0  0  0  0  0  0
  -29.3010  -17.7526   18.5367 C   0  0  0  0  0  0
  -27.5700  -21.2599   18.9725 C   0  0  0  0  0  0
  -29.9062  -21.9737   19.0520 C   0  0  0  0  0  0
  -29.1022  -19.6444   20.5447 C   0  0  0  0  0  0
  -31.4191  -18.1883   19.9229 C   0  0  0  0  0  0
  -28.1262  -23.4434   20.5146 C   0  0  0  0  0  0
  -33.4696  -22.5702   21.4934 C   0  0  0  0  0  0
  -29.8735  -17.8269   19.9637 C   0  0  1  0  0  0
  -28.7279  -21.5788   19.9334 C   0  0  0  0  0  0
  -33.2479  -21.2705   19.3035 N   0  0  0  0  0  0
  -31.9710  -19.5363   19.9396 N   0  0  0  0  0  0
  -31.3651  -13.5389   19.1079 H   0  0  0  0  0  0
  -30.6033  -12.4875   20.2429 H   0  0  0  0  0  0
  -30.0504  -11.8771   17.8587 H   0  0  0  0  0  0
  -29.4539  -13.4964   17.5736 H   0  0  0  0  0  0
  -28.2319  -11.3344   19.2966 H   0  0  0  0  0  0
  -27.4764  -12.1637   17.9557 H   0  0  0  0  0  0
  -27.3960  -14.2120   19.1663 H   0  0  0  0  0  0
  -28.9054  -13.0050   21.5275 H   0  0  0  0  0  0
  -28.0961  -14.5480   21.5318 H   0  0  0  0  0  0
  -25.2813   -9.5714   22.4770 H   0  0  0  0  0  0
  -24.0033   -7.4665   22.7480 H   0  0  0  0  0  0
  -21.0910   -8.8813   19.8922 H   0  0  0  0  0  0
  -22.3782  -10.9699   19.6148 H   0  0  0  0  0  0
  -21.2033   -7.6144   23.9714 H   0  0  0  0  0  0
  -21.1496   -6.0516   25.9071 H   0  0  0  0  0  0
  -22.0584   -2.7609   23.2842 H   0  0  0  0  0  0
  -22.4021  -11.9812   22.4866 H   0  0  0  0  0  0
  -21.0971  -13.1107   22.2637 H   0  0  0  0  0  0
  -24.6236  -15.8624   20.5561 H   0  0  0  0  0  0
  -26.2426  -15.6560   20.1151 H   0  0  0  0  0  0
  -26.7629  -32.4794   23.0712 H   0  0  0  0  0  0
  -25.0144  -33.9212   24.9990 H   0  0  0  0  0  0
  -22.8664  -31.2231   21.2952 H   0  0  0  0  0  0
  -23.3784  -35.9404   23.3253 H   0  0  0  0  0  0
  -24.3556  -36.8841   22.2087 H   0  0  0  0  0  0
  -23.7228  -37.6249   23.6787 H   0  0  0  0  0  0
  -26.3443  -31.1784   20.6275 H   0  0  0  0  0  0
  -26.9638  -30.5353   22.1001 H   0  0  0  0  0  0
  -28.1833  -28.2483   21.3157 H   0  0  0  0  0  0
  -25.7898  -25.5305   19.0246 H   0  0  0  0  0  0
  -24.0367  -27.1765   18.9391 H   0  0  0  0  0  0
  -23.9893  -30.4198   19.3755 H   0  0  0  0  0  0
  -22.8926  -29.1485   19.8043 H   0  0  0  0  0  0
  -25.1364  -36.1579   25.0767 H   0  0  0  0  0  0
  -21.0083  -28.3437   24.1234 H   0  0  0  0  0  0
  -20.5695  -26.2417   23.3689 H   0  0  0  0  0  0
  -21.6673  -26.7376   22.1212 H   0  0  0  0  0  0
  -19.6935  -25.6265   21.1301 H   0  0  0  0  0  0
  -19.6719  -27.3149   20.6730 H   0  0  0  0  0  0
  -17.4243  -26.6728   21.4001 H   0  0  0  0  0  0
  -18.0316  -26.0106   22.9018 H   0  0  0  0  0  0
  -19.7999  -30.7371   24.2131 H   0  0  0  0  0  0
  -17.5046  -31.6262   24.5183 H   0  0  0  0  0  0
  -15.5386  -30.2941   23.7720 H   0  0  0  0  0  0
  -15.8742  -28.0779   22.7134 H   0  0  0  0  0  0
  -24.5901  -30.7113   25.7591 H   0  0  0  0  0  0
  -24.8851  -32.3052   26.4469 H   0  0  0  0  0  0
  -25.7864  -30.9152   27.0210 H   0  0  0  0  0  0
  -26.3382  -29.6337   24.1689 H   0  0  0  0  0  0
  -27.4001  -29.7290   25.5473 H   0  0  0  0  0  0
  -27.9358  -30.3864   24.0260 H   0  0  0  0  0  0
  -27.2566  -33.3758   26.1782 H   0  0  0  0  0  0
  -28.4013  -32.6767   25.0440 H   0  0  0  0  0  0
  -28.0545  -31.8700   26.5667 H   0  0  0  0  0  0
  -28.2534  -38.0043   24.7520 H   0  0  0  0  0  0
  -28.1085  -36.2568   24.6292 H   0  0  0  0  0  0
  -27.2266  -37.1336   25.8868 H   0  0  0  0  0  0
  -20.9825  -29.8658   21.6439 H   0  0  0  0  0  0
  -26.0067  -38.2662   24.1438 H   0  0  0  0  0  0
  -31.8086  -20.0723   22.0375 H   0  0  0  0  0  0
  -32.7061  -19.7291   17.9492 H   0  0  0  0  0  0
  -31.7675  -22.5764   22.8670 H   0  0  0  0  0  0
  -33.2011  -23.3606   23.5181 H   0  0  0  0  0  0
  -33.1284  -21.6114   23.4291 H   0  0  0  0  0  0
  -31.9870  -23.9982   20.7467 H   0  0  0  0  0  0
  -33.5013  -24.0169   19.8517 H   0  0  0  0  0  0
  -33.4097  -24.7569   21.4425 H   0  0  0  0  0  0
  -35.3039  -21.5857   22.1575 H   0  0  0  0  0  0
  -35.3868  -23.3396   22.2055 H   0  0  0  0  0  0
  -35.4942  -22.5003   20.6636 H   0  0  0  0  0  0
  -29.5411  -18.6487   17.9644 H   0  0  0  0  0  0
  -28.2151  -17.6606   18.5639 H   0  0  0  0  0  0
  -29.6836  -16.8979   17.9766 H   0  0  0  0  0  0
  -27.8101  -20.4224   18.3178 H   0  0  0  0  0  0
  -27.3135  -22.1111   18.3390 H   0  0  0  0  0  0
  -26.6741  -20.9890   19.5320 H   0  0  0  0  0  0
  -30.2090  -21.1606   18.3953 H   0  0  0  0  0  0
  -30.7437  -22.2872   19.6632 H   0  0  0  0  0  0
  -29.6545  -22.8247   18.4186 H   0  0  0  0  0  0
  -29.5916  -19.8044   21.5037 H   0  0  0  0  0  0
  -28.1075  -19.3388   20.8673 H   0  0  0  0  0  0
  -31.9069  -17.6640   19.0985 H   0  0  0  0  0  0
  -31.8572  -17.8027   20.8442 H   0  0  0  0  0  0
  -28.4966  -23.4469   21.5394 H   0  0  0  0  0  0
  -27.0544  -23.3061   20.6573 H   0  0  0  0  0  0
  1 25  1  0  0  0
  1 30  2  0  0  0
  1 84  1  0  0  0
  2  3  1  0  0  0
  2 25  1  0  0  0
  2 88  1  0  0  0
  2 89  1  0  0  0
  3  4  1  0  0  0
  3 90  1  0  0  0
  3 91  1  0  0  0
  4  5  1  0  0  0
  4 92  1  0  0  0
  4 93  1  0  0  0
  5  6  1  0  0  0
  5 26  1  0  0  0
  5 94  1  0  0  0
  6 25  1  0  0  0
  6 95  1  0  0  0
  6 96  1  0  0  0
  7  8  2  0  0  0
  7 26  1  0  0  0
  7 29  1  0  0  0
  8  9  1  0  0  0
  8 22  1  0  0  0
  9 10  1  0  0  0
  9 27  2  0  0  0
 10 11  2  0  0  0
 10 15  1  0  0  0
 11 12  1  0  0  0
 11 97  1  0  0  0
 12 13  2  0  0  0
 12 98  1  0  0  0
 13 14  1  0  0  0
 13 31  1  0  0  0
 14 15  2  0  0  0
 14 99  1  0  0  0
 15100  1  0  0  0
 16 17  2  0  0  0
 16 21  1  0  0  0
 16 31  1  0  0  0
 17 18  1  0  0  0
 17101  1  0  0  0
 18 19  2  0  0  0
 18102  1  0  0  0
 19 20  1  0  0  0
 19 24  1  0  0  0
 20 21  2  0  0  0
 20103  1  0  0  0
 21 23  1  0  0  0
 22 28  1  0  0  0
 22 32  2  0  0  0
 26 27  1  0  0  0
 28104  1  0  0  0
 28105  1  0  0  0
 29106  1  0  0  0
 29107  1  0  0  0
 33 34  1  0  0  0
 33 66  1  0  0  0
 33 70  2  0  0  0
 34 36  1  0  0  0
 34 59  1  0  0  0
 34108  1  0  0  0
 35 44  2  0  0  0
 35 45  1  0  0  0
 35 68  1  0  0  0
 36 56  1  0  0  0
 36109  1  0  0  0
 37 39  1  0  0  0
 37 47  1  0  0  0
 37 66  1  0  0  0
 37110  1  0  0  0
 38 43  2  0  0  0
 38 46  1  0  0  0
 38 47  1  0  0  0
 39 64  1  0  0  0
 39 67  2  0  0  0
 40 52  1  0  0  0
 40 53  2  0  0  0
 40 58  1  0  0  0
 41111  1  0  0  0
 41112  1  0  0  0
 41113  1  0  0  0
 41 48  1  0  0  0
 42 43  1  0  0  0
 42 66  1  0  0  0
 42114  1  0  0  0
 42115  1  0  0  0
 43 44  1  0  0  0
 44116  1  0  0  0
 45 46  2  0  0  0
 45117  1  0  0  0
 46118  1  0  0  0
 47119  1  0  0  0
 47120  1  0  0  0
 48 56  1  0  0  0
 48 65  1  0  0  0
 48121  1  0  0  0
 49 50  1  0  0  0
 49 53  1  0  0  0
 49 64  1  0  0  0
 49122  1  0  0  0
 50 51  1  0  0  0
 50123  1  0  0  0
 50124  1  0  0  0
 51 52  1  0  0  0
 51125  1  0  0  0
 51126  1  0  0  0
 52127  1  0  0  0
 52128  1  0  0  0
 53 54  1  0  0  0
 54 55  2  0  0  0
 54129  1  0  0  0
 55 57  1  0  0  0
 55130  1  0  0  0
 56 69  2  0  0  0
 57 58  2  0  0  0
 57131  1  0  0  0
 58132  1  0  0  0
 59 60  1  0  0  0
 59 61  1  0  0  0
 59 62  1  0  0  0
 60133  1  0  0  0
 60134  1  0  0  0
 60135  1  0  0  0
 61136  1  0  0  0
 61137  1  0  0  0
 61138  1  0  0  0
 62139  1  0  0  0
 62140  1  0  0  0
 62141  1  0  0  0
 63 65  1  0  0  0
 63142  1  0  0  0
 63143  1  0  0  0
 63144  1  0  0  0
 64145  1  0  0  0
 65146  1  0  0  0
 68 82  1  0  0  0
 71 73  2  0  0  0
 71 87  1  0  0  0
 71147  1  0  0  0
 72 86  2  0  0  0
 72 87  1  0  0  0
 72148  1  0  0  0
 73 83  1  0  0  0
 73 86  1  0  0  0
 74149  1  0  0  0
 74150  1  0  0  0
 74151  1  0  0  0
 74 83  1  0  0  0
 75 83  1  0  0  0
 75152  1  0  0  0
 75153  1  0  0  0
 75154  1  0  0  0
 76 83  1  0  0  0
 76155  1  0  0  0
 76156  1  0  0  0
 76157  1  0  0  0
 77158  1  0  0  0
 77159  1  0  0  0
 77160  1  0  0  0
 77 84  1  0  0  0
 78161  1  0  0  0
 78162  1  0  0  0
 78163  1  0  0  0
 78 85  1  0  0  0
 79 85  1  0  0  0
 79164  1  0  0  0
 79165  1  0  0  0
 79166  1  0  0  0
 80 84  1  0  0  0
 80 85  1  0  0  0
 80167  1  0  0  0
 80168  1  0  0  0
 81 84  1  0  0  0
 81 87  1  0  0  0
 81169  1  0  0  0
 81170  1  0  0  0
 82 85  1  0  0  0
 82171  1  0  0  0
 82172  1  0  0  0
M  ISO  4   1 100  68 101  82 101  84 100
M  END
> <chiral flag>
0

> <version>
0

> <s_m_source_file>
/data/baiqing/PycharmProjects/Reinvent-master-3.2/result/LINK_invent/BTK/process_docking_weight1_custom_sum_contain_oxygen_bond_distance_aromatic_linkinvent_7_9_3/rearranged_h_0071.sdf

> <i_m_source_file_index>
43

> <r_mmod_Potential_Energy-OPLS-2005>
3884.21313476562

> <r_mmod_Stretch_Energy-OPLS-2005>
1799.98217773438

> <r_mmod_Bend_Energy-OPLS-2005>
973.376770019531

> <r_mmod_Torsional_Energy-OPLS-2005>
271.926483154297

> <r_mmod_Improper_Torsional_Energy-OPLS-2005>
18.2954158782959

> <r_mmod_Van_der_Waal_Energy-OPLS-2005>
128.975814819336

> <r_mmod_Electrostatic_Energy-OPLS-2005>
-378.798187255859

> <r_mmod_Solvation_Energy-OPLS-2005>
-192.861770629883

> <b_mmod_Minimization_Converged-OPLS-2005>
0

> <r_mmod_RMS_Derivative-OPLS-2005>
2.3287398815155

$$$$
44
                    3D
 Structure written by MMmdl.
149156  0  0  1  0            999 V2000
  -30.1486  -16.0172   20.3236 C   0  0  0  0  0  0
  -30.3951  -13.3911   19.5097 C   0  0  0  0  0  0
  -29.5601  -12.7433   18.3553 C   0  0  0  0  0  0
  -28.1752  -12.2959   18.8399 C   0  0  0  0  0  0
  -27.5847  -13.3390   19.8063 C   0  0  2  0  0  0
  -28.5801  -13.8389   20.8880 C   0  0  0  0  0  0
  -25.2300  -13.8335   20.5882 C   0  0  0  0  0  0
  -24.1708  -13.0432   20.9311 C   0  0  0  0  0  0
  -24.6440  -11.6958   20.8759 C   0  0  0  0  0  0
  -23.9148  -10.4294   21.0399 C   0  0  0  0  0  0
  -24.3659   -9.4212   21.9195 C   0  0  0  0  0  0
  -23.6303   -8.2261   22.0766 C   0  0  0  0  0  0
  -22.4282   -8.0307   21.3564 C   0  0  0  0  0  0
  -21.9943   -9.0284   20.4657 C   0  0  0  0  0  0
  -22.7307  -10.2144   20.3067 C   0  0  0  0  0  0
  -21.6842   -6.0750   22.5293 C   0  0  0  0  0  0
  -21.4008   -6.5647   23.8225 C   0  0  0  0  0  0
  -21.3655   -5.6799   24.9188 C   0  0  0  0  0  0
  -21.6029   -4.3060   24.7237 C   0  0  0  0  0  0
  -21.8813   -3.8161   23.4358 C   0  0  0  0  0  0
  -21.9201   -4.6978   22.3412 C   0  0  0  0  0  0
  -22.7715  -13.5132   21.1902 C   0  0  0  0  0  0
  -22.1662   -4.2161   21.0989 F   0  0  0  0  0  0
  -21.5618   -3.4543   25.7750 F   0  0  0  0  0  0
  -29.6684  -14.5923   20.1859 N   0  0  0  0  0  0
  -26.2774  -12.9708   20.3313 N   0  0  0  0  0  0
  -25.9403  -11.6741   20.5698 N   0  0  0  0  0  0
  -22.0362  -12.8123   22.0448 N   0  0  0  0  0  0
  -25.3837  -15.2079   20.4332 N   0  0  0  0  0  0
  -31.3969  -15.8811   20.3120 O   0  0  0  0  0  0
  -21.6641   -6.8907   21.4261 O   0  0  0  0  0  0
  -22.3396  -14.5437   20.6763 O   0  0  0  0  0  0
  -24.7075  -31.7714   23.1273 C   0  0  0  0  0  0
  -25.9534  -32.4304   23.7942 C   0  0  1  0  0  0
  -27.2338  -26.4308   20.2602 C   0  0  0  0  0  0
  -25.6006  -33.8134   24.1817 N   0  0  0  0  0  0
  -23.5462  -30.3587   21.4885 C   0  0  2  0  0  0
  -25.0067  -28.6428   20.1352 C   0  0  0  0  0  0
  -22.7898  -29.4142   22.4636 C   0  0  0  0  0  0
  -18.0364  -28.1433   22.8410 C   0  0  0  0  0  0
  -24.1498  -36.7081   23.2661 C   0  0  0  0  0  0
  -26.1381  -30.4192   21.4319 C   0  0  0  0  0  0
  -26.2014  -28.9482   20.7989 C   0  0  0  0  0  0
  -27.2878  -27.8811   20.8123 C   0  0  0  0  0  0
  -25.9996  -26.4007   19.5402 C   0  0  0  0  0  0
  -24.9604  -27.3971   19.4807 C   0  0  0  0  0  0
  -23.8179  -29.6321   20.1355 C   0  0  0  0  0  0
  -25.4140  -36.2774   24.0267 C   0  0  1  0  0  0
  -20.6010  -28.3821   23.1061 C   0  0  2  0  0  0
  -20.6835  -26.9453   22.5374 C   0  0  0  0  0  0
  -19.5822  -26.6373   21.5177 C   0  0  0  0  0  0
  -18.2002  -26.7960   22.1574 C   0  0  0  0  0  0
  -19.1632  -28.8953   23.2704 C   0  0  0  0  0  0
  -18.9539  -30.1525   23.8783 C   0  0  0  0  0  0
  -17.6532  -30.6602   24.0543 C   0  0  0  0  0  0
  -25.9133  -34.9187   23.4885 C   0  0  0  0  0  0
  -16.5419  -29.9081   23.6350 C   0  0  0  0  0  0
  -16.7343  -28.6520   23.0337 C   0  0  0  0  0  0
  -26.4623  -31.6413   25.0640 C   0  0  0  0  0  0
  -25.3614  -31.3787   26.1180 C   0  0  0  0  0  0
  -27.0594  -30.2739   24.6694 C   0  0  0  0  0  0
  -27.6054  -32.4315   25.7443 C   0  0  0  0  0  0
  -27.5546  -37.1660   24.8471 C   0  0  0  0  0  0
  -21.4522  -29.3030   22.3388 N   0  0  0  0  0  0
  -26.4247  -37.3554   23.9423 N   0  0  0  0  0  0
  -24.8243  -30.8905   22.0675 N   0  0  0  0  0  0
  -23.4212  -28.7773   23.3110 O   0  0  0  0  0  0
  -28.1896  -25.1104   20.2468 O   0  0  0  0  0  0
  -26.5809  -34.8835   22.4534 O   0  0  0  0  0  0
  -23.6032  -32.0876   23.6056 O   0  0  0  0  0  0
  -28.5430  -19.3343   22.0357 C   0  0  0  0  0  0
  -30.1534  -21.6500   19.3370 C   0  0  0  0  0  0
  -27.8181  -20.9332   18.8960 C   0  0  0  0  0  0
  -28.1838  -23.2309   20.5283 C   0  0  0  0  0  0
  -29.2846  -19.3496   20.6892 C   0  0  2  0  0  0
  -28.8199  -21.2853   20.0067 C   0  0  0  0  0  0
  -29.3933  -17.4821   20.2889 N   0  0  0  0  0  0
  -31.3315  -13.7391   19.0743 H   0  0  0  0  0  0
  -30.6986  -12.6425   20.2439 H   0  0  0  0  0  0
  -30.0953  -11.8997   17.9152 H   0  0  0  0  0  0
  -29.4419  -13.4758   17.5560 H   0  0  0  0  0  0
  -28.2942  -11.3485   19.3696 H   0  0  0  0  0  0
  -27.5103  -12.1012   17.9996 H   0  0  0  0  0  0
  -27.3938  -14.1971   19.1597 H   0  0  0  0  0  0
  -28.9533  -13.0265   21.5113 H   0  0  0  0  0  0
  -28.0783  -14.5330   21.5626 H   0  0  0  0  0  0
  -25.2791   -9.5680   22.4789 H   0  0  0  0  0  0
  -24.0013   -7.4652   22.7487 H   0  0  0  0  0  0
  -21.0876   -8.8802   19.8965 H   0  0  0  0  0  0
  -22.3767  -10.9682   19.6181 H   0  0  0  0  0  0
  -21.2008   -7.6160   23.9719 H   0  0  0  0  0  0
  -21.1455   -6.0538   25.9079 H   0  0  0  0  0  0
  -22.0603   -2.7624   23.2842 H   0  0  0  0  0  0
  -22.3962  -11.9810   22.4910 H   0  0  0  0  0  0
  -21.0984  -13.1174   22.2655 H   0  0  0  0  0  0
  -24.6137  -15.8574   20.5487 H   0  0  0  0  0  0
  -26.2282  -15.6551   20.1040 H   0  0  0  0  0  0
  -26.7655  -32.4748   23.0690 H   0  0  0  0  0  0
  -25.0039  -33.9124   24.9897 H   0  0  0  0  0  0
  -22.8815  -31.1990   21.2750 H   0  0  0  0  0  0
  -23.3768  -35.9396   23.3236 H   0  0  0  0  0  0
  -24.3553  -36.8856   22.2098 H   0  0  0  0  0  0
  -23.7293  -37.6230   23.6838 H   0  0  0  0  0  0
  -26.3570  -31.1201   20.6256 H   0  0  0  0  0  0
  -26.9832  -30.5085   22.1025 H   0  0  0  0  0  0
  -28.1903  -28.1366   21.3498 H   0  0  0  0  0  0
  -25.7867  -25.4828   19.0122 H   0  0  0  0  0  0
  -24.0708  -27.1484   18.9178 H   0  0  0  0  0  0
  -24.0235  -30.3825   19.3713 H   0  0  0  0  0  0
  -22.9169  -29.1164   19.8008 H   0  0  0  0  0  0
  -25.1362  -36.1454   25.0754 H   0  0  0  0  0  0
  -21.0072  -28.3475   24.1189 H   0  0  0  0  0  0
  -20.5685  -26.2458   23.3652 H   0  0  0  0  0  0
  -21.6694  -26.7337   22.1204 H   0  0  0  0  0  0
  -19.6974  -25.6245   21.1273 H   0  0  0  0  0  0
  -19.6783  -27.3120   20.6645 H   0  0  0  0  0  0
  -17.4266  -26.6653   21.3979 H   0  0  0  0  0  0
  -18.0397  -26.0121   22.8998 H   0  0  0  0  0  0
  -19.8034  -30.7342   24.2111 H   0  0  0  0  0  0
  -17.5098  -31.6265   24.5180 H   0  0  0  0  0  0
  -15.5425  -30.2965   23.7734 H   0  0  0  0  0  0
  -15.8746  -28.0821   22.7099 H   0  0  0  0  0  0
  -24.5855  -30.7073   25.7465 H   0  0  0  0  0  0
  -24.8706  -32.3029   26.4265 H   0  0  0  0  0  0
  -25.7690  -30.9165   27.0193 H   0  0  0  0  0  0
  -26.3356  -29.6273   24.1711 H   0  0  0  0  0  0
  -27.3992  -29.7235   25.5480 H   0  0  0  0  0  0
  -27.9360  -30.3795   24.0284 H   0  0  0  0  0  0
  -27.2615  -33.3763   26.1667 H   0  0  0  0  0  0
  -28.4033  -32.6628   25.0366 H   0  0  0  0  0  0
  -28.0559  -31.8679   26.5621 H   0  0  0  0  0  0
  -28.2475  -38.0031   24.7529 H   0  0  0  0  0  0
  -28.1139  -36.2555   24.6281 H   0  0  0  0  0  0
  -27.2262  -37.1242   25.8868 H   0  0  0  0  0  0
  -20.9894  -29.8694   21.6411 H   0  0  0  0  0  0
  -26.0033  -38.2565   24.1509 H   0  0  0  0  0  0
  -28.7637  -20.2276   22.6237 H   0  0  0  0  0  0
  -28.8188  -18.4691   22.6409 H   0  0  0  0  0  0
  -27.4610  -19.3017   21.8917 H   0  0  0  0  0  0
  -30.0254  -22.4354   18.5907 H   0  0  0  0  0  0
  -30.5948  -20.7919   18.8305 H   0  0  0  0  0  0
  -30.8668  -22.0128   20.0786 H   0  0  0  0  0  0
  -27.5801  -21.8026   18.2837 H   0  0  0  0  0  0
  -26.8833  -20.5653   19.3210 H   0  0  0  0  0  0
  -28.2041  -20.1626   18.2269 H   0  0  0  0  0  0
  -28.5199  -23.2545   21.5644 H   0  0  0  0  0  0
  -27.1127  -23.0646   20.6330 H   0  0  0  0  0  0
  -30.3317  -19.4884   20.9689 H   0  0  0  0  0  0
  -28.4468  -17.2294   20.0407 H   0  0  0  0  0  0
  1 25  1  0  0  0
  1 30  2  0  0  0
  1 77  1  0  0  0
  2  3  1  0  0  0
  2 25  1  0  0  0
  2 78  1  0  0  0
  2 79  1  0  0  0
  3  4  1  0  0  0
  3 80  1  0  0  0
  3 81  1  0  0  0
  4  5  1  0  0  0
  4 82  1  0  0  0
  4 83  1  0  0  0
  5  6  1  0  0  0
  5 26  1  0  0  0
  5 84  1  0  0  0
  6 25  1  0  0  0
  6 85  1  0  0  0
  6 86  1  0  0  0
  7  8  2  0  0  0
  7 26  1  0  0  0
  7 29  1  0  0  0
  8  9  1  0  0  0
  8 22  1  0  0  0
  9 10  1  0  0  0
  9 27  2  0  0  0
 10 11  2  0  0  0
 10 15  1  0  0  0
 11 12  1  0  0  0
 11 87  1  0  0  0
 12 13  2  0  0  0
 12 88  1  0  0  0
 13 14  1  0  0  0
 13 31  1  0  0  0
 14 15  2  0  0  0
 14 89  1  0  0  0
 15 90  1  0  0  0
 16 17  2  0  0  0
 16 21  1  0  0  0
 16 31  1  0  0  0
 17 18  1  0  0  0
 17 91  1  0  0  0
 18 19  2  0  0  0
 18 92  1  0  0  0
 19 20  1  0  0  0
 19 24  1  0  0  0
 20 21  2  0  0  0
 20 93  1  0  0  0
 21 23  1  0  0  0
 22 28  1  0  0  0
 22 32  2  0  0  0
 26 27  1  0  0  0
 28 94  1  0  0  0
 28 95  1  0  0  0
 29 96  1  0  0  0
 29 97  1  0  0  0
 33 34  1  0  0  0
 33 66  1  0  0  0
 33 70  2  0  0  0
 34 36  1  0  0  0
 34 59  1  0  0  0
 34 98  1  0  0  0
 35 44  2  0  0  0
 35 45  1  0  0  0
 35 68  1  0  0  0
 36 56  1  0  0  0
 36 99  1  0  0  0
 37 39  1  0  0  0
 37 47  1  0  0  0
 37 66  1  0  0  0
 37100  1  0  0  0
 38 43  2  0  0  0
 38 46  1  0  0  0
 38 47  1  0  0  0
 39 64  1  0  0  0
 39 67  2  0  0  0
 40 52  1  0  0  0
 40 53  2  0  0  0
 40 58  1  0  0  0
 41101  1  0  0  0
 41102  1  0  0  0
 41103  1  0  0  0
 41 48  1  0  0  0
 42 43  1  0  0  0
 42 66  1  0  0  0
 42104  1  0  0  0
 42105  1  0  0  0
 43 44  1  0  0  0
 44106  1  0  0  0
 45 46  2  0  0  0
 45107  1  0  0  0
 46108  1  0  0  0
 47109  1  0  0  0
 47110  1  0  0  0
 48 56  1  0  0  0
 48 65  1  0  0  0
 48111  1  0  0  0
 49 50  1  0  0  0
 49 53  1  0  0  0
 49 64  1  0  0  0
 49112  1  0  0  0
 50 51  1  0  0  0
 50113  1  0  0  0
 50114  1  0  0  0
 51 52  1  0  0  0
 51115  1  0  0  0
 51116  1  0  0  0
 52117  1  0  0  0
 52118  1  0  0  0
 53 54  1  0  0  0
 54 55  2  0  0  0
 54119  1  0  0  0
 55 57  1  0  0  0
 55120  1  0  0  0
 56 69  2  0  0  0
 57 58  2  0  0  0
 57121  1  0  0  0
 58122  1  0  0  0
 59 60  1  0  0  0
 59 61  1  0  0  0
 59 62  1  0  0  0
 60123  1  0  0  0
 60124  1  0  0  0
 60125  1  0  0  0
 61126  1  0  0  0
 61127  1  0  0  0
 61128  1  0  0  0
 62129  1  0  0  0
 62130  1  0  0  0
 62131  1  0  0  0
 63 65  1  0  0  0
 63132  1  0  0  0
 63133  1  0  0  0
 63134  1  0  0  0
 64135  1  0  0  0
 65136  1  0  0  0
 68 74  1  0  0  0
 71137  1  0  0  0
 71138  1  0  0  0
 71139  1  0  0  0
 71 75  1  0  0  0
 72140  1  0  0  0
 72141  1  0  0  0
 72142  1  0  0  0
 72 76  1  0  0  0
 73 76  1  0  0  0
 73143  1  0  0  0
 73144  1  0  0  0
 73145  1  0  0  0
 74 76  1  0  0  0
 74146  1  0  0  0
 74147  1  0  0  0
 75 76  1  0  0  0
 75 77  1  0  0  0
 75148  1  0  0  0
 77149  1  0  0  0
M  ISO  4   1 100  68 101  74 101  77 100
M  END
> <chiral flag>
0

> <version>
0

> <s_m_source_file>
/data/baiqing/PycharmProjects/Reinvent-master-3.2/result/LINK_invent/BTK/process_docking_weight1_custom_sum_contain_oxygen_bond_distance_aromatic_linkinvent_7_9_3/rearranged_h_0071.sdf

> <i_m_source_file_index>
44

> <r_mmod_Potential_Energy-OPLS-2005>
4211.828125

> <r_mmod_Stretch_Energy-OPLS-2005>
1932.92358398438

> <r_mmod_Bend_Energy-OPLS-2005>
906.741088867188

> <r_mmod_Torsional_Energy-OPLS-2005>
272.8505859375

> <r_mmod_Improper_Torsional_Energy-OPLS-2005>
5.45543813705444

> <r_mmod_Van_der_Waal_Energy-OPLS-2005>
108.693168640137

> <r_mmod_Electrostatic_Energy-OPLS-2005>
-369.760223388672

> <r_mmod_Solvation_Energy-OPLS-2005>
-210.292358398438

> <b_mmod_Minimization_Converged-OPLS-2005>
0

> <r_mmod_RMS_Derivative-OPLS-2005>
4.46069002151489

$$$$
45
                    3D
 Structure written by MMmdl.
159167  0  0  1  0            999 V2000
  -30.6689  -14.5118   20.5371 C   0  0  0  0  0  0
  -30.4265  -12.3170   19.4389 C   0  0  0  0  0  0
  -29.5004  -12.5050   18.2180 C   0  0  0  0  0  0
  -28.0204  -12.3618   18.6255 C   0  0  0  0  0  0
  -27.6606  -13.2077   19.8760 C   0  0  2  0  0  0
  -28.7016  -13.0056   21.0026 C   0  0  0  0  0  0
  -25.2591  -13.8156   20.5675 C   0  0  0  0  0  0
  -24.1848  -13.0439   20.9188 C   0  0  0  0  0  0
  -24.6398  -11.6903   20.8740 C   0  0  0  0  0  0
  -23.9064  -10.4293   21.0410 C   0  0  0  0  0  0
  -24.3617   -9.4207   21.9187 C   0  0  0  0  0  0
  -23.6294   -8.2243   22.0755 C   0  0  0  0  0  0
  -22.4274   -8.0282   21.3547 C   0  0  0  0  0  0
  -21.9910   -9.0256   20.4651 C   0  0  0  0  0  0
  -22.7237  -10.2136   20.3061 C   0  0  0  0  0  0
  -21.6849   -6.0740   22.5281 C   0  0  0  0  0  0
  -21.4012   -6.5645   23.8215 C   0  0  0  0  0  0
  -21.3660   -5.6797   24.9178 C   0  0  0  0  0  0
  -21.6041   -4.3059   24.7228 C   0  0  0  0  0  0
  -21.8817   -3.8152   23.4348 C   0  0  0  0  0  0
  -21.9193   -4.6968   22.3404 C   0  0  0  0  0  0
  -22.7876  -13.5242   21.1852 C   0  0  0  0  0  0
  -22.1661   -4.2155   21.0981 F   0  0  0  0  0  0
  -21.5628   -3.4543   25.7741 F   0  0  0  0  0  0
  -30.0319  -13.3112   20.4503 N   0  0  0  0  0  0
  -26.3024  -12.9327   20.3367 N   0  0  0  0  0  0
  -25.9327  -11.6488   20.5778 N   0  0  0  0  0  0
  -22.0522  -12.8232   22.0407 N   0  0  0  0  0  0
  -25.4316  -15.1866   20.4028 N   0  0  0  0  0  0
  -31.8101  -14.6959   20.1047 O   0  0  0  0  0  0
  -21.6637   -6.8881   21.4242 O   0  0  0  0  0  0
  -22.3564  -14.5555   20.6710 O   0  0  0  0  0  0
  -24.6167  -31.8661   23.2073 C   0  0  0  0  0  0
  -25.9053  -32.4811   23.8380 C   0  0  1  0  0  0
  -27.2365  -27.4179   20.1066 C   0  0  0  0  0  0
  -25.5898  -33.8608   24.2317 N   0  0  0  0  0  0
  -23.4061  -30.4884   21.5471 C   0  0  2  0  0  0
  -24.8558  -28.9482   20.1155 C   0  0  0  0  0  0
  -22.7418  -29.4661   22.4974 C   0  0  0  0  0  0
  -18.0276  -28.1377   22.8477 C   0  0  0  0  0  0
  -24.1486  -36.7318   23.2639 C   0  0  0  0  0  0
  -25.9355  -30.8278   21.3611 C   0  0  0  0  0  0
  -26.0159  -29.4588   20.7124 C   0  0  0  0  0  0
  -27.2129  -28.7021   20.7027 C   0  0  0  0  0  0
  -26.0625  -26.9231   19.5049 C   0  0  0  0  0  0
  -24.8746  -27.6800   19.5077 C   0  0  0  0  0  0
  -23.6169  -29.8161   20.1636 C   0  0  0  0  0  0
  -25.4104  -36.3107   24.0337 C   0  0  1  0  0  0
  -20.5863  -28.3685   23.1311 C   0  0  2  0  0  0
  -20.6778  -26.9418   22.5421 C   0  0  0  0  0  0
  -19.5762  -26.6379   21.5219 C   0  0  0  0  0  0
  -18.1936  -26.7918   22.1616 C   0  0  0  0  0  0
  -19.1519  -28.8844   23.2889 C   0  0  0  0  0  0
  -18.9439  -30.1444   23.8907 C   0  0  0  0  0  0
  -17.6441  -30.6584   24.0558 C   0  0  0  0  0  0
  -25.9031  -34.9470   23.5127 C   0  0  0  0  0  0
  -16.5335  -29.9083   23.6312 C   0  0  0  0  0  0
  -16.7264  -28.6498   23.0337 C   0  0  0  0  0  0
  -26.4472  -31.6583   25.0706 C   0  0  0  0  0  0
  -25.3738  -31.3681   26.1455 C   0  0  0  0  0  0
  -27.0300  -30.3026   24.6070 C   0  0  0  0  0  0
  -27.6047  -32.4297   25.7480 C   0  0  0  0  0  0
  -27.5576  -37.1813   24.8463 C   0  0  0  0  0  0
  -21.4140  -29.3050   22.3710 N   0  0  0  0  0  0
  -26.4292  -37.3789   23.9405 N   0  0  0  0  0  0
  -24.6710  -31.0753   22.0975 N   0  0  0  0  0  0
  -23.4179  -28.8210   23.3034 O   0  0  0  0  0  0
  -28.3780  -26.6421   20.0943 O   0  0  0  0  0  0
  -26.5601  -34.8929   22.4691 O   0  0  0  0  0  0
  -23.5355  -32.1413   23.7461 O   0  0  0  0  0  0
  -29.5032  -20.5411   21.6753 C   0  0  0  0  0  0
  -28.0703  -19.6838   20.3037 C   0  0  0  0  0  0
  -28.7517  -21.5645   21.1191 C   0  0  0  0  0  0
  -28.1751  -17.3303   22.3389 C   0  0  0  0  0  0
  -29.5938  -17.2094   19.1182 C   0  0  0  0  0  0
  -28.6690  -23.0267   21.5412 C   0  0  0  0  0  0
  -28.6060  -24.1221   20.4325 C   0  0  0  0  0  0
  -28.3781  -25.5448   21.0326 C   0  0  0  0  0  0
  -29.3934  -17.9537   21.6280 C   0  0  1  0  0  0
  -30.0564  -16.9838   20.5714 C   0  0  1  0  0  0
  -27.8424  -20.9964   20.2289 N   0  0  0  0  0  0
  -29.0299  -19.3207   21.1736 N   0  0  0  0  0  0
  -29.8825  -15.5468   20.9071 N   0  0  0  0  0  0
  -31.4719  -12.4157   19.1419 H   0  0  0  0  0  0
  -30.3271  -11.3087   19.8445 H   0  0  0  0  0  0
  -29.7462  -11.7789   17.4423 H   0  0  0  0  0  0
  -29.6656  -13.4899   17.7780 H   0  0  0  0  0  0
  -27.8318  -11.3065   18.8261 H   0  0  0  0  0  0
  -27.3723  -12.6304   17.7905 H   0  0  0  0  0  0
  -27.6980  -14.2523   19.5662 H   0  0  0  0  0  0
  -28.6808  -11.9757   21.3610 H   0  0  0  0  0  0
  -28.4648  -13.6216   21.8718 H   0  0  0  0  0  0
  -25.2760   -9.5685   22.4765 H   0  0  0  0  0  0
  -24.0007   -7.4632   22.7468 H   0  0  0  0  0  0
  -21.0843   -8.8770   19.8958 H   0  0  0  0  0  0
  -22.3689  -10.9677   19.6175 H   0  0  0  0  0  0
  -21.2001   -7.6153   23.9720 H   0  0  0  0  0  0
  -21.1486   -6.0529   25.9081 H   0  0  0  0  0  0
  -22.0596   -2.7616   23.2844 H   0  0  0  0  0  0
  -22.4135  -11.9875   22.4761 H   0  0  0  0  0  0
  -21.1149  -13.1268   22.2641 H   0  0  0  0  0  0
  -24.6601  -15.8382   20.4941 H   0  0  0  0  0  0
  -26.2724  -15.6147   20.0397 H   0  0  0  0  0  0
  -26.7126  -32.5526   23.1150 H   0  0  0  0  0  0
  -25.0048  -33.9763   25.0463 H   0  0  0  0  0  0
  -22.6957  -31.3053   21.4045 H   0  0  0  0  0  0
  -23.3738  -35.9664   23.3314 H   0  0  0  0  0  0
  -24.3581  -36.8918   22.2051 H   0  0  0  0  0  0
  -23.7254  -37.6532   23.6646 H   0  0  0  0  0  0
  -26.0431  -31.5896   20.5880 H   0  0  0  0  0  0
  -26.8253  -30.8878   21.9759 H   0  0  0  0  0  0
  -28.1094  -29.0930   21.1631 H   0  0  0  0  0  0
  -26.0692  -25.9484   19.0374 H   0  0  0  0  0  0
  -23.9836  -27.2797   19.0437 H   0  0  0  0  0  0
  -23.7237  -30.5885   19.4010 H   0  0  0  0  0  0
  -22.7413  -29.2345   19.8700 H   0  0  0  0  0  0
  -25.1281  -36.1973   25.0830 H   0  0  0  0  0  0
  -20.9943  -28.3269   24.1438 H   0  0  0  0  0  0
  -20.5696  -26.2297   23.3619 H   0  0  0  0  0  0
  -21.6645  -26.7469   22.1212 H   0  0  0  0  0  0
  -19.6941  -25.6286   21.1266 H   0  0  0  0  0  0
  -19.6708  -27.3178   20.6744 H   0  0  0  0  0  0
  -17.4218  -26.6642   21.4009 H   0  0  0  0  0  0
  -18.0336  -26.0063   22.9007 H   0  0  0  0  0  0
  -19.7914  -30.7253   24.2286 H   0  0  0  0  0  0
  -17.4992  -31.6270   24.5148 H   0  0  0  0  0  0
  -15.5334  -30.2983   23.7621 H   0  0  0  0  0  0
  -15.8663  -28.0819   22.7041 H   0  0  0  0  0  0
  -24.5922  -30.7011   25.7798 H   0  0  0  0  0  0
  -24.8919  -32.2834   26.4904 H   0  0  0  0  0  0
  -25.8100  -30.8860   27.0211 H   0  0  0  0  0  0
  -26.2840  -29.6797   24.1117 H   0  0  0  0  0  0
  -27.4070  -29.7248   25.4517 H   0  0  0  0  0  0
  -27.8676  -30.4349   23.9215 H   0  0  0  0  0  0
  -27.2660  -33.3583   26.2085 H   0  0  0  0  0  0
  -28.3851  -32.6868   25.0306 H   0  0  0  0  0  0
  -28.0722  -31.8397   26.5374 H   0  0  0  0  0  0
  -28.2603  -38.0100   24.7495 H   0  0  0  0  0  0
  -28.1059  -36.2630   24.6304 H   0  0  0  0  0  0
  -27.2294  -37.1485   25.8866 H   0  0  0  0  0  0
  -20.9305  -29.8753   21.6914 H   0  0  0  0  0  0
  -26.0181  -38.2870   24.1394 H   0  0  0  0  0  0
  -30.2580  -20.5763   22.4503 H   0  0  0  0  0  0
  -27.4721  -18.9659   19.7609 H   0  0  0  0  0  0
  -28.4481  -16.4440   22.9122 H   0  0  0  0  0  0
  -27.3952  -17.0521   21.6299 H   0  0  0  0  0  0
  -27.7379  -18.0323   23.0495 H   0  0  0  0  0  0
  -29.8192  -18.2201   18.7776 H   0  0  0  0  0  0
  -28.5230  -17.0377   19.0057 H   0  0  0  0  0  0
  -30.1055  -16.5354   18.4305 H   0  0  0  0  0  0
  -29.5187  -23.2541   22.1863 H   0  0  0  0  0  0
  -27.7941  -23.1449   22.1813 H   0  0  0  0  0  0
  -27.7934  -23.8935   19.7425 H   0  0  0  0  0  0
  -29.5256  -24.1050   19.8474 H   0  0  0  0  0  0
  -29.1746  -25.7512   21.7485 H   0  0  0  0  0  0
  -27.4579  -25.5355   21.6209 H   0  0  0  0  0  0
  -30.1390  -18.0929   22.4130 H   0  0  0  0  0  0
  -31.1267  -17.1998   20.5868 H   0  0  0  0  0  0
  -28.9793  -15.2878   21.2732 H   0  0  0  0  0  0
  1 25  1  0  0  0
  1 30  2  0  0  0
  1 83  1  0  0  0
  2  3  1  0  0  0
  2 25  1  0  0  0
  2 84  1  0  0  0
  2 85  1  0  0  0
  3  4  1  0  0  0
  3 86  1  0  0  0
  3 87  1  0  0  0
  4  5  1  0  0  0
  4 88  1  0  0  0
  4 89  1  0  0  0
  5  6  1  0  0  0
  5 26  1  0  0  0
  5 90  1  0  0  0
  6 25  1  0  0  0
  6 91  1  0  0  0
  6 92  1  0  0  0
  7  8  2  0  0  0
  7 26  1  0  0  0
  7 29  1  0  0  0
  8  9  1  0  0  0
  8 22  1  0  0  0
  9 10  1  0  0  0
  9 27  2  0  0  0
 10 11  2  0  0  0
 10 15  1  0  0  0
 11 12  1  0  0  0
 11 93  1  0  0  0
 12 13  2  0  0  0
 12 94  1  0  0  0
 13 14  1  0  0  0
 13 31  1  0  0  0
 14 15  2  0  0  0
 14 95  1  0  0  0
 15 96  1  0  0  0
 16 17  2  0  0  0
 16 21  1  0  0  0
 16 31  1  0  0  0
 17 18  1  0  0  0
 17 97  1  0  0  0
 18 19  2  0  0  0
 18 98  1  0  0  0
 19 20  1  0  0  0
 19 24  1  0  0  0
 20 21  2  0  0  0
 20 99  1  0  0  0
 21 23  1  0  0  0
 22 28  1  0  0  0
 22 32  2  0  0  0
 26 27  1  0  0  0
 28100  1  0  0  0
 28101  1  0  0  0
 29102  1  0  0  0
 29103  1  0  0  0
 33 34  1  0  0  0
 33 66  1  0  0  0
 33 70  2  0  0  0
 34 36  1  0  0  0
 34 59  1  0  0  0
 34104  1  0  0  0
 35 44  2  0  0  0
 35 45  1  0  0  0
 35 68  1  0  0  0
 36 56  1  0  0  0
 36105  1  0  0  0
 37 39  1  0  0  0
 37 47  1  0  0  0
 37 66  1  0  0  0
 37106  1  0  0  0
 38 43  2  0  0  0
 38 46  1  0  0  0
 38 47  1  0  0  0
 39 64  1  0  0  0
 39 67  2  0  0  0
 40 52  1  0  0  0
 40 53  2  0  0  0
 40 58  1  0  0  0
 41107  1  0  0  0
 41108  1  0  0  0
 41109  1  0  0  0
 41 48  1  0  0  0
 42 43  1  0  0  0
 42 66  1  0  0  0
 42110  1  0  0  0
 42111  1  0  0  0
 43 44  1  0  0  0
 44112  1  0  0  0
 45 46  2  0  0  0
 45113  1  0  0  0
 46114  1  0  0  0
 47115  1  0  0  0
 47116  1  0  0  0
 48 56  1  0  0  0
 48 65  1  0  0  0
 48117  1  0  0  0
 49 50  1  0  0  0
 49 53  1  0  0  0
 49 64  1  0  0  0
 49118  1  0  0  0
 50 51  1  0  0  0
 50119  1  0  0  0
 50120  1  0  0  0
 51 52  1  0  0  0
 51121  1  0  0  0
 51122  1  0  0  0
 52123  1  0  0  0
 52124  1  0  0  0
 53 54  1  0  0  0
 54 55  2  0  0  0
 54125  1  0  0  0
 55 57  1  0  0  0
 55126  1  0  0  0
 56 69  2  0  0  0
 57 58  2  0  0  0
 57127  1  0  0  0
 58128  1  0  0  0
 59 60  1  0  0  0
 59 61  1  0  0  0
 59 62  1  0  0  0
 60129  1  0  0  0
 60130  1  0  0  0
 60131  1  0  0  0
 61132  1  0  0  0
 61133  1  0  0  0
 61134  1  0  0  0
 62135  1  0  0  0
 62136  1  0  0  0
 62137  1  0  0  0
 63 65  1  0  0  0
 63138  1  0  0  0
 63139  1  0  0  0
 63140  1  0  0  0
 64141  1  0  0  0
 65142  1  0  0  0
 68 78  1  0  0  0
 71 73  2  0  0  0
 71 82  1  0  0  0
 71143  1  0  0  0
 72 81  2  0  0  0
 72 82  1  0  0  0
 72144  1  0  0  0
 73 76  1  0  0  0
 73 81  1  0  0  0
 74145  1  0  0  0
 74146  1  0  0  0
 74147  1  0  0  0
 74 79  1  0  0  0
 75148  1  0  0  0
 75149  1  0  0  0
 75150  1  0  0  0
 75 80  1  0  0  0
 76 77  1  0  0  0
 76151  1  0  0  0
 76152  1  0  0  0
 77 78  1  0  0  0
 77153  1  0  0  0
 77154  1  0  0  0
 78155  1  0  0  0
 78156  1  0  0  0
 79 80  1  0  0  0
 79 82  1  0  0  0
 79157  1  0  0  0
 80 83  1  0  0  0
 80158  1  0  0  0
 83159  1  0  0  0
M  ISO  4   1 100  68 101  78 101  83 100
M  END
> <chiral flag>
0

> <version>
0

> <s_m_source_file>
/data/baiqing/PycharmProjects/Reinvent-master-3.2/result/LINK_invent/BTK/process_docking_weight1_custom_sum_contain_oxygen_bond_distance_aromatic_linkinvent_7_9_3/rearranged_h_0071.sdf

> <i_m_source_file_index>
45

> <r_mmod_Potential_Energy-OPLS-2005>
-74.1171188354492

> <r_mmod_Stretch_Energy-OPLS-2005>
44.697452545166

> <r_mmod_Bend_Energy-OPLS-2005>
111.450973510742

> <r_mmod_Torsional_Energy-OPLS-2005>
258.563995361328

> <r_mmod_Improper_Torsional_Energy-OPLS-2005>
8.24882984161377

> <r_mmod_Van_der_Waal_Energy-OPLS-2005>
120.945976257324

> <r_mmod_Electrostatic_Energy-OPLS-2005>
-411.654357910156

> <r_mmod_Solvation_Energy-OPLS-2005>
-223.140350341797

> <b_mmod_Minimization_Converged-OPLS-2005>
0

> <r_mmod_RMS_Derivative-OPLS-2005>
0.8851677775383

$$$$
46
                    3D
 Structure written by MMmdl.
156164  0  0  1  0            999 V2000
  -30.5880  -14.7737   20.4346 C   0  0  0  0  0  0
  -30.4359  -12.4583   19.4845 C   0  0  0  0  0  0
  -29.5209  -12.5316   18.2401 C   0  0  0  0  0  0
  -28.0386  -12.3699   18.6297 C   0  0  0  0  0  0
  -27.6454  -13.2411   19.8489 C   0  0  2  0  0  0
  -28.6897  -13.1559   20.9844 C   0  0  0  0  0  0
  -25.2514  -13.8241   20.5620 C   0  0  0  0  0  0
  -24.1821  -13.0468   20.9142 C   0  0  0  0  0  0
  -24.6447  -11.6956   20.8723 C   0  0  0  0  0  0
  -23.9114  -10.4332   21.0381 C   0  0  0  0  0  0
  -24.3668   -9.4251   21.9143 C   0  0  0  0  0  0
  -23.6365   -8.2277   22.0718 C   0  0  0  0  0  0
  -22.4342   -8.0318   21.3519 C   0  0  0  0  0  0
  -21.9982   -9.0282   20.4598 C   0  0  0  0  0  0
  -22.7311  -10.2165   20.3005 C   0  0  0  0  0  0
  -21.6876   -6.0773   22.5266 C   0  0  0  0  0  0
  -21.4027   -6.5652   23.8209 C   0  0  0  0  0  0
  -21.3685   -5.6775   24.9152 C   0  0  0  0  0  0
  -21.6061   -4.3040   24.7191 C   0  0  0  0  0  0
  -21.8819   -3.8171   23.4297 C   0  0  0  0  0  0
  -21.9204   -4.6999   22.3371 C   0  0  0  0  0  0
  -22.7826  -13.5216   21.1822 C   0  0  0  0  0  0
  -22.1651   -4.2187   21.0950 F   0  0  0  0  0  0
  -21.5645   -3.4513   25.7695 F   0  0  0  0  0  0
  -29.9964  -13.5218   20.4194 N   0  0  0  0  0  0
  -26.2956  -12.9436   20.3201 N   0  0  0  0  0  0
  -25.9370  -11.6568   20.5694 N   0  0  0  0  0  0
  -22.0506  -12.8191   22.0398 N   0  0  0  0  0  0
  -25.4284  -15.1975   20.4062 N   0  0  0  0  0  0
  -31.7492  -14.9092   20.0497 O   0  0  0  0  0  0
  -21.6682   -6.8936   21.4231 O   0  0  0  0  0  0
  -22.3462  -14.5499   20.6701 O   0  0  0  0  0  0
  -24.6352  -31.8611   23.1950 C   0  0  0  0  0  0
  -25.9172  -32.4782   23.8314 C   0  0  1  0  0  0
  -27.2179  -27.2648   20.1237 C   0  0  0  0  0  0
  -25.5991  -33.8579   24.2274 N   0  0  0  0  0  0
  -23.4292  -30.4812   21.5462 C   0  0  2  0  0  0
  -24.8731  -28.9277   20.1135 C   0  0  0  0  0  0
  -22.7528  -29.4642   22.4979 C   0  0  0  0  0  0
  -18.0322  -28.1397   22.8478 C   0  0  0  0  0  0
  -24.1523  -36.7247   23.2640 C   0  0  0  0  0  0
  -25.9776  -30.7699   21.3789 C   0  0  0  0  0  0
  -26.0482  -29.3959   20.7151 C   0  0  0  0  0  0
  -27.2254  -28.5801   20.7015 C   0  0  0  0  0  0
  -26.0151  -26.8651   19.4970 C   0  0  0  0  0  0
  -24.8618  -27.6715   19.4929 C   0  0  0  0  0  0
  -23.6423  -29.8101   20.1661 C   0  0  0  0  0  0
  -25.4152  -36.3083   24.0344 C   0  0  1  0  0  0
  -20.5927  -28.3719   23.1290 C   0  0  2  0  0  0
  -20.6843  -26.9450   22.5418 C   0  0  0  0  0  0
  -19.5808  -26.6395   21.5242 C   0  0  0  0  0  0
  -18.1969  -26.7941   22.1616 C   0  0  0  0  0  0
  -19.1568  -28.8877   23.2855 C   0  0  0  0  0  0
  -18.9477  -30.1487   23.8855 C   0  0  0  0  0  0
  -17.6471  -30.6594   24.0560 C   0  0  0  0  0  0
  -25.9098  -34.9459   23.5107 C   0  0  0  0  0  0
  -16.5366  -29.9076   23.6352 C   0  0  0  0  0  0
  -16.7301  -28.6507   23.0341 C   0  0  0  0  0  0
  -26.4518  -31.6584   25.0689 C   0  0  0  0  0  0
  -25.3658  -31.3731   26.1336 C   0  0  0  0  0  0
  -27.0453  -30.3038   24.6192 C   0  0  0  0  0  0
  -27.6130  -32.4270   25.7417 C   0  0  0  0  0  0
  -27.5607  -37.1787   24.8470 C   0  0  0  0  0  0
  -21.4254  -29.3038   22.3666 N   0  0  0  0  0  0
  -26.4329  -37.3778   23.9406 N   0  0  0  0  0  0
  -24.6991  -31.0552   22.0958 N   0  0  0  0  0  0
  -23.4222  -28.8224   23.3117 O   0  0  0  0  0  0
  -28.3221  -26.3792   20.1626 O   0  0  0  0  0  0
  -26.5647  -34.8939   22.4664 O   0  0  0  0  0  0
  -23.5485  -32.1468   23.7230 O   0  0  0  0  0  0
  -30.0484  -21.2912   20.0588 C   0  0  0  0  0  0
  -28.3293  -21.7122   21.2720 C   0  0  0  0  0  0
  -29.6719  -20.0627   20.6439 C   0  0  0  0  0  0
  -30.7569  -18.3621   22.2038 C   0  0  0  0  0  0
  -31.7287  -18.7566   19.9590 C   0  0  0  0  0  0
  -29.3412  -23.8663   20.2105 C   0  0  0  0  0  0
  -29.6390  -17.3064   20.1364 C   0  0  0  0  0  0
  -28.0900  -24.8887   20.2008 C   0  0  0  0  0  0
  -30.3927  -18.6258   20.7278 C   0  0  0  0  0  0
  -28.5289  -20.3845   21.3958 N   0  0  0  0  0  0
  -29.1945  -22.3624   20.4728 N   0  0  0  0  0  0
  -29.7653  -15.8642   20.6825 N   0  0  0  0  0  0
  -31.4781  -12.5779   19.1901 H   0  0  0  0  0  0
  -30.3654  -11.4757   19.9587 H   0  0  0  0  0  0
  -29.8094  -11.7713   17.5159 H   0  0  0  0  0  0
  -29.6599  -13.4977   17.7484 H   0  0  0  0  0  0
  -27.8578  -11.3183   18.8449 H   0  0  0  0  0  0
  -27.4079  -12.6187   17.7753 H   0  0  0  0  0  0
  -27.6443  -14.2710   19.4903 H   0  0  0  0  0  0
  -28.7179  -12.1456   21.3919 H   0  0  0  0  0  0
  -28.4130  -13.8112   21.8097 H   0  0  0  0  0  0
  -25.2839   -9.5712   22.4675 H   0  0  0  0  0  0
  -24.0101   -7.4654   22.7427 H   0  0  0  0  0  0
  -21.0920   -8.8804   19.8896 H   0  0  0  0  0  0
  -22.3806  -10.9690   19.6066 H   0  0  0  0  0  0
  -21.2009   -7.6149   23.9711 H   0  0  0  0  0  0
  -21.1498   -6.0500   25.9062 H   0  0  0  0  0  0
  -22.0592   -2.7637   23.2763 H   0  0  0  0  0  0
  -22.4206  -11.9893   22.4790 H   0  0  0  0  0  0
  -21.1074  -13.1096   22.2556 H   0  0  0  0  0  0
  -24.6769  -15.8687   20.5203 H   0  0  0  0  0  0
  -26.2850  -15.6253   20.0740 H   0  0  0  0  0  0
  -26.7237  -32.5439   23.1043 H   0  0  0  0  0  0
  -25.0180  -33.9724   25.0452 H   0  0  0  0  0  0
  -22.7236  -31.3024   21.3998 H   0  0  0  0  0  0
  -23.3846  -35.9520   23.3294 H   0  0  0  0  0  0
  -24.3606  -36.8867   22.2053 H   0  0  0  0  0  0
  -23.7222  -37.6426   23.6652 H   0  0  0  0  0  0
  -26.1268  -31.5373   20.6185 H   0  0  0  0  0  0
  -26.8488  -30.8053   22.0221 H   0  0  0  0  0  0
  -28.1285  -28.9388   21.1752 H   0  0  0  0  0  0
  -25.9244  -25.9101   19.0057 H   0  0  0  0  0  0
  -23.9588  -27.3083   19.0190 H   0  0  0  0  0  0
  -23.7579  -30.5809   19.4047 H   0  0  0  0  0  0
  -22.7611  -29.2381   19.8697 H   0  0  0  0  0  0
  -25.1343  -36.1930   25.0842 H   0  0  0  0  0  0
  -20.9982  -28.3311   24.1432 H   0  0  0  0  0  0
  -20.5857  -26.2333   23.3621 H   0  0  0  0  0  0
  -21.6697  -26.7583   22.1144 H   0  0  0  0  0  0
  -19.6998  -25.6313   21.1262 H   0  0  0  0  0  0
  -19.6740  -27.3227   20.6790 H   0  0  0  0  0  0
  -17.4284  -26.6748   21.3958 H   0  0  0  0  0  0
  -18.0314  -26.0066   22.8984 H   0  0  0  0  0  0
  -19.7948  -30.7320   24.2185 H   0  0  0  0  0  0
  -17.5030  -31.6256   24.5181 H   0  0  0  0  0  0
  -15.5362  -30.2946   23.7726 H   0  0  0  0  0  0
  -15.8717  -28.0825   22.7044 H   0  0  0  0  0  0
  -24.5805  -30.7185   25.7519 H   0  0  0  0  0  0
  -24.8860  -32.2915   26.4735 H   0  0  0  0  0  0
  -25.7820  -30.8797   27.0124 H   0  0  0  0  0  0
  -26.3112  -29.6661   24.1259 H   0  0  0  0  0  0
  -27.4276  -29.7394   25.4707 H   0  0  0  0  0  0
  -27.8883  -30.4407   23.9412 H   0  0  0  0  0  0
  -27.2860  -33.3595   26.2015 H   0  0  0  0  0  0
  -28.3888  -32.6773   25.0163 H   0  0  0  0  0  0
  -28.0864  -31.8348   26.5258 H   0  0  0  0  0  0
  -28.2640  -38.0077   24.7572 H   0  0  0  0  0  0
  -28.1102  -36.2625   24.6258 H   0  0  0  0  0  0
  -27.2308  -37.1364   25.8864 H   0  0  0  0  0  0
  -20.9510  -29.8609   21.6708 H   0  0  0  0  0  0
  -26.0225  -38.2876   24.1349 H   0  0  0  0  0  0
  -30.9015  -21.5087   19.4295 H   0  0  0  0  0  0
  -27.5530  -22.2323   21.8195 H   0  0  0  0  0  0
  -31.2594  -19.2219   22.6530 H   0  0  0  0  0  0
  -31.4337  -17.5121   22.3043 H   0  0  0  0  0  0
  -29.8682  -18.1556   22.8009 H   0  0  0  0  0  0
  -32.4118  -19.4509   20.4500 H   0  0  0  0  0  0
  -31.5769  -19.1210   18.9390 H   0  0  0  0  0  0
  -32.2458  -17.8011   19.8828 H   0  0  0  0  0  0
  -30.0569  -24.2349   20.9457 H   0  0  0  0  0  0
  -29.8438  -23.9697   19.2471 H   0  0  0  0  0  0
  -29.7639  -17.2817   19.0508 H   0  0  0  0  0  0
  -28.5732  -17.5087   20.2571 H   0  0  0  0  0  0
  -27.4580  -24.6849   21.0689 H   0  0  0  0  0  0
  -27.5022  -24.6012   19.3311 H   0  0  0  0  0  0
  -28.8792  -15.5479   21.0463 H   0  0  0  0  0  0
  1 25  1  0  0  0
  1 30  2  0  0  0
  1 82  1  0  0  0
  2  3  1  0  0  0
  2 25  1  0  0  0
  2 83  1  0  0  0
  2 84  1  0  0  0
  3  4  1  0  0  0
  3 85  1  0  0  0
  3 86  1  0  0  0
  4  5  1  0  0  0
  4 87  1  0  0  0
  4 88  1  0  0  0
  5  6  1  0  0  0
  5 26  1  0  0  0
  5 89  1  0  0  0
  6 25  1  0  0  0
  6 90  1  0  0  0
  6 91  1  0  0  0
  7  8  2  0  0  0
  7 26  1  0  0  0
  7 29  1  0  0  0
  8  9  1  0  0  0
  8 22  1  0  0  0
  9 10  1  0  0  0
  9 27  2  0  0  0
 10 11  2  0  0  0
 10 15  1  0  0  0
 11 12  1  0  0  0
 11 92  1  0  0  0
 12 13  2  0  0  0
 12 93  1  0  0  0
 13 14  1  0  0  0
 13 31  1  0  0  0
 14 15  2  0  0  0
 14 94  1  0  0  0
 15 95  1  0  0  0
 16 17  2  0  0  0
 16 21  1  0  0  0
 16 31  1  0  0  0
 17 18  1  0  0  0
 17 96  1  0  0  0
 18 19  2  0  0  0
 18 97  1  0  0  0
 19 20  1  0  0  0
 19 24  1  0  0  0
 20 21  2  0  0  0
 20 98  1  0  0  0
 21 23  1  0  0  0
 22 28  1  0  0  0
 22 32  2  0  0  0
 26 27  1  0  0  0
 28 99  1  0  0  0
 28100  1  0  0  0
 29101  1  0  0  0
 29102  1  0  0  0
 33 34  1  0  0  0
 33 66  1  0  0  0
 33 70  2  0  0  0
 34 36  1  0  0  0
 34 59  1  0  0  0
 34103  1  0  0  0
 35 44  2  0  0  0
 35 45  1  0  0  0
 35 68  1  0  0  0
 36 56  1  0  0  0
 36104  1  0  0  0
 37 39  1  0  0  0
 37 47  1  0  0  0
 37 66  1  0  0  0
 37105  1  0  0  0
 38 43  2  0  0  0
 38 46  1  0  0  0
 38 47  1  0  0  0
 39 64  1  0  0  0
 39 67  2  0  0  0
 40 52  1  0  0  0
 40 53  2  0  0  0
 40 58  1  0  0  0
 41106  1  0  0  0
 41107  1  0  0  0
 41108  1  0  0  0
 41 48  1  0  0  0
 42 43  1  0  0  0
 42 66  1  0  0  0
 42109  1  0  0  0
 42110  1  0  0  0
 43 44  1  0  0  0
 44111  1  0  0  0
 45 46  2  0  0  0
 45112  1  0  0  0
 46113  1  0  0  0
 47114  1  0  0  0
 47115  1  0  0  0
 48 56  1  0  0  0
 48 65  1  0  0  0
 48116  1  0  0  0
 49 50  1  0  0  0
 49 53  1  0  0  0
 49 64  1  0  0  0
 49117  1  0  0  0
 50 51  1  0  0  0
 50118  1  0  0  0
 50119  1  0  0  0
 51 52  1  0  0  0
 51120  1  0  0  0
 51121  1  0  0  0
 52122  1  0  0  0
 52123  1  0  0  0
 53 54  1  0  0  0
 54 55  2  0  0  0
 54124  1  0  0  0
 55 57  1  0  0  0
 55125  1  0  0  0
 56 69  2  0  0  0
 57 58  2  0  0  0
 57126  1  0  0  0
 58127  1  0  0  0
 59 60  1  0  0  0
 59 61  1  0  0  0
 59 62  1  0  0  0
 60128  1  0  0  0
 60129  1  0  0  0
 60130  1  0  0  0
 61131  1  0  0  0
 61132  1  0  0  0
 61133  1  0  0  0
 62134  1  0  0  0
 62135  1  0  0  0
 62136  1  0  0  0
 63 65  1  0  0  0
 63137  1  0  0  0
 63138  1  0  0  0
 63139  1  0  0  0
 64140  1  0  0  0
 65141  1  0  0  0
 68 78  1  0  0  0
 71 73  2  0  0  0
 71 81  1  0  0  0
 71142  1  0  0  0
 72 80  2  0  0  0
 72 81  1  0  0  0
 72143  1  0  0  0
 73 79  1  0  0  0
 73 80  1  0  0  0
 74144  1  0  0  0
 74145  1  0  0  0
 74146  1  0  0  0
 74 79  1  0  0  0
 75 79  1  0  0  0
 75147  1  0  0  0
 75148  1  0  0  0
 75149  1  0  0  0
 76 78  1  0  0  0
 76 81  1  0  0  0
 76150  1  0  0  0
 76151  1  0  0  0
 77 79  1  0  0  0
 77 82  1  0  0  0
 77152  1  0  0  0
 77153  1  0  0  0
 78154  1  0  0  0
 78155  1  0  0  0
 82156  1  0  0  0
M  ISO  4   1 100  68 101  78 101  82 100
M  END
> <chiral flag>
0

> <version>
0

> <s_m_source_file>
/data/baiqing/PycharmProjects/Reinvent-master-3.2/result/LINK_invent/BTK/process_docking_weight1_custom_sum_contain_oxygen_bond_distance_aromatic_linkinvent_7_9_3/rearranged_h_0071.sdf

> <i_m_source_file_index>
46

> <r_mmod_Potential_Energy-OPLS-2005>
125.787750244141

> <r_mmod_Stretch_Energy-OPLS-2005>
133.892196655273

> <r_mmod_Bend_Energy-OPLS-2005>
201.028900146484

> <r_mmod_Torsional_Energy-OPLS-2005>
236.903442382812

> <r_mmod_Improper_Torsional_Energy-OPLS-2005>
8.05343914031982

> <r_mmod_Van_der_Waal_Energy-OPLS-2005>
115.479057312012

> <r_mmod_Electrostatic_Energy-OPLS-2005>
-436.238403320312

> <r_mmod_Solvation_Energy-OPLS-2005>
-222.961959838867

> <b_mmod_Minimization_Converged-OPLS-2005>
0

> <r_mmod_RMS_Derivative-OPLS-2005>
5.00563621520996

$$$$
47
                    3D
 Structure written by MMmdl.
181189  0  0  1  0            999 V2000
  -30.7446  -14.5837   20.4524 C   0  0  0  0  0  0
  -30.4192  -12.3581   19.4285 C   0  0  0  0  0  0
  -29.4911  -12.4381   18.2010 C   0  0  0  0  0  0
  -28.0175  -12.2813   18.6258 C   0  0  0  0  0  0
  -27.6327  -13.1831   19.8285 C   0  0  2  0  0  0
  -28.6971  -13.1555   20.9537 C   0  0  0  0  0  0
  -25.2580  -13.8048   20.5663 C   0  0  0  0  0  0
  -24.1806  -13.0382   20.9182 C   0  0  0  0  0  0
  -24.6338  -11.6844   20.8761 C   0  0  0  0  0  0
  -23.9012  -10.4254   21.0427 C   0  0  0  0  0  0
  -24.3591   -9.4169   21.9182 C   0  0  0  0  0  0
  -23.6278   -8.2206   22.0744 C   0  0  0  0  0  0
  -22.4260   -8.0244   21.3533 C   0  0  0  0  0  0
  -21.9891   -9.0214   20.4632 C   0  0  0  0  0  0
  -22.7205  -10.2099   20.3060 C   0  0  0  0  0  0
  -21.6826   -6.0729   22.5292 C   0  0  0  0  0  0
  -21.3996   -6.5625   23.8231 C   0  0  0  0  0  0
  -21.3671   -5.6768   24.9183 C   0  0  0  0  0  0
  -21.6062   -4.3041   24.7226 C   0  0  0  0  0  0
  -21.8806   -3.8136   23.4341 C   0  0  0  0  0  0
  -21.9166   -4.6958   22.3399 C   0  0  0  0  0  0
  -22.7844  -13.5234   21.1819 C   0  0  0  0  0  0
  -22.1634   -4.2142   21.0979 F   0  0  0  0  0  0
  -21.5641   -3.4525   25.7744 F   0  0  0  0  0  0
  -30.0151  -13.4265   20.3624 N   0  0  0  0  0  0
  -26.2914  -12.9140   20.3244 N   0  0  0  0  0  0
  -25.9258  -11.6349   20.5784 N   0  0  0  0  0  0
  -22.0436  -12.8286   22.0390 N   0  0  0  0  0  0
  -25.4410  -15.1746   20.4063 N   0  0  0  0  0  0
  -31.9526  -14.5851   20.2077 O   0  0  0  0  0  0
  -21.6592   -6.8869   21.4264 O   0  0  0  0  0  0
  -22.3594  -14.5543   20.6634 O   0  0  0  0  0  0
  -24.6133  -31.8677   23.2130 C   0  0  0  0  0  0
  -25.9018  -32.4829   23.8418 C   0  0  1  0  0  0
  -27.2472  -27.4428   20.1102 C   0  0  0  0  0  0
  -25.5825  -33.8616   24.2339 N   0  0  0  0  0  0
  -23.4037  -30.4935   21.5494 C   0  0  2  0  0  0
  -24.8572  -28.9638   20.1134 C   0  0  0  0  0  0
  -22.7438  -29.4632   22.4956 C   0  0  0  0  0  0
  -18.0293  -28.1402   22.8467 C   0  0  0  0  0  0
  -24.1476  -36.7356   23.2645 C   0  0  0  0  0  0
  -25.9289  -30.8425   21.3609 C   0  0  0  0  0  0
  -26.0137  -29.4760   20.7138 C   0  0  0  0  0  0
  -27.2118  -28.7243   20.7132 C   0  0  0  0  0  0
  -26.0785  -26.9562   19.4876 C   0  0  0  0  0  0
  -24.8838  -27.7008   19.4946 C   0  0  0  0  0  0
  -23.6194  -29.8320   20.1625 C   0  0  0  0  0  0
  -25.4071  -36.3111   24.0358 C   0  0  1  0  0  0
  -20.5884  -28.3667   23.1309 C   0  0  2  0  0  0
  -20.6758  -26.9395   22.5423 C   0  0  0  0  0  0
  -19.5747  -26.6384   21.5208 C   0  0  0  0  0  0
  -18.1920  -26.7939   22.1602 C   0  0  0  0  0  0
  -19.1541  -28.8841   23.2896 C   0  0  0  0  0  0
  -18.9474  -30.1436   23.8938 C   0  0  0  0  0  0
  -17.6474  -30.6598   24.0583 C   0  0  0  0  0  0
  -25.8980  -34.9474   23.5148 C   0  0  0  0  0  0
  -16.5365  -29.9121   23.6308 C   0  0  0  0  0  0
  -16.7276  -28.6537   23.0320 C   0  0  0  0  0  0
  -26.4450  -31.6590   25.0716 C   0  0  0  0  0  0
  -25.3724  -31.3703   26.1485 C   0  0  0  0  0  0
  -27.0298  -30.3044   24.6039 C   0  0  0  0  0  0
  -27.6071  -32.4267   25.7426 C   0  0  0  0  0  0
  -27.5578  -37.1819   24.8462 C   0  0  0  0  0  0
  -21.4156  -29.3038   22.3706 N   0  0  0  0  0  0
  -26.4282  -37.3778   23.9413 N   0  0  0  0  0  0
  -24.6681  -31.0789   22.1039 N   0  0  0  0  0  0
  -23.4200  -28.8153   23.2977 O   0  0  0  0  0  0
  -28.3523  -26.6164   20.0843 O   0  0  0  0  0  0
  -26.5574  -34.8919   22.4722 O   0  0  0  0  0  0
  -23.5318  -32.1445   23.7500 O   0  0  0  0  0  0
  -28.0260  -23.1436   21.5340 C   0  0  0  0  0  0
  -29.2553  -23.0140   20.8883 C   0  0  0  0  0  0
  -27.4145  -21.9728   21.9985 C   0  0  0  0  0  0
  -29.0671  -20.7064   20.9967 C   0  0  0  0  0  0
  -30.4878  -19.5213   19.2624 C   0  0  0  0  0  0
  -24.9404  -22.4991   22.1116 C   0  0  0  0  0  0
  -26.4420  -23.0994   24.0344 C   0  0  0  0  0  0
  -25.8863  -20.7143   23.6071 C   0  0  0  0  0  0
  -31.3037  -19.0902   22.3474 C   0  0  0  0  0  0
  -29.1374  -17.8542   22.6041 C   0  0  0  0  0  0
  -29.1231  -16.1506   19.5660 C   0  0  0  0  0  0
  -30.0522  -24.2489   20.4640 C   0  0  0  0  0  0
  -30.0262  -25.4013   21.5076 C   0  0  0  0  0  0
  -30.9077  -16.9913   21.0154 C   0  0  0  0  0  0
  -29.3022  -26.7258   21.1435 C   0  0  0  0  0  0
  -29.5723  -19.3084   20.5018 C   0  0  1  0  0  0
  -26.1811  -22.0645   22.9152 C   0  0  0  0  0  0
  -30.2070  -18.3093   21.5809 C   0  0  0  0  0  0
  -29.7823  -21.7913   20.6612 N   0  0  0  0  0  0
  -27.9102  -20.7616   21.6603 N   0  0  0  0  0  0
  -30.1016  -15.7932   20.5992 N   0  0  0  0  0  0
  -31.4584  -12.4511   19.1021 H   0  0  0  0  0  0
  -30.3481  -11.3817   19.9091 H   0  0  0  0  0  0
  -29.7586  -11.6541   17.4878 H   0  0  0  0  0  0
  -29.6292  -13.3810   17.6737 H   0  0  0  0  0  0
  -27.8653  -11.2328   18.8877 H   0  0  0  0  0  0
  -27.3600  -12.4753   17.7758 H   0  0  0  0  0  0
  -27.5754  -14.1747   19.4091 H   0  0  0  0  0  0
  -28.7064  -12.1876   21.4567 H   0  0  0  0  0  0
  -28.4623  -13.9023   21.7133 H   0  0  0  0  0  0
  -25.2755   -9.5616   22.4725 H   0  0  0  0  0  0
  -23.9952   -7.4611   22.7489 H   0  0  0  0  0  0
  -21.0793   -8.8758   19.8977 H   0  0  0  0  0  0
  -22.3678  -10.9630   19.6157 H   0  0  0  0  0  0
  -21.1996   -7.6136   23.9748 H   0  0  0  0  0  0
  -21.1518   -6.0487   25.9092 H   0  0  0  0  0  0
  -22.0587   -2.7594   23.2829 H   0  0  0  0  0  0
  -22.3962  -11.9911   22.4781 H   0  0  0  0  0  0
  -21.1092  -13.1419   22.2618 H   0  0  0  0  0  0
  -24.6912  -15.8494   20.5137 H   0  0  0  0  0  0
  -26.3219  -15.5959   20.1469 H   0  0  0  0  0  0
  -26.7069  -32.5559   23.1193 H   0  0  0  0  0  0
  -24.9930  -33.9766   25.0444 H   0  0  0  0  0  0
  -22.6917  -31.3100   21.4129 H   0  0  0  0  0  0
  -23.3719  -35.9717   23.3307 H   0  0  0  0  0  0
  -24.3611  -36.8960   22.2063 H   0  0  0  0  0  0
  -23.7272  -37.6573   23.6665 H   0  0  0  0  0  0
  -26.0223  -31.6066   20.5871 H   0  0  0  0  0  0
  -26.8239  -30.9136   21.9670 H   0  0  0  0  0  0
  -28.0997  -29.1330   21.1723 H   0  0  0  0  0  0
  -26.0927  -25.9860   19.0114 H   0  0  0  0  0  0
  -23.9971  -27.3046   19.0179 H   0  0  0  0  0  0
  -23.7440  -30.6167   19.4174 H   0  0  0  0  0  0
  -22.7438  -29.2638   19.8448 H   0  0  0  0  0  0
  -25.1254  -36.1988   25.0862 H   0  0  0  0  0  0
  -20.9971  -28.3243   24.1447 H   0  0  0  0  0  0
  -20.5629  -26.2279   23.3620 H   0  0  0  0  0  0
  -21.6622  -26.7417   22.1246 H   0  0  0  0  0  0
  -19.6898  -25.6293   21.1241 H   0  0  0  0  0  0
  -19.6716  -27.3187   20.6734 H   0  0  0  0  0  0
  -17.4191  -26.6712   21.4007 H   0  0  0  0  0  0
  -18.0338  -26.0098   22.9013 H   0  0  0  0  0  0
  -19.7949  -30.7229   24.2349 H   0  0  0  0  0  0
  -17.5043  -31.6281   24.5193 H   0  0  0  0  0  0
  -15.5356  -30.3052   23.7604 H   0  0  0  0  0  0
  -15.8679  -28.0884   22.6992 H   0  0  0  0  0  0
  -24.5849  -30.7105   25.7825 H   0  0  0  0  0  0
  -24.8981  -32.2872   26.4979 H   0  0  0  0  0  0
  -25.8068  -30.8819   27.0220 H   0  0  0  0  0  0
  -26.2830  -29.6755   24.1173 H   0  0  0  0  0  0
  -27.4219  -29.7306   25.4456 H   0  0  0  0  0  0
  -27.8588  -30.4429   23.9097 H   0  0  0  0  0  0
  -27.2743  -33.3554   26.2072 H   0  0  0  0  0  0
  -28.3802  -32.6828   25.0170 H   0  0  0  0  0  0
  -28.0823  -31.8344   26.5256 H   0  0  0  0  0  0
  -28.2579  -38.0127   24.7454 H   0  0  0  0  0  0
  -28.1084  -36.2647   24.6316 H   0  0  0  0  0  0
  -27.2325  -37.1493   25.8878 H   0  0  0  0  0  0
  -20.9321  -29.8842   21.7016 H   0  0  0  0  0  0
  -26.0193  -38.2864   24.1413 H   0  0  0  0  0  0
  -27.5945  -24.1180   21.7117 H   0  0  0  0  0  0
  -29.9924  -20.1484   18.5191 H   0  0  0  0  0  0
  -30.7745  -18.6100   18.7479 H   0  0  0  0  0  0
  -31.4139  -20.0248   19.5440 H   0  0  0  0  0  0
  -25.0697  -23.5011   21.6999 H   0  0  0  0  0  0
  -24.0512  -22.5231   22.7411 H   0  0  0  0  0  0
  -24.7419  -21.8252   21.2804 H   0  0  0  0  0  0
  -26.5622  -24.1123   23.6514 H   0  0  0  0  0  0
  -27.3478  -22.8587   24.5912 H   0  0  0  0  0  0
  -25.6184  -23.1352   24.7458 H   0  0  0  0  0  0
  -25.6327  -19.9403   22.8848 H   0  0  0  0  0  0
  -25.0518  -20.7934   24.3042 H   0  0  0  0  0  0
  -26.7478  -20.3660   24.1759 H   0  0  0  0  0  0
  -31.7715  -18.4893   23.1266 H   0  0  0  0  0  0
  -30.9115  -19.9826   22.8384 H   0  0  0  0  0  0
  -32.0996  -19.4168   21.6765 H   0  0  0  0  0  0
  -29.5488  -17.1472   23.3271 H   0  0  0  0  0  0
  -28.2994  -17.3619   22.1132 H   0  0  0  0  0  0
  -28.7286  -18.6864   23.1744 H   0  0  0  0  0  0
  -28.1350  -16.2661   20.0066 H   0  0  0  0  0  0
  -29.0850  -15.4352   18.7449 H   0  0  0  0  0  0
  -29.3659  -17.0720   19.0518 H   0  0  0  0  0  0
  -29.7202  -24.5846   19.4820 H   0  0  0  0  0  0
  -31.0889  -23.9404   20.3286 H   0  0  0  0  0  0
  -31.0577  -25.6698   21.7357 H   0  0  0  0  0  0
  -29.6554  -25.0287   22.4639 H   0  0  0  0  0  0
  -31.5656  -16.6321   21.8096 H   0  0  0  0  0  0
  -31.6016  -17.2434   20.2140 H   0  0  0  0  0  0
  -30.0391  -27.4753   20.8594 H   0  0  0  0  0  0
  -28.8247  -27.0893   22.0553 H   0  0  0  0  0  0
  -28.6640  -18.8329   20.1291 H   0  0  0  0  0  0
  1 25  1  0  0  0
  1 30  2  0  0  0
  1 91  1  0  0  0
  2  3  1  0  0  0
  2 25  1  0  0  0
  2 92  1  0  0  0
  2 93  1  0  0  0
  3  4  1  0  0  0
  3 94  1  0  0  0
  3 95  1  0  0  0
  4  5  1  0  0  0
  4 96  1  0  0  0
  4 97  1  0  0  0
  5  6  1  0  0  0
  5 26  1  0  0  0
  5 98  1  0  0  0
  6 25  1  0  0  0
  6 99  1  0  0  0
  6100  1  0  0  0
  7  8  2  0  0  0
  7 26  1  0  0  0
  7 29  1  0  0  0
  8  9  1  0  0  0
  8 22  1  0  0  0
  9 10  1  0  0  0
  9 27  2  0  0  0
 10 11  2  0  0  0
 10 15  1  0  0  0
 11 12  1  0  0  0
 11101  1  0  0  0
 12 13  2  0  0  0
 12102  1  0  0  0
 13 14  1  0  0  0
 13 31  1  0  0  0
 14 15  2  0  0  0
 14103  1  0  0  0
 15104  1  0  0  0
 16 17  2  0  0  0
 16 21  1  0  0  0
 16 31  1  0  0  0
 17 18  1  0  0  0
 17105  1  0  0  0
 18 19  2  0  0  0
 18106  1  0  0  0
 19 20  1  0  0  0
 19 24  1  0  0  0
 20 21  2  0  0  0
 20107  1  0  0  0
 21 23  1  0  0  0
 22 28  1  0  0  0
 22 32  2  0  0  0
 26 27  1  0  0  0
 28108  1  0  0  0
 28109  1  0  0  0
 29110  1  0  0  0
 29111  1  0  0  0
 33 34  1  0  0  0
 33 66  1  0  0  0
 33 70  2  0  0  0
 34 36  1  0  0  0
 34 59  1  0  0  0
 34112  1  0  0  0
 35 44  2  0  0  0
 35 45  1  0  0  0
 35 68  1  0  0  0
 36 56  1  0  0  0
 36113  1  0  0  0
 37 39  1  0  0  0
 37 47  1  0  0  0
 37 66  1  0  0  0
 37114  1  0  0  0
 38 43  2  0  0  0
 38 46  1  0  0  0
 38 47  1  0  0  0
 39 64  1  0  0  0
 39 67  2  0  0  0
 40 52  1  0  0  0
 40 53  2  0  0  0
 40 58  1  0  0  0
 41115  1  0  0  0
 41116  1  0  0  0
 41117  1  0  0  0
 41 48  1  0  0  0
 42 43  1  0  0  0
 42 66  1  0  0  0
 42118  1  0  0  0
 42119  1  0  0  0
 43 44  1  0  0  0
 44120  1  0  0  0
 45 46  2  0  0  0
 45121  1  0  0  0
 46122  1  0  0  0
 47123  1  0  0  0
 47124  1  0  0  0
 48 56  1  0  0  0
 48 65  1  0  0  0
 48125  1  0  0  0
 49 50  1  0  0  0
 49 53  1  0  0  0
 49 64  1  0  0  0
 49126  1  0  0  0
 50 51  1  0  0  0
 50127  1  0  0  0
 50128  1  0  0  0
 51 52  1  0  0  0
 51129  1  0  0  0
 51130  1  0  0  0
 52131  1  0  0  0
 52132  1  0  0  0
 53 54  1  0  0  0
 54 55  2  0  0  0
 54133  1  0  0  0
 55 57  1  0  0  0
 55134  1  0  0  0
 56 69  2  0  0  0
 57 58  2  0  0  0
 57135  1  0  0  0
 58136  1  0  0  0
 59 60  1  0  0  0
 59 61  1  0  0  0
 59 62  1  0  0  0
 60137  1  0  0  0
 60138  1  0  0  0
 60139  1  0  0  0
 61140  1  0  0  0
 61141  1  0  0  0
 61142  1  0  0  0
 62143  1  0  0  0
 62144  1  0  0  0
 62145  1  0  0  0
 63 65  1  0  0  0
 63146  1  0  0  0
 63147  1  0  0  0
 63148  1  0  0  0
 64149  1  0  0  0
 65150  1  0  0  0
 68 85  1  0  0  0
 71 72  2  0  0  0
 71 73  1  0  0  0
 71151  1  0  0  0
 72 82  1  0  0  0
 72 89  1  0  0  0
 73 87  1  0  0  0
 73 90  2  0  0  0
 74 86  1  0  0  0
 74 89  2  0  0  0
 74 90  1  0  0  0
 75152  1  0  0  0
 75153  1  0  0  0
 75154  1  0  0  0
 75 86  1  0  0  0
 76155  1  0  0  0
 76156  1  0  0  0
 76157  1  0  0  0
 76 87  1  0  0  0
 77 87  1  0  0  0
 77158  1  0  0  0
 77159  1  0  0  0
 77160  1  0  0  0
 78 87  1  0  0  0
 78161  1  0  0  0
 78162  1  0  0  0
 78163  1  0  0  0
 79164  1  0  0  0
 79165  1  0  0  0
 79166  1  0  0  0
 79 88  1  0  0  0
 80 88  1  0  0  0
 80167  1  0  0  0
 80168  1  0  0  0
 80169  1  0  0  0
 81 91  1  0  0  0
 81170  1  0  0  0
 81171  1  0  0  0
 81172  1  0  0  0
 82 83  1  0  0  0
 82173  1  0  0  0
 82174  1  0  0  0
 83 85  1  0  0  0
 83175  1  0  0  0
 83176  1  0  0  0
 84 88  1  0  0  0
 84 91  1  0  0  0
 84177  1  0  0  0
 84178  1  0  0  0
 85179  1  0  0  0
 85180  1  0  0  0
 86 88  1  0  0  0
 86181  1  0  0  0
M  ISO  4   1 100  68 101  85 101  91 100
M  END
> <chiral flag>
0

> <version>
0

> <s_m_source_file>
/data/baiqing/PycharmProjects/Reinvent-master-3.2/result/LINK_invent/BTK/process_docking_weight1_custom_sum_contain_oxygen_bond_distance_aromatic_linkinvent_7_9_3/rearranged_h_0071.sdf

> <i_m_source_file_index>
47

> <r_mmod_Potential_Energy-OPLS-2005>
-192.587036132812

> <r_mmod_Stretch_Energy-OPLS-2005>
61.8956146240234

> <r_mmod_Bend_Energy-OPLS-2005>
160.263931274414

> <r_mmod_Torsional_Energy-OPLS-2005>
333.677062988281

> <r_mmod_Improper_Torsional_Energy-OPLS-2005>
8.48176765441895

> <r_mmod_Van_der_Waal_Energy-OPLS-2005>
183.522277832031

> <r_mmod_Electrostatic_Energy-OPLS-2005>
-782.720520019531

> <r_mmod_Solvation_Energy-OPLS-2005>
-196.295547485352

> <b_mmod_Minimization_Converged-OPLS-2005>
0

> <r_mmod_RMS_Derivative-OPLS-2005>
4.8595814704895

$$$$
48
                    3D
 Structure written by MMmdl.
163171  0  0  1  0            999 V2000
  -30.5076  -15.0395   20.4172 C   0  0  0  0  0  0
  -30.4466  -12.6458   19.5456 C   0  0  0  0  0  0
  -29.5456  -12.5936   18.2860 C   0  0  0  0  0  0
  -28.0742  -12.3628   18.6809 C   0  0  0  0  0  0
  -27.6338  -13.2655   19.8651 C   0  0  2  0  0  0
  -28.6710  -13.2944   21.0103 C   0  0  0  0  0  0
  -25.2417  -13.8228   20.5726 C   0  0  0  0  0  0
  -24.1745  -13.0469   20.9242 C   0  0  0  0  0  0
  -24.6355  -11.6930   20.8767 C   0  0  0  0  0  0
  -23.9047  -10.4300   21.0416 C   0  0  0  0  0  0
  -24.3603   -9.4209   21.9179 C   0  0  0  0  0  0
  -23.6288   -8.2237   22.0748 C   0  0  0  0  0  0
  -22.4253   -8.0295   21.3556 C   0  0  0  0  0  0
  -21.9907   -9.0264   20.4643 C   0  0  0  0  0  0
  -22.7223  -10.2143   20.3056 C   0  0  0  0  0  0
  -21.6847   -6.0722   22.5262 C   0  0  0  0  0  0
  -21.4038   -6.5621   23.8200 C   0  0  0  0  0  0
  -21.3676   -5.6780   24.9170 C   0  0  0  0  0  0
  -21.6038   -4.3040   24.7214 C   0  0  0  0  0  0
  -21.8813   -3.8126   23.4340 C   0  0  0  0  0  0
  -21.9203   -4.6953   22.3401 C   0  0  0  0  0  0
  -22.7731  -13.5214   21.1891 C   0  0  0  0  0  0
  -22.1659   -4.2132   21.0977 F   0  0  0  0  0  0
  -21.5648   -3.4524   25.7736 F   0  0  0  0  0  0
  -29.9450  -13.7511   20.4285 N   0  0  0  0  0  0
  -26.2888  -12.9489   20.3345 N   0  0  0  0  0  0
  -25.9297  -11.6591   20.5752 N   0  0  0  0  0  0
  -22.0355  -12.8265   22.0458 N   0  0  0  0  0  0
  -25.4050  -15.1974   20.4044 N   0  0  0  0  0  0
  -31.6906  -15.0913   20.0628 O   0  0  0  0  0  0
  -21.6642   -6.8875   21.4221 O   0  0  0  0  0  0
  -22.3412  -14.5498   20.6690 O   0  0  0  0  0  0
  -24.6486  -31.8391   23.1851 C   0  0  0  0  0  0
  -25.9201  -32.4692   23.8291 C   0  0  1  0  0  0
  -27.2306  -27.0934   20.1566 C   0  0  0  0  0  0
  -25.5907  -33.8501   24.2155 N   0  0  0  0  0  0
  -23.4572  -30.4511   21.5340 C   0  0  2  0  0  0
  -24.9052  -28.8656   20.1064 C   0  0  0  0  0  0
  -22.7591  -29.4492   22.4889 C   0  0  0  0  0  0
  -18.0300  -28.1390   22.8501 C   0  0  0  0  0  0
  -24.1460  -36.7230   23.2652 C   0  0  0  0  0  0
  -26.0146  -30.6949   21.3919 C   0  0  0  0  0  0
  -26.0828  -29.3058   20.7236 C   0  0  0  0  0  0
  -27.2400  -28.4376   20.7240 C   0  0  0  0  0  0
  -26.0280  -26.7548   19.5011 C   0  0  0  0  0  0
  -24.8925  -27.6067   19.4798 C   0  0  0  0  0  0
  -23.6841  -29.7767   20.1534 C   0  0  0  0  0  0
  -25.4101  -36.3019   24.0311 C   0  0  1  0  0  0
  -20.5910  -28.3693   23.1248 C   0  0  2  0  0  0
  -20.6765  -26.9383   22.5424 C   0  0  0  0  0  0
  -19.5736  -26.6347   21.5236 C   0  0  0  0  0  0
  -18.1924  -26.7937   22.1644 C   0  0  0  0  0  0
  -19.1557  -28.8862   23.2869 C   0  0  0  0  0  0
  -18.9473  -30.1467   23.8878 C   0  0  0  0  0  0
  -17.6465  -30.6585   24.0550 C   0  0  0  0  0  0
  -25.9062  -34.9402   23.5047 C   0  0  0  0  0  0
  -16.5356  -29.9063   23.6352 C   0  0  0  0  0  0
  -16.7286  -28.6483   23.0382 C   0  0  0  0  0  0
  -26.4465  -31.6639   25.0804 C   0  0  0  0  0  0
  -25.3615  -31.3864   26.1480 C   0  0  0  0  0  0
  -27.0364  -30.3026   24.6510 C   0  0  0  0  0  0
  -27.5949  -32.4470   25.7613 C   0  0  0  0  0  0
  -27.5565  -37.1773   24.8453 C   0  0  0  0  0  0
  -21.4273  -29.3010   22.3623 N   0  0  0  0  0  0
  -26.4250  -37.3745   23.9427 N   0  0  0  0  0  0
  -24.7275  -31.0169   22.0925 N   0  0  0  0  0  0
  -23.4204  -28.8028   23.3059 O   0  0  0  0  0  0
  -28.3146  -26.1399   20.2961 O   0  0  0  0  0  0
  -26.5680  -34.8917   22.4648 O   0  0  0  0  0  0
  -23.5571  -32.1303   23.6998 O   0  0  0  0  0  0
  -30.6006  -20.1406   20.4500 C   0  0  0  0  0  0
  -29.5375  -19.2746   20.2653 C   0  0  0  0  0  0
  -28.8431  -21.6315   20.3834 C   0  0  0  0  0  0
  -26.5789  -19.8930   18.6312 C   0  0  0  0  0  0
  -28.1153  -23.4383   22.1288 C   0  0  0  0  0  0
  -26.6019  -23.0637   20.2057 C   0  0  0  0  0  0
  -27.0661  -19.8249   20.0887 C   0  0  0  0  0  0
  -28.5048  -24.6307   19.8584 C   0  0  0  0  0  0
  -29.5793  -17.6405   19.8175 C   0  0  1  0  0  0
  -28.0827  -23.1453   20.6055 C   0  0  0  0  0  0
  -30.3857  -17.5616   18.4896 C   0  0  0  0  0  0
  -28.4598  -20.2608   20.2542 N   0  0  0  0  0  0
  -30.1736  -21.4710   20.4918 N   0  3  0  0  0  0
  -29.7376  -16.2425   20.6173 N   0  0  0  0  0  0
  -30.1846  -16.4035   17.8556 F   0  0  0  0  0  0
  -29.9719  -18.5257   17.6685 F   0  0  0  0  0  0
  -31.6915  -17.7288   18.7040 F   0  0  0  0  0  0
  -31.4913  -12.7940   19.2592 H   0  0  0  0  0  0
  -30.4260  -11.6886   20.0698 H   0  0  0  0  0  0
  -29.8861  -11.8173   17.5988 H   0  0  0  0  0  0
  -29.6326  -13.5430   17.7503 H   0  0  0  0  0  0
  -27.9650  -11.3120   18.9491 H   0  0  0  0  0  0
  -27.4195  -12.5332   17.8265 H   0  0  0  0  0  0
  -27.5948  -14.2749   19.4551 H   0  0  0  0  0  0
  -28.7773  -12.3034   21.4578 H   0  0  0  0  0  0
  -28.3482  -13.9584   21.8162 H   0  0  0  0  0  0
  -25.2747   -9.5669   22.4750 H   0  0  0  0  0  0
  -23.9988   -7.4597   22.7450 H   0  0  0  0  0  0
  -21.0846   -8.8773   19.8924 H   0  0  0  0  0  0
  -22.3691  -10.9672   19.6171 H   0  0  0  0  0  0
  -21.2035   -7.6129   23.9718 H   0  0  0  0  0  0
  -21.1504   -6.0499   25.9079 H   0  0  0  0  0  0
  -22.0579   -2.7582   23.2834 H   0  0  0  0  0  0
  -22.3928  -11.9936   22.4908 H   0  0  0  0  0  0
  -21.0948  -13.1244   22.2601 H   0  0  0  0  0  0
  -24.6159  -15.8308   20.4620 H   0  0  0  0  0  0
  -26.2319  -15.6290   20.0152 H   0  0  0  0  0  0
  -26.7302  -32.5244   23.1045 H   0  0  0  0  0  0
  -24.9979  -33.9649   25.0248 H   0  0  0  0  0  0
  -22.7679  -31.2819   21.3775 H   0  0  0  0  0  0
  -23.3763  -35.9518   23.3247 H   0  0  0  0  0  0
  -24.3533  -36.8948   22.2082 H   0  0  0  0  0  0
  -23.7160  -37.6372   23.6748 H   0  0  0  0  0  0
  -26.1918  -31.4551   20.6293 H   0  0  0  0  0  0
  -26.8739  -30.7296   22.0514 H   0  0  0  0  0  0
  -28.1391  -28.7759   21.2191 H   0  0  0  0  0  0
  -25.9342  -25.7858   19.0348 H   0  0  0  0  0  0
  -23.9889  -27.2638   18.9953 H   0  0  0  0  0  0
  -23.8299  -30.5557   19.4054 H   0  0  0  0  0  0
  -22.7979  -29.2257   19.8352 H   0  0  0  0  0  0
  -25.1297  -36.1851   25.0804 H   0  0  0  0  0  0
  -21.0023  -28.3266   24.1357 H   0  0  0  0  0  0
  -20.5650  -26.2294   23.3645 H   0  0  0  0  0  0
  -21.6634  -26.7365   22.1222 H   0  0  0  0  0  0
  -19.6873  -25.6236   21.1309 H   0  0  0  0  0  0
  -19.6693  -27.3126   20.6741 H   0  0  0  0  0  0
  -17.4199  -26.6724   21.4032 H   0  0  0  0  0  0
  -18.0274  -26.0072   22.9027 H   0  0  0  0  0  0
  -19.7934  -30.7307   24.2243 H   0  0  0  0  0  0
  -17.4996  -31.6279   24.5119 H   0  0  0  0  0  0
  -15.5349  -30.2952   23.7661 H   0  0  0  0  0  0
  -15.8700  -28.0780   22.7118 H   0  0  0  0  0  0
  -24.5730  -30.7309   25.7759 H   0  0  0  0  0  0
  -24.8882  -32.3069   26.4921 H   0  0  0  0  0  0
  -25.7848  -30.8991   27.0276 H   0  0  0  0  0  0
  -26.3018  -29.6739   24.1476 H   0  0  0  0  0  0
  -27.3826  -29.7388   25.5182 H   0  0  0  0  0  0
  -27.8982  -30.4211   23.9946 H   0  0  0  0  0  0
  -27.2448  -33.3743   26.2169 H   0  0  0  0  0  0
  -28.3760  -32.7122   25.0477 H   0  0  0  0  0  0
  -28.0621  -31.8670   26.5583 H   0  0  0  0  0  0
  -28.2535  -38.0114   24.7553 H   0  0  0  0  0  0
  -28.1115  -36.2656   24.6207 H   0  0  0  0  0  0
  -27.2309  -37.1319   25.8858 H   0  0  0  0  0  0
  -20.9493  -29.8752   21.6822 H   0  0  0  0  0  0
  -26.0120  -38.2804   24.1478 H   0  0  0  0  0  0
  -31.6545  -19.9071   20.4827 H   0  0  0  0  0  0
  -25.5945  -19.4367   18.5243 H   0  0  0  0  0  0
  -27.2617  -19.3677   17.9610 H   0  0  0  0  0  0
  -26.4958  -20.9131   18.2653 H   0  0  0  0  0  0
  -27.5955  -22.6651   22.6980 H   0  0  0  0  0  0
  -27.6145  -24.3798   22.3646 H   0  0  0  0  0  0
  -29.1270  -23.5195   22.5275 H   0  0  0  0  0  0
  -26.0285  -22.3337   20.7640 H   0  0  0  0  0  0
  -26.4912  -22.8801   19.1376 H   0  0  0  0  0  0
  -26.1115  -24.0150   20.3906 H   0  0  0  0  0  0
  -27.0139  -18.7919   20.4317 H   0  0  0  0  0  0
  -26.4257  -20.3601   20.7800 H   0  0  0  0  0  0
  -28.2080  -24.5704   18.8095 H   0  0  0  0  0  0
  -29.5938  -24.5931   19.7912 H   0  0  0  0  0  0
  -28.5585  -17.4957   19.4713 H   0  0  0  0  0  0
  -30.8107  -22.2524   20.5933 H   0  0  0  0  0  0
  -28.9066  -16.0499   21.1571 H   0  0  0  0  0  0
  1 25  1  0  0  0
  1 30  2  0  0  0
  1 84  1  0  0  0
  2  3  1  0  0  0
  2 25  1  0  0  0
  2 88  1  0  0  0
  2 89  1  0  0  0
  3  4  1  0  0  0
  3 90  1  0  0  0
  3 91  1  0  0  0
  4  5  1  0  0  0
  4 92  1  0  0  0
  4 93  1  0  0  0
  5  6  1  0  0  0
  5 26  1  0  0  0
  5 94  1  0  0  0
  6 25  1  0  0  0
  6 95  1  0  0  0
  6 96  1  0  0  0
  7  8  2  0  0  0
  7 26  1  0  0  0
  7 29  1  0  0  0
  8  9  1  0  0  0
  8 22  1  0  0  0
  9 10  1  0  0  0
  9 27  2  0  0  0
 10 11  2  0  0  0
 10 15  1  0  0  0
 11 12  1  0  0  0
 11 97  1  0  0  0
 12 13  2  0  0  0
 12 98  1  0  0  0
 13 14  1  0  0  0
 13 31  1  0  0  0
 14 15  2  0  0  0
 14 99  1  0  0  0
 15100  1  0  0  0
 16 17  2  0  0  0
 16 21  1  0  0  0
 16 31  1  0  0  0
 17 18  1  0  0  0
 17101  1  0  0  0
 18 19  2  0  0  0
 18102  1  0  0  0
 19 20  1  0  0  0
 19 24  1  0  0  0
 20 21  2  0  0  0
 20103  1  0  0  0
 21 23  1  0  0  0
 22 28  1  0  0  0
 22 32  2  0  0  0
 26 27  1  0  0  0
 28104  1  0  0  0
 28105  1  0  0  0
 29106  1  0  0  0
 29107  1  0  0  0
 33 34  1  0  0  0
 33 66  1  0  0  0
 33 70  2  0  0  0
 34 36  1  0  0  0
 34 59  1  0  0  0
 34108  1  0  0  0
 35 44  2  0  0  0
 35 45  1  0  0  0
 35 68  1  0  0  0
 36 56  1  0  0  0
 36109  1  0  0  0
 37 39  1  0  0  0
 37 47  1  0  0  0
 37 66  1  0  0  0
 37110  1  0  0  0
 38 43  2  0  0  0
 38 46  1  0  0  0
 38 47  1  0  0  0
 39 64  1  0  0  0
 39 67  2  0  0  0
 40 52  1  0  0  0
 40 53  2  0  0  0
 40 58  1  0  0  0
 41111  1  0  0  0
 41112  1  0  0  0
 41113  1  0  0  0
 41 48  1  0  0  0
 42 43  1  0  0  0
 42 66  1  0  0  0
 42114  1  0  0  0
 42115  1  0  0  0
 43 44  1  0  0  0
 44116  1  0  0  0
 45 46  2  0  0  0
 45117  1  0  0  0
 46118  1  0  0  0
 47119  1  0  0  0
 47120  1  0  0  0
 48 56  1  0  0  0
 48 65  1  0  0  0
 48121  1  0  0  0
 49 50  1  0  0  0
 49 53  1  0  0  0
 49 64  1  0  0  0
 49122  1  0  0  0
 50 51  1  0  0  0
 50123  1  0  0  0
 50124  1  0  0  0
 51 52  1  0  0  0
 51125  1  0  0  0
 51126  1  0  0  0
 52127  1  0  0  0
 52128  1  0  0  0
 53 54  1  0  0  0
 54 55  2  0  0  0
 54129  1  0  0  0
 55 57  1  0  0  0
 55130  1  0  0  0
 56 69  2  0  0  0
 57 58  2  0  0  0
 57131  1  0  0  0
 58132  1  0  0  0
 59 60  1  0  0  0
 59 61  1  0  0  0
 59 62  1  0  0  0
 60133  1  0  0  0
 60134  1  0  0  0
 60135  1  0  0  0
 61136  1  0  0  0
 61137  1  0  0  0
 61138  1  0  0  0
 62139  1  0  0  0
 62140  1  0  0  0
 62141  1  0  0  0
 63 65  1  0  0  0
 63142  1  0  0  0
 63143  1  0  0  0
 63144  1  0  0  0
 64145  1  0  0  0
 65146  1  0  0  0
 68 78  1  0  0  0
 71 72  2  0  0  0
 71 83  1  0  0  0
 71147  1  0  0  0
 72 79  1  0  0  0
 72 82  1  0  0  0
 73 80  1  0  0  0
 73 82  1  0  0  0
 73 83  2  0  0  0
 74 77  1  0  0  0
 74148  1  0  0  0
 74149  1  0  0  0
 74150  1  0  0  0
 75151  1  0  0  0
 75152  1  0  0  0
 75153  1  0  0  0
 75 80  1  0  0  0
 76 80  1  0  0  0
 76154  1  0  0  0
 76155  1  0  0  0
 76156  1  0  0  0
 77 82  1  0  0  0
 77157  1  0  0  0
 77158  1  0  0  0
 78 80  1  0  0  0
 78159  1  0  0  0
 78160  1  0  0  0
 79 81  1  0  0  0
 79 84  1  0  0  0
 79161  1  0  0  0
 81 85  1  0  0  0
 81 86  1  0  0  0
 81 87  1  0  0  0
 83162  1  0  0  0
 84163  1  0  0  0
M  CHG  1  83   1
M  ISO  4   1 100  68 101  78 101  84 100
M  END
> <chiral flag>
0

> <version>
0

> <s_m_source_file>
/data/baiqing/PycharmProjects/Reinvent-master-3.2/result/LINK_invent/BTK/process_docking_weight1_custom_sum_contain_oxygen_bond_distance_aromatic_linkinvent_7_9_3/rearranged_h_0071.sdf

> <i_m_source_file_index>
48

> <r_mmod_Potential_Energy-OPLS-2005>
621.483520507812

> <r_mmod_Stretch_Energy-OPLS-2005>
365.279510498047

> <r_mmod_Bend_Energy-OPLS-2005>
383.462463378906

> <r_mmod_Torsional_Energy-OPLS-2005>
283.096343994141

> <r_mmod_Improper_Torsional_Energy-OPLS-2005>
8.51829719543457

> <r_mmod_Van_der_Waal_Energy-OPLS-2005>
106.46662902832

> <r_mmod_Electrostatic_Energy-OPLS-2005>
-326.944396972656

> <r_mmod_Solvation_Energy-OPLS-2005>
-439.469787597656

> <b_mmod_Minimization_Converged-OPLS-2005>
0

> <r_mmod_RMS_Derivative-OPLS-2005>
6.01259994506836

$$$$
49
                    3D
 Structure written by MMmdl.
145153  0  0  1  0            999 V2000
  -30.4623  -15.2187   20.3783 C   0  0  0  0  0  0
  -30.4372  -12.7769   19.5213 C   0  0  0  0  0  0
  -29.5318  -12.5654   18.2829 C   0  0  0  0  0  0
  -28.0782  -12.2993   18.7112 C   0  0  0  0  0  0
  -27.6130  -13.2713   19.8244 C   0  0  2  0  0  0
  -28.6484  -13.4317   20.9576 C   0  0  0  0  0  0
  -25.2394  -13.8242   20.5745 C   0  0  0  0  0  0
  -24.1743  -13.0436   20.9259 C   0  0  0  0  0  0
  -24.6394  -11.6932   20.8765 C   0  0  0  0  0  0
  -23.9087  -10.4293   21.0409 C   0  0  0  0  0  0
  -24.3633   -9.4206   21.9185 C   0  0  0  0  0  0
  -23.6306   -8.2242   22.0751 C   0  0  0  0  0  0
  -22.4287   -8.0281   21.3544 C   0  0  0  0  0  0
  -21.9926   -9.0255   20.4644 C   0  0  0  0  0  0
  -22.7258  -10.2134   20.3057 C   0  0  0  0  0  0
  -21.6856   -6.0738   22.5279 C   0  0  0  0  0  0
  -21.4015   -6.5640   23.8211 C   0  0  0  0  0  0
  -21.3660   -5.6793   24.9173 C   0  0  0  0  0  0
  -21.6046   -4.3056   24.7224 C   0  0  0  0  0  0
  -21.8819   -3.8148   23.4345 C   0  0  0  0  0  0
  -21.9195   -4.6965   22.3401 C   0  0  0  0  0  0
  -22.7760  -13.5189   21.1908 C   0  0  0  0  0  0
  -22.1663   -4.2150   21.0980 F   0  0  0  0  0  0
  -21.5630   -3.4539   25.7737 F   0  0  0  0  0  0
  -29.8854  -13.9222   20.3307 N   0  0  0  0  0  0
  -26.2821  -12.9513   20.3227 N   0  0  0  0  0  0
  -25.9330  -11.6620   20.5730 N   0  0  0  0  0  0
  -22.0425  -12.8166   22.0463 N   0  0  0  0  0  0
  -25.4026  -15.1976   20.4167 N   0  0  0  0  0  0
  -31.6833  -15.2156   20.1708 O   0  0  0  0  0  0
  -21.6646   -6.8882   21.4242 O   0  0  0  0  0  0
  -22.3438  -14.5493   20.6753 O   0  0  0  0  0  0
  -24.6611  -31.8263   23.1738 C   0  0  0  0  0  0
  -25.9303  -32.4604   23.8189 C   0  0  1  0  0  0
  -27.2144  -26.9514   20.1779 C   0  0  0  0  0  0
  -25.5982  -33.8417   24.2094 N   0  0  0  0  0  0
  -23.4744  -30.4404   21.5224 C   0  0  2  0  0  0
  -24.9273  -28.8358   20.1115 C   0  0  0  0  0  0
  -22.7656  -29.4458   22.4788 C   0  0  0  0  0  0
  -18.0320  -28.1411   22.8472 C   0  0  0  0  0  0
  -24.1487  -36.7202   23.2646 C   0  0  0  0  0  0
  -26.0432  -30.6407   21.4016 C   0  0  0  0  0  0
  -26.1116  -29.2339   20.7443 C   0  0  0  0  0  0
  -27.2516  -28.3125   20.7545 C   0  0  0  0  0  0
  -26.0013  -26.7062   19.4939 C   0  0  0  0  0  0
  -24.8964  -27.5917   19.4659 C   0  0  0  0  0  0
  -23.7128  -29.7604   20.1473 C   0  0  0  0  0  0
  -25.4128  -36.2972   24.0302 C   0  0  1  0  0  0
  -20.5944  -28.3751   23.1191 C   0  0  2  0  0  0
  -20.6794  -26.9435   22.5401 C   0  0  0  0  0  0
  -19.5767  -26.6383   21.5213 C   0  0  0  0  0  0
  -18.1951  -26.7945   22.1626 C   0  0  0  0  0  0
  -19.1582  -28.8902   23.2820 C   0  0  0  0  0  0
  -18.9494  -30.1491   23.8856 C   0  0  0  0  0  0
  -17.6488  -30.6603   24.0556 C   0  0  0  0  0  0
  -25.9096  -34.9357   23.5015 C   0  0  0  0  0  0
  -16.5377  -29.9090   23.6347 C   0  0  0  0  0  0
  -16.7302  -28.6508   23.0371 C   0  0  0  0  0  0
  -26.4561  -31.6543   25.0709 C   0  0  0  0  0  0
  -25.3697  -31.3792   26.1372 C   0  0  0  0  0  0
  -27.0452  -30.2911   24.6431 C   0  0  0  0  0  0
  -27.6054  -32.4352   25.7510 C   0  0  0  0  0  0
  -27.5565  -37.1756   24.8469 C   0  0  0  0  0  0
  -21.4329  -29.3045   22.3539 N   0  0  0  0  0  0
  -26.4272  -37.3709   23.9413 N   0  0  0  0  0  0
  -24.7474  -30.9952   22.0863 N   0  0  0  0  0  0
  -23.4214  -28.8022   23.3018 O   0  0  0  0  0  0
  -28.2013  -25.8384   20.2589 O   0  0  0  0  0  0
  -26.5699  -34.8888   22.4607 O   0  0  0  0  0  0
  -23.5686  -32.1221   23.6848 O   0  0  0  0  0  0
  -29.0786  -20.5763   21.4575 C   0  0  0  0  0  0
  -28.8793  -21.7837   19.1124 C   0  0  0  0  0  0
  -29.3542  -19.6577   20.3491 C   0  0  0  0  0  0
  -28.6042  -22.7055   20.2146 C   0  0  0  0  0  0
  -30.1316  -18.0935   20.4024 C   0  0  0  0  0  0
  -27.8148  -24.2589   20.0703 C   0  0  0  0  0  0
  -29.2428  -20.4030   19.1717 N   0  0  0  0  0  0
  -28.7086  -21.9599   21.3973 N   0  0  0  0  0  0
  -29.7173  -16.4912   20.4559 N   0  0  0  0  0  0
  -31.4582  -12.9724   19.1909 H   0  0  0  0  0  0
  -30.4931  -11.8677   20.1223 H   0  0  0  0  0  0
  -29.9026  -11.7378   17.6765 H   0  0  0  0  0  0
  -29.5692  -13.4527   17.6490 H   0  0  0  0  0  0
  -28.0275  -11.2735   19.0785 H   0  0  0  0  0  0
  -27.4092  -12.3507   17.8513 H   0  0  0  0  0  0
  -27.5333  -14.2415   19.3328 H   0  0  0  0  0  0
  -28.8059  -12.4945   21.4933 H   0  0  0  0  0  0
  -28.2965  -14.1563   21.6935 H   0  0  0  0  0  0
  -25.2774   -9.5683   22.4764 H   0  0  0  0  0  0
  -24.0015   -7.4630   22.7468 H   0  0  0  0  0  0
  -21.0859   -8.8777   19.8945 H   0  0  0  0  0  0
  -22.3715  -10.9675   19.6168 H   0  0  0  0  0  0
  -21.2004   -7.6147   23.9715 H   0  0  0  0  0  0
  -21.1483   -6.0523   25.9077 H   0  0  0  0  0  0
  -22.0598   -2.7610   23.2845 H   0  0  0  0  0  0
  -22.4064  -11.9834   22.4846 H   0  0  0  0  0  0
  -21.1035  -13.1164   22.2674 H   0  0  0  0  0  0
  -24.6293  -15.8455   20.5234 H   0  0  0  0  0  0
  -26.2401  -15.6384   20.0601 H   0  0  0  0  0  0
  -26.7371  -32.5148   23.0905 H   0  0  0  0  0  0
  -25.0093  -33.9499   25.0219 H   0  0  0  0  0  0
  -22.7864  -31.2716   21.3546 H   0  0  0  0  0  0
  -23.3765  -35.9518   23.3288 H   0  0  0  0  0  0
  -24.3562  -36.8866   22.2065 H   0  0  0  0  0  0
  -23.7231  -37.6380   23.6710 H   0  0  0  0  0  0
  -26.2219  -31.3847   20.6241 H   0  0  0  0  0  0
  -26.9040  -30.6952   22.0562 H   0  0  0  0  0  0
  -28.1459  -28.6136   21.2814 H   0  0  0  0  0  0
  -25.8597  -25.7602   18.9947 H   0  0  0  0  0  0
  -23.9971  -27.2815   18.9511 H   0  0  0  0  0  0
  -23.8668  -30.5304   19.3904 H   0  0  0  0  0  0
  -22.8231  -29.2140   19.8294 H   0  0  0  0  0  0
  -25.1328  -36.1767   25.0793 H   0  0  0  0  0  0
  -21.0034  -28.3356   24.1313 H   0  0  0  0  0  0
  -20.5671  -26.2372   23.3641 H   0  0  0  0  0  0
  -21.6658  -26.7412   22.1209 H   0  0  0  0  0  0
  -19.6923  -25.6284   21.1271 H   0  0  0  0  0  0
  -19.6703  -27.3168   20.6721 H   0  0  0  0  0  0
  -17.4217  -26.6689   21.4032 H   0  0  0  0  0  0
  -18.0348  -26.0100   22.9035 H   0  0  0  0  0  0
  -19.7969  -30.7318   24.2209 H   0  0  0  0  0  0
  -17.5041  -31.6280   24.5163 H   0  0  0  0  0  0
  -15.5376  -30.2980   23.7696 H   0  0  0  0  0  0
  -15.8702  -28.0808   22.7121 H   0  0  0  0  0  0
  -24.5892  -30.7122   25.7691 H   0  0  0  0  0  0
  -24.8872  -32.2994   26.4675 H   0  0  0  0  0  0
  -25.7942  -30.9047   27.0229 H   0  0  0  0  0  0
  -26.3115  -29.6596   24.1409 H   0  0  0  0  0  0
  -27.3955  -29.7267   25.5083 H   0  0  0  0  0  0
  -27.9071  -30.4093   23.9862 H   0  0  0  0  0  0
  -27.2621  -33.3694   26.1966 H   0  0  0  0  0  0
  -28.3930  -32.6849   25.0387 H   0  0  0  0  0  0
  -28.0650  -31.8563   26.5529 H   0  0  0  0  0  0
  -28.2572  -38.0062   24.7518 H   0  0  0  0  0  0
  -28.1073  -36.2592   24.6298 H   0  0  0  0  0  0
  -27.2285  -37.1403   25.8872 H   0  0  0  0  0  0
  -20.9575  -29.8736   21.6675 H   0  0  0  0  0  0
  -26.0121  -38.2765   24.1437 H   0  0  0  0  0  0
  -29.1988  -20.1986   22.4626 H   0  0  0  0  0  0
  -28.7574  -22.1582   18.1064 H   0  0  0  0  0  0
  -30.7971  -18.1934   21.2602 H   0  0  0  0  0  0
  -30.8124  -18.1355   19.5520 H   0  0  0  0  0  0
  -26.9206  -24.1381   20.6823 H   0  0  0  0  0  0
  -27.4448  -24.2174   19.0464 H   0  0  0  0  0  0
  -28.7244  -16.3497   20.5652 H   0  0  0  0  0  0
  1 25  1  0  0  0
  1 30  2  0  0  0
  1 79  1  0  0  0
  2  3  1  0  0  0
  2 25  1  0  0  0
  2 80  1  0  0  0
  2 81  1  0  0  0
  3  4  1  0  0  0
  3 82  1  0  0  0
  3 83  1  0  0  0
  4  5  1  0  0  0
  4 84  1  0  0  0
  4 85  1  0  0  0
  5  6  1  0  0  0
  5 26  1  0  0  0
  5 86  1  0  0  0
  6 25  1  0  0  0
  6 87  1  0  0  0
  6 88  1  0  0  0
  7  8  2  0  0  0
  7 26  1  0  0  0
  7 29  1  0  0  0
  8  9  1  0  0  0
  8 22  1  0  0  0
  9 10  1  0  0  0
  9 27  2  0  0  0
 10 11  2  0  0  0
 10 15  1  0  0  0
 11 12  1  0  0  0
 11 89  1  0  0  0
 12 13  2  0  0  0
 12 90  1  0  0  0
 13 14  1  0  0  0
 13 31  1  0  0  0
 14 15  2  0  0  0
 14 91  1  0  0  0
 15 92  1  0  0  0
 16 17  2  0  0  0
 16 21  1  0  0  0
 16 31  1  0  0  0
 17 18  1  0  0  0
 17 93  1  0  0  0
 18 19  2  0  0  0
 18 94  1  0  0  0
 19 20  1  0  0  0
 19 24  1  0  0  0
 20 21  2  0  0  0
 20 95  1  0  0  0
 21 23  1  0  0  0
 22 28  1  0  0  0
 22 32  2  0  0  0
 26 27  1  0  0  0
 28 96  1  0  0  0
 28 97  1  0  0  0
 29 98  1  0  0  0
 29 99  1  0  0  0
 33 34  1  0  0  0
 33 66  1  0  0  0
 33 70  2  0  0  0
 34 36  1  0  0  0
 34 59  1  0  0  0
 34100  1  0  0  0
 35 44  2  0  0  0
 35 45  1  0  0  0
 35 68  1  0  0  0
 36 56  1  0  0  0
 36101  1  0  0  0
 37 39  1  0  0  0
 37 47  1  0  0  0
 37 66  1  0  0  0
 37102  1  0  0  0
 38 43  2  0  0  0
 38 46  1  0  0  0
 38 47  1  0  0  0
 39 64  1  0  0  0
 39 67  2  0  0  0
 40 52  1  0  0  0
 40 53  2  0  0  0
 40 58  1  0  0  0
 41103  1  0  0  0
 41104  1  0  0  0
 41105  1  0  0  0
 41 48  1  0  0  0
 42 43  1  0  0  0
 42 66  1  0  0  0
 42106  1  0  0  0
 42107  1  0  0  0
 43 44  1  0  0  0
 44108  1  0  0  0
 45 46  2  0  0  0
 45109  1  0  0  0
 46110  1  0  0  0
 47111  1  0  0  0
 47112  1  0  0  0
 48 56  1  0  0  0
 48 65  1  0  0  0
 48113  1  0  0  0
 49 50  1  0  0  0
 49 53  1  0  0  0
 49 64  1  0  0  0
 49114  1  0  0  0
 50 51  1  0  0  0
 50115  1  0  0  0
 50116  1  0  0  0
 51 52  1  0  0  0
 51117  1  0  0  0
 51118  1  0  0  0
 52119  1  0  0  0
 52120  1  0  0  0
 53 54  1  0  0  0
 54 55  2  0  0  0
 54121  1  0  0  0
 55 57  1  0  0  0
 55122  1  0  0  0
 56 69  2  0  0  0
 57 58  2  0  0  0
 57123  1  0  0  0
 58124  1  0  0  0
 59 60  1  0  0  0
 59 61  1  0  0  0
 59 62  1  0  0  0
 60125  1  0  0  0
 60126  1  0  0  0
 60127  1  0  0  0
 61128  1  0  0  0
 61129  1  0  0  0
 61130  1  0  0  0
 62131  1  0  0  0
 62132  1  0  0  0
 62133  1  0  0  0
 63 65  1  0  0  0
 63134  1  0  0  0
 63135  1  0  0  0
 63136  1  0  0  0
 64137  1  0  0  0
 65138  1  0  0  0
 68 76  1  0  0  0
 71 73  2  0  0  0
 71 78  1  0  0  0
 71139  1  0  0  0
 72 74  1  0  0  0
 72 77  2  0  0  0
 72140  1  0  0  0
 73 75  1  0  0  0
 73 77  1  0  0  0
 74 76  1  0  0  0
 74 78  2  0  0  0
 75 79  1  0  0  0
 75141  1  0  0  0
 75142  1  0  0  0
 76143  1  0  0  0
 76144  1  0  0  0
 79145  1  0  0  0
M  ISO  4   1 100  68 101  76 101  79 100
M  END
> <chiral flag>
0

> <version>
0

> <s_m_source_file>
/data/baiqing/PycharmProjects/Reinvent-master-3.2/result/LINK_invent/BTK/process_docking_weight1_custom_sum_contain_oxygen_bond_distance_aromatic_linkinvent_7_9_3/rearranged_h_0071.sdf

> <i_m_source_file_index>
49

> <r_mmod_Potential_Energy-OPLS-2005>
1152.01684570312

> <r_mmod_Stretch_Energy-OPLS-2005>
491.399719238281

> <r_mmod_Bend_Energy-OPLS-2005>
425.907958984375

> <r_mmod_Torsional_Energy-OPLS-2005>
221.702178955078

> <r_mmod_Improper_Torsional_Energy-OPLS-2005>
9.51778602600098

> <r_mmod_Van_der_Waal_Energy-OPLS-2005>
134.639434814453

> <r_mmod_Electrostatic_Energy-OPLS-2005>
-310.6953125

> <r_mmod_Solvation_Energy-OPLS-2005>
-240.205139160156

> <b_mmod_Minimization_Converged-OPLS-2005>
0

> <r_mmod_RMS_Derivative-OPLS-2005>
0.432188928127289

$$$$
50
                    3D
 Structure written by MMmdl.
169177  0  0  1  0            999 V2000
  -30.6401  -14.7735   20.5211 C   0  0  0  0  0  0
  -30.4325  -12.4823   19.4978 C   0  0  0  0  0  0
  -29.5202  -12.4958   18.2556 C   0  0  0  0  0  0
  -28.0566  -12.3177   18.6744 C   0  0  0  0  0  0
  -27.6475  -13.2357   19.8543 C   0  0  2  0  0  0
  -28.6829  -13.1948   20.9978 C   0  0  0  0  0  0
  -25.2583  -13.8119   20.5829 C   0  0  0  0  0  0
  -24.1892  -13.0442   20.9325 C   0  0  0  0  0  0
  -24.6480  -11.6902   20.8722 C   0  0  0  0  0  0
  -23.9169  -10.4326   21.0379 C   0  0  0  0  0  0
  -24.3734   -9.4258   21.9135 C   0  0  0  0  0  0
  -23.6397   -8.2326   22.0789 C   0  0  0  0  0  0
  -22.4369   -8.0349   21.3571 C   0  0  0  0  0  0
  -21.9980   -9.0326   20.4679 C   0  0  0  0  0  0
  -22.7341  -10.2176   20.3036 C   0  0  0  0  0  0
  -21.6915   -6.0817   22.5260 C   0  0  0  0  0  0
  -21.4056   -6.5719   23.8192 C   0  0  0  0  0  0
  -21.3604   -5.6849   24.9115 C   0  0  0  0  0  0
  -21.6026   -4.3114   24.7166 C   0  0  0  0  0  0
  -21.8833   -3.8227   23.4282 C   0  0  0  0  0  0
  -21.9229   -4.7041   22.3362 C   0  0  0  0  0  0
  -22.7916  -13.5227   21.1920 C   0  0  0  0  0  0
  -22.1698   -4.2234   21.0934 F   0  0  0  0  0  0
  -21.5593   -3.4599   25.7680 F   0  0  0  0  0  0
  -29.9828  -13.5578   20.4236 N   0  0  0  0  0  0
  -26.2989  -12.9387   20.3235 N   0  0  0  0  0  0
  -25.9410  -11.6544   20.5695 N   0  0  0  0  0  0
  -22.0510  -12.8180   22.0340 N   0  0  0  0  0  0
  -25.4288  -15.1805   20.4199 N   0  0  0  0  0  0
  -31.7834  -14.8653   20.0711 O   0  0  0  0  0  0
  -21.6725   -6.8957   21.4243 O   0  0  0  0  0  0
  -22.3733  -14.5629   20.6818 O   0  0  0  0  0  0
  -24.6336  -31.8504   23.1890 C   0  0  0  0  0  0
  -25.9146  -32.4756   23.8282 C   0  0  1  0  0  0
  -27.2046  -27.2354   20.1421 C   0  0  0  0  0  0
  -25.5923  -33.8553   24.2213 N   0  0  0  0  0  0
  -23.4306  -30.4711   21.5350 C   0  0  2  0  0  0
  -24.8652  -28.9136   20.1076 C   0  0  0  0  0  0
  -22.7532  -29.4512   22.4865 C   0  0  0  0  0  0
  -18.0303  -28.1421   22.8504 C   0  0  0  0  0  0
  -24.1490  -36.7330   23.2633 C   0  0  0  0  0  0
  -25.9742  -30.7613   21.3614 C   0  0  0  0  0  0
  -26.0416  -29.3781   20.7146 C   0  0  0  0  0  0
  -27.2110  -28.5531   20.7120 C   0  0  0  0  0  0
  -26.0046  -26.8453   19.4998 C   0  0  0  0  0  0
  -24.8486  -27.6534   19.4922 C   0  0  0  0  0  0
  -23.6487  -29.8126   20.1488 C   0  0  0  0  0  0
  -25.4100  -36.3015   24.0275 C   0  0  1  0  0  0
  -20.5913  -28.3693   23.1292 C   0  0  2  0  0  0
  -20.6763  -26.9411   22.5447 C   0  0  0  0  0  0
  -19.5758  -26.6399   21.5205 C   0  0  0  0  0  0
  -18.1967  -26.7970   22.1652 C   0  0  0  0  0  0
  -19.1576  -28.8881   23.2846 C   0  0  0  0  0  0
  -18.9469  -30.1508   23.8807 C   0  0  0  0  0  0
  -17.6480  -30.6635   24.0547 C   0  0  0  0  0  0
  -25.9039  -34.9417   23.5025 C   0  0  0  0  0  0
  -16.5380  -29.9121   23.6336 C   0  0  0  0  0  0
  -16.7278  -28.6565   23.0304 C   0  0  0  0  0  0
  -26.4516  -31.6553   25.0690 C   0  0  0  0  0  0
  -25.3809  -31.3659   26.1485 C   0  0  0  0  0  0
  -27.0359  -30.2967   24.6119 C   0  0  0  0  0  0
  -27.6041  -32.4291   25.7532 C   0  0  0  0  0  0
  -27.5545  -37.1811   24.8436 C   0  0  0  0  0  0
  -21.4224  -29.2967   22.3593 N   0  0  0  0  0  0
  -26.4277  -37.3725   23.9361 N   0  0  0  0  0  0
  -24.7012  -31.0417   22.0893 N   0  0  0  0  0  0
  -23.4210  -28.8074   23.2997 O   0  0  0  0  0  0
  -28.3026  -26.3396   20.1981 O   0  0  0  0  0  0
  -26.5639  -34.8879   22.4606 O   0  0  0  0  0  0
  -23.5467  -32.1330   23.7158 O   0  0  0  0  0  0
  -30.2428  -18.4611   20.7117 C   0  0  0  0  0  0
  -29.6063  -17.2054   20.7250 C   0  0  0  0  0  0
  -28.1018  -18.8294   20.2514 C   0  0  0  0  0  0
  -25.9476  -19.4348   21.2911 C   0  0  0  0  0  0
  -25.9689  -18.3504   19.0151 C   0  0  0  0  0  0
  -26.6481  -20.6692   19.1437 C   0  0  0  0  0  0
  -28.0164  -22.1540   22.0660 C   0  0  0  0  0  0
  -30.4431  -22.2621   22.1885 C   0  0  0  0  0  0
  -29.2932  -23.7844   20.4600 C   0  0  0  0  0  0
  -29.5478  -21.0074   20.1573 C   0  0  0  0  0  0
  -28.0864  -24.8803   20.5517 C   0  0  0  0  0  0
  -26.7034  -19.3466   19.9404 C   0  0  0  0  0  0
  -29.2684  -22.2865   21.1640 C   0  0  0  0  0  0
  -29.2929  -19.4772   20.4333 N   0  0  0  0  0  0
  -28.2893  -17.5193   20.5338 N   0  3  0  0  0  0
  -30.0661  -15.8584   21.1839 N   0  0  0  0  0  0
  -31.4686  -12.6022   19.1845 H   0  0  0  0  0  0
  -30.3954  -11.5129   19.9911 H   0  0  0  0  0  0
  -29.8137  -11.7000   17.5682 H   0  0  0  0  0  0
  -29.6454  -13.4318   17.7153 H   0  0  0  0  0  0
  -27.9496  -11.2797   18.9852 H   0  0  0  0  0  0
  -27.3972  -12.4522   17.8181 H   0  0  0  0  0  0
  -27.6514  -14.2571   19.4709 H   0  0  0  0  0  0
  -28.7243  -12.2069   21.4602 H   0  0  0  0  0  0
  -28.4018  -13.8965   21.7855 H   0  0  0  0  0  0
  -25.2918   -9.5812   22.4602 H   0  0  0  0  0  0
  -24.0130   -7.4801   22.7564 H   0  0  0  0  0  0
  -21.0890   -8.8869   19.9051 H   0  0  0  0  0  0
  -22.3792  -10.9685   19.6109 H   0  0  0  0  0  0
  -21.2106   -7.6233   23.9709 H   0  0  0  0  0  0
  -21.1357   -6.0563   25.9004 H   0  0  0  0  0  0
  -22.0668   -2.7712   23.2726 H   0  0  0  0  0  0
  -22.4240  -11.9815   22.4602 H   0  0  0  0  0  0
  -21.1135  -13.1190   22.2684 H   0  0  0  0  0  0
  -24.5361  -15.6586   20.4328 H   0  0  0  0  0  0
  -25.9452  -15.4016   19.5811 H   0  0  0  0  0  0
  -26.7254  -32.5400   23.1050 H   0  0  0  0  0  0
  -25.0082  -33.9695   25.0376 H   0  0  0  0  0  0
  -22.7318  -31.2941   21.3857 H   0  0  0  0  0  0
  -23.3676  -35.9758   23.3305 H   0  0  0  0  0  0
  -24.3584  -36.8979   22.2051 H   0  0  0  0  0  0
  -23.7354  -37.6568   23.6705 H   0  0  0  0  0  0
  -26.0881  -31.5026   20.5707 H   0  0  0  0  0  0
  -26.8697  -30.8321   21.9682 H   0  0  0  0  0  0
  -28.1225  -28.8961   21.1795 H   0  0  0  0  0  0
  -25.9479  -25.8907   18.9984 H   0  0  0  0  0  0
  -23.9397  -27.2928   19.0191 H   0  0  0  0  0  0
  -23.8030  -30.5940   19.4013 H   0  0  0  0  0  0
  -22.7622  -29.2594   19.8284 H   0  0  0  0  0  0
  -25.1289  -36.1882   25.0784 H   0  0  0  0  0  0
  -20.9869  -28.3339   24.1484 H   0  0  0  0  0  0
  -20.5506  -26.2454   23.3749 H   0  0  0  0  0  0
  -21.6600  -26.7361   22.1218 H   0  0  0  0  0  0
  -19.6999  -25.6338   21.1179 H   0  0  0  0  0  0
  -19.6743  -27.3277   20.6761 H   0  0  0  0  0  0
  -17.4135  -26.6625   21.4137 H   0  0  0  0  0  0
  -18.0380  -26.0160   22.9087 H   0  0  0  0  0  0
  -19.7950  -30.7313   24.2147 H   0  0  0  0  0  0
  -17.4951  -31.6298   24.5233 H   0  0  0  0  0  0
  -15.5360  -30.3031   23.7646 H   0  0  0  0  0  0
  -15.8600  -28.0958   22.7029 H   0  0  0  0  0  0
  -24.5978  -30.6972   25.7864 H   0  0  0  0  0  0
  -24.9054  -32.2846   26.4961 H   0  0  0  0  0  0
  -25.8285  -30.8848   27.0224 H   0  0  0  0  0  0
  -26.2907  -29.6708   24.1176 H   0  0  0  0  0  0
  -27.4114  -29.7192   25.4581 H   0  0  0  0  0  0
  -27.8765  -30.4226   23.9279 H   0  0  0  0  0  0
  -27.2586  -33.3562   26.2137 H   0  0  0  0  0  0
  -28.3939  -32.6898   25.0468 H   0  0  0  0  0  0
  -28.0666  -31.8419   26.5494 H   0  0  0  0  0  0
  -28.2514  -38.0135   24.7409 H   0  0  0  0  0  0
  -28.1075  -36.2633   24.6348 H   0  0  0  0  0  0
  -27.2260  -37.1566   25.8845 H   0  0  0  0  0  0
  -20.9404  -29.8696   21.6828 H   0  0  0  0  0  0
  -26.0112  -38.2782   24.1449 H   0  0  0  0  0  0
  -31.2788  -18.7158   20.8709 H   0  0  0  0  0  0
  -25.3682  -18.5376   21.5086 H   0  0  0  0  0  0
  -25.2711  -20.2832   21.3395 H   0  0  0  0  0  0
  -26.6384  -19.5223   22.1263 H   0  0  0  0  0  0
  -25.6457  -17.4554   19.5248 H   0  0  0  0  0  0
  -26.5935  -18.0440   18.1767 H   0  0  0  0  0  0
  -25.0618  -18.7782   18.5944 H   0  0  0  0  0  0
  -27.0125  -21.5404   19.6693 H   0  0  0  0  0  0
  -25.6242  -20.9283   18.8807 H   0  0  0  0  0  0
  -27.1742  -20.5850   18.1934 H   0  0  0  0  0  0
  -27.9536  -21.1671   22.5228 H   0  0  0  0  0  0
  -27.0719  -22.3691   21.5686 H   0  0  0  0  0  0
  -28.0809  -22.8620   22.8956 H   0  0  0  0  0  0
  -30.4459  -23.1408   22.8421 H   0  0  0  0  0  0
  -31.4193  -22.2442   21.7018 H   0  0  0  0  0  0
  -30.3861  -21.3934   22.8476 H   0  0  0  0  0  0
  -30.1695  -24.3011   20.8638 H   0  0  0  0  0  0
  -29.5423  -23.6537   19.4051 H   0  0  0  0  0  0
  -30.5998  -21.0665   19.8831 H   0  0  0  0  0  0
  -29.0924  -21.2168   19.1949 H   0  0  0  0  0  0
  -27.7298  -24.8741   21.5808 H   0  0  0  0  0  0
  -27.2507  -24.4769   19.9793 H   0  0  0  0  0  0
  -27.5199  -16.8696   20.6465 H   0  0  0  0  0  0
  -30.6431  -15.9926   22.0001 H   0  0  0  0  0  0
  1 25  1  0  0  0
  1 30  2  0  0  0
  1 86  1  0  0  0
  2  3  1  0  0  0
  2 25  1  0  0  0
  2 87  1  0  0  0
  2 88  1  0  0  0
  3  4  1  0  0  0
  3 89  1  0  0  0
  3 90  1  0  0  0
  4  5  1  0  0  0
  4 91  1  0  0  0
  4 92  1  0  0  0
  5  6  1  0  0  0
  5 26  1  0  0  0
  5 93  1  0  0  0
  6 25  1  0  0  0
  6 94  1  0  0  0
  6 95  1  0  0  0
  7  8  2  0  0  0
  7 26  1  0  0  0
  7 29  1  0  0  0
  8  9  1  0  0  0
  8 22  1  0  0  0
  9 10  1  0  0  0
  9 27  2  0  0  0
 10 11  2  0  0  0
 10 15  1  0  0  0
 11 12  1  0  0  0
 11 96  1  0  0  0
 12 13  2  0  0  0
 12 97  1  0  0  0
 13 14  1  0  0  0
 13 31  1  0  0  0
 14 15  2  0  0  0
 14 98  1  0  0  0
 15 99  1  0  0  0
 16 17  2  0  0  0
 16 21  1  0  0  0
 16 31  1  0  0  0
 17 18  1  0  0  0
 17100  1  0  0  0
 18 19  2  0  0  0
 18101  1  0  0  0
 19 20  1  0  0  0
 19 24  1  0  0  0
 20 21  2  0  0  0
 20102  1  0  0  0
 21 23  1  0  0  0
 22 28  1  0  0  0
 22 32  2  0  0  0
 26 27  1  0  0  0
 28103  1  0  0  0
 28104  1  0  0  0
 29105  1  0  0  0
 29106  1  0  0  0
 33 34  1  0  0  0
 33 66  1  0  0  0
 33 70  2  0  0  0
 34 36  1  0  0  0
 34 59  1  0  0  0
 34107  1  0  0  0
 35 44  2  0  0  0
 35 45  1  0  0  0
 35 68  1  0  0  0
 36 56  1  0  0  0
 36108  1  0  0  0
 37 39  1  0  0  0
 37 47  1  0  0  0
 37 66  1  0  0  0
 37109  1  0  0  0
 38 43  2  0  0  0
 38 46  1  0  0  0
 38 47  1  0  0  0
 39 64  1  0  0  0
 39 67  2  0  0  0
 40 52  1  0  0  0
 40 53  2  0  0  0
 40 58  1  0  0  0
 41110  1  0  0  0
 41111  1  0  0  0
 41112  1  0  0  0
 41 48  1  0  0  0
 42 43  1  0  0  0
 42 66  1  0  0  0
 42113  1  0  0  0
 42114  1  0  0  0
 43 44  1  0  0  0
 44115  1  0  0  0
 45 46  2  0  0  0
 45116  1  0  0  0
 46117  1  0  0  0
 47118  1  0  0  0
 47119  1  0  0  0
 48 56  1  0  0  0
 48 65  1  0  0  0
 48120  1  0  0  0
 49 50  1  0  0  0
 49 53  1  0  0  0
 49 64  1  0  0  0
 49121  1  0  0  0
 50 51  1  0  0  0
 50122  1  0  0  0
 50123  1  0  0  0
 51 52  1  0  0  0
 51124  1  0  0  0
 51125  1  0  0  0
 52126  1  0  0  0
 52127  1  0  0  0
 53 54  1  0  0  0
 54 55  2  0  0  0
 54128  1  0  0  0
 55 57  1  0  0  0
 55129  1  0  0  0
 56 69  2  0  0  0
 57 58  2  0  0  0
 57130  1  0  0  0
 58131  1  0  0  0
 59 60  1  0  0  0
 59 61  1  0  0  0
 59 62  1  0  0  0
 60132  1  0  0  0
 60133  1  0  0  0
 60134  1  0  0  0
 61135  1  0  0  0
 61136  1  0  0  0
 61137  1  0  0  0
 62138  1  0  0  0
 62139  1  0  0  0
 62140  1  0  0  0
 63 65  1  0  0  0
 63141  1  0  0  0
 63142  1  0  0  0
 63143  1  0  0  0
 64144  1  0  0  0
 65145  1  0  0  0
 68 81  1  0  0  0
 71 72  2  0  0  0
 71 84  1  0  0  0
 71146  1  0  0  0
 72 85  1  0  0  0
 72 86  1  0  0  0
 73 82  1  0  0  0
 73 84  1  0  0  0
 73 85  2  0  0  0
 74147  1  0  0  0
 74148  1  0  0  0
 74149  1  0  0  0
 74 82  1  0  0  0
 75 82  1  0  0  0
 75150  1  0  0  0
 75151  1  0  0  0
 75152  1  0  0  0
 76 82  1  0  0  0
 76153  1  0  0  0
 76154  1  0  0  0
 76155  1  0  0  0
 77156  1  0  0  0
 77157  1  0  0  0
 77158  1  0  0  0
 77 83  1  0  0  0
 78 83  1  0  0  0
 78159  1  0  0  0
 78160  1  0  0  0
 78161  1  0  0  0
 79 81  1  0  0  0
 79 83  1  0  0  0
 79162  1  0  0  0
 79163  1  0  0  0
 80 83  1  0  0  0
 80 84  1  0  0  0
 80164  1  0  0  0
 80165  1  0  0  0
 81166  1  0  0  0
 81167  1  0  0  0
 85168  1  0  0  0
 86169  1  0  0  0
M  CHG  1  85   1
M  ISO  4   1 100  68 101  81 101  86 100
M  END
> <chiral flag>
0

> <version>
0

> <s_m_source_file>
/data/baiqing/PycharmProjects/Reinvent-master-3.2/result/LINK_invent/BTK/process_docking_weight1_custom_sum_contain_oxygen_bond_distance_aromatic_linkinvent_7_9_3/rearranged_h_0071.sdf

> <i_m_source_file_index>
50

> <r_mmod_Potential_Energy-OPLS-2005>
360.088958740234

> <r_mmod_Stretch_Energy-OPLS-2005>
160.904220581055

> <r_mmod_Bend_Energy-OPLS-2005>
249.662658691406

> <r_mmod_Torsional_Energy-OPLS-2005>
364.750823974609

> <r_mmod_Improper_Torsional_Energy-OPLS-2005>
16.8606014251709

> <r_mmod_Van_der_Waal_Energy-OPLS-2005>
127.142990112305

> <r_mmod_Electrostatic_Energy-OPLS-2005>
-261.925231933594

> <r_mmod_Solvation_Energy-OPLS-2005>
-395.426239013672

> <b_mmod_Minimization_Converged-OPLS-2005>
0

> <r_mmod_RMS_Derivative-OPLS-2005>
10.5290336608887

$$$$
51
                    3D
 Structure written by MMmdl.
162170  0  0  1  0            999 V2000
  -30.6447  -14.9747   20.3942 C   0  0  0  0  0  0
  -30.4009  -12.6026   19.5325 C   0  0  0  0  0  0
  -29.5185  -12.5195   18.2708 C   0  0  0  0  0  0
  -28.0504  -12.3116   18.6750 C   0  0  0  0  0  0
  -27.6086  -13.2742   19.8089 C   0  0  2  0  0  0
  -28.6386  -13.4027   20.9473 C   0  0  0  0  0  0
  -25.2390  -13.8274   20.5726 C   0  0  0  0  0  0
  -24.1736  -13.0467   20.9238 C   0  0  0  0  0  0
  -24.6392  -11.6962   20.8746 C   0  0  0  0  0  0
  -23.9098  -10.4305   21.0378 C   0  0  0  0  0  0
  -24.3652   -9.4214   21.9147 C   0  0  0  0  0  0
  -23.6319   -8.2251   22.0734 C   0  0  0  0  0  0
  -22.4298   -8.0283   21.3529 C   0  0  0  0  0  0
  -21.9930   -9.0256   20.4631 C   0  0  0  0  0  0
  -22.7267  -10.2135   20.3027 C   0  0  0  0  0  0
  -21.6865   -6.0731   22.5270 C   0  0  0  0  0  0
  -21.4022   -6.5635   23.8207 C   0  0  0  0  0  0
  -21.3666   -5.6785   24.9168 C   0  0  0  0  0  0
  -21.6049   -4.3051   24.7220 C   0  0  0  0  0  0
  -21.8817   -3.8141   23.4342 C   0  0  0  0  0  0
  -21.9199   -4.6957   22.3393 C   0  0  0  0  0  0
  -22.7755  -13.5213   21.1887 C   0  0  0  0  0  0
  -22.1661   -4.2138   21.0965 F   0  0  0  0  0  0
  -21.5640   -3.4529   25.7730 F   0  0  0  0  0  0
  -29.9248  -13.7706   20.3481 N   0  0  0  0  0  0
  -26.2793  -12.9554   20.3136 N   0  0  0  0  0  0
  -25.9318  -11.6668   20.5678 N   0  0  0  0  0  0
  -22.0431  -12.8194   22.0450 N   0  0  0  0  0  0
  -25.4082  -15.2005   20.4220 N   0  0  0  0  0  0
  -31.8568  -14.8262   20.1675 O   0  0  0  0  0  0
  -21.6664   -6.8874   21.4228 O   0  0  0  0  0  0
  -22.3423  -14.5505   20.6709 O   0  0  0  0  0  0
  -24.6465  -31.8424   23.1867 C   0  0  0  0  0  0
  -25.9226  -32.4684   23.8275 C   0  0  1  0  0  0
  -27.2013  -27.1138   20.1539 C   0  0  0  0  0  0
  -25.5967  -33.8499   24.2191 N   0  0  0  0  0  0
  -23.4493  -30.4619   21.5343 C   0  0  2  0  0  0
  -24.8941  -28.8804   20.1143 C   0  0  0  0  0  0
  -22.7572  -29.4550   22.4866 C   0  0  0  0  0  0
  -18.0300  -28.1393   22.8474 C   0  0  0  0  0  0
  -24.1495  -36.7257   23.2641 C   0  0  0  0  0  0
  -26.0070  -30.7097   21.3866 C   0  0  0  0  0  0
  -26.0745  -29.3176   20.7291 C   0  0  0  0  0  0
  -27.2350  -28.4526   20.7244 C   0  0  0  0  0  0
  -25.9968  -26.7780   19.5070 C   0  0  0  0  0  0
  -24.8681  -27.6252   19.4867 C   0  0  0  0  0  0
  -23.6746  -29.7888   20.1547 C   0  0  0  0  0  0
  -25.4129  -36.3037   24.0314 C   0  0  1  0  0  0
  -20.5914  -28.3724   23.1234 C   0  0  2  0  0  0
  -20.6776  -26.9426   22.5419 C   0  0  0  0  0  0
  -19.5765  -26.6376   21.5211 C   0  0  0  0  0  0
  -18.1935  -26.7933   22.1601 C   0  0  0  0  0  0
  -19.1556  -28.8876   23.2843 C   0  0  0  0  0  0
  -18.9470  -30.1467   23.8881 C   0  0  0  0  0  0
  -17.6469  -30.6586   24.0557 C   0  0  0  0  0  0
  -25.9088  -34.9407   23.5063 C   0  0  0  0  0  0
  -16.5361  -29.9084   23.6328 C   0  0  0  0  0  0
  -16.7283  -28.6497   23.0357 C   0  0  0  0  0  0
  -26.4532  -31.6556   25.0728 C   0  0  0  0  0  0
  -25.3706  -31.3764   26.1417 C   0  0  0  0  0  0
  -27.0377  -30.2936   24.6331 C   0  0  0  0  0  0
  -27.6078  -32.4316   25.7513 C   0  0  0  0  0  0
  -27.5590  -37.1784   24.8452 C   0  0  0  0  0  0
  -21.4269  -29.3048   22.3608 N   0  0  0  0  0  0
  -26.4294  -37.3751   23.9406 N   0  0  0  0  0  0
  -24.7213  -31.0270   22.0904 N   0  0  0  0  0  0
  -23.4200  -28.8096   23.3025 O   0  0  0  0  0  0
  -28.2486  -26.1218   20.1520 O   0  0  0  0  0  0
  -26.5673  -34.8907   22.4648 O   0  0  0  0  0  0
  -23.5581  -32.1318   23.7073 O   0  0  0  0  0  0
  -29.5475  -18.7176   20.3515 C   0  0  0  0  0  0
  -30.9232  -18.6190   20.7135 C   0  0  0  0  0  0
  -31.5860  -19.9660   23.3414 C   0  0  0  0  0  0
  -32.4100  -19.6478   18.2461 C   0  0  0  0  0  0
  -28.8124  -20.1249   19.8570 C   0  0  0  0  0  0
  -32.5897  -19.8567   22.1823 C   0  0  0  0  0  0
  -32.9930  -19.6390   19.6703 C   0  0  0  0  0  0
  -28.7179  -21.6497   20.6153 C   0  0  0  0  0  0
  -28.5274  -23.1709   19.8620 C   0  0  0  0  0  0
  -28.0186  -24.6294   20.5752 C   0  0  0  0  0  0
  -31.9337  -19.7410   20.7901 C   0  0  0  0  0  0
  -29.1422  -17.4007   20.2687 N   0  0  0  0  0  0
  -31.3094  -17.3662   20.8740 N   0  0  0  0  0  0
  -30.2609  -16.5315   20.5637 N   0  0  0  0  0  0
  -31.4471  -12.6768   19.2343 H   0  0  0  0  0  0
  -30.3347  -11.6790   20.1106 H   0  0  0  0  0  0
  -29.8510  -11.7016   17.6294 H   0  0  0  0  0  0
  -29.6201  -13.4342   17.6846 H   0  0  0  0  0  0
  -27.9505  -11.2777   19.0090 H   0  0  0  0  0  0
  -27.3980  -12.4163   17.8065 H   0  0  0  0  0  0
  -27.5433  -14.2555   19.3377 H   0  0  0  0  0  0
  -28.7203  -12.4743   21.5162 H   0  0  0  0  0  0
  -28.3258  -14.1757   21.6512 H   0  0  0  0  0  0
  -25.2782   -9.5715   22.4743 H   0  0  0  0  0  0
  -24.0030   -7.4652   22.7467 H   0  0  0  0  0  0
  -21.0849   -8.8777   19.8949 H   0  0  0  0  0  0
  -22.3689  -10.9684   19.6157 H   0  0  0  0  0  0
  -21.2008   -7.6145   23.9715 H   0  0  0  0  0  0
  -21.1496   -6.0510   25.9076 H   0  0  0  0  0  0
  -22.0594   -2.7602   23.2837 H   0  0  0  0  0  0
  -22.4080  -11.9887   22.4862 H   0  0  0  0  0  0
  -21.1034  -13.1176   22.2640 H   0  0  0  0  0  0
  -24.6512  -15.8614   20.5558 H   0  0  0  0  0  0
  -26.2715  -15.6425   20.1306 H   0  0  0  0  0  0
  -26.7298  -32.5281   23.1009 H   0  0  0  0  0  0
  -25.0068  -33.9610   25.0304 H   0  0  0  0  0  0
  -22.7537  -31.2897   21.3779 H   0  0  0  0  0  0
  -23.3775  -35.9571   23.3272 H   0  0  0  0  0  0
  -24.3580  -36.8924   22.2062 H   0  0  0  0  0  0
  -23.7226  -37.6434   23.6703 H   0  0  0  0  0  0
  -26.1670  -31.4630   20.6138 H   0  0  0  0  0  0
  -26.8763  -30.7589   22.0311 H   0  0  0  0  0  0
  -28.1427  -28.7869   21.2069 H   0  0  0  0  0  0
  -25.9144  -25.8171   19.0186 H   0  0  0  0  0  0
  -23.9671  -27.2881   18.9927 H   0  0  0  0  0  0
  -23.8161  -30.5617   19.3987 H   0  0  0  0  0  0
  -22.7877  -29.2348   19.8436 H   0  0  0  0  0  0
  -25.1321  -36.1867   25.0804 H   0  0  0  0  0  0
  -21.0000  -28.3321   24.1357 H   0  0  0  0  0  0
  -20.5626  -26.2359   23.3649 H   0  0  0  0  0  0
  -21.6651  -26.7405   22.1248 H   0  0  0  0  0  0
  -19.6929  -25.6277   21.1263 H   0  0  0  0  0  0
  -19.6711  -27.3166   20.6724 H   0  0  0  0  0  0
  -17.4221  -26.6705   21.3985 H   0  0  0  0  0  0
  -18.0312  -26.0067   22.8984 H   0  0  0  0  0  0
  -19.7950  -30.7276   24.2256 H   0  0  0  0  0  0
  -17.5023  -31.6265   24.5165 H   0  0  0  0  0  0
  -15.5360  -30.2980   23.7659 H   0  0  0  0  0  0
  -15.8681  -28.0800   22.7100 H   0  0  0  0  0  0
  -24.5927  -30.7052   25.7752 H   0  0  0  0  0  0
  -24.8833  -32.2939   26.4733 H   0  0  0  0  0  0
  -25.7983  -30.9037   27.0265 H   0  0  0  0  0  0
  -26.2982  -29.6666   24.1327 H   0  0  0  0  0  0
  -27.3940  -29.7241   25.4926 H   0  0  0  0  0  0
  -27.8924  -30.4138   23.9670 H   0  0  0  0  0  0
  -27.2682  -33.3633   26.2050 H   0  0  0  0  0  0
  -28.3912  -32.6840   25.0355 H   0  0  0  0  0  0
  -28.0717  -31.8457   26.5458 H   0  0  0  0  0  0
  -28.2593  -38.0095   24.7522 H   0  0  0  0  0  0
  -28.1103  -36.2632   24.6247 H   0  0  0  0  0  0
  -27.2320  -37.1386   25.8855 H   0  0  0  0  0  0
  -20.9485  -29.8770   21.6785 H   0  0  0  0  0  0
  -26.0163  -38.2823   24.1415 H   0  0  0  0  0  0
  -32.1022  -20.1281   24.2886 H   0  0  0  0  0  0
  -30.9990  -19.0528   23.4418 H   0  0  0  0  0  0
  -30.8939  -20.7945   23.1928 H   0  0  0  0  0  0
  -33.2065  -19.5983   17.5037 H   0  0  0  0  0  0
  -31.8418  -20.5585   18.0553 H   0  0  0  0  0  0
  -31.7518  -18.7961   18.0697 H   0  0  0  0  0  0
  -27.7899  -19.8671   19.5824 H   0  0  0  0  0  0
  -29.2704  -20.3512   18.8943 H   0  0  0  0  0  0
  -33.2308  -18.9903   22.3532 H   0  0  0  0  0  0
  -33.2498  -20.7251   22.1992 H   0  0  0  0  0  0
  -33.6953  -20.4683   19.7641 H   0  0  0  0  0  0
  -33.5813  -18.7293   19.8050 H   0  0  0  0  0  0
  -29.6114  -21.7554   21.2260 H   0  0  0  0  0  0
  -27.9168  -21.5627   21.3496 H   0  0  0  0  0  0
  -27.8485  -23.0066   19.0249 H   0  0  0  0  0  0
  -29.4826  -23.3853   19.3817 H   0  0  0  0  0  0
  -28.4431  -24.6039   21.5785 H   0  0  0  0  0  0
  -26.9492  -24.5153   20.7544 H   0  0  0  0  0  0
  -31.4238  -20.6862   20.6160 H   0  0  0  0  0  0
  1 25  1  0  0  0
  1 30  2  0  0  0
  1 84  1  0  0  0
  2  3  1  0  0  0
  2 25  1  0  0  0
  2 85  1  0  0  0
  2 86  1  0  0  0
  3  4  1  0  0  0
  3 87  1  0  0  0
  3 88  1  0  0  0
  4  5  1  0  0  0
  4 89  1  0  0  0
  4 90  1  0  0  0
  5  6  1  0  0  0
  5 26  1  0  0  0
  5 91  1  0  0  0
  6 25  1  0  0  0
  6 92  1  0  0  0
  6 93  1  0  0  0
  7  8  2  0  0  0
  7 26  1  0  0  0
  7 29  1  0  0  0
  8  9  1  0  0  0
  8 22  1  0  0  0
  9 10  1  0  0  0
  9 27  2  0  0  0
 10 11  2  0  0  0
 10 15  1  0  0  0
 11 12  1  0  0  0
 11 94  1  0  0  0
 12 13  2  0  0  0
 12 95  1  0  0  0
 13 14  1  0  0  0
 13 31  1  0  0  0
 14 15  2  0  0  0
 14 96  1  0  0  0
 15 97  1  0  0  0
 16 17  2  0  0  0
 16 21  1  0  0  0
 16 31  1  0  0  0
 17 18  1  0  0  0
 17 98  1  0  0  0
 18 19  2  0  0  0
 18 99  1  0  0  0
 19 20  1  0  0  0
 19 24  1  0  0  0
 20 21  2  0  0  0
 20100  1  0  0  0
 21 23  1  0  0  0
 22 28  1  0  0  0
 22 32  2  0  0  0
 26 27  1  0  0  0
 28101  1  0  0  0
 28102  1  0  0  0
 29103  1  0  0  0
 29104  1  0  0  0
 33 34  1  0  0  0
 33 66  1  0  0  0
 33 70  2  0  0  0
 34 36  1  0  0  0
 34 59  1  0  0  0
 34105  1  0  0  0
 35 44  2  0  0  0
 35 45  1  0  0  0
 35 68  1  0  0  0
 36 56  1  0  0  0
 36106  1  0  0  0
 37 39  1  0  0  0
 37 47  1  0  0  0
 37 66  1  0  0  0
 37107  1  0  0  0
 38 43  2  0  0  0
 38 46  1  0  0  0
 38 47  1  0  0  0
 39 64  1  0  0  0
 39 67  2  0  0  0
 40 52  1  0  0  0
 40 53  2  0  0  0
 40 58  1  0  0  0
 41108  1  0  0  0
 41109  1  0  0  0
 41110  1  0  0  0
 41 48  1  0  0  0
 42 43  1  0  0  0
 42 66  1  0  0  0
 42111  1  0  0  0
 42112  1  0  0  0
 43 44  1  0  0  0
 44113  1  0  0  0
 45 46  2  0  0  0
 45114  1  0  0  0
 46115  1  0  0  0
 47116  1  0  0  0
 47117  1  0  0  0
 48 56  1  0  0  0
 48 65  1  0  0  0
 48118  1  0  0  0
 49 50  1  0  0  0
 49 53  1  0  0  0
 49 64  1  0  0  0
 49119  1  0  0  0
 50 51  1  0  0  0
 50120  1  0  0  0
 50121  1  0  0  0
 51 52  1  0  0  0
 51122  1  0  0  0
 51123  1  0  0  0
 52124  1  0  0  0
 52125  1  0  0  0
 53 54  1  0  0  0
 54 55  2  0  0  0
 54126  1  0  0  0
 55 57  1  0  0  0
 55127  1  0  0  0
 56 69  2  0  0  0
 57 58  2  0  0  0
 57128  1  0  0  0
 58129  1  0  0  0
 59 60  1  0  0  0
 59 61  1  0  0  0
 59 62  1  0  0  0
 60130  1  0  0  0
 60131  1  0  0  0
 60132  1  0  0  0
 61133  1  0  0  0
 61134  1  0  0  0
 61135  1  0  0  0
 62136  1  0  0  0
 62137  1  0  0  0
 62138  1  0  0  0
 63 65  1  0  0  0
 63139  1  0  0  0
 63140  1  0  0  0
 63141  1  0  0  0
 64142  1  0  0  0
 65143  1  0  0  0
 68 80  1  0  0  0
 71 72  1  0  0  0
 71 75  1  0  0  0
 71 82  2  0  0  0
 72 81  1  0  0  0
 72 83  2  0  0  0
 73 76  1  0  0  0
 73144  1  0  0  0
 73145  1  0  0  0
 73146  1  0  0  0
 74 77  1  0  0  0
 74147  1  0  0  0
 74148  1  0  0  0
 74149  1  0  0  0
 75 78  1  0  0  0
 75150  1  0  0  0
 75151  1  0  0  0
 76152  1  0  0  0
 76153  1  0  0  0
 76 81  1  0  0  0
 77 81  1  0  0  0
 77154  1  0  0  0
 77155  1  0  0  0
 78 79  1  0  0  0
 78156  1  0  0  0
 78157  1  0  0  0
 79 80  1  0  0  0
 79158  1  0  0  0
 79159  1  0  0  0
 80160  1  0  0  0
 80161  1  0  0  0
 81162  1  0  0  0
 82 84  1  0  0  0
 83 84  1  0  0  0
M  ISO  4   1 100  68 101  80 101  84 100
M  END
> <chiral flag>
0

> <version>
0

> <s_m_source_file>
/data/baiqing/PycharmProjects/Reinvent-master-3.2/result/LINK_invent/BTK/process_docking_weight1_custom_sum_contain_oxygen_bond_distance_aromatic_linkinvent_7_9_3/rearranged_h_0071.sdf

> <i_m_source_file_index>
51

> <r_mmod_Potential_Energy-OPLS-2005>
886.336547851562

> <r_mmod_Stretch_Energy-OPLS-2005>
319.421051025391

> <r_mmod_Bend_Energy-OPLS-2005>
353.310028076172

> <r_mmod_Torsional_Energy-OPLS-2005>
207.757781982422

> <r_mmod_Improper_Torsional_Energy-OPLS-2005>
4.78839731216431

> <r_mmod_Van_der_Waal_Energy-OPLS-2005>
107.595413208008

> <r_mmod_Electrostatic_Energy-OPLS-2005>
-123.631546020508

> <r_mmod_Solvation_Energy-OPLS-2005>
-198.185012817383

> <b_mmod_Minimization_Converged-OPLS-2005>
0

> <r_mmod_RMS_Derivative-OPLS-2005>
2.12715768814087

$$$$
52
                    3D
 Structure written by MMmdl.
173181  0  0  1  0            999 V2000
  -30.6904  -14.6159   20.4300 C   0  0  0  0  0  0
  -30.4262  -12.3554   19.4733 C   0  0  0  0  0  0
  -29.5098  -12.4532   18.2341 C   0  0  0  0  0  0
  -28.0325  -12.2962   18.6452 C   0  0  0  0  0  0
  -27.6419  -13.2086   19.8366 C   0  0  2  0  0  0
  -28.6901  -13.1505   20.9721 C   0  0  0  0  0  0
  -25.2544  -13.8127   20.5649 C   0  0  0  0  0  0
  -24.1823  -13.0408   20.9189 C   0  0  0  0  0  0
  -24.6378  -11.6885   20.8741 C   0  0  0  0  0  0
  -23.9041  -10.4276   21.0406 C   0  0  0  0  0  0
  -24.3599   -9.4201   21.9183 C   0  0  0  0  0  0
  -23.6281   -8.2240   22.0757 C   0  0  0  0  0  0
  -22.4263   -8.0268   21.3552 C   0  0  0  0  0  0
  -21.9903   -9.0234   20.4649 C   0  0  0  0  0  0
  -22.7216  -10.2112   20.3056 C   0  0  0  0  0  0
  -21.6857   -6.0714   22.5270 C   0  0  0  0  0  0
  -21.4007   -6.5622   23.8198 C   0  0  0  0  0  0
  -21.3657   -5.6785   24.9163 C   0  0  0  0  0  0
  -21.6049   -4.3049   24.7232 C   0  0  0  0  0  0
  -21.8823   -3.8127   23.4353 C   0  0  0  0  0  0
  -21.9198   -4.6939   22.3400 C   0  0  0  0  0  0
  -22.7848  -13.5219   21.1848 C   0  0  0  0  0  0
  -22.1666   -4.2126   21.0983 F   0  0  0  0  0  0
  -21.5638   -3.4536   25.7748 F   0  0  0  0  0  0
  -30.0182  -13.4220   20.4099 N   0  0  0  0  0  0
  -26.2951  -12.9290   20.3218 N   0  0  0  0  0  0
  -25.9302  -11.6463   20.5738 N   0  0  0  0  0  0
  -22.0497  -12.8212   22.0392 N   0  0  0  0  0  0
  -25.4236  -15.1844   20.4018 N   0  0  0  0  0  0
  -31.9101  -14.6270   20.2402 O   0  0  0  0  0  0
  -21.6640   -6.8853   21.4233 O   0  0  0  0  0  0
  -22.3551  -14.5539   20.6690 O   0  0  0  0  0  0
  -24.6188  -31.8647   23.2130 C   0  0  0  0  0  0
  -25.9057  -32.4812   23.8397 C   0  0  1  0  0  0
  -27.2183  -27.3724   20.1163 C   0  0  0  0  0  0
  -25.5919  -33.8614   24.2307 N   0  0  0  0  0  0
  -23.4095  -30.4915   21.5528 C   0  0  2  0  0  0
  -24.8553  -28.9594   20.1088 C   0  0  0  0  0  0
  -22.7439  -29.4630   22.4967 C   0  0  0  0  0  0
  -18.0290  -28.1343   22.8456 C   0  0  0  0  0  0
  -24.1487  -36.7266   23.2642 C   0  0  0  0  0  0
  -25.9466  -30.8113   21.3784 C   0  0  0  0  0  0
  -26.0220  -29.4447   20.7171 C   0  0  0  0  0  0
  -27.2082  -28.6621   20.7132 C   0  0  0  0  0  0
  -26.0396  -26.9389   19.4656 C   0  0  0  0  0  0
  -24.8650  -27.7082   19.4737 C   0  0  0  0  0  0
  -23.6233  -29.8349   20.1636 C   0  0  0  0  0  0
  -25.4115  -36.3086   24.0345 C   0  0  1  0  0  0
  -20.5896  -28.3635   23.1294 C   0  0  2  0  0  0
  -20.6803  -26.9374   22.5397 C   0  0  0  0  0  0
  -19.5776  -26.6354   21.5188 C   0  0  0  0  0  0
  -18.1942  -26.7881   22.1592 C   0  0  0  0  0  0
  -19.1551  -28.8804   23.2868 C   0  0  0  0  0  0
  -18.9489  -30.1409   23.8868 C   0  0  0  0  0  0
  -17.6508  -30.6566   24.0540 C   0  0  0  0  0  0
  -25.9055  -34.9468   23.5112 C   0  0  0  0  0  0
  -16.5372  -29.9057   23.6342 C   0  0  0  0  0  0
  -16.7286  -28.6484   23.0321 C   0  0  0  0  0  0
  -26.4476  -31.6603   25.0725 C   0  0  0  0  0  0
  -25.3728  -31.3740   26.1468 C   0  0  0  0  0  0
  -27.0319  -30.3067   24.6092 C   0  0  0  0  0  0
  -27.6030  -32.4343   25.7483 C   0  0  0  0  0  0
  -27.5577  -37.1784   24.8481 C   0  0  0  0  0  0
  -21.4174  -29.3010   22.3695 N   0  0  0  0  0  0
  -26.4300  -37.3775   23.9422 N   0  0  0  0  0  0
  -24.6760  -31.0690   22.1058 N   0  0  0  0  0  0
  -23.4191  -28.8143   23.3011 O   0  0  0  0  0  0
  -28.3339  -26.5405   20.1672 O   0  0  0  0  0  0
  -26.5590  -34.8919   22.4668 O   0  0  0  0  0  0
  -23.5359  -32.1412   23.7478 O   0  0  0  0  0  0
  -29.8342  -18.7532   23.4976 C   0  0  0  0  0  0
  -29.8690  -17.3703   23.6730 C   0  0  0  0  0  0
  -29.8967  -19.2649   22.1937 C   0  0  0  0  0  0
  -30.0098  -17.0515   21.4010 C   0  0  0  0  0  0
  -29.8528  -16.7487   25.0514 C   0  0  0  0  0  0
  -31.5518  -21.1631   22.2761 C   0  0  0  0  0  0
  -29.6728  -24.0558   19.0154 C   0  0  0  0  0  0
  -30.3701  -24.5216   21.3957 C   0  0  0  0  0  0
  -30.5041  -16.6099   18.8978 C   0  0  0  0  0  0
  -28.6383  -22.6634   20.9272 C   0  0  0  0  0  0
  -28.0614  -25.1677   20.6056 C   0  0  0  0  0  0
  -30.0658  -20.8101   22.0533 C   0  0  1  0  0  0
  -29.9493  -16.0113   20.2295 C   0  0  1  0  0  0
  -29.2050  -24.0859   20.4860 C   0  0  0  0  0  0
  -29.9494  -16.5379   22.6257 N   0  0  0  0  0  0
  -29.9538  -18.3935   21.1343 N   0  0  0  0  0  0
  -29.6757  -17.6750   18.2895 N   0  3  0  0  0  0
  -29.5125  -21.4322   20.8112 N   0  3  0  0  0  0
  -31.4742  -12.4278   19.1774 H   0  0  0  0  0  0
  -30.3218  -11.3784   19.9493 H   0  0  0  0  0  0
  -29.7753  -11.6791   17.5127 H   0  0  0  0  0  0
  -29.6597  -13.4081   17.7292 H   0  0  0  0  0  0
  -27.8791  -11.2500   18.9159 H   0  0  0  0  0  0
  -27.3790  -12.4814   17.7929 H   0  0  0  0  0  0
  -27.6231  -14.2142   19.4266 H   0  0  0  0  0  0
  -28.6859  -12.1671   21.4448 H   0  0  0  0  0  0
  -28.4508  -13.8668   21.7589 H   0  0  0  0  0  0
  -25.2747   -9.5681   22.4754 H   0  0  0  0  0  0
  -23.9989   -7.4634   22.7483 H   0  0  0  0  0  0
  -21.0834   -8.8733   19.8956 H   0  0  0  0  0  0
  -22.3664  -10.9644   19.6161 H   0  0  0  0  0  0
  -21.1985   -7.6132   23.9689 H   0  0  0  0  0  0
  -21.1478   -6.0519   25.9065 H   0  0  0  0  0  0
  -22.0606   -2.7596   23.2863 H   0  0  0  0  0  0
  -22.4129  -11.9874   22.4783 H   0  0  0  0  0  0
  -21.1104  -13.1204   22.2583 H   0  0  0  0  0  0
  -24.6472  -15.8274   20.5108 H   0  0  0  0  0  0
  -26.2493  -15.6254   20.0226 H   0  0  0  0  0  0
  -26.7101  -32.5483   23.1137 H   0  0  0  0  0  0
  -25.0159  -33.9810   25.0487 H   0  0  0  0  0  0
  -22.7019  -31.3114   21.4183 H   0  0  0  0  0  0
  -23.3774  -35.9575   23.3331 H   0  0  0  0  0  0
  -24.3589  -36.8857   22.2056 H   0  0  0  0  0  0
  -23.7210  -37.6470   23.6632 H   0  0  0  0  0  0
  -26.0710  -31.5861   20.6191 H   0  0  0  0  0  0
  -26.8282  -30.8551   22.0048 H   0  0  0  0  0  0
  -28.1023  -29.0241   21.2014 H   0  0  0  0  0  0
  -26.0084  -26.0007   18.9335 H   0  0  0  0  0  0
  -23.9799  -27.3378   18.9749 H   0  0  0  0  0  0
  -23.7347  -30.6181   19.4110 H   0  0  0  0  0  0
  -22.7427  -29.2652   19.8608 H   0  0  0  0  0  0
  -25.1296  -36.1952   25.0840 H   0  0  0  0  0  0
  -20.9979  -28.3193   24.1414 H   0  0  0  0  0  0
  -20.5703  -26.2254   23.3589 H   0  0  0  0  0  0
  -21.6683  -26.7412   22.1191 H   0  0  0  0  0  0
  -19.6970  -25.6255   21.1237 H   0  0  0  0  0  0
  -19.6728  -27.3158   20.6699 H   0  0  0  0  0  0
  -17.4221  -26.6624   21.3969 H   0  0  0  0  0  0
  -18.0350  -25.9997   22.8966 H   0  0  0  0  0  0
  -19.7985  -30.7218   24.2224 H   0  0  0  0  0  0
  -17.5071  -31.6258   24.5122 H   0  0  0  0  0  0
  -15.5374  -30.2952   23.7700 H   0  0  0  0  0  0
  -15.8676  -28.0826   22.7012 H   0  0  0  0  0  0
  -24.5938  -30.7039   25.7822 H   0  0  0  0  0  0
  -24.8872  -32.2908   26.4819 H   0  0  0  0  0  0
  -25.8082  -30.8991   27.0269 H   0  0  0  0  0  0
  -26.2870  -29.6834   24.1131 H   0  0  0  0  0  0
  -27.4136  -29.7294   25.4521 H   0  0  0  0  0  0
  -27.8679  -30.4435   23.9224 H   0  0  0  0  0  0
  -27.2659  -33.3677   26.2013 H   0  0  0  0  0  0
  -28.3859  -32.6867   25.0309 H   0  0  0  0  0  0
  -28.0659  -31.8491   26.5446 H   0  0  0  0  0  0
  -28.2587  -38.0078   24.7536 H   0  0  0  0  0  0
  -28.1088  -36.2621   24.6321 H   0  0  0  0  0  0
  -27.2309  -37.1450   25.8886 H   0  0  0  0  0  0
  -20.9328  -29.8747   21.6942 H   0  0  0  0  0  0
  -26.0195  -38.2845   24.1458 H   0  0  0  0  0  0
  -29.8149  -19.4120   24.3581 H   0  0  0  0  0  0
  -30.7847  -16.9728   25.5726 H   0  0  0  0  0  0
  -29.7418  -15.6653   25.0020 H   0  0  0  0  0  0
  -29.0254  -17.1513   25.6369 H   0  0  0  0  0  0
  -31.9137  -20.7149   23.2037 H   0  0  0  0  0  0
  -31.7217  -22.2304   22.3781 H   0  0  0  0  0  0
  -32.1829  -20.7850   21.4726 H   0  0  0  0  0  0
  -30.4675  -23.3302   18.8456 H   0  0  0  0  0  0
  -30.0618  -25.0265   18.7092 H   0  0  0  0  0  0
  -28.8532  -23.8160   18.3376 H   0  0  0  0  0  0
  -31.2799  -23.9637   21.1839 H   0  0  0  0  0  0
  -30.1278  -24.4066   22.4539 H   0  0  0  0  0  0
  -30.6167  -25.5723   21.2381 H   0  0  0  0  0  0
  -30.6226  -15.8292   18.1426 H   0  0  0  0  0  0
  -31.5031  -17.0128   19.0711 H   0  0  0  0  0  0
  -27.7810  -22.4497   20.2857 H   0  0  0  0  0  0
  -28.2067  -22.7344   21.9258 H   0  0  0  0  0  0
  -27.2097  -24.7566   20.0710 H   0  0  0  0  0  0
  -27.7419  -25.2228   21.6482 H   0  0  0  0  0  0
  -29.5099  -21.2319   22.8924 H   0  0  0  0  0  0
  -28.8947  -15.8034   20.0848 H   0  0  0  0  0  0
  -28.7943  -17.3268   17.9562 H   0  0  0  0  0  0
  -30.1648  -18.0828   17.5110 H   0  0  0  0  0  0
  -29.5155  -18.3960   18.9747 H   0  0  0  0  0  0
  -30.2406  -21.5368   20.1267 H   0  0  0  0  0  0
  -28.9078  -20.7045   20.4679 H   0  0  0  0  0  0
  1 25  1  0  0  0
  1 30  2  0  0  0
  1 83  1  0  0  0
  2  3  1  0  0  0
  2 25  1  0  0  0
  2 89  1  0  0  0
  2 90  1  0  0  0
  3  4  1  0  0  0
  3 91  1  0  0  0
  3 92  1  0  0  0
  4  5  1  0  0  0
  4 93  1  0  0  0
  4 94  1  0  0  0
  5  6  1  0  0  0
  5 26  1  0  0  0
  5 95  1  0  0  0
  6 25  1  0  0  0
  6 96  1  0  0  0
  6 97  1  0  0  0
  7  8  2  0  0  0
  7 26  1  0  0  0
  7 29  1  0  0  0
  8  9  1  0  0  0
  8 22  1  0  0  0
  9 10  1  0  0  0
  9 27  2  0  0  0
 10 11  2  0  0  0
 10 15  1  0  0  0
 11 12  1  0  0  0
 11 98  1  0  0  0
 12 13  2  0  0  0
 12 99  1  0  0  0
 13 14  1  0  0  0
 13 31  1  0  0  0
 14 15  2  0  0  0
 14100  1  0  0  0
 15101  1  0  0  0
 16 17  2  0  0  0
 16 21  1  0  0  0
 16 31  1  0  0  0
 17 18  1  0  0  0
 17102  1  0  0  0
 18 19  2  0  0  0
 18103  1  0  0  0
 19 20  1  0  0  0
 19 24  1  0  0  0
 20 21  2  0  0  0
 20104  1  0  0  0
 21 23  1  0  0  0
 22 28  1  0  0  0
 22 32  2  0  0  0
 26 27  1  0  0  0
 28105  1  0  0  0
 28106  1  0  0  0
 29107  1  0  0  0
 29108  1  0  0  0
 33 34  1  0  0  0
 33 66  1  0  0  0
 33 70  2  0  0  0
 34 36  1  0  0  0
 34 59  1  0  0  0
 34109  1  0  0  0
 35 44  2  0  0  0
 35 45  1  0  0  0
 35 68  1  0  0  0
 36 56  1  0  0  0
 36110  1  0  0  0
 37 39  1  0  0  0
 37 47  1  0  0  0
 37 66  1  0  0  0
 37111  1  0  0  0
 38 43  2  0  0  0
 38 46  1  0  0  0
 38 47  1  0  0  0
 39 64  1  0  0  0
 39 67  2  0  0  0
 40 52  1  0  0  0
 40 53  2  0  0  0
 40 58  1  0  0  0
 41112  1  0  0  0
 41113  1  0  0  0
 41114  1  0  0  0
 41 48  1  0  0  0
 42 43  1  0  0  0
 42 66  1  0  0  0
 42115  1  0  0  0
 42116  1  0  0  0
 43 44  1  0  0  0
 44117  1  0  0  0
 45 46  2  0  0  0
 45118  1  0  0  0
 46119  1  0  0  0
 47120  1  0  0  0
 47121  1  0  0  0
 48 56  1  0  0  0
 48 65  1  0  0  0
 48122  1  0  0  0
 49 50  1  0  0  0
 49 53  1  0  0  0
 49 64  1  0  0  0
 49123  1  0  0  0
 50 51  1  0  0  0
 50124  1  0  0  0
 50125  1  0  0  0
 51 52  1  0  0  0
 51126  1  0  0  0
 51127  1  0  0  0
 52128  1  0  0  0
 52129  1  0  0  0
 53 54  1  0  0  0
 54 55  2  0  0  0
 54130  1  0  0  0
 55 57  1  0  0  0
 55131  1  0  0  0
 56 69  2  0  0  0
 57 58  2  0  0  0
 57132  1  0  0  0
 58133  1  0  0  0
 59 60  1  0  0  0
 59 61  1  0  0  0
 59 62  1  0  0  0
 60134  1  0  0  0
 60135  1  0  0  0
 60136  1  0  0  0
 61137  1  0  0  0
 61138  1  0  0  0
 61139  1  0  0  0
 62140  1  0  0  0
 62141  1  0  0  0
 62142  1  0  0  0
 63 65  1  0  0  0
 63143  1  0  0  0
 63144  1  0  0  0
 63145  1  0  0  0
 64146  1  0  0  0
 65147  1  0  0  0
 68 81  1  0  0  0
 71 72  2  0  0  0
 71 73  1  0  0  0
 71148  1  0  0  0
 72 75  1  0  0  0
 72 85  1  0  0  0
 73 82  1  0  0  0
 73 86  2  0  0  0
 74 83  1  0  0  0
 74 85  2  0  0  0
 74 86  1  0  0  0
 75149  1  0  0  0
 75150  1  0  0  0
 75151  1  0  0  0
 76152  1  0  0  0
 76153  1  0  0  0
 76154  1  0  0  0
 76 82  1  0  0  0
 77155  1  0  0  0
 77156  1  0  0  0
 77157  1  0  0  0
 77 84  1  0  0  0
 78 84  1  0  0  0
 78158  1  0  0  0
 78159  1  0  0  0
 78160  1  0  0  0
 79 87  1  0  0  0
 79161  1  0  0  0
 79162  1  0  0  0
 79 83  1  0  0  0
 80 84  1  0  0  0
 80 88  1  0  0  0
 80163  1  0  0  0
 80164  1  0  0  0
 81 84  1  0  0  0
 81165  1  0  0  0
 81166  1  0  0  0
 82 88  1  0  0  0
 82167  1  0  0  0
 83168  1  0  0  0
 87169  1  0  0  0
 87170  1  0  0  0
 87171  1  0  0  0
 88172  1  0  0  0
 88173  1  0  0  0
M  CHG  2  87   1  88   1
M  ISO  4   1 100  68 101  81 101  83 100
M  END
> <chiral flag>
0

> <version>
0

> <s_m_source_file>
/data/baiqing/PycharmProjects/Reinvent-master-3.2/result/LINK_invent/BTK/process_docking_weight1_custom_sum_contain_oxygen_bond_distance_aromatic_linkinvent_7_9_3/rearranged_h_0071.sdf

> <i_m_source_file_index>
52

> <r_mmod_Potential_Energy-OPLS-2005>
-725.781433105469

> <r_mmod_Stretch_Energy-OPLS-2005>
72.0147171020508

> <r_mmod_Bend_Energy-OPLS-2005>
150.110733032227

> <r_mmod_Torsional_Energy-OPLS-2005>
256.572174072266

> <r_mmod_Improper_Torsional_Energy-OPLS-2005>
12.9177856445312

> <r_mmod_Van_der_Waal_Energy-OPLS-2005>
155.517456054688

> <r_mmod_Electrostatic_Energy-OPLS-2005>
-421.063323974609

> <r_mmod_Solvation_Energy-OPLS-2005>
-1000.37982177734

> <b_mmod_Minimization_Converged-OPLS-2005>
0

> <r_mmod_RMS_Derivative-OPLS-2005>
3.72931671142578

$$$$
53
                    3D
 Structure written by MMmdl.
165173  0  0  1  0            999 V2000
  -30.5953  -14.7303   20.4464 C   0  0  0  0  0  0
  -30.4261  -12.4476   19.4402 C   0  0  0  0  0  0
  -29.4866  -12.5192   18.2156 C   0  0  0  0  0  0
  -28.0239  -12.3168   18.6495 C   0  0  0  0  0  0
  -27.6375  -13.2245   19.8459 C   0  0  2  0  0  0
  -28.6824  -13.1541   20.9742 C   0  0  0  0  0  0
  -25.2460  -13.8142   20.5589 C   0  0  0  0  0  0
  -24.1768  -13.0398   20.9200 C   0  0  0  0  0  0
  -24.6385  -11.6898   20.8779 C   0  0  0  0  0  0
  -23.9071  -10.4263   21.0424 C   0  0  0  0  0  0
  -24.3636   -9.4181   21.9200 C   0  0  0  0  0  0
  -23.6325   -8.2214   22.0765 C   0  0  0  0  0  0
  -22.4301   -8.0265   21.3547 C   0  0  0  0  0  0
  -21.9908   -9.0234   20.4640 C   0  0  0  0  0  0
  -22.7250  -10.2111   20.3056 C   0  0  0  0  0  0
  -21.6845   -6.0718   22.5290 C   0  0  0  0  0  0
  -21.4021   -6.5650   23.8225 C   0  0  0  0  0  0
  -21.3643   -5.6796   24.9179 C   0  0  0  0  0  0
  -21.6026   -4.3061   24.7217 C   0  0  0  0  0  0
  -21.8845   -3.8163   23.4344 C   0  0  0  0  0  0
  -21.9205   -4.6963   22.3396 C   0  0  0  0  0  0
  -22.7773  -13.5169   21.1860 C   0  0  0  0  0  0
  -22.1678   -4.2146   21.0967 F   0  0  0  0  0  0
  -21.5620   -3.4553   25.7735 F   0  0  0  0  0  0
  -29.9875  -13.4969   20.3875 N   0  0  0  0  0  0
  -26.2913  -12.9364   20.3258 N   0  0  0  0  0  0
  -25.9316  -11.6508   20.5792 N   0  0  0  0  0  0
  -22.0461  -12.8119   22.0449 N   0  0  0  0  0  0
  -25.3974  -15.1836   20.3803 N   0  0  0  0  0  0
  -31.7917  -14.8524   20.1664 O   0  0  0  0  0  0
  -21.6642   -6.8865   21.4252 O   0  0  0  0  0  0
  -22.3397  -14.5432   20.6687 O   0  0  0  0  0  0
  -24.6308  -31.8499   23.1998 C   0  0  0  0  0  0
  -25.9107  -32.4744   23.8331 C   0  0  1  0  0  0
  -27.2234  -27.2551   20.1210 C   0  0  0  0  0  0
  -25.5880  -33.8537   24.2249 N   0  0  0  0  0  0
  -23.4286  -30.4751   21.5426 C   0  0  2  0  0  0
  -24.8745  -28.9231   20.1004 C   0  0  0  0  0  0
  -22.7496  -29.4568   22.4926 C   0  0  0  0  0  0
  -18.0359  -28.1439   22.8277 C   0  0  0  0  0  0
  -24.1462  -36.7317   23.2662 C   0  0  0  0  0  0
  -25.9734  -30.7616   21.3780 C   0  0  0  0  0  0
  -26.0425  -29.3859   20.7169 C   0  0  0  0  0  0
  -27.2124  -28.5628   20.7184 C   0  0  0  0  0  0
  -26.0345  -26.8596   19.4746 C   0  0  0  0  0  0
  -24.8765  -27.6691   19.4644 C   0  0  0  0  0  0
  -23.6478  -29.8151   20.1542 C   0  0  0  0  0  0
  -25.4084  -36.3093   24.0358 C   0  0  1  0  0  0
  -20.5928  -28.3762   23.1423 C   0  0  2  0  0  0
  -20.6882  -26.9499   22.5496 C   0  0  0  0  0  0
  -19.6111  -26.6707   21.4962 C   0  0  0  0  0  0
  -18.2084  -26.8250   22.0902 C   0  0  0  0  0  0
  -19.1539  -28.8851   23.2958 C   0  0  0  0  0  0
  -18.9359  -30.1410   23.9027 C   0  0  0  0  0  0
  -17.6327  -30.6515   24.0552 C   0  0  0  0  0  0
  -25.9031  -34.9469   23.5127 C   0  0  0  0  0  0
  -16.5295  -29.9038   23.6099 C   0  0  0  0  0  0
  -16.7321  -28.6526   23.0035 C   0  0  0  0  0  0
  -26.4494  -31.6576   25.0721 C   0  0  0  0  0  0
  -25.3732  -31.3692   26.1453 C   0  0  0  0  0  0
  -27.0362  -30.3005   24.6207 C   0  0  0  0  0  0
  -27.6060  -32.4333   25.7470 C   0  0  0  0  0  0
  -27.5565  -37.1815   24.8470 C   0  0  0  0  0  0
  -21.4175  -29.3168   22.3863 N   0  0  0  0  0  0
  -26.4258  -37.3800   23.9447 N   0  0  0  0  0  0
  -24.6985  -31.0483   22.0967 N   0  0  0  0  0  0
  -23.4213  -28.7954   23.2894 O   0  0  0  0  0  0
  -28.3632  -26.4229   20.2103 O   0  0  0  0  0  0
  -26.5665  -34.8942   22.4730 O   0  0  0  0  0  0
  -23.5478  -32.1290   23.7332 O   0  0  0  0  0  0
  -28.1692  -20.9708   20.5751 C   0  0  0  0  0  0
  -29.8513  -21.9291   19.6597 C   0  0  0  0  0  0
  -29.0443  -19.9330   20.1917 C   0  0  0  0  0  0
  -28.4238  -24.9357   18.1955 C   0  0  0  0  0  0
  -28.4355  -17.9342   18.7722 C   0  0  0  0  0  0
  -27.6990  -17.9801   21.1521 C   0  0  0  0  0  0
  -26.5360  -23.5643   20.4167 C   0  0  0  0  0  0
  -28.4126  -23.8832   22.0233 C   0  0  0  0  0  0
  -30.0632  -17.3382   20.6258 C   0  0  0  0  0  0
  -28.5556  -25.0018   19.7251 C   0  0  2  0  0  0
  -28.8581  -18.3368   20.1957 C   0  0  0  0  0  0
  -28.0720  -23.6603   20.5394 C   0  0  0  0  0  0
  -30.1085  -20.6053   19.5740 N   0  0  0  0  0  0
  -28.6660  -22.2682   20.2067 N   0  0  0  0  0  0
  -29.7799  -15.8305   20.6131 N   0  0  0  0  0  0
  -31.4639  -12.5706   19.1209 H   0  0  0  0  0  0
  -30.3698  -11.4664   19.9150 H   0  0  0  0  0  0
  -29.7600  -11.7710   17.4730 H   0  0  0  0  0  0
  -29.5830  -13.4895   17.7260 H   0  0  0  0  0  0
  -27.9062  -11.2695   18.9332 H   0  0  0  0  0  0
  -27.3382  -12.4780   17.8143 H   0  0  0  0  0  0
  -27.6308  -14.2432   19.4622 H   0  0  0  0  0  0
  -28.7091  -12.1593   21.4176 H   0  0  0  0  0  0
  -28.4216  -13.8437   21.7791 H   0  0  0  0  0  0
  -25.2776   -9.5671   22.4760 H   0  0  0  0  0  0
  -24.0041   -7.4575   22.7470 H   0  0  0  0  0  0
  -21.0855   -8.8788   19.8910 H   0  0  0  0  0  0
  -22.3765  -10.9654   19.6171 H   0  0  0  0  0  0
  -21.2056   -7.6160   23.9740 H   0  0  0  0  0  0
  -21.1402   -6.0504   25.9067 H   0  0  0  0  0  0
  -22.0637   -2.7619   23.2841 H   0  0  0  0  0  0
  -22.4164  -11.9747   22.4703 H   0  0  0  0  0  0
  -21.1069  -13.1085   22.2673 H   0  0  0  0  0  0
  -24.5937  -15.8012   20.4395 H   0  0  0  0  0  0
  -26.2198  -15.6316   20.0050 H   0  0  0  0  0  0
  -26.7146  -32.5352   23.1052 H   0  0  0  0  0  0
  -24.9858  -33.9618   25.0273 H   0  0  0  0  0  0
  -22.7289  -31.2993   21.4008 H   0  0  0  0  0  0
  -23.3718  -35.9651   23.3314 H   0  0  0  0  0  0
  -24.3524  -36.8949   22.2073 H   0  0  0  0  0  0
  -23.7206  -37.6519   23.6668 H   0  0  0  0  0  0
  -26.1200  -31.5202   20.6068 H   0  0  0  0  0  0
  -26.8521  -30.8066   22.0115 H   0  0  0  0  0  0
  -28.1086  -28.9077   21.2165 H   0  0  0  0  0  0
  -25.9661  -25.9011   18.9906 H   0  0  0  0  0  0
  -23.9850  -27.3126   18.9674 H   0  0  0  0  0  0
  -23.7782  -30.6038   19.4123 H   0  0  0  0  0  0
  -22.7624  -29.2626   19.8339 H   0  0  0  0  0  0
  -25.1255  -36.1967   25.0850 H   0  0  0  0  0  0
  -21.0014  -28.3346   24.1514 H   0  0  0  0  0  0
  -21.6809  -26.7639   22.1426 H   0  0  0  0  0  0
  -20.5622  -26.2252   23.3554 H   0  0  0  0  0  0
  -19.7449  -25.6779   21.0663 H   0  0  0  0  0  0
  -19.7368  -27.3804   20.6772 H   0  0  0  0  0  0
  -17.4863  -26.7845   21.2730 H   0  0  0  0  0  0
  -17.9797  -25.9946   22.7599 H   0  0  0  0  0  0
  -19.7742  -30.7290   24.2504 H   0  0  0  0  0  0
  -17.4764  -31.6202   24.5103 H   0  0  0  0  0  0
  -15.5281  -30.2972   23.7180 H   0  0  0  0  0  0
  -15.8820  -28.0982   22.6285 H   0  0  0  0  0  0
  -24.5900  -30.7061   25.7771 H   0  0  0  0  0  0
  -24.8920  -32.2831   26.4938 H   0  0  0  0  0  0
  -25.8057  -30.8815   27.0196 H   0  0  0  0  0  0
  -26.2936  -29.6739   24.1252 H   0  0  0  0  0  0
  -27.4072  -29.7294   25.4727 H   0  0  0  0  0  0
  -27.8798  -30.4306   23.9428 H   0  0  0  0  0  0
  -27.2673  -33.3631   26.2052 H   0  0  0  0  0  0
  -28.3835  -32.6906   25.0268 H   0  0  0  0  0  0
  -28.0760  -31.8456   26.5364 H   0  0  0  0  0  0
  -28.2624  -38.0083   24.7507 H   0  0  0  0  0  0
  -28.1027  -36.2626   24.6289 H   0  0  0  0  0  0
  -27.2300  -37.1477   25.8880 H   0  0  0  0  0  0
  -20.9272  -29.9154   21.7361 H   0  0  0  0  0  0
  -26.0163  -38.2888   24.1426 H   0  0  0  0  0  0
  -27.2145  -20.8775   21.0744 H   0  0  0  0  0  0
  -30.5626  -22.6703   19.3167 H   0  0  0  0  0  0
  -29.0018  -24.1059   17.7862 H   0  0  0  0  0  0
  -28.8160  -25.8460   17.7380 H   0  0  0  0  0  0
  -27.3969  -24.8096   17.8590 H   0  0  0  0  0  0
  -27.5245  -18.4487   18.4570 H   0  0  0  0  0  0
  -28.2621  -16.8603   18.6830 H   0  0  0  0  0  0
  -29.2189  -18.1922   18.0588 H   0  0  0  0  0  0
  -27.4516  -16.9212   21.1050 H   0  0  0  0  0  0
  -26.7877  -18.5240   20.9121 H   0  0  0  0  0  0
  -27.9625  -18.1992   22.1884 H   0  0  0  0  0  0
  -26.0549  -24.4839   20.7372 H   0  0  0  0  0  0
  -26.1093  -22.7861   21.0461 H   0  0  0  0  0  0
  -26.2232  -23.3703   19.3903 H   0  0  0  0  0  0
  -27.9516  -24.7877   22.4137 H   0  0  0  0  0  0
  -29.4896  -23.9660   22.1714 H   0  0  0  0  0  0
  -28.0692  -23.0477   22.6345 H   0  0  0  0  0  0
  -30.3564  -17.5894   21.6490 H   0  0  0  0  0  0
  -30.9389  -17.5390   20.0125 H   0  0  0  0  0  0
  -29.6352  -24.9494   19.8575 H   0  0  0  0  0  0
  -28.8040  -15.5856   20.7075 H   0  0  0  0  0  0
  1 25  1  0  0  0
  1 30  2  0  0  0
  1 85  1  0  0  0
  2  3  1  0  0  0
  2 25  1  0  0  0
  2 86  1  0  0  0
  2 87  1  0  0  0
  3  4  1  0  0  0
  3 88  1  0  0  0
  3 89  1  0  0  0
  4  5  1  0  0  0
  4 90  1  0  0  0
  4 91  1  0  0  0
  5  6  1  0  0  0
  5 26  1  0  0  0
  5 92  1  0  0  0
  6 25  1  0  0  0
  6 93  1  0  0  0
  6 94  1  0  0  0
  7  8  2  0  0  0
  7 26  1  0  0  0
  7 29  1  0  0  0
  8  9  1  0  0  0
  8 22  1  0  0  0
  9 10  1  0  0  0
  9 27  2  0  0  0
 10 11  2  0  0  0
 10 15  1  0  0  0
 11 12  1  0  0  0
 11 95  1  0  0  0
 12 13  2  0  0  0
 12 96  1  0  0  0
 13 14  1  0  0  0
 13 31  1  0  0  0
 14 15  2  0  0  0
 14 97  1  0  0  0
 15 98  1  0  0  0
 16 17  2  0  0  0
 16 21  1  0  0  0
 16 31  1  0  0  0
 17 18  1  0  0  0
 17 99  1  0  0  0
 18 19  2  0  0  0
 18100  1  0  0  0
 19 20  1  0  0  0
 19 24  1  0  0  0
 20 21  2  0  0  0
 20101  1  0  0  0
 21 23  1  0  0  0
 22 28  1  0  0  0
 22 32  2  0  0  0
 26 27  1  0  0  0
 28102  1  0  0  0
 28103  1  0  0  0
 29104  1  0  0  0
 29105  1  0  0  0
 33 34  1  0  0  0
 33 66  1  0  0  0
 33 70  2  0  0  0
 34 36  1  0  0  0
 34 59  1  0  0  0
 34106  1  0  0  0
 35 44  2  0  0  0
 35 45  1  0  0  0
 35 68  1  0  0  0
 36 56  1  0  0  0
 36107  1  0  0  0
 37 39  1  0  0  0
 37 47  1  0  0  0
 37 66  1  0  0  0
 37108  1  0  0  0
 38 43  2  0  0  0
 38 46  1  0  0  0
 38 47  1  0  0  0
 39 64  1  0  0  0
 39 67  2  0  0  0
 40 52  1  0  0  0
 40 53  2  0  0  0
 40 58  1  0  0  0
 41109  1  0  0  0
 41110  1  0  0  0
 41111  1  0  0  0
 41 48  1  0  0  0
 42 43  1  0  0  0
 42 66  1  0  0  0
 42112  1  0  0  0
 42113  1  0  0  0
 43 44  1  0  0  0
 44114  1  0  0  0
 45 46  2  0  0  0
 45115  1  0  0  0
 46116  1  0  0  0
 47117  1  0  0  0
 47118  1  0  0  0
 48 56  1  0  0  0
 48 65  1  0  0  0
 48119  1  0  0  0
 49 50  1  0  0  0
 49 53  1  0  0  0
 49 64  1  0  0  0
 49120  1  0  0  0
 50 51  1  0  0  0
 50121  1  0  0  0
 50122  1  0  0  0
 51 52  1  0  0  0
 51123  1  0  0  0
 51124  1  0  0  0
 52125  1  0  0  0
 52126  1  0  0  0
 53 54  1  0  0  0
 54 55  2  0  0  0
 54127  1  0  0  0
 55 57  1  0  0  0
 55128  1  0  0  0
 56 69  2  0  0  0
 57 58  2  0  0  0
 57129  1  0  0  0
 58130  1  0  0  0
 59 60  1  0  0  0
 59 61  1  0  0  0
 59 62  1  0  0  0
 60131  1  0  0  0
 60132  1  0  0  0
 60133  1  0  0  0
 61134  1  0  0  0
 61135  1  0  0  0
 61136  1  0  0  0
 62137  1  0  0  0
 62138  1  0  0  0
 62139  1  0  0  0
 63 65  1  0  0  0
 63140  1  0  0  0
 63141  1  0  0  0
 63142  1  0  0  0
 64143  1  0  0  0
 65144  1  0  0  0
 68 80  1  0  0  0
 71 73  2  0  0  0
 71 84  1  0  0  0
 71145  1  0  0  0
 72 83  2  0  0  0
 72 84  1  0  0  0
 72146  1  0  0  0
 73 81  1  0  0  0
 73 83  1  0  0  0
 74147  1  0  0  0
 74148  1  0  0  0
 74149  1  0  0  0
 74 80  1  0  0  0
 75150  1  0  0  0
 75151  1  0  0  0
 75152  1  0  0  0
 75 81  1  0  0  0
 76 81  1  0  0  0
 76153  1  0  0  0
 76154  1  0  0  0
 76155  1  0  0  0
 77156  1  0  0  0
 77157  1  0  0  0
 77158  1  0  0  0
 77 82  1  0  0  0
 78 82  1  0  0  0
 78159  1  0  0  0
 78160  1  0  0  0
 78161  1  0  0  0
 79 81  1  0  0  0
 79 85  1  0  0  0
 79162  1  0  0  0
 79163  1  0  0  0
 80 82  1  0  0  0
 80164  1  0  0  0
 82 84  1  0  0  0
 85165  1  0  0  0
M  ISO  4   1 100  68 101  80 101  85 100
M  END
> <chiral flag>
0

> <version>
0

> <s_m_source_file>
/data/baiqing/PycharmProjects/Reinvent-master-3.2/result/LINK_invent/BTK/process_docking_weight1_custom_sum_contain_oxygen_bond_distance_aromatic_linkinvent_7_9_3/rearranged_h_0071.sdf

> <i_m_source_file_index>
53

> <r_mmod_Potential_Energy-OPLS-2005>
128.008773803711

> <r_mmod_Stretch_Energy-OPLS-2005>
137.338973999023

> <r_mmod_Bend_Energy-OPLS-2005>
225.337966918945

> <r_mmod_Torsional_Energy-OPLS-2005>
237.494415283203

> <r_mmod_Improper_Torsional_Energy-OPLS-2005>
6.79996967315674

> <r_mmod_Van_der_Waal_Energy-OPLS-2005>
108.247589111328

> <r_mmod_Electrostatic_Energy-OPLS-2005>
-457.612030029297

> <r_mmod_Solvation_Energy-OPLS-2005>
-213.059173583984

> <b_mmod_Minimization_Converged-OPLS-2005>
0

> <r_mmod_RMS_Derivative-OPLS-2005>
7.59730529785156

$$$$
54
                    3D
 Structure written by MMmdl.
164172  0  0  1  0            999 V2000
  -30.6360  -14.8514   20.5061 C   0  0  0  0  0  0
  -30.4429  -12.5206   19.5243 C   0  0  0  0  0  0
  -29.5406  -12.5441   18.2673 C   0  0  0  0  0  0
  -28.0677  -12.3385   18.6638 C   0  0  0  0  0  0
  -27.6564  -13.2317   19.8665 C   0  0  2  0  0  0
  -28.6950  -13.1701   21.0085 C   0  0  0  0  0  0
  -25.2610  -13.8181   20.5775 C   0  0  0  0  0  0
  -24.1900  -13.0471   20.9305 C   0  0  0  0  0  0
  -24.6433  -11.6905   20.8789 C   0  0  0  0  0  0
  -23.9089  -10.4288   21.0430 C   0  0  0  0  0  0
  -24.3639   -9.4189   21.9199 C   0  0  0  0  0  0
  -23.6306   -8.2227   22.0755 C   0  0  0  0  0  0
  -22.4292   -8.0267   21.3526 C   0  0  0  0  0  0
  -21.9920   -9.0255   20.4644 C   0  0  0  0  0  0
  -22.7264  -10.2123   20.3060 C   0  0  0  0  0  0
  -21.6847   -6.0704   22.5256 C   0  0  0  0  0  0
  -21.4006   -6.5627   23.8180 C   0  0  0  0  0  0
  -21.3680   -5.6798   24.9155 C   0  0  0  0  0  0
  -21.6044   -4.3055   24.7199 C   0  0  0  0  0  0
  -21.8837   -3.8120   23.4331 C   0  0  0  0  0  0
  -21.9200   -4.6931   22.3381 C   0  0  0  0  0  0
  -22.7886  -13.5242   21.1923 C   0  0  0  0  0  0
  -22.1693   -4.2124   21.0955 F   0  0  0  0  0  0
  -21.5642   -3.4549   25.7711 F   0  0  0  0  0  0
  -29.9914  -13.6080   20.4533 N   0  0  0  0  0  0
  -26.3020  -12.9386   20.3264 N   0  0  0  0  0  0
  -25.9352  -11.6534   20.5694 N   0  0  0  0  0  0
  -22.0449  -12.8273   22.0408 N   0  0  0  0  0  0
  -25.4394  -15.1915   20.4095 N   0  0  0  0  0  0
  -31.7713  -14.8588   20.0167 O   0  0  0  0  0  0
  -21.6658   -6.8853   21.4221 O   0  0  0  0  0  0
  -22.3654  -14.5555   20.6695 O   0  0  0  0  0  0
  -24.6412  -31.8420   23.1927 C   0  0  0  0  0  0
  -25.9181  -32.4706   23.8274 C   0  0  1  0  0  0
  -27.2284  -27.1957   20.1473 C   0  0  0  0  0  0
  -25.5923  -33.8510   24.2233 N   0  0  0  0  0  0
  -23.4392  -30.4563   21.5442 C   0  0  2  0  0  0
  -24.8732  -28.8783   20.1238 C   0  0  0  0  0  0
  -22.7553  -29.4505   22.4994 C   0  0  0  0  0  0
  -18.0301  -28.1367   22.8512 C   0  0  0  0  0  0
  -24.1448  -36.7235   23.2660 C   0  0  0  0  0  0
  -25.9856  -30.7294   21.3770 C   0  0  0  0  0  0
  -26.0460  -29.3430   20.7321 C   0  0  0  0  0  0
  -27.2211  -28.5176   20.7266 C   0  0  0  0  0  0
  -26.0378  -26.8195   19.4881 C   0  0  0  0  0  0
  -24.8787  -27.6281   19.4827 C   0  0  0  0  0  0
  -23.6459  -29.7700   20.1678 C   0  0  0  0  0  0
  -25.4099  -36.3086   24.0373 C   0  0  1  0  0  0
  -20.5907  -28.3660   23.1292 C   0  0  2  0  0  0
  -20.6764  -26.9383   22.5409 C   0  0  0  0  0  0
  -19.5729  -26.6371   21.5221 C   0  0  0  0  0  0
  -18.1925  -26.7911   22.1657 C   0  0  0  0  0  0
  -19.1556  -28.8854   23.2879 C   0  0  0  0  0  0
  -18.9471  -30.1466   23.8874 C   0  0  0  0  0  0
  -17.6462  -30.6571   24.0567 C   0  0  0  0  0  0
  -25.9045  -34.9427   23.5139 C   0  0  0  0  0  0
  -16.5361  -29.9051   23.6338 C   0  0  0  0  0  0
  -16.7293  -28.6475   23.0365 C   0  0  0  0  0  0
  -26.4476  -31.6577   25.0723 C   0  0  0  0  0  0
  -25.3708  -31.3689   26.1473 C   0  0  0  0  0  0
  -27.0325  -30.3032   24.6190 C   0  0  0  0  0  0
  -27.6033  -32.4350   25.7445 C   0  0  0  0  0  0
  -27.5575  -37.1788   24.8508 C   0  0  0  0  0  0
  -21.4253  -29.2985   22.3687 N   0  0  0  0  0  0
  -26.4279  -37.3803   23.9467 N   0  0  0  0  0  0
  -24.7094  -31.0318   22.0930 N   0  0  0  0  0  0
  -23.4197  -28.8029   23.3129 O   0  0  0  0  0  0
  -28.3792  -26.3574   20.0664 O   0  0  0  0  0  0
  -26.5647  -34.8940   22.4737 O   0  0  0  0  0  0
  -23.5558  -32.1231   23.7213 O   0  0  0  0  0  0
  -29.0739  -19.9811   21.3360 C   0  0  0  0  0  0
  -29.4559  -21.2421   19.0080 C   0  0  0  0  0  0
  -29.5358  -19.1733   20.2371 C   0  0  0  0  0  0
  -28.9070  -22.0416   20.0713 C   0  0  0  0  0  0
  -28.2993  -23.8584   18.3146 C   0  0  0  0  0  0
  -26.6876  -23.2476   20.1472 C   0  0  0  0  0  0
  -31.4113  -16.9435   21.7676 C   0  0  0  0  0  0
  -29.1267  -16.1501   22.2498 C   0  0  0  0  0  0
  -28.5751  -24.9139   20.5706 C   0  0  0  0  0  0
  -29.5762  -17.5320   20.0687 C   0  0  2  0  0  0
  -28.1768  -23.5035   19.8148 C   0  0  0  0  0  0
  -30.1416  -16.3375   21.1002 C   0  0  0  0  0  0
  -29.7423  -19.8901   19.0834 N   0  0  0  0  0  0
  -28.7747  -21.3477   21.2605 N   0  0  0  0  0  0
  -28.2759  -17.1400   19.5119 N   0  3  0  0  0  0
  -31.4980  -12.6076   19.2578 H   0  0  0  0  0  0
  -30.3754  -11.5410   20.0025 H   0  0  0  0  0  0
  -29.8531  -11.7700   17.5654 H   0  0  0  0  0  0
  -29.6517  -13.4962   17.7472 H   0  0  0  0  0  0
  -27.9532  -11.2884   18.9362 H   0  0  0  0  0  0
  -27.4174  -12.5049   17.8043 H   0  0  0  0  0  0
  -27.6544  -14.2581   19.5013 H   0  0  0  0  0  0
  -28.7779  -12.1524   21.3981 H   0  0  0  0  0  0
  -28.3713  -13.7455   21.8698 H   0  0  0  0  0  0
  -25.2791   -9.5663   22.4760 H   0  0  0  0  0  0
  -24.0011   -7.4618   22.7497 H   0  0  0  0  0  0
  -21.0827   -8.8791   19.8951 H   0  0  0  0  0  0
  -22.3750  -10.9664   19.6143 H   0  0  0  0  0  0
  -21.2016   -7.6135   23.9666 H   0  0  0  0  0  0
  -21.1493   -6.0530   25.9058 H   0  0  0  0  0  0
  -22.0594   -2.7578   23.2823 H   0  0  0  0  0  0
  -22.4013  -11.9950   22.4924 H   0  0  0  0  0  0
  -21.1007  -13.1296   22.2370 H   0  0  0  0  0  0
  -24.6492  -15.6910   20.8063 H   0  0  0  0  0  0
  -25.4067  -15.3812   19.4137 H   0  0  0  0  0  0
  -26.7251  -32.5262   23.0974 H   0  0  0  0  0  0
  -25.0033  -33.9576   25.0359 H   0  0  0  0  0  0
  -22.7437  -31.2817   21.3923 H   0  0  0  0  0  0
  -23.3750  -35.9524   23.3353 H   0  0  0  0  0  0
  -24.3494  -36.8797   22.2061 H   0  0  0  0  0  0
  -23.7112  -37.6433   23.6611 H   0  0  0  0  0  0
  -26.1431  -31.4751   20.5967 H   0  0  0  0  0  0
  -26.8675  -30.7710   22.0039 H   0  0  0  0  0  0
  -28.1235  -28.8975   21.1841 H   0  0  0  0  0  0
  -25.9945  -25.8952   18.9368 H   0  0  0  0  0  0
  -23.9931  -27.2808   18.9650 H   0  0  0  0  0  0
  -23.7630  -30.5301   19.3962 H   0  0  0  0  0  0
  -22.7626  -29.1901   19.8901 H   0  0  0  0  0  0
  -25.1263  -36.1956   25.0867 H   0  0  0  0  0  0
  -21.0024  -28.3256   24.1414 H   0  0  0  0  0  0
  -20.5654  -26.2306   23.3635 H   0  0  0  0  0  0
  -21.6622  -26.7359   22.1211 H   0  0  0  0  0  0
  -19.6876  -25.6286   21.1233 H   0  0  0  0  0  0
  -19.6654  -27.3197   20.6772 H   0  0  0  0  0  0
  -17.4201  -26.6704   21.4062 H   0  0  0  0  0  0
  -18.0310  -26.0035   22.9040 H   0  0  0  0  0  0
  -19.7948  -30.7312   24.2204 H   0  0  0  0  0  0
  -17.5010  -31.6255   24.5152 H   0  0  0  0  0  0
  -15.5357  -30.2945   23.7652 H   0  0  0  0  0  0
  -15.8709  -28.0782   22.7067 H   0  0  0  0  0  0
  -24.5871  -30.7044   25.7809 H   0  0  0  0  0  0
  -24.8869  -32.2809   26.5005 H   0  0  0  0  0  0
  -25.8062  -30.8803   27.0200 H   0  0  0  0  0  0
  -26.2895  -29.6803   24.1214 H   0  0  0  0  0  0
  -27.4043  -29.7294   25.4673 H   0  0  0  0  0  0
  -27.8741  -30.4389   23.9403 H   0  0  0  0  0  0
  -27.2666  -33.3689   26.1966 H   0  0  0  0  0  0
  -28.3799  -32.6878   25.0209 H   0  0  0  0  0  0
  -28.0734  -31.8516   26.5371 H   0  0  0  0  0  0
  -28.2682  -38.0008   24.7571 H   0  0  0  0  0  0
  -28.0991  -36.2578   24.6327 H   0  0  0  0  0  0
  -27.2302  -37.1436   25.8909 H   0  0  0  0  0  0
  -20.9507  -29.8649   21.6785 H   0  0  0  0  0  0
  -26.0181  -38.2898   24.1444 H   0  0  0  0  0  0
  -28.8681  -19.5136   22.2861 H   0  0  0  0  0  0
  -29.5747  -21.6402   18.0121 H   0  0  0  0  0  0
  -27.7880  -24.7913   18.0774 H   0  0  0  0  0  0
  -27.8735  -23.0896   17.6687 H   0  0  0  0  0  0
  -29.3463  -23.9942   18.0332 H   0  0  0  0  0  0
  -26.0657  -24.1337   20.0693 H   0  0  0  0  0  0
  -26.5710  -22.8984   21.1754 H   0  0  0  0  0  0
  -26.2626  -22.4771   19.5031 H   0  0  0  0  0  0
  -31.1811  -17.8368   22.3482 H   0  0  0  0  0  0
  -32.1667  -17.2337   21.0314 H   0  0  0  0  0  0
  -31.8897  -16.2388   22.4529 H   0  0  0  0  0  0
  -29.0110  -17.0591   22.8383 H   0  0  0  0  0  0
  -29.4356  -15.3708   22.9518 H   0  0  0  0  0  0
  -28.1367  -15.8994   21.8749 H   0  0  0  0  0  0
  -29.6615  -24.8770   20.6498 H   0  0  0  0  0  0
  -28.2519  -24.8553   21.6074 H   0  0  0  0  0  0
  -30.2397  -17.4360   19.2118 H   0  0  0  0  0  0
  -27.6150  -16.9638   20.2495 H   0  0  0  0  0  0
  -28.3776  -16.3245   18.9388 H   0  0  0  0  0  0
  -27.9370  -17.8903   18.9343 H   0  0  0  0  0  0
  1 25  1  0  0  0
  1 30  2  0  0  0
  1 82  1  0  0  0
  2  3  1  0  0  0
  2 25  1  0  0  0
  2 86  1  0  0  0
  2 87  1  0  0  0
  3  4  1  0  0  0
  3 88  1  0  0  0
  3 89  1  0  0  0
  4  5  1  0  0  0
  4 90  1  0  0  0
  4 91  1  0  0  0
  5  6  1  0  0  0
  5 26  1  0  0  0
  5 92  1  0  0  0
  6 25  1  0  0  0
  6 93  1  0  0  0
  6 94  1  0  0  0
  7  8  2  0  0  0
  7 26  1  0  0  0
  7 29  1  0  0  0
  8  9  1  0  0  0
  8 22  1  0  0  0
  9 10  1  0  0  0
  9 27  2  0  0  0
 10 11  2  0  0  0
 10 15  1  0  0  0
 11 12  1  0  0  0
 11 95  1  0  0  0
 12 13  2  0  0  0
 12 96  1  0  0  0
 13 14  1  0  0  0
 13 31  1  0  0  0
 14 15  2  0  0  0
 14 97  1  0  0  0
 15 98  1  0  0  0
 16 17  2  0  0  0
 16 21  1  0  0  0
 16 31  1  0  0  0
 17 18  1  0  0  0
 17 99  1  0  0  0
 18 19  2  0  0  0
 18100  1  0  0  0
 19 20  1  0  0  0
 19 24  1  0  0  0
 20 21  2  0  0  0
 20101  1  0  0  0
 21 23  1  0  0  0
 22 28  1  0  0  0
 22 32  2  0  0  0
 26 27  1  0  0  0
 28102  1  0  0  0
 28103  1  0  0  0
 29104  1  0  0  0
 29105  1  0  0  0
 33 34  1  0  0  0
 33 66  1  0  0  0
 33 70  2  0  0  0
 34 36  1  0  0  0
 34 59  1  0  0  0
 34106  1  0  0  0
 35 44  2  0  0  0
 35 45  1  0  0  0
 35 68  1  0  0  0
 36 56  1  0  0  0
 36107  1  0  0  0
 37 39  1  0  0  0
 37 47  1  0  0  0
 37 66  1  0  0  0
 37108  1  0  0  0
 38 43  2  0  0  0
 38 46  1  0  0  0
 38 47  1  0  0  0
 39 64  1  0  0  0
 39 67  2  0  0  0
 40 52  1  0  0  0
 40 53  2  0  0  0
 40 58  1  0  0  0
 41109  1  0  0  0
 41110  1  0  0  0
 41111  1  0  0  0
 41 48  1  0  0  0
 42 43  1  0  0  0
 42 66  1  0  0  0
 42112  1  0  0  0
 42113  1  0  0  0
 43 44  1  0  0  0
 44114  1  0  0  0
 45 46  2  0  0  0
 45115  1  0  0  0
 46116  1  0  0  0
 47117  1  0  0  0
 47118  1  0  0  0
 48 56  1  0  0  0
 48 65  1  0  0  0
 48119  1  0  0  0
 49 50  1  0  0  0
 49 53  1  0  0  0
 49 64  1  0  0  0
 49120  1  0  0  0
 50 51  1  0  0  0
 50121  1  0  0  0
 50122  1  0  0  0
 51 52  1  0  0  0
 51123  1  0  0  0
 51124  1  0  0  0
 52125  1  0  0  0
 52126  1  0  0  0
 53 54  1  0  0  0
 54 55  2  0  0  0
 54127  1  0  0  0
 55 57  1  0  0  0
 55128  1  0  0  0
 56 69  2  0  0  0
 57 58  2  0  0  0
 57129  1  0  0  0
 58130  1  0  0  0
 59 60  1  0  0  0
 59 61  1  0  0  0
 59 62  1  0  0  0
 60131  1  0  0  0
 60132  1  0  0  0
 60133  1  0  0  0
 61134  1  0  0  0
 61135  1  0  0  0
 61136  1  0  0  0
 62137  1  0  0  0
 62138  1  0  0  0
 62139  1  0  0  0
 63 65  1  0  0  0
 63140  1  0  0  0
 63141  1  0  0  0
 63142  1  0  0  0
 64143  1  0  0  0
 65144  1  0  0  0
 68 79  1  0  0  0
 71 73  2  0  0  0
 71 84  1  0  0  0
 71145  1  0  0  0
 72 74  1  0  0  0
 72 83  2  0  0  0
 72146  1  0  0  0
 73 80  1  0  0  0
 73 83  1  0  0  0
 74 81  1  0  0  0
 74 84  2  0  0  0
 75147  1  0  0  0
 75148  1  0  0  0
 75149  1  0  0  0
 75 81  1  0  0  0
 76 81  1  0  0  0
 76150  1  0  0  0
 76151  1  0  0  0
 76152  1  0  0  0
 77153  1  0  0  0
 77154  1  0  0  0
 77155  1  0  0  0
 77 82  1  0  0  0
 78 82  1  0  0  0
 78156  1  0  0  0
 78157  1  0  0  0
 78158  1  0  0  0
 79 81  1  0  0  0
 79159  1  0  0  0
 79160  1  0  0  0
 80 82  1  0  0  0
 80 85  1  0  0  0
 80161  1  0  0  0
 85162  1  0  0  0
 85163  1  0  0  0
 85164  1  0  0  0
M  CHG  1  85   1
M  ISO  4   1 100  68 101  79 101  82 100
M  END
> <chiral flag>
0

> <version>
0

> <s_m_source_file>
/data/baiqing/PycharmProjects/Reinvent-master-3.2/result/LINK_invent/BTK/process_docking_weight1_custom_sum_contain_oxygen_bond_distance_aromatic_linkinvent_7_9_3/rearranged_h_0071.sdf

> <i_m_source_file_index>
54

> <r_mmod_Potential_Energy-OPLS-2005>
289.313903808594

> <r_mmod_Stretch_Energy-OPLS-2005>
231.835296630859

> <r_mmod_Bend_Energy-OPLS-2005>
318.954376220703

> <r_mmod_Torsional_Energy-OPLS-2005>
232.336853027344

> <r_mmod_Improper_Torsional_Energy-OPLS-2005>
12.5747699737549

> <r_mmod_Van_der_Waal_Energy-OPLS-2005>
142.989196777344

> <r_mmod_Electrostatic_Energy-OPLS-2005>
-292.911468505859

> <r_mmod_Solvation_Energy-OPLS-2005>
-469.149841308594

> <b_mmod_Minimization_Converged-OPLS-2005>
0

> <r_mmod_RMS_Derivative-OPLS-2005>
6.77664947509766

$$$$
55
                    3D
 Structure written by MMmdl.
172180  0  0  1  0            999 V2000
  -30.6998  -14.5636   20.5487 C   0  0  0  0  0  0
  -30.4148  -12.3606   19.4429 C   0  0  0  0  0  0
  -29.4881  -12.4924   18.2186 C   0  0  0  0  0  0
  -28.0161  -12.3299   18.6370 C   0  0  0  0  0  0
  -27.6461  -13.2082   19.8607 C   0  0  2  0  0  0
  -28.6906  -13.0756   20.9914 C   0  0  0  0  0  0
  -25.2523  -13.8173   20.5693 C   0  0  0  0  0  0
  -24.1780  -13.0424   20.9188 C   0  0  0  0  0  0
  -24.6337  -11.6911   20.8731 C   0  0  0  0  0  0
  -23.9013  -10.4297   21.0398 C   0  0  0  0  0  0
  -24.3593   -9.4229   21.9173 C   0  0  0  0  0  0
  -23.6291   -8.2256   22.0758 C   0  0  0  0  0  0
  -22.4272   -8.0275   21.3557 C   0  0  0  0  0  0
  -21.9889   -9.0231   20.4638 C   0  0  0  0  0  0
  -22.7192  -10.2122   20.3045 C   0  0  0  0  0  0
  -21.6845   -6.0740   22.5292 C   0  0  0  0  0  0
  -21.4005   -6.5644   23.8227 C   0  0  0  0  0  0
  -21.3658   -5.6795   24.9188 C   0  0  0  0  0  0
  -21.6046   -4.3061   24.7236 C   0  0  0  0  0  0
  -21.8818   -3.8155   23.4354 C   0  0  0  0  0  0
  -21.9190   -4.6970   22.3416 C   0  0  0  0  0  0
  -22.7811  -13.5237   21.1852 C   0  0  0  0  0  0
  -22.1660   -4.2157   21.0987 F   0  0  0  0  0  0
  -21.5632   -3.4541   25.7748 F   0  0  0  0  0  0
  -30.0135  -13.3866   20.4259 N   0  0  0  0  0  0
  -26.2935  -12.9326   20.3326 N   0  0  0  0  0  0
  -25.9264  -11.6498   20.5770 N   0  0  0  0  0  0
  -22.0457  -12.8224   22.0411 N   0  0  0  0  0  0
  -25.4223  -15.1890   20.4146 N   0  0  0  0  0  0
  -31.8206  -14.7122   20.0551 O   0  0  0  0  0  0
  -21.6638   -6.8876   21.4253 O   0  0  0  0  0  0
  -22.3498  -14.5554   20.6712 O   0  0  0  0  0  0
  -24.6241  -31.8640   23.2027 C   0  0  0  0  0  0
  -25.9105  -32.4789   23.8329 C   0  0  1  0  0  0
  -27.2135  -27.3391   20.1113 C   0  0  0  0  0  0
  -25.5962  -33.8589   24.2271 N   0  0  0  0  0  0
  -23.4134  -30.4899   21.5462 C   0  0  2  0  0  0
  -24.8552  -28.9473   20.1099 C   0  0  0  0  0  0
  -22.7463  -29.4654   22.4933 C   0  0  0  0  0  0
  -18.0300  -28.1371   22.8470 C   0  0  0  0  0  0
  -24.1497  -36.7283   23.2638 C   0  0  0  0  0  0
  -25.9531  -30.7973   21.3699 C   0  0  0  0  0  0
  -26.0243  -29.4274   20.7124 C   0  0  0  0  0  0
  -27.2074  -28.6356   20.7025 C   0  0  0  0  0  0
  -26.0158  -26.8986   19.4995 C   0  0  0  0  0  0
  -24.8502  -27.6859   19.4975 C   0  0  0  0  0  0
  -23.6260  -29.8296   20.1597 C   0  0  0  0  0  0
  -25.4132  -36.3079   24.0320 C   0  0  1  0  0  0
  -20.5903  -28.3688   23.1278 C   0  0  2  0  0  0
  -20.6792  -26.9407   22.5417 C   0  0  0  0  0  0
  -19.5781  -26.6379   21.5206 C   0  0  0  0  0  0
  -18.1948  -26.7926   22.1582 C   0  0  0  0  0  0
  -19.1550  -28.8839   23.2865 C   0  0  0  0  0  0
  -18.9482  -30.1442   23.8875 C   0  0  0  0  0  0
  -17.6488  -30.6574   24.0570 C   0  0  0  0  0  0
  -25.9067  -34.9461   23.5091 C   0  0  0  0  0  0
  -16.5378  -29.9081   23.6321 C   0  0  0  0  0  0
  -16.7292  -28.6503   23.0332 C   0  0  0  0  0  0
  -26.4510  -31.6594   25.0689 C   0  0  0  0  0  0
  -25.3760  -31.3719   26.1433 C   0  0  0  0  0  0
  -27.0390  -30.3044   24.6100 C   0  0  0  0  0  0
  -27.6058  -32.4371   25.7448 C   0  0  0  0  0  0
  -27.5589  -37.1784   24.8460 C   0  0  0  0  0  0
  -21.4184  -29.3049   22.3671 N   0  0  0  0  0  0
  -26.4300  -37.3781   23.9416 N   0  0  0  0  0  0
  -24.6826  -31.0670   22.0962 N   0  0  0  0  0  0
  -23.4214  -28.8184   23.2990 O   0  0  0  0  0  0
  -28.3433  -26.5146   20.1510 O   0  0  0  0  0  0
  -26.5621  -34.8920   22.4647 O   0  0  0  0  0  0
  -23.5417  -32.1450   23.7378 O   0  0  0  0  0  0
  -29.9883  -19.6266   23.5909 C   0  0  0  0  0  0
  -30.2267  -20.7726   22.8918 C   0  0  0  0  0  0
  -29.8489  -19.1030   21.4183 C   0  0  0  0  0  0
  -30.5703  -22.1152   23.4636 C   0  0  0  0  0  0
  -30.8753  -21.2511   19.1499 C   0  0  0  0  0  0
  -30.8107  -17.8768   19.3412 C   0  0  0  0  0  0
  -28.3901  -18.5788   19.4740 C   0  0  0  0  0  0
  -30.7279  -15.8214   22.6019 C   0  0  0  0  0  0
  -29.3421  -24.1229   20.3408 C   0  0  0  0  0  0
  -29.0201  -22.5749   20.3917 C   0  0  0  0  0  0
  -29.1617  -16.5992   20.7820 C   0  0  0  0  0  0
  -28.1292  -25.0673   20.0180 C   0  0  0  0  0  0
  -30.2492  -21.5886   20.5122 C   0  0  1  0  0  0
  -29.6020  -18.0672   20.2815 C   0  0  0  0  0  0
  -30.1048  -20.4641   21.5353 N   0  0  0  0  0  0
  -29.7567  -18.6583   22.6744 N   0  3  0  0  0  0
  -30.1434  -15.5751   21.2841 N   0  0  0  0  0  0
  -31.4577  -12.4571   19.1372 H   0  0  0  0  0  0
  -30.3309  -11.3665   19.8858 H   0  0  0  0  0  0
  -29.7472  -11.7448   17.4669 H   0  0  0  0  0  0
  -29.6305  -13.4667   17.7471 H   0  0  0  0  0  0
  -27.8535  -11.2770   18.8757 H   0  0  0  0  0  0
  -27.3561  -12.5537   17.7975 H   0  0  0  0  0  0
  -27.6572  -14.2357   19.5062 H   0  0  0  0  0  0
  -28.6880  -12.0635   21.3987 H   0  0  0  0  0  0
  -28.4341  -13.7315   21.8239 H   0  0  0  0  0  0
  -25.2740   -9.5733   22.4735 H   0  0  0  0  0  0
  -24.0013   -7.4663   22.7496 H   0  0  0  0  0  0
  -21.0823   -8.8720   19.8953 H   0  0  0  0  0  0
  -22.3630  -10.9648   19.6154 H   0  0  0  0  0  0
  -21.1988   -7.6144   23.9734 H   0  0  0  0  0  0
  -21.1477   -6.0521   25.9091 H   0  0  0  0  0  0
  -22.0594   -2.7612   23.2852 H   0  0  0  0  0  0
  -22.4069  -11.9860   22.4759 H   0  0  0  0  0  0
  -21.1087  -13.1259   22.2663 H   0  0  0  0  0  0
  -24.6531  -15.8398   20.5373 H   0  0  0  0  0  0
  -26.2734  -15.6367   20.1012 H   0  0  0  0  0  0
  -26.7166  -32.5454   23.1064 H   0  0  0  0  0  0
  -25.0172  -33.9744   25.0456 H   0  0  0  0  0  0
  -22.7033  -31.3085   21.4054 H   0  0  0  0  0  0
  -23.3766  -35.9598   23.3300 H   0  0  0  0  0  0
  -24.3584  -36.8933   22.2051 H   0  0  0  0  0  0
  -23.7245  -37.6474   23.6686 H   0  0  0  0  0  0
  -26.0830  -31.5572   20.5991 H   0  0  0  0  0  0
  -26.8361  -30.8461   21.9950 H   0  0  0  0  0  0
  -28.1047  -28.9979   21.1843 H   0  0  0  0  0  0
  -25.9443  -25.9300   19.0290 H   0  0  0  0  0  0
  -23.9494  -27.3096   19.0320 H   0  0  0  0  0  0
  -23.7509  -30.6097   19.4079 H   0  0  0  0  0  0
  -22.7424  -29.2676   19.8503 H   0  0  0  0  0  0
  -25.1304  -36.1912   25.0807 H   0  0  0  0  0  0
  -20.9979  -28.3284   24.1407 H   0  0  0  0  0  0
  -20.5716  -26.2296   23.3622 H   0  0  0  0  0  0
  -21.6667  -26.7456   22.1210 H   0  0  0  0  0  0
  -19.6958  -25.6291   21.1237 H   0  0  0  0  0  0
  -19.6741  -27.3182   20.6734 H   0  0  0  0  0  0
  -17.4246  -26.6717   21.3945 H   0  0  0  0  0  0
  -18.0297  -26.0034   22.8932 H   0  0  0  0  0  0
  -19.7974  -30.7251   24.2230 H   0  0  0  0  0  0
  -17.5065  -31.6248   24.5193 H   0  0  0  0  0  0
  -15.5387  -30.2989   23.7665 H   0  0  0  0  0  0
  -15.8690  -28.0850   22.7022 H   0  0  0  0  0  0
  -24.5933  -30.7060   25.7770 H   0  0  0  0  0  0
  -24.8939  -32.2882   26.4852 H   0  0  0  0  0  0
  -25.8111  -30.8910   27.0207 H   0  0  0  0  0  0
  -26.2945  -29.6729   24.1230 H   0  0  0  0  0  0
  -27.4278  -29.7346   25.4549 H   0  0  0  0  0  0
  -27.8717  -30.4393   23.9194 H   0  0  0  0  0  0
  -27.2654  -33.3692   26.1983 H   0  0  0  0  0  0
  -28.3860  -32.6940   25.0261 H   0  0  0  0  0  0
  -28.0735  -31.8542   26.5395 H   0  0  0  0  0  0
  -28.2580  -38.0098   24.7549 H   0  0  0  0  0  0
  -28.1117  -36.2642   24.6248 H   0  0  0  0  0  0
  -27.2318  -37.1394   25.8860 H   0  0  0  0  0  0
  -20.9355  -29.8802   21.6912 H   0  0  0  0  0  0
  -26.0172  -38.2842   24.1459 H   0  0  0  0  0  0
  -29.9722  -19.4358   24.6559 H   0  0  0  0  0  0
  -30.3714  -22.1285   24.5357 H   0  0  0  0  0  0
  -29.9803  -22.9111   23.0139 H   0  0  0  0  0  0
  -31.6295  -22.3297   23.3216 H   0  0  0  0  0  0
  -31.2029  -22.1675   18.6557 H   0  0  0  0  0  0
  -30.1798  -20.7790   18.4601 H   0  0  0  0  0  0
  -31.7662  -20.6355   19.2592 H   0  0  0  0  0  0
  -30.9957  -18.7193   18.6865 H   0  0  0  0  0  0
  -30.6416  -17.0370   18.6659 H   0  0  0  0  0  0
  -31.7260  -17.6650   19.8932 H   0  0  0  0  0  0
  -28.5156  -19.5977   19.1192 H   0  0  0  0  0  0
  -27.4879  -18.5744   20.0871 H   0  0  0  0  0  0
  -28.1904  -17.9560   18.6009 H   0  0  0  0  0  0
  -29.9707  -16.1254   23.3233 H   0  0  0  0  0  0
  -31.5092  -16.5795   22.5354 H   0  0  0  0  0  0
  -31.1912  -14.9213   23.0130 H   0  0  0  0  0  0
  -30.1223  -24.3025   19.6009 H   0  0  0  0  0  0
  -29.7674  -24.4252   21.2970 H   0  0  0  0  0  0
  -28.4557  -22.3089   19.4968 H   0  0  0  0  0  0
  -28.3335  -22.3973   21.2203 H   0  0  0  0  0  0
  -28.6878  -16.1191   19.9261 H   0  0  0  0  0  0
  -28.3488  -16.6839   21.5049 H   0  0  0  0  0  0
  -27.2974  -24.7664   20.6586 H   0  0  0  0  0  0
  -27.8187  -24.8440   18.9956 H   0  0  0  0  0  0
  -31.0434  -22.1968   20.9444 H   0  0  0  0  0  0
  -29.5587  -17.6936   22.9112 H   0  0  0  0  0  0
  1 25  1  0  0  0
  1 30  2  0  0  0
  1 87  1  0  0  0
  2  3  1  0  0  0
  2 25  1  0  0  0
  2 88  1  0  0  0
  2 89  1  0  0  0
  3  4  1  0  0  0
  3 90  1  0  0  0
  3 91  1  0  0  0
  4  5  1  0  0  0
  4 92  1  0  0  0
  4 93  1  0  0  0
  5  6  1  0  0  0
  5 26  1  0  0  0
  5 94  1  0  0  0
  6 25  1  0  0  0
  6 95  1  0  0  0
  6 96  1  0  0  0
  7  8  2  0  0  0
  7 26  1  0  0  0
  7 29  1  0  0  0
  8  9  1  0  0  0
  8 22  1  0  0  0
  9 10  1  0  0  0
  9 27  2  0  0  0
 10 11  2  0  0  0
 10 15  1  0  0  0
 11 12  1  0  0  0
 11 97  1  0  0  0
 12 13  2  0  0  0
 12 98  1  0  0  0
 13 14  1  0  0  0
 13 31  1  0  0  0
 14 15  2  0  0  0
 14 99  1  0  0  0
 15100  1  0  0  0
 16 17  2  0  0  0
 16 21  1  0  0  0
 16 31  1  0  0  0
 17 18  1  0  0  0
 17101  1  0  0  0
 18 19  2  0  0  0
 18102  1  0  0  0
 19 20  1  0  0  0
 19 24  1  0  0  0
 20 21  2  0  0  0
 20103  1  0  0  0
 21 23  1  0  0  0
 22 28  1  0  0  0
 22 32  2  0  0  0
 26 27  1  0  0  0
 28104  1  0  0  0
 28105  1  0  0  0
 29106  1  0  0  0
 29107  1  0  0  0
 33 34  1  0  0  0
 33 66  1  0  0  0
 33 70  2  0  0  0
 34 36  1  0  0  0
 34 59  1  0  0  0
 34108  1  0  0  0
 35 44  2  0  0  0
 35 45  1  0  0  0
 35 68  1  0  0  0
 36 56  1  0  0  0
 36109  1  0  0  0
 37 39  1  0  0  0
 37 47  1  0  0  0
 37 66  1  0  0  0
 37110  1  0  0  0
 38 43  2  0  0  0
 38 46  1  0  0  0
 38 47  1  0  0  0
 39 64  1  0  0  0
 39 67  2  0  0  0
 40 52  1  0  0  0
 40 53  2  0  0  0
 40 58  1  0  0  0
 41111  1  0  0  0
 41112  1  0  0  0
 41113  1  0  0  0
 41 48  1  0  0  0
 42 43  1  0  0  0
 42 66  1  0  0  0
 42114  1  0  0  0
 42115  1  0  0  0
 43 44  1  0  0  0
 44116  1  0  0  0
 45 46  2  0  0  0
 45117  1  0  0  0
 46118  1  0  0  0
 47119  1  0  0  0
 47120  1  0  0  0
 48 56  1  0  0  0
 48 65  1  0  0  0
 48121  1  0  0  0
 49 50  1  0  0  0
 49 53  1  0  0  0
 49 64  1  0  0  0
 49122  1  0  0  0
 50 51  1  0  0  0
 50123  1  0  0  0
 50124  1  0  0  0
 51 52  1  0  0  0
 51125  1  0  0  0
 51126  1  0  0  0
 52127  1  0  0  0
 52128  1  0  0  0
 53 54  1  0  0  0
 54 55  2  0  0  0
 54129  1  0  0  0
 55 57  1  0  0  0
 55130  1  0  0  0
 56 69  2  0  0  0
 57 58  2  0  0  0
 57131  1  0  0  0
 58132  1  0  0  0
 59 60  1  0  0  0
 59 61  1  0  0  0
 59 62  1  0  0  0
 60133  1  0  0  0
 60134  1  0  0  0
 60135  1  0  0  0
 61136  1  0  0  0
 61137  1  0  0  0
 61138  1  0  0  0
 62139  1  0  0  0
 62140  1  0  0  0
 62141  1  0  0  0
 63 65  1  0  0  0
 63142  1  0  0  0
 63143  1  0  0  0
 63144  1  0  0  0
 64145  1  0  0  0
 65146  1  0  0  0
 68 82  1  0  0  0
 71 72  2  0  0  0
 71 86  1  0  0  0
 71147  1  0  0  0
 72 74  1  0  0  0
 72 85  1  0  0  0
 73 84  1  0  0  0
 73 85  1  0  0  0
 73 86  2  0  0  0
 74148  1  0  0  0
 74149  1  0  0  0
 74150  1  0  0  0
 75151  1  0  0  0
 75152  1  0  0  0
 75153  1  0  0  0
 75 83  1  0  0  0
 76154  1  0  0  0
 76155  1  0  0  0
 76156  1  0  0  0
 76 84  1  0  0  0
 77 84  1  0  0  0
 77157  1  0  0  0
 77158  1  0  0  0
 77159  1  0  0  0
 78 87  1  0  0  0
 78160  1  0  0  0
 78161  1  0  0  0
 78162  1  0  0  0
 79 80  1  0  0  0
 79 82  1  0  0  0
 79163  1  0  0  0
 79164  1  0  0  0
 80 83  1  0  0  0
 80165  1  0  0  0
 80166  1  0  0  0
 81 84  1  0  0  0
 81 87  1  0  0  0
 81167  1  0  0  0
 81168  1  0  0  0
 82169  1  0  0  0
 82170  1  0  0  0
 83 85  1  0  0  0
 83171  1  0  0  0
 86172  1  0  0  0
M  CHG  1  86   1
M  ISO  4   1 100  68 101  82 101  87 100
M  END
> <chiral flag>
0

> <version>
0

> <s_m_source_file>
/data/baiqing/PycharmProjects/Reinvent-master-3.2/result/LINK_invent/BTK/process_docking_weight1_custom_sum_contain_oxygen_bond_distance_aromatic_linkinvent_7_9_3/rearranged_h_0071.sdf

> <i_m_source_file_index>
55

> <r_mmod_Potential_Energy-OPLS-2005>
248.443801879883

> <r_mmod_Stretch_Energy-OPLS-2005>
83.0034408569336

> <r_mmod_Bend_Energy-OPLS-2005>
186.969360351562

> <r_mmod_Torsional_Energy-OPLS-2005>
363.212310791016

> <r_mmod_Improper_Torsional_Energy-OPLS-2005>
2.20048451423645

> <r_mmod_Van_der_Waal_Energy-OPLS-2005>
128.276550292969

> <r_mmod_Electrostatic_Energy-OPLS-2005>
-157.544250488281

> <r_mmod_Solvation_Energy-OPLS-2005>
-392.074462890625

> <b_mmod_Minimization_Converged-OPLS-2005>
0

> <r_mmod_RMS_Derivative-OPLS-2005>
3.33441925048828

$$$$
56
                    3D
 Structure written by MMmdl.
164172  0  0  1  0            999 V2000
  -30.6457  -14.8713   20.3399 C   0  0  0  0  0  0
  -30.4202  -12.5204   19.4936 C   0  0  0  0  0  0
  -29.5242  -12.4586   18.2401 C   0  0  0  0  0  0
  -28.0470  -12.2906   18.6472 C   0  0  0  0  0  0
  -27.6199  -13.2398   19.8010 C   0  0  2  0  0  0
  -28.6641  -13.3360   20.9256 C   0  0  0  0  0  0
  -25.2510  -13.8224   20.5736 C   0  0  0  0  0  0
  -24.1793  -13.0477   20.9200 C   0  0  0  0  0  0
  -24.6365  -11.6936   20.8698 C   0  0  0  0  0  0
  -23.9053  -10.4313   21.0378 C   0  0  0  0  0  0
  -24.3605   -9.4230   21.9163 C   0  0  0  0  0  0
  -23.6287   -8.2250   22.0740 C   0  0  0  0  0  0
  -22.4258   -8.0271   21.3539 C   0  0  0  0  0  0
  -21.9879   -9.0252   20.4639 C   0  0  0  0  0  0
  -22.7208  -10.2138   20.3047 C   0  0  0  0  0  0
  -21.6841   -6.0729   22.5286 C   0  0  0  0  0  0
  -21.4045   -6.5634   23.8225 C   0  0  0  0  0  0
  -21.3673   -5.6769   24.9179 C   0  0  0  0  0  0
  -21.6026   -4.3027   24.7215 C   0  0  0  0  0  0
  -21.8827   -3.8137   23.4328 C   0  0  0  0  0  0
  -21.9201   -4.6964   22.3389 C   0  0  0  0  0  0
  -22.7809  -13.5267   21.1849 C   0  0  0  0  0  0
  -22.1647   -4.2162   21.0965 F   0  0  0  0  0  0
  -21.5621   -3.4495   25.7726 F   0  0  0  0  0  0
  -29.9502  -13.6695   20.3097 N   0  0  0  0  0  0
  -26.2859  -12.9414   20.3078 N   0  0  0  0  0  0
  -25.9270  -11.6568   20.5617 N   0  0  0  0  0  0
  -22.0424  -12.8324   22.0405 N   0  0  0  0  0  0
  -25.4269  -15.1975   20.4337 N   0  0  0  0  0  0
  -31.8717  -14.7381   20.3427 O   0  0  0  0  0  0
  -21.6618   -6.8868   21.4243 O   0  0  0  0  0  0
  -22.3496  -14.5551   20.6634 O   0  0  0  0  0  0
  -24.6383  -31.8466   23.1874 C   0  0  0  0  0  0
  -25.9190  -32.4691   23.8246 C   0  0  1  0  0  0
  -27.2202  -27.1848   20.1327 C   0  0  0  0  0  0
  -25.5958  -33.8501   24.2162 N   0  0  0  0  0  0
  -23.4400  -30.4690   21.5293 C   0  0  2  0  0  0
  -24.8858  -28.8982   20.1067 C   0  0  0  0  0  0
  -22.7537  -29.4597   22.4820 C   0  0  0  0  0  0
  -18.0358  -28.1402   22.8496 C   0  0  0  0  0  0
  -24.1507  -36.7269   23.2625 C   0  0  0  0  0  0
  -25.9860  -30.7376   21.3745 C   0  0  0  0  0  0
  -26.0584  -29.3499   20.7224 C   0  0  0  0  0  0
  -27.2252  -28.5076   20.7174 C   0  0  0  0  0  0
  -26.0242  -26.8187   19.4790 C   0  0  0  0  0  0
  -24.8805  -27.6461   19.4728 C   0  0  0  0  0  0
  -23.6617  -29.7951   20.1484 C   0  0  0  0  0  0
  -25.4134  -36.3018   24.0300 C   0  0  1  0  0  0
  -20.5957  -28.3763   23.1223 C   0  0  2  0  0  0
  -20.6848  -26.9423   22.5502 C   0  0  0  0  0  0
  -19.5815  -26.6275   21.5350 C   0  0  0  0  0  0
  -18.2016  -26.7880   22.1774 C   0  0  0  0  0  0
  -19.1597  -28.8913   23.2848 C   0  0  0  0  0  0
  -18.9493  -30.1543   23.8830 C   0  0  0  0  0  0
  -17.6490  -30.6621   24.0545 C   0  0  0  0  0  0
  -25.9089  -34.9403   23.5033 C   0  0  0  0  0  0
  -16.5404  -29.9075   23.6334 C   0  0  0  0  0  0
  -16.7343  -28.6485   23.0359 C   0  0  0  0  0  0
  -26.4537  -31.6519   25.0645 C   0  0  0  0  0  0
  -25.3724  -31.3665   26.1324 C   0  0  0  0  0  0
  -27.0332  -30.2915   24.6153 C   0  0  0  0  0  0
  -27.6117  -32.4228   25.7408 C   0  0  0  0  0  0
  -27.5572  -37.1785   24.8441 C   0  0  0  0  0  0
  -21.4243  -29.3072   22.3530 N   0  0  0  0  0  0
  -26.4268  -37.3735   23.9406 N   0  0  0  0  0  0
  -24.7080  -31.0378   22.0878 N   0  0  0  0  0  0
  -23.4170  -28.8157   23.2969 O   0  0  0  0  0  0
  -28.3213  -26.2794   20.2079 O   0  0  0  0  0  0
  -26.5660  -34.8891   22.4606 O   0  0  0  0  0  0
  -23.5524  -32.1313   23.7137 O   0  0  0  0  0  0
  -28.0557  -19.7462   20.1986 C   0  0  0  0  0  0
  -30.0498  -21.3506   20.9609 C   0  0  0  0  0  0
  -29.2698  -19.1092   20.6303 C   0  0  0  0  0  0
  -28.8124  -21.9962   20.6031 C   0  0  0  0  0  0
  -29.8922  -17.3211   22.3996 C   0  0  0  0  0  0
  -29.4795  -24.0891   21.9652 C   0  0  0  0  0  0
  -27.0743  -23.5490   21.6776 C   0  0  0  0  0  0
  -29.2142  -16.3396   18.6716 C   0  0  0  0  0  0
  -31.4006  -17.1470   19.4147 C   0  0  0  0  0  0
  -28.3298  -24.7826   19.8337 C   0  0  0  0  0  0
  -29.4157  -17.5063   20.9469 C   0  0  2  0  0  0
  -28.4399  -23.5683   20.9492 C   0  0  0  0  0  0
  -30.1222  -16.4116   19.9276 C   0  0  0  0  0  0
  -30.2776  -19.9787   20.9610 N   0  0  0  0  0  0
  -27.8399  -21.1231   20.1687 N   0  0  0  0  0  0
  -31.4652  -12.6168   19.1903 H   0  0  0  0  0  0
  -30.3644  -11.5935   20.0677 H   0  0  0  0  0  0
  -29.8367  -11.6380   17.5917 H   0  0  0  0  0  0
  -29.6527  -13.3685   17.6559 H   0  0  0  0  0  0
  -27.9069  -11.2516   18.9475 H   0  0  0  0  0  0
  -27.4035  -12.4396   17.7782 H   0  0  0  0  0  0
  -27.5595  -14.2199   19.3370 H   0  0  0  0  0  0
  -28.7282  -12.4014   21.4814 H   0  0  0  0  0  0
  -28.3842  -14.1075   21.6435 H   0  0  0  0  0  0
  -25.2741   -9.5705   22.4742 H   0  0  0  0  0  0
  -23.9985   -7.4630   22.7435 H   0  0  0  0  0  0
  -21.0804   -8.8777   19.8912 H   0  0  0  0  0  0
  -22.3657  -10.9688   19.6152 H   0  0  0  0  0  0
  -21.2073   -7.6148   23.9747 H   0  0  0  0  0  0
  -21.1462   -6.0479   25.9088 H   0  0  0  0  0  0
  -22.0599   -2.7610   23.2798 H   0  0  0  0  0  0
  -22.3956  -12.0029   22.4940 H   0  0  0  0  0  0
  -21.1036  -13.1402   22.2513 H   0  0  0  0  0  0
  -24.6838  -15.8598   20.6264 H   0  0  0  0  0  0
  -26.3008  -15.6449   20.1945 H   0  0  0  0  0  0
  -26.7229  -32.5318   23.0947 H   0  0  0  0  0  0
  -25.0092  -33.9616   25.0294 H   0  0  0  0  0  0
  -22.7429  -31.2975   21.3750 H   0  0  0  0  0  0
  -23.3754  -35.9598   23.3227 H   0  0  0  0  0  0
  -24.3582  -36.8983   22.2045 H   0  0  0  0  0  0
  -23.7298  -37.6465   23.6697 H   0  0  0  0  0  0
  -26.1181  -31.4917   20.5955 H   0  0  0  0  0  0
  -26.8627  -30.7963   22.0055 H   0  0  0  0  0  0
  -28.1254  -28.8486   21.2098 H   0  0  0  0  0  0
  -25.9371  -25.8688   18.9761 H   0  0  0  0  0  0
  -23.9899  -27.2982   18.9655 H   0  0  0  0  0  0
  -23.7972  -30.5645   19.3902 H   0  0  0  0  0  0
  -22.7745  -29.2399   19.8368 H   0  0  0  0  0  0
  -25.1314  -36.1814   25.0781 H   0  0  0  0  0  0
  -21.0062  -28.3490   24.1338 H   0  0  0  0  0  0
  -20.5738  -26.2459   23.3810 H   0  0  0  0  0  0
  -21.6713  -26.7390   22.1339 H   0  0  0  0  0  0
  -19.6969  -25.6103   21.1589 H   0  0  0  0  0  0
  -19.6684  -27.2916   20.6764 H   0  0  0  0  0  0
  -17.4214  -26.6377   21.4285 H   0  0  0  0  0  0
  -18.0520  -26.0161   22.9345 H   0  0  0  0  0  0
  -19.7984  -30.7408   24.2114 H   0  0  0  0  0  0
  -17.5033  -31.6315   24.5116 H   0  0  0  0  0  0
  -15.5396  -30.2941   23.7632 H   0  0  0  0  0  0
  -15.8776  -28.0760   22.7085 H   0  0  0  0  0  0
  -24.6032  -30.6865   25.7629 H   0  0  0  0  0  0
  -24.8738  -32.2788   26.4596 H   0  0  0  0  0  0
  -25.8032  -30.8979   27.0192 H   0  0  0  0  0  0
  -26.2860  -29.6673   24.1244 H   0  0  0  0  0  0
  -27.4026  -29.7197   25.4685 H   0  0  0  0  0  0
  -27.8746  -30.4118   23.9338 H   0  0  0  0  0  0
  -27.2821  -33.3643   26.1811 H   0  0  0  0  0  0
  -28.4010  -32.6596   25.0251 H   0  0  0  0  0  0
  -28.0643  -31.8426   26.5457 H   0  0  0  0  0  0
  -28.2537  -38.0138   24.7505 H   0  0  0  0  0  0
  -28.1147  -36.2663   24.6226 H   0  0  0  0  0  0
  -27.2282  -37.1359   25.8845 H   0  0  0  0  0  0
  -20.9422  -29.8826   21.6738 H   0  0  0  0  0  0
  -26.0137  -38.2787   24.1456 H   0  0  0  0  0  0
  -27.2029  -19.1363   19.9349 H   0  0  0  0  0  0
  -30.8758  -21.9239   21.3497 H   0  0  0  0  0  0
  -29.2566  -17.8820   23.0871 H   0  0  0  0  0  0
  -30.9129  -17.6777   22.5395 H   0  0  0  0  0  0
  -29.8476  -16.2788   22.7106 H   0  0  0  0  0  0
  -29.5361  -23.4557   22.8506 H   0  0  0  0  0  0
  -29.2453  -25.0961   22.3103 H   0  0  0  0  0  0
  -30.4718  -24.1307   21.5213 H   0  0  0  0  0  0
  -27.0718  -22.8659   22.5271 H   0  0  0  0  0  0
  -26.2692  -23.2362   21.0076 H   0  0  0  0  0  0
  -26.8040  -24.5349   22.0579 H   0  0  0  0  0  0
  -29.3066  -17.2385   18.0599 H   0  0  0  0  0  0
  -28.1578  -16.2607   18.9200 H   0  0  0  0  0  0
  -29.4740  -15.5151   18.0152 H   0  0  0  0  0  0
  -31.1933  -18.1361   19.0123 H   0  0  0  0  0  0
  -31.8992  -16.5994   18.6099 H   0  0  0  0  0  0
  -32.1322  -17.2838   20.2125 H   0  0  0  0  0  0
  -27.5443  -24.5416   19.1223 H   0  0  0  0  0  0
  -29.2368  -24.6878   19.2377 H   0  0  0  0  0  0
  -28.3740  -17.1865   20.9891 H   0  0  0  0  0  0
  1 25  1  0  0  0
  1 30  2  0  0  0
  1 83  1  0  0  0
  2  3  1  0  0  0
  2 25  1  0  0  0
  2 86  1  0  0  0
  2 87  1  0  0  0
  3  4  1  0  0  0
  3 88  1  0  0  0
  3 89  1  0  0  0
  4  5  1  0  0  0
  4 90  1  0  0  0
  4 91  1  0  0  0
  5  6  1  0  0  0
  5 26  1  0  0  0
  5 92  1  0  0  0
  6 25  1  0  0  0
  6 93  1  0  0  0
  6 94  1  0  0  0
  7  8  2  0  0  0
  7 26  1  0  0  0
  7 29  1  0  0  0
  8  9  1  0  0  0
  8 22  1  0  0  0
  9 10  1  0  0  0
  9 27  2  0  0  0
 10 11  2  0  0  0
 10 15  1  0  0  0
 11 12  1  0  0  0
 11 95  1  0  0  0
 12 13  2  0  0  0
 12 96  1  0  0  0
 13 14  1  0  0  0
 13 31  1  0  0  0
 14 15  2  0  0  0
 14 97  1  0  0  0
 15 98  1  0  0  0
 16 17  2  0  0  0
 16 21  1  0  0  0
 16 31  1  0  0  0
 17 18  1  0  0  0
 17 99  1  0  0  0
 18 19  2  0  0  0
 18100  1  0  0  0
 19 20  1  0  0  0
 19 24  1  0  0  0
 20 21  2  0  0  0
 20101  1  0  0  0
 21 23  1  0  0  0
 22 28  1  0  0  0
 22 32  2  0  0  0
 26 27  1  0  0  0
 28102  1  0  0  0
 28103  1  0  0  0
 29104  1  0  0  0
 29105  1  0  0  0
 33 34  1  0  0  0
 33 66  1  0  0  0
 33 70  2  0  0  0
 34 36  1  0  0  0
 34 59  1  0  0  0
 34106  1  0  0  0
 35 44  2  0  0  0
 35 45  1  0  0  0
 35 68  1  0  0  0
 36 56  1  0  0  0
 36107  1  0  0  0
 37 39  1  0  0  0
 37 47  1  0  0  0
 37 66  1  0  0  0
 37108  1  0  0  0
 38 43  2  0  0  0
 38 46  1  0  0  0
 38 47  1  0  0  0
 39 64  1  0  0  0
 39 67  2  0  0  0
 40 52  1  0  0  0
 40 53  2  0  0  0
 40 58  1  0  0  0
 41109  1  0  0  0
 41110  1  0  0  0
 41111  1  0  0  0
 41 48  1  0  0  0
 42 43  1  0  0  0
 42 66  1  0  0  0
 42112  1  0  0  0
 42113  1  0  0  0
 43 44  1  0  0  0
 44114  1  0  0  0
 45 46  2  0  0  0
 45115  1  0  0  0
 46116  1  0  0  0
 47117  1  0  0  0
 47118  1  0  0  0
 48 56  1  0  0  0
 48 65  1  0  0  0
 48119  1  0  0  0
 49 50  1  0  0  0
 49 53  1  0  0  0
 49 64  1  0  0  0
 49120  1  0  0  0
 50 51  1  0  0  0
 50121  1  0  0  0
 50122  1  0  0  0
 51 52  1  0  0  0
 51123  1  0  0  0
 51124  1  0  0  0
 52125  1  0  0  0
 52126  1  0  0  0
 53 54  1  0  0  0
 54 55  2  0  0  0
 54127  1  0  0  0
 55 57  1  0  0  0
 55128  1  0  0  0
 56 69  2  0  0  0
 57 58  2  0  0  0
 57129  1  0  0  0
 58130  1  0  0  0
 59 60  1  0  0  0
 59 61  1  0  0  0
 59 62  1  0  0  0
 60131  1  0  0  0
 60132  1  0  0  0
 60133  1  0  0  0
 61134  1  0  0  0
 61135  1  0  0  0
 61136  1  0  0  0
 62137  1  0  0  0
 62138  1  0  0  0
 62139  1  0  0  0
 63 65  1  0  0  0
 63140  1  0  0  0
 63141  1  0  0  0
 63142  1  0  0  0
 64143  1  0  0  0
 65144  1  0  0  0
 68 80  1  0  0  0
 71 73  2  0  0  0
 71 85  1  0  0  0
 71145  1  0  0  0
 72 74  1  0  0  0
 72 84  2  0  0  0
 72146  1  0  0  0
 73 81  1  0  0  0
 73 84  1  0  0  0
 74 82  1  0  0  0
 74 85  2  0  0  0
 75147  1  0  0  0
 75148  1  0  0  0
 75149  1  0  0  0
 75 81  1  0  0  0
 76150  1  0  0  0
 76151  1  0  0  0
 76152  1  0  0  0
 76 82  1  0  0  0
 77 82  1  0  0  0
 77153  1  0  0  0
 77154  1  0  0  0
 77155  1  0  0  0
 78156  1  0  0  0
 78157  1  0  0  0
 78158  1  0  0  0
 78 83  1  0  0  0
 79 83  1  0  0  0
 79159  1  0  0  0
 79160  1  0  0  0
 79161  1  0  0  0
 80 82  1  0  0  0
 80162  1  0  0  0
 80163  1  0  0  0
 81 83  1  0  0  0
 81164  1  0  0  0
M  ISO  4   1 100  68 101  80 101  83 100
M  END
> <chiral flag>
0

> <version>
0

> <s_m_source_file>
/data/baiqing/PycharmProjects/Reinvent-master-3.2/result/LINK_invent/BTK/process_docking_weight1_custom_sum_contain_oxygen_bond_distance_aromatic_linkinvent_7_9_3/rearranged_h_0071.sdf

> <i_m_source_file_index>
56

> <r_mmod_Potential_Energy-OPLS-2005>
599.647705078125

> <r_mmod_Stretch_Energy-OPLS-2005>
216.864822387695

> <r_mmod_Bend_Energy-OPLS-2005>
277.222381591797

> <r_mmod_Torsional_Energy-OPLS-2005>
215.485229492188

> <r_mmod_Improper_Torsional_Energy-OPLS-2005>
13.7846040725708

> <r_mmod_Van_der_Waal_Energy-OPLS-2005>
145.969924926758

> <r_mmod_Electrostatic_Energy-OPLS-2005>
-235.036666870117

> <r_mmod_Solvation_Energy-OPLS-2005>
-194.421127319336

> <b_mmod_Minimization_Converged-OPLS-2005>
0

> <r_mmod_RMS_Derivative-OPLS-2005>
5.46184825897217

$$$$
57
                    3D
 Structure written by MMmdl.
159166  0  0  1  0            999 V2000
  -30.3409  -15.4506   20.3467 C   0  0  0  0  0  0
  -30.4420  -12.9267   19.5645 C   0  0  0  0  0  0
  -29.5600  -12.6349   18.3187 C   0  0  0  0  0  0
  -28.1132  -12.3139   18.7298 C   0  0  0  0  0  0
  -27.6081  -13.2930   19.8158 C   0  0  2  0  0  0
  -28.6249  -13.5316   20.9522 C   0  0  0  0  0  0
  -25.2392  -13.8275   20.5738 C   0  0  0  0  0  0
  -24.1747  -13.0438   20.9220 C   0  0  0  0  0  0
  -24.6425  -11.6940   20.8717 C   0  0  0  0  0  0
  -23.9111  -10.4295   21.0382 C   0  0  0  0  0  0
  -24.3648   -9.4214   21.9169 C   0  0  0  0  0  0
  -23.6310   -8.2251   22.0757 C   0  0  0  0  0  0
  -22.4290   -8.0282   21.3548 C   0  0  0  0  0  0
  -21.9940   -9.0249   20.4637 C   0  0  0  0  0  0
  -22.7277  -10.2127   20.3040 C   0  0  0  0  0  0
  -21.6867   -6.0732   22.5282 C   0  0  0  0  0  0
  -21.4022   -6.5635   23.8213 C   0  0  0  0  0  0
  -21.3663   -5.6786   24.9174 C   0  0  0  0  0  0
  -21.6052   -4.3047   24.7225 C   0  0  0  0  0  0
  -21.8825   -3.8140   23.4341 C   0  0  0  0  0  0
  -21.9196   -4.6959   22.3401 C   0  0  0  0  0  0
  -22.7763  -13.5180   21.1850 C   0  0  0  0  0  0
  -22.1665   -4.2143   21.0981 F   0  0  0  0  0  0
  -21.5625   -3.4533   25.7735 F   0  0  0  0  0  0
  -29.8492  -14.0899   20.3460 N   0  0  0  0  0  0
  -26.2814  -12.9558   20.3152 N   0  0  0  0  0  0
  -25.9367  -11.6646   20.5645 N   0  0  0  0  0  0
  -22.0408  -12.8173   22.0401 N   0  0  0  0  0  0
  -25.4060  -15.2014   20.4246 N   0  0  0  0  0  0
  -31.5630  -15.4242   20.1151 O   0  0  0  0  0  0
  -21.6648   -6.8885   21.4249 O   0  0  0  0  0  0
  -22.3436  -14.5460   20.6676 O   0  0  0  0  0  0
  -24.6729  -31.8127   23.1604 C   0  0  0  0  0  0
  -25.9367  -32.4537   23.8110 C   0  0  1  0  0  0
  -27.2231  -26.8065   20.2067 C   0  0  0  0  0  0
  -25.5993  -33.8355   24.2022 N   0  0  0  0  0  0
  -23.4936  -30.4184   21.5131 C   0  0  2  0  0  0
  -24.9491  -28.7772   20.1180 C   0  0  0  0  0  0
  -22.7700  -29.4391   22.4751 C   0  0  0  0  0  0
  -18.0326  -28.1420   22.8473 C   0  0  0  0  0  0
  -24.1486  -36.7157   23.2649 C   0  0  0  0  0  0
  -26.0692  -30.5768   21.4116 C   0  0  0  0  0  0
  -26.1353  -29.1537   20.7593 C   0  0  0  0  0  0
  -27.2608  -28.1926   20.7747 C   0  0  0  0  0  0
  -26.0047  -26.6114   19.5129 C   0  0  0  0  0  0
  -24.9156  -27.5289   19.4737 C   0  0  0  0  0  0
  -23.7403  -29.7213   20.1454 C   0  0  0  0  0  0
  -25.4141  -36.2934   24.0290 C   0  0  1  0  0  0
  -20.5951  -28.3782   23.1167 C   0  0  2  0  0  0
  -20.6809  -26.9453   22.5411 C   0  0  0  0  0  0
  -19.5790  -26.6377   21.5222 C   0  0  0  0  0  0
  -18.1960  -26.7963   22.1606 C   0  0  0  0  0  0
  -19.1588  -28.8920   23.2804 C   0  0  0  0  0  0
  -18.9504  -30.1505   23.8847 C   0  0  0  0  0  0
  -17.6501  -30.6623   24.0549 C   0  0  0  0  0  0
  -25.9110  -34.9321   23.4985 C   0  0  0  0  0  0
  -16.5386  -29.9105   23.6361 C   0  0  0  0  0  0
  -16.7308  -28.6511   23.0406 C   0  0  0  0  0  0
  -26.4588  -31.6529   25.0684 C   0  0  0  0  0  0
  -25.3675  -31.3803   26.1309 C   0  0  0  0  0  0
  -27.0524  -30.2888   24.6513 C   0  0  0  0  0  0
  -27.6060  -32.4372   25.7491 C   0  0  0  0  0  0
  -27.5572  -37.1731   24.8465 C   0  0  0  0  0  0
  -21.4358  -29.3040   22.3481 N   0  0  0  0  0  0
  -26.4281  -37.3685   23.9407 N   0  0  0  0  0  0
  -24.7671  -30.9664   22.0804 N   0  0  0  0  0  0
  -23.4180  -28.7973   23.3052 O   0  0  0  0  0  0
  -28.2116  -25.6481   20.2853 O   0  0  0  0  0  0
  -26.5741  -34.8879   22.4595 O   0  0  0  0  0  0
  -23.5769  -32.1154   23.6620 O   0  0  0  0  0  0
  -31.6960  -20.3776   21.6031 C   0  0  0  0  0  0
  -29.8452  -19.3647   22.9647 C   0  0  0  0  0  0
  -31.6918  -17.9797   22.0842 C   0  0  0  0  0  0
  -30.7070  -19.0221   19.1687 C   0  0  0  0  0  0
  -29.4720  -17.0617   20.4522 C   0  0  0  0  0  0
  -29.0003  -22.3698   20.3818 C   0  0  0  0  0  0
  -28.7902  -20.4887   20.3056 C   0  0  0  0  0  0
  -28.0010  -23.9523   20.1745 C   0  0  0  0  0  0
  -30.7523  -19.1573   21.7344 C   0  0  0  0  0  0
  -29.8514  -18.9176   20.4459 C   0  0  2  0  0  0
  -31.4592  -13.1461   19.2390 H   0  0  0  0  0  0
  -30.5270  -12.0378   20.1927 H   0  0  0  0  0  0
  -29.9779  -11.8149   17.7334 H   0  0  0  0  0  0
  -29.5669  -13.5123   17.6698 H   0  0  0  0  0  0
  -28.0937  -11.2956   19.1186 H   0  0  0  0  0  0
  -27.4560  -12.3279   17.8600 H   0  0  0  0  0  0
  -27.5023  -14.2442   19.2925 H   0  0  0  0  0  0
  -28.8176  -12.6164   21.5148 H   0  0  0  0  0  0
  -28.2222  -14.2498   21.6680 H   0  0  0  0  0  0
  -25.2798   -9.5677   22.4737 H   0  0  0  0  0  0
  -24.0012   -7.4656   22.7499 H   0  0  0  0  0  0
  -21.0870   -8.8765   19.8941 H   0  0  0  0  0  0
  -22.3741  -10.9651   19.6138 H   0  0  0  0  0  0
  -21.2020   -7.6145   23.9708 H   0  0  0  0  0  0
  -21.1484   -6.0519   25.9078 H   0  0  0  0  0  0
  -22.0603   -2.7602   23.2844 H   0  0  0  0  0  0
  -22.4043  -11.9886   22.4878 H   0  0  0  0  0  0
  -21.1010  -13.1190   22.2531 H   0  0  0  0  0  0
  -24.6453  -15.8599   20.5515 H   0  0  0  0  0  0
  -26.2609  -15.6433   20.1131 H   0  0  0  0  0  0
  -26.7427  -32.5046   23.0805 H   0  0  0  0  0  0
  -25.0126  -33.9421   25.0164 H   0  0  0  0  0  0
  -22.8119  -31.2520   21.3325 H   0  0  0  0  0  0
  -23.3796  -35.9439   23.3270 H   0  0  0  0  0  0
  -24.3532  -36.8863   22.2068 H   0  0  0  0  0  0
  -23.7200  -37.6303   23.6752 H   0  0  0  0  0  0
  -26.2679  -31.3094   20.6279 H   0  0  0  0  0  0
  -26.9209  -30.6344   22.0776 H   0  0  0  0  0  0
  -28.1546  -28.4805   21.3095 H   0  0  0  0  0  0
  -25.8585  -25.6625   19.0176 H   0  0  0  0  0  0
  -24.0147  -27.2321   18.9539 H   0  0  0  0  0  0
  -23.9005  -30.4853   19.3839 H   0  0  0  0  0  0
  -22.8468  -29.1801   19.8297 H   0  0  0  0  0  0
  -25.1345  -36.1717   25.0782 H   0  0  0  0  0  0
  -21.0038  -28.3422   24.1290 H   0  0  0  0  0  0
  -20.5712  -26.2393   23.3656 H   0  0  0  0  0  0
  -21.6671  -26.7439   22.1203 H   0  0  0  0  0  0
  -19.6950  -25.6266   21.1310 H   0  0  0  0  0  0
  -19.6758  -27.3133   20.6711 H   0  0  0  0  0  0
  -17.4243  -26.6736   21.3988 H   0  0  0  0  0  0
  -18.0324  -26.0106   22.8993 H   0  0  0  0  0  0
  -19.7978  -30.7329   24.2196 H   0  0  0  0  0  0
  -17.5063  -31.6307   24.5144 H   0  0  0  0  0  0
  -15.5388  -30.3007   23.7718 H   0  0  0  0  0  0
  -15.8697  -28.0804   22.7202 H   0  0  0  0  0  0
  -24.5895  -30.7125   25.7584 H   0  0  0  0  0  0
  -24.8822  -32.3014   26.4547 H   0  0  0  0  0  0
  -25.7866  -30.9080   27.0205 H   0  0  0  0  0  0
  -26.3231  -29.6521   24.1498 H   0  0  0  0  0  0
  -27.3991  -29.7302   25.5214 H   0  0  0  0  0  0
  -27.9190  -30.4045   24.0005 H   0  0  0  0  0  0
  -27.2628  -33.3744   26.1886 H   0  0  0  0  0  0
  -28.3962  -32.6830   25.0383 H   0  0  0  0  0  0
  -28.0638  -31.8632   26.5558 H   0  0  0  0  0  0
  -28.2559  -38.0057   24.7547 H   0  0  0  0  0  0
  -28.1112  -36.2588   24.6279 H   0  0  0  0  0  0
  -27.2279  -37.1337   25.8863 H   0  0  0  0  0  0
  -20.9618  -29.8675   21.6556 H   0  0  0  0  0  0
  -26.0127  -38.2733   24.1460 H   0  0  0  0  0  0
  -32.1957  -20.5978   22.5478 H   0  0  0  0  0  0
  -31.1898  -21.2867   21.3076 H   0  0  0  0  0  0
  -32.4870  -20.2023   20.8728 H   0  0  0  0  0  0
  -30.4283  -19.4123   23.8854 H   0  0  0  0  0  0
  -29.1308  -18.5480   23.0768 H   0  0  0  0  0  0
  -29.2782  -20.2928   22.9122 H   0  0  0  0  0  0
  -32.3769  -18.2467   22.8903 H   0  0  0  0  0  0
  -32.3123  -17.6819   21.2400 H   0  0  0  0  0  0
  -31.1536  -17.1062   22.4469 H   0  0  0  0  0  0
  -30.1192  -18.7473   18.2923 H   0  0  0  0  0  0
  -31.5708  -18.3578   19.1973 H   0  0  0  0  0  0
  -31.0726  -20.0345   18.9973 H   0  0  0  0  0  0
  -28.7530  -16.9571   19.6409 H   0  0  0  0  0  0
  -28.8548  -16.9198   21.3391 H   0  0  0  0  0  0
  -29.8498  -22.5430   19.7213 H   0  0  0  0  0  0
  -29.4017  -22.5205   21.3835 H   0  0  0  0  0  0
  -28.2929  -20.3504   19.3450 H   0  0  0  0  0  0
  -27.9825  -20.3094   21.0150 H   0  0  0  0  0  0
  -27.1491  -23.7977   20.8378 H   0  0  0  0  0  0
  -27.5703  -23.8446   19.1787 H   0  0  0  0  0  0
  1 25  1  0  0  0
  1 30  2  0  0  0
  1 75  1  0  0  0
  2  3  1  0  0  0
  2 25  1  0  0  0
  2 81  1  0  0  0
  2 82  1  0  0  0
  3  4  1  0  0  0
  3 83  1  0  0  0
  3 84  1  0  0  0
  4  5  1  0  0  0
  4 85  1  0  0  0
  4 86  1  0  0  0
  5  6  1  0  0  0
  5 26  1  0  0  0
  5 87  1  0  0  0
  6 25  1  0  0  0
  6 88  1  0  0  0
  6 89  1  0  0  0
  7  8  2  0  0  0
  7 26  1  0  0  0
  7 29  1  0  0  0
  8  9  1  0  0  0
  8 22  1  0  0  0
  9 10  1  0  0  0
  9 27  2  0  0  0
 10 11  2  0  0  0
 10 15  1  0  0  0
 11 12  1  0  0  0
 11 90  1  0  0  0
 12 13  2  0  0  0
 12 91  1  0  0  0
 13 14  1  0  0  0
 13 31  1  0  0  0
 14 15  2  0  0  0
 14 92  1  0  0  0
 15 93  1  0  0  0
 16 17  2  0  0  0
 16 21  1  0  0  0
 16 31  1  0  0  0
 17 18  1  0  0  0
 17 94  1  0  0  0
 18 19  2  0  0  0
 18 95  1  0  0  0
 19 20  1  0  0  0
 19 24  1  0  0  0
 20 21  2  0  0  0
 20 96  1  0  0  0
 21 23  1  0  0  0
 22 28  1  0  0  0
 22 32  2  0  0  0
 26 27  1  0  0  0
 28 97  1  0  0  0
 28 98  1  0  0  0
 29 99  1  0  0  0
 29100  1  0  0  0
 33 34  1  0  0  0
 33 66  1  0  0  0
 33 70  2  0  0  0
 34 36  1  0  0  0
 34 59  1  0  0  0
 34101  1  0  0  0
 35 44  2  0  0  0
 35 45  1  0  0  0
 35 68  1  0  0  0
 36 56  1  0  0  0
 36102  1  0  0  0
 37 39  1  0  0  0
 37 47  1  0  0  0
 37 66  1  0  0  0
 37103  1  0  0  0
 38 43  2  0  0  0
 38 46  1  0  0  0
 38 47  1  0  0  0
 39 64  1  0  0  0
 39 67  2  0  0  0
 40 52  1  0  0  0
 40 53  2  0  0  0
 40 58  1  0  0  0
 41104  1  0  0  0
 41105  1  0  0  0
 41106  1  0  0  0
 41 48  1  0  0  0
 42 43  1  0  0  0
 42 66  1  0  0  0
 42107  1  0  0  0
 42108  1  0  0  0
 43 44  1  0  0  0
 44109  1  0  0  0
 45 46  2  0  0  0
 45110  1  0  0  0
 46111  1  0  0  0
 47112  1  0  0  0
 47113  1  0  0  0
 48 56  1  0  0  0
 48 65  1  0  0  0
 48114  1  0  0  0
 49 50  1  0  0  0
 49 53  1  0  0  0
 49 64  1  0  0  0
 49115  1  0  0  0
 50 51  1  0  0  0
 50116  1  0  0  0
 50117  1  0  0  0
 51 52  1  0  0  0
 51118  1  0  0  0
 51119  1  0  0  0
 52120  1  0  0  0
 52121  1  0  0  0
 53 54  1  0  0  0
 54 55  2  0  0  0
 54122  1  0  0  0
 55 57  1  0  0  0
 55123  1  0  0  0
 56 69  2  0  0  0
 57 58  2  0  0  0
 57124  1  0  0  0
 58125  1  0  0  0
 59 60  1  0  0  0
 59 61  1  0  0  0
 59 62  1  0  0  0
 60126  1  0  0  0
 60127  1  0  0  0
 60128  1  0  0  0
 61129  1  0  0  0
 61130  1  0  0  0
 61131  1  0  0  0
 62132  1  0  0  0
 62133  1  0  0  0
 62134  1  0  0  0
 63 65  1  0  0  0
 63135  1  0  0  0
 63136  1  0  0  0
 63137  1  0  0  0
 64138  1  0  0  0
 65139  1  0  0  0
 68 78  1  0  0  0
 71140  1  0  0  0
 71141  1  0  0  0
 71142  1  0  0  0
 71 79  1  0  0  0
 72 79  1  0  0  0
 72143  1  0  0  0
 72144  1  0  0  0
 72145  1  0  0  0
 73 79  1  0  0  0
 73146  1  0  0  0
 73147  1  0  0  0
 73148  1  0  0  0
 74149  1  0  0  0
 74150  1  0  0  0
 74151  1  0  0  0
 74 80  1  0  0  0
 75 80  1  0  0  0
 75152  1  0  0  0
 75153  1  0  0  0
 76 77  1  0  0  0
 76 78  1  0  0  0
 76154  1  0  0  0
 76155  1  0  0  0
 77 80  1  0  0  0
 77156  1  0  0  0
 77157  1  0  0  0
 78158  1  0  0  0
 78159  1  0  0  0
 79 80  1  0  0  0
M  ISO  4   1 100  68 101  75 100  78 101
M  END
> <chiral flag>
0

> <version>
0

> <s_m_source_file>
/data/baiqing/PycharmProjects/Reinvent-master-3.2/result/LINK_invent/BTK/process_docking_weight1_custom_sum_contain_oxygen_bond_distance_aromatic_linkinvent_7_9_3/rearranged_h_0071.sdf

> <i_m_source_file_index>
57

> <r_mmod_Potential_Energy-OPLS-2005>
2041.50573730469

> <r_mmod_Stretch_Energy-OPLS-2005>
1006.46142578125

> <r_mmod_Bend_Energy-OPLS-2005>
576.25634765625

> <r_mmod_Torsional_Energy-OPLS-2005>
198.635284423828

> <r_mmod_Improper_Torsional_Energy-OPLS-2005>
2.94827222824097

> <r_mmod_Van_der_Waal_Energy-OPLS-2005>
121.801918029785

> <r_mmod_Electrostatic_Energy-OPLS-2005>
-346.664489746094

> <r_mmod_Solvation_Energy-OPLS-2005>
-179.244674682617

> <b_mmod_Minimization_Converged-OPLS-2005>
0

> <r_mmod_RMS_Derivative-OPLS-2005>
2.02107763290405

$$$$
58
                    3D
 Structure written by MMmdl.
160168  0  0  1  0            999 V2000
  -30.6844  -14.5076   20.5204 C   0  0  0  0  0  0
  -30.4298  -12.3170   19.4258 C   0  0  0  0  0  0
  -29.4987  -12.5008   18.2093 C   0  0  0  0  0  0
  -28.0199  -12.3531   18.6225 C   0  0  0  0  0  0
  -27.6590  -13.1934   19.8774 C   0  0  2  0  0  0
  -28.7095  -13.0061   20.9960 C   0  0  0  0  0  0
  -25.2606  -13.8110   20.5702 C   0  0  0  0  0  0
  -24.1838  -13.0415   20.9192 C   0  0  0  0  0  0
  -24.6371  -11.6879   20.8755 C   0  0  0  0  0  0
  -23.9033  -10.4283   21.0418 C   0  0  0  0  0  0
  -24.3599   -9.4204   21.9193 C   0  0  0  0  0  0
  -23.6285   -8.2233   22.0755 C   0  0  0  0  0  0
  -22.4267   -8.0270   21.3547 C   0  0  0  0  0  0
  -21.9902   -9.0242   20.4650 C   0  0  0  0  0  0
  -22.7213  -10.2127   20.3061 C   0  0  0  0  0  0
  -21.6845   -6.0743   22.5281 C   0  0  0  0  0  0
  -21.4005   -6.5646   23.8216 C   0  0  0  0  0  0
  -21.3660   -5.6798   24.9178 C   0  0  0  0  0  0
  -21.6042   -4.3059   24.7224 C   0  0  0  0  0  0
  -21.8817   -3.8155   23.4341 C   0  0  0  0  0  0
  -21.9190   -4.6974   22.3404 C   0  0  0  0  0  0
  -22.7864  -13.5242   21.1841 C   0  0  0  0  0  0
  -22.1655   -4.2166   21.0981 F   0  0  0  0  0  0
  -21.5636   -3.4541   25.7734 F   0  0  0  0  0  0
  -30.0357  -13.3143   20.4315 N   0  0  0  0  0  0
  -26.3019  -12.9237   20.3403 N   0  0  0  0  0  0
  -25.9299  -11.6422   20.5810 N   0  0  0  0  0  0
  -22.0483  -12.8259   22.0390 N   0  0  0  0  0  0
  -25.4331  -15.1826   20.4104 N   0  0  0  0  0  0
  -31.8358  -14.6819   20.1188 O   0  0  0  0  0  0
  -21.6624   -6.8876   21.4240 O   0  0  0  0  0  0
  -22.3567  -14.5559   20.6695 O   0  0  0  0  0  0
  -24.6162  -31.8670   23.2090 C   0  0  0  0  0  0
  -25.9053  -32.4815   23.8389 C   0  0  1  0  0  0
  -27.2368  -27.4194   20.0900 C   0  0  0  0  0  0
  -25.5908  -33.8614   24.2321 N   0  0  0  0  0  0
  -23.4040  -30.4911   21.5493 C   0  0  2  0  0  0
  -24.8496  -28.9549   20.1119 C   0  0  0  0  0  0
  -22.7409  -29.4663   22.4975 C   0  0  0  0  0  0
  -18.0275  -28.1385   22.8487 C   0  0  0  0  0  0
  -24.1489  -36.7317   23.2637 C   0  0  0  0  0  0
  -25.9340  -30.8259   21.3652 C   0  0  0  0  0  0
  -26.0092  -29.4589   20.7118 C   0  0  0  0  0  0
  -27.2014  -28.6971   20.7009 C   0  0  0  0  0  0
  -26.0554  -26.9369   19.4780 C   0  0  0  0  0  0
  -24.8681  -27.6931   19.4936 C   0  0  0  0  0  0
  -23.6129  -29.8243   20.1631 C   0  0  0  0  0  0
  -25.4108  -36.3108   24.0335 C   0  0  1  0  0  0
  -20.5865  -28.3677   23.1307 C   0  0  2  0  0  0
  -20.6764  -26.9412   22.5409 C   0  0  0  0  0  0
  -19.5745  -26.6392   21.5203 C   0  0  0  0  0  0
  -18.1925  -26.7931   22.1617 C   0  0  0  0  0  0
  -19.1524  -28.8844   23.2897 C   0  0  0  0  0  0
  -18.9453  -30.1449   23.8914 C   0  0  0  0  0  0
  -17.6458  -30.6588   24.0569 C   0  0  0  0  0  0
  -25.9036  -34.9472   23.5124 C   0  0  0  0  0  0
  -16.5348  -29.9095   23.6325 C   0  0  0  0  0  0
  -16.7265  -28.6511   23.0343 C   0  0  0  0  0  0
  -26.4477  -31.6597   25.0721 C   0  0  0  0  0  0
  -25.3744  -31.3700   26.1472 C   0  0  0  0  0  0
  -27.0309  -30.3041   24.6099 C   0  0  0  0  0  0
  -27.6058  -32.4310   25.7483 C   0  0  0  0  0  0
  -27.5581  -37.1812   24.8464 C   0  0  0  0  0  0
  -21.4137  -29.3046   22.3715 N   0  0  0  0  0  0
  -26.4294  -37.3792   23.9407 N   0  0  0  0  0  0
  -24.6696  -31.0758   22.0999 N   0  0  0  0  0  0
  -23.4174  -28.8207   23.3024 O   0  0  0  0  0  0
  -28.4168  -26.6940   20.1244 O   0  0  0  0  0  0
  -26.5593  -34.8925   22.4683 O   0  0  0  0  0  0
  -23.5350  -32.1434   23.7475 O   0  0  0  0  0  0
  -31.2408  -21.2301   19.7834 C   0  0  0  0  0  0
  -28.7996  -20.1365   19.4770 C   0  0  0  0  0  0
  -30.1089  -22.0420   19.5186 C   0  0  0  0  0  0
  -29.9465  -19.3013   19.6276 C   0  0  0  0  0  0
  -31.0114  -17.3778   18.4137 C   0  0  0  0  0  0
  -30.2651  -23.5201   19.1378 C   0  0  0  0  0  0
  -29.7144  -24.5991   20.1108 C   0  0  0  0  0  0
  -30.2008  -17.0031   20.8077 C   0  0  0  0  0  0
  -28.4307  -25.3356   19.6460 C   0  0  0  0  0  0
  -29.9121  -17.7466   19.4433 C   0  0  1  0  0  0
  -28.5545  -17.2932   18.8087 C   0  0  0  0  0  0
  -28.8755  -21.4930   19.4102 N   0  0  0  0  0  0
  -31.1628  -19.8751   19.8507 N   0  0  0  0  0  0
  -29.9076  -15.5475   20.8822 N   0  0  0  0  0  0
  -28.2581  -18.0018   17.7168 F   0  0  0  0  0  0
  -27.5545  -17.4037   19.6851 F   0  0  0  0  0  0
  -28.6028  -16.0216   18.4149 F   0  0  0  0  0  0
  -31.4729  -12.4220   19.1223 H   0  0  0  0  0  0
  -30.3355  -11.3107   19.8362 H   0  0  0  0  0  0
  -29.7462  -11.7737   17.4347 H   0  0  0  0  0  0
  -29.6604  -13.4854   17.7671 H   0  0  0  0  0  0
  -27.8369  -11.2964   18.8226 H   0  0  0  0  0  0
  -27.3676  -12.6215   17.7904 H   0  0  0  0  0  0
  -27.6823  -14.2342   19.5767 H   0  0  0  0  0  0
  -28.6959  -11.9784   21.3624 H   0  0  0  0  0  0
  -28.4750  -13.6284   21.8603 H   0  0  0  0  0  0
  -25.2745   -9.5684   22.4765 H   0  0  0  0  0  0
  -24.0012   -7.4620   22.7458 H   0  0  0  0  0  0
  -21.0841   -8.8733   19.8955 H   0  0  0  0  0  0
  -22.3660  -10.9660   19.6169 H   0  0  0  0  0  0
  -21.1981   -7.6153   23.9721 H   0  0  0  0  0  0
  -21.1490   -6.0529   25.9084 H   0  0  0  0  0  0
  -22.0599   -2.7620   23.2827 H   0  0  0  0  0  0
  -22.4091  -11.9935   22.4813 H   0  0  0  0  0  0
  -21.1096  -13.1288   22.2565 H   0  0  0  0  0  0
  -24.6628  -15.8334   20.5133 H   0  0  0  0  0  0
  -26.2808  -15.6283   20.0830 H   0  0  0  0  0  0
  -26.7121  -32.5518   23.1148 H   0  0  0  0  0  0
  -25.0069  -33.9777   25.0474 H   0  0  0  0  0  0
  -22.6941  -31.3091   21.4097 H   0  0  0  0  0  0
  -23.3742  -35.9661   23.3313 H   0  0  0  0  0  0
  -24.3584  -36.8917   22.2050 H   0  0  0  0  0  0
  -23.7252  -37.6531   23.6643 H   0  0  0  0  0  0
  -26.0477  -31.5918   20.5967 H   0  0  0  0  0  0
  -26.8217  -30.8787   21.9838 H   0  0  0  0  0  0
  -28.0952  -29.0826   21.1714 H   0  0  0  0  0  0
  -26.0262  -25.9792   18.9800 H   0  0  0  0  0  0
  -23.9780  -27.3002   19.0224 H   0  0  0  0  0  0
  -23.7239  -30.6004   19.4048 H   0  0  0  0  0  0
  -22.7356  -29.2472   19.8650 H   0  0  0  0  0  0
  -25.1284  -36.1972   25.0827 H   0  0  0  0  0  0
  -20.9957  -28.3242   24.1427 H   0  0  0  0  0  0
  -20.5658  -26.2287   23.3597 H   0  0  0  0  0  0
  -21.6636  -26.7454   22.1207 H   0  0  0  0  0  0
  -19.6909  -25.6303   21.1232 H   0  0  0  0  0  0
  -19.6687  -27.3200   20.6729 H   0  0  0  0  0  0
  -17.4191  -26.6673   21.4024 H   0  0  0  0  0  0
  -18.0341  -26.0072   22.9015 H   0  0  0  0  0  0
  -19.7932  -30.7257   24.2291 H   0  0  0  0  0  0
  -17.5018  -31.6271   24.5170 H   0  0  0  0  0  0
  -15.5351  -30.3006   23.7643 H   0  0  0  0  0  0
  -15.8663  -28.0842   22.7043 H   0  0  0  0  0  0
  -24.5917  -30.7047   25.7807 H   0  0  0  0  0  0
  -24.8939  -32.2853   26.4936 H   0  0  0  0  0  0
  -25.8105  -30.8858   27.0220 H   0  0  0  0  0  0
  -26.2851  -29.6799   24.1161 H   0  0  0  0  0  0
  -27.4089  -29.7279   25.4554 H   0  0  0  0  0  0
  -27.8683  -30.4363   23.9243 H   0  0  0  0  0  0
  -27.2684  -33.3595   26.2102 H   0  0  0  0  0  0
  -28.3849  -32.6892   25.0298 H   0  0  0  0  0  0
  -28.0750  -31.8409   26.5364 H   0  0  0  0  0  0
  -28.2601  -38.0105   24.7503 H   0  0  0  0  0  0
  -28.1071  -36.2636   24.6296 H   0  0  0  0  0  0
  -27.2302  -37.1471   25.8869 H   0  0  0  0  0  0
  -20.9294  -29.8787   21.6958 H   0  0  0  0  0  0
  -26.0184  -38.2872   24.1399 H   0  0  0  0  0  0
  -32.2304  -21.6578   19.8561 H   0  0  0  0  0  0
  -27.8056  -19.7416   19.3377 H   0  0  0  0  0  0
  -32.0084  -17.6142   18.7843 H   0  0  0  0  0  0
  -30.8714  -17.9225   17.4797 H   0  0  0  0  0  0
  -31.0098  -16.3178   18.1678 H   0  0  0  0  0  0
  -29.8537  -23.6627   18.1383 H   0  0  0  0  0  0
  -31.3343  -23.7017   19.0161 H   0  0  0  0  0  0
  -30.4909  -25.3607   20.1899 H   0  0  0  0  0  0
  -29.6030  -24.2024   21.1206 H   0  0  0  0  0  0
  -29.5888  -17.4692   21.5802 H   0  0  0  0  0  0
  -31.2320  -17.1816   21.1156 H   0  0  0  0  0  0
  -27.5681  -24.7710   20.0028 H   0  0  0  0  0  0
  -28.3771  -25.3656   18.5568 H   0  0  0  0  0  0
  -28.9821  -15.2962   21.1947 H   0  0  0  0  0  0
  1 25  1  0  0  0
  1 30  2  0  0  0
  1 84  1  0  0  0
  2  3  1  0  0  0
  2 25  1  0  0  0
  2 88  1  0  0  0
  2 89  1  0  0  0
  3  4  1  0  0  0
  3 90  1  0  0  0
  3 91  1  0  0  0
  4  5  1  0  0  0
  4 92  1  0  0  0
  4 93  1  0  0  0
  5  6  1  0  0  0
  5 26  1  0  0  0
  5 94  1  0  0  0
  6 25  1  0  0  0
  6 95  1  0  0  0
  6 96  1  0  0  0
  7  8  2  0  0  0
  7 26  1  0  0  0
  7 29  1  0  0  0
  8  9  1  0  0  0
  8 22  1  0  0  0
  9 10  1  0  0  0
  9 27  2  0  0  0
 10 11  2  0  0  0
 10 15  1  0  0  0
 11 12  1  0  0  0
 11 97  1  0  0  0
 12 13  2  0  0  0
 12 98  1  0  0  0
 13 14  1  0  0  0
 13 31  1  0  0  0
 14 15  2  0  0  0
 14 99  1  0  0  0
 15100  1  0  0  0
 16 17  2  0  0  0
 16 21  1  0  0  0
 16 31  1  0  0  0
 17 18  1  0  0  0
 17101  1  0  0  0
 18 19  2  0  0  0
 18102  1  0  0  0
 19 20  1  0  0  0
 19 24  1  0  0  0
 20 21  2  0  0  0
 20103  1  0  0  0
 21 23  1  0  0  0
 22 28  1  0  0  0
 22 32  2  0  0  0
 26 27  1  0  0  0
 28104  1  0  0  0
 28105  1  0  0  0
 29106  1  0  0  0
 29107  1  0  0  0
 33 34  1  0  0  0
 33 66  1  0  0  0
 33 70  2  0  0  0
 34 36  1  0  0  0
 34 59  1  0  0  0
 34108  1  0  0  0
 35 44  2  0  0  0
 35 45  1  0  0  0
 35 68  1  0  0  0
 36 56  1  0  0  0
 36109  1  0  0  0
 37 39  1  0  0  0
 37 47  1  0  0  0
 37 66  1  0  0  0
 37110  1  0  0  0
 38 43  2  0  0  0
 38 46  1  0  0  0
 38 47  1  0  0  0
 39 64  1  0  0  0
 39 67  2  0  0  0
 40 52  1  0  0  0
 40 53  2  0  0  0
 40 58  1  0  0  0
 41111  1  0  0  0
 41112  1  0  0  0
 41113  1  0  0  0
 41 48  1  0  0  0
 42 43  1  0  0  0
 42 66  1  0  0  0
 42114  1  0  0  0
 42115  1  0  0  0
 43 44  1  0  0  0
 44116  1  0  0  0
 45 46  2  0  0  0
 45117  1  0  0  0
 46118  1  0  0  0
 47119  1  0  0  0
 47120  1  0  0  0
 48 56  1  0  0  0
 48 65  1  0  0  0
 48121  1  0  0  0
 49 50  1  0  0  0
 49 53  1  0  0  0
 49 64  1  0  0  0
 49122  1  0  0  0
 50 51  1  0  0  0
 50123  1  0  0  0
 50124  1  0  0  0
 51 52  1  0  0  0
 51125  1  0  0  0
 51126  1  0  0  0
 52127  1  0  0  0
 52128  1  0  0  0
 53 54  1  0  0  0
 54 55  2  0  0  0
 54129  1  0  0  0
 55 57  1  0  0  0
 55130  1  0  0  0
 56 69  2  0  0  0
 57 58  2  0  0  0
 57131  1  0  0  0
 58132  1  0  0  0
 59 60  1  0  0  0
 59 61  1  0  0  0
 59 62  1  0  0  0
 60133  1  0  0  0
 60134  1  0  0  0
 60135  1  0  0  0
 61136  1  0  0  0
 61137  1  0  0  0
 61138  1  0  0  0
 62139  1  0  0  0
 62140  1  0  0  0
 62141  1  0  0  0
 63 65  1  0  0  0
 63142  1  0  0  0
 63143  1  0  0  0
 63144  1  0  0  0
 64145  1  0  0  0
 65146  1  0  0  0
 68 79  1  0  0  0
 71 73  2  0  0  0
 71 83  1  0  0  0
 71147  1  0  0  0
 72 74  1  0  0  0
 72 82  2  0  0  0
 72148  1  0  0  0
 73 76  1  0  0  0
 73 82  1  0  0  0
 74 80  1  0  0  0
 74 83  2  0  0  0
 75149  1  0  0  0
 75150  1  0  0  0
 75151  1  0  0  0
 75 80  1  0  0  0
 76 77  1  0  0  0
 76152  1  0  0  0
 76153  1  0  0  0
 77 79  1  0  0  0
 77154  1  0  0  0
 77155  1  0  0  0
 78 80  1  0  0  0
 78 84  1  0  0  0
 78156  1  0  0  0
 78157  1  0  0  0
 79158  1  0  0  0
 79159  1  0  0  0
 80 81  1  0  0  0
 81 85  1  0  0  0
 81 86  1  0  0  0
 81 87  1  0  0  0
 84160  1  0  0  0
M  ISO  4   1 100  68 101  79 101  84 100
M  END
> <chiral flag>
0

> <version>
0

> <s_m_source_file>
/data/baiqing/PycharmProjects/Reinvent-master-3.2/result/LINK_invent/BTK/process_docking_weight1_custom_sum_contain_oxygen_bond_distance_aromatic_linkinvent_7_9_3/rearranged_h_0071.sdf

> <i_m_source_file_index>
58

> <r_mmod_Potential_Energy-OPLS-2005>
73.6631240844727

> <r_mmod_Stretch_Energy-OPLS-2005>
50.5565719604492

> <r_mmod_Bend_Energy-OPLS-2005>
118.094970703125

> <r_mmod_Torsional_Energy-OPLS-2005>
222.452362060547

> <r_mmod_Improper_Torsional_Energy-OPLS-2005>
5.86164379119873

> <r_mmod_Van_der_Waal_Energy-OPLS-2005>
164.969619750977

> <r_mmod_Electrostatic_Energy-OPLS-2005>
-295.560546875

> <r_mmod_Solvation_Energy-OPLS-2005>
-210.218597412109

> <b_mmod_Minimization_Converged-OPLS-2005>
0

> <r_mmod_RMS_Derivative-OPLS-2005>
1.10090017318726

$$$$
59
                    3D
 Structure written by MMmdl.
173181  0  0  1  0            999 V2000
  -30.7084  -14.4370   20.6574 C   0  0  0  0  0  0
  -30.4335  -12.3161   19.4012 C   0  0  0  0  0  0
  -29.4870  -12.5218   18.2006 C   0  0  0  0  0  0
  -28.0116  -12.3679   18.6232 C   0  0  0  0  0  0
  -27.6676  -13.1979   19.8877 C   0  0  2  0  0  0
  -28.7140  -12.9470   20.9986 C   0  0  0  0  0  0
  -25.2611  -13.8124   20.5700 C   0  0  0  0  0  0
  -24.1851  -13.0420   20.9209 C   0  0  0  0  0  0
  -24.6405  -11.6885   20.8772 C   0  0  0  0  0  0
  -23.9071  -10.4282   21.0430 C   0  0  0  0  0  0
  -24.3619   -9.4199   21.9202 C   0  0  0  0  0  0
  -23.6288   -8.2243   22.0770 C   0  0  0  0  0  0
  -22.4281   -8.0285   21.3546 C   0  0  0  0  0  0
  -21.9924   -9.0263   20.4660 C   0  0  0  0  0  0
  -22.7247  -10.2142   20.3075 C   0  0  0  0  0  0
  -21.6855   -6.0744   22.5285 C   0  0  0  0  0  0
  -21.4014   -6.5649   23.8215 C   0  0  0  0  0  0
  -21.3649   -5.6798   24.9176 C   0  0  0  0  0  0
  -21.6040   -4.3058   24.7231 C   0  0  0  0  0  0
  -21.8816   -3.8157   23.4350 C   0  0  0  0  0  0
  -21.9195   -4.6974   22.3407 C   0  0  0  0  0  0
  -22.7870  -13.5227   21.1856 C   0  0  0  0  0  0
  -22.1662   -4.2168   21.0979 F   0  0  0  0  0  0
  -21.5633   -3.4534   25.7739 F   0  0  0  0  0  0
  -30.0399  -13.2724   20.4481 N   0  0  0  0  0  0
  -26.3061  -12.9285   20.3456 N   0  0  0  0  0  0
  -25.9333  -11.6453   20.5843 N   0  0  0  0  0  0
  -22.0514  -12.8212   22.0407 N   0  0  0  0  0  0
  -25.4368  -15.1826   20.4029 N   0  0  0  0  0  0
  -31.7826  -14.6985   20.1050 O   0  0  0  0  0  0
  -21.6635   -6.8887   21.4244 O   0  0  0  0  0  0
  -22.3576  -14.5554   20.6736 O   0  0  0  0  0  0
  -24.6094  -31.8704   23.2133 C   0  0  0  0  0  0
  -25.9006  -32.4841   23.8417 C   0  0  1  0  0  0
  -27.2327  -27.4654   20.0846 C   0  0  0  0  0  0
  -25.5904  -33.8640   24.2358 N   0  0  0  0  0  0
  -23.3961  -30.4922   21.5544 C   0  0  2  0  0  0
  -24.8447  -28.9596   20.1178 C   0  0  0  0  0  0
  -22.7390  -29.4641   22.5012 C   0  0  0  0  0  0
  -18.0266  -28.1331   22.8460 C   0  0  0  0  0  0
  -24.1496  -36.7313   23.2640 C   0  0  0  0  0  0
  -25.9222  -30.8425   21.3643 C   0  0  0  0  0  0
  -26.0026  -29.4770   20.7166 C   0  0  0  0  0  0
  -27.2026  -28.7331   20.7039 C   0  0  0  0  0  0
  -26.0662  -26.9541   19.4850 C   0  0  0  0  0  0
  -24.8690  -27.6943   19.5030 C   0  0  0  0  0  0
  -23.6060  -29.8249   20.1683 C   0  0  0  0  0  0
  -25.4113  -36.3121   24.0353 C   0  0  1  0  0  0
  -20.5854  -28.3613   23.1317 C   0  0  2  0  0  0
  -20.6757  -26.9347   22.5406 C   0  0  0  0  0  0
  -19.5760  -26.6343   21.5175 C   0  0  0  0  0  0
  -18.1928  -26.7882   22.1575 C   0  0  0  0  0  0
  -19.1514  -28.8784   23.2890 C   0  0  0  0  0  0
  -18.9446  -30.1398   23.8888 C   0  0  0  0  0  0
  -17.6451  -30.6544   24.0526 C   0  0  0  0  0  0
  -25.9028  -34.9481   23.5139 C   0  0  0  0  0  0
  -16.5343  -29.9041   23.6308 C   0  0  0  0  0  0
  -16.7259  -28.6460   23.0330 C   0  0  0  0  0  0
  -26.4456  -31.6603   25.0710 C   0  0  0  0  0  0
  -25.3741  -31.3692   26.1465 C   0  0  0  0  0  0
  -27.0297  -30.3074   24.6022 C   0  0  0  0  0  0
  -27.6045  -32.4317   25.7472 C   0  0  0  0  0  0
  -27.5593  -37.1814   24.8471 C   0  0  0  0  0  0
  -21.4120  -29.3005   22.3763 N   0  0  0  0  0  0
  -26.4307  -37.3795   23.9414 N   0  0  0  0  0  0
  -24.6605  -31.0824   22.1032 N   0  0  0  0  0  0
  -23.4174  -28.8179   23.3038 O   0  0  0  0  0  0
  -28.3834  -26.7201   20.0376 O   0  0  0  0  0  0
  -26.5558  -34.8927   22.4683 O   0  0  0  0  0  0
  -23.5300  -32.1460   23.7541 O   0  0  0  0  0  0
  -29.2883  -21.7482   18.6585 C   0  0  0  0  0  0
  -28.7374  -22.2798   19.7930 C   0  0  0  0  0  0
  -29.1840  -20.0996   20.1631 C   0  0  0  0  0  0
  -30.5062  -18.8659   15.4571 C   0  0  0  0  0  0
  -29.1154  -19.0089   22.4354 C   0  0  0  0  0  0
  -27.8401  -18.0641   20.4972 C   0  0  0  0  0  0
  -28.2071  -23.6587   20.0743 C   0  0  0  0  0  0
  -30.0968  -15.5066   21.5860 C   0  0  0  0  0  0
  -29.9980  -19.9344   16.4320 C   0  0  0  0  0  0
  -29.2018  -24.5595   20.8263 C   0  0  0  0  0  0
  -30.0071  -19.4369   17.8890 C   0  0  0  0  0  0
  -30.4031  -17.8415   20.5462 C   0  0  0  0  0  0
  -28.6053  -25.9314   21.2039 C   0  0  0  0  0  0
  -29.1629  -18.7504   20.9057 C   0  0  0  0  0  0
  -29.5010  -20.4056   18.8818 N   0  0  0  0  0  0
  -28.7000  -21.2403   20.6890 N   0  3  0  0  0  0
  -30.8223  -16.8037   21.5349 N   0  3  0  0  0  0
  -31.4711  -12.4419   19.0898 H   0  0  0  0  0  0
  -30.3600  -11.2959   19.7815 H   0  0  0  0  0  0
  -29.7213  -11.8099   17.4092 H   0  0  0  0  0  0
  -29.6444  -13.5141   17.7752 H   0  0  0  0  0  0
  -27.8265  -11.3099   18.8158 H   0  0  0  0  0  0
  -27.3522  -12.6445   17.8011 H   0  0  0  0  0  0
  -27.7224  -14.2488   19.6042 H   0  0  0  0  0  0
  -28.6958  -11.8988   21.3003 H   0  0  0  0  0  0
  -28.4728  -13.5053   21.9024 H   0  0  0  0  0  0
  -25.2755   -9.5668   22.4793 H   0  0  0  0  0  0
  -23.9994   -7.4625   22.7472 H   0  0  0  0  0  0
  -21.0874   -8.8776   19.8952 H   0  0  0  0  0  0
  -22.3705  -10.9688   19.6197 H   0  0  0  0  0  0
  -21.1995   -7.6159   23.9709 H   0  0  0  0  0  0
  -21.1474   -6.0543   25.9078 H   0  0  0  0  0  0
  -22.0607   -2.7626   23.2841 H   0  0  0  0  0  0
  -22.4123  -11.9813   22.4699 H   0  0  0  0  0  0
  -21.1154  -13.1255   22.2655 H   0  0  0  0  0  0
  -24.6688  -15.8384   20.4919 H   0  0  0  0  0  0
  -26.2734  -15.6029   20.0227 H   0  0  0  0  0  0
  -26.7065  -32.5578   23.1180 H   0  0  0  0  0  0
  -25.0167  -33.9818   25.0582 H   0  0  0  0  0  0
  -22.6820  -31.3059   21.4182 H   0  0  0  0  0  0
  -23.3759  -35.9641   23.3303 H   0  0  0  0  0  0
  -24.3617  -36.8912   22.2054 H   0  0  0  0  0  0
  -23.7235  -37.6521   23.6641 H   0  0  0  0  0  0
  -26.0267  -31.6083   20.5953 H   0  0  0  0  0  0
  -26.8121  -30.9015   21.9779 H   0  0  0  0  0  0
  -28.0998  -29.1294   21.1591 H   0  0  0  0  0  0
  -26.0860  -25.9855   19.0028 H   0  0  0  0  0  0
  -23.9789  -27.2910   19.0392 H   0  0  0  0  0  0
  -23.7124  -30.6013   19.4107 H   0  0  0  0  0  0
  -22.7294  -29.2463   19.8715 H   0  0  0  0  0  0
  -25.1284  -36.1995   25.0847 H   0  0  0  0  0  0
  -20.9921  -28.3146   24.1446 H   0  0  0  0  0  0
  -20.5619  -26.2206   23.3583 H   0  0  0  0  0  0
  -21.6647  -26.7374   22.1229 H   0  0  0  0  0  0
  -19.6930  -25.6251   21.1222 H   0  0  0  0  0  0
  -19.6722  -27.3135   20.6693 H   0  0  0  0  0  0
  -17.4203  -26.6598   21.3975 H   0  0  0  0  0  0
  -18.0342  -26.0011   22.8962 H   0  0  0  0  0  0
  -19.7929  -30.7207   24.2254 H   0  0  0  0  0  0
  -17.5013  -31.6228   24.5113 H   0  0  0  0  0  0
  -15.5351  -30.2940   23.7637 H   0  0  0  0  0  0
  -15.8657  -28.0789   22.7035 H   0  0  0  0  0  0
  -24.5914  -30.7032   25.7812 H   0  0  0  0  0  0
  -24.8919  -32.2834   26.4926 H   0  0  0  0  0  0
  -25.8101  -30.8860   27.0213 H   0  0  0  0  0  0
  -26.2817  -29.6831   24.1110 H   0  0  0  0  0  0
  -27.4169  -29.7296   25.4425 H   0  0  0  0  0  0
  -27.8607  -30.4456   23.9100 H   0  0  0  0  0  0
  -27.2673  -33.3609   26.2083 H   0  0  0  0  0  0
  -28.3835  -32.6889   25.0281 H   0  0  0  0  0  0
  -28.0730  -31.8412   26.5357 H   0  0  0  0  0  0
  -28.2599  -38.0120   24.7521 H   0  0  0  0  0  0
  -28.1100  -36.2649   24.6292 H   0  0  0  0  0  0
  -27.2318  -37.1460   25.8876 H   0  0  0  0  0  0
  -20.9264  -29.8778   21.7044 H   0  0  0  0  0  0
  -26.0194  -38.2876   24.1412 H   0  0  0  0  0  0
  -29.4916  -22.2271   17.7109 H   0  0  0  0  0  0
  -30.4841  -19.2365   14.4303 H   0  0  0  0  0  0
  -29.8920  -17.9645   15.4983 H   0  0  0  0  0  0
  -31.5349  -18.5833   15.6846 H   0  0  0  0  0  0
  -28.2413  -19.5937   22.7246 H   0  0  0  0  0  0
  -29.9975  -19.5504   22.7778 H   0  0  0  0  0  0
  -29.0473  -18.0853   23.0113 H   0  0  0  0  0  0
  -26.9944  -18.7417   20.6283 H   0  0  0  0  0  0
  -27.6161  -17.1850   21.0941 H   0  0  0  0  0  0
  -27.8375  -17.7674   19.4478 H   0  0  0  0  0  0
  -27.2783  -23.5734   20.6384 H   0  0  0  0  0  0
  -27.9412  -24.1274   19.1247 H   0  0  0  0  0  0
  -29.0415  -15.6380   21.3770 H   0  0  0  0  0  0
  -30.1748  -15.1219   22.6050 H   0  0  0  0  0  0
  -28.9882  -20.2301   16.1430 H   0  0  0  0  0  0
  -30.6283  -20.8183   16.3356 H   0  0  0  0  0  0
  -30.1022  -24.7024   20.2293 H   0  0  0  0  0  0
  -29.5167  -24.0522   21.7392 H   0  0  0  0  0  0
  -31.0251  -19.1722   18.1735 H   0  0  0  0  0  0
  -29.3875  -18.5442   17.9453 H   0  0  0  0  0  0
  -31.2764  -18.4860   20.4350 H   0  0  0  0  0  0
  -30.2680  -17.3442   19.5869 H   0  0  0  0  0  0
  -29.2980  -26.4761   21.8474 H   0  0  0  0  0  0
  -27.6891  -25.7890   21.7834 H   0  0  0  0  0  0
  -28.3267  -21.3037   21.6295 H   0  0  0  0  0  0
  -31.7682  -16.5398   21.2989 H   0  0  0  0  0  0
  -30.8519  -17.2172   22.4526 H   0  0  0  0  0  0
  1 25  1  0  0  0
  1 30  2  0  0  0
  1 78  1  0  0  0
  2  3  1  0  0  0
  2 25  1  0  0  0
  2 88  1  0  0  0
  2 89  1  0  0  0
  3  4  1  0  0  0
  3 90  1  0  0  0
  3 91  1  0  0  0
  4  5  1  0  0  0
  4 92  1  0  0  0
  4 93  1  0  0  0
  5  6  1  0  0  0
  5 26  1  0  0  0
  5 94  1  0  0  0
  6 25  1  0  0  0
  6 95  1  0  0  0
  6 96  1  0  0  0
  7  8  2  0  0  0
  7 26  1  0  0  0
  7 29  1  0  0  0
  8  9  1  0  0  0
  8 22  1  0  0  0
  9 10  1  0  0  0
  9 27  2  0  0  0
 10 11  2  0  0  0
 10 15  1  0  0  0
 11 12  1  0  0  0
 11 97  1  0  0  0
 12 13  2  0  0  0
 12 98  1  0  0  0
 13 14  1  0  0  0
 13 31  1  0  0  0
 14 15  2  0  0  0
 14 99  1  0  0  0
 15100  1  0  0  0
 16 17  2  0  0  0
 16 21  1  0  0  0
 16 31  1  0  0  0
 17 18  1  0  0  0
 17101  1  0  0  0
 18 19  2  0  0  0
 18102  1  0  0  0
 19 20  1  0  0  0
 19 24  1  0  0  0
 20 21  2  0  0  0
 20103  1  0  0  0
 21 23  1  0  0  0
 22 28  1  0  0  0
 22 32  2  0  0  0
 26 27  1  0  0  0
 28104  1  0  0  0
 28105  1  0  0  0
 29106  1  0  0  0
 29107  1  0  0  0
 33 34  1  0  0  0
 33 66  1  0  0  0
 33 70  2  0  0  0
 34 36  1  0  0  0
 34 59  1  0  0  0
 34108  1  0  0  0
 35 44  2  0  0  0
 35 45  1  0  0  0
 35 68  1  0  0  0
 36 56  1  0  0  0
 36109  1  0  0  0
 37 39  1  0  0  0
 37 47  1  0  0  0
 37 66  1  0  0  0
 37110  1  0  0  0
 38 43  2  0  0  0
 38 46  1  0  0  0
 38 47  1  0  0  0
 39 64  1  0  0  0
 39 67  2  0  0  0
 40 52  1  0  0  0
 40 53  2  0  0  0
 40 58  1  0  0  0
 41111  1  0  0  0
 41112  1  0  0  0
 41113  1  0  0  0
 41 48  1  0  0  0
 42 43  1  0  0  0
 42 66  1  0  0  0
 42114  1  0  0  0
 42115  1  0  0  0
 43 44  1  0  0  0
 44116  1  0  0  0
 45 46  2  0  0  0
 45117  1  0  0  0
 46118  1  0  0  0
 47119  1  0  0  0
 47120  1  0  0  0
 48 56  1  0  0  0
 48 65  1  0  0  0
 48121  1  0  0  0
 49 50  1  0  0  0
 49 53  1  0  0  0
 49 64  1  0  0  0
 49122  1  0  0  0
 50 51  1  0  0  0
 50123  1  0  0  0
 50124  1  0  0  0
 51 52  1  0  0  0
 51125  1  0  0  0
 51126  1  0  0  0
 52127  1  0  0  0
 52128  1  0  0  0
 53 54  1  0  0  0
 54 55  2  0  0  0
 54129  1  0  0  0
 55 57  1  0  0  0
 55130  1  0  0  0
 56 69  2  0  0  0
 57 58  2  0  0  0
 57131  1  0  0  0
 58132  1  0  0  0
 59 60  1  0  0  0
 59 61  1  0  0  0
 59 62  1  0  0  0
 60133  1  0  0  0
 60134  1  0  0  0
 60135  1  0  0  0
 61136  1  0  0  0
 61137  1  0  0  0
 61138  1  0  0  0
 62139  1  0  0  0
 62140  1  0  0  0
 62141  1  0  0  0
 63 65  1  0  0  0
 63142  1  0  0  0
 63143  1  0  0  0
 63144  1  0  0  0
 64145  1  0  0  0
 65146  1  0  0  0
 68 83  1  0  0  0
 71 72  2  0  0  0
 71 85  1  0  0  0
 71147  1  0  0  0
 72 77  1  0  0  0
 72 86  1  0  0  0
 73 84  1  0  0  0
 73 85  1  0  0  0
 73 86  2  0  0  0
 74 79  1  0  0  0
 74148  1  0  0  0
 74149  1  0  0  0
 74150  1  0  0  0
 75151  1  0  0  0
 75152  1  0  0  0
 75153  1  0  0  0
 75 84  1  0  0  0
 76 84  1  0  0  0
 76154  1  0  0  0
 76155  1  0  0  0
 76156  1  0  0  0
 77 80  1  0  0  0
 77157  1  0  0  0
 77158  1  0  0  0
 78 87  1  0  0  0
 78159  1  0  0  0
 78160  1  0  0  0
 79 81  1  0  0  0
 79161  1  0  0  0
 79162  1  0  0  0
 80 83  1  0  0  0
 80163  1  0  0  0
 80164  1  0  0  0
 81 85  1  0  0  0
 81165  1  0  0  0
 81166  1  0  0  0
 82 84  1  0  0  0
 82 87  1  0  0  0
 82167  1  0  0  0
 82168  1  0  0  0
 83169  1  0  0  0
 83170  1  0  0  0
 86171  1  0  0  0
 87172  1  0  0  0
 87173  1  0  0  0
M  CHG  2  86   1  87   1
M  ISO  4   1 100  68 101  78 100  83 101
M  END
> <chiral flag>
0

> <version>
0

> <s_m_source_file>
/data/baiqing/PycharmProjects/Reinvent-master-3.2/result/LINK_invent/BTK/process_docking_weight1_custom_sum_contain_oxygen_bond_distance_aromatic_linkinvent_7_9_3/rearranged_h_0071.sdf

> <i_m_source_file_index>
59

> <r_mmod_Potential_Energy-OPLS-2005>
-322.628601074219

> <r_mmod_Stretch_Energy-OPLS-2005>
39.6913375854492

> <r_mmod_Bend_Energy-OPLS-2005>
107.221206665039

> <r_mmod_Torsional_Energy-OPLS-2005>
261.734191894531

> <r_mmod_Improper_Torsional_Energy-OPLS-2005>
2.58845043182373

> <r_mmod_Van_der_Waal_Energy-OPLS-2005>
124.590766906738

> <r_mmod_Electrostatic_Energy-OPLS-2005>
30.1074657440186

> <r_mmod_Solvation_Energy-OPLS-2005>
-897.043273925781

> <b_mmod_Minimization_Converged-OPLS-2005>
0

> <r_mmod_RMS_Derivative-OPLS-2005>
2.76289844512939

$$$$
60
                    3D
 Structure written by MMmdl.
186194  0  0  1  0            999 V2000
  -30.7904  -14.3727   20.6872 C   0  0  0  0  0  0
  -30.4119  -12.2937   19.4076 C   0  0  0  0  0  0
  -29.4856  -12.5262   18.2008 C   0  0  0  0  0  0
  -28.0115  -12.3731   18.6176 C   0  0  0  0  0  0
  -27.6654  -13.2061   19.8784 C   0  0  2  0  0  0
  -28.7048  -12.9731   20.9990 C   0  0  0  0  0  0
  -25.2603  -13.8165   20.5675 C   0  0  0  0  0  0
  -24.1853  -13.0439   20.9151 C   0  0  0  0  0  0
  -24.6412  -11.6903   20.8717 C   0  0  0  0  0  0
  -23.9069  -10.4292   21.0390 C   0  0  0  0  0  0
  -24.3623   -9.4209   21.9180 C   0  0  0  0  0  0
  -23.6297   -8.2247   22.0755 C   0  0  0  0  0  0
  -22.4276   -8.0281   21.3544 C   0  0  0  0  0  0
  -21.9913   -9.0252   20.4641 C   0  0  0  0  0  0
  -22.7243  -10.2128   20.3044 C   0  0  0  0  0  0
  -21.6850   -6.0738   22.5278 C   0  0  0  0  0  0
  -21.4015   -6.5636   23.8216 C   0  0  0  0  0  0
  -21.3655   -5.6793   24.9174 C   0  0  0  0  0  0
  -21.6041   -4.3054   24.7220 C   0  0  0  0  0  0
  -21.8819   -3.8150   23.4348 C   0  0  0  0  0  0
  -21.9190   -4.6969   22.3408 C   0  0  0  0  0  0
  -22.7872  -13.5235   21.1807 C   0  0  0  0  0  0
  -22.1661   -4.2155   21.0982 F   0  0  0  0  0  0
  -21.5625   -3.4535   25.7738 F   0  0  0  0  0  0
  -30.0492  -13.2529   20.4629 N   0  0  0  0  0  0
  -26.3052  -12.9346   20.3388 N   0  0  0  0  0  0
  -25.9339  -11.6497   20.5766 N   0  0  0  0  0  0
  -22.0517  -12.8222   22.0373 N   0  0  0  0  0  0
  -25.4310  -15.1893   20.4105 N   0  0  0  0  0  0
  -31.8011  -14.6466   20.0314 O   0  0  0  0  0  0
  -21.6636   -6.8883   21.4243 O   0  0  0  0  0  0
  -22.3550  -14.5527   20.6639 O   0  0  0  0  0  0
  -24.6140  -31.8683   23.2135 C   0  0  0  0  0  0
  -25.9036  -32.4834   23.8424 C   0  0  1  0  0  0
  -27.2465  -27.4507   20.0749 C   0  0  0  0  0  0
  -25.5898  -33.8641   24.2335 N   0  0  0  0  0  0
  -23.4010  -30.4915   21.5534 C   0  0  2  0  0  0
  -24.8476  -28.9576   20.1166 C   0  0  0  0  0  0
  -22.7408  -29.4644   22.4998 C   0  0  0  0  0  0
  -18.0256  -28.1386   22.8459 C   0  0  0  0  0  0
  -24.1466  -36.7290   23.2635 C   0  0  0  0  0  0
  -25.9293  -30.8323   21.3693 C   0  0  0  0  0  0
  -26.0049  -29.4688   20.7140 C   0  0  0  0  0  0
  -27.2010  -28.7207   20.6941 C   0  0  0  0  0  0
  -26.0682  -26.9512   19.4713 C   0  0  0  0  0  0
  -24.8735  -27.6958   19.4981 C   0  0  0  0  0  0
  -23.6109  -29.8256   20.1673 C   0  0  0  0  0  0
  -25.4094  -36.3121   24.0339 C   0  0  1  0  0  0
  -20.5849  -28.3653   23.1305 C   0  0  2  0  0  0
  -20.6742  -26.9376   22.5430 C   0  0  0  0  0  0
  -19.5730  -26.6371   21.5204 C   0  0  0  0  0  0
  -18.1889  -26.7929   22.1586 C   0  0  0  0  0  0
  -19.1515  -28.8834   23.2866 C   0  0  0  0  0  0
  -18.9458  -30.1438   23.8882 C   0  0  0  0  0  0
  -17.6475  -30.6579   24.0571 C   0  0  0  0  0  0
  -25.9045  -34.9489   23.5136 C   0  0  0  0  0  0
  -16.5357  -29.9094   23.6348 C   0  0  0  0  0  0
  -16.7257  -28.6528   23.0333 C   0  0  0  0  0  0
  -26.4455  -31.6636   25.0770 C   0  0  0  0  0  0
  -25.3681  -31.3776   26.1508 C   0  0  0  0  0  0
  -27.0275  -30.3067   24.6189 C   0  0  0  0  0  0
  -27.6089  -32.4338   25.7466 C   0  0  0  0  0  0
  -27.5580  -37.1768   24.8440 C   0  0  0  0  0  0
  -21.4141  -29.3016   22.3728 N   0  0  0  0  0  0
  -26.4259  -37.3824   23.9441 N   0  0  0  0  0  0
  -24.6658  -31.0781   22.1038 N   0  0  0  0  0  0
  -23.4180  -28.8195   23.3046 O   0  0  0  0  0  0
  -28.4524  -26.7780   20.0845 O   0  0  0  0  0  0
  -26.5595  -34.8922   22.4705 O   0  0  0  0  0  0
  -23.5335  -32.1452   23.7518 O   0  0  0  0  0  0
  -28.2395  -20.0072   22.6789 C   0  0  0  0  0  0
  -28.2218  -20.6029   21.3815 C   0  0  0  0  0  0
  -29.0117  -19.7445   20.6421 C   0  0  0  0  0  0
  -26.3774  -21.4995   19.9512 C   0  0  0  0  0  0
  -26.6936  -22.4061   22.2415 C   0  0  0  0  0  0
  -33.1284  -21.4452   17.1584 C   0  0  0  0  0  0
  -33.8947  -19.2980   18.2313 C   0  0  0  0  0  0
  -33.1947  -19.3296   15.8278 C   0  0  0  0  0  0
  -31.5337  -15.2387   22.8260 C   0  0  0  0  0  0
  -29.4605  -19.7737   19.2066 C   0  0  0  0  0  0
  -30.9765  -19.9981   19.0154 C   0  0  0  0  0  0
  -27.8679  -24.4156   20.5135 C   0  0  0  0  0  0
  -28.3988  -22.9626   20.4135 C   0  0  0  0  0  0
  -31.4413  -19.5968   17.5976 C   0  0  0  0  0  0
  -30.1459  -17.4865   21.1979 C   0  0  0  0  0  0
  -29.5276  -16.1807   21.7690 C   0  0  0  0  0  0
  -28.5650  -25.4372   19.5953 C   0  0  0  0  0  0
  -27.4485  -21.8702   20.9962 C   0  0  0  0  0  0
  -32.9100  -19.9220   17.2228 C   0  0  0  0  0  0
  -28.9178  -18.8803   22.7346 N   0  0  0  0  0  0
  -29.3508  -18.6812   21.4741 N   0  0  0  0  0  0
  -30.4926  -15.0697   21.8047 N   0  0  0  0  0  0
  -31.4585  -12.3756   19.1080 H   0  0  0  0  0  0
  -30.2962  -11.2769   19.7873 H   0  0  0  0  0  0
  -29.7237  -11.8226   17.4017 H   0  0  0  0  0  0
  -29.6527  -13.5251   17.7935 H   0  0  0  0  0  0
  -27.8275  -11.3157   18.8116 H   0  0  0  0  0  0
  -27.3555  -12.6490   17.7907 H   0  0  0  0  0  0
  -27.7145  -14.2552   19.5873 H   0  0  0  0  0  0
  -28.6664  -11.9380   21.3412 H   0  0  0  0  0  0
  -28.4569  -13.5740   21.8741 H   0  0  0  0  0  0
  -25.2768   -9.5683   22.4751 H   0  0  0  0  0  0
  -23.9998   -7.4644   22.7485 H   0  0  0  0  0  0
  -21.0837   -8.8768   19.8959 H   0  0  0  0  0  0
  -22.3703  -10.9661   19.6145 H   0  0  0  0  0  0
  -21.2016   -7.6146   23.9719 H   0  0  0  0  0  0
  -21.1472   -6.0522   25.9072 H   0  0  0  0  0  0
  -22.0604   -2.7614   23.2848 H   0  0  0  0  0  0
  -22.4131  -11.9885   22.4754 H   0  0  0  0  0  0
  -21.1150  -13.1264   22.2599 H   0  0  0  0  0  0
  -24.6650  -15.8445   20.5223 H   0  0  0  0  0  0
  -26.2917  -15.6334   20.1174 H   0  0  0  0  0  0
  -26.7113  -32.5539   23.1189 H   0  0  0  0  0  0
  -25.0086  -33.9829   25.0509 H   0  0  0  0  0  0
  -22.6861  -31.3060   21.4141 H   0  0  0  0  0  0
  -23.3762  -35.9583   23.3272 H   0  0  0  0  0  0
  -24.3549  -36.8956   22.2050 H   0  0  0  0  0  0
  -23.7164  -37.6464   23.6680 H   0  0  0  0  0  0
  -26.0404  -31.5976   20.6016 H   0  0  0  0  0  0
  -26.8185  -30.8869   21.9862 H   0  0  0  0  0  0
  -28.0984  -29.1139   21.1499 H   0  0  0  0  0  0
  -26.0524  -25.9986   18.9650 H   0  0  0  0  0  0
  -23.9843  -27.2971   19.0288 H   0  0  0  0  0  0
  -23.7215  -30.6039   19.4100 H   0  0  0  0  0  0
  -22.7346  -29.2478   19.8696 H   0  0  0  0  0  0
  -25.1256  -36.1982   25.0825 H   0  0  0  0  0  0
  -20.9921  -28.3223   24.1441 H   0  0  0  0  0  0
  -20.5616  -26.2258   23.3626 H   0  0  0  0  0  0
  -21.6617  -26.7407   22.1244 H   0  0  0  0  0  0
  -19.6894  -25.6282   21.1240 H   0  0  0  0  0  0
  -19.6700  -27.3188   20.6739 H   0  0  0  0  0  0
  -17.4187  -26.6712   21.3951 H   0  0  0  0  0  0
  -18.0235  -26.0041   22.8947 H   0  0  0  0  0  0
  -19.7937  -30.7243   24.2242 H   0  0  0  0  0  0
  -17.5041  -31.6268   24.5166 H   0  0  0  0  0  0
  -15.5366  -30.3021   23.7678 H   0  0  0  0  0  0
  -15.8637  -28.0902   22.7020 H   0  0  0  0  0  0
  -24.6126  -30.6754   25.7956 H   0  0  0  0  0  0
  -24.8504  -32.2880   26.4558 H   0  0  0  0  0  0
  -25.8056  -30.9412   27.0503 H   0  0  0  0  0  0
  -26.2860  -29.6823   24.1209 H   0  0  0  0  0  0
  -27.3980  -29.7320   25.4690 H   0  0  0  0  0  0
  -27.8702  -30.4350   23.9392 H   0  0  0  0  0  0
  -27.2834  -33.3701   26.2003 H   0  0  0  0  0  0
  -28.3891  -32.6800   25.0244 H   0  0  0  0  0  0
  -28.0758  -31.8468   26.5385 H   0  0  0  0  0  0
  -28.2595  -38.0070   24.7582 H   0  0  0  0  0  0
  -28.1098  -36.2638   24.6161 H   0  0  0  0  0  0
  -27.2334  -37.1305   25.8846 H   0  0  0  0  0  0
  -20.9316  -29.8764   21.6963 H   0  0  0  0  0  0
  -26.0151  -38.2885   24.1568 H   0  0  0  0  0  0
  -27.7585  -20.3478   23.5849 H   0  0  0  0  0  0
  -25.6884  -20.7506   20.3451 H   0  0  0  0  0  0
  -26.8041  -21.0890   19.0375 H   0  0  0  0  0  0
  -25.7817  -22.3673   19.6639 H   0  0  0  0  0  0
  -26.0370  -21.6466   22.6690 H   0  0  0  0  0  0
  -26.0409  -23.2476   22.0131 H   0  0  0  0  0  0
  -27.3825  -22.7324   23.0224 H   0  0  0  0  0  0
  -34.1295  -21.6901   16.7996 H   0  0  0  0  0  0
  -33.0182  -21.9156   18.1353 H   0  0  0  0  0  0
  -32.4163  -21.9207   16.4819 H   0  0  0  0  0  0
  -34.9294  -19.4296   17.9106 H   0  0  0  0  0  0
  -33.7231  -18.2269   18.3470 H   0  0  0  0  0  0
  -33.8073  -19.7549   19.2178 H   0  0  0  0  0  0
  -34.1844  -19.6092   15.4638 H   0  0  0  0  0  0
  -32.4697  -19.6771   15.0892 H   0  0  0  0  0  0
  -33.1512  -18.2394   15.8349 H   0  0  0  0  0  0
  -31.2586  -15.9745   23.5831 H   0  0  0  0  0  0
  -32.4709  -15.5766   22.3797 H   0  0  0  0  0  0
  -31.7258  -14.2938   23.3343 H   0  0  0  0  0  0
  -28.9239  -20.5434   18.6557 H   0  0  0  0  0  0
  -29.1667  -18.8343   18.7368 H   0  0  0  0  0  0
  -31.5321  -19.4024   19.7393 H   0  0  0  0  0  0
  -31.2157  -21.0379   19.2375 H   0  0  0  0  0  0
  -27.9603  -24.7517   21.5466 H   0  0  0  0  0  0
  -26.8054  -24.4272   20.2859 H   0  0  0  0  0  0
  -29.3562  -22.9265   20.9360 H   0  0  0  0  0  0
  -28.6320  -22.7302   19.3740 H   0  0  0  0  0  0
  -30.7810  -20.0728   16.8702 H   0  0  0  0  0  0
  -31.2764  -18.5249   17.4790 H   0  0  0  0  0  0
  -30.2828  -17.3786   20.1225 H   0  0  0  0  0  0
  -31.1392  -17.6627   21.6115 H   0  0  0  0  0  0
  -28.6529  -15.9079   21.1766 H   0  0  0  0  0  0
  -29.1501  -16.3256   22.7817 H   0  0  0  0  0  0
  -28.2151  -25.3538   18.5661 H   0  0  0  0  0  0
  -29.6327  -25.2147   19.5666 H   0  0  0  0  0  0
  1 25  1  0  0  0
  1 30  2  0  0  0
  1 92  1  0  0  0
  2  3  1  0  0  0
  2 25  1  0  0  0
  2 93  1  0  0  0
  2 94  1  0  0  0
  3  4  1  0  0  0
  3 95  1  0  0  0
  3 96  1  0  0  0
  4  5  1  0  0  0
  4 97  1  0  0  0
  4 98  1  0  0  0
  5  6  1  0  0  0
  5 26  1  0  0  0
  5 99  1  0  0  0
  6 25  1  0  0  0
  6100  1  0  0  0
  6101  1  0  0  0
  7  8  2  0  0  0
  7 26  1  0  0  0
  7 29  1  0  0  0
  8  9  1  0  0  0
  8 22  1  0  0  0
  9 10  1  0  0  0
  9 27  2  0  0  0
 10 11  2  0  0  0
 10 15  1  0  0  0
 11 12  1  0  0  0
 11102  1  0  0  0
 12 13  2  0  0  0
 12103  1  0  0  0
 13 14  1  0  0  0
 13 31  1  0  0  0
 14 15  2  0  0  0
 14104  1  0  0  0
 15105  1  0  0  0
 16 17  2  0  0  0
 16 21  1  0  0  0
 16 31  1  0  0  0
 17 18  1  0  0  0
 17106  1  0  0  0
 18 19  2  0  0  0
 18107  1  0  0  0
 19 20  1  0  0  0
 19 24  1  0  0  0
 20 21  2  0  0  0
 20108  1  0  0  0
 21 23  1  0  0  0
 22 28  1  0  0  0
 22 32  2  0  0  0
 26 27  1  0  0  0
 28109  1  0  0  0
 28110  1  0  0  0
 29111  1  0  0  0
 29112  1  0  0  0
 33 34  1  0  0  0
 33 66  1  0  0  0
 33 70  2  0  0  0
 34 36  1  0  0  0
 34 59  1  0  0  0
 34113  1  0  0  0
 35 44  2  0  0  0
 35 45  1  0  0  0
 35 68  1  0  0  0
 36 56  1  0  0  0
 36114  1  0  0  0
 37 39  1  0  0  0
 37 47  1  0  0  0
 37 66  1  0  0  0
 37115  1  0  0  0
 38 43  2  0  0  0
 38 46  1  0  0  0
 38 47  1  0  0  0
 39 64  1  0  0  0
 39 67  2  0  0  0
 40 52  1  0  0  0
 40 53  2  0  0  0
 40 58  1  0  0  0
 41116  1  0  0  0
 41117  1  0  0  0
 41118  1  0  0  0
 41 48  1  0  0  0
 42 43  1  0  0  0
 42 66  1  0  0  0
 42119  1  0  0  0
 42120  1  0  0  0
 43 44  1  0  0  0
 44121  1  0  0  0
 45 46  2  0  0  0
 45122  1  0  0  0
 46123  1  0  0  0
 47124  1  0  0  0
 47125  1  0  0  0
 48 56  1  0  0  0
 48 65  1  0  0  0
 48126  1  0  0  0
 49 50  1  0  0  0
 49 53  1  0  0  0
 49 64  1  0  0  0
 49127  1  0  0  0
 50 51  1  0  0  0
 50128  1  0  0  0
 50129  1  0  0  0
 51 52  1  0  0  0
 51130  1  0  0  0
 51131  1  0  0  0
 52132  1  0  0  0
 52133  1  0  0  0
 53 54  1  0  0  0
 54 55  2  0  0  0
 54134  1  0  0  0
 55 57  1  0  0  0
 55135  1  0  0  0
 56 69  2  0  0  0
 57 58  2  0  0  0
 57136  1  0  0  0
 58137  1  0  0  0
 59 60  1  0  0  0
 59 61  1  0  0  0
 59 62  1  0  0  0
 60138  1  0  0  0
 60139  1  0  0  0
 60140  1  0  0  0
 61141  1  0  0  0
 61142  1  0  0  0
 61143  1  0  0  0
 62144  1  0  0  0
 62145  1  0  0  0
 62146  1  0  0  0
 63 65  1  0  0  0
 63147  1  0  0  0
 63148  1  0  0  0
 63149  1  0  0  0
 64150  1  0  0  0
 65151  1  0  0  0
 68 87  1  0  0  0
 71 72  1  0  0  0
 71 90  2  0  0  0
 71152  1  0  0  0
 72 73  2  0  0  0
 72 88  1  0  0  0
 73 80  1  0  0  0
 73 91  1  0  0  0
 74153  1  0  0  0
 74154  1  0  0  0
 74155  1  0  0  0
 74 88  1  0  0  0
 75 88  1  0  0  0
 75156  1  0  0  0
 75157  1  0  0  0
 75158  1  0  0  0
 76159  1  0  0  0
 76160  1  0  0  0
 76161  1  0  0  0
 76 89  1  0  0  0
 77 89  1  0  0  0
 77162  1  0  0  0
 77163  1  0  0  0
 77164  1  0  0  0
 78 89  1  0  0  0
 78165  1  0  0  0
 78166  1  0  0  0
 78167  1  0  0  0
 79 92  1  0  0  0
 79168  1  0  0  0
 79169  1  0  0  0
 79170  1  0  0  0
 80 81  1  0  0  0
 80171  1  0  0  0
 80172  1  0  0  0
 81 84  1  0  0  0
 81173  1  0  0  0
 81174  1  0  0  0
 82 83  1  0  0  0
 82 87  1  0  0  0
 82175  1  0  0  0
 82176  1  0  0  0
 83 88  1  0  0  0
 83177  1  0  0  0
 83178  1  0  0  0
 84 89  1  0  0  0
 84179  1  0  0  0
 84180  1  0  0  0
 85 86  1  0  0  0
 85 91  1  0  0  0
 85181  1  0  0  0
 85182  1  0  0  0
 86 92  1  0  0  0
 86183  1  0  0  0
 86184  1  0  0  0
 87185  1  0  0  0
 87186  1  0  0  0
 90 91  1  0  0  0
M  ISO  4   1 100  68 101  87 101  92 100
M  END
> <chiral flag>
0

> <version>
0

> <s_m_source_file>
/data/baiqing/PycharmProjects/Reinvent-master-3.2/result/LINK_invent/BTK/process_docking_weight1_custom_sum_contain_oxygen_bond_distance_aromatic_linkinvent_7_9_3/rearranged_h_0071.sdf

> <i_m_source_file_index>
60

> <r_mmod_Potential_Energy-OPLS-2005>
89.0930328369141

> <r_mmod_Stretch_Energy-OPLS-2005>
39.5788497924805

> <r_mmod_Bend_Energy-OPLS-2005>
118.114273071289

> <r_mmod_Torsional_Energy-OPLS-2005>
302.588714599609

> <r_mmod_Improper_Torsional_Energy-OPLS-2005>
6.68357276916504

> <r_mmod_Van_der_Waal_Energy-OPLS-2005>
136.350280761719

> <r_mmod_Electrostatic_Energy-OPLS-2005>
-339.082672119141

> <r_mmod_Solvation_Energy-OPLS-2005>
-184.127655029297

> <b_mmod_Minimization_Converged-OPLS-2005>
0

> <r_mmod_RMS_Derivative-OPLS-2005>
2.61698007583618

$$$$
61
                    3D
 Structure written by MMmdl.
173181  0  0  1  0            999 V2000
  -30.7441  -14.4464   20.6703 C   0  0  0  0  0  0
  -30.4318  -12.3269   19.4123 C   0  0  0  0  0  0
  -29.5033  -12.5485   18.2032 C   0  0  0  0  0  0
  -28.0244  -12.3791   18.6035 C   0  0  0  0  0  0
  -27.6693  -13.1959   19.8770 C   0  0  2  0  0  0
  -28.7144  -12.9264   20.9830 C   0  0  0  0  0  0
  -25.2648  -13.8076   20.5652 C   0  0  0  0  0  0
  -24.1898  -13.0388   20.9165 C   0  0  0  0  0  0
  -24.6438  -11.6852   20.8733 C   0  0  0  0  0  0
  -23.9077  -10.4255   21.0404 C   0  0  0  0  0  0
  -24.3635   -9.4180   21.9169 C   0  0  0  0  0  0
  -23.6350   -8.2189   22.0744 C   0  0  0  0  0  0
  -22.4330   -8.0230   21.3515 C   0  0  0  0  0  0
  -21.9944   -9.0179   20.4614 C   0  0  0  0  0  0
  -22.7238  -10.2091   20.3047 C   0  0  0  0  0  0
  -21.6853   -6.0747   22.5296 C   0  0  0  0  0  0
  -21.3985   -6.5654   23.8223 C   0  0  0  0  0  0
  -21.3669   -5.6814   24.9188 C   0  0  0  0  0  0
  -21.6069   -4.3072   24.7239 C   0  0  0  0  0  0
  -21.8823   -3.8158   23.4359 C   0  0  0  0  0  0
  -21.9188   -4.6973   22.3421 C   0  0  0  0  0  0
  -22.7917  -13.5186   21.1823 C   0  0  0  0  0  0
  -22.1650   -4.2175   21.0991 F   0  0  0  0  0  0
  -21.5659   -3.4542   25.7742 F   0  0  0  0  0  0
  -30.0431  -13.2887   20.4604 N   0  0  0  0  0  0
  -26.3084  -12.9235   20.3365 N   0  0  0  0  0  0
  -25.9367  -11.6412   20.5778 N   0  0  0  0  0  0
  -22.0541  -12.8217   22.0378 N   0  0  0  0  0  0
  -25.4350  -15.1795   20.4035 N   0  0  0  0  0  0
  -31.7834  -14.6688   20.0340 O   0  0  0  0  0  0
  -21.6647   -6.8861   21.4251 O   0  0  0  0  0  0
  -22.3615  -14.5480   20.6645 O   0  0  0  0  0  0
  -24.6207  -31.8654   23.2150 C   0  0  0  0  0  0
  -25.9060  -32.4820   23.8488 C   0  0  1  0  0  0
  -27.2159  -27.3992   20.0725 C   0  0  0  0  0  0
  -25.5872  -33.8626   24.2410 N   0  0  0  0  0  0
  -23.4100  -30.4985   21.5537 C   0  0  2  0  0  0
  -24.8481  -28.9682   20.1143 C   0  0  0  0  0  0
  -22.7450  -29.4633   22.4917 C   0  0  0  0  0  0
  -18.0279  -28.1325   22.8513 C   0  0  0  0  0  0
  -24.1451  -36.7348   23.2640 C   0  0  0  0  0  0
  -25.9455  -30.8211   21.3716 C   0  0  0  0  0  0
  -26.0157  -29.4525   20.7178 C   0  0  0  0  0  0
  -27.1994  -28.6729   20.7023 C   0  0  0  0  0  0
  -26.0262  -26.9550   19.4436 C   0  0  0  0  0  0
  -24.8500  -27.7184   19.4771 C   0  0  0  0  0  0
  -23.6197  -29.8458   20.1641 C   0  0  0  0  0  0
  -25.4058  -36.3133   24.0366 C   0  0  1  0  0  0
  -20.5882  -28.3633   23.1270 C   0  0  2  0  0  0
  -20.6762  -26.9351   22.5401 C   0  0  0  0  0  0
  -19.5726  -26.6351   21.5200 C   0  0  0  0  0  0
  -18.1911  -26.7871   22.1623 C   0  0  0  0  0  0
  -19.1538  -28.8792   23.2890 C   0  0  0  0  0  0
  -18.9461  -30.1387   23.8944 C   0  0  0  0  0  0
  -17.6455  -30.6553   24.0552 C   0  0  0  0  0  0
  -25.8979  -34.9467   23.5200 C   0  0  0  0  0  0
  -16.5351  -29.9063   23.6291 C   0  0  0  0  0  0
  -16.7272  -28.6452   23.0382 C   0  0  0  0  0  0
  -26.4487  -31.6585   25.0809 C   0  0  0  0  0  0
  -25.3834  -31.3690   26.1637 C   0  0  0  0  0  0
  -27.0298  -30.3031   24.6147 C   0  0  0  0  0  0
  -27.6052  -32.4339   25.7585 C   0  0  0  0  0  0
  -27.5556  -37.1828   24.8459 C   0  0  0  0  0  0
  -21.4168  -29.3029   22.3706 N   0  0  0  0  0  0
  -26.4260  -37.3806   23.9412 N   0  0  0  0  0  0
  -24.6795  -31.0756   22.1055 N   0  0  0  0  0  0
  -23.4242  -28.8128   23.2903 O   0  0  0  0  0  0
  -28.3673  -26.6226   20.0846 O   0  0  0  0  0  0
  -26.5542  -34.8915   22.4758 O   0  0  0  0  0  0
  -23.5380  -32.1359   23.7547 O   0  0  0  0  0  0
  -29.6081  -20.6603   20.5508 C   0  0  0  0  0  0
  -30.2310  -21.8293   20.0704 C   0  0  0  0  0  0
  -31.6393  -21.8522   20.1839 C   0  0  0  0  0  0
  -31.6071  -19.8376   21.3071 C   0  0  0  0  0  0
  -32.5195  -22.9573   19.6195 C   0  0  0  0  0  0
  -33.7439  -18.5150   21.7288 C   0  0  0  0  0  0
  -32.5887  -19.7095   23.6001 C   0  0  0  0  0  0
  -28.9227  -16.1305   21.5181 C   0  0  0  0  0  0
  -30.4888  -14.9230   23.1453 C   0  0  0  0  0  0
  -29.3864  -22.9320   19.4157 C   0  0  0  0  0  0
  -29.4113  -24.3362   20.0928 C   0  0  0  0  0  0
  -31.5724  -17.6064   22.6646 C   0  0  0  0  0  0
  -28.2614  -25.2547   19.6168 C   0  0  0  0  0  0
  -32.3596  -18.9128   22.2932 C   0  0  0  0  0  0
  -30.3406  -15.5382   21.7286 C   0  0  0  0  0  0
  -30.2933  -19.6808   21.1764 N   0  0  0  0  0  0
  -32.2978  -20.8634   20.8158 N   0  0  0  0  0  0
  -31.2918  -16.6792   21.5277 N   0  3  0  0  0  0
  -31.4808  -12.4120   19.1189 H   0  0  0  0  0  0
  -30.3258  -11.3065   19.7819 H   0  0  0  0  0  0
  -29.7581  -11.8572   17.4005 H   0  0  0  0  0  0
  -29.6595  -13.5555   17.8101 H   0  0  0  0  0  0
  -27.8428  -11.3174   18.7732 H   0  0  0  0  0  0
  -27.3755  -12.6695   17.7759 H   0  0  0  0  0  0
  -27.7219  -14.2500   19.6079 H   0  0  0  0  0  0
  -28.7074  -11.8629   21.2271 H   0  0  0  0  0  0
  -28.4463  -13.4069   21.9151 H   0  0  0  0  0  0
  -25.2761   -9.5690   22.4757 H   0  0  0  0  0  0
  -24.0043   -7.4601   22.7507 H   0  0  0  0  0  0
  -21.0850   -8.8660   19.8973 H   0  0  0  0  0  0
  -22.3606  -10.9615   19.6185 H   0  0  0  0  0  0
  -21.1926   -7.6153   23.9710 H   0  0  0  0  0  0
  -21.1519   -6.0553   25.9094 H   0  0  0  0  0  0
  -22.0607   -2.7624   23.2856 H   0  0  0  0  0  0
  -22.4137  -11.9855   22.4757 H   0  0  0  0  0  0
  -21.1163  -13.1268   22.2574 H   0  0  0  0  0  0
  -24.6579  -15.8262   20.4819 H   0  0  0  0  0  0
  -26.2831  -15.6190   20.0725 H   0  0  0  0  0  0
  -26.7134  -32.5528   23.1253 H   0  0  0  0  0  0
  -25.0123  -33.9810   25.0635 H   0  0  0  0  0  0
  -22.6989  -31.3183   21.4195 H   0  0  0  0  0  0
  -23.3695  -35.9694   23.3302 H   0  0  0  0  0  0
  -24.3564  -36.8968   22.2053 H   0  0  0  0  0  0
  -23.7202  -37.6569   23.6644 H   0  0  0  0  0  0
  -26.0604  -31.5798   20.5968 H   0  0  0  0  0  0
  -26.8368  -30.8830   21.9845 H   0  0  0  0  0  0
  -28.0995  -29.0383   21.1797 H   0  0  0  0  0  0
  -25.9735  -26.0210   18.9036 H   0  0  0  0  0  0
  -23.9555  -27.3476   18.9924 H   0  0  0  0  0  0
  -23.7433  -30.6315   19.4159 H   0  0  0  0  0  0
  -22.7420  -29.2807   19.8528 H   0  0  0  0  0  0
  -25.1209  -36.2050   25.0863 H   0  0  0  0  0  0
  -20.9998  -28.3184   24.1367 H   0  0  0  0  0  0
  -20.5605  -26.2254   23.3608 H   0  0  0  0  0  0
  -21.6628  -26.7338   22.1206 H   0  0  0  0  0  0
  -19.6886  -25.6273   21.1210 H   0  0  0  0  0  0
  -19.6649  -27.3182   20.6745 H   0  0  0  0  0  0
  -17.4180  -26.6624   21.4026 H   0  0  0  0  0  0
  -18.0278  -25.9984   22.8993 H   0  0  0  0  0  0
  -19.7933  -30.7146   24.2369 H   0  0  0  0  0  0
  -17.5030  -31.6238   24.5125 H   0  0  0  0  0  0
  -15.5355  -30.3007   23.7547 H   0  0  0  0  0  0
  -15.8649  -28.0758   22.7134 H   0  0  0  0  0  0
  -24.5988  -30.6993   25.8103 H   0  0  0  0  0  0
  -24.9049  -32.2839   26.5143 H   0  0  0  0  0  0
  -25.8294  -30.8923   27.0379 H   0  0  0  0  0  0
  -26.2818  -29.6848   24.1172 H   0  0  0  0  0  0
  -27.4038  -29.7200   25.4566 H   0  0  0  0  0  0
  -27.8670  -30.4352   23.9295 H   0  0  0  0  0  0
  -27.2612  -33.3620   26.2176 H   0  0  0  0  0  0
  -28.3859  -32.6962   25.0434 H   0  0  0  0  0  0
  -28.0720  -31.8495   26.5525 H   0  0  0  0  0  0
  -28.2583  -38.0122   24.7500 H   0  0  0  0  0  0
  -28.1054  -36.2660   24.6274 H   0  0  0  0  0  0
  -27.2304  -37.1470   25.8878 H   0  0  0  0  0  0
  -20.9291  -29.8932   21.7112 H   0  0  0  0  0  0
  -26.0170  -38.2896   24.1446 H   0  0  0  0  0  0
  -28.5423  -20.5108   20.4447 H   0  0  0  0  0  0
  -33.5700  -22.7761   19.8498 H   0  0  0  0  0  0
  -32.2771  -23.9193   20.0575 H   0  0  0  0  0  0
  -32.4225  -23.0310   18.5361 H   0  0  0  0  0  0
  -34.3768  -19.3927   21.5818 H   0  0  0  0  0  0
  -33.6625  -18.0080   20.7687 H   0  0  0  0  0  0
  -34.2827  -17.8565   22.4101 H   0  0  0  0  0  0
  -33.2253  -20.5837   23.4305 H   0  0  0  0  0  0
  -33.0709  -19.1071   24.3718 H   0  0  0  0  0  0
  -31.6440  -20.0741   24.0058 H   0  0  0  0  0  0
  -28.7691  -16.4735   20.4938 H   0  0  0  0  0  0
  -28.7608  -16.9940   22.1652 H   0  0  0  0  0  0
  -28.1169  -15.4507   21.7664 H   0  0  0  0  0  0
  -31.5297  -14.7429   23.4039 H   0  0  0  0  0  0
  -29.9891  -13.9646   23.2496 H   0  0  0  0  0  0
  -30.0480  -15.5596   23.9078 H   0  0  0  0  0  0
  -28.3503  -22.5882   19.4151 H   0  0  0  0  0  0
  -29.6646  -23.0147   18.3643 H   0  0  0  0  0  0
  -30.3555  -24.8386   19.8995 H   0  0  0  0  0  0
  -29.3242  -24.2289   21.1766 H   0  0  0  0  0  0
  -30.6352  -17.8861   23.1455 H   0  0  0  0  0  0
  -32.1318  -17.0578   23.4216 H   0  0  0  0  0  0
  -27.3463  -24.7841   19.9808 H   0  0  0  0  0  0
  -28.2159  -25.2559   18.5254 H   0  0  0  0  0  0
  -32.1416  -16.2464   21.1863 H   0  0  0  0  0  0
  -30.9276  -17.2291   20.7644 H   0  0  0  0  0  0
  1 25  1  0  0  0
  1 30  2  0  0  0
  1 85  1  0  0  0
  2  3  1  0  0  0
  2 25  1  0  0  0
  2 89  1  0  0  0
  2 90  1  0  0  0
  3  4  1  0  0  0
  3 91  1  0  0  0
  3 92  1  0  0  0
  4  5  1  0  0  0
  4 93  1  0  0  0
  4 94  1  0  0  0
  5  6  1  0  0  0
  5 26  1  0  0  0
  5 95  1  0  0  0
  6 25  1  0  0  0
  6 96  1  0  0  0
  6 97  1  0  0  0
  7  8  2  0  0  0
  7 26  1  0  0  0
  7 29  1  0  0  0
  8  9  1  0  0  0
  8 22  1  0  0  0
  9 10  1  0  0  0
  9 27  2  0  0  0
 10 11  2  0  0  0
 10 15  1  0  0  0
 11 12  1  0  0  0
 11 98  1  0  0  0
 12 13  2  0  0  0
 12 99  1  0  0  0
 13 14  1  0  0  0
 13 31  1  0  0  0
 14 15  2  0  0  0
 14100  1  0  0  0
 15101  1  0  0  0
 16 17  2  0  0  0
 16 21  1  0  0  0
 16 31  1  0  0  0
 17 18  1  0  0  0
 17102  1  0  0  0
 18 19  2  0  0  0
 18103  1  0  0  0
 19 20  1  0  0  0
 19 24  1  0  0  0
 20 21  2  0  0  0
 20104  1  0  0  0
 21 23  1  0  0  0
 22 28  1  0  0  0
 22 32  2  0  0  0
 26 27  1  0  0  0
 28105  1  0  0  0
 28106  1  0  0  0
 29107  1  0  0  0
 29108  1  0  0  0
 33 34  1  0  0  0
 33 66  1  0  0  0
 33 70  2  0  0  0
 34 36  1  0  0  0
 34 59  1  0  0  0
 34109  1  0  0  0
 35 44  2  0  0  0
 35 45  1  0  0  0
 35 68  1  0  0  0
 36 56  1  0  0  0
 36110  1  0  0  0
 37 39  1  0  0  0
 37 47  1  0  0  0
 37 66  1  0  0  0
 37111  1  0  0  0
 38 43  2  0  0  0
 38 46  1  0  0  0
 38 47  1  0  0  0
 39 64  1  0  0  0
 39 67  2  0  0  0
 40 52  1  0  0  0
 40 53  2  0  0  0
 40 58  1  0  0  0
 41112  1  0  0  0
 41113  1  0  0  0
 41114  1  0  0  0
 41 48  1  0  0  0
 42 43  1  0  0  0
 42 66  1  0  0  0
 42115  1  0  0  0
 42116  1  0  0  0
 43 44  1  0  0  0
 44117  1  0  0  0
 45 46  2  0  0  0
 45118  1  0  0  0
 46119  1  0  0  0
 47120  1  0  0  0
 47121  1  0  0  0
 48 56  1  0  0  0
 48 65  1  0  0  0
 48122  1  0  0  0
 49 50  1  0  0  0
 49 53  1  0  0  0
 49 64  1  0  0  0
 49123  1  0  0  0
 50 51  1  0  0  0
 50124  1  0  0  0
 50125  1  0  0  0
 51 52  1  0  0  0
 51126  1  0  0  0
 51127  1  0  0  0
 52128  1  0  0  0
 52129  1  0  0  0
 53 54  1  0  0  0
 54 55  2  0  0  0
 54130  1  0  0  0
 55 57  1  0  0  0
 55131  1  0  0  0
 56 69  2  0  0  0
 57 58  2  0  0  0
 57132  1  0  0  0
 58133  1  0  0  0
 59 60  1  0  0  0
 59 61  1  0  0  0
 59 62  1  0  0  0
 60134  1  0  0  0
 60135  1  0  0  0
 60136  1  0  0  0
 61137  1  0  0  0
 61138  1  0  0  0
 61139  1  0  0  0
 62140  1  0  0  0
 62141  1  0  0  0
 62142  1  0  0  0
 63 65  1  0  0  0
 63143  1  0  0  0
 63144  1  0  0  0
 63145  1  0  0  0
 64146  1  0  0  0
 65147  1  0  0  0
 68 83  1  0  0  0
 71 72  2  0  0  0
 71 86  1  0  0  0
 71148  1  0  0  0
 72 73  1  0  0  0
 72 80  1  0  0  0
 73 75  1  0  0  0
 73 87  2  0  0  0
 74 84  1  0  0  0
 74 86  2  0  0  0
 74 87  1  0  0  0
 75149  1  0  0  0
 75150  1  0  0  0
 75151  1  0  0  0
 76152  1  0  0  0
 76153  1  0  0  0
 76154  1  0  0  0
 76 84  1  0  0  0
 77 84  1  0  0  0
 77155  1  0  0  0
 77156  1  0  0  0
 77157  1  0  0  0
 78158  1  0  0  0
 78159  1  0  0  0
 78160  1  0  0  0
 78 85  1  0  0  0
 79 85  1  0  0  0
 79161  1  0  0  0
 79162  1  0  0  0
 79163  1  0  0  0
 80 81  1  0  0  0
 80164  1  0  0  0
 80165  1  0  0  0
 81 83  1  0  0  0
 81166  1  0  0  0
 81167  1  0  0  0
 82 84  1  0  0  0
 82 88  1  0  0  0
 82168  1  0  0  0
 82169  1  0  0  0
 83170  1  0  0  0
 83171  1  0  0  0
 85 88  1  0  0  0
 88172  1  0  0  0
 88173  1  0  0  0
M  CHG  1  88   1
M  ISO  4   1 100  68 101  83 101  85 100
M  END
> <chiral flag>
0

> <version>
0

> <s_m_source_file>
/data/baiqing/PycharmProjects/Reinvent-master-3.2/result/LINK_invent/BTK/process_docking_weight1_custom_sum_contain_oxygen_bond_distance_aromatic_linkinvent_7_9_3/rearranged_h_0071.sdf

> <i_m_source_file_index>
61

> <r_mmod_Potential_Energy-OPLS-2005>
-573.086364746094

> <r_mmod_Stretch_Energy-OPLS-2005>
50.3087959289551

> <r_mmod_Bend_Energy-OPLS-2005>
133.315673828125

> <r_mmod_Torsional_Energy-OPLS-2005>
204.842407226562

> <r_mmod_Improper_Torsional_Energy-OPLS-2005>
3.08999586105347

> <r_mmod_Van_der_Waal_Energy-OPLS-2005>
180.106857299805

> <r_mmod_Electrostatic_Energy-OPLS-2005>
-765.000305175781

> <r_mmod_Solvation_Energy-OPLS-2005>
-394.634246826172

> <b_mmod_Minimization_Converged-OPLS-2005>
0

> <r_mmod_RMS_Derivative-OPLS-2005>
5.58850717544556

$$$$
62
                    3D
 Structure written by MMmdl.
161169  0  0  1  0            999 V2000
  -30.6929  -14.5179   20.5274 C   0  0  0  0  0  0
  -30.3840  -12.3112   19.4545 C   0  0  0  0  0  0
  -29.4844  -12.4744   18.2126 C   0  0  0  0  0  0
  -28.0065  -12.3128   18.6130 C   0  0  0  0  0  0
  -27.6306  -13.1798   19.8420 C   0  0  2  0  0  0
  -28.6644  -13.0333   20.9838 C   0  0  0  0  0  0
  -25.2444  -13.8045   20.5562 C   0  0  0  0  0  0
  -24.1701  -13.0338   20.9142 C   0  0  0  0  0  0
  -24.6247  -11.6825   20.8710 C   0  0  0  0  0  0
  -23.8930  -10.4236   21.0420 C   0  0  0  0  0  0
  -24.3524   -9.4168   21.9181 C   0  0  0  0  0  0
  -23.6242   -8.2192   22.0737 C   0  0  0  0  0  0
  -22.4222   -8.0243   21.3530 C   0  0  0  0  0  0
  -21.9818   -9.0191   20.4618 C   0  0  0  0  0  0
  -22.7121  -10.2093   20.3049 C   0  0  0  0  0  0
  -21.6840   -6.0701   22.5281 C   0  0  0  0  0  0
  -21.3999   -6.5609   23.8208 C   0  0  0  0  0  0
  -21.3675   -5.6776   24.9173 C   0  0  0  0  0  0
  -21.6064   -4.3038   24.7235 C   0  0  0  0  0  0
  -21.8820   -3.8127   23.4347 C   0  0  0  0  0  0
  -21.9176   -4.6931   22.3406 C   0  0  0  0  0  0
  -22.7769  -13.5208   21.1874 C   0  0  0  0  0  0
  -22.1664   -4.2114   21.0988 F   0  0  0  0  0  0
  -21.5622   -3.4532   25.7738 F   0  0  0  0  0  0
  -29.9884  -13.3480   20.4341 N   0  0  0  0  0  0
  -26.2807  -12.9156   20.3134 N   0  0  0  0  0  0
  -25.9148  -11.6357   20.5665 N   0  0  0  0  0  0
  -22.0446  -12.8220   22.0479 N   0  0  0  0  0  0
  -25.4147  -15.1752   20.3983 N   0  0  0  0  0  0
  -31.8340  -14.5306   20.0598 O   0  0  0  0  0  0
  -21.6605   -6.8839   21.4246 O   0  0  0  0  0  0
  -22.3474  -14.5518   20.6724 O   0  0  0  0  0  0
  -24.6146  -31.8686   23.2086 C   0  0  0  0  0  0
  -25.9045  -32.4809   23.8371 C   0  0  1  0  0  0
  -27.2183  -27.4569   20.0704 C   0  0  0  0  0  0
  -25.5891  -33.8602   24.2302 N   0  0  0  0  0  0
  -23.3945  -30.4947   21.5550 C   0  0  2  0  0  0
  -24.8312  -28.9683   20.1130 C   0  0  0  0  0  0
  -22.7393  -29.4660   22.5029 C   0  0  0  0  0  0
  -18.0267  -28.1407   22.8443 C   0  0  0  0  0  0
  -24.1498  -36.7333   23.2637 C   0  0  0  0  0  0
  -25.9197  -30.8475   21.3494 C   0  0  0  0  0  0
  -25.9929  -29.4821   20.6996 C   0  0  0  0  0  0
  -27.1879  -28.7350   20.6683 C   0  0  0  0  0  0
  -26.0356  -26.9586   19.4743 C   0  0  0  0  0  0
  -24.8463  -27.7082   19.4958 C   0  0  0  0  0  0
  -23.5908  -29.8291   20.1689 C   0  0  0  0  0  0
  -25.4106  -36.3111   24.0333 C   0  0  1  0  0  0
  -20.5847  -28.3630   23.1304 C   0  0  2  0  0  0
  -20.6743  -26.9363   22.5385 C   0  0  0  0  0  0
  -19.5719  -26.6360   21.5165 C   0  0  0  0  0  0
  -18.1898  -26.7951   22.1582 C   0  0  0  0  0  0
  -19.1518  -28.8817   23.2895 C   0  0  0  0  0  0
  -18.9472  -30.1410   23.8931 C   0  0  0  0  0  0
  -17.6494  -30.6592   24.0587 C   0  0  0  0  0  0
  -25.9013  -34.9463   23.5116 C   0  0  0  0  0  0
  -16.5363  -29.9110   23.6384 C   0  0  0  0  0  0
  -16.7262  -28.6543   23.0347 C   0  0  0  0  0  0
  -26.4461  -31.6578   25.0683 C   0  0  0  0  0  0
  -25.3722  -31.3642   26.1409 C   0  0  0  0  0  0
  -27.0256  -30.3029   24.5991 C   0  0  0  0  0  0
  -27.6066  -32.4260   25.7452 C   0  0  0  0  0  0
  -27.5582  -37.1821   24.8450 C   0  0  0  0  0  0
  -21.4119  -29.3022   22.3746 N   0  0  0  0  0  0
  -26.4293  -37.3793   23.9402 N   0  0  0  0  0  0
  -24.6620  -31.0850   22.0947 N   0  0  0  0  0  0
  -23.4189  -28.8210   23.3062 O   0  0  0  0  0  0
  -28.4226  -26.7912   20.0560 O   0  0  0  0  0  0
  -26.5585  -34.8926   22.4692 O   0  0  0  0  0  0
  -23.5358  -32.1383   23.7562 O   0  0  0  0  0  0
  -31.1354  -19.5331   21.3764 C   0  0  0  0  0  0
  -30.6186  -18.5469   20.5068 C   0  0  0  0  0  0
  -30.0451  -21.1315   20.1855 C   0  0  0  0  0  0
  -28.6957  -16.2326   20.6308 C   0  0  0  0  0  0
  -30.1529  -15.8902   22.6357 C   0  0  0  0  0  0
  -29.7144  -22.6063   20.0223 C   0  0  0  0  0  0
  -28.7941  -23.1549   21.1348 C   0  0  0  0  0  0
  -28.7436  -24.6924   21.2240 C   0  0  0  0  0  0
  -28.4682  -25.3790   19.8778 C   0  0  0  0  0  0
  -31.1125  -17.0788   20.5749 C   0  0  2  0  0  0
  -30.1441  -15.9099   21.0860 C   0  0  0  0  0  0
  -30.8527  -20.8404   21.2024 N   0  0  0  0  0  0
  -29.8263  -18.9396   19.4680 N   0  0  0  0  0  0
  -29.5140  -20.2446   19.3224 N   0  0  0  0  0  0
  -32.3656  -17.0123   21.2629 O   0  0  0  0  0  0
  -30.2428  -11.3220   19.8897 H   0  0  0  0  0  0
  -31.4371  -12.3489   19.1643 H   0  0  0  0  0  0
  -29.7457  -11.7358   17.4530 H   0  0  0  0  0  0
  -29.6468  -13.4564   17.7617 H   0  0  0  0  0  0
  -27.8425  -11.2576   18.8344 H   0  0  0  0  0  0
  -27.3556  -12.5478   17.7704 H   0  0  0  0  0  0
  -27.6330  -14.1909   19.4585 H   0  0  0  0  0  0
  -28.6522  -12.0060   21.3508 H   0  0  0  0  0  0
  -28.4033  -13.6370   21.8516 H   0  0  0  0  0  0
  -25.2675   -9.5668   22.4737 H   0  0  0  0  0  0
  -23.9967   -7.4579   22.7444 H   0  0  0  0  0  0
  -21.0747   -8.8689   19.8932 H   0  0  0  0  0  0
  -22.3558  -10.9615   19.6153 H   0  0  0  0  0  0
  -21.1986   -7.6115   23.9695 H   0  0  0  0  0  0
  -21.1509   -6.0511   25.9076 H   0  0  0  0  0  0
  -22.0571   -2.7580   23.2857 H   0  0  0  0  0  0
  -22.4107  -11.9872   22.4813 H   0  0  0  0  0  0
  -21.1087  -13.1269   22.2722 H   0  0  0  0  0  0
  -24.6536  -15.8334   20.5370 H   0  0  0  0  0  0
  -26.2735  -15.6186   20.0978 H   0  0  0  0  0  0
  -26.7123  -32.5512   23.1156 H   0  0  0  0  0  0
  -25.0037  -33.9704   25.0442 H   0  0  0  0  0  0
  -22.6774  -31.3057   21.4278 H   0  0  0  0  0  0
  -23.3730  -35.9700   23.3320 H   0  0  0  0  0  0
  -24.3604  -36.8918   22.2043 H   0  0  0  0  0  0
  -23.7259  -37.6556   23.6630 H   0  0  0  0  0  0
  -26.0143  -31.6112   20.5766 H   0  0  0  0  0  0
  -26.8161  -30.9073   21.9541 H   0  0  0  0  0  0
  -28.0966  -29.1350   21.0944 H   0  0  0  0  0  0
  -25.9966  -26.0180   18.9508 H   0  0  0  0  0  0
  -23.9547  -27.3167   19.0255 H   0  0  0  0  0  0
  -23.6787  -30.5999   19.4050 H   0  0  0  0  0  0
  -22.7170  -29.2378   19.8888 H   0  0  0  0  0  0
  -25.1296  -36.1979   25.0822 H   0  0  0  0  0  0
  -20.9906  -28.3194   24.1434 H   0  0  0  0  0  0
  -20.5592  -26.2251   23.3564 H   0  0  0  0  0  0
  -21.6635  -26.7414   22.1200 H   0  0  0  0  0  0
  -19.6869  -25.6269   21.1217 H   0  0  0  0  0  0
  -19.6703  -27.3168   20.6681 H   0  0  0  0  0  0
  -17.4156  -26.6650   21.3996 H   0  0  0  0  0  0
  -18.0346  -26.0091   22.8977 H   0  0  0  0  0  0
  -19.7967  -30.7174   24.2355 H   0  0  0  0  0  0
  -17.5086  -31.6278   24.5201 H   0  0  0  0  0  0
  -15.5373  -30.3041   23.7756 H   0  0  0  0  0  0
  -15.8637  -28.0896   22.7072 H   0  0  0  0  0  0
  -24.5930  -30.6959   25.7725 H   0  0  0  0  0  0
  -24.8850  -32.2760   26.4860 H   0  0  0  0  0  0
  -25.8050  -30.8799   27.0162 H   0  0  0  0  0  0
  -26.2760  -29.6819   24.1059 H   0  0  0  0  0  0
  -27.4058  -29.7235   25.4417 H   0  0  0  0  0  0
  -27.8592  -30.4375   23.9096 H   0  0  0  0  0  0
  -27.2721  -33.3543   26.2107 H   0  0  0  0  0  0
  -28.3839  -32.6821   25.0241 H   0  0  0  0  0  0
  -28.0770  -31.8292   26.5272 H   0  0  0  0  0  0
  -28.2612  -38.0118   24.7508 H   0  0  0  0  0  0
  -28.1057  -36.2635   24.6268 H   0  0  0  0  0  0
  -27.2287  -37.1476   25.8853 H   0  0  0  0  0  0
  -20.9289  -29.8744   21.6950 H   0  0  0  0  0  0
  -26.0184  -38.2881   24.1393 H   0  0  0  0  0  0
  -31.8173  -19.2908   22.1777 H   0  0  0  0  0  0
  -27.9525  -15.6155   21.1222 H   0  0  0  0  0  0
  -28.3860  -17.2442   20.8947 H   0  0  0  0  0  0
  -28.5754  -16.1366   19.5514 H   0  0  0  0  0  0
  -30.0345  -16.8969   23.0390 H   0  0  0  0  0  0
  -31.0705  -15.4641   23.0436 H   0  0  0  0  0  0
  -29.3312  -15.2988   23.0363 H   0  0  0  0  0  0
  -29.2522  -22.7691   19.0472 H   0  0  0  0  0  0
  -30.6535  -23.1614   20.0133 H   0  0  0  0  0  0
  -29.1436  -22.7940   22.1061 H   0  0  0  0  0  0
  -27.7927  -22.7461   21.0026 H   0  0  0  0  0  0
  -29.6891  -25.0665   21.6217 H   0  0  0  0  0  0
  -27.9801  -24.9828   21.9497 H   0  0  0  0  0  0
  -27.6065  -24.9200   19.4025 H   0  0  0  0  0  0
  -29.3009  -25.1976   19.1980 H   0  0  0  0  0  0
  -31.3256  -16.8719   19.5237 H   0  0  0  0  0  0
  -32.1756  -16.9387   22.1907 H   0  0  0  0  0  0
  1 25  1  0  0  0
  1 30  2  0  0  0
  1 81  1  0  0  0
  2  3  1  0  0  0
  2 25  1  0  0  0
  2 86  1  0  0  0
  2 87  1  0  0  0
  3  4  1  0  0  0
  3 88  1  0  0  0
  3 89  1  0  0  0
  4  5  1  0  0  0
  4 90  1  0  0  0
  4 91  1  0  0  0
  5  6  1  0  0  0
  5 26  1  0  0  0
  5 92  1  0  0  0
  6 25  1  0  0  0
  6 93  1  0  0  0
  6 94  1  0  0  0
  7  8  2  0  0  0
  7 26  1  0  0  0
  7 29  1  0  0  0
  8  9  1  0  0  0
  8 22  1  0  0  0
  9 10  1  0  0  0
  9 27  2  0  0  0
 10 11  2  0  0  0
 10 15  1  0  0  0
 11 12  1  0  0  0
 11 95  1  0  0  0
 12 13  2  0  0  0
 12 96  1  0  0  0
 13 14  1  0  0  0
 13 31  1  0  0  0
 14 15  2  0  0  0
 14 97  1  0  0  0
 15 98  1  0  0  0
 16 17  2  0  0  0
 16 21  1  0  0  0
 16 31  1  0  0  0
 17 18  1  0  0  0
 17 99  1  0  0  0
 18 19  2  0  0  0
 18100  1  0  0  0
 19 20  1  0  0  0
 19 24  1  0  0  0
 20 21  2  0  0  0
 20101  1  0  0  0
 21 23  1  0  0  0
 22 28  1  0  0  0
 22 32  2  0  0  0
 26 27  1  0  0  0
 28102  1  0  0  0
 28103  1  0  0  0
 29104  1  0  0  0
 29105  1  0  0  0
 33 34  1  0  0  0
 33 66  1  0  0  0
 33 70  2  0  0  0
 34 36  1  0  0  0
 34 59  1  0  0  0
 34106  1  0  0  0
 35 44  2  0  0  0
 35 45  1  0  0  0
 35 68  1  0  0  0
 36 56  1  0  0  0
 36107  1  0  0  0
 37 39  1  0  0  0
 37 47  1  0  0  0
 37 66  1  0  0  0
 37108  1  0  0  0
 38 43  2  0  0  0
 38 46  1  0  0  0
 38 47  1  0  0  0
 39 64  1  0  0  0
 39 67  2  0  0  0
 40 52  1  0  0  0
 40 53  2  0  0  0
 40 58  1  0  0  0
 41109  1  0  0  0
 41110  1  0  0  0
 41111  1  0  0  0
 41 48  1  0  0  0
 42 43  1  0  0  0
 42 66  1  0  0  0
 42112  1  0  0  0
 42113  1  0  0  0
 43 44  1  0  0  0
 44114  1  0  0  0
 45 46  2  0  0  0
 45115  1  0  0  0
 46116  1  0  0  0
 47117  1  0  0  0
 47118  1  0  0  0
 48 56  1  0  0  0
 48 65  1  0  0  0
 48119  1  0  0  0
 49 50  1  0  0  0
 49 53  1  0  0  0
 49 64  1  0  0  0
 49120  1  0  0  0
 50 51  1  0  0  0
 50121  1  0  0  0
 50122  1  0  0  0
 51 52  1  0  0  0
 51123  1  0  0  0
 51124  1  0  0  0
 52125  1  0  0  0
 52126  1  0  0  0
 53 54  1  0  0  0
 54 55  2  0  0  0
 54127  1  0  0  0
 55 57  1  0  0  0
 55128  1  0  0  0
 56 69  2  0  0  0
 57 58  2  0  0  0
 57129  1  0  0  0
 58130  1  0  0  0
 59 60  1  0  0  0
 59 61  1  0  0  0
 59 62  1  0  0  0
 60131  1  0  0  0
 60132  1  0  0  0
 60133  1  0  0  0
 61134  1  0  0  0
 61135  1  0  0  0
 61136  1  0  0  0
 62137  1  0  0  0
 62138  1  0  0  0
 62139  1  0  0  0
 63 65  1  0  0  0
 63140  1  0  0  0
 63141  1  0  0  0
 63142  1  0  0  0
 64143  1  0  0  0
 65144  1  0  0  0
 68 79  1  0  0  0
 71 72  2  0  0  0
 71 82  1  0  0  0
 71145  1  0  0  0
 72 80  1  0  0  0
 72 83  1  0  0  0
 73 76  1  0  0  0
 73 82  2  0  0  0
 73 84  1  0  0  0
 74146  1  0  0  0
 74147  1  0  0  0
 74148  1  0  0  0
 74 81  1  0  0  0
 75 81  1  0  0  0
 75149  1  0  0  0
 75150  1  0  0  0
 75151  1  0  0  0
 76 77  1  0  0  0
 76152  1  0  0  0
 76153  1  0  0  0
 77 78  1  0  0  0
 77154  1  0  0  0
 77155  1  0  0  0
 78 79  1  0  0  0
 78156  1  0  0  0
 78157  1  0  0  0
 79158  1  0  0  0
 79159  1  0  0  0
 80 81  1  0  0  0
 80 85  1  0  0  0
 80160  1  0  0  0
 83 84  2  0  0  0
 85161  1  0  0  0
M  ISO  4   1 100  68 101  79 101  81 100
M  END
> <chiral flag>
0

> <version>
0

> <s_m_source_file>
/data/baiqing/PycharmProjects/Reinvent-master-3.2/result/LINK_invent/BTK/process_docking_weight1_custom_sum_contain_oxygen_bond_distance_aromatic_linkinvent_7_9_3/rearranged_h_0071.sdf

> <i_m_source_file_index>
62

> <r_mmod_Potential_Energy-OPLS-2005>
128.041534423828

> <r_mmod_Stretch_Energy-OPLS-2005>
52.2464942932129

> <r_mmod_Bend_Energy-OPLS-2005>
139.1376953125

> <r_mmod_Torsional_Energy-OPLS-2005>
175.042633056641

> <r_mmod_Improper_Torsional_Energy-OPLS-2005>
3.32744669914246

> <r_mmod_Van_der_Waal_Energy-OPLS-2005>
192.446807861328

> <r_mmod_Electrostatic_Energy-OPLS-2005>
-228.021896362305

> <r_mmod_Solvation_Energy-OPLS-2005>
-227.417785644531

> <b_mmod_Minimization_Converged-OPLS-2005>
0

> <r_mmod_RMS_Derivative-OPLS-2005>
6.27452993392944

$$$$
63
                    3D
 Structure written by MMmdl.
177184  0  0  1  0            999 V2000
  -30.4689  -15.1901   20.3295 C   0  0  0  0  0  0
  -30.4145  -12.7482   19.4769 C   0  0  0  0  0  0
  -29.5063  -12.4982   18.2478 C   0  0  0  0  0  0
  -28.0300  -12.3163   18.6540 C   0  0  0  0  0  0
  -27.5927  -13.2669   19.8043 C   0  0  2  0  0  0
  -28.6418  -13.4140   20.9147 C   0  0  0  0  0  0
  -25.2236  -13.8175   20.5694 C   0  0  0  0  0  0
  -24.1687  -13.0356   20.9257 C   0  0  0  0  0  0
  -24.6397  -11.6856   20.8791 C   0  0  0  0  0  0
  -23.9154  -10.4231   21.0435 C   0  0  0  0  0  0
  -24.3706   -9.4145   21.9206 C   0  0  0  0  0  0
  -23.6350   -8.2194   22.0742 C   0  0  0  0  0  0
  -22.4341   -8.0280   21.3522 C   0  0  0  0  0  0
  -21.9992   -9.0253   20.4605 C   0  0  0  0  0  0
  -22.7343  -10.2112   20.3054 C   0  0  0  0  0  0
  -21.6842   -6.0790   22.5288 C   0  0  0  0  0  0
  -21.4013   -6.5664   23.8258 C   0  0  0  0  0  0
  -21.3673   -5.6801   24.9168 C   0  0  0  0  0  0
  -21.6039   -4.3073   24.7212 C   0  0  0  0  0  0
  -21.8813   -3.8186   23.4329 C   0  0  0  0  0  0
  -21.9177   -4.7002   22.3388 C   0  0  0  0  0  0
  -22.7690  -13.5031   21.1915 C   0  0  0  0  0  0
  -22.1657   -4.2204   21.0975 F   0  0  0  0  0  0
  -21.5610   -3.4530   25.7718 F   0  0  0  0  0  0
  -29.8599  -13.9089   20.2586 N   0  0  0  0  0  0
  -26.2699  -12.9476   20.3118 N   0  0  0  0  0  0
  -25.9305  -11.6586   20.5736 N   0  0  0  0  0  0
  -22.0395  -12.8054   22.0494 N   0  0  0  0  0  0
  -25.3532  -15.1938   20.4156 N   0  0  0  0  0  0
  -31.7031  -15.0577   20.4021 O   0  0  0  0  0  0
  -21.6634   -6.8921   21.4276 O   0  0  0  0  0  0
  -22.3330  -14.5316   20.6716 O   0  0  0  0  0  0
  -24.6575  -31.8304   23.1776 C   0  0  0  0  0  0
  -25.9310  -32.4599   23.8156 C   0  0  1  0  0  0
  -27.2257  -27.0252   20.1618 C   0  0  0  0  0  0
  -25.6013  -33.8401   24.2095 N   0  0  0  0  0  0
  -23.4588  -30.4522   21.5199 C   0  0  2  0  0  0
  -24.9146  -28.8469   20.1184 C   0  0  0  0  0  0
  -22.7588  -29.4483   22.4805 C   0  0  0  0  0  0
  -18.0275  -28.1339   22.8481 C   0  0  0  0  0  0
  -24.1538  -36.7100   23.2642 C   0  0  0  0  0  0
  -26.0271  -30.6708   21.3914 C   0  0  0  0  0  0
  -26.1003  -29.2669   20.7340 C   0  0  0  0  0  0
  -27.2593  -28.3815   20.7282 C   0  0  0  0  0  0
  -26.0036  -26.7225   19.5172 C   0  0  0  0  0  0
  -24.8878  -27.5914   19.4912 C   0  0  0  0  0  0
  -23.6977  -29.7684   20.1467 C   0  0  0  0  0  0
  -25.4185  -36.2943   24.0299 C   0  0  1  0  0  0
  -20.5886  -28.3696   23.1182 C   0  0  2  0  0  0
  -20.6741  -26.9389   22.5377 C   0  0  0  0  0  0
  -19.5721  -26.6330   21.5182 C   0  0  0  0  0  0
  -18.1904  -26.7862   22.1621 C   0  0  0  0  0  0
  -19.1530  -28.8847   23.2826 C   0  0  0  0  0  0
  -18.9484  -30.1409   23.8872 C   0  0  0  0  0  0
  -17.6459  -30.6544   24.0519 C   0  0  0  0  0  0
  -25.9091  -34.9336   23.4998 C   0  0  0  0  0  0
  -16.5355  -29.9032   23.6308 C   0  0  0  0  0  0
  -16.7247  -28.6421   23.0383 C   0  0  0  0  0  0
  -26.4644  -31.6531   25.0621 C   0  0  0  0  0  0
  -25.3799  -31.3794   26.1305 C   0  0  0  0  0  0
  -27.0558  -30.2914   24.6312 C   0  0  0  0  0  0
  -27.6139  -32.4333   25.7377 C   0  0  0  0  0  0
  -27.5611  -37.1662   24.8456 C   0  0  0  0  0  0
  -21.4282  -29.3043   22.3568 N   0  0  0  0  0  0
  -26.4343  -37.3687   23.9395 N   0  0  0  0  0  0
  -24.7316  -31.0090   22.0814 N   0  0  0  0  0  0
  -23.4239  -28.8037   23.2941 O   0  0  0  0  0  0
  -28.2905  -26.0124   20.1581 O   0  0  0  0  0  0
  -26.5667  -34.8842   22.4556 O   0  0  0  0  0  0
  -23.5690  -32.1237   23.6954 O   0  0  0  0  0  0
  -27.7132  -21.3692   22.6819 C   0  0  0  0  0  0
  -30.4876  -19.8805   23.4478 C   0  0  0  0  0  0
  -28.7974  -22.9463   18.2739 C   0  0  0  0  0  0
  -30.6241  -22.1593   21.0266 C   0  0  0  0  0  0
  -29.4376  -16.3219   18.3263 C   0  0  0  0  0  0
  -31.2803  -17.5121   19.4353 C   0  0  0  0  0  0
  -28.2458  -18.8124   18.9447 C   0  0  0  0  0  0
  -27.8341  -17.3750   20.9662 C   0  0  0  0  0  0
  -27.8860  -20.0605   21.8897 C   0  0  0  0  0  0
  -30.3331  -19.3249   22.0110 C   0  0  0  0  0  0
  -28.2104  -24.4138   20.4053 C   0  0  0  0  0  0
  -28.4858  -22.7678   19.7836 C   0  0  2  0  0  0
  -29.4776  -21.4045   20.3286 C   0  0  2  0  0  0
  -29.9501  -16.7790   19.7288 C   0  0  0  0  0  0
  -28.9143  -18.1893   20.2177 C   0  0  0  0  0  0
  -29.1781  -19.7763   21.0314 C   0  0  0  0  0  0
  -31.4258  -12.9448   19.1267 H   0  0  0  0  0  0
  -30.4841  -11.8541   20.0983 H   0  0  0  0  0  0
  -29.8484  -11.6146   17.7026 H   0  0  0  0  0  0
  -29.5802  -13.3343   17.5533 H   0  0  0  0  0  0
  -27.9041  -11.2802   18.9730 H   0  0  0  0  0  0
  -27.3868  -12.4512   17.7808 H   0  0  0  0  0  0
  -27.4993  -14.2495   19.3570 H   0  0  0  0  0  0
  -28.8297  -12.4664   21.4157 H   0  0  0  0  0  0
  -28.2888  -14.1021   21.6829 H   0  0  0  0  0  0
  -25.2842   -9.5598   22.4807 H   0  0  0  0  0  0
  -24.0042   -7.4559   22.7459 H   0  0  0  0  0  0
  -21.0921   -8.8807   19.8873 H   0  0  0  0  0  0
  -22.3843  -10.9700   19.6191 H   0  0  0  0  0  0
  -21.2043   -7.6176   23.9766 H   0  0  0  0  0  0
  -21.1494   -6.0515   25.9085 H   0  0  0  0  0  0
  -22.0595   -2.7652   23.2785 H   0  0  0  0  0  0
  -22.4114  -11.9755   22.4911 H   0  0  0  0  0  0
  -21.1009  -13.1008   22.2771 H   0  0  0  0  0  0
  -24.5418  -15.7933   20.5370 H   0  0  0  0  0  0
  -26.1818  -15.6969   20.1252 H   0  0  0  0  0  0
  -26.7284  -32.5223   23.0772 H   0  0  0  0  0  0
  -25.0346  -33.9424   25.0356 H   0  0  0  0  0  0
  -22.7617  -31.2777   21.3478 H   0  0  0  0  0  0
  -23.3869  -35.9375   23.3305 H   0  0  0  0  0  0
  -24.3588  -36.8717   22.2053 H   0  0  0  0  0  0
  -23.7167  -37.6240   23.6667 H   0  0  0  0  0  0
  -26.2094  -31.4310   20.6307 H   0  0  0  0  0  0
  -26.8783  -30.7193   22.0565 H   0  0  0  0  0  0
  -28.1721  -28.7098   21.2215 H   0  0  0  0  0  0
  -25.8916  -25.7608   19.0366 H   0  0  0  0  0  0
  -23.9898  -27.2707   18.9842 H   0  0  0  0  0  0
  -23.8490  -30.5348   19.3819 H   0  0  0  0  0  0
  -22.8057  -29.2198   19.8383 H   0  0  0  0  0  0
  -25.1408  -36.1786   25.0802 H   0  0  0  0  0  0
  -21.0004  -28.3289   24.1282 H   0  0  0  0  0  0
  -20.5553  -26.2349   23.3636 H   0  0  0  0  0  0
  -21.6631  -26.7299   22.1241 H   0  0  0  0  0  0
  -19.6898  -25.6243   21.1207 H   0  0  0  0  0  0
  -19.6630  -27.3160   20.6730 H   0  0  0  0  0  0
  -17.4171  -26.6587   21.4023 H   0  0  0  0  0  0
  -18.0328  -25.9982   22.9020 H   0  0  0  0  0  0
  -19.7959  -30.7196   24.2304 H   0  0  0  0  0  0
  -17.5007  -31.6227   24.5119 H   0  0  0  0  0  0
  -15.5350  -30.2933   23.7574 H   0  0  0  0  0  0
  -15.8657  -28.0659   22.7175 H   0  0  0  0  0  0
  -24.8874  -32.2970   26.4566 H   0  0  0  0  0  0
  -24.6042  -30.6999   25.7686 H   0  0  0  0  0  0
  -25.8059  -30.9166   27.0218 H   0  0  0  0  0  0
  -27.9172  -30.4025   23.9697 H   0  0  0  0  0  0
  -27.4089  -29.7245   25.4927 H   0  0  0  0  0  0
  -26.3211  -29.6572   24.1302 H   0  0  0  0  0  0
  -27.2725  -33.3689   26.1862 H   0  0  0  0  0  0
  -28.3977  -32.6863   25.0243 H   0  0  0  0  0  0
  -28.0719  -31.8492   26.5379 H   0  0  0  0  0  0
  -28.2671  -37.9936   24.7666 H   0  0  0  0  0  0
  -28.1081  -36.2493   24.6219 H   0  0  0  0  0  0
  -27.2274  -37.1212   25.8830 H   0  0  0  0  0  0
  -20.9516  -29.8881   21.6836 H   0  0  0  0  0  0
  -26.0225  -38.2780   24.1364 H   0  0  0  0  0  0
  -26.8846  -21.2803   23.3880 H   0  0  0  0  0  0
  -27.4414  -22.1987   22.0355 H   0  0  0  0  0  0
  -28.5950  -21.6474   23.2500 H   0  0  0  0  0  0
  -29.6548  -19.6095   24.1019 H   0  0  0  0  0  0
  -30.6193  -20.9543   23.4822 H   0  0  0  0  0  0
  -31.3836  -19.4396   23.8865 H   0  0  0  0  0  0
  -28.7912  -21.9942   17.7455 H   0  0  0  0  0  0
  -29.7848  -23.3886   18.1219 H   0  0  0  0  0  0
  -28.0698  -23.5753   17.7639 H   0  0  0  0  0  0
  -31.0268  -22.9413   20.3783 H   0  0  0  0  0  0
  -31.4783  -21.5331   21.2743 H   0  0  0  0  0  0
  -30.2693  -22.6598   21.9291 H   0  0  0  0  0  0
  -28.4141  -15.9432   18.3275 H   0  0  0  0  0  0
  -29.5136  -17.1207   17.5853 H   0  0  0  0  0  0
  -30.0269  -15.5167   17.8959 H   0  0  0  0  0  0
  -31.8779  -17.6112   20.3375 H   0  0  0  0  0  0
  -31.8920  -16.9672   18.7164 H   0  0  0  0  0  0
  -31.1184  -18.5110   19.0263 H   0  0  0  0  0  0
  -27.7001  -18.1032   18.3293 H   0  0  0  0  0  0
  -28.9973  -19.3255   18.3328 H   0  0  0  0  0  0
  -27.4929  -19.5692   19.1691 H   0  0  0  0  0  0
  -28.1957  -17.0531   21.9482 H   0  0  0  0  0  0
  -27.5655  -16.4941   20.3950 H   0  0  0  0  0  0
  -26.8861  -17.8832   21.1132 H   0  0  0  0  0  0
  -27.0191  -20.0298   21.2267 H   0  0  0  0  0  0
  -27.7615  -19.2738   22.6261 H   0  0  0  0  0  0
  -30.2427  -18.2523   22.1825 H   0  0  0  0  0  0
  -31.2893  -19.4293   21.5080 H   0  0  0  0  0  0
  -27.4561  -24.4898   19.6291 H   0  0  0  0  0  0
  -29.2840  -24.5506   20.2403 H   0  0  0  0  0  0
  -27.4884  -22.3279   19.7788 H   0  0  0  0  0  0
  -29.9751  -21.0947   19.4118 H   0  0  0  0  0  0
  1 25  1  0  0  0
  1 30  2  0  0  0
  1 84  1  0  0  0
  2  3  1  0  0  0
  2 25  1  0  0  0
  2 87  1  0  0  0
  2 88  1  0  0  0
  3  4  1  0  0  0
  3 89  1  0  0  0
  3 90  1  0  0  0
  4  5  1  0  0  0
  4 91  1  0  0  0
  4 92  1  0  0  0
  5  6  1  0  0  0
  5 26  1  0  0  0
  5 93  1  0  0  0
  6 25  1  0  0  0
  6 94  1  0  0  0
  6 95  1  0  0  0
  7  8  2  0  0  0
  7 26  1  0  0  0
  7 29  1  0  0  0
  8  9  1  0  0  0
  8 22  1  0  0  0
  9 10  1  0  0  0
  9 27  2  0  0  0
 10 11  2  0  0  0
 10 15  1  0  0  0
 11 12  1  0  0  0
 11 96  1  0  0  0
 12 13  2  0  0  0
 12 97  1  0  0  0
 13 14  1  0  0  0
 13 31  1  0  0  0
 14 15  2  0  0  0
 14 98  1  0  0  0
 15 99  1  0  0  0
 16 17  2  0  0  0
 16 21  1  0  0  0
 16 31  1  0  0  0
 17 18  1  0  0  0
 17100  1  0  0  0
 18 19  2  0  0  0
 18101  1  0  0  0
 19 20  1  0  0  0
 19 24  1  0  0  0
 20 21  2  0  0  0
 20102  1  0  0  0
 21 23  1  0  0  0
 22 28  1  0  0  0
 22 32  2  0  0  0
 26 27  1  0  0  0
 28103  1  0  0  0
 28104  1  0  0  0
 29105  1  0  0  0
 29106  1  0  0  0
 33 34  1  0  0  0
 33 66  1  0  0  0
 33 70  2  0  0  0
 34 36  1  0  0  0
 34 59  1  0  0  0
 34107  1  0  0  0
 35 44  2  0  0  0
 35 45  1  0  0  0
 35 68  1  0  0  0
 36 56  1  0  0  0
 36108  1  0  0  0
 37 39  1  0  0  0
 37 47  1  0  0  0
 37 66  1  0  0  0
 37109  1  0  0  0
 38 43  2  0  0  0
 38 46  1  0  0  0
 38 47  1  0  0  0
 39 64  1  0  0  0
 39 67  2  0  0  0
 40 52  1  0  0  0
 40 53  2  0  0  0
 40 58  1  0  0  0
 41110  1  0  0  0
 41111  1  0  0  0
 41112  1  0  0  0
 41 48  1  0  0  0
 42 43  1  0  0  0
 42 66  1  0  0  0
 42113  1  0  0  0
 42114  1  0  0  0
 43 44  1  0  0  0
 44115  1  0  0  0
 45 46  2  0  0  0
 45116  1  0  0  0
 46117  1  0  0  0
 47118  1  0  0  0
 47119  1  0  0  0
 48 56  1  0  0  0
 48 65  1  0  0  0
 48120  1  0  0  0
 49 50  1  0  0  0
 49 53  1  0  0  0
 49 64  1  0  0  0
 49121  1  0  0  0
 50 51  1  0  0  0
 50122  1  0  0  0
 50123  1  0  0  0
 51 52  1  0  0  0
 51124  1  0  0  0
 51125  1  0  0  0
 52126  1  0  0  0
 52127  1  0  0  0
 53 54  1  0  0  0
 54 55  2  0  0  0
 54128  1  0  0  0
 55 57  1  0  0  0
 55129  1  0  0  0
 56 69  2  0  0  0
 57 58  2  0  0  0
 57130  1  0  0  0
 58131  1  0  0  0
 59 60  1  0  0  0
 59 61  1  0  0  0
 59 62  1  0  0  0
 60132  1  0  0  0
 60133  1  0  0  0
 60134  1  0  0  0
 61135  1  0  0  0
 61136  1  0  0  0
 61137  1  0  0  0
 62138  1  0  0  0
 62139  1  0  0  0
 62140  1  0  0  0
 63 65  1  0  0  0
 63141  1  0  0  0
 63142  1  0  0  0
 63143  1  0  0  0
 64144  1  0  0  0
 65145  1  0  0  0
 68 81  1  0  0  0
 71 79  1  0  0  0
 71146  1  0  0  0
 71147  1  0  0  0
 71148  1  0  0  0
 72 80  1  0  0  0
 72149  1  0  0  0
 72150  1  0  0  0
 72151  1  0  0  0
 73152  1  0  0  0
 73153  1  0  0  0
 73154  1  0  0  0
 73 82  1  0  0  0
 74155  1  0  0  0
 74156  1  0  0  0
 74157  1  0  0  0
 74 83  1  0  0  0
 75158  1  0  0  0
 75159  1  0  0  0
 75160  1  0  0  0
 75 84  1  0  0  0
 76 84  1  0  0  0
 76161  1  0  0  0
 76162  1  0  0  0
 76163  1  0  0  0
 77164  1  0  0  0
 77165  1  0  0  0
 77166  1  0  0  0
 77 85  1  0  0  0
 78 85  1  0  0  0
 78167  1  0  0  0
 78168  1  0  0  0
 78169  1  0  0  0
 79170  1  0  0  0
 79171  1  0  0  0
 79 86  1  0  0  0
 80 86  1  0  0  0
 80172  1  0  0  0
 80173  1  0  0  0
 81 82  1  0  0  0
 81174  1  0  0  0
 81175  1  0  0  0
 82 83  1  0  0  0
 82176  1  0  0  0
 83 86  1  0  0  0
 83177  1  0  0  0
 84 85  1  0  0  0
 85 86  1  0  0  0
M  ISO  4   1 100  68 101  81 101  84 100
M  END
> <chiral flag>
0

> <version>
0

> <s_m_source_file>
/data/baiqing/PycharmProjects/Reinvent-master-3.2/result/LINK_invent/BTK/process_docking_weight1_custom_sum_contain_oxygen_bond_distance_aromatic_linkinvent_7_9_3/rearranged_h_0071.sdf

> <i_m_source_file_index>
63

> <r_mmod_Potential_Energy-OPLS-2005>
1875.08166503906

> <r_mmod_Stretch_Energy-OPLS-2005>
642.75146484375

> <r_mmod_Bend_Energy-OPLS-2005>
826.869506835938

> <r_mmod_Torsional_Energy-OPLS-2005>
345.52783203125

> <r_mmod_Improper_Torsional_Energy-OPLS-2005>
20.9755477905273

> <r_mmod_Van_der_Waal_Energy-OPLS-2005>
173.608047485352

> <r_mmod_Electrostatic_Energy-OPLS-2005>
-328.194000244141

> <r_mmod_Solvation_Energy-OPLS-2005>
-159.595993041992

> <b_mmod_Minimization_Converged-OPLS-2005>
0

> <r_mmod_RMS_Derivative-OPLS-2005>
11.9102058410645

$$$$
64
                    3D
 Structure written by MMmdl.
168176  0  0  1  0            999 V2000
  -30.5095  -14.9500   20.3824 C   0  0  0  0  0  0
  -30.4497  -12.5733   19.5015 C   0  0  0  0  0  0
  -29.5268  -12.5296   18.2583 C   0  0  0  0  0  0
  -28.0570  -12.3149   18.6690 C   0  0  0  0  0  0
  -27.6303  -13.2399   19.8366 C   0  0  2  0  0  0
  -28.6745  -13.2582   20.9715 C   0  0  0  0  0  0
  -25.2432  -13.8069   20.5681 C   0  0  0  0  0  0
  -24.1758  -13.0333   20.9238 C   0  0  0  0  0  0
  -24.6405  -11.6845   20.8771 C   0  0  0  0  0  0
  -23.9088  -10.4235   21.0423 C   0  0  0  0  0  0
  -24.3635   -9.4155   21.9197 C   0  0  0  0  0  0
  -23.6297   -8.2201   22.0760 C   0  0  0  0  0  0
  -22.4276   -8.0260   21.3543 C   0  0  0  0  0  0
  -21.9920   -9.0236   20.4641 C   0  0  0  0  0  0
  -22.7263  -10.2104   20.3063 C   0  0  0  0  0  0
  -21.6843   -6.0731   22.5284 C   0  0  0  0  0  0
  -21.4007   -6.5637   23.8216 C   0  0  0  0  0  0
  -21.3658   -5.6792   24.9180 C   0  0  0  0  0  0
  -21.6046   -4.3057   24.7226 C   0  0  0  0  0  0
  -21.8823   -3.8144   23.4349 C   0  0  0  0  0  0
  -21.9189   -4.6959   22.3405 C   0  0  0  0  0  0
  -22.7787  -13.5145   21.1890 C   0  0  0  0  0  0
  -22.1666   -4.2148   21.0981 F   0  0  0  0  0  0
  -21.5627   -3.4543   25.7738 F   0  0  0  0  0  0
  -29.9622  -13.6649   20.3912 N   0  0  0  0  0  0
  -26.2889  -12.9347   20.3230 N   0  0  0  0  0  0
  -25.9338  -11.6488   20.5745 N   0  0  0  0  0  0
  -22.0437  -12.8141   22.0454 N   0  0  0  0  0  0
  -25.4008  -15.1729   20.4014 N   0  0  0  0  0  0
  -31.7272  -15.0140   20.1719 O   0  0  0  0  0  0
  -21.6625   -6.8869   21.4247 O   0  0  0  0  0  0
  -22.3480  -14.5459   20.6745 O   0  0  0  0  0  0
  -24.6416  -31.8448   23.1876 C   0  0  0  0  0  0
  -25.9196  -32.4697   23.8262 C   0  0  1  0  0  0
  -27.2343  -27.1617   20.1483 C   0  0  0  0  0  0
  -25.5952  -33.8502   24.2183 N   0  0  0  0  0  0
  -23.4447  -30.4625   21.5331 C   0  0  2  0  0  0
  -24.8972  -28.8895   20.1127 C   0  0  0  0  0  0
  -22.7560  -29.4548   22.4871 C   0  0  0  0  0  0
  -18.0302  -28.1393   22.8474 C   0  0  0  0  0  0
  -24.1492  -36.7262   23.2640 C   0  0  0  0  0  0
  -25.9981  -30.7274   21.3816 C   0  0  0  0  0  0
  -26.0732  -29.3397   20.7253 C   0  0  0  0  0  0
  -27.2415  -28.4924   20.7254 C   0  0  0  0  0  0
  -26.0297  -26.8049   19.5005 C   0  0  0  0  0  0
  -24.8868  -27.6340   19.4856 C   0  0  0  0  0  0
  -23.6708  -29.7875   20.1539 C   0  0  0  0  0  0
  -25.4123  -36.3031   24.0312 C   0  0  1  0  0  0
  -20.5911  -28.3717   23.1242 C   0  0  2  0  0  0
  -20.6789  -26.9423   22.5406 C   0  0  0  0  0  0
  -19.5767  -26.6381   21.5210 C   0  0  0  0  0  0
  -18.1945  -26.7933   22.1617 C   0  0  0  0  0  0
  -19.1557  -28.8873   23.2849 C   0  0  0  0  0  0
  -18.9475  -30.1470   23.8874 C   0  0  0  0  0  0
  -17.6473  -30.6589   24.0557 C   0  0  0  0  0  0
  -25.9074  -34.9410   23.5057 C   0  0  0  0  0  0
  -16.5364  -29.9081   23.6337 C   0  0  0  0  0  0
  -16.7287  -28.6501   23.0354 C   0  0  0  0  0  0
  -26.4521  -31.6557   25.0697 C   0  0  0  0  0  0
  -25.3714  -31.3738   26.1398 C   0  0  0  0  0  0
  -27.0387  -30.2959   24.6256 C   0  0  0  0  0  0
  -27.6043  -32.4326   25.7494 C   0  0  0  0  0  0
  -27.5576  -37.1788   24.8462 C   0  0  0  0  0  0
  -21.4252  -29.3048   22.3620 N   0  0  0  0  0  0
  -26.4285  -37.3746   23.9406 N   0  0  0  0  0  0
  -24.7143  -31.0321   22.0897 N   0  0  0  0  0  0
  -23.4206  -28.8105   23.3028 O   0  0  0  0  0  0
  -28.3077  -26.2036   20.2145 O   0  0  0  0  0  0
  -26.5660  -34.8906   22.4635 O   0  0  0  0  0  0
  -23.5541  -32.1313   23.7115 O   0  0  0  0  0  0
  -26.7601  -20.3273   20.0793 C   0  0  0  0  0  0
  -27.2791  -21.6246   20.0864 C   0  0  0  0  0  0
  -27.5794  -19.1900   20.2479 C   0  0  0  0  0  0
  -28.6471  -21.8346   20.2777 C   0  0  0  0  0  0
  -28.9969  -19.3129   20.3548 C   0  0  0  0  0  0
  -26.8266  -17.8844   20.3355 C   0  0  0  0  0  0
  -30.7204  -22.8506   22.4743 C   0  0  0  0  0  0
  -30.3176  -23.6215   19.4660 C   0  0  0  0  0  0
  -31.1410  -18.2382   19.4569 C   0  0  0  0  0  0
  -30.6381  -18.1094   21.9095 C   0  0  0  0  0  0
  -29.5557  -23.6767   21.8954 C   0  0  0  0  0  0
  -28.0575  -24.6759   20.0876 C   0  0  0  0  0  0
  -29.5853  -16.3465   20.3286 C   0  0  1  0  0  0
  -29.1309  -23.4118   20.4241 C   0  0  2  0  0  0
  -30.0306  -17.9952   20.4997 C   0  0  0  0  0  0
  -29.4644  -20.6660   20.3873 N   0  0  0  0  0  0
  -28.9842  -16.2867   19.1392 F   0  0  0  0  0  0
  -31.4846  -12.7327   19.1926 H   0  0  0  0  0  0
  -30.4369  -11.6166   20.0265 H   0  0  0  0  0  0
  -29.8423  -11.7379   17.5782 H   0  0  0  0  0  0
  -29.6167  -13.4652   17.7042 H   0  0  0  0  0  0
  -27.9490  -11.2728   18.9709 H   0  0  0  0  0  0
  -27.3970  -12.4553   17.8119 H   0  0  0  0  0  0
  -27.5897  -14.2412   19.4127 H   0  0  0  0  0  0
  -28.7534  -12.2777   21.4427 H   0  0  0  0  0  0
  -28.3753  -13.9488   21.7596 H   0  0  0  0  0  0
  -25.2782   -9.5623   22.4769 H   0  0  0  0  0  0
  -23.9997   -7.4585   22.7483 H   0  0  0  0  0  0
  -21.0848   -8.8775   19.8941 H   0  0  0  0  0  0
  -22.3749  -10.9656   19.6173 H   0  0  0  0  0  0
  -21.2005   -7.6146   23.9721 H   0  0  0  0  0  0
  -21.1476   -6.0521   25.9085 H   0  0  0  0  0  0
  -22.0602   -2.7605   23.2850 H   0  0  0  0  0  0
  -22.4069  -11.9804   22.4837 H   0  0  0  0  0  0
  -21.1057  -13.1160   22.2669 H   0  0  0  0  0  0
  -24.6155  -15.8084   20.4783 H   0  0  0  0  0  0
  -26.2190  -15.5907   19.9825 H   0  0  0  0  0  0
  -26.7266  -32.5312   23.0997 H   0  0  0  0  0  0
  -25.0079  -33.9609   25.0317 H   0  0  0  0  0  0
  -22.7463  -31.2874   21.3770 H   0  0  0  0  0  0
  -23.3755  -35.9592   23.3282 H   0  0  0  0  0  0
  -24.3581  -36.8915   22.2058 H   0  0  0  0  0  0
  -23.7249  -37.6452   23.6694 H   0  0  0  0  0  0
  -26.1481  -31.4818   20.6079 H   0  0  0  0  0  0
  -26.8704  -30.7797   22.0214 H   0  0  0  0  0  0
  -28.1374  -28.8361   21.2229 H   0  0  0  0  0  0
  -25.9399  -25.8461   19.0132 H   0  0  0  0  0  0
  -23.9889  -27.2818   18.9961 H   0  0  0  0  0  0
  -23.8040  -30.5592   19.3949 H   0  0  0  0  0  0
  -22.7871  -29.2255   19.8464 H   0  0  0  0  0  0
  -25.1312  -36.1855   25.0804 H   0  0  0  0  0  0
  -20.9994  -28.3306   24.1365 H   0  0  0  0  0  0
  -20.5680  -26.2330   23.3621 H   0  0  0  0  0  0
  -21.6656  -26.7433   22.1208 H   0  0  0  0  0  0
  -19.6930  -25.6285   21.1257 H   0  0  0  0  0  0
  -19.6706  -27.3175   20.6728 H   0  0  0  0  0  0
  -17.4216  -26.6674   21.4018 H   0  0  0  0  0  0
  -18.0344  -26.0076   22.9015 H   0  0  0  0  0  0
  -19.7951  -30.7292   24.2230 H   0  0  0  0  0  0
  -17.5027  -31.6266   24.5166 H   0  0  0  0  0  0
  -15.5363  -30.2978   23.7673 H   0  0  0  0  0  0
  -15.8686  -28.0813   22.7082 H   0  0  0  0  0  0
  -24.5893  -30.7084   25.7722 H   0  0  0  0  0  0
  -24.8904  -32.2918   26.4785 H   0  0  0  0  0  0
  -25.8009  -30.8937   27.0201 H   0  0  0  0  0  0
  -26.2995  -29.6683   24.1262 H   0  0  0  0  0  0
  -27.4013  -29.7252   25.4817 H   0  0  0  0  0  0
  -27.8897  -30.4202   23.9553 H   0  0  0  0  0  0
  -27.2614  -33.3631   26.2031 H   0  0  0  0  0  0
  -28.3881  -32.6881   25.0351 H   0  0  0  0  0  0
  -28.0681  -31.8482   26.5450 H   0  0  0  0  0  0
  -28.2578  -38.0097   24.7513 H   0  0  0  0  0  0
  -28.1086  -36.2628   24.6283 H   0  0  0  0  0  0
  -27.2296  -37.1428   25.8864 H   0  0  0  0  0  0
  -20.9464  -29.8751   21.6788 H   0  0  0  0  0  0
  -26.0149  -38.2811   24.1411 H   0  0  0  0  0  0
  -25.6905  -20.2155   19.9721 H   0  0  0  0  0  0
  -26.5934  -22.4520   19.9831 H   0  0  0  0  0  0
  -25.7542  -18.0538   20.4400 H   0  0  0  0  0  0
  -27.1150  -17.3253   21.2215 H   0  0  0  0  0  0
  -26.9488  -17.3010   19.4265 H   0  0  0  0  0  0
  -30.9273  -23.1614   23.4984 H   0  0  0  0  0  0
  -31.6408  -22.9851   21.9066 H   0  0  0  0  0  0
  -30.4945  -21.7857   22.5098 H   0  0  0  0  0  0
  -31.1141  -22.9000   19.6471 H   0  0  0  0  0  0
  -30.7419  -24.6208   19.5686 H   0  0  0  0  0  0
  -30.0044  -23.4979   18.4296 H   0  0  0  0  0  0
  -31.6167  -19.2086   19.5987 H   0  0  0  0  0  0
  -30.7290  -18.2238   18.4484 H   0  0  0  0  0  0
  -31.9271  -17.4881   19.5050 H   0  0  0  0  0  0
  -31.1077  -19.0819   22.0620 H   0  0  0  0  0  0
  -31.3951  -17.3463   22.0901 H   0  0  0  0  0  0
  -29.8623  -18.0003   22.6681 H   0  0  0  0  0  0
  -29.8174  -24.7300   22.0005 H   0  0  0  0  0  0
  -28.6846  -23.5271   22.5340 H   0  0  0  0  0  0
  -27.1790  -24.4949   20.7079 H   0  0  0  0  0  0
  -27.7238  -24.5161   19.0620 H   0  0  0  0  0  0
  -28.8198  -16.1440   21.0687 H   0  0  0  0  0  0
  1 25  1  0  0  0
  1 30  2  0  0  0
  1 83  1  0  0  0
  2  3  1  0  0  0
  2 25  1  0  0  0
  2 88  1  0  0  0
  2 89  1  0  0  0
  3  4  1  0  0  0
  3 90  1  0  0  0
  3 91  1  0  0  0
  4  5  1  0  0  0
  4 92  1  0  0  0
  4 93  1  0  0  0
  5  6  1  0  0  0
  5 26  1  0  0  0
  5 94  1  0  0  0
  6 25  1  0  0  0
  6 95  1  0  0  0
  6 96  1  0  0  0
  7  8  2  0  0  0
  7 26  1  0  0  0
  7 29  1  0  0  0
  8  9  1  0  0  0
  8 22  1  0  0  0
  9 10  1  0  0  0
  9 27  2  0  0  0
 10 11  2  0  0  0
 10 15  1  0  0  0
 11 12  1  0  0  0
 11 97  1  0  0  0
 12 13  2  0  0  0
 12 98  1  0  0  0
 13 14  1  0  0  0
 13 31  1  0  0  0
 14 15  2  0  0  0
 14 99  1  0  0  0
 15100  1  0  0  0
 16 17  2  0  0  0
 16 21  1  0  0  0
 16 31  1  0  0  0
 17 18  1  0  0  0
 17101  1  0  0  0
 18 19  2  0  0  0
 18102  1  0  0  0
 19 20  1  0  0  0
 19 24  1  0  0  0
 20 21  2  0  0  0
 20103  1  0  0  0
 21 23  1  0  0  0
 22 28  1  0  0  0
 22 32  2  0  0  0
 26 27  1  0  0  0
 28104  1  0  0  0
 28105  1  0  0  0
 29106  1  0  0  0
 29107  1  0  0  0
 33 34  1  0  0  0
 33 66  1  0  0  0
 33 70  2  0  0  0
 34 36  1  0  0  0
 34 59  1  0  0  0
 34108  1  0  0  0
 35 44  2  0  0  0
 35 45  1  0  0  0
 35 68  1  0  0  0
 36 56  1  0  0  0
 36109  1  0  0  0
 37 39  1  0  0  0
 37 47  1  0  0  0
 37 66  1  0  0  0
 37110  1  0  0  0
 38 43  2  0  0  0
 38 46  1  0  0  0
 38 47  1  0  0  0
 39 64  1  0  0  0
 39 67  2  0  0  0
 40 52  1  0  0  0
 40 53  2  0  0  0
 40 58  1  0  0  0
 41111  1  0  0  0
 41112  1  0  0  0
 41113  1  0  0  0
 41 48  1  0  0  0
 42 43  1  0  0  0
 42 66  1  0  0  0
 42114  1  0  0  0
 42115  1  0  0  0
 43 44  1  0  0  0
 44116  1  0  0  0
 45 46  2  0  0  0
 45117  1  0  0  0
 46118  1  0  0  0
 47119  1  0  0  0
 47120  1  0  0  0
 48 56  1  0  0  0
 48 65  1  0  0  0
 48121  1  0  0  0
 49 50  1  0  0  0
 49 53  1  0  0  0
 49 64  1  0  0  0
 49122  1  0  0  0
 50 51  1  0  0  0
 50123  1  0  0  0
 50124  1  0  0  0
 51 52  1  0  0  0
 51125  1  0  0  0
 51126  1  0  0  0
 52127  1  0  0  0
 52128  1  0  0  0
 53 54  1  0  0  0
 54 55  2  0  0  0
 54129  1  0  0  0
 55 57  1  0  0  0
 55130  1  0  0  0
 56 69  2  0  0  0
 57 58  2  0  0  0
 57131  1  0  0  0
 58132  1  0  0  0
 59 60  1  0  0  0
 59 61  1  0  0  0
 59 62  1  0  0  0
 60133  1  0  0  0
 60134  1  0  0  0
 60135  1  0  0  0
 61136  1  0  0  0
 61137  1  0  0  0
 61138  1  0  0  0
 62139  1  0  0  0
 62140  1  0  0  0
 62141  1  0  0  0
 63 65  1  0  0  0
 63142  1  0  0  0
 63143  1  0  0  0
 63144  1  0  0  0
 64145  1  0  0  0
 65146  1  0  0  0
 68 82  1  0  0  0
 71 72  2  0  0  0
 71 73  1  0  0  0
 71147  1  0  0  0
 72 74  1  0  0  0
 72148  1  0  0  0
 73 75  2  0  0  0
 73 76  1  0  0  0
 74 84  1  0  0  0
 74 86  2  0  0  0
 75 85  1  0  0  0
 75 86  1  0  0  0
 76149  1  0  0  0
 76150  1  0  0  0
 76151  1  0  0  0
 77 81  1  0  0  0
 77152  1  0  0  0
 77153  1  0  0  0
 77154  1  0  0  0
 78155  1  0  0  0
 78156  1  0  0  0
 78157  1  0  0  0
 78 84  1  0  0  0
 79158  1  0  0  0
 79159  1  0  0  0
 79160  1  0  0  0
 79 85  1  0  0  0
 80 85  1  0  0  0
 80161  1  0  0  0
 80162  1  0  0  0
 80163  1  0  0  0
 81 84  1  0  0  0
 81164  1  0  0  0
 81165  1  0  0  0
 82 84  1  0  0  0
 82166  1  0  0  0
 82167  1  0  0  0
 83 85  1  0  0  0
 83 87  1  0  0  0
 83168  1  0  0  0
M  ISO  4   1 100  68 101  82 101  83 100
M  END
> <chiral flag>
0

> <version>
0

> <s_m_source_file>
/data/baiqing/PycharmProjects/Reinvent-master-3.2/result/LINK_invent/BTK/process_docking_weight1_custom_sum_contain_oxygen_bond_distance_aromatic_linkinvent_7_9_3/rearranged_h_0071.sdf

> <i_m_source_file_index>
64

> <r_mmod_Potential_Energy-OPLS-2005>
436.337554931641

> <r_mmod_Stretch_Energy-OPLS-2005>
292.410736083984

> <r_mmod_Bend_Energy-OPLS-2005>
276.761566162109

> <r_mmod_Torsional_Energy-OPLS-2005>
170.900634765625

> <r_mmod_Improper_Torsional_Energy-OPLS-2005>
7.2292366027832

> <r_mmod_Van_der_Waal_Energy-OPLS-2005>
136.917587280273

> <r_mmod_Electrostatic_Energy-OPLS-2005>
-434.418334960938

> <r_mmod_Solvation_Energy-OPLS-2005>
-194.355438232422

> <b_mmod_Minimization_Converged-OPLS-2005>
0

> <r_mmod_RMS_Derivative-OPLS-2005>
1.24079716205597

$$$$
65
                    3D
 Structure written by MMmdl.
160168  0  0  1  0            999 V2000
  -30.5743  -14.8913   20.4135 C   0  0  0  0  0  0
  -30.4404  -12.5471   19.4999 C   0  0  0  0  0  0
  -29.5195  -12.5197   18.2584 C   0  0  0  0  0  0
  -28.0526  -12.3159   18.6771 C   0  0  0  0  0  0
  -27.6368  -13.2443   19.8473 C   0  0  2  0  0  0
  -28.6806  -13.2575   20.9865 C   0  0  0  0  0  0
  -25.2498  -13.8222   20.5728 C   0  0  0  0  0  0
  -24.1795  -13.0453   20.9225 C   0  0  0  0  0  0
  -24.6397  -11.6935   20.8768 C   0  0  0  0  0  0
  -23.9076  -10.4299   21.0410 C   0  0  0  0  0  0
  -24.3628   -9.4212   21.9182 C   0  0  0  0  0  0
  -23.6299   -8.2248   22.0748 C   0  0  0  0  0  0
  -22.4280   -8.0288   21.3538 C   0  0  0  0  0  0
  -21.9926   -9.0263   20.4638 C   0  0  0  0  0  0
  -22.7253  -10.2143   20.3051 C   0  0  0  0  0  0
  -21.6864   -6.0745   22.5276 C   0  0  0  0  0  0
  -21.4016   -6.5645   23.8209 C   0  0  0  0  0  0
  -21.3660   -5.6797   24.9170 C   0  0  0  0  0  0
  -21.6043   -4.3058   24.7220 C   0  0  0  0  0  0
  -21.8822   -3.8152   23.4341 C   0  0  0  0  0  0
  -21.9193   -4.6971   22.3398 C   0  0  0  0  0  0
  -22.7815  -13.5228   21.1888 C   0  0  0  0  0  0
  -22.1665   -4.2161   21.0974 F   0  0  0  0  0  0
  -21.5629   -3.4537   25.7730 F   0  0  0  0  0  0
  -29.9701  -13.6393   20.3945 N   0  0  0  0  0  0
  -26.2928  -12.9447   20.3304 N   0  0  0  0  0  0
  -25.9330  -11.6576   20.5761 N   0  0  0  0  0  0
  -22.0478  -12.8191   22.0440 N   0  0  0  0  0  0
  -25.4179  -15.1940   20.4136 N   0  0  0  0  0  0
  -31.7616  -14.9696   20.0884 O   0  0  0  0  0  0
  -21.6644   -6.8885   21.4237 O   0  0  0  0  0  0
  -22.3495  -14.5536   20.6746 O   0  0  0  0  0  0
  -24.6421  -31.8468   23.1954 C   0  0  0  0  0  0
  -25.9202  -32.4706   23.8305 C   0  0  1  0  0  0
  -27.2089  -27.1564   20.1271 C   0  0  0  0  0  0
  -25.5974  -33.8513   24.2208 N   0  0  0  0  0  0
  -23.4438  -30.4718   21.5416 C   0  0  2  0  0  0
  -24.8897  -28.9145   20.1068 C   0  0  0  0  0  0
  -22.7559  -29.4552   22.4869 C   0  0  0  0  0  0
  -18.0304  -28.1390   22.8458 C   0  0  0  0  0  0
  -24.1490  -36.7260   23.2639 C   0  0  0  0  0  0
  -26.0008  -30.7249   21.3951 C   0  0  0  0  0  0
  -26.0703  -29.3411   20.7293 C   0  0  0  0  0  0
  -27.2294  -28.4767   20.7302 C   0  0  0  0  0  0
  -26.0032  -26.8472   19.4485 C   0  0  0  0  0  0
  -24.8684  -27.6786   19.4539 C   0  0  0  0  0  0
  -23.6671  -29.8163   20.1558 C   0  0  0  0  0  0
  -25.4127  -36.3037   24.0306 C   0  0  1  0  0  0
  -20.5915  -28.3702   23.1225 C   0  0  2  0  0  0
  -20.6797  -26.9410   22.5381 C   0  0  0  0  0  0
  -19.5769  -26.6381   21.5192 C   0  0  0  0  0  0
  -18.1943  -26.7922   22.1609 C   0  0  0  0  0  0
  -19.1560  -28.8863   23.2832 C   0  0  0  0  0  0
  -18.9487  -30.1457   23.8866 C   0  0  0  0  0  0
  -17.6490  -30.6590   24.0547 C   0  0  0  0  0  0
  -25.9075  -34.9409   23.5062 C   0  0  0  0  0  0
  -16.5375  -29.9079   23.6332 C   0  0  0  0  0  0
  -16.7290  -28.6497   23.0353 C   0  0  0  0  0  0
  -26.4533  -31.6567   25.0733 C   0  0  0  0  0  0
  -25.3727  -31.3747   26.1432 C   0  0  0  0  0  0
  -27.0397  -30.2965   24.6296 C   0  0  0  0  0  0
  -27.6064  -32.4343   25.7513 C   0  0  0  0  0  0
  -27.5573  -37.1787   24.8467 C   0  0  0  0  0  0
  -21.4251  -29.3043   22.3612 N   0  0  0  0  0  0
  -26.4290  -37.3745   23.9405 N   0  0  0  0  0  0
  -24.7153  -31.0331   22.0998 N   0  0  0  0  0  0
  -23.4205  -28.8077   23.2998 O   0  0  0  0  0  0
  -28.2365  -26.1415   20.2071 O   0  0  0  0  0  0
  -26.5644  -34.8888   22.4628 O   0  0  0  0  0  0
  -23.5539  -32.1342   23.7175 O   0  0  0  0  0  0
  -28.5494  -23.2216   20.0605 C   0  0  0  0  0  0
  -28.1257  -22.0732   19.3021 C   0  0  0  0  0  0
  -29.4662  -22.7871   21.0698 C   0  0  0  0  0  0
  -29.3818  -20.4325   20.4870 C   0  0  0  0  0  0
  -27.1130  -22.1892   18.1748 C   0  0  0  0  0  0
  -28.1389  -18.5136   21.6371 C   0  0  0  0  0  0
  -30.5412  -18.8684   22.1729 C   0  0  0  0  0  0
  -27.8474  -24.6963   19.8292 C   0  0  0  0  0  0
  -29.9863  -17.5536   20.1083 C   0  0  0  0  0  0
  -30.1067  -23.7999   22.0265 C   0  0  0  0  0  0
  -29.5080  -18.8654   21.0247 C   0  0  0  0  0  0
  -28.5248  -20.7664   19.5122 N   0  0  0  0  0  0
  -29.8320  -21.4526   21.2531 N   0  0  0  0  0  0
  -29.7962  -16.0567   20.5697 N   0  0  0  0  0  0
  -31.0824  -24.4546   21.3931 F   0  0  0  0  0  0
  -29.2091  -24.6821   22.4676 F   0  0  0  0  0  0
  -30.6351  -23.1908   23.0926 F   0  0  0  0  0  0
  -31.4753  -12.6909   19.1872 H   0  0  0  0  0  0
  -30.4179  -11.5902   20.0234 H   0  0  0  0  0  0
  -29.8256  -11.7259   17.5762 H   0  0  0  0  0  0
  -29.6170  -13.4551   17.7049 H   0  0  0  0  0  0
  -27.9413  -11.2739   18.9804 H   0  0  0  0  0  0
  -27.3876  -12.4592   17.8251 H   0  0  0  0  0  0
  -27.6072  -14.2496   19.4270 H   0  0  0  0  0  0
  -28.7472  -12.2839   21.4742 H   0  0  0  0  0  0
  -28.3900  -13.9698   21.7602 H   0  0  0  0  0  0
  -25.2772   -9.5700   22.4763 H   0  0  0  0  0  0
  -24.0020   -7.4637   22.7460 H   0  0  0  0  0  0
  -21.0868   -8.8779   19.8935 H   0  0  0  0  0  0
  -22.3707  -10.9687   19.6168 H   0  0  0  0  0  0
  -21.2012   -7.6152   23.9719 H   0  0  0  0  0  0
  -21.1479   -6.0521   25.9075 H   0  0  0  0  0  0
  -22.0600   -2.7614   23.2833 H   0  0  0  0  0  0
  -22.4111  -11.9841   22.4796 H   0  0  0  0  0  0
  -21.1096  -13.1192   22.2665 H   0  0  0  0  0  0
  -24.6497  -15.8477   20.5152 H   0  0  0  0  0  0
  -26.2610  -15.6301   20.0653 H   0  0  0  0  0  0
  -26.7255  -32.5310   23.1017 H   0  0  0  0  0  0
  -25.0130  -33.9640   25.0361 H   0  0  0  0  0  0
  -22.7472  -31.2998   21.3978 H   0  0  0  0  0  0
  -23.3746  -35.9597   23.3304 H   0  0  0  0  0  0
  -24.3579  -36.8897   22.2054 H   0  0  0  0  0  0
  -23.7239  -37.6458   23.6684 H   0  0  0  0  0  0
  -26.1556  -31.4868   20.6306 H   0  0  0  0  0  0
  -26.8709  -30.7700   22.0367 H   0  0  0  0  0  0
  -28.1241  -28.7960   21.2453 H   0  0  0  0  0  0
  -25.8735  -25.9201   18.9142 H   0  0  0  0  0  0
  -23.9698  -27.3503   18.9499 H   0  0  0  0  0  0
  -23.8056  -30.6018   19.4114 H   0  0  0  0  0  0
  -22.7800  -29.2666   19.8379 H   0  0  0  0  0  0
  -25.1304  -36.1869   25.0793 H   0  0  0  0  0  0
  -20.9997  -28.3291   24.1354 H   0  0  0  0  0  0
  -20.5687  -26.2324   23.3602 H   0  0  0  0  0  0
  -21.6664  -26.7419   22.1184 H   0  0  0  0  0  0
  -19.6931  -25.6284   21.1247 H   0  0  0  0  0  0
  -19.6711  -27.3166   20.6703 H   0  0  0  0  0  0
  -17.4207  -26.6648   21.4013 H   0  0  0  0  0  0
  -18.0352  -26.0061   22.9013 H   0  0  0  0  0  0
  -19.7971  -30.7267   24.2227 H   0  0  0  0  0  0
  -17.5052  -31.6268   24.5154 H   0  0  0  0  0  0
  -15.5373  -30.2981   23.7681 H   0  0  0  0  0  0
  -15.8687  -28.0819   22.7085 H   0  0  0  0  0  0
  -24.5927  -30.7063   25.7763 H   0  0  0  0  0  0
  -24.8888  -32.2921   26.4789 H   0  0  0  0  0  0
  -25.8010  -30.8983   27.0250 H   0  0  0  0  0  0
  -26.3005  -29.6699   24.1295 H   0  0  0  0  0  0
  -27.3996  -29.7246   25.4856 H   0  0  0  0  0  0
  -27.8921  -30.4205   23.9612 H   0  0  0  0  0  0
  -27.2658  -33.3668   26.2016 H   0  0  0  0  0  0
  -28.3904  -32.6863   25.0365 H   0  0  0  0  0  0
  -28.0694  -31.8532   26.5495 H   0  0  0  0  0  0
  -28.2572  -38.0096   24.7512 H   0  0  0  0  0  0
  -28.1088  -36.2626   24.6309 H   0  0  0  0  0  0
  -27.2298  -37.1444   25.8870 H   0  0  0  0  0  0
  -20.9463  -29.8809   21.6842 H   0  0  0  0  0  0
  -26.0158  -38.2800   24.1447 H   0  0  0  0  0  0
  -27.6302  -22.3045   17.2227 H   0  0  0  0  0  0
  -26.4269  -23.0245   18.2995 H   0  0  0  0  0  0
  -26.4976  -21.2911   18.1162 H   0  0  0  0  0  0
  -27.8341  -19.2662   22.3641 H   0  0  0  0  0  0
  -28.1496  -17.5512   22.1472 H   0  0  0  0  0  0
  -27.3693  -18.4782   20.8645 H   0  0  0  0  0  0
  -30.2377  -19.5227   22.9910 H   0  0  0  0  0  0
  -31.5102  -19.2187   21.8143 H   0  0  0  0  0  0
  -30.6871  -17.8753   22.5953 H   0  0  0  0  0  0
  -26.8631  -24.5284   20.2680 H   0  0  0  0  0  0
  -27.7146  -24.7605   18.7485 H   0  0  0  0  0  0
  -31.0339  -17.6876   19.8343 H   0  0  0  0  0  0
  -29.4497  -17.6273   19.1618 H   0  0  0  0  0  0
  -28.8526  -15.8524   20.8612 H   0  0  0  0  0  0
  1 25  1  0  0  0
  1 30  2  0  0  0
  1 84  1  0  0  0
  2  3  1  0  0  0
  2 25  1  0  0  0
  2 88  1  0  0  0
  2 89  1  0  0  0
  3  4  1  0  0  0
  3 90  1  0  0  0
  3 91  1  0  0  0
  4  5  1  0  0  0
  4 92  1  0  0  0
  4 93  1  0  0  0
  5  6  1  0  0  0
  5 26  1  0  0  0
  5 94  1  0  0  0
  6 25  1  0  0  0
  6 95  1  0  0  0
  6 96  1  0  0  0
  7  8  2  0  0  0
  7 26  1  0  0  0
  7 29  1  0  0  0
  8  9  1  0  0  0
  8 22  1  0  0  0
  9 10  1  0  0  0
  9 27  2  0  0  0
 10 11  2  0  0  0
 10 15  1  0  0  0
 11 12  1  0  0  0
 11 97  1  0  0  0
 12 13  2  0  0  0
 12 98  1  0  0  0
 13 14  1  0  0  0
 13 31  1  0  0  0
 14 15  2  0  0  0
 14 99  1  0  0  0
 15100  1  0  0  0
 16 17  2  0  0  0
 16 21  1  0  0  0
 16 31  1  0  0  0
 17 18  1  0  0  0
 17101  1  0  0  0
 18 19  2  0  0  0
 18102  1  0  0  0
 19 20  1  0  0  0
 19 24  1  0  0  0
 20 21  2  0  0  0
 20103  1  0  0  0
 21 23  1  0  0  0
 22 28  1  0  0  0
 22 32  2  0  0  0
 26 27  1  0  0  0
 28104  1  0  0  0
 28105  1  0  0  0
 29106  1  0  0  0
 29107  1  0  0  0
 33 34  1  0  0  0
 33 66  1  0  0  0
 33 70  2  0  0  0
 34 36  1  0  0  0
 34 59  1  0  0  0
 34108  1  0  0  0
 35 44  2  0  0  0
 35 45  1  0  0  0
 35 68  1  0  0  0
 36 56  1  0  0  0
 36109  1  0  0  0
 37 39  1  0  0  0
 37 47  1  0  0  0
 37 66  1  0  0  0
 37110  1  0  0  0
 38 43  2  0  0  0
 38 46  1  0  0  0
 38 47  1  0  0  0
 39 64  1  0  0  0
 39 67  2  0  0  0
 40 52  1  0  0  0
 40 53  2  0  0  0
 40 58  1  0  0  0
 41111  1  0  0  0
 41112  1  0  0  0
 41113  1  0  0  0
 41 48  1  0  0  0
 42 43  1  0  0  0
 42 66  1  0  0  0
 42114  1  0  0  0
 42115  1  0  0  0
 43 44  1  0  0  0
 44116  1  0  0  0
 45 46  2  0  0  0
 45117  1  0  0  0
 46118  1  0  0  0
 47119  1  0  0  0
 47120  1  0  0  0
 48 56  1  0  0  0
 48 65  1  0  0  0
 48121  1  0  0  0
 49 50  1  0  0  0
 49 53  1  0  0  0
 49 64  1  0  0  0
 49122  1  0  0  0
 50 51  1  0  0  0
 50123  1  0  0  0
 50124  1  0  0  0
 51 52  1  0  0  0
 51125  1  0  0  0
 51126  1  0  0  0
 52127  1  0  0  0
 52128  1  0  0  0
 53 54  1  0  0  0
 54 55  2  0  0  0
 54129  1  0  0  0
 55 57  1  0  0  0
 55130  1  0  0  0
 56 69  2  0  0  0
 57 58  2  0  0  0
 57131  1  0  0  0
 58132  1  0  0  0
 59 60  1  0  0  0
 59 61  1  0  0  0
 59 62  1  0  0  0
 60133  1  0  0  0
 60134  1  0  0  0
 60135  1  0  0  0
 61136  1  0  0  0
 61137  1  0  0  0
 61138  1  0  0  0
 62139  1  0  0  0
 62140  1  0  0  0
 62141  1  0  0  0
 63 65  1  0  0  0
 63142  1  0  0  0
 63143  1  0  0  0
 63144  1  0  0  0
 64145  1  0  0  0
 65146  1  0  0  0
 68 78  1  0  0  0
 71 72  2  0  0  0
 71 73  1  0  0  0
 71 78  1  0  0  0
 72 75  1  0  0  0
 72 82  1  0  0  0
 73 80  1  0  0  0
 73 83  2  0  0  0
 74 81  1  0  0  0
 74 82  2  0  0  0
 74 83  1  0  0  0
 75147  1  0  0  0
 75148  1  0  0  0
 75149  1  0  0  0
 76150  1  0  0  0
 76151  1  0  0  0
 76152  1  0  0  0
 76 81  1  0  0  0
 77 81  1  0  0  0
 77153  1  0  0  0
 77154  1  0  0  0
 77155  1  0  0  0
 78156  1  0  0  0
 78157  1  0  0  0
 79 81  1  0  0  0
 79 84  1  0  0  0
 79158  1  0  0  0
 79159  1  0  0  0
 80 85  1  0  0  0
 80 86  1  0  0  0
 80 87  1  0  0  0
 84160  1  0  0  0
M  ISO  4   1 100  68 101  78 101  84 100
M  END
> <chiral flag>
0

> <version>
0

> <s_m_source_file>
/data/baiqing/PycharmProjects/Reinvent-master-3.2/result/LINK_invent/BTK/process_docking_weight1_custom_sum_contain_oxygen_bond_distance_aromatic_linkinvent_7_9_3/rearranged_h_0071.sdf

> <i_m_source_file_index>
65

> <r_mmod_Potential_Energy-OPLS-2005>
123.029144287109

> <r_mmod_Stretch_Energy-OPLS-2005>
216.767776489258

> <r_mmod_Bend_Energy-OPLS-2005>
277.161102294922

> <r_mmod_Torsional_Energy-OPLS-2005>
224.02668762207

> <r_mmod_Improper_Torsional_Energy-OPLS-2005>
9.9602108001709

> <r_mmod_Van_der_Waal_Energy-OPLS-2005>
153.661865234375

> <r_mmod_Electrostatic_Energy-OPLS-2005>
-711.022216796875

> <r_mmod_Solvation_Energy-OPLS-2005>
-217.232925415039

> <b_mmod_Minimization_Converged-OPLS-2005>
0

> <r_mmod_RMS_Derivative-OPLS-2005>
2.51560616493225

$$$$
66
                    3D
 Structure written by MMmdl.
160168  0  0  1  0            999 V2000
  -30.7126  -14.4123   20.6355 C   0  0  0  0  0  0
  -30.4232  -12.2890   19.4097 C   0  0  0  0  0  0
  -29.4955  -12.5204   18.2002 C   0  0  0  0  0  0
  -28.0138  -12.3842   18.6069 C   0  0  0  0  0  0
  -27.6657  -13.1979   19.8817 C   0  0  2  0  0  0
  -28.7014  -12.9306   20.9948 C   0  0  0  0  0  0
  -25.2598  -13.8146   20.5659 C   0  0  0  0  0  0
  -24.1839  -13.0437   20.9150 C   0  0  0  0  0  0
  -24.6382  -11.6894   20.8713 C   0  0  0  0  0  0
  -23.9047  -10.4295   21.0390 C   0  0  0  0  0  0
  -24.3603   -9.4211   21.9165 C   0  0  0  0  0  0
  -23.6284   -8.2245   22.0741 C   0  0  0  0  0  0
  -22.4261   -8.0285   21.3540 C   0  0  0  0  0  0
  -21.9903   -9.0256   20.4633 C   0  0  0  0  0  0
  -22.7224  -10.2136   20.3039 C   0  0  0  0  0  0
  -21.6855   -6.0740   22.5292 C   0  0  0  0  0  0
  -21.4012   -6.5645   23.8228 C   0  0  0  0  0  0
  -21.3642   -5.6797   24.9185 C   0  0  0  0  0  0
  -21.6040   -4.3065   24.7230 C   0  0  0  0  0  0
  -21.8822   -3.8150   23.4353 C   0  0  0  0  0  0
  -21.9196   -4.6965   22.3411 C   0  0  0  0  0  0
  -22.7866  -13.5240   21.1838 C   0  0  0  0  0  0
  -22.1657   -4.2151   21.0986 F   0  0  0  0  0  0
  -21.5617   -3.4550   25.7742 F   0  0  0  0  0  0
  -30.0401  -13.2429   20.4593 N   0  0  0  0  0  0
  -26.3032  -12.9294   20.3359 N   0  0  0  0  0  0
  -25.9299  -11.6458   20.5724 N   0  0  0  0  0  0
  -22.0513  -12.8231   22.0389 N   0  0  0  0  0  0
  -25.4344  -15.1865   20.4086 N   0  0  0  0  0  0
  -31.7783  -14.6729   20.0658 O   0  0  0  0  0  0
  -21.6621   -6.8882   21.4254 O   0  0  0  0  0  0
  -22.3555  -14.5558   20.6705 O   0  0  0  0  0  0
  -24.6137  -31.8689   23.2091 C   0  0  0  0  0  0
  -25.9032  -32.4824   23.8391 C   0  0  1  0  0  0
  -27.2443  -27.4411   20.0849 C   0  0  0  0  0  0
  -25.5889  -33.8622   24.2327 N   0  0  0  0  0  0
  -23.4009  -30.4905   21.5503 C   0  0  2  0  0  0
  -24.8468  -28.9518   20.1178 C   0  0  0  0  0  0
  -22.7397  -29.4664   22.4999 C   0  0  0  0  0  0
  -18.0266  -28.1375   22.8495 C   0  0  0  0  0  0
  -24.1481  -36.7326   23.2634 C   0  0  0  0  0  0
  -25.9277  -30.8346   21.3598 C   0  0  0  0  0  0
  -26.0045  -29.4662   20.7117 C   0  0  0  0  0  0
  -27.2009  -28.7168   20.6932 C   0  0  0  0  0  0
  -26.0603  -26.9302   19.5035 C   0  0  0  0  0  0
  -24.8683  -27.6823   19.5142 C   0  0  0  0  0  0
  -23.6092  -29.8194   20.1661 C   0  0  0  0  0  0
  -25.4098  -36.3115   24.0337 C   0  0  1  0  0  0
  -20.5859  -28.3665   23.1324 C   0  0  2  0  0  0
  -20.6758  -26.9407   22.5418 C   0  0  0  0  0  0
  -19.5738  -26.6391   21.5212 C   0  0  0  0  0  0
  -18.1915  -26.7922   22.1624 C   0  0  0  0  0  0
  -19.1516  -28.8834   23.2908 C   0  0  0  0  0  0
  -18.9446  -30.1439   23.8920 C   0  0  0  0  0  0
  -17.6451  -30.6585   24.0565 C   0  0  0  0  0  0
  -25.9029  -34.9478   23.5131 C   0  0  0  0  0  0
  -16.5340  -29.9094   23.6321 C   0  0  0  0  0  0
  -16.7258  -28.6511   23.0345 C   0  0  0  0  0  0
  -26.4458  -31.6592   25.0710 C   0  0  0  0  0  0
  -25.3725  -31.3695   26.1462 C   0  0  0  0  0  0
  -27.0285  -30.3033   24.6075 C   0  0  0  0  0  0
  -27.6043  -32.4297   25.7474 C   0  0  0  0  0  0
  -27.5581  -37.1810   24.8458 C   0  0  0  0  0  0
  -21.4129  -29.3037   22.3732 N   0  0  0  0  0  0
  -26.4287  -37.3802   23.9411 N   0  0  0  0  0  0
  -24.6662  -31.0787   22.0989 N   0  0  0  0  0  0
  -23.4168  -28.8218   23.3048 O   0  0  0  0  0  0
  -28.4563  -26.7777   20.0789 O   0  0  0  0  0  0
  -26.5606  -34.8933   22.4700 O   0  0  0  0  0  0
  -23.5333  -32.1448   23.7486 O   0  0  0  0  0  0
  -29.3058  -19.9290   20.4397 C   0  0  0  0  0  0
  -29.2295  -20.9290   21.3749 C   0  0  0  0  0  0
  -30.0614  -20.4702   22.4362 C   0  0  0  0  0  0
  -30.3737  -21.1508   23.7339 C   0  0  0  0  0  0
  -30.1404  -15.3926   22.8031 C   0  0  0  0  0  0
  -28.3039  -24.3909   20.6620 C   0  0  0  0  0  0
  -30.5170  -17.6606   20.3914 C   0  0  0  0  0  0
  -29.4850  -16.5533   20.7109 C   0  0  0  0  0  0
  -28.5818  -25.4439   19.5724 C   0  0  0  0  0  0
  -28.7103  -22.9579   20.2572 C   0  0  0  0  0  0
  -30.5939  -19.2844   22.1842 N   0  0  0  0  0  0
  -30.1323  -18.9466   20.9597 N   0  0  0  0  0  0
  -30.0480  -15.3506   21.3428 N   0  0  0  0  0  0
  -28.5040  -22.0966   21.3722 O   0  0  0  0  0  0
  -31.4683  -12.3907   19.1123 H   0  0  0  0  0  0
  -30.3172  -11.2686   19.7812 H   0  0  0  0  0  0
  -29.7301  -11.8110   17.4053 H   0  0  0  0  0  0
  -29.6727  -13.5136   17.7854 H   0  0  0  0  0  0
  -27.8077  -11.3249   18.7719 H   0  0  0  0  0  0
  -27.3717  -12.6926   17.7818 H   0  0  0  0  0  0
  -27.7223  -14.2520   19.6123 H   0  0  0  0  0  0
  -28.6689  -11.8831   21.2973 H   0  0  0  0  0  0
  -28.4486  -13.4893   21.8950 H   0  0  0  0  0  0
  -25.2744   -9.5690   22.4734 H   0  0  0  0  0  0
  -23.9996   -7.4634   22.7456 H   0  0  0  0  0  0
  -21.0845   -8.8779   19.8930 H   0  0  0  0  0  0
  -22.3687  -10.9674   19.6148 H   0  0  0  0  0  0
  -21.2001   -7.6154   23.9743 H   0  0  0  0  0  0
  -21.1449   -6.0514   25.9093 H   0  0  0  0  0  0
  -22.0609   -2.7608   23.2864 H   0  0  0  0  0  0
  -22.4138  -11.9890   22.4771 H   0  0  0  0  0  0
  -21.1127  -13.1237   22.2584 H   0  0  0  0  0  0
  -24.6723  -15.8467   20.5203 H   0  0  0  0  0  0
  -26.2973  -15.6248   20.1138 H   0  0  0  0  0  0
  -26.7104  -32.5541   23.1159 H   0  0  0  0  0  0
  -25.0010  -33.9780   25.0452 H   0  0  0  0  0  0
  -22.6900  -31.3075   21.4095 H   0  0  0  0  0  0
  -23.3742  -35.9658   23.3285 H   0  0  0  0  0  0
  -24.3578  -36.8961   22.2052 H   0  0  0  0  0  0
  -23.7233  -37.6523   23.6664 H   0  0  0  0  0  0
  -26.0329  -31.5962   20.5862 H   0  0  0  0  0  0
  -26.8186  -30.8950   21.9736 H   0  0  0  0  0  0
  -28.0985  -29.1184   21.1427 H   0  0  0  0  0  0
  -26.0312  -25.9596   19.0317 H   0  0  0  0  0  0
  -23.9753  -27.2792   19.0556 H   0  0  0  0  0  0
  -23.7192  -30.5932   19.4060 H   0  0  0  0  0  0
  -22.7333  -29.2398   19.8695 H   0  0  0  0  0  0
  -25.1271  -36.1976   25.0830 H   0  0  0  0  0  0
  -20.9943  -28.3227   24.1448 H   0  0  0  0  0  0
  -20.5668  -26.2270   23.3599 H   0  0  0  0  0  0
  -21.6628  -26.7455   22.1208 H   0  0  0  0  0  0
  -19.6903  -25.6309   21.1229 H   0  0  0  0  0  0
  -19.6672  -27.3212   20.6754 H   0  0  0  0  0  0
  -17.4184  -26.6669   21.4028 H   0  0  0  0  0  0
  -18.0319  -26.0055   22.9014 H   0  0  0  0  0  0
  -19.7921  -30.7243   24.2310 H   0  0  0  0  0  0
  -17.5010  -31.6269   24.5165 H   0  0  0  0  0  0
  -15.5344  -30.3009   23.7635 H   0  0  0  0  0  0
  -15.8652  -28.0844   22.7047 H   0  0  0  0  0  0
  -24.5893  -30.7048   25.7795 H   0  0  0  0  0  0
  -24.8917  -32.2851   26.4918 H   0  0  0  0  0  0
  -25.8078  -30.8852   27.0213 H   0  0  0  0  0  0
  -26.2827  -29.6798   24.1129 H   0  0  0  0  0  0
  -27.4060  -29.7259   25.4524 H   0  0  0  0  0  0
  -27.8656  -30.4350   23.9215 H   0  0  0  0  0  0
  -27.2681  -33.3605   26.2057 H   0  0  0  0  0  0
  -28.3852  -32.6842   25.0294 H   0  0  0  0  0  0
  -28.0705  -31.8406   26.5382 H   0  0  0  0  0  0
  -28.2584  -38.0124   24.7536 H   0  0  0  0  0  0
  -28.1099  -36.2660   24.6245 H   0  0  0  0  0  0
  -27.2310  -37.1412   25.8864 H   0  0  0  0  0  0
  -20.9283  -29.8761   21.6956 H   0  0  0  0  0  0
  -26.0178  -38.2876   24.1426 H   0  0  0  0  0  0
  -28.8310  -19.8241   19.4743 H   0  0  0  0  0  0
  -30.0575  -22.1935   23.7148 H   0  0  0  0  0  0
  -31.4438  -21.1339   23.9413 H   0  0  0  0  0  0
  -29.8623  -20.6620   24.5628 H   0  0  0  0  0  0
  -30.5009  -14.4495   23.2183 H   0  0  0  0  0  0
  -29.1642  -15.5916   23.2472 H   0  0  0  0  0  0
  -30.8255  -16.1811   23.1162 H   0  0  0  0  0  0
  -27.2503  -24.4139   20.9396 H   0  0  0  0  0  0
  -28.8587  -24.6667   21.5593 H   0  0  0  0  0  0
  -30.6143  -17.7780   19.3116 H   0  0  0  0  0  0
  -31.5118  -17.3985   20.7563 H   0  0  0  0  0  0
  -28.9923  -16.2579   19.7825 H   0  0  0  0  0  0
  -28.6850  -16.9429   21.3418 H   0  0  0  0  0  0
  -27.9966  -25.2666   18.6715 H   0  0  0  0  0  0
  -29.6207  -25.3418   19.2569 H   0  0  0  0  0  0
  -29.7588  -22.9432   19.9545 H   0  0  0  0  0  0
  -28.1170  -22.6172   19.4074 H   0  0  0  0  0  0
  1 25  1  0  0  0
  1 30  2  0  0  0
  1 83  1  0  0  0
  2  3  1  0  0  0
  2 25  1  0  0  0
  2 85  1  0  0  0
  2 86  1  0  0  0
  3  4  1  0  0  0
  3 87  1  0  0  0
  3 88  1  0  0  0
  4  5  1  0  0  0
  4 89  1  0  0  0
  4 90  1  0  0  0
  5  6  1  0  0  0
  5 26  1  0  0  0
  5 91  1  0  0  0
  6 25  1  0  0  0
  6 92  1  0  0  0
  6 93  1  0  0  0
  7  8  2  0  0  0
  7 26  1  0  0  0
  7 29  1  0  0  0
  8  9  1  0  0  0
  8 22  1  0  0  0
  9 10  1  0  0  0
  9 27  2  0  0  0
 10 11  2  0  0  0
 10 15  1  0  0  0
 11 12  1  0  0  0
 11 94  1  0  0  0
 12 13  2  0  0  0
 12 95  1  0  0  0
 13 14  1  0  0  0
 13 31  1  0  0  0
 14 15  2  0  0  0
 14 96  1  0  0  0
 15 97  1  0  0  0
 16 17  2  0  0  0
 16 21  1  0  0  0
 16 31  1  0  0  0
 17 18  1  0  0  0
 17 98  1  0  0  0
 18 19  2  0  0  0
 18 99  1  0  0  0
 19 20  1  0  0  0
 19 24  1  0  0  0
 20 21  2  0  0  0
 20100  1  0  0  0
 21 23  1  0  0  0
 22 28  1  0  0  0
 22 32  2  0  0  0
 26 27  1  0  0  0
 28101  1  0  0  0
 28102  1  0  0  0
 29103  1  0  0  0
 29104  1  0  0  0
 33 34  1  0  0  0
 33 66  1  0  0  0
 33 70  2  0  0  0
 34 36  1  0  0  0
 34 59  1  0  0  0
 34105  1  0  0  0
 35 44  2  0  0  0
 35 45  1  0  0  0
 35 68  1  0  0  0
 36 56  1  0  0  0
 36106  1  0  0  0
 37 39  1  0  0  0
 37 47  1  0  0  0
 37 66  1  0  0  0
 37107  1  0  0  0
 38 43  2  0  0  0
 38 46  1  0  0  0
 38 47  1  0  0  0
 39 64  1  0  0  0
 39 67  2  0  0  0
 40 52  1  0  0  0
 40 53  2  0  0  0
 40 58  1  0  0  0
 41108  1  0  0  0
 41109  1  0  0  0
 41110  1  0  0  0
 41 48  1  0  0  0
 42 43  1  0  0  0
 42 66  1  0  0  0
 42111  1  0  0  0
 42112  1  0  0  0
 43 44  1  0  0  0
 44113  1  0  0  0
 45 46  2  0  0  0
 45114  1  0  0  0
 46115  1  0  0  0
 47116  1  0  0  0
 47117  1  0  0  0
 48 56  1  0  0  0
 48 65  1  0  0  0
 48118  1  0  0  0
 49 50  1  0  0  0
 49 53  1  0  0  0
 49 64  1  0  0  0
 49119  1  0  0  0
 50 51  1  0  0  0
 50120  1  0  0  0
 50121  1  0  0  0
 51 52  1  0  0  0
 51122  1  0  0  0
 51123  1  0  0  0
 52124  1  0  0  0
 52125  1  0  0  0
 53 54  1  0  0  0
 54 55  2  0  0  0
 54126  1  0  0  0
 55 57  1  0  0  0
 55127  1  0  0  0
 56 69  2  0  0  0
 57 58  2  0  0  0
 57128  1  0  0  0
 58129  1  0  0  0
 59 60  1  0  0  0
 59 61  1  0  0  0
 59 62  1  0  0  0
 60130  1  0  0  0
 60131  1  0  0  0
 60132  1  0  0  0
 61133  1  0  0  0
 61134  1  0  0  0
 61135  1  0  0  0
 62136  1  0  0  0
 62137  1  0  0  0
 62138  1  0  0  0
 63 65  1  0  0  0
 63139  1  0  0  0
 63140  1  0  0  0
 63141  1  0  0  0
 64142  1  0  0  0
 65143  1  0  0  0
 68 79  1  0  0  0
 71 72  2  0  0  0
 71 82  1  0  0  0
 71144  1  0  0  0
 72 73  1  0  0  0
 72 84  1  0  0  0
 73 74  1  0  0  0
 73 81  2  0  0  0
 74145  1  0  0  0
 74146  1  0  0  0
 74147  1  0  0  0
 75 83  1  0  0  0
 75148  1  0  0  0
 75149  1  0  0  0
 75150  1  0  0  0
 76 79  1  0  0  0
 76 80  1  0  0  0
 76151  1  0  0  0
 76152  1  0  0  0
 77 78  1  0  0  0
 77 82  1  0  0  0
 77153  1  0  0  0
 77154  1  0  0  0
 78 83  1  0  0  0
 78155  1  0  0  0
 78156  1  0  0  0
 79157  1  0  0  0
 79158  1  0  0  0
 80 84  1  0  0  0
 80159  1  0  0  0
 80160  1  0  0  0
 81 82  1  0  0  0
M  ISO  4   1 100  68 101  79 101  83 100
M  END
> <chiral flag>
0

> <version>
0

> <s_m_source_file>
/data/baiqing/PycharmProjects/Reinvent-master-3.2/result/LINK_invent/BTK/process_docking_weight1_custom_sum_contain_oxygen_bond_distance_aromatic_linkinvent_7_9_3/rearranged_h_0071.sdf

> <i_m_source_file_index>
66

> <r_mmod_Potential_Energy-OPLS-2005>
48.6635131835938

> <r_mmod_Stretch_Energy-OPLS-2005>
33.5843353271484

> <r_mmod_Bend_Energy-OPLS-2005>
100.330116271973

> <r_mmod_Torsional_Energy-OPLS-2005>
307.911651611328

> <r_mmod_Improper_Torsional_Energy-OPLS-2005>
4.32066202163696

> <r_mmod_Van_der_Waal_Energy-OPLS-2005>
123.145896911621

> <r_mmod_Electrostatic_Energy-OPLS-2005>
-316.432342529297

> <r_mmod_Solvation_Energy-OPLS-2005>
-213.125076293945

> <b_mmod_Minimization_Converged-OPLS-2005>
0

> <r_mmod_RMS_Derivative-OPLS-2005>
1.53411483764648

$$$$
67
                    3D
 Structure written by MMmdl.
175183  0  0  1  0            999 V2000
  -30.7376  -14.4173   20.6984 C   0  0  0  0  0  0
  -30.4343  -12.3303   19.3974 C   0  0  0  0  0  0
  -29.4963  -12.5598   18.1965 C   0  0  0  0  0  0
  -28.0222  -12.3885   18.6075 C   0  0  0  0  0  0
  -27.6693  -13.2029   19.8803 C   0  0  2  0  0  0
  -28.7076  -12.9379   20.9923 C   0  0  0  0  0  0
  -25.2606  -13.8146   20.5590 C   0  0  0  0  0  0
  -24.1866  -13.0434   20.9123 C   0  0  0  0  0  0
  -24.6438  -11.6902   20.8730 C   0  0  0  0  0  0
  -23.9093  -10.4291   21.0402 C   0  0  0  0  0  0
  -24.3647   -9.4200   21.9187 C   0  0  0  0  0  0
  -23.6317   -8.2248   22.0780 C   0  0  0  0  0  0
  -22.4297   -8.0277   21.3558 C   0  0  0  0  0  0
  -21.9904   -9.0238   20.4648 C   0  0  0  0  0  0
  -22.7256  -10.2115   20.3063 C   0  0  0  0  0  0
  -21.6841   -6.0724   22.5276 C   0  0  0  0  0  0
  -21.4011   -6.5629   23.8205 C   0  0  0  0  0  0
  -21.3672   -5.6787   24.9172 C   0  0  0  0  0  0
  -21.6050   -4.3045   24.7219 C   0  0  0  0  0  0
  -21.8822   -3.8139   23.4326 C   0  0  0  0  0  0
  -21.9198   -4.6966   22.3389 C   0  0  0  0  0  0
  -22.7878  -13.5222   21.1753 C   0  0  0  0  0  0
  -22.1649   -4.2156   21.0958 F   0  0  0  0  0  0
  -21.5654   -3.4508   25.7714 F   0  0  0  0  0  0
  -30.0483  -13.2666   20.4631 N   0  0  0  0  0  0
  -26.3067  -12.9322   20.3366 N   0  0  0  0  0  0
  -25.9362  -11.6483   20.5771 N   0  0  0  0  0  0
  -22.0500  -12.8252   22.0333 N   0  0  0  0  0  0
  -25.4300  -15.1850   20.3868 N   0  0  0  0  0  0
  -31.7557  -14.7296   20.0782 O   0  0  0  0  0  0
  -21.6670   -6.8868   21.4237 O   0  0  0  0  0  0
  -22.3543  -14.5503   20.6562 O   0  0  0  0  0  0
  -24.6132  -31.8680   23.2126 C   0  0  0  0  0  0
  -25.9036  -32.4830   23.8407 C   0  0  1  0  0  0
  -27.2483  -27.4595   20.0703 C   0  0  0  0  0  0
  -25.5890  -33.8625   24.2332 N   0  0  0  0  0  0
  -23.4001  -30.4888   21.5553 C   0  0  2  0  0  0
  -24.8464  -28.9587   20.1127 C   0  0  0  0  0  0
  -22.7405  -29.4635   22.5050 C   0  0  0  0  0  0
  -18.0255  -28.1369   22.8501 C   0  0  0  0  0  0
  -24.1479  -36.7316   23.2636 C   0  0  0  0  0  0
  -25.9266  -30.8367   21.3626 C   0  0  0  0  0  0
  -26.0043  -29.4722   20.7101 C   0  0  0  0  0  0
  -27.2023  -28.7237   20.6964 C   0  0  0  0  0  0
  -26.0654  -26.9450   19.4907 C   0  0  0  0  0  0
  -24.8712  -27.6916   19.5046 C   0  0  0  0  0  0
  -23.6054  -29.8219   20.1687 C   0  0  0  0  0  0
  -25.4104  -36.3110   24.0330 C   0  0  1  0  0  0
  -20.5845  -28.3628   23.1356 C   0  0  2  0  0  0
  -20.6750  -26.9372   22.5432 C   0  0  0  0  0  0
  -19.5729  -26.6378   21.5230 C   0  0  0  0  0  0
  -18.1903  -26.7920   22.1629 C   0  0  0  0  0  0
  -19.1505  -28.8831   23.2917 C   0  0  0  0  0  0
  -18.9431  -30.1447   23.8908 C   0  0  0  0  0  0
  -17.6434  -30.6578   24.0572 C   0  0  0  0  0  0
  -25.9034  -34.9478   23.5123 C   0  0  0  0  0  0
  -16.5329  -29.9076   23.6333 C   0  0  0  0  0  0
  -16.7249  -28.6501   23.0345 C   0  0  0  0  0  0
  -26.4467  -31.6610   25.0727 C   0  0  0  0  0  0
  -25.3753  -31.3710   26.1492 C   0  0  0  0  0  0
  -27.0281  -30.3057   24.6077 C   0  0  0  0  0  0
  -27.6043  -32.4333   25.7477 C   0  0  0  0  0  0
  -27.5578  -37.1812   24.8465 C   0  0  0  0  0  0
  -21.4139  -29.2994   22.3776 N   0  0  0  0  0  0
  -26.4293  -37.3798   23.9405 N   0  0  0  0  0  0
  -24.6654  -31.0784   22.1024 N   0  0  0  0  0  0
  -23.4191  -28.8168   23.3070 O   0  0  0  0  0  0
  -28.4291  -26.7498   20.0871 O   0  0  0  0  0  0
  -26.5592  -34.8922   22.4685 O   0  0  0  0  0  0
  -23.5333  -32.1425   23.7529 O   0  0  0  0  0  0
  -29.4360  -18.6032   22.2608 C   0  0  0  0  0  0
  -30.4375  -17.7246   21.7726 C   0  0  0  0  0  0
  -31.2193  -19.4334   20.4102 C   0  0  0  0  0  0
  -30.2442  -20.3221   20.9442 C   0  0  0  0  0  0
  -32.2626  -19.8900   19.4055 C   0  0  0  0  0  0
  -29.3096  -21.7642   18.1850 C   0  0  0  0  0  0
  -31.6884  -15.0299   24.3621 C   0  0  0  0  0  0
  -32.1419  -17.4801   24.1672 C   0  0  0  0  0  0
  -33.2002  -15.8710   22.5753 C   0  0  0  0  0  0
  -30.1730  -21.8189   20.6064 C   0  0  0  0  0  0
  -29.5359  -24.7455   19.2015 C   0  0  0  0  0  0
  -28.5601  -23.6707   19.7245 C   0  0  0  0  0  0
  -28.8413  -26.0881   18.8894 C   0  0  0  0  0  0
  -30.6500  -16.3437   22.4334 C   0  0  2  0  0  0
  -29.0251  -22.1921   19.6360 C   0  0  1  0  0  0
  -31.9106  -16.1834   23.3581 C   0  0  0  0  0  0
  -29.3339  -19.8901   21.8512 N   0  0  0  0  0  0
  -31.3070  -18.1346   20.8114 N   0  0  0  0  0  0
  -30.2196  -15.1441   21.7011 N   0  0  0  0  0  0
  -31.4783  -12.4530   19.1021 H   0  0  0  0  0  0
  -30.3513  -11.3071   19.7636 H   0  0  0  0  0  0
  -29.7462  -11.8775   17.3823 H   0  0  0  0  0  0
  -29.6506  -13.5677   17.8107 H   0  0  0  0  0  0
  -27.8385  -11.3281   18.7804 H   0  0  0  0  0  0
  -27.3756  -12.6829   17.7805 H   0  0  0  0  0  0
  -27.7258  -14.2592   19.6191 H   0  0  0  0  0  0
  -28.6845  -11.8850   21.2788 H   0  0  0  0  0  0
  -28.4376  -13.4758   21.9004 H   0  0  0  0  0  0
  -25.2800   -9.5641   22.4759 H   0  0  0  0  0  0
  -23.9981   -7.4632   22.7512 H   0  0  0  0  0  0
  -21.0833   -8.8739   19.8951 H   0  0  0  0  0  0
  -22.3707  -10.9647   19.6164 H   0  0  0  0  0  0
  -21.1977   -7.6133   23.9686 H   0  0  0  0  0  0
  -21.1521   -6.0527   25.9068 H   0  0  0  0  0  0
  -22.0604   -2.7607   23.2829 H   0  0  0  0  0  0
  -22.4098  -11.9932   22.4791 H   0  0  0  0  0  0
  -21.1116  -13.1313   22.2490 H   0  0  0  0  0  0
  -24.6510  -15.8329   20.4452 H   0  0  0  0  0  0
  -26.2639  -15.6010   19.9907 H   0  0  0  0  0  0
  -26.7103  -32.5543   23.1170 H   0  0  0  0  0  0
  -25.0066  -33.9801   25.0487 H   0  0  0  0  0  0
  -22.6869  -31.3040   21.4209 H   0  0  0  0  0  0
  -23.3744  -35.9652   23.3313 H   0  0  0  0  0  0
  -24.3574  -36.8924   22.2053 H   0  0  0  0  0  0
  -23.7236  -37.6517   23.6654 H   0  0  0  0  0  0
  -26.0315  -31.6041   20.5938 H   0  0  0  0  0  0
  -26.8173  -30.8940   21.9769 H   0  0  0  0  0  0
  -28.0978  -29.1188   21.1558 H   0  0  0  0  0  0
  -26.0503  -25.9617   19.0435 H   0  0  0  0  0  0
  -23.9771  -27.2850   19.0501 H   0  0  0  0  0  0
  -23.7035  -30.5989   19.4091 H   0  0  0  0  0  0
  -22.7308  -29.2378   19.8788 H   0  0  0  0  0  0
  -25.1289  -36.1976   25.0829 H   0  0  0  0  0  0
  -20.9918  -28.3174   24.1486 H   0  0  0  0  0  0
  -20.5676  -26.2224   23.3602 H   0  0  0  0  0  0
  -21.6614  -26.7438   22.1209 H   0  0  0  0  0  0
  -19.6878  -25.6296   21.1242 H   0  0  0  0  0  0
  -19.6674  -27.3211   20.6785 H   0  0  0  0  0  0
  -17.4176  -26.6694   21.4018 H   0  0  0  0  0  0
  -18.0272  -26.0062   22.9016 H   0  0  0  0  0  0
  -19.7902  -30.7274   24.2271 H   0  0  0  0  0  0
  -17.4976  -31.6260   24.5155 H   0  0  0  0  0  0
  -15.5325  -30.2972   23.7660 H   0  0  0  0  0  0
  -15.8649  -28.0838   22.7029 H   0  0  0  0  0  0
  -24.5861  -30.7139   25.7820 H   0  0  0  0  0  0
  -24.9030  -32.2877   26.5043 H   0  0  0  0  0  0
  -25.8111  -30.8777   27.0190 H   0  0  0  0  0  0
  -26.2798  -29.6826   24.1165 H   0  0  0  0  0  0
  -27.4093  -29.7285   25.4510 H   0  0  0  0  0  0
  -27.8621  -30.4380   23.9178 H   0  0  0  0  0  0
  -27.2660  -33.3627   26.2075 H   0  0  0  0  0  0
  -28.3835  -32.6917   25.0291 H   0  0  0  0  0  0
  -28.0734  -31.8457   26.5377 H   0  0  0  0  0  0
  -28.2603  -38.0100   24.7509 H   0  0  0  0  0  0
  -28.1061  -36.2634   24.6298 H   0  0  0  0  0  0
  -27.2292  -37.1477   25.8865 H   0  0  0  0  0  0
  -20.9298  -29.8726   21.7008 H   0  0  0  0  0  0
  -26.0179  -38.2870   24.1418 H   0  0  0  0  0  0
  -28.7419  -18.2880   23.0269 H   0  0  0  0  0  0
  -33.0722  -20.4201   19.9095 H   0  0  0  0  0  0
  -31.8245  -20.5638   18.6707 H   0  0  0  0  0  0
  -32.6982  -19.0521   18.8624 H   0  0  0  0  0  0
  -29.3999  -20.6821   18.1021 H   0  0  0  0  0  0
  -30.2336  -22.2029   17.8081 H   0  0  0  0  0  0
  -28.4995  -22.0671   17.5225 H   0  0  0  0  0  0
  -32.5700  -14.8697   24.9871 H   0  0  0  0  0  0
  -31.4776  -14.0839   23.8631 H   0  0  0  0  0  0
  -30.8502  -15.2276   25.0304 H   0  0  0  0  0  0
  -32.9492  -17.3658   24.8932 H   0  0  0  0  0  0
  -31.2452  -17.7695   24.7191 H   0  0  0  0  0  0
  -32.4084  -18.3176   23.5231 H   0  0  0  0  0  0
  -34.0775  -15.9351   23.2179 H   0  0  0  0  0  0
  -33.3434  -16.5678   21.7478 H   0  0  0  0  0  0
  -33.2036  -14.8612   22.1692 H   0  0  0  0  0  0
  -31.1280  -22.1872   20.2377 H   0  0  0  0  0  0
  -30.0245  -22.3430   21.5503 H   0  0  0  0  0  0
  -30.0036  -24.4050   18.2763 H   0  0  0  0  0  0
  -30.3540  -24.8969   19.9078 H   0  0  0  0  0  0
  -27.6321  -23.7536   19.1575 H   0  0  0  0  0  0
  -28.2895  -23.9123   20.7520 H   0  0  0  0  0  0
  -28.0407  -25.9251   18.1694 H   0  0  0  0  0  0
  -29.5499  -26.7460   18.3864 H   0  0  0  0  0  0
  -29.8458  -16.3525   23.1701 H   0  0  0  0  0  0
  -28.1573  -21.6192   19.9652 H   0  0  0  0  0  0
  -29.3930  -14.7205   22.0913 H   0  0  0  0  0  0
  1 25  1  0  0  0
  1 30  2  0  0  0
  1 89  1  0  0  0
  2  3  1  0  0  0
  2 25  1  0  0  0
  2 90  1  0  0  0
  2 91  1  0  0  0
  3  4  1  0  0  0
  3 92  1  0  0  0
  3 93  1  0  0  0
  4  5  1  0  0  0
  4 94  1  0  0  0
  4 95  1  0  0  0
  5  6  1  0  0  0
  5 26  1  0  0  0
  5 96  1  0  0  0
  6 25  1  0  0  0
  6 97  1  0  0  0
  6 98  1  0  0  0
  7  8  2  0  0  0
  7 26  1  0  0  0
  7 29  1  0  0  0
  8  9  1  0  0  0
  8 22  1  0  0  0
  9 10  1  0  0  0
  9 27  2  0  0  0
 10 11  2  0  0  0
 10 15  1  0  0  0
 11 12  1  0  0  0
 11 99  1  0  0  0
 12 13  2  0  0  0
 12100  1  0  0  0
 13 14  1  0  0  0
 13 31  1  0  0  0
 14 15  2  0  0  0
 14101  1  0  0  0
 15102  1  0  0  0
 16 17  2  0  0  0
 16 21  1  0  0  0
 16 31  1  0  0  0
 17 18  1  0  0  0
 17103  1  0  0  0
 18 19  2  0  0  0
 18104  1  0  0  0
 19 20  1  0  0  0
 19 24  1  0  0  0
 20 21  2  0  0  0
 20105  1  0  0  0
 21 23  1  0  0  0
 22 28  1  0  0  0
 22 32  2  0  0  0
 26 27  1  0  0  0
 28106  1  0  0  0
 28107  1  0  0  0
 29108  1  0  0  0
 29109  1  0  0  0
 33 34  1  0  0  0
 33 66  1  0  0  0
 33 70  2  0  0  0
 34 36  1  0  0  0
 34 59  1  0  0  0
 34110  1  0  0  0
 35 44  2  0  0  0
 35 45  1  0  0  0
 35 68  1  0  0  0
 36 56  1  0  0  0
 36111  1  0  0  0
 37 39  1  0  0  0
 37 47  1  0  0  0
 37 66  1  0  0  0
 37112  1  0  0  0
 38 43  2  0  0  0
 38 46  1  0  0  0
 38 47  1  0  0  0
 39 64  1  0  0  0
 39 67  2  0  0  0
 40 52  1  0  0  0
 40 53  2  0  0  0
 40 58  1  0  0  0
 41113  1  0  0  0
 41114  1  0  0  0
 41115  1  0  0  0
 41 48  1  0  0  0
 42 43  1  0  0  0
 42 66  1  0  0  0
 42116  1  0  0  0
 42117  1  0  0  0
 43 44  1  0  0  0
 44118  1  0  0  0
 45 46  2  0  0  0
 45119  1  0  0  0
 46120  1  0  0  0
 47121  1  0  0  0
 47122  1  0  0  0
 48 56  1  0  0  0
 48 65  1  0  0  0
 48123  1  0  0  0
 49 50  1  0  0  0
 49 53  1  0  0  0
 49 64  1  0  0  0
 49124  1  0  0  0
 50 51  1  0  0  0
 50125  1  0  0  0
 50126  1  0  0  0
 51 52  1  0  0  0
 51127  1  0  0  0
 51128  1  0  0  0
 52129  1  0  0  0
 52130  1  0  0  0
 53 54  1  0  0  0
 54 55  2  0  0  0
 54131  1  0  0  0
 55 57  1  0  0  0
 55132  1  0  0  0
 56 69  2  0  0  0
 57 58  2  0  0  0
 57133  1  0  0  0
 58134  1  0  0  0
 59 60  1  0  0  0
 59 61  1  0  0  0
 59 62  1  0  0  0
 60135  1  0  0  0
 60136  1  0  0  0
 60137  1  0  0  0
 61138  1  0  0  0
 61139  1  0  0  0
 61140  1  0  0  0
 62141  1  0  0  0
 62142  1  0  0  0
 62143  1  0  0  0
 63 65  1  0  0  0
 63144  1  0  0  0
 63145  1  0  0  0
 63146  1  0  0  0
 64147  1  0  0  0
 65148  1  0  0  0
 68 83  1  0  0  0
 71 72  2  0  0  0
 71 87  1  0  0  0
 71149  1  0  0  0
 72 84  1  0  0  0
 72 88  1  0  0  0
 73 74  1  0  0  0
 73 75  1  0  0  0
 73 88  2  0  0  0
 74 80  1  0  0  0
 74 87  2  0  0  0
 75150  1  0  0  0
 75151  1  0  0  0
 75152  1  0  0  0
 76153  1  0  0  0
 76154  1  0  0  0
 76155  1  0  0  0
 76 85  1  0  0  0
 77156  1  0  0  0
 77157  1  0  0  0
 77158  1  0  0  0
 77 86  1  0  0  0
 78 86  1  0  0  0
 78159  1  0  0  0
 78160  1  0  0  0
 78161  1  0  0  0
 79 86  1  0  0  0
 79162  1  0  0  0
 79163  1  0  0  0
 79164  1  0  0  0
 80 85  1  0  0  0
 80165  1  0  0  0
 80166  1  0  0  0
 81 82  1  0  0  0
 81 83  1  0  0  0
 81167  1  0  0  0
 81168  1  0  0  0
 82 85  1  0  0  0
 82169  1  0  0  0
 82170  1  0  0  0
 83171  1  0  0  0
 83172  1  0  0  0
 84 86  1  0  0  0
 84 89  1  0  0  0
 84173  1  0  0  0
 85174  1  0  0  0
 89175  1  0  0  0
M  ISO  4   1 100  68 101  83 101  89 100
M  END
> <chiral flag>
0

> <version>
0

> <s_m_source_file>
/data/baiqing/PycharmProjects/Reinvent-master-3.2/result/LINK_invent/BTK/process_docking_weight1_custom_sum_contain_oxygen_bond_distance_aromatic_linkinvent_7_9_3/rearranged_h_0071.sdf

> <i_m_source_file_index>
67

> <r_mmod_Potential_Energy-OPLS-2005>
-17.121114730835

> <r_mmod_Stretch_Energy-OPLS-2005>
42.8833847045898

> <r_mmod_Bend_Energy-OPLS-2005>
142.533142089844

> <r_mmod_Torsional_Energy-OPLS-2005>
212.397415161133

> <r_mmod_Improper_Torsional_Energy-OPLS-2005>
3.05009269714355

> <r_mmod_Van_der_Waal_Energy-OPLS-2005>
153.734359741211

> <r_mmod_Electrostatic_Energy-OPLS-2005>
-369.555908203125

> <r_mmod_Solvation_Energy-OPLS-2005>
-211.614120483398

> <b_mmod_Minimization_Converged-OPLS-2005>
0

> <r_mmod_RMS_Derivative-OPLS-2005>
4.13671445846558

$$$$
68
                    3D
 Structure written by MMmdl.
167175  0  0  1  0            999 V2000
  -30.8032  -14.3611   20.6383 C   0  0  0  0  0  0
  -30.3914  -12.2737   19.4031 C   0  0  0  0  0  0
  -29.4754  -12.5110   18.1910 C   0  0  0  0  0  0
  -28.0003  -12.3803   18.6086 C   0  0  0  0  0  0
  -27.6583  -13.2150   19.8725 C   0  0  2  0  0  0
  -28.6990  -12.9987   20.9941 C   0  0  0  0  0  0
  -25.2570  -13.8187   20.5699 C   0  0  0  0  0  0
  -24.1830  -13.0442   20.9162 C   0  0  0  0  0  0
  -24.6393  -11.6918   20.8726 C   0  0  0  0  0  0
  -23.9059  -10.4297   21.0393 C   0  0  0  0  0  0
  -24.3618   -9.4209   21.9174 C   0  0  0  0  0  0
  -23.6294   -8.2248   22.0754 C   0  0  0  0  0  0
  -22.4276   -8.0283   21.3545 C   0  0  0  0  0  0
  -21.9909   -9.0252   20.4647 C   0  0  0  0  0  0
  -22.7241  -10.2133   20.3047 C   0  0  0  0  0  0
  -21.6856   -6.0738   22.5274 C   0  0  0  0  0  0
  -21.4015   -6.5638   23.8215 C   0  0  0  0  0  0
  -21.3664   -5.6798   24.9172 C   0  0  0  0  0  0
  -21.6040   -4.3052   24.7229 C   0  0  0  0  0  0
  -21.8820   -3.8150   23.4350 C   0  0  0  0  0  0
  -21.9192   -4.6962   22.3406 C   0  0  0  0  0  0
  -22.7838  -13.5224   21.1832 C   0  0  0  0  0  0
  -22.1660   -4.2149   21.0981 F   0  0  0  0  0  0
  -21.5631   -3.4539   25.7738 F   0  0  0  0  0  0
  -30.0379  -13.2579   20.4391 N   0  0  0  0  0  0
  -26.3011  -12.9378   20.3362 N   0  0  0  0  0  0
  -25.9318  -11.6528   20.5755 N   0  0  0  0  0  0
  -22.0499  -12.8209   22.0402 N   0  0  0  0  0  0
  -25.4278  -15.1904   20.4130 N   0  0  0  0  0  0
  -31.8788  -14.5245   20.0623 O   0  0  0  0  0  0
  -21.6641   -6.8882   21.4248 O   0  0  0  0  0  0
  -22.3527  -14.5542   20.6708 O   0  0  0  0  0  0
  -24.6100  -31.8679   23.2156 C   0  0  0  0  0  0
  -25.8992  -32.4815   23.8451 C   0  0  1  0  0  0
  -27.2272  -27.4464   20.0716 C   0  0  0  0  0  0
  -25.5841  -33.8617   24.2354 N   0  0  0  0  0  0
  -23.3962  -30.4907   21.5600 C   0  0  2  0  0  0
  -24.8341  -28.9572   20.1210 C   0  0  0  0  0  0
  -22.7369  -29.4647   22.5090 C   0  0  0  0  0  0
  -18.0250  -28.1358   22.8495 C   0  0  0  0  0  0
  -24.1483  -36.7308   23.2646 C   0  0  0  0  0  0
  -25.9253  -30.8285   21.3716 C   0  0  0  0  0  0
  -25.9956  -29.4664   20.7155 C   0  0  0  0  0  0
  -27.1895  -28.7139   20.6935 C   0  0  0  0  0  0
  -26.0427  -26.9501   19.4748 C   0  0  0  0  0  0
  -24.8515  -27.6951   19.5052 C   0  0  0  0  0  0
  -23.5923  -29.8135   20.1788 C   0  0  0  0  0  0
  -25.4101  -36.3101   24.0358 C   0  0  1  0  0  0
  -20.5824  -28.3609   23.1350 C   0  0  2  0  0  0
  -20.6703  -26.9361   22.5403 C   0  0  0  0  0  0
  -19.5688  -26.6362   21.5177 C   0  0  0  0  0  0
  -18.1880  -26.7906   22.1606 C   0  0  0  0  0  0
  -19.1503  -28.8809   23.2912 C   0  0  0  0  0  0
  -18.9434  -30.1427   23.8906 C   0  0  0  0  0  0
  -17.6444  -30.6568   24.0553 C   0  0  0  0  0  0
  -25.9017  -34.9467   23.5156 C   0  0  0  0  0  0
  -16.5326  -29.9049   23.6362 C   0  0  0  0  0  0
  -16.7248  -28.6466   23.0376 C   0  0  0  0  0  0
  -26.4429  -31.6637   25.0809 C   0  0  0  0  0  0
  -25.3694  -31.3729   26.1566 C   0  0  0  0  0  0
  -27.0315  -30.3090   24.6246 C   0  0  0  0  0  0
  -27.6012  -32.4415   25.7511 C   0  0  0  0  0  0
  -27.5594  -37.1789   24.8475 C   0  0  0  0  0  0
  -21.4101  -29.2999   22.3811 N   0  0  0  0  0  0
  -26.4293  -37.3775   23.9441 N   0  0  0  0  0  0
  -24.6631  -31.0777   22.1058 N   0  0  0  0  0  0
  -23.4168  -28.8187   23.3114 O   0  0  0  0  0  0
  -28.4237  -26.7598   20.0739 O   0  0  0  0  0  0
  -26.5615  -34.8925   22.4738 O   0  0  0  0  0  0
  -23.5296  -32.1449   23.7551 O   0  0  0  0  0  0
  -28.0954  -19.8543   21.9276 C   0  0  0  0  0  0
  -28.9634  -20.0886   19.7016 C   0  0  0  0  0  0
  -28.1324  -20.5712   20.7205 C   0  0  0  0  0  0
  -28.9797  -18.7752   22.1284 C   0  0  0  0  0  0
  -29.9065  -18.4553   21.0938 C   0  0  0  0  0  0
  -28.9279  -18.0829   23.4811 C   0  0  0  0  0  0
  -32.1608  -18.6649   22.1079 C   0  0  0  0  0  0
  -31.9908  -17.4586   19.9742 C   0  0  0  0  0  0
  -27.3413  -21.8623   20.5626 C   0  0  0  0  0  0
  -28.1006  -22.9619   19.7850 C   0  0  0  0  0  0
  -27.8818  -24.3705   20.3601 C   0  0  0  0  0  0
  -31.1880  -16.3382   22.0932 C   0  0  0  0  0  0
  -28.5004  -25.4682   19.4709 C   0  0  0  0  0  0
  -31.2506  -17.7020   21.3180 C   0  0  0  0  0  0
  -29.8291  -19.0831   19.8948 N   0  0  0  0  0  0
  -30.3571  -15.2646   21.5211 N   0  0  0  0  0  0
  -31.4386  -12.3266   19.1003 H   0  0  0  0  0  0
  -30.2507  -11.2629   19.7912 H   0  0  0  0  0  0
  -29.7026  -11.7969   17.3985 H   0  0  0  0  0  0
  -29.6602  -13.5026   17.7746 H   0  0  0  0  0  0
  -27.8009  -11.3245   18.7958 H   0  0  0  0  0  0
  -27.3499  -12.6692   17.7816 H   0  0  0  0  0  0
  -27.7041  -14.2642   19.5783 H   0  0  0  0  0  0
  -28.6537  -11.9725   21.3603 H   0  0  0  0  0  0
  -28.4631  -13.6270   21.8527 H   0  0  0  0  0  0
  -25.2770   -9.5691   22.4742 H   0  0  0  0  0  0
  -24.0006   -7.4644   22.7477 H   0  0  0  0  0  0
  -21.0840   -8.8775   19.8951 H   0  0  0  0  0  0
  -22.3702  -10.9668   19.6154 H   0  0  0  0  0  0
  -21.2013   -7.6149   23.9712 H   0  0  0  0  0  0
  -21.1483   -6.0526   25.9075 H   0  0  0  0  0  0
  -22.0597   -2.7612   23.2847 H   0  0  0  0  0  0
  -22.4136  -11.9870   22.4780 H   0  0  0  0  0  0
  -21.1112  -13.1225   22.2611 H   0  0  0  0  0  0
  -24.6660  -15.8492   20.5323 H   0  0  0  0  0  0
  -26.2914  -15.6323   20.1250 H   0  0  0  0  0  0
  -26.7062  -32.5519   23.1212 H   0  0  0  0  0  0
  -24.9892  -33.9783   25.0435 H   0  0  0  0  0  0
  -22.6819  -31.3052   21.4218 H   0  0  0  0  0  0
  -23.3762  -35.9623   23.3295 H   0  0  0  0  0  0
  -24.3522  -36.8927   22.2052 H   0  0  0  0  0  0
  -23.7235  -37.6504   23.6675 H   0  0  0  0  0  0
  -26.0506  -31.5938   20.6057 H   0  0  0  0  0  0
  -26.8096  -30.8736   21.9964 H   0  0  0  0  0  0
  -28.0872  -29.1018   21.1538 H   0  0  0  0  0  0
  -26.0085  -25.9911   18.9811 H   0  0  0  0  0  0
  -23.9573  -27.2931   19.0485 H   0  0  0  0  0  0
  -23.6692  -30.5730   19.4011 H   0  0  0  0  0  0
  -22.7209  -29.2098   19.9170 H   0  0  0  0  0  0
  -25.1283  -36.1949   25.0854 H   0  0  0  0  0  0
  -20.9922  -28.3125   24.1466 H   0  0  0  0  0  0
  -20.5536  -26.2226   23.3574 H   0  0  0  0  0  0
  -21.6584  -26.7337   22.1264 H   0  0  0  0  0  0
  -19.6830  -25.6259   21.1226 H   0  0  0  0  0  0
  -19.6637  -27.3142   20.6684 H   0  0  0  0  0  0
  -17.4139  -26.6647   21.4022 H   0  0  0  0  0  0
  -18.0305  -26.0055   22.9022 H   0  0  0  0  0  0
  -19.7915  -30.7239   24.2268 H   0  0  0  0  0  0
  -17.4997  -31.6258   24.5100 H   0  0  0  0  0  0
  -15.5322  -30.2938   23.7694 H   0  0  0  0  0  0
  -15.8642  -28.0763   22.7128 H   0  0  0  0  0  0
  -24.5826  -30.7129   25.7901 H   0  0  0  0  0  0
  -24.8930  -32.2873   26.5116 H   0  0  0  0  0  0
  -25.8035  -30.8811   27.0286 H   0  0  0  0  0  0
  -26.2915  -29.6776   24.1323 H   0  0  0  0  0  0
  -27.4103  -29.7385   25.4741 H   0  0  0  0  0  0
  -27.8724  -30.4451   23.9442 H   0  0  0  0  0  0
  -27.2650  -33.3730   26.2088 H   0  0  0  0  0  0
  -28.3755  -32.6975   25.0264 H   0  0  0  0  0  0
  -28.0775  -31.8583   26.5395 H   0  0  0  0  0  0
  -28.2618  -38.0079   24.7531 H   0  0  0  0  0  0
  -28.1098  -36.2624   24.6311 H   0  0  0  0  0  0
  -27.2317  -37.1437   25.8872 H   0  0  0  0  0  0
  -20.9275  -29.8739   21.7041 H   0  0  0  0  0  0
  -26.0189  -38.2865   24.1409 H   0  0  0  0  0  0
  -27.4371  -20.1788   22.7203 H   0  0  0  0  0  0
  -29.0111  -20.5712   18.7372 H   0  0  0  0  0  0
  -28.0979  -18.4561   24.0836 H   0  0  0  0  0  0
  -29.8364  -18.2520   24.0567 H   0  0  0  0  0  0
  -28.7613  -17.0122   23.3650 H   0  0  0  0  0  0
  -32.2650  -19.6147   21.5804 H   0  0  0  0  0  0
  -33.1613  -18.2574   22.2482 H   0  0  0  0  0  0
  -31.7583  -18.8931   23.0927 H   0  0  0  0  0  0
  -32.2729  -18.3889   19.4792 H   0  0  0  0  0  0
  -31.3775  -16.9004   19.2665 H   0  0  0  0  0  0
  -32.9205  -16.9088   20.1295 H   0  0  0  0  0  0
  -27.1231  -22.2338   21.5655 H   0  0  0  0  0  0
  -26.3764  -21.6578   20.0956 H   0  0  0  0  0  0
  -27.8168  -22.9244   18.7315 H   0  0  0  0  0  0
  -29.1761  -22.7797   19.8115 H   0  0  0  0  0  0
  -28.3314  -24.4259   21.3525 H   0  0  0  0  0  0
  -26.8154  -24.5418   20.5043 H   0  0  0  0  0  0
  -30.8969  -16.4786   23.1304 H   0  0  0  0  0  0
  -32.2074  -15.9562   22.1910 H   0  0  0  0  0  0
  -28.0717  -25.4635   18.4679 H   0  0  0  0  0  0
  -29.5594  -25.2485   19.3288 H   0  0  0  0  0  0
  -29.4533  -15.0976   21.9364 H   0  0  0  0  0  0
  1 25  1  0  0  0
  1 30  2  0  0  0
  1 86  1  0  0  0
  2  3  1  0  0  0
  2 25  1  0  0  0
  2 87  1  0  0  0
  2 88  1  0  0  0
  3  4  1  0  0  0
  3 89  1  0  0  0
  3 90  1  0  0  0
  4  5  1  0  0  0
  4 91  1  0  0  0
  4 92  1  0  0  0
  5  6  1  0  0  0
  5 26  1  0  0  0
  5 93  1  0  0  0
  6 25  1  0  0  0
  6 94  1  0  0  0
  6 95  1  0  0  0
  7  8  2  0  0  0
  7 26  1  0  0  0
  7 29  1  0  0  0
  8  9  1  0  0  0
  8 22  1  0  0  0
  9 10  1  0  0  0
  9 27  2  0  0  0
 10 11  2  0  0  0
 10 15  1  0  0  0
 11 12  1  0  0  0
 11 96  1  0  0  0
 12 13  2  0  0  0
 12 97  1  0  0  0
 13 14  1  0  0  0
 13 31  1  0  0  0
 14 15  2  0  0  0
 14 98  1  0  0  0
 15 99  1  0  0  0
 16 17  2  0  0  0
 16 21  1  0  0  0
 16 31  1  0  0  0
 17 18  1  0  0  0
 17100  1  0  0  0
 18 19  2  0  0  0
 18101  1  0  0  0
 19 20  1  0  0  0
 19 24  1  0  0  0
 20 21  2  0  0  0
 20102  1  0  0  0
 21 23  1  0  0  0
 22 28  1  0  0  0
 22 32  2  0  0  0
 26 27  1  0  0  0
 28103  1  0  0  0
 28104  1  0  0  0
 29105  1  0  0  0
 29106  1  0  0  0
 33 34  1  0  0  0
 33 66  1  0  0  0
 33 70  2  0  0  0
 34 36  1  0  0  0
 34 59  1  0  0  0
 34107  1  0  0  0
 35 44  2  0  0  0
 35 45  1  0  0  0
 35 68  1  0  0  0
 36 56  1  0  0  0
 36108  1  0  0  0
 37 39  1  0  0  0
 37 47  1  0  0  0
 37 66  1  0  0  0
 37109  1  0  0  0
 38 43  2  0  0  0
 38 46  1  0  0  0
 38 47  1  0  0  0
 39 64  1  0  0  0
 39 67  2  0  0  0
 40 52  1  0  0  0
 40 53  2  0  0  0
 40 58  1  0  0  0
 41110  1  0  0  0
 41111  1  0  0  0
 41112  1  0  0  0
 41 48  1  0  0  0
 42 43  1  0  0  0
 42 66  1  0  0  0
 42113  1  0  0  0
 42114  1  0  0  0
 43 44  1  0  0  0
 44115  1  0  0  0
 45 46  2  0  0  0
 45116  1  0  0  0
 46117  1  0  0  0
 47118  1  0  0  0
 47119  1  0  0  0
 48 56  1  0  0  0
 48 65  1  0  0  0
 48120  1  0  0  0
 49 50  1  0  0  0
 49 53  1  0  0  0
 49 64  1  0  0  0
 49121  1  0  0  0
 50 51  1  0  0  0
 50122  1  0  0  0
 50123  1  0  0  0
 51 52  1  0  0  0
 51124  1  0  0  0
 51125  1  0  0  0
 52126  1  0  0  0
 52127  1  0  0  0
 53 54  1  0  0  0
 54 55  2  0  0  0
 54128  1  0  0  0
 55 57  1  0  0  0
 55129  1  0  0  0
 56 69  2  0  0  0
 57 58  2  0  0  0
 57130  1  0  0  0
 58131  1  0  0  0
 59 60  1  0  0  0
 59 61  1  0  0  0
 59 62  1  0  0  0
 60132  1  0  0  0
 60133  1  0  0  0
 60134  1  0  0  0
 61135  1  0  0  0
 61136  1  0  0  0
 61137  1  0  0  0
 62138  1  0  0  0
 62139  1  0  0  0
 62140  1  0  0  0
 63 65  1  0  0  0
 63141  1  0  0  0
 63142  1  0  0  0
 63143  1  0  0  0
 64144  1  0  0  0
 65145  1  0  0  0
 68 83  1  0  0  0
 71 73  2  0  0  0
 71 74  1  0  0  0
 71146  1  0  0  0
 72 73  1  0  0  0
 72 85  2  0  0  0
 72147  1  0  0  0
 73 79  1  0  0  0
 74 75  2  0  0  0
 74 76  1  0  0  0
 75 84  1  0  0  0
 75 85  1  0  0  0
 76148  1  0  0  0
 76149  1  0  0  0
 76150  1  0  0  0
 77151  1  0  0  0
 77152  1  0  0  0
 77153  1  0  0  0
 77 84  1  0  0  0
 78 84  1  0  0  0
 78154  1  0  0  0
 78155  1  0  0  0
 78156  1  0  0  0
 79 80  1  0  0  0
 79157  1  0  0  0
 79158  1  0  0  0
 80 81  1  0  0  0
 80159  1  0  0  0
 80160  1  0  0  0
 81 83  1  0  0  0
 81161  1  0  0  0
 81162  1  0  0  0
 82 84  1  0  0  0
 82 86  1  0  0  0
 82163  1  0  0  0
 82164  1  0  0  0
 83165  1  0  0  0
 83166  1  0  0  0
 86167  1  0  0  0
M  ISO  4   1 100  68 101  83 101  86 100
M  END
> <chiral flag>
0

> <version>
0

> <s_m_source_file>
/data/baiqing/PycharmProjects/Reinvent-master-3.2/result/LINK_invent/BTK/process_docking_weight1_custom_sum_contain_oxygen_bond_distance_aromatic_linkinvent_7_9_3/rearranged_h_0071.sdf

> <i_m_source_file_index>
68

> <r_mmod_Potential_Energy-OPLS-2005>
-188.54280090332

> <r_mmod_Stretch_Energy-OPLS-2005>
38.5926856994629

> <r_mmod_Bend_Energy-OPLS-2005>
121.783638000488

> <r_mmod_Torsional_Energy-OPLS-2005>
218.257125854492

> <r_mmod_Improper_Torsional_Energy-OPLS-2005>
4.48611402511597

> <r_mmod_Van_der_Waal_Energy-OPLS-2005>
180.558319091797

> <r_mmod_Electrostatic_Energy-OPLS-2005>
-554.951843261719

> <r_mmod_Solvation_Energy-OPLS-2005>
-209.225936889648

> <b_mmod_Minimization_Converged-OPLS-2005>
0

> <r_mmod_RMS_Derivative-OPLS-2005>
3.14057493209839

$$$$
69
                    3D
 Structure written by MMmdl.
171179  0  0  1  0            999 V2000
  -30.5932  -14.7257   20.4859 C   0  0  0  0  0  0
  -30.4300  -12.4432   19.4633 C   0  0  0  0  0  0
  -29.5009  -12.5040   18.2294 C   0  0  0  0  0  0
  -28.0262  -12.3337   18.6444 C   0  0  0  0  0  0
  -27.6414  -13.2246   19.8549 C   0  0  2  0  0  0
  -28.6875  -13.1266   20.9861 C   0  0  0  0  0  0
  -25.2501  -13.8186   20.5677 C   0  0  0  0  0  0
  -24.1797  -13.0443   20.9208 C   0  0  0  0  0  0
  -24.6389  -11.6916   20.8779 C   0  0  0  0  0  0
  -23.9082  -10.4292   21.0432 C   0  0  0  0  0  0
  -24.3627   -9.4190   21.9193 C   0  0  0  0  0  0
  -23.6292   -8.2233   22.0756 C   0  0  0  0  0  0
  -22.4273   -8.0283   21.3551 C   0  0  0  0  0  0
  -21.9925   -9.0259   20.4645 C   0  0  0  0  0  0
  -22.7264  -10.2138   20.3062 C   0  0  0  0  0  0
  -21.6847   -6.0738   22.5285 C   0  0  0  0  0  0
  -21.4007   -6.5645   23.8217 C   0  0  0  0  0  0
  -21.3658   -5.6798   24.9178 C   0  0  0  0  0  0
  -21.6046   -4.3058   24.7236 C   0  0  0  0  0  0
  -21.8817   -3.8150   23.4351 C   0  0  0  0  0  0
  -21.9187   -4.6966   22.3400 C   0  0  0  0  0  0
  -22.7816  -13.5211   21.1867 C   0  0  0  0  0  0
  -22.1658   -4.2148   21.0982 F   0  0  0  0  0  0
  -21.5629   -3.4538   25.7743 F   0  0  0  0  0  0
  -29.9864  -13.4918   20.4090 N   0  0  0  0  0  0
  -26.2933  -12.9389   20.3304 N   0  0  0  0  0  0
  -25.9320  -11.6547   20.5791 N   0  0  0  0  0  0
  -22.0487  -12.8207   22.0433 N   0  0  0  0  0  0
  -25.4190  -15.1909   20.4028 N   0  0  0  0  0  0
  -31.7849  -14.8376   20.1712 O   0  0  0  0  0  0
  -21.6636   -6.8879   21.4246 O   0  0  0  0  0  0
  -22.3508  -14.5520   20.6705 O   0  0  0  0  0  0
  -24.6308  -31.8554   23.1984 C   0  0  0  0  0  0
  -25.9148  -32.4725   23.8337 C   0  0  1  0  0  0
  -27.2006  -27.2680   20.1288 C   0  0  0  0  0  0
  -25.5955  -33.8530   24.2231 N   0  0  0  0  0  0
  -23.4248  -30.4804   21.5410 C   0  0  2  0  0  0
  -24.8655  -28.9353   20.1022 C   0  0  0  0  0  0
  -22.7510  -29.4575   22.4891 C   0  0  0  0  0  0
  -18.0291  -28.1374   22.8429 C   0  0  0  0  0  0
  -24.1475  -36.7274   23.2640 C   0  0  0  0  0  0
  -25.9697  -30.7705   21.3789 C   0  0  0  0  0  0
  -26.0383  -29.3976   20.7144 C   0  0  0  0  0  0
  -27.2126  -28.5771   20.7126 C   0  0  0  0  0  0
  -26.0045  -26.8720   19.4861 C   0  0  0  0  0  0
  -24.8543  -27.6814   19.4756 C   0  0  0  0  0  0
  -23.6393  -29.8247   20.1530 C   0  0  0  0  0  0
  -25.4095  -36.3031   24.0298 C   0  0  1  0  0  0
  -20.5879  -28.3688   23.1229 C   0  0  2  0  0  0
  -20.6776  -26.9399   22.5384 C   0  0  0  0  0  0
  -19.5762  -26.6352   21.5174 C   0  0  0  0  0  0
  -18.1933  -26.7913   22.1583 C   0  0  0  0  0  0
  -19.1535  -28.8846   23.2828 C   0  0  0  0  0  0
  -18.9486  -30.1456   23.8831 C   0  0  0  0  0  0
  -17.6494  -30.6589   24.0531 C   0  0  0  0  0  0
  -25.9058  -34.9417   23.5060 C   0  0  0  0  0  0
  -16.5373  -29.9075   23.6337 C   0  0  0  0  0  0
  -16.7279  -28.6504   23.0306 C   0  0  0  0  0  0
  -26.4500  -31.6586   25.0750 C   0  0  0  0  0  0
  -25.3723  -31.3756   26.1479 C   0  0  0  0  0  0
  -27.0386  -30.3005   24.6279 C   0  0  0  0  0  0
  -27.6019  -32.4376   25.7515 C   0  0  0  0  0  0
  -27.5558  -37.1783   24.8450 C   0  0  0  0  0  0
  -21.4217  -29.3036   22.3641 N   0  0  0  0  0  0
  -26.4257  -37.3740   23.9393 N   0  0  0  0  0  0
  -24.6938  -31.0538   22.0957 N   0  0  0  0  0  0
  -23.4199  -28.8110   23.2989 O   0  0  0  0  0  0
  -28.2869  -26.3716   20.1990 O   0  0  0  0  0  0
  -26.5653  -34.8909   22.4645 O   0  0  0  0  0  0
  -23.5457  -32.1396   23.7284 O   0  0  0  0  0  0
  -29.0760  -18.3356   20.4133 C   0  0  0  0  0  0
  -29.7343  -19.5690   20.5094 C   0  0  0  0  0  0
  -30.0202  -17.2780   20.7238 C   0  0  0  0  0  0
  -28.1844  -20.8370   18.9380 C   0  0  0  0  0  0
  -29.9205  -24.4408   21.7905 C   0  0  0  0  0  0
  -30.1277  -23.9707   19.3307 C   0  0  0  0  0  0
  -31.9282  -21.3493   21.8663 C   0  0  0  0  0  0
  -32.9755  -20.1885   19.8870 C   0  0  0  0  0  0
  -33.2147  -19.2736   22.1979 C   0  0  0  0  0  0
  -28.8534  -22.2813   20.8998 C   0  0  0  0  0  0
  -27.9966  -24.8988   20.2810 C   0  0  0  0  0  0
  -29.3064  -21.0149   19.9733 C   0  0  1  0  0  0
  -29.1998  -23.8585   20.5545 C   0  0  0  0  0  0
  -32.2426  -19.9915   21.2264 C   0  0  0  0  0  0
  -31.1589  -17.8327   21.0816 N   0  0  0  0  0  0
  -31.0126  -19.1978   20.9950 N   0  0  0  0  0  0
  -29.7652  -15.8234   20.6811 N   0  0  0  0  0  0
  -31.4700  -12.5745   19.1592 H   0  0  0  0  0  0
  -30.3770  -11.4604   19.9362 H   0  0  0  0  0  0
  -29.7744  -11.7323   17.5090 H   0  0  0  0  0  0
  -29.6281  -13.4597   17.7186 H   0  0  0  0  0  0
  -27.8730  -11.2832   18.8967 H   0  0  0  0  0  0
  -27.3670  -12.5397   17.7993 H   0  0  0  0  0  0
  -27.6417  -14.2499   19.4841 H   0  0  0  0  0  0
  -28.7238  -12.1139   21.3905 H   0  0  0  0  0  0
  -28.4276  -13.7783   21.8219 H   0  0  0  0  0  0
  -25.2771   -9.5654   22.4770 H   0  0  0  0  0  0
  -23.9991   -7.4622   22.7482 H   0  0  0  0  0  0
  -21.0849   -8.8791   19.8943 H   0  0  0  0  0  0
  -22.3730  -10.9681   19.6171 H   0  0  0  0  0  0
  -21.2004   -7.6150   23.9719 H   0  0  0  0  0  0
  -21.1482   -6.0528   25.9083 H   0  0  0  0  0  0
  -22.0599   -2.7609   23.2856 H   0  0  0  0  0  0
  -22.4116  -11.9861   22.4792 H   0  0  0  0  0  0
  -21.1115  -13.1235   22.2673 H   0  0  0  0  0  0
  -24.6422  -15.8382   20.4841 H   0  0  0  0  0  0
  -26.2531  -15.6256   20.0328 H   0  0  0  0  0  0
  -26.7218  -32.5362   23.1088 H   0  0  0  0  0  0
  -25.0071  -33.9654   25.0348 H   0  0  0  0  0  0
  -22.7209  -31.3036   21.4018 H   0  0  0  0  0  0
  -23.3733  -35.9619   23.3290 H   0  0  0  0  0  0
  -24.3598  -36.8933   22.2070 H   0  0  0  0  0  0
  -23.7252  -37.6465   23.6719 H   0  0  0  0  0  0
  -26.1232  -31.5386   20.6190 H   0  0  0  0  0  0
  -26.8400  -30.8012   22.0218 H   0  0  0  0  0  0
  -28.1118  -28.9244   21.2019 H   0  0  0  0  0  0
  -25.9230  -25.9158   18.9925 H   0  0  0  0  0  0
  -23.9558  -27.3241   18.9893 H   0  0  0  0  0  0
  -23.7718  -30.6074   19.4049 H   0  0  0  0  0  0
  -22.7553  -29.2654   19.8433 H   0  0  0  0  0  0
  -25.1292  -36.1868   25.0792 H   0  0  0  0  0  0
  -20.9951  -28.3275   24.1349 H   0  0  0  0  0  0
  -20.5629  -26.2308   23.3598 H   0  0  0  0  0  0
  -21.6654  -26.7406   22.1198 H   0  0  0  0  0  0
  -19.6919  -25.6246   21.1241 H   0  0  0  0  0  0
  -19.6693  -27.3126   20.6668 H   0  0  0  0  0  0
  -17.4187  -26.6593   21.4013 H   0  0  0  0  0  0
  -18.0378  -26.0086   22.9015 H   0  0  0  0  0  0
  -19.7981  -30.7262   24.2150 H   0  0  0  0  0  0
  -17.5068  -31.6253   24.5179 H   0  0  0  0  0  0
  -15.5373  -30.2952   23.7733 H   0  0  0  0  0  0
  -15.8675  -28.0853   22.6986 H   0  0  0  0  0  0
  -24.5854  -30.7144   25.7828 H   0  0  0  0  0  0
  -24.8965  -32.2950   26.4937 H   0  0  0  0  0  0
  -25.8046  -30.8924   27.0255 H   0  0  0  0  0  0
  -26.3013  -29.6715   24.1289 H   0  0  0  0  0  0
  -27.4043  -29.7315   25.4840 H   0  0  0  0  0  0
  -27.8888  -30.4261   23.9559 H   0  0  0  0  0  0
  -27.2587  -33.3685   26.2059 H   0  0  0  0  0  0
  -28.3851  -32.6962   25.0365 H   0  0  0  0  0  0
  -28.0688  -31.8564   26.5478 H   0  0  0  0  0  0
  -28.2535  -38.0116   24.7555 H   0  0  0  0  0  0
  -28.1109  -36.2669   24.6220 H   0  0  0  0  0  0
  -27.2327  -37.1350   25.8864 H   0  0  0  0  0  0
  -20.9414  -29.8805   21.6895 H   0  0  0  0  0  0
  -26.0136  -38.2793   24.1480 H   0  0  0  0  0  0
  -28.0608  -18.2027   20.0664 H   0  0  0  0  0  0
  -28.4784  -20.1424   18.1487 H   0  0  0  0  0  0
  -27.9169  -21.7849   18.4694 H   0  0  0  0  0  0
  -27.2843  -20.4408   19.4114 H   0  0  0  0  0  0
  -30.7953  -23.8677   22.0858 H   0  0  0  0  0  0
  -29.2513  -24.4768   22.6515 H   0  0  0  0  0  0
  -30.2679  -25.4575   21.6095 H   0  0  0  0  0  0
  -31.0828  -23.4686   19.4789 H   0  0  0  0  0  0
  -30.3483  -25.0158   19.1058 H   0  0  0  0  0  0
  -29.6559  -23.5508   18.4393 H   0  0  0  0  0  0
  -32.8256  -21.8547   22.2255 H   0  0  0  0  0  0
  -31.2504  -21.2468   22.7142 H   0  0  0  0  0  0
  -31.4892  -22.0153   21.1357 H   0  0  0  0  0  0
  -33.8390  -20.8451   19.9998 H   0  0  0  0  0  0
  -32.3327  -20.6261   19.1242 H   0  0  0  0  0  0
  -33.3369  -19.2355   19.4977 H   0  0  0  0  0  0
  -34.1094  -19.8706   22.3765 H   0  0  0  0  0  0
  -33.5604  -18.3157   21.8061 H   0  0  0  0  0  0
  -32.7499  -19.0876   23.1666 H   0  0  0  0  0  0
  -29.2355  -22.0766   21.8986 H   0  0  0  0  0  0
  -27.7762  -22.2158   21.0628 H   0  0  0  0  0  0
  -27.2487  -24.7565   21.0628 H   0  0  0  0  0  0
  -27.5231  -24.5865   19.3497 H   0  0  0  0  0  0
  -30.1658  -21.3544   19.4019 H   0  0  0  0  0  0
  -28.7931  -15.5730   20.7682 H   0  0  0  0  0  0
  1 25  1  0  0  0
  1 30  2  0  0  0
  1 87  1  0  0  0
  2  3  1  0  0  0
  2 25  1  0  0  0
  2 88  1  0  0  0
  2 89  1  0  0  0
  3  4  1  0  0  0
  3 90  1  0  0  0
  3 91  1  0  0  0
  4  5  1  0  0  0
  4 92  1  0  0  0
  4 93  1  0  0  0
  5  6  1  0  0  0
  5 26  1  0  0  0
  5 94  1  0  0  0
  6 25  1  0  0  0
  6 95  1  0  0  0
  6 96  1  0  0  0
  7  8  2  0  0  0
  7 26  1  0  0  0
  7 29  1  0  0  0
  8  9  1  0  0  0
  8 22  1  0  0  0
  9 10  1  0  0  0
  9 27  2  0  0  0
 10 11  2  0  0  0
 10 15  1  0  0  0
 11 12  1  0  0  0
 11 97  1  0  0  0
 12 13  2  0  0  0
 12 98  1  0  0  0
 13 14  1  0  0  0
 13 31  1  0  0  0
 14 15  2  0  0  0
 14 99  1  0  0  0
 15100  1  0  0  0
 16 17  2  0  0  0
 16 21  1  0  0  0
 16 31  1  0  0  0
 17 18  1  0  0  0
 17101  1  0  0  0
 18 19  2  0  0  0
 18102  1  0  0  0
 19 20  1  0  0  0
 19 24  1  0  0  0
 20 21  2  0  0  0
 20103  1  0  0  0
 21 23  1  0  0  0
 22 28  1  0  0  0
 22 32  2  0  0  0
 26 27  1  0  0  0
 28104  1  0  0  0
 28105  1  0  0  0
 29106  1  0  0  0
 29107  1  0  0  0
 33 34  1  0  0  0
 33 66  1  0  0  0
 33 70  2  0  0  0
 34 36  1  0  0  0
 34 59  1  0  0  0
 34108  1  0  0  0
 35 44  2  0  0  0
 35 45  1  0  0  0
 35 68  1  0  0  0
 36 56  1  0  0  0
 36109  1  0  0  0
 37 39  1  0  0  0
 37 47  1  0  0  0
 37 66  1  0  0  0
 37110  1  0  0  0
 38 43  2  0  0  0
 38 46  1  0  0  0
 38 47  1  0  0  0
 39 64  1  0  0  0
 39 67  2  0  0  0
 40 52  1  0  0  0
 40 53  2  0  0  0
 40 58  1  0  0  0
 41111  1  0  0  0
 41112  1  0  0  0
 41113  1  0  0  0
 41 48  1  0  0  0
 42 43  1  0  0  0
 42 66  1  0  0  0
 42114  1  0  0  0
 42115  1  0  0  0
 43 44  1  0  0  0
 44116  1  0  0  0
 45 46  2  0  0  0
 45117  1  0  0  0
 46118  1  0  0  0
 47119  1  0  0  0
 47120  1  0  0  0
 48 56  1  0  0  0
 48 65  1  0  0  0
 48121  1  0  0  0
 49 50  1  0  0  0
 49 53  1  0  0  0
 49 64  1  0  0  0
 49122  1  0  0  0
 50 51  1  0  0  0
 50123  1  0  0  0
 50124  1  0  0  0
 51 52  1  0  0  0
 51125  1  0  0  0
 51126  1  0  0  0
 52127  1  0  0  0
 52128  1  0  0  0
 53 54  1  0  0  0
 54 55  2  0  0  0
 54129  1  0  0  0
 55 57  1  0  0  0
 55130  1  0  0  0
 56 69  2  0  0  0
 57 58  2  0  0  0
 57131  1  0  0  0
 58132  1  0  0  0
 59 60  1  0  0  0
 59 61  1  0  0  0
 59 62  1  0  0  0
 60133  1  0  0  0
 60134  1  0  0  0
 60135  1  0  0  0
 61136  1  0  0  0
 61137  1  0  0  0
 61138  1  0  0  0
 62139  1  0  0  0
 62140  1  0  0  0
 62141  1  0  0  0
 63 65  1  0  0  0
 63142  1  0  0  0
 63143  1  0  0  0
 63144  1  0  0  0
 64145  1  0  0  0
 65146  1  0  0  0
 68 81  1  0  0  0
 71 72  2  0  0  0
 71 73  1  0  0  0
 71147  1  0  0  0
 72 82  1  0  0  0
 72 86  1  0  0  0
 73 85  2  0  0  0
 73 87  1  0  0  0
 74148  1  0  0  0
 74149  1  0  0  0
 74150  1  0  0  0
 74 82  1  0  0  0
 75151  1  0  0  0
 75152  1  0  0  0
 75153  1  0  0  0
 75 83  1  0  0  0
 76 83  1  0  0  0
 76154  1  0  0  0
 76155  1  0  0  0
 76156  1  0  0  0
 77157  1  0  0  0
 77158  1  0  0  0
 77159  1  0  0  0
 77 84  1  0  0  0
 78 84  1  0  0  0
 78160  1  0  0  0
 78161  1  0  0  0
 78162  1  0  0  0
 79 84  1  0  0  0
 79163  1  0  0  0
 79164  1  0  0  0
 79165  1  0  0  0
 80 82  1  0  0  0
 80 83  1  0  0  0
 80166  1  0  0  0
 80167  1  0  0  0
 81 83  1  0  0  0
 81168  1  0  0  0
 81169  1  0  0  0
 82170  1  0  0  0
 84 86  1  0  0  0
 85 86  1  0  0  0
 87171  1  0  0  0
M  ISO  4   1 100  68 101  81 101  87 100
M  END
> <chiral flag>
0

> <version>
0

> <s_m_source_file>
/data/baiqing/PycharmProjects/Reinvent-master-3.2/result/LINK_invent/BTK/process_docking_weight1_custom_sum_contain_oxygen_bond_distance_aromatic_linkinvent_7_9_3/rearranged_h_0071.sdf

> <i_m_source_file_index>
69

> <r_mmod_Potential_Energy-OPLS-2005>
194.050308227539

> <r_mmod_Stretch_Energy-OPLS-2005>
130.347991943359

> <r_mmod_Bend_Energy-OPLS-2005>
192.896087646484

> <r_mmod_Torsional_Energy-OPLS-2005>
284.798736572266

> <r_mmod_Improper_Torsional_Energy-OPLS-2005>
7.58081293106079

> <r_mmod_Van_der_Waal_Energy-OPLS-2005>
130.258697509766

> <r_mmod_Electrostatic_Energy-OPLS-2005>
-419.005310058594

> <r_mmod_Solvation_Energy-OPLS-2005>
-213.187561035156

> <b_mmod_Minimization_Converged-OPLS-2005>
0

> <r_mmod_RMS_Derivative-OPLS-2005>
3.67007923126221

$$$$
71
                    3D
 Structure written by MMmdl.
160168  0  0  1  0            999 V2000
  -30.6147  -14.7233   20.5098 C   0  0  0  0  0  0
  -30.4280  -12.4482   19.4627 C   0  0  0  0  0  0
  -29.5025  -12.5173   18.2250 C   0  0  0  0  0  0
  -28.0246  -12.3383   18.6305 C   0  0  0  0  0  0
  -27.6417  -13.2152   19.8505 C   0  0  2  0  0  0
  -28.6873  -13.0635   20.9744 C   0  0  0  0  0  0
  -25.2459  -13.8139   20.5598 C   0  0  0  0  0  0
  -24.1763  -13.0390   20.9201 C   0  0  0  0  0  0
  -24.6383  -11.6889   20.8792 C   0  0  0  0  0  0
  -23.9060  -10.4275   21.0458 C   0  0  0  0  0  0
  -24.3609   -9.4188   21.9231 C   0  0  0  0  0  0
  -23.6283   -8.2221   22.0766 C   0  0  0  0  0  0
  -22.4276   -8.0266   21.3541 C   0  0  0  0  0  0
  -21.9914   -9.0249   20.4656 C   0  0  0  0  0  0
  -22.7243  -10.2131   20.3091 C   0  0  0  0  0  0
  -21.6844   -6.0727   22.5261 C   0  0  0  0  0  0
  -21.4006   -6.5640   23.8192 C   0  0  0  0  0  0
  -21.3661   -5.6801   24.9158 C   0  0  0  0  0  0
  -21.6049   -4.3063   24.7216 C   0  0  0  0  0  0
  -21.8820   -3.8144   23.4340 C   0  0  0  0  0  0
  -21.9186   -4.6952   22.3391 C   0  0  0  0  0  0
  -22.7794  -13.5185   21.1861 C   0  0  0  0  0  0
  -22.1657   -4.2138   21.0970 F   0  0  0  0  0  0
  -21.5640   -3.4552   25.7735 F   0  0  0  0  0  0
  -29.9831  -13.4902   20.4290 N   0  0  0  0  0  0
  -26.2908  -12.9341   20.3254 N   0  0  0  0  0  0
  -25.9295  -11.6502   20.5765 N   0  0  0  0  0  0
  -22.0432  -12.8197   22.0447 N   0  0  0  0  0  0
  -25.4011  -15.1839   20.3882 N   0  0  0  0  0  0
  -31.7680  -14.7843   20.0700 O   0  0  0  0  0  0
  -21.6639   -6.8864   21.4221 O   0  0  0  0  0  0
  -22.3482  -14.5479   20.6686 O   0  0  0  0  0  0
  -24.6272  -31.8562   23.2000 C   0  0  0  0  0  0
  -25.9095  -32.4766   23.8373 C   0  0  1  0  0  0
  -27.2232  -27.2841   20.1338 C   0  0  0  0  0  0
  -25.5905  -33.8578   24.2308 N   0  0  0  0  0  0
  -23.4290  -30.4726   21.5416 C   0  0  2  0  0  0
  -24.8768  -28.9160   20.1194 C   0  0  0  0  0  0
  -22.7507  -29.4576   22.4924 C   0  0  0  0  0  0
  -18.0280  -28.1412   22.8435 C   0  0  0  0  0  0
  -24.1492  -36.7275   23.2644 C   0  0  0  0  0  0
  -25.9705  -30.7736   21.3804 C   0  0  0  0  0  0
  -26.0444  -29.3955   20.7267 C   0  0  0  0  0  0
  -27.2241  -28.5881   20.7236 C   0  0  0  0  0  0
  -26.0357  -26.8526   19.5152 C   0  0  0  0  0  0
  -24.8735  -27.6519   19.5049 C   0  0  0  0  0  0
  -23.6477  -29.8012   20.1603 C   0  0  0  0  0  0
  -25.4121  -36.3087   24.0340 C   0  0  1  0  0  0
  -20.5882  -28.3685   23.1263 C   0  0  2  0  0  0
  -20.6791  -26.9414   22.5404 C   0  0  0  0  0  0
  -19.5770  -26.6400   21.5200 C   0  0  0  0  0  0
  -18.1932  -26.7944   22.1596 C   0  0  0  0  0  0
  -19.1540  -28.8864   23.2840 C   0  0  0  0  0  0
  -18.9472  -30.1462   23.8859 C   0  0  0  0  0  0
  -17.6480  -30.6592   24.0546 C   0  0  0  0  0  0
  -25.9038  -34.9445   23.5123 C   0  0  0  0  0  0
  -16.5356  -29.9090   23.6348 C   0  0  0  0  0  0
  -16.7273  -28.6530   23.0316 C   0  0  0  0  0  0
  -26.4485  -31.6579   25.0735 C   0  0  0  0  0  0
  -25.3701  -31.3707   26.1439 C   0  0  0  0  0  0
  -27.0330  -30.3010   24.6195 C   0  0  0  0  0  0
  -27.6085  -32.4288   25.7480 C   0  0  0  0  0  0
  -27.5583  -37.1792   24.8467 C   0  0  0  0  0  0
  -21.4217  -29.3014   22.3654 N   0  0  0  0  0  0
  -26.4299  -37.3766   23.9406 N   0  0  0  0  0  0
  -24.6941  -31.0531   22.0971 N   0  0  0  0  0  0
  -23.4210  -28.8121   23.3025 O   0  0  0  0  0  0
  -28.3408  -26.4388   20.1003 O   0  0  0  0  0  0
  -26.5600  -34.8913   22.4681 O   0  0  0  0  0  0
  -23.5413  -32.1389   23.7280 O   0  0  0  0  0  0
  -29.9304  -19.9472   20.4346 C   0  0  0  0  0  0
  -28.9600  -20.9510   20.4133 C   0  0  0  0  0  0
  -27.8072  -20.1813   20.0544 C   0  0  0  0  0  0
  -26.3980  -20.6669   19.8679 C   0  0  0  0  0  0
  -30.9724  -16.6390   22.1483 C   0  0  0  0  0  0
  -28.6353  -16.0973   21.7108 C   0  0  0  0  0  0
  -29.0745  -22.4827   20.8170 C   0  0  0  0  0  0
  -28.4203  -23.7020   19.9901 C   0  0  0  0  0  0
  -30.0048  -17.3106   19.9108 C   0  0  0  0  0  0
  -28.2796  -25.1098   20.7657 C   0  0  0  0  0  0
  -30.0188  -16.1490   21.0349 C   0  0  0  0  0  0
  -28.0608  -18.8757   19.8916 N   0  0  0  0  0  0
  -29.3783  -18.6804   20.1483 N   0  0  0  0  0  0
  -31.4673  -12.5687   19.1533 H   0  0  0  0  0  0
  -30.3819  -11.4544   19.9123 H   0  0  0  0  0  0
  -29.7839  -11.7573   17.4937 H   0  0  0  0  0  0
  -29.6310  -13.4816   17.7328 H   0  0  0  0  0  0
  -27.8753  -11.2857   18.8734 H   0  0  0  0  0  0
  -27.3687  -12.5513   17.7845 H   0  0  0  0  0  0
  -27.6559  -14.2440   19.4933 H   0  0  0  0  0  0
  -28.7412  -12.0187   21.2838 H   0  0  0  0  0  0
  -28.3955  -13.5762   21.8802 H   0  0  0  0  0  0
  -25.2731   -9.5658   22.4847 H   0  0  0  0  0  0
  -23.9980   -7.4600   22.7480 H   0  0  0  0  0  0
  -21.0850   -8.8777   19.8956 H   0  0  0  0  0  0
  -22.3699  -10.9688   19.6226 H   0  0  0  0  0  0
  -21.1998   -7.6149   23.9680 H   0  0  0  0  0  0
  -21.1489   -6.0543   25.9062 H   0  0  0  0  0  0
  -22.0599   -2.7603   23.2839 H   0  0  0  0  0  0
  -22.4032  -11.9865   22.4866 H   0  0  0  0  0  0
  -21.1042  -13.1224   22.2627 H   0  0  0  0  0  0
  -24.6277  -15.8296   20.4960 H   0  0  0  0  0  0
  -26.2499  -15.6347   20.0702 H   0  0  0  0  0  0
  -26.7152  -32.5441   23.1122 H   0  0  0  0  0  0
  -25.0081  -33.9765   25.0475 H   0  0  0  0  0  0
  -22.7257  -31.2934   21.3914 H   0  0  0  0  0  0
  -23.3764  -35.9587   23.3311 H   0  0  0  0  0  0
  -24.3573  -36.8898   22.2052 H   0  0  0  0  0  0
  -23.7253  -37.6486   23.6650 H   0  0  0  0  0  0
  -26.1020  -31.5339   20.6089 H   0  0  0  0  0  0
  -26.8504  -30.8306   22.0094 H   0  0  0  0  0  0
  -28.1283  -28.9407   21.1986 H   0  0  0  0  0  0
  -26.0011  -25.8788   19.0466 H   0  0  0  0  0  0
  -23.9776  -27.2796   19.0294 H   0  0  0  0  0  0
  -23.7795  -30.5757   19.4048 H   0  0  0  0  0  0
  -22.7672  -29.2336   19.8538 H   0  0  0  0  0  0
  -25.1310  -36.1953   25.0836 H   0  0  0  0  0  0
  -20.9946  -28.3257   24.1394 H   0  0  0  0  0  0
  -20.5724  -26.2272   23.3585 H   0  0  0  0  0  0
  -21.6653  -26.7471   22.1175 H   0  0  0  0  0  0
  -19.6954  -25.6316   21.1222 H   0  0  0  0  0  0
  -19.6739  -27.3201   20.6717 H   0  0  0  0  0  0
  -17.4220  -26.6631   21.3996 H   0  0  0  0  0  0
  -18.0337  -26.0134   22.9038 H   0  0  0  0  0  0
  -19.7958  -30.7260   24.2224 H   0  0  0  0  0  0
  -17.5044  -31.6274   24.5143 H   0  0  0  0  0  0
  -15.5353  -30.2961   23.7751 H   0  0  0  0  0  0
  -15.8663  -28.0863   22.7014 H   0  0  0  0  0  0
  -24.5894  -30.7053   25.7737 H   0  0  0  0  0  0
  -24.8830  -32.2836   26.4862 H   0  0  0  0  0  0
  -25.7984  -30.8879   27.0226 H   0  0  0  0  0  0
  -26.2915  -29.6765   24.1177 H   0  0  0  0  0  0
  -27.4007  -29.7280   25.4719 H   0  0  0  0  0  0
  -27.8797  -30.4333   23.9454 H   0  0  0  0  0  0
  -27.2762  -33.3606   26.2076 H   0  0  0  0  0  0
  -28.3855  -32.6815   25.0249 H   0  0  0  0  0  0
  -28.0754  -31.8373   26.5376 H   0  0  0  0  0  0
  -28.2595  -38.0092   24.7519 H   0  0  0  0  0  0
  -28.1107  -36.2629   24.6306 H   0  0  0  0  0  0
  -27.2278  -37.1422   25.8864 H   0  0  0  0  0  0
  -20.9418  -29.8730   21.6843 H   0  0  0  0  0  0
  -26.0199  -38.2840   24.1440 H   0  0  0  0  0  0
  -30.9881  -20.0363   20.6440 H   0  0  0  0  0  0
  -26.0649  -21.2437   20.7311 H   0  0  0  0  0  0
  -25.6974  -19.8423   19.7327 H   0  0  0  0  0  0
  -26.3236  -21.3078   18.9898 H   0  0  0  0  0  0
  -30.6225  -17.5727   22.5932 H   0  0  0  0  0  0
  -31.9789  -16.8203   21.7687 H   0  0  0  0  0  0
  -31.0556  -15.9071   22.9534 H   0  0  0  0  0  0
  -27.8628  -15.7791   21.0222 H   0  0  0  0  0  0
  -28.3316  -17.0797   22.0721 H   0  0  0  0  0  0
  -28.6311  -15.4693   22.5987 H   0  0  0  0  0  0
  -30.1313  -22.7282   20.9345 H   0  0  0  0  0  0
  -28.6868  -22.5782   21.8296 H   0  0  0  0  0  0
  -27.4169  -23.4190   19.6721 H   0  0  0  0  0  0
  -28.9892  -23.8460   19.0716 H   0  0  0  0  0  0
  -29.5036  -16.8941   19.0358 H   0  0  0  0  0  0
  -31.0283  -17.4884   19.5761 H   0  0  0  0  0  0
  -29.1061  -25.1399   21.4764 H   0  0  0  0  0  0
  -27.3872  -25.0717   21.3947 H   0  0  0  0  0  0
  1 25  1  0  0  0
  1 30  2  0  0  0
  1 81  1  0  0  0
  2  3  1  0  0  0
  2 25  1  0  0  0
  2 84  1  0  0  0
  2 85  1  0  0  0
  3  4  1  0  0  0
  3 86  1  0  0  0
  3 87  1  0  0  0
  4  5  1  0  0  0
  4 88  1  0  0  0
  4 89  1  0  0  0
  5  6  1  0  0  0
  5 26  1  0  0  0
  5 90  1  0  0  0
  6 25  1  0  0  0
  6 91  1  0  0  0
  6 92  1  0  0  0
  7  8  2  0  0  0
  7 26  1  0  0  0
  7 29  1  0  0  0
  8  9  1  0  0  0
  8 22  1  0  0  0
  9 10  1  0  0  0
  9 27  2  0  0  0
 10 11  2  0  0  0
 10 15  1  0  0  0
 11 12  1  0  0  0
 11 93  1  0  0  0
 12 13  2  0  0  0
 12 94  1  0  0  0
 13 14  1  0  0  0
 13 31  1  0  0  0
 14 15  2  0  0  0
 14 95  1  0  0  0
 15 96  1  0  0  0
 16 17  2  0  0  0
 16 21  1  0  0  0
 16 31  1  0  0  0
 17 18  1  0  0  0
 17 97  1  0  0  0
 18 19  2  0  0  0
 18 98  1  0  0  0
 19 20  1  0  0  0
 19 24  1  0  0  0
 20 21  2  0  0  0
 20 99  1  0  0  0
 21 23  1  0  0  0
 22 28  1  0  0  0
 22 32  2  0  0  0
 26 27  1  0  0  0
 28100  1  0  0  0
 28101  1  0  0  0
 29102  1  0  0  0
 29103  1  0  0  0
 33 34  1  0  0  0
 33 66  1  0  0  0
 33 70  2  0  0  0
 34 36  1  0  0  0
 34 59  1  0  0  0
 34104  1  0  0  0
 35 44  2  0  0  0
 35 45  1  0  0  0
 35 68  1  0  0  0
 36 56  1  0  0  0
 36105  1  0  0  0
 37 39  1  0  0  0
 37 47  1  0  0  0
 37 66  1  0  0  0
 37106  1  0  0  0
 38 43  2  0  0  0
 38 46  1  0  0  0
 38 47  1  0  0  0
 39 64  1  0  0  0
 39 67  2  0  0  0
 40 52  1  0  0  0
 40 53  2  0  0  0
 40 58  1  0  0  0
 41107  1  0  0  0
 41108  1  0  0  0
 41109  1  0  0  0
 41 48  1  0  0  0
 42 43  1  0  0  0
 42 66  1  0  0  0
 42110  1  0  0  0
 42111  1  0  0  0
 43 44  1  0  0  0
 44112  1  0  0  0
 45 46  2  0  0  0
 45113  1  0  0  0
 46114  1  0  0  0
 47115  1  0  0  0
 47116  1  0  0  0
 48 56  1  0  0  0
 48 65  1  0  0  0
 48117  1  0  0  0
 49 50  1  0  0  0
 49 53  1  0  0  0
 49 64  1  0  0  0
 49118  1  0  0  0
 50 51  1  0  0  0
 50119  1  0  0  0
 50120  1  0  0  0
 51 52  1  0  0  0
 51121  1  0  0  0
 51122  1  0  0  0
 52123  1  0  0  0
 52124  1  0  0  0
 53 54  1  0  0  0
 54 55  2  0  0  0
 54125  1  0  0  0
 55 57  1  0  0  0
 55126  1  0  0  0
 56 69  2  0  0  0
 57 58  2  0  0  0
 57127  1  0  0  0
 58128  1  0  0  0
 59 60  1  0  0  0
 59 61  1  0  0  0
 59 62  1  0  0  0
 60129  1  0  0  0
 60130  1  0  0  0
 60131  1  0  0  0
 61132  1  0  0  0
 61133  1  0  0  0
 61134  1  0  0  0
 62135  1  0  0  0
 62136  1  0  0  0
 62137  1  0  0  0
 63 65  1  0  0  0
 63138  1  0  0  0
 63139  1  0  0  0
 63140  1  0  0  0
 64141  1  0  0  0
 65142  1  0  0  0
 68 80  1  0  0  0
 71 72  2  0  0  0
 71 83  1  0  0  0
 71143  1  0  0  0
 72 73  1  0  0  0
 72 77  1  0  0  0
 73 74  1  0  0  0
 73 82  2  0  0  0
 74144  1  0  0  0
 74145  1  0  0  0
 74146  1  0  0  0
 75147  1  0  0  0
 75148  1  0  0  0
 75149  1  0  0  0
 75 81  1  0  0  0
 76 81  1  0  0  0
 76150  1  0  0  0
 76151  1  0  0  0
 76152  1  0  0  0
 77 78  1  0  0  0
 77153  1  0  0  0
 77154  1  0  0  0
 78 80  1  0  0  0
 78155  1  0  0  0
 78156  1  0  0  0
 79 81  1  0  0  0
 79 83  1  0  0  0
 79157  1  0  0  0
 79158  1  0  0  0
 80159  1  0  0  0
 80160  1  0  0  0
 82 83  1  0  0  0
M  ISO  4   1 100  68 101  80 101  81 100
M  END
> <chiral flag>
0

> <version>
0

> <s_m_source_file>
/data/baiqing/PycharmProjects/Reinvent-master-3.2/result/LINK_invent/BTK/process_docking_weight1_custom_sum_contain_oxygen_bond_distance_aromatic_linkinvent_7_9_3/rearranged_h_0071.sdf

> <i_m_source_file_index>
70

> <r_mmod_Potential_Energy-OPLS-2005>
179.436706542969

> <r_mmod_Stretch_Energy-OPLS-2005>
113.611183166504

> <r_mmod_Bend_Energy-OPLS-2005>
193.089324951172

> <r_mmod_Torsional_Energy-OPLS-2005>
223.054229736328

> <r_mmod_Improper_Torsional_Energy-OPLS-2005>
3.32192420959473

> <r_mmod_Van_der_Waal_Energy-OPLS-2005>
117.86474609375

> <r_mmod_Electrostatic_Energy-OPLS-2005>
-345.925415039062

> <r_mmod_Solvation_Energy-OPLS-2005>
-190.173980712891

> <b_mmod_Minimization_Converged-OPLS-2005>
0

> <r_mmod_RMS_Derivative-OPLS-2005>
3.4308500289917

$$$$
72
                    3D
 Structure written by MMmdl.
162170  0  0  1  0            999 V2000
  -30.6203  -14.7172   20.5208 C   0  0  0  0  0  0
  -30.4389  -12.4507   19.4548 C   0  0  0  0  0  0
  -29.5052  -12.5249   18.2266 C   0  0  0  0  0  0
  -28.0323  -12.3506   18.6447 C   0  0  0  0  0  0
  -27.6515  -13.2292   19.8654 C   0  0  2  0  0  0
  -28.7006  -13.1077   20.9911 C   0  0  0  0  0  0
  -25.2550  -13.8203   20.5732 C   0  0  0  0  0  0
  -24.1835  -13.0456   20.9223 C   0  0  0  0  0  0
  -24.6422  -11.6925   20.8765 C   0  0  0  0  0  0
  -23.9097  -10.4306   21.0415 C   0  0  0  0  0  0
  -24.3645   -9.4215   21.9190 C   0  0  0  0  0  0
  -23.6314   -8.2253   22.0753 C   0  0  0  0  0  0
  -22.4293   -8.0302   21.3546 C   0  0  0  0  0  0
  -21.9937   -9.0280   20.4646 C   0  0  0  0  0  0
  -22.7271  -10.2154   20.3056 C   0  0  0  0  0  0
  -21.6854   -6.0759   22.5288 C   0  0  0  0  0  0
  -21.4013   -6.5657   23.8227 C   0  0  0  0  0  0
  -21.3659   -5.6798   24.9187 C   0  0  0  0  0  0
  -21.6035   -4.3062   24.7224 C   0  0  0  0  0  0
  -21.8822   -3.8164   23.4345 C   0  0  0  0  0  0
  -21.9198   -4.6987   22.3405 C   0  0  0  0  0  0
  -22.7850  -13.5232   21.1891 C   0  0  0  0  0  0
  -22.1665   -4.2179   21.0979 F   0  0  0  0  0  0
  -21.5627   -3.4539   25.7732 F   0  0  0  0  0  0
  -30.0013  -13.4865   20.4200 N   0  0  0  0  0  0
  -26.3004  -12.9409   20.3366 N   0  0  0  0  0  0
  -25.9357  -11.6555   20.5788 N   0  0  0  0  0  0
  -22.0488  -12.8206   22.0422 N   0  0  0  0  0  0
  -25.4241  -15.1930   20.4160 N   0  0  0  0  0  0
  -31.7625  -14.8369   20.0609 O   0  0  0  0  0  0
  -21.6641   -6.8905   21.4251 O   0  0  0  0  0  0
  -22.3543  -14.5551   20.6750 O   0  0  0  0  0  0
  -24.6291  -31.8546   23.1978 C   0  0  0  0  0  0
  -25.9118  -32.4751   23.8334 C   0  0  1  0  0  0
  -27.2331  -27.2763   20.1164 C   0  0  0  0  0  0
  -25.5902  -33.8555   24.2237 N   0  0  0  0  0  0
  -23.4252  -30.4736   21.5401 C   0  0  2  0  0  0
  -24.8737  -28.9176   20.1076 C   0  0  0  0  0  0
  -22.7490  -29.4588   22.4916 C   0  0  0  0  0  0
  -18.0286  -28.1387   22.8479 C   0  0  0  0  0  0
  -24.1478  -36.7307   23.2634 C   0  0  0  0  0  0
  -25.9673  -30.7709   21.3721 C   0  0  0  0  0  0
  -26.0406  -29.3926   20.7166 C   0  0  0  0  0  0
  -27.2179  -28.5830   20.7109 C   0  0  0  0  0  0
  -26.0378  -26.8561   19.4931 C   0  0  0  0  0  0
  -24.8754  -27.6561   19.4878 C   0  0  0  0  0  0
  -23.6429  -29.8016   20.1578 C   0  0  0  0  0  0
  -25.4101  -36.3061   24.0306 C   0  0  1  0  0  0
  -20.5885  -28.3688   23.1265 C   0  0  2  0  0  0
  -20.6765  -26.9405   22.5400 C   0  0  0  0  0  0
  -19.5736  -26.6375   21.5203 C   0  0  0  0  0  0
  -18.1920  -26.7923   22.1622 C   0  0  0  0  0  0
  -19.1542  -28.8859   23.2870 C   0  0  0  0  0  0
  -18.9460  -30.1463   23.8880 C   0  0  0  0  0  0
  -17.6455  -30.6581   24.0570 C   0  0  0  0  0  0
  -25.9037  -34.9433   23.5071 C   0  0  0  0  0  0
  -16.5345  -29.9078   23.6343 C   0  0  0  0  0  0
  -16.7273  -28.6511   23.0329 C   0  0  0  0  0  0
  -26.4481  -31.6596   25.0737 C   0  0  0  0  0  0
  -25.3707  -31.3733   26.1460 C   0  0  0  0  0  0
  -27.0333  -30.3013   24.6235 C   0  0  0  0  0  0
  -27.6016  -32.4356   25.7513 C   0  0  0  0  0  0
  -27.5566  -37.1786   24.8447 C   0  0  0  0  0  0
  -21.4196  -29.3051   22.3674 N   0  0  0  0  0  0
  -26.4269  -37.3768   23.9412 N   0  0  0  0  0  0
  -24.6929  -31.0513   22.0937 N   0  0  0  0  0  0
  -23.4202  -28.8105   23.2985 O   0  0  0  0  0  0
  -28.3731  -26.4464   20.1859 O   0  0  0  0  0  0
  -26.5647  -34.8915   22.4662 O   0  0  0  0  0  0
  -23.5443  -32.1360   23.7279 O   0  0  0  0  0  0
  -29.9012  -17.4479   20.5943 C   0  0  0  0  0  0
  -30.0906  -19.1528   19.3321 C   0  0  0  0  0  0
  -30.3916  -20.0212   18.1564 C   0  0  0  0  0  0
  -30.6151  -16.0925   22.6214 C   0  0  0  0  0  0
  -26.9877  -23.5618   21.0885 C   0  0  0  0  0  0
  -29.3150  -24.0945   21.8575 C   0  0  0  0  0  0
  -28.9853  -22.3338   20.0159 C   0  0  0  0  0  0
  -28.8490  -20.9510   20.8573 C   0  0  0  0  0  0
  -28.4687  -25.0426   19.6619 C   0  0  0  0  0  0
  -29.9456  -15.9962   21.2355 C   0  0  2  0  0  0
  -28.4458  -23.7475   20.6351 C   0  0  0  0  0  0
  -30.4302  -17.8459   19.3915 N   0  0  0  0  0  0
  -29.2861  -18.4819   21.2285 N   0  0  0  0  0  0
  -29.4321  -19.6031   20.4201 N   0  0  0  0  0  0
  -31.4759  -12.5819   19.1418 H   0  0  0  0  0  0
  -30.3949  -11.4613   19.9124 H   0  0  0  0  0  0
  -29.7782  -11.7610   17.4978 H   0  0  0  0  0  0
  -29.6360  -13.4858   17.7259 H   0  0  0  0  0  0
  -27.8811  -11.2987   18.8883 H   0  0  0  0  0  0
  -27.3722  -12.5666   17.8047 H   0  0  0  0  0  0
  -27.6623  -14.2631   19.5197 H   0  0  0  0  0  0
  -28.7365  -12.0851   21.3697 H   0  0  0  0  0  0
  -28.4329  -13.7209   21.8512 H   0  0  0  0  0  0
  -25.2795   -9.5690   22.4769 H   0  0  0  0  0  0
  -24.0030   -7.4635   22.7464 H   0  0  0  0  0  0
  -21.0874   -8.8821   19.8935 H   0  0  0  0  0  0
  -22.3755  -10.9712   19.6172 H   0  0  0  0  0  0
  -21.1997   -7.6163   23.9746 H   0  0  0  0  0  0
  -21.1472   -6.0520   25.9093 H   0  0  0  0  0  0
  -22.0595   -2.7629   23.2834 H   0  0  0  0  0  0
  -22.4096  -11.9853   22.4795 H   0  0  0  0  0  0
  -21.1103  -13.1234   22.2629 H   0  0  0  0  0  0
  -24.6550  -15.8452   20.5265 H   0  0  0  0  0  0
  -26.2745  -15.6374   20.0958 H   0  0  0  0  0  0
  -26.7176  -32.5424   23.1075 H   0  0  0  0  0  0
  -24.9995  -33.9696   25.0342 H   0  0  0  0  0  0
  -22.7213  -31.2962   21.3939 H   0  0  0  0  0  0
  -23.3718  -35.9663   23.3271 H   0  0  0  0  0  0
  -24.3556  -36.8989   22.2055 H   0  0  0  0  0  0
  -23.7273  -37.6501   23.6714 H   0  0  0  0  0  0
  -26.0973  -31.5270   20.5963 H   0  0  0  0  0  0
  -26.8489  -30.8292   22.0002 H   0  0  0  0  0  0
  -28.1140  -28.9430   21.1971 H   0  0  0  0  0  0
  -25.9650  -25.8872   19.0263 H   0  0  0  0  0  0
  -23.9781  -27.2822   19.0134 H   0  0  0  0  0  0
  -23.7658  -30.5761   19.3991 H   0  0  0  0  0  0
  -22.7629  -29.2293   19.8570 H   0  0  0  0  0  0
  -25.1289  -36.1873   25.0796 H   0  0  0  0  0  0
  -20.9985  -28.3263   24.1380 H   0  0  0  0  0  0
  -20.5630  -26.2310   23.3611 H   0  0  0  0  0  0
  -21.6638  -26.7405   22.1218 H   0  0  0  0  0  0
  -19.6884  -25.6286   21.1235 H   0  0  0  0  0  0
  -19.6666  -27.3188   20.6732 H   0  0  0  0  0  0
  -17.4193  -26.6667   21.4022 H   0  0  0  0  0  0
  -18.0318  -26.0078   22.9027 H   0  0  0  0  0  0
  -19.7937  -30.7282   24.2229 H   0  0  0  0  0  0
  -17.5013  -31.6257   24.5182 H   0  0  0  0  0  0
  -15.5341  -30.2961   23.7694 H   0  0  0  0  0  0
  -15.8673  -28.0834   22.7007 H   0  0  0  0  0  0
  -24.5872  -30.7093   25.7785 H   0  0  0  0  0  0
  -24.8911  -32.2900   26.4900 H   0  0  0  0  0  0
  -25.8031  -30.8892   27.0232 H   0  0  0  0  0  0
  -26.2915  -29.6741   24.1276 H   0  0  0  0  0  0
  -27.4007  -29.7306   25.4776 H   0  0  0  0  0  0
  -27.8796  -30.4274   23.9486 H   0  0  0  0  0  0
  -27.2603  -33.3667   26.2062 H   0  0  0  0  0  0
  -28.3845  -32.6911   25.0357 H   0  0  0  0  0  0
  -28.0684  -31.8528   26.5472 H   0  0  0  0  0  0
  -28.2533  -38.0124   24.7545 H   0  0  0  0  0  0
  -28.1110  -36.2659   24.6206 H   0  0  0  0  0  0
  -27.2304  -37.1366   25.8851 H   0  0  0  0  0  0
  -20.9374  -29.8838   21.6941 H   0  0  0  0  0  0
  -26.0120  -38.2815   24.1462 H   0  0  0  0  0  0
  -30.9294  -19.4634   17.3898 H   0  0  0  0  0  0
  -31.0086  -20.8670   18.4538 H   0  0  0  0  0  0
  -29.4640  -20.3909   17.7186 H   0  0  0  0  0  0
  -30.0580  -16.7561   23.2825 H   0  0  0  0  0  0
  -31.6312  -16.4788   22.5396 H   0  0  0  0  0  0
  -30.6652  -15.1207   23.1135 H   0  0  0  0  0  0
  -26.8909  -22.7922   21.8546 H   0  0  0  0  0  0
  -26.3495  -23.2768   20.2503 H   0  0  0  0  0  0
  -26.5857  -24.4849   21.5073 H   0  0  0  0  0  0
  -29.3034  -23.3121   22.6153 H   0  0  0  0  0  0
  -28.9677  -25.0086   22.3407 H   0  0  0  0  0  0
  -30.3534  -24.2566   21.5691 H   0  0  0  0  0  0
  -28.4887  -22.1829   19.0572 H   0  0  0  0  0  0
  -30.0397  -22.4726   19.7769 H   0  0  0  0  0  0
  -27.7848  -20.7707   21.0066 H   0  0  0  0  0  0
  -29.2451  -21.1354   21.8555 H   0  0  0  0  0  0
  -27.7837  -24.8812   18.8323 H   0  0  0  0  0  0
  -29.4459  -25.0238   19.1780 H   0  0  0  0  0  0
  -28.8993  -15.7510   21.3926 H   0  0  0  0  0  0
  1 25  1  0  0  0
  1 30  2  0  0  0
  1 80  1  0  0  0
  2  3  1  0  0  0
  2 25  1  0  0  0
  2 85  1  0  0  0
  2 86  1  0  0  0
  3  4  1  0  0  0
  3 87  1  0  0  0
  3 88  1  0  0  0
  4  5  1  0  0  0
  4 89  1  0  0  0
  4 90  1  0  0  0
  5  6  1  0  0  0
  5 26  1  0  0  0
  5 91  1  0  0  0
  6 25  1  0  0  0
  6 92  1  0  0  0
  6 93  1  0  0  0
  7  8  2  0  0  0
  7 26  1  0  0  0
  7 29  1  0  0  0
  8  9  1  0  0  0
  8 22  1  0  0  0
  9 10  1  0  0  0
  9 27  2  0  0  0
 10 11  2  0  0  0
 10 15  1  0  0  0
 11 12  1  0  0  0
 11 94  1  0  0  0
 12 13  2  0  0  0
 12 95  1  0  0  0
 13 14  1  0  0  0
 13 31  1  0  0  0
 14 15  2  0  0  0
 14 96  1  0  0  0
 15 97  1  0  0  0
 16 17  2  0  0  0
 16 21  1  0  0  0
 16 31  1  0  0  0
 17 18  1  0  0  0
 17 98  1  0  0  0
 18 19  2  0  0  0
 18 99  1  0  0  0
 19 20  1  0  0  0
 19 24  1  0  0  0
 20 21  2  0  0  0
 20100  1  0  0  0
 21 23  1  0  0  0
 22 28  1  0  0  0
 22 32  2  0  0  0
 26 27  1  0  0  0
 28101  1  0  0  0
 28102  1  0  0  0
 29103  1  0  0  0
 29104  1  0  0  0
 33 34  1  0  0  0
 33 66  1  0  0  0
 33 70  2  0  0  0
 34 36  1  0  0  0
 34 59  1  0  0  0
 34105  1  0  0  0
 35 44  2  0  0  0
 35 45  1  0  0  0
 35 68  1  0  0  0
 36 56  1  0  0  0
 36106  1  0  0  0
 37 39  1  0  0  0
 37 47  1  0  0  0
 37 66  1  0  0  0
 37107  1  0  0  0
 38 43  2  0  0  0
 38 46  1  0  0  0
 38 47  1  0  0  0
 39 64  1  0  0  0
 39 67  2  0  0  0
 40 52  1  0  0  0
 40 53  2  0  0  0
 40 58  1  0  0  0
 41108  1  0  0  0
 41109  1  0  0  0
 41110  1  0  0  0
 41 48  1  0  0  0
 42 43  1  0  0  0
 42 66  1  0  0  0
 42111  1  0  0  0
 42112  1  0  0  0
 43 44  1  0  0  0
 44113  1  0  0  0
 45 46  2  0  0  0
 45114  1  0  0  0
 46115  1  0  0  0
 47116  1  0  0  0
 47117  1  0  0  0
 48 56  1  0  0  0
 48 65  1  0  0  0
 48118  1  0  0  0
 49 50  1  0  0  0
 49 53  1  0  0  0
 49 64  1  0  0  0
 49119  1  0  0  0
 50 51  1  0  0  0
 50120  1  0  0  0
 50121  1  0  0  0
 51 52  1  0  0  0
 51122  1  0  0  0
 51123  1  0  0  0
 52124  1  0  0  0
 52125  1  0  0  0
 53 54  1  0  0  0
 54 55  2  0  0  0
 54126  1  0  0  0
 55 57  1  0  0  0
 55127  1  0  0  0
 56 69  2  0  0  0
 57 58  2  0  0  0
 57128  1  0  0  0
 58129  1  0  0  0
 59 60  1  0  0  0
 59 61  1  0  0  0
 59 62  1  0  0  0
 60130  1  0  0  0
 60131  1  0  0  0
 60132  1  0  0  0
 61133  1  0  0  0
 61134  1  0  0  0
 61135  1  0  0  0
 62136  1  0  0  0
 62137  1  0  0  0
 62138  1  0  0  0
 63 65  1  0  0  0
 63139  1  0  0  0
 63140  1  0  0  0
 63141  1  0  0  0
 64142  1  0  0  0
 65143  1  0  0  0
 68 79  1  0  0  0
 71 80  1  0  0  0
 71 82  1  0  0  0
 71 83  2  0  0  0
 72 73  1  0  0  0
 72 82  2  0  0  0
 72 84  1  0  0  0
 73144  1  0  0  0
 73145  1  0  0  0
 73146  1  0  0  0
 74147  1  0  0  0
 74148  1  0  0  0
 74149  1  0  0  0
 74 80  1  0  0  0
 75150  1  0  0  0
 75151  1  0  0  0
 75152  1  0  0  0
 75 81  1  0  0  0
 76 81  1  0  0  0
 76153  1  0  0  0
 76154  1  0  0  0
 76155  1  0  0  0
 77 78  1  0  0  0
 77 81  1  0  0  0
 77156  1  0  0  0
 77157  1  0  0  0
 78 84  1  0  0  0
 78158  1  0  0  0
 78159  1  0  0  0
 79 81  1  0  0  0
 79160  1  0  0  0
 79161  1  0  0  0
 80162  1  0  0  0
 83 84  1  0  0  0
M  ISO  4   1 100  68 101  79 101  80 100
M  END
> <chiral flag>
0

> <version>
0

> <s_m_source_file>
/data/baiqing/PycharmProjects/Reinvent-master-3.2/result/LINK_invent/BTK/process_docking_weight1_custom_sum_contain_oxygen_bond_distance_aromatic_linkinvent_7_9_3/rearranged_h_0071.sdf

> <i_m_source_file_index>
71

> <r_mmod_Potential_Energy-OPLS-2005>
202.996795654297

> <r_mmod_Stretch_Energy-OPLS-2005>
127.800735473633

> <r_mmod_Bend_Energy-OPLS-2005>
206.927337646484

> <r_mmod_Torsional_Energy-OPLS-2005>
184.136810302734

> <r_mmod_Improper_Torsional_Energy-OPLS-2005>
1.82960140705109

> <r_mmod_Van_der_Waal_Energy-OPLS-2005>
110.97233581543

> <r_mmod_Electrostatic_Energy-OPLS-2005>
-287.82470703125

> <r_mmod_Solvation_Energy-OPLS-2005>
-208.312652587891

> <b_mmod_Minimization_Converged-OPLS-2005>
0

> <r_mmod_RMS_Derivative-OPLS-2005>
2.18630313873291

$$$$
73
                    3D
 Structure written by MMmdl.
153161  0  0  1  0            999 V2000
  -30.4265  -15.2291   20.3481 C   0  0  0  0  0  0
  -30.4423  -12.7636   19.5318 C   0  0  0  0  0  0
  -29.5401  -12.5787   18.2843 C   0  0  0  0  0  0
  -28.0706  -12.3212   18.6823 C   0  0  0  0  0  0
  -27.6097  -13.2437   19.8390 C   0  0  2  0  0  0
  -28.6575  -13.3800   20.9639 C   0  0  0  0  0  0
  -25.2397  -13.8154   20.5872 C   0  0  0  0  0  0
  -24.1733  -13.0386   20.9300 C   0  0  0  0  0  0
  -24.6354  -11.6860   20.8764 C   0  0  0  0  0  0
  -23.9062  -10.4254   21.0407 C   0  0  0  0  0  0
  -24.3637   -9.4175   21.9174 C   0  0  0  0  0  0
  -23.6314   -8.2223   22.0763 C   0  0  0  0  0  0
  -22.4281   -8.0282   21.3566 C   0  0  0  0  0  0
  -21.9915   -9.0253   20.4659 C   0  0  0  0  0  0
  -22.7250  -10.2113   20.3044 C   0  0  0  0  0  0
  -21.6872   -6.0719   22.5291 C   0  0  0  0  0  0
  -21.4018   -6.5622   23.8217 C   0  0  0  0  0  0
  -21.3663   -5.6779   24.9181 C   0  0  0  0  0  0
  -21.6064   -4.3049   24.7229 C   0  0  0  0  0  0
  -21.8819   -3.8133   23.4352 C   0  0  0  0  0  0
  -21.9190   -4.6949   22.3405 C   0  0  0  0  0  0
  -22.7751  -13.5164   21.1900 C   0  0  0  0  0  0
  -22.1661   -4.2135   21.0990 F   0  0  0  0  0  0
  -21.5624   -3.4530   25.7741 F   0  0  0  0  0  0
  -29.8960  -13.9029   20.3557 N   0  0  0  0  0  0
  -26.2803  -12.9356   20.3351 N   0  0  0  0  0  0
  -25.9283  -11.6491   20.5774 N   0  0  0  0  0  0
  -22.0383  -12.8174   22.0440 N   0  0  0  0  0  0
  -25.3944  -15.1934   20.4419 N   0  0  0  0  0  0
  -31.6483  -15.2117   20.1308 O   0  0  0  0  0  0
  -21.6654   -6.8871   21.4256 O   0  0  0  0  0  0
  -22.3455  -14.5471   20.6708 O   0  0  0  0  0  0
  -24.6586  -31.8283   23.1749 C   0  0  0  0  0  0
  -25.9288  -32.4614   23.8203 C   0  0  1  0  0  0
  -27.2328  -26.9760   20.1774 C   0  0  0  0  0  0
  -25.5965  -33.8435   24.2103 N   0  0  0  0  0  0
  -23.4720  -30.4405   21.5227 C   0  0  2  0  0  0
  -24.9261  -28.8312   20.1128 C   0  0  0  0  0  0
  -22.7640  -29.4471   22.4809 C   0  0  0  0  0  0
  -18.0317  -28.1402   22.8464 C   0  0  0  0  0  0
  -24.1473  -36.7217   23.2655 C   0  0  0  0  0  0
  -26.0382  -30.6466   21.4006 C   0  0  0  0  0  0
  -26.1082  -29.2421   20.7407 C   0  0  0  0  0  0
  -27.2546  -28.3345   20.7504 C   0  0  0  0  0  0
  -26.0188  -26.7028   19.5048 C   0  0  0  0  0  0
  -24.9033  -27.5790   19.4768 C   0  0  0  0  0  0
  -23.7111  -29.7555   20.1476 C   0  0  0  0  0  0
  -25.4120  -36.3003   24.0316 C   0  0  1  0  0  0
  -20.5939  -28.3749   23.1189 C   0  0  2  0  0  0
  -20.6789  -26.9440   22.5392 C   0  0  0  0  0  0
  -19.5764  -26.6375   21.5200 C   0  0  0  0  0  0
  -18.1951  -26.7937   22.1619 C   0  0  0  0  0  0
  -19.1583  -28.8897   23.2812 C   0  0  0  0  0  0
  -18.9499  -30.1489   23.8842 C   0  0  0  0  0  0
  -17.6497  -30.6600   24.0558 C   0  0  0  0  0  0
  -25.9092  -34.9381   23.5033 C   0  0  0  0  0  0
  -16.5382  -29.9087   23.6352 C   0  0  0  0  0  0
  -16.7304  -28.6507   23.0368 C   0  0  0  0  0  0
  -26.4536  -31.6567   25.0729 C   0  0  0  0  0  0
  -25.3660  -31.3810   26.1385 C   0  0  0  0  0  0
  -27.0454  -30.2947   24.6467 C   0  0  0  0  0  0
  -27.6026  -32.4374   25.7514 C   0  0  0  0  0  0
  -27.5563  -37.1772   24.8478 C   0  0  0  0  0  0
  -21.4313  -29.3052   22.3542 N   0  0  0  0  0  0
  -26.4267  -37.3726   23.9427 N   0  0  0  0  0  0
  -24.7439  -30.9969   22.0876 N   0  0  0  0  0  0
  -23.4204  -28.8052   23.3049 O   0  0  0  0  0  0
  -28.2647  -25.9124   20.2456 O   0  0  0  0  0  0
  -26.5710  -34.8903   22.4623 O   0  0  0  0  0  0
  -23.5664  -32.1246   23.6850 O   0  0  0  0  0  0
  -31.2587  -20.2941   20.4879 C   0  0  0  0  0  0
  -29.9724  -19.8399   20.3996 C   0  0  0  0  0  0
  -28.8187  -16.8536   19.0300 C   0  0  0  0  0  0
  -28.5966  -16.7846   21.5452 C   0  0  0  0  0  0
  -28.8114  -21.0965   20.3099 C   0  0  0  0  0  0
  -29.0858  -22.8677   20.3341 C   0  0  0  0  0  0
  -28.0310  -24.2980   20.1572 C   0  0  0  0  0  0
  -29.5806  -16.7910   20.3643 C   0  0  0  0  0  0
  -32.1833  -19.2661   20.5414 N   0  0  0  0  0  0
  -31.5874  -18.1279   20.5007 N   0  0  0  0  0  0
  -30.2421  -18.2941   20.4175 N   0  0  0  0  0  0
  -31.4711  -12.9422   19.2190 H   0  0  0  0  0  0
  -30.4794  -11.8398   20.1101 H   0  0  0  0  0  0
  -29.9055  -11.7592   17.6629 H   0  0  0  0  0  0
  -29.6039  -13.4786   17.6693 H   0  0  0  0  0  0
  -27.9747  -11.2730   18.9717 H   0  0  0  0  0  0
  -27.4247  -12.4604   17.8143 H   0  0  0  0  0  0
  -27.4981  -14.2071   19.3704 H   0  0  0  0  0  0
  -28.8282  -12.4247   21.4606 H   0  0  0  0  0  0
  -28.3096  -14.0369   21.7581 H   0  0  0  0  0  0
  -25.2791   -9.5656   22.4719 H   0  0  0  0  0  0
  -24.0032   -7.4618   22.7486 H   0  0  0  0  0  0
  -21.0832   -8.8796   19.8974 H   0  0  0  0  0  0
  -22.3754  -10.9653   19.6142 H   0  0  0  0  0  0
  -21.2020   -7.6132   23.9716 H   0  0  0  0  0  0
  -21.1486   -6.0509   25.9085 H   0  0  0  0  0  0
  -22.0588   -2.7598   23.2864 H   0  0  0  0  0  0
  -22.4018  -11.9871   22.4881 H   0  0  0  0  0  0
  -21.0973  -13.1178   22.2579 H   0  0  0  0  0  0
  -24.6180  -15.8269   20.5956 H   0  0  0  0  0  0
  -26.2388  -15.6720   20.1614 H   0  0  0  0  0  0
  -26.7366  -32.5161   23.0924 H   0  0  0  0  0  0
  -25.0056  -33.9516   25.0227 H   0  0  0  0  0  0
  -22.7821  -31.2714   21.3519 H   0  0  0  0  0  0
  -23.3746  -35.9529   23.3317 H   0  0  0  0  0  0
  -24.3541  -36.8858   22.2066 H   0  0  0  0  0  0
  -23.7207  -37.6402   23.6699 H   0  0  0  0  0  0
  -26.2172  -31.3920   20.6258 H   0  0  0  0  0  0
  -26.8970  -30.6968   22.0584 H   0  0  0  0  0  0
  -28.1478  -28.6470   21.2712 H   0  0  0  0  0  0
  -25.9018  -25.7470   19.0142 H   0  0  0  0  0  0
  -24.0040  -27.2558   18.9699 H   0  0  0  0  0  0
  -23.8667  -30.5264   19.3909 H   0  0  0  0  0  0
  -22.8190  -29.2120   19.8289 H   0  0  0  0  0  0
  -25.1305  -36.1808   25.0804 H   0  0  0  0  0  0
  -21.0010  -28.3344   24.1321 H   0  0  0  0  0  0
  -20.5652  -26.2378   23.3632 H   0  0  0  0  0  0
  -21.6659  -26.7417   22.1215 H   0  0  0  0  0  0
  -19.6933  -25.6263   21.1289 H   0  0  0  0  0  0
  -19.6701  -27.3131   20.6685 H   0  0  0  0  0  0
  -17.4216  -26.6669   21.4032 H   0  0  0  0  0  0
  -18.0366  -26.0086   22.9028 H   0  0  0  0  0  0
  -19.7984  -30.7323   24.2170 H   0  0  0  0  0  0
  -17.5063  -31.6277   24.5169 H   0  0  0  0  0  0
  -15.5386  -30.2983   23.7713 H   0  0  0  0  0  0
  -15.8696  -28.0818   22.7105 H   0  0  0  0  0  0
  -24.5786  -30.7240   25.7671 H   0  0  0  0  0  0
  -24.8915  -32.3025   26.4776 H   0  0  0  0  0  0
  -25.7864  -30.8957   27.0211 H   0  0  0  0  0  0
  -26.3157  -29.6599   24.1433 H   0  0  0  0  0  0
  -27.3965  -29.7313   25.5130 H   0  0  0  0  0  0
  -27.9091  -30.4147   23.9914 H   0  0  0  0  0  0
  -27.2593  -33.3687   26.2020 H   0  0  0  0  0  0
  -28.3860  -32.6933   25.0370 H   0  0  0  0  0  0
  -28.0690  -31.8581   26.5492 H   0  0  0  0  0  0
  -28.2593  -38.0058   24.7513 H   0  0  0  0  0  0
  -28.1043  -36.2593   24.6306 H   0  0  0  0  0  0
  -27.2299  -37.1431   25.8886 H   0  0  0  0  0  0
  -20.9552  -29.8751   21.6684 H   0  0  0  0  0  0
  -26.0132  -38.2794   24.1397 H   0  0  0  0  0  0
  -31.5967  -21.3202   20.5173 H   0  0  0  0  0  0
  -28.1832  -17.7363   18.9744 H   0  0  0  0  0  0
  -28.1798  -16.0032   18.8537 H   0  0  0  0  0  0
  -29.5208  -16.9020   18.1981 H   0  0  0  0  0  0
  -28.0947  -17.7465   21.6422 H   0  0  0  0  0  0
  -29.1176  -16.5965   22.4851 H   0  0  0  0  0  0
  -27.8080  -16.0500   21.4309 H   0  0  0  0  0  0
  -28.1036  -20.9137   21.1198 H   0  0  0  0  0  0
  -28.2236  -20.9063   19.4126 H   0  0  0  0  0  0
  -29.8619  -23.0265   19.5850 H   0  0  0  0  0  0
  -29.6058  -23.0439   21.2754 H   0  0  0  0  0  0
  -27.2221  -24.1305   20.8661 H   0  0  0  0  0  0
  -27.5661  -24.1599   19.1799 H   0  0  0  0  0  0
  1 25  1  0  0  0
  1 30  2  0  0  0
  1 78  1  0  0  0
  2  3  1  0  0  0
  2 25  1  0  0  0
  2 82  1  0  0  0
  2 83  1  0  0  0
  3  4  1  0  0  0
  3 84  1  0  0  0
  3 85  1  0  0  0
  4  5  1  0  0  0
  4 86  1  0  0  0
  4 87  1  0  0  0
  5  6  1  0  0  0
  5 26  1  0  0  0
  5 88  1  0  0  0
  6 25  1  0  0  0
  6 89  1  0  0  0
  6 90  1  0  0  0
  7  8  2  0  0  0
  7 26  1  0  0  0
  7 29  1  0  0  0
  8  9  1  0  0  0
  8 22  1  0  0  0
  9 10  1  0  0  0
  9 27  2  0  0  0
 10 11  2  0  0  0
 10 15  1  0  0  0
 11 12  1  0  0  0
 11 91  1  0  0  0
 12 13  2  0  0  0
 12 92  1  0  0  0
 13 14  1  0  0  0
 13 31  1  0  0  0
 14 15  2  0  0  0
 14 93  1  0  0  0
 15 94  1  0  0  0
 16 17  2  0  0  0
 16 21  1  0  0  0
 16 31  1  0  0  0
 17 18  1  0  0  0
 17 95  1  0  0  0
 18 19  2  0  0  0
 18 96  1  0  0  0
 19 20  1  0  0  0
 19 24  1  0  0  0
 20 21  2  0  0  0
 20 97  1  0  0  0
 21 23  1  0  0  0
 22 28  1  0  0  0
 22 32  2  0  0  0
 26 27  1  0  0  0
 28 98  1  0  0  0
 28 99  1  0  0  0
 29100  1  0  0  0
 29101  1  0  0  0
 33 34  1  0  0  0
 33 66  1  0  0  0
 33 70  2  0  0  0
 34 36  1  0  0  0
 34 59  1  0  0  0
 34102  1  0  0  0
 35 44  2  0  0  0
 35 45  1  0  0  0
 35 68  1  0  0  0
 36 56  1  0  0  0
 36103  1  0  0  0
 37 39  1  0  0  0
 37 47  1  0  0  0
 37 66  1  0  0  0
 37104  1  0  0  0
 38 43  2  0  0  0
 38 46  1  0  0  0
 38 47  1  0  0  0
 39 64  1  0  0  0
 39 67  2  0  0  0
 40 52  1  0  0  0
 40 53  2  0  0  0
 40 58  1  0  0  0
 41105  1  0  0  0
 41106  1  0  0  0
 41107  1  0  0  0
 41 48  1  0  0  0
 42 43  1  0  0  0
 42 66  1  0  0  0
 42108  1  0  0  0
 42109  1  0  0  0
 43 44  1  0  0  0
 44110  1  0  0  0
 45 46  2  0  0  0
 45111  1  0  0  0
 46112  1  0  0  0
 47113  1  0  0  0
 47114  1  0  0  0
 48 56  1  0  0  0
 48 65  1  0  0  0
 48115  1  0  0  0
 49 50  1  0  0  0
 49 53  1  0  0  0
 49 64  1  0  0  0
 49116  1  0  0  0
 50 51  1  0  0  0
 50117  1  0  0  0
 50118  1  0  0  0
 51 52  1  0  0  0
 51119  1  0  0  0
 51120  1  0  0  0
 52121  1  0  0  0
 52122  1  0  0  0
 53 54  1  0  0  0
 54 55  2  0  0  0
 54123  1  0  0  0
 55 57  1  0  0  0
 55124  1  0  0  0
 56 69  2  0  0  0
 57 58  2  0  0  0
 57125  1  0  0  0
 58126  1  0  0  0
 59 60  1  0  0  0
 59 61  1  0  0  0
 59 62  1  0  0  0
 60127  1  0  0  0
 60128  1  0  0  0
 60129  1  0  0  0
 61130  1  0  0  0
 61131  1  0  0  0
 61132  1  0  0  0
 62133  1  0  0  0
 62134  1  0  0  0
 62135  1  0  0  0
 63 65  1  0  0  0
 63136  1  0  0  0
 63137  1  0  0  0
 63138  1  0  0  0
 64139  1  0  0  0
 65140  1  0  0  0
 68 77  1  0  0  0
 71 72  2  0  0  0
 71 79  1  0  0  0
 71141  1  0  0  0
 72 75  1  0  0  0
 72 81  1  0  0  0
 73142  1  0  0  0
 73143  1  0  0  0
 73144  1  0  0  0
 73 78  1  0  0  0
 74 78  1  0  0  0
 74145  1  0  0  0
 74146  1  0  0  0
 74147  1  0  0  0
 75 76  1  0  0  0
 75148  1  0  0  0
 75149  1  0  0  0
 76 77  1  0  0  0
 76150  1  0  0  0
 76151  1  0  0  0
 77152  1  0  0  0
 77153  1  0  0  0
 78 81  1  0  0  0
 79 80  2  0  0  0
 80 81  1  0  0  0
M  ISO  4   1 100  68 101  77 101  78 100
M  END
> <chiral flag>
0

> <version>
0

> <s_m_source_file>
/data/baiqing/PycharmProjects/Reinvent-master-3.2/result/LINK_invent/BTK/process_docking_weight1_custom_sum_contain_oxygen_bond_distance_aromatic_linkinvent_7_9_3/rearranged_h_0071.sdf

> <i_m_source_file_index>
72

> <r_mmod_Potential_Energy-OPLS-2005>
1305.79077148438

> <r_mmod_Stretch_Energy-OPLS-2005>
588.423461914062

> <r_mmod_Bend_Energy-OPLS-2005>
458.541656494141

> <r_mmod_Torsional_Energy-OPLS-2005>
238.848907470703

> <r_mmod_Improper_Torsional_Energy-OPLS-2005>
4.3461651802063

> <r_mmod_Van_der_Waal_Energy-OPLS-2005>
109.029136657715

> <r_mmod_Electrostatic_Energy-OPLS-2005>
-273.875152587891

> <r_mmod_Solvation_Energy-OPLS-2005>
-213.142959594727

> <b_mmod_Minimization_Converged-OPLS-2005>
0

> <r_mmod_RMS_Derivative-OPLS-2005>
3.69368839263916

$$$$
74
                    3D
 Structure written by MMmdl.
160168  0  0  1  0            999 V2000
  -30.5587  -14.9110   20.3019 C   0  0  0  0  0  0
  -30.4270  -12.5539   19.4440 C   0  0  0  0  0  0
  -29.4820  -12.3781   18.2357 C   0  0  0  0  0  0
  -28.0176  -12.2242   18.6867 C   0  0  0  0  0  0
  -27.6077  -13.1804   19.8387 C   0  0  2  0  0  0
  -28.6759  -13.2943   20.9394 C   0  0  0  0  0  0
  -25.2489  -13.8051   20.5824 C   0  0  0  0  0  0
  -24.1748  -13.0389   20.9243 C   0  0  0  0  0  0
  -24.6251  -11.6822   20.8830 C   0  0  0  0  0  0
  -23.8952  -10.4274   21.0485 C   0  0  0  0  0  0
  -24.3565   -9.4198   21.9231 C   0  0  0  0  0  0
  -23.6261   -8.2234   22.0779 C   0  0  0  0  0  0
  -22.4246   -8.0278   21.3556 C   0  0  0  0  0  0
  -21.9876   -9.0248   20.4644 C   0  0  0  0  0  0
  -22.7175  -10.2129   20.3083 C   0  0  0  0  0  0
  -21.6848   -6.0720   22.5269 C   0  0  0  0  0  0
  -21.4023   -6.5634   23.8203 C   0  0  0  0  0  0
  -21.3658   -5.6787   24.9169 C   0  0  0  0  0  0
  -21.6045   -4.3051   24.7214 C   0  0  0  0  0  0
  -21.8825   -3.8131   23.4342 C   0  0  0  0  0  0
  -21.9199   -4.6948   22.3396 C   0  0  0  0  0  0
  -22.7788  -13.5214   21.1831 C   0  0  0  0  0  0
  -22.1683   -4.2152   21.0972 F   0  0  0  0  0  0
  -21.5626   -3.4530   25.7728 F   0  0  0  0  0  0
  -29.9238  -13.6780   20.2758 N   0  0  0  0  0  0
  -26.2802  -12.9092   20.3469 N   0  0  0  0  0  0
  -25.9166  -11.6300   20.5955 N   0  0  0  0  0  0
  -22.0444  -12.8246   22.0388 N   0  0  0  0  0  0
  -25.4290  -15.1814   20.4241 N   0  0  0  0  0  0
  -31.7847  -14.8408   20.4386 O   0  0  0  0  0  0
  -21.6630   -6.8863   21.4243 O   0  0  0  0  0  0
  -22.3509  -14.5531   20.6639 O   0  0  0  0  0  0
  -24.6364  -31.8502   23.2010 C   0  0  0  0  0  0
  -25.9172  -32.4720   23.8366 C   0  0  1  0  0  0
  -27.1760  -27.1889   20.1729 C   0  0  0  0  0  0
  -25.5963  -33.8527   24.2282 N   0  0  0  0  0  0
  -23.4350  -30.4817   21.5418 C   0  0  2  0  0  0
  -24.8796  -28.9278   20.1046 C   0  0  0  0  0  0
  -22.7530  -29.4626   22.4876 C   0  0  0  0  0  0
  -18.0294  -28.1394   22.8460 C   0  0  0  0  0  0
  -24.1492  -36.7288   23.2636 C   0  0  0  0  0  0
  -25.9881  -30.7474   21.3915 C   0  0  0  0  0  0
  -26.0543  -29.3654   20.7325 C   0  0  0  0  0  0
  -27.2090  -28.5083   20.7551 C   0  0  0  0  0  0
  -25.9936  -26.8574   19.4733 C   0  0  0  0  0  0
  -24.8611  -27.6905   19.4497 C   0  0  0  0  0  0
  -23.6554  -29.8236   20.1549 C   0  0  0  0  0  0
  -25.4111  -36.3042   24.0329 C   0  0  1  0  0  0
  -20.5900  -28.3722   23.1243 C   0  0  2  0  0  0
  -20.6785  -26.9428   22.5388 C   0  0  0  0  0  0
  -19.5775  -26.6382   21.5186 C   0  0  0  0  0  0
  -18.1951  -26.7940   22.1591 C   0  0  0  0  0  0
  -19.1547  -28.8875   23.2850 C   0  0  0  0  0  0
  -18.9455  -30.1469   23.8892 C   0  0  0  0  0  0
  -17.6448  -30.6590   24.0548 C   0  0  0  0  0  0
  -25.9040  -34.9407   23.5102 C   0  0  0  0  0  0
  -16.5339  -29.9068   23.6343 C   0  0  0  0  0  0
  -16.7270  -28.6482   23.0362 C   0  0  0  0  0  0
  -26.4547  -31.6550   25.0758 C   0  0  0  0  0  0
  -25.3774  -31.3674   26.1480 C   0  0  0  0  0  0
  -27.0412  -30.2949   24.6299 C   0  0  0  0  0  0
  -27.6112  -32.4305   25.7511 C   0  0  0  0  0  0
  -27.5615  -37.1767   24.8455 C   0  0  0  0  0  0
  -21.4228  -29.3066   22.3621 N   0  0  0  0  0  0
  -26.4293  -37.3748   23.9434 N   0  0  0  0  0  0
  -24.7062  -31.0449   22.1004 N   0  0  0  0  0  0
  -23.4201  -28.8150   23.2979 O   0  0  0  0  0  0
  -28.1871  -26.1916   20.3006 O   0  0  0  0  0  0
  -26.5593  -34.8886   22.4655 O   0  0  0  0  0  0
  -23.5502  -32.1373   23.7269 O   0  0  0  0  0  0
  -28.3049  -18.3622   19.4026 C   0  0  0  0  0  0
  -27.9394  -19.7185   19.6340 C   0  0  0  0  0  0
  -29.2782  -17.6541   20.1809 C   0  0  0  0  0  0
  -28.4903  -20.4754   20.6888 C   0  0  0  0  0  0
  -29.6679  -18.4422   21.3106 C   0  0  0  0  0  0
  -31.2971  -16.9666   18.9482 C   0  0  0  0  0  0
  -29.3156  -15.9244   18.2424 C   0  0  0  0  0  0
  -29.8886  -18.0280   23.6056 C   0  0  0  0  0  0
  -27.9229  -21.9575   20.9963 C   0  0  0  0  0  0
  -28.6552  -23.4014   20.7153 C   0  0  0  0  0  0
  -27.7393  -24.7271   20.3835 C   0  0  0  0  0  0
  -30.0200  -16.3209   19.5619 C   0  0  0  0  0  0
  -29.3039  -19.7720   21.5464 N   0  0  0  0  0  0
  -30.4111  -17.8401   22.2920 O   0  0  0  0  0  0
  -31.4394  -12.7362   19.0787 H   0  0  0  0  0  0
  -30.4720  -11.6367   20.0328 H   0  0  0  0  0  0
  -29.7746  -11.4918   17.6708 H   0  0  0  0  0  0
  -29.5743  -13.1873   17.5201 H   0  0  0  0  0  0
  -27.8982  -11.1921   19.0179 H   0  0  0  0  0  0
  -27.3436  -12.3359   17.8357 H   0  0  0  0  0  0
  -27.5004  -14.1492   19.3935 H   0  0  0  0  0  0
  -28.7955  -12.3622   21.4962 H   0  0  0  0  0  0
  -28.3978  -14.0600   21.6642 H   0  0  0  0  0  0
  -25.2756   -9.5681   22.4720 H   0  0  0  0  0  0
  -24.0009   -7.4623   22.7469 H   0  0  0  0  0  0
  -21.0836   -8.8750   19.8884 H   0  0  0  0  0  0
  -22.3703  -10.9677   19.6144 H   0  0  0  0  0  0
  -21.2033   -7.6148   23.9704 H   0  0  0  0  0  0
  -21.1478   -6.0522   25.9066 H   0  0  0  0  0  0
  -22.0606   -2.7596   23.2827 H   0  0  0  0  0  0
  -22.4102  -11.9939   22.4822 H   0  0  0  0  0  0
  -21.1053  -13.1249   22.2552 H   0  0  0  0  0  0
  -24.6697  -15.8435   20.5449 H   0  0  0  0  0  0
  -26.2961  -15.6253   20.1540 H   0  0  0  0  0  0
  -26.7243  -32.5321   23.1108 H   0  0  0  0  0  0
  -25.0159  -33.9652   25.0464 H   0  0  0  0  0  0
  -22.7324  -31.3063   21.3958 H   0  0  0  0  0  0
  -23.3763  -35.9611   23.3213 H   0  0  0  0  0  0
  -24.3634  -36.8997   22.2077 H   0  0  0  0  0  0
  -23.7209  -37.6448   23.6712 H   0  0  0  0  0  0
  -26.1386  -31.5058   20.6207 H   0  0  0  0  0  0
  -26.8623  -30.7930   22.0313 H   0  0  0  0  0  0
  -28.0982  -28.8194   21.2853 H   0  0  0  0  0  0
  -25.8995  -25.9181   18.9531 H   0  0  0  0  0  0
  -23.9722  -27.3609   18.9290 H   0  0  0  0  0  0
  -23.7837  -30.6028   19.4017 H   0  0  0  0  0  0
  -22.7717  -29.2608   19.8476 H   0  0  0  0  0  0
  -25.1277  -36.1900   25.0822 H   0  0  0  0  0  0
  -20.9991  -28.3292   24.1362 H   0  0  0  0  0  0
  -20.5687  -26.2309   23.3577 H   0  0  0  0  0  0
  -21.6654  -26.7453   22.1194 H   0  0  0  0  0  0
  -19.6935  -25.6276   21.1250 H   0  0  0  0  0  0
  -19.6736  -27.3149   20.6675 H   0  0  0  0  0  0
  -17.4212  -26.6665   21.3996 H   0  0  0  0  0  0
  -18.0376  -26.0090   22.8997 H   0  0  0  0  0  0
  -19.7924  -30.7282   24.2280 H   0  0  0  0  0  0
  -17.4991  -31.6281   24.5122 H   0  0  0  0  0  0
  -15.5341  -30.2945   23.7705 H   0  0  0  0  0  0
  -15.8664  -28.0783   22.7123 H   0  0  0  0  0  0
  -24.5987  -30.6976   25.7824 H   0  0  0  0  0  0
  -24.8915  -32.2788   26.4934 H   0  0  0  0  0  0
  -25.8120  -30.8852   27.0235 H   0  0  0  0  0  0
  -26.3012  -29.6626   24.1362 H   0  0  0  0  0  0
  -27.4094  -29.7292   25.4868 H   0  0  0  0  0  0
  -27.8903  -30.4218   23.9586 H   0  0  0  0  0  0
  -27.2786  -33.3638   26.2073 H   0  0  0  0  0  0
  -28.3934  -32.6794   25.0327 H   0  0  0  0  0  0
  -28.0767  -31.8408   26.5414 H   0  0  0  0  0  0
  -28.2530  -38.0160   24.7596 H   0  0  0  0  0  0
  -28.1198  -36.2675   24.6138 H   0  0  0  0  0  0
  -27.2344  -37.1272   25.8855 H   0  0  0  0  0  0
  -20.9383  -29.8786   21.6841 H   0  0  0  0  0  0
  -26.0160  -38.2816   24.1440 H   0  0  0  0  0  0
  -27.8267  -17.9125   18.5472 H   0  0  0  0  0  0
  -27.2104  -20.1780   18.9784 H   0  0  0  0  0  0
  -31.9609  -17.3916   19.6988 H   0  0  0  0  0  0
  -31.0412  -17.7737   18.2598 H   0  0  0  0  0  0
  -31.8740  -16.2470   18.3600 H   0  0  0  0  0  0
  -29.2415  -16.7522   17.5404 H   0  0  0  0  0  0
  -28.3004  -15.5966   18.3710 H   0  0  0  0  0  0
  -29.8888  -15.1824   17.6929 H   0  0  0  0  0  0
  -30.2544  -17.2454   24.2704 H   0  0  0  0  0  0
  -28.7958  -17.9684   23.6115 H   0  0  0  0  0  0
  -30.1783  -18.9961   24.0123 H   0  0  0  0  0  0
  -27.6193  -21.9487   22.0438 H   0  0  0  0  0  0
  -26.9685  -21.9990   20.4697 H   0  0  0  0  0  0
  -29.3501  -23.2669   19.8876 H   0  0  0  0  0  0
  -29.2800  -23.6137   21.5844 H   0  0  0  0  0  0
  -26.9000  -24.7037   21.0850 H   0  0  0  0  0  0
  -27.3061  -24.4742   19.4171 H   0  0  0  0  0  0
  1 25  1  0  0  0
  1 30  2  0  0  0
  1 82  1  0  0  0
  2  3  1  0  0  0
  2 25  1  0  0  0
  2 85  1  0  0  0
  2 86  1  0  0  0
  3  4  1  0  0  0
  3 87  1  0  0  0
  3 88  1  0  0  0
  4  5  1  0  0  0
  4 89  1  0  0  0
  4 90  1  0  0  0
  5  6  1  0  0  0
  5 26  1  0  0  0
  5 91  1  0  0  0
  6 25  1  0  0  0
  6 92  1  0  0  0
  6 93  1  0  0  0
  7  8  2  0  0  0
  7 26  1  0  0  0
  7 29  1  0  0  0
  8  9  1  0  0  0
  8 22  1  0  0  0
  9 10  1  0  0  0
  9 27  2  0  0  0
 10 11  2  0  0  0
 10 15  1  0  0  0
 11 12  1  0  0  0
 11 94  1  0  0  0
 12 13  2  0  0  0
 12 95  1  0  0  0
 13 14  1  0  0  0
 13 31  1  0  0  0
 14 15  2  0  0  0
 14 96  1  0  0  0
 15 97  1  0  0  0
 16 17  2  0  0  0
 16 21  1  0  0  0
 16 31  1  0  0  0
 17 18  1  0  0  0
 17 98  1  0  0  0
 18 19  2  0  0  0
 18 99  1  0  0  0
 19 20  1  0  0  0
 19 24  1  0  0  0
 20 21  2  0  0  0
 20100  1  0  0  0
 21 23  1  0  0  0
 22 28  1  0  0  0
 22 32  2  0  0  0
 26 27  1  0  0  0
 28101  1  0  0  0
 28102  1  0  0  0
 29103  1  0  0  0
 29104  1  0  0  0
 33 34  1  0  0  0
 33 66  1  0  0  0
 33 70  2  0  0  0
 34 36  1  0  0  0
 34 59  1  0  0  0
 34105  1  0  0  0
 35 44  2  0  0  0
 35 45  1  0  0  0
 35 68  1  0  0  0
 36 56  1  0  0  0
 36106  1  0  0  0
 37 39  1  0  0  0
 37 47  1  0  0  0
 37 66  1  0  0  0
 37107  1  0  0  0
 38 43  2  0  0  0
 38 46  1  0  0  0
 38 47  1  0  0  0
 39 64  1  0  0  0
 39 67  2  0  0  0
 40 52  1  0  0  0
 40 53  2  0  0  0
 40 58  1  0  0  0
 41108  1  0  0  0
 41109  1  0  0  0
 41110  1  0  0  0
 41 48  1  0  0  0
 42 43  1  0  0  0
 42 66  1  0  0  0
 42111  1  0  0  0
 42112  1  0  0  0
 43 44  1  0  0  0
 44113  1  0  0  0
 45 46  2  0  0  0
 45114  1  0  0  0
 46115  1  0  0  0
 47116  1  0  0  0
 47117  1  0  0  0
 48 56  1  0  0  0
 48 65  1  0  0  0
 48118  1  0  0  0
 49 50  1  0  0  0
 49 53  1  0  0  0
 49 64  1  0  0  0
 49119  1  0  0  0
 50 51  1  0  0  0
 50120  1  0  0  0
 50121  1  0  0  0
 51 52  1  0  0  0
 51122  1  0  0  0
 51123  1  0  0  0
 52124  1  0  0  0
 52125  1  0  0  0
 53 54  1  0  0  0
 54 55  2  0  0  0
 54126  1  0  0  0
 55 57  1  0  0  0
 55127  1  0  0  0
 56 69  2  0  0  0
 57 58  2  0  0  0
 57128  1  0  0  0
 58129  1  0  0  0
 59 60  1  0  0  0
 59 61  1  0  0  0
 59 62  1  0  0  0
 60130  1  0  0  0
 60131  1  0  0  0
 60132  1  0  0  0
 61133  1  0  0  0
 61134  1  0  0  0
 61135  1  0  0  0
 62136  1  0  0  0
 62137  1  0  0  0
 62138  1  0  0  0
 63 65  1  0  0  0
 63139  1  0  0  0
 63140  1  0  0  0
 63141  1  0  0  0
 64142  1  0  0  0
 65143  1  0  0  0
 68 81  1  0  0  0
 71 72  2  0  0  0
 71 73  1  0  0  0
 71144  1  0  0  0
 72 74  1  0  0  0
 72145  1  0  0  0
 73 75  2  0  0  0
 73 82  1  0  0  0
 74 79  1  0  0  0
 74 83  2  0  0  0
 75 83  1  0  0  0
 75 84  1  0  0  0
 76146  1  0  0  0
 76147  1  0  0  0
 76148  1  0  0  0
 76 82  1  0  0  0
 77 82  1  0  0  0
 77149  1  0  0  0
 77150  1  0  0  0
 77151  1  0  0  0
 78 84  1  0  0  0
 78152  1  0  0  0
 78153  1  0  0  0
 78154  1  0  0  0
 79 80  1  0  0  0
 79155  1  0  0  0
 79156  1  0  0  0
 80 81  1  0  0  0
 80157  1  0  0  0
 80158  1  0  0  0
 81159  1  0  0  0
 81160  1  0  0  0
M  ISO  4   1 100  68 101  81 101  82 100
M  END
> <chiral flag>
0

> <version>
0

> <s_m_source_file>
/data/baiqing/PycharmProjects/Reinvent-master-3.2/result/LINK_invent/BTK/process_docking_weight1_custom_sum_contain_oxygen_bond_distance_aromatic_linkinvent_7_9_3/rearranged_h_0071.sdf

> <i_m_source_file_index>
73

> <r_mmod_Potential_Energy-OPLS-2005>
421.873352050781

> <r_mmod_Stretch_Energy-OPLS-2005>
190.627853393555

> <r_mmod_Bend_Energy-OPLS-2005>
285.892639160156

> <r_mmod_Torsional_Energy-OPLS-2005>
270.425231933594

> <r_mmod_Improper_Torsional_Energy-OPLS-2005>
24.6932201385498

> <r_mmod_Van_der_Waal_Energy-OPLS-2005>
175.246109008789

> <r_mmod_Electrostatic_Energy-OPLS-2005>
-521.213500976562

> <r_mmod_Solvation_Energy-OPLS-2005>
-200.432952880859

> <b_mmod_Minimization_Converged-OPLS-2005>
0

> <r_mmod_RMS_Derivative-OPLS-2005>
6.02140235900879

$$$$
75
                    3D
 Structure written by MMmdl.
170178  0  0  1  0            999 V2000
  -30.7012  -14.5017   20.4972 C   0  0  0  0  0  0
  -30.4238  -12.2906   19.4545 C   0  0  0  0  0  0
  -29.5054  -12.4233   18.2210 C   0  0  0  0  0  0
  -28.0216  -12.3014   18.6245 C   0  0  0  0  0  0
  -27.6502  -13.1880   19.8411 C   0  0  2  0  0  0
  -28.6906  -13.0155   20.9722 C   0  0  0  0  0  0
  -25.2582  -13.8149   20.5597 C   0  0  0  0  0  0
  -24.1843  -13.0455   20.9133 C   0  0  0  0  0  0
  -24.6370  -11.6908   20.8728 C   0  0  0  0  0  0
  -23.9053  -10.4303   21.0409 C   0  0  0  0  0  0
  -24.3646   -9.4209   21.9171 C   0  0  0  0  0  0
  -23.6326   -8.2238   22.0757 C   0  0  0  0  0  0
  -22.4296   -8.0288   21.3548 C   0  0  0  0  0  0
  -21.9913   -9.0247   20.4644 C   0  0  0  0  0  0
  -22.7248  -10.2117   20.3037 C   0  0  0  0  0  0
  -21.6847   -6.0767   22.5305 C   0  0  0  0  0  0
  -21.4002   -6.5662   23.8242 C   0  0  0  0  0  0
  -21.3644   -5.6804   24.9195 C   0  0  0  0  0  0
  -21.6039   -4.3074   24.7237 C   0  0  0  0  0  0
  -21.8821   -3.8176   23.4358 C   0  0  0  0  0  0
  -21.9183   -4.6998   22.3414 C   0  0  0  0  0  0
  -22.7858  -13.5240   21.1838 C   0  0  0  0  0  0
  -22.1670   -4.2186   21.0987 F   0  0  0  0  0  0
  -21.5601   -3.4557   25.7747 F   0  0  0  0  0  0
  -30.0191  -13.3201   20.4241 N   0  0  0  0  0  0
  -26.2959  -12.9266   20.3179 N   0  0  0  0  0  0
  -25.9271  -11.6459   20.5715 N   0  0  0  0  0  0
  -22.0515  -12.8241   22.0406 N   0  0  0  0  0  0
  -25.4332  -15.1886   20.4073 N   0  0  0  0  0  0
  -31.8937  -14.5361   20.1909 O   0  0  0  0  0  0
  -21.6630   -6.8912   21.4275 O   0  0  0  0  0  0
  -22.3518  -14.5535   20.6683 O   0  0  0  0  0  0
  -24.6106  -31.8708   23.2106 C   0  0  0  0  0  0
  -25.9012  -32.4836   23.8406 C   0  0  1  0  0  0
  -27.2447  -27.4658   20.1197 C   0  0  0  0  0  0
  -25.5882  -33.8628   24.2347 N   0  0  0  0  0  0
  -23.3977  -30.4908   21.5507 C   0  0  2  0  0  0
  -24.8485  -28.9623   20.1098 C   0  0  0  0  0  0
  -22.7396  -29.4656   22.5021 C   0  0  0  0  0  0
  -18.0265  -28.1370   22.8494 C   0  0  0  0  0  0
  -24.1486  -36.7321   23.2640 C   0  0  0  0  0  0
  -25.9172  -30.8551   21.3510 C   0  0  0  0  0  0
  -26.0006  -29.4896   20.7047 C   0  0  0  0  0  0
  -27.2016  -28.7545   20.7012 C   0  0  0  0  0  0
  -26.0858  -26.9562   19.5007 C   0  0  0  0  0  0
  -24.8852  -27.6953   19.4994 C   0  0  0  0  0  0
  -23.6032  -29.8175   20.1652 C   0  0  0  0  0  0
  -25.4107  -36.3116   24.0347 C   0  0  1  0  0  0
  -20.5847  -28.3640   23.1345 C   0  0  2  0  0  0
  -20.6753  -26.9384   22.5425 C   0  0  0  0  0  0
  -19.5734  -26.6382   21.5216 C   0  0  0  0  0  0
  -18.1909  -26.7923   22.1620 C   0  0  0  0  0  0
  -19.1512  -28.8824   23.2916 C   0  0  0  0  0  0
  -18.9444  -30.1434   23.8923 C   0  0  0  0  0  0
  -17.6446  -30.6574   24.0570 C   0  0  0  0  0  0
  -25.9029  -34.9482   23.5144 C   0  0  0  0  0  0
  -16.5339  -29.9084   23.6313 C   0  0  0  0  0  0
  -16.7259  -28.6499   23.0341 C   0  0  0  0  0  0
  -26.4460  -31.6591   25.0708 C   0  0  0  0  0  0
  -25.3748  -31.3670   26.1472 C   0  0  0  0  0  0
  -27.0274  -30.3057   24.5998 C   0  0  0  0  0  0
  -27.6049  -32.4297   25.7459 C   0  0  0  0  0  0
  -27.5583  -37.1809   24.8463 C   0  0  0  0  0  0
  -21.4127  -29.3017   22.3764 N   0  0  0  0  0  0
  -26.4295  -37.3800   23.9407 N   0  0  0  0  0  0
  -24.6602  -31.0852   22.0978 N   0  0  0  0  0  0
  -23.4193  -28.8204   23.3046 O   0  0  0  0  0  0
  -28.3717  -26.6750   20.1400 O   0  0  0  0  0  0
  -26.5586  -34.8928   22.4699 O   0  0  0  0  0  0
  -23.5317  -32.1417   23.7543 O   0  0  0  0  0  0
  -29.4071  -20.0351   21.6086 C   0  0  0  0  0  0
  -29.7269  -19.5336   20.3227 C   0  0  0  0  0  0
  -30.9305  -21.4630   19.8872 C   0  0  0  0  0  0
  -30.5925  -21.9640   21.1719 C   0  0  0  0  0  0
  -31.8659  -22.1999   18.9428 C   0  0  0  0  0  0
  -28.1443  -18.4938   18.6975 C   0  0  0  0  0  0
  -31.6280  -17.4859   19.5114 C   0  0  0  0  0  0
  -29.8684  -16.3115   18.2279 C   0  0  0  0  0  0
  -31.1020  -23.3033   21.6804 C   0  0  0  0  0  0
  -30.4496  -24.5308   21.0047 C   0  0  0  0  0  0
  -29.4386  -25.2923   21.8743 C   0  0  0  0  0  0
  -29.1388  -26.7084   21.3500 C   0  0  0  0  0  0
  -29.1445  -18.1953   19.8427 C   0  0  1  0  0  0
  -29.9980  -15.8867   20.7527 C   0  0  0  0  0  0
  -30.1598  -16.9787   19.6016 C   0  0  0  0  0  0
  -29.8167  -21.2559   22.0273 N   0  0  0  0  0  0
  -30.4701  -20.2663   19.4527 N   0  0  0  0  0  0
  -30.4904  -16.3924   21.8870 F   0  0  0  0  0  0
  -28.6941  -15.7066   20.9449 F   0  0  0  0  0  0
  -31.4714  -12.3662   19.1606 H   0  0  0  0  0  0
  -30.3251  -11.3013   19.9028 H   0  0  0  0  0  0
  -29.7532  -11.6379   17.5066 H   0  0  0  0  0  0
  -29.6860  -13.3660   17.7086 H   0  0  0  0  0  0
  -27.8446  -11.2536   18.8716 H   0  0  0  0  0  0
  -27.3794  -12.5196   17.7707 H   0  0  0  0  0  0
  -27.6729  -14.2097   19.4696 H   0  0  0  0  0  0
  -28.6694  -11.9871   21.3319 H   0  0  0  0  0  0
  -28.4524  -13.6162   21.8491 H   0  0  0  0  0  0
  -25.2815   -9.5693   22.4715 H   0  0  0  0  0  0
  -24.0046   -7.4633   22.7473 H   0  0  0  0  0  0
  -21.0835   -8.8774   19.8958 H   0  0  0  0  0  0
  -22.3746  -10.9643   19.6117 H   0  0  0  0  0  0
  -21.2012   -7.6171   23.9780 H   0  0  0  0  0  0
  -21.1444   -6.0515   25.9096 H   0  0  0  0  0  0
  -22.0613   -2.7643   23.2850 H   0  0  0  0  0  0
  -22.4164  -11.9950   22.4858 H   0  0  0  0  0  0
  -21.1086  -13.1200   22.2529 H   0  0  0  0  0  0
  -24.6827  -15.8515   20.5658 H   0  0  0  0  0  0
  -26.3129  -15.6323   20.1803 H   0  0  0  0  0  0
  -26.7093  -32.5582   23.1194 H   0  0  0  0  0  0
  -25.0043  -33.9798   25.0501 H   0  0  0  0  0  0
  -22.6834  -31.3047   21.4117 H   0  0  0  0  0  0
  -23.3743  -35.9657   23.3307 H   0  0  0  0  0  0
  -24.3589  -36.8926   22.2052 H   0  0  0  0  0  0
  -23.7234  -37.6533   23.6642 H   0  0  0  0  0  0
  -26.0113  -31.6175   20.5766 H   0  0  0  0  0  0
  -26.8128  -30.9229   21.9560 H   0  0  0  0  0  0
  -28.0866  -29.1801   21.1536 H   0  0  0  0  0  0
  -26.1060  -25.9750   19.0471 H   0  0  0  0  0  0
  -24.0004  -27.2849   19.0327 H   0  0  0  0  0  0
  -23.6970  -30.5890   19.4006 H   0  0  0  0  0  0
  -22.7310  -29.2261   19.8784 H   0  0  0  0  0  0
  -25.1275  -36.1997   25.0843 H   0  0  0  0  0  0
  -20.9942  -28.3195   24.1467 H   0  0  0  0  0  0
  -20.5648  -26.2246   23.3606 H   0  0  0  0  0  0
  -21.6626  -26.7425   22.1221 H   0  0  0  0  0  0
  -19.6893  -25.6300   21.1226 H   0  0  0  0  0  0
  -19.6684  -27.3212   20.6764 H   0  0  0  0  0  0
  -17.4187  -26.6685   21.4017 H   0  0  0  0  0  0
  -18.0302  -26.0056   22.9003 H   0  0  0  0  0  0
  -19.7919  -30.7237   24.2317 H   0  0  0  0  0  0
  -17.4999  -31.6259   24.5163 H   0  0  0  0  0  0
  -15.5339  -30.2995   23.7619 H   0  0  0  0  0  0
  -15.8660  -28.0831   22.7040 H   0  0  0  0  0  0
  -24.5930  -30.7004   25.7813 H   0  0  0  0  0  0
  -24.8929  -32.2813   26.4944 H   0  0  0  0  0  0
  -25.8134  -30.8831   27.0206 H   0  0  0  0  0  0
  -26.2780  -29.6834   24.1093 H   0  0  0  0  0  0
  -27.4134  -29.7267   25.4394 H   0  0  0  0  0  0
  -27.8569  -30.4416   23.9056 H   0  0  0  0  0  0
  -27.2683  -33.3587   26.2070 H   0  0  0  0  0  0
  -28.3836  -32.6871   25.0268 H   0  0  0  0  0  0
  -28.0734  -31.8395   26.5342 H   0  0  0  0  0  0
  -28.2600  -38.0108   24.7514 H   0  0  0  0  0  0
  -28.1079  -36.2638   24.6279 H   0  0  0  0  0  0
  -27.2304  -37.1452   25.8868 H   0  0  0  0  0  0
  -20.9293  -29.8750   21.6993 H   0  0  0  0  0  0
  -26.0191  -38.2882   24.1413 H   0  0  0  0  0  0
  -28.7938  -19.4700   22.2969 H   0  0  0  0  0  0
  -31.6414  -23.2639   18.8930 H   0  0  0  0  0  0
  -31.8035  -21.8136   17.9266 H   0  0  0  0  0  0
  -32.8960  -22.0853   19.2789 H   0  0  0  0  0  0
  -27.4480  -19.2771   18.9963 H   0  0  0  0  0  0
  -27.5391  -17.6282   18.4311 H   0  0  0  0  0  0
  -28.6485  -18.8521   17.7996 H   0  0  0  0  0  0
  -32.3505  -16.7036   19.2976 H   0  0  0  0  0  0
  -31.9500  -17.9791   20.4281 H   0  0  0  0  0  0
  -31.7503  -18.1953   18.6944 H   0  0  0  0  0  0
  -30.5649  -15.5073   17.9989 H   0  0  0  0  0  0
  -29.9621  -17.0184   17.4040 H   0  0  0  0  0  0
  -28.8704  -15.8770   18.1916 H   0  0  0  0  0  0
  -32.1785  -23.3246   21.5100 H   0  0  0  0  0  0
  -30.9881  -23.3515   22.7646 H   0  0  0  0  0  0
  -29.9851  -24.2648   20.0562 H   0  0  0  0  0  0
  -31.2547  -25.2214   20.7556 H   0  0  0  0  0  0
  -29.8413  -25.3915   22.8837 H   0  0  0  0  0  0
  -28.5147  -24.7218   21.9755 H   0  0  0  0  0  0
  -30.0636  -27.2580   21.1710 H   0  0  0  0  0  0
  -28.6227  -27.2296   22.1570 H   0  0  0  0  0  0
  -28.4864  -17.9114   20.6612 H   0  0  0  0  0  0
  1 25  1  0  0  0
  1 30  2  0  0  0
  1 84  1  0  0  0
  2  3  1  0  0  0
  2 25  1  0  0  0
  2 90  1  0  0  0
  2 91  1  0  0  0
  3  4  1  0  0  0
  3 92  1  0  0  0
  3 93  1  0  0  0
  4  5  1  0  0  0
  4 94  1  0  0  0
  4 95  1  0  0  0
  5  6  1  0  0  0
  5 26  1  0  0  0
  5 96  1  0  0  0
  6 25  1  0  0  0
  6 97  1  0  0  0
  6 98  1  0  0  0
  7  8  2  0  0  0
  7 26  1  0  0  0
  7 29  1  0  0  0
  8  9  1  0  0  0
  8 22  1  0  0  0
  9 10  1  0  0  0
  9 27  2  0  0  0
 10 11  2  0  0  0
 10 15  1  0  0  0
 11 12  1  0  0  0
 11 99  1  0  0  0
 12 13  2  0  0  0
 12100  1  0  0  0
 13 14  1  0  0  0
 13 31  1  0  0  0
 14 15  2  0  0  0
 14101  1  0  0  0
 15102  1  0  0  0
 16 17  2  0  0  0
 16 21  1  0  0  0
 16 31  1  0  0  0
 17 18  1  0  0  0
 17103  1  0  0  0
 18 19  2  0  0  0
 18104  1  0  0  0
 19 20  1  0  0  0
 19 24  1  0  0  0
 20 21  2  0  0  0
 20105  1  0  0  0
 21 23  1  0  0  0
 22 28  1  0  0  0
 22 32  2  0  0  0
 26 27  1  0  0  0
 28106  1  0  0  0
 28107  1  0  0  0
 29108  1  0  0  0
 29109  1  0  0  0
 33 34  1  0  0  0
 33 66  1  0  0  0
 33 70  2  0  0  0
 34 36  1  0  0  0
 34 59  1  0  0  0
 34110  1  0  0  0
 35 44  2  0  0  0
 35 45  1  0  0  0
 35 68  1  0  0  0
 36 56  1  0  0  0
 36111  1  0  0  0
 37 39  1  0  0  0
 37 47  1  0  0  0
 37 66  1  0  0  0
 37112  1  0  0  0
 38 43  2  0  0  0
 38 46  1  0  0  0
 38 47  1  0  0  0
 39 64  1  0  0  0
 39 67  2  0  0  0
 40 52  1  0  0  0
 40 53  2  0  0  0
 40 58  1  0  0  0
 41113  1  0  0  0
 41114  1  0  0  0
 41115  1  0  0  0
 41 48  1  0  0  0
 42 43  1  0  0  0
 42 66  1  0  0  0
 42116  1  0  0  0
 42117  1  0  0  0
 43 44  1  0  0  0
 44118  1  0  0  0
 45 46  2  0  0  0
 45119  1  0  0  0
 46120  1  0  0  0
 47121  1  0  0  0
 47122  1  0  0  0
 48 56  1  0  0  0
 48 65  1  0  0  0
 48123  1  0  0  0
 49 50  1  0  0  0
 49 53  1  0  0  0
 49 64  1  0  0  0
 49124  1  0  0  0
 50 51  1  0  0  0
 50125  1  0  0  0
 50126  1  0  0  0
 51 52  1  0  0  0
 51127  1  0  0  0
 51128  1  0  0  0
 52129  1  0  0  0
 52130  1  0  0  0
 53 54  1  0  0  0
 54 55  2  0  0  0
 54131  1  0  0  0
 55 57  1  0  0  0
 55132  1  0  0  0
 56 69  2  0  0  0
 57 58  2  0  0  0
 57133  1  0  0  0
 58134  1  0  0  0
 59 60  1  0  0  0
 59 61  1  0  0  0
 59 62  1  0  0  0
 60135  1  0  0  0
 60136  1  0  0  0
 60137  1  0  0  0
 61138  1  0  0  0
 61139  1  0  0  0
 61140  1  0  0  0
 62141  1  0  0  0
 62142  1  0  0  0
 62143  1  0  0  0
 63 65  1  0  0  0
 63144  1  0  0  0
 63145  1  0  0  0
 63146  1  0  0  0
 64147  1  0  0  0
 65148  1  0  0  0
 68 82  1  0  0  0
 71 72  2  0  0  0
 71 86  1  0  0  0
 71149  1  0  0  0
 72 83  1  0  0  0
 72 87  1  0  0  0
 73 74  1  0  0  0
 73 75  1  0  0  0
 73 87  2  0  0  0
 74 79  1  0  0  0
 74 86  2  0  0  0
 75150  1  0  0  0
 75151  1  0  0  0
 75152  1  0  0  0
 76153  1  0  0  0
 76154  1  0  0  0
 76155  1  0  0  0
 76 83  1  0  0  0
 77156  1  0  0  0
 77157  1  0  0  0
 77158  1  0  0  0
 77 85  1  0  0  0
 78 85  1  0  0  0
 78159  1  0  0  0
 78160  1  0  0  0
 78161  1  0  0  0
 79 80  1  0  0  0
 79162  1  0  0  0
 79163  1  0  0  0
 80 81  1  0  0  0
 80164  1  0  0  0
 80165  1  0  0  0
 81 82  1  0  0  0
 81166  1  0  0  0
 81167  1  0  0  0
 82168  1  0  0  0
 82169  1  0  0  0
 83 85  1  0  0  0
 83170  1  0  0  0
 84 85  1  0  0  0
 84 88  1  0  0  0
 84 89  1  0  0  0
M  ISO  4   1 100  68 101  82 101  84 100
M  END
> <chiral flag>
0

> <version>
0

> <s_m_source_file>
/data/baiqing/PycharmProjects/Reinvent-master-3.2/result/LINK_invent/BTK/process_docking_weight1_custom_sum_contain_oxygen_bond_distance_aromatic_linkinvent_7_9_3/rearranged_h_0071.sdf

> <i_m_source_file_index>
74

> <r_mmod_Potential_Energy-OPLS-2005>
165.313369750977

> <r_mmod_Stretch_Energy-OPLS-2005>
51.8326950073242

> <r_mmod_Bend_Energy-OPLS-2005>
121.30591583252

> <r_mmod_Torsional_Energy-OPLS-2005>
192.513916015625

> <r_mmod_Improper_Torsional_Energy-OPLS-2005>
4.24826526641846

> <r_mmod_Van_der_Waal_Energy-OPLS-2005>
190.502487182617

> <r_mmod_Electrostatic_Energy-OPLS-2005>
-227.518539428711

> <r_mmod_Solvation_Energy-OPLS-2005>
-190.433334350586

> <b_mmod_Minimization_Converged-OPLS-2005>
0

> <r_mmod_RMS_Derivative-OPLS-2005>
2.98943662643433

$$$$
76
                    3D
 Structure written by MMmdl.
175183  0  0  1  0            999 V2000
  -30.7029  -14.4040   20.6151 C   0  0  0  0  0  0
  -30.4300  -12.2793   19.4092 C   0  0  0  0  0  0
  -29.4956  -12.5107   18.2027 C   0  0  0  0  0  0
  -28.0118  -12.3782   18.6084 C   0  0  0  0  0  0
  -27.6684  -13.1918   19.8846 C   0  0  2  0  0  0
  -28.7079  -12.9179   20.9975 C   0  0  0  0  0  0
  -25.2618  -13.8103   20.5646 C   0  0  0  0  0  0
  -24.1850  -13.0440   20.9170 C   0  0  0  0  0  0
  -24.6365  -11.6897   20.8731 C   0  0  0  0  0  0
  -23.9021  -10.4298   21.0369 C   0  0  0  0  0  0
  -24.3597   -9.4229   21.9152 C   0  0  0  0  0  0
  -23.6292   -8.2252   22.0724 C   0  0  0  0  0  0
  -22.4261   -8.0291   21.3529 C   0  0  0  0  0  0
  -21.9879   -9.0248   20.4624 C   0  0  0  0  0  0
  -22.7190  -10.2131   20.3024 C   0  0  0  0  0  0
  -21.6844   -6.0766   22.5302 C   0  0  0  0  0  0
  -21.4017   -6.5664   23.8233 C   0  0  0  0  0  0
  -21.3634   -5.6816   24.9183 C   0  0  0  0  0  0
  -21.6027   -4.3076   24.7222 C   0  0  0  0  0  0
  -21.8826   -3.8178   23.4338 C   0  0  0  0  0  0
  -21.9177   -4.7004   22.3401 C   0  0  0  0  0  0
  -22.7864  -13.5222   21.1845 C   0  0  0  0  0  0
  -22.1654   -4.2212   21.0989 F   0  0  0  0  0  0
  -21.5605   -3.4538   25.7718 F   0  0  0  0  0  0
  -30.0479  -13.2255   20.4636 N   0  0  0  0  0  0
  -26.3044  -12.9264   20.3379 N   0  0  0  0  0  0
  -25.9305  -11.6448   20.5797 N   0  0  0  0  0  0
  -22.0490  -12.8220   22.0387 N   0  0  0  0  0  0
  -25.4356  -15.1818   20.4034 N   0  0  0  0  0  0
  -31.7892  -14.6586   20.0871 O   0  0  0  0  0  0
  -21.6625   -6.8903   21.4259 O   0  0  0  0  0  0
  -22.3580  -14.5548   20.6723 O   0  0  0  0  0  0
  -24.6143  -31.8705   23.2171 C   0  0  0  0  0  0
  -25.9052  -32.4837   23.8448 C   0  0  1  0  0  0
  -27.2413  -27.4588   20.0713 C   0  0  0  0  0  0
  -25.5926  -33.8648   24.2336 N   0  0  0  0  0  0
  -23.3998  -30.4994   21.5564 C   0  0  2  0  0  0
  -24.8428  -28.9704   20.1239 C   0  0  0  0  0  0
  -22.7386  -29.4715   22.5027 C   0  0  0  0  0  0
  -18.0281  -28.1375   22.8498 C   0  0  0  0  0  0
  -24.1485  -36.7308   23.2641 C   0  0  0  0  0  0
  -25.9327  -30.8361   21.3765 C   0  0  0  0  0  0
  -26.0076  -29.4787   20.7142 C   0  0  0  0  0  0
  -27.2068  -28.7289   20.6888 C   0  0  0  0  0  0
  -26.0442  -26.9648   19.4872 C   0  0  0  0  0  0
  -24.8548  -27.7067   19.5197 C   0  0  0  0  0  0
  -23.6042  -29.8339   20.1717 C   0  0  0  0  0  0
  -25.4122  -36.3117   24.0322 C   0  0  1  0  0  0
  -20.5877  -28.3661   23.1317 C   0  0  2  0  0  0
  -20.6787  -26.9404   22.5394 C   0  0  0  0  0  0
  -19.5752  -26.6386   21.5205 C   0  0  0  0  0  0
  -18.1932  -26.7924   22.1619 C   0  0  0  0  0  0
  -19.1536  -28.8831   23.2902 C   0  0  0  0  0  0
  -18.9467  -30.1443   23.8892 C   0  0  0  0  0  0
  -17.6469  -30.6581   24.0564 C   0  0  0  0  0  0
  -25.9039  -34.9480   23.5109 C   0  0  0  0  0  0
  -16.5358  -29.9070   23.6343 C   0  0  0  0  0  0
  -16.7273  -28.6496   23.0353 C   0  0  0  0  0  0
  -26.4461  -31.6648   25.0788 C   0  0  0  0  0  0
  -25.3702  -31.3796   26.1512 C   0  0  0  0  0  0
  -27.0315  -30.3076   24.6255 C   0  0  0  0  0  0
  -27.6034  -32.4379   25.7533 C   0  0  0  0  0  0
  -27.5575  -37.1825   24.8464 C   0  0  0  0  0  0
  -21.4123  -29.3043   22.3720 N   0  0  0  0  0  0
  -26.4301  -37.3803   23.9390 N   0  0  0  0  0  0
  -24.6661  -31.0839   22.1056 N   0  0  0  0  0  0
  -23.4153  -28.8288   23.3095 O   0  0  0  0  0  0
  -28.4278  -26.7428   20.0558 O   0  0  0  0  0  0
  -26.5584  -34.8935   22.4655 O   0  0  0  0  0  0
  -23.5342  -32.1451   23.7582 O   0  0  0  0  0  0
  -29.2537  -19.5812   20.1756 C   0  0  0  0  0  0
  -28.6658  -20.6799   19.6012 C   0  0  0  0  0  0
  -28.3511  -18.9157   18.2463 C   0  0  0  0  0  0
  -26.9201  -22.3776   19.7740 C   0  0  0  0  0  0
  -28.6166  -22.1278   21.6189 C   0  0  0  0  0  0
  -26.2257  -17.7907   17.5685 C   0  0  0  0  0  0
  -28.3701  -16.8522   16.6785 C   0  0  0  0  0  0
  -27.5505  -19.0428   15.8558 C   0  0  0  0  0  0
  -29.5627  -24.5086   19.9168 C   0  0  0  0  0  0
  -29.4005  -23.0629   19.3672 C   0  0  0  0  0  0
  -29.3328  -17.0913   19.6252 C   0  0  0  0  0  0
  -30.0524  -16.7843   20.9599 C   0  0  0  0  0  0
  -28.3055  -25.3603   19.7234 C   0  0  0  0  0  0
  -28.4110  -22.0887   20.0888 C   0  0  0  0  0  0
  -27.6574  -18.1515   17.1166 C   0  0  0  0  0  0
  -29.0099  -18.5022   19.3543 N   0  0  0  0  0  0
  -28.2052  -20.2357   18.3905 N   0  3  0  0  0  0
  -29.9794  -15.3489   21.2274 N   0  0  0  0  0  0
  -31.4734  -12.3904   19.1037 H   0  0  0  0  0  0
  -30.3378  -11.2586   19.7834 H   0  0  0  0  0  0
  -29.7241  -11.7995   17.4072 H   0  0  0  0  0  0
  -29.6775  -13.5052   17.7861 H   0  0  0  0  0  0
  -27.8009  -11.3201   18.7731 H   0  0  0  0  0  0
  -27.3657  -12.6807   17.7828 H   0  0  0  0  0  0
  -27.7286  -14.2463   19.6225 H   0  0  0  0  0  0
  -28.6752  -11.8672   21.2935 H   0  0  0  0  0  0
  -28.4637  -13.4698   21.9056 H   0  0  0  0  0  0
  -25.2743   -9.5728   22.4722 H   0  0  0  0  0  0
  -24.0011   -7.4630   22.7437 H   0  0  0  0  0  0
  -21.0807   -8.8738   19.8941 H   0  0  0  0  0  0
  -22.3625  -10.9643   19.6126 H   0  0  0  0  0  0
  -21.2033   -7.6176   23.9753 H   0  0  0  0  0  0
  -21.1432   -6.0544   25.9092 H   0  0  0  0  0  0
  -22.0615   -2.7654   23.2820 H   0  0  0  0  0  0
  -22.4094  -11.9854   22.4741 H   0  0  0  0  0  0
  -21.1098  -13.1240   22.2579 H   0  0  0  0  0  0
  -24.6712  -15.8375   20.5153 H   0  0  0  0  0  0
  -26.2923  -15.6173   20.0972 H   0  0  0  0  0  0
  -26.7143  -32.5513   23.1233 H   0  0  0  0  0  0
  -25.0127  -33.9854   25.0513 H   0  0  0  0  0  0
  -22.6887  -31.3172   21.4197 H   0  0  0  0  0  0
  -23.3747  -35.9640   23.3316 H   0  0  0  0  0  0
  -24.3588  -36.8894   22.2055 H   0  0  0  0  0  0
  -23.7243  -37.6524   23.6634 H   0  0  0  0  0  0
  -26.0716  -31.6153   20.6263 H   0  0  0  0  0  0
  -26.8068  -30.8616   22.0154 H   0  0  0  0  0  0
  -28.1062  -29.1220   21.1422 H   0  0  0  0  0  0
  -25.9880  -26.0068   18.9929 H   0  0  0  0  0  0
  -23.9577  -27.2981   19.0741 H   0  0  0  0  0  0
  -23.7127  -30.6046   19.4073 H   0  0  0  0  0  0
  -22.7241  -29.2533   19.8830 H   0  0  0  0  0  0
  -25.1317  -36.1972   25.0818 H   0  0  0  0  0  0
  -20.9993  -28.3231   24.1432 H   0  0  0  0  0  0
  -20.5731  -26.2274   23.3584 H   0  0  0  0  0  0
  -21.6659  -26.7485   22.1163 H   0  0  0  0  0  0
  -19.6922  -25.6304   21.1220 H   0  0  0  0  0  0
  -19.6690  -27.3211   20.6747 H   0  0  0  0  0  0
  -17.4211  -26.6679   21.4003 H   0  0  0  0  0  0
  -18.0315  -26.0055   22.9000 H   0  0  0  0  0  0
  -19.7943  -30.7263   24.2239 H   0  0  0  0  0  0
  -17.5028  -31.6267   24.5146 H   0  0  0  0  0  0
  -15.5357  -30.2961   23.7693 H   0  0  0  0  0  0
  -15.8671  -28.0815   22.7065 H   0  0  0  0  0  0
  -24.5844  -30.7188   25.7828 H   0  0  0  0  0  0
  -24.8958  -32.2982   26.4966 H   0  0  0  0  0  0
  -25.8021  -30.8933   27.0262 H   0  0  0  0  0  0
  -26.2919  -29.6844   24.1224 H   0  0  0  0  0  0
  -27.3922  -29.7341   25.4805 H   0  0  0  0  0  0
  -27.8804  -30.4364   23.9545 H   0  0  0  0  0  0
  -27.2634  -33.3646   26.2170 H   0  0  0  0  0  0
  -28.3796  -32.7003   25.0329 H   0  0  0  0  0  0
  -28.0741  -31.8476   26.5401 H   0  0  0  0  0  0
  -28.2624  -38.0103   24.7511 H   0  0  0  0  0  0
  -28.1036  -36.2636   24.6277 H   0  0  0  0  0  0
  -27.2287  -37.1458   25.8870 H   0  0  0  0  0  0
  -20.9258  -29.8712   21.6916 H   0  0  0  0  0  0
  -26.0167  -38.2868   24.1392 H   0  0  0  0  0  0
  -29.7530  -19.4952   21.1302 H   0  0  0  0  0  0
  -26.2890  -21.5587   20.1202 H   0  0  0  0  0  0
  -26.7368  -22.4924   18.7056 H   0  0  0  0  0  0
  -26.5161  -23.2509   20.2682 H   0  0  0  0  0  0
  -27.9866  -21.3939   22.1214 H   0  0  0  0  0  0
  -28.3590  -23.0969   22.0482 H   0  0  0  0  0  0
  -29.6482  -21.9144   21.8906 H   0  0  0  0  0  0
  -26.2341  -17.1247   18.4329 H   0  0  0  0  0  0
  -25.6693  -17.2849   16.7774 H   0  0  0  0  0  0
  -25.6500  -18.6747   17.8489 H   0  0  0  0  0  0
  -28.3093  -16.0581   17.4204 H   0  0  0  0  0  0
  -29.4195  -17.0187   16.4367 H   0  0  0  0  0  0
  -27.8978  -16.4421   15.7847 H   0  0  0  0  0  0
  -26.9902  -19.9618   16.0322 H   0  0  0  0  0  0
  -27.0308  -18.5261   15.0473 H   0  0  0  0  0  0
  -28.5369  -19.3205   15.4781 H   0  0  0  0  0  0
  -30.3848  -24.9911   19.3881 H   0  0  0  0  0  0
  -29.8655  -24.4993   20.9645 H   0  0  0  0  0  0
  -30.3939  -22.6103   19.4016 H   0  0  0  0  0  0
  -29.1599  -23.1141   18.3046 H   0  0  0  0  0  0
  -28.3850  -16.5535   19.5899 H   0  0  0  0  0  0
  -29.9604  -16.7371   18.8065 H   0  0  0  0  0  0
  -31.0891  -17.1235   20.9351 H   0  0  0  0  0  0
  -29.5644  -17.2887   21.7935 H   0  0  0  0  0  0
  -27.5434  -24.9723   20.3899 H   0  0  0  0  0  0
  -27.9809  -25.2495   18.6875 H   0  0  0  0  0  0
  -27.7268  -20.8153   17.7147 H   0  0  0  0  0  0
  -29.1313  -15.0229   21.6681 H   0  0  0  0  0  0
  1 25  1  0  0  0
  1 30  2  0  0  0
  1 88  1  0  0  0
  2  3  1  0  0  0
  2 25  1  0  0  0
  2 89  1  0  0  0
  2 90  1  0  0  0
  3  4  1  0  0  0
  3 91  1  0  0  0
  3 92  1  0  0  0
  4  5  1  0  0  0
  4 93  1  0  0  0
  4 94  1  0  0  0
  5  6  1  0  0  0
  5 26  1  0  0  0
  5 95  1  0  0  0
  6 25  1  0  0  0
  6 96  1  0  0  0
  6 97  1  0  0  0
  7  8  2  0  0  0
  7 26  1  0  0  0
  7 29  1  0  0  0
  8  9  1  0  0  0
  8 22  1  0  0  0
  9 10  1  0  0  0
  9 27  2  0  0  0
 10 11  2  0  0  0
 10 15  1  0  0  0
 11 12  1  0  0  0
 11 98  1  0  0  0
 12 13  2  0  0  0
 12 99  1  0  0  0
 13 14  1  0  0  0
 13 31  1  0  0  0
 14 15  2  0  0  0
 14100  1  0  0  0
 15101  1  0  0  0
 16 17  2  0  0  0
 16 21  1  0  0  0
 16 31  1  0  0  0
 17 18  1  0  0  0
 17102  1  0  0  0
 18 19  2  0  0  0
 18103  1  0  0  0
 19 20  1  0  0  0
 19 24  1  0  0  0
 20 21  2  0  0  0
 20104  1  0  0  0
 21 23  1  0  0  0
 22 28  1  0  0  0
 22 32  2  0  0  0
 26 27  1  0  0  0
 28105  1  0  0  0
 28106  1  0  0  0
 29107  1  0  0  0
 29108  1  0  0  0
 33 34  1  0  0  0
 33 66  1  0  0  0
 33 70  2  0  0  0
 34 36  1  0  0  0
 34 59  1  0  0  0
 34109  1  0  0  0
 35 44  2  0  0  0
 35 45  1  0  0  0
 35 68  1  0  0  0
 36 56  1  0  0  0
 36110  1  0  0  0
 37 39  1  0  0  0
 37 47  1  0  0  0
 37 66  1  0  0  0
 37111  1  0  0  0
 38 43  2  0  0  0
 38 46  1  0  0  0
 38 47  1  0  0  0
 39 64  1  0  0  0
 39 67  2  0  0  0
 40 52  1  0  0  0
 40 53  2  0  0  0
 40 58  1  0  0  0
 41112  1  0  0  0
 41113  1  0  0  0
 41114  1  0  0  0
 41 48  1  0  0  0
 42 43  1  0  0  0
 42 66  1  0  0  0
 42115  1  0  0  0
 42116  1  0  0  0
 43 44  1  0  0  0
 44117  1  0  0  0
 45 46  2  0  0  0
 45118  1  0  0  0
 46119  1  0  0  0
 47120  1  0  0  0
 47121  1  0  0  0
 48 56  1  0  0  0
 48 65  1  0  0  0
 48122  1  0  0  0
 49 50  1  0  0  0
 49 53  1  0  0  0
 49 64  1  0  0  0
 49123  1  0  0  0
 50 51  1  0  0  0
 50124  1  0  0  0
 50125  1  0  0  0
 51 52  1  0  0  0
 51126  1  0  0  0
 51127  1  0  0  0
 52128  1  0  0  0
 52129  1  0  0  0
 53 54  1  0  0  0
 54 55  2  0  0  0
 54130  1  0  0  0
 55 57  1  0  0  0
 55131  1  0  0  0
 56 69  2  0  0  0
 57 58  2  0  0  0
 57132  1  0  0  0
 58133  1  0  0  0
 59 60  1  0  0  0
 59 61  1  0  0  0
 59 62  1  0  0  0
 60134  1  0  0  0
 60135  1  0  0  0
 60136  1  0  0  0
 61137  1  0  0  0
 61138  1  0  0  0
 61139  1  0  0  0
 62140  1  0  0  0
 62141  1  0  0  0
 62142  1  0  0  0
 63 65  1  0  0  0
 63143  1  0  0  0
 63144  1  0  0  0
 63145  1  0  0  0
 64146  1  0  0  0
 65147  1  0  0  0
 68 83  1  0  0  0
 71 72  2  0  0  0
 71 86  1  0  0  0
 71148  1  0  0  0
 72 84  1  0  0  0
 72 87  1  0  0  0
 73 85  1  0  0  0
 73 86  1  0  0  0
 73 87  2  0  0  0
 74149  1  0  0  0
 74150  1  0  0  0
 74151  1  0  0  0
 74 84  1  0  0  0
 75 84  1  0  0  0
 75152  1  0  0  0
 75153  1  0  0  0
 75154  1  0  0  0
 76155  1  0  0  0
 76156  1  0  0  0
 76157  1  0  0  0
 76 85  1  0  0  0
 77 85  1  0  0  0
 77158  1  0  0  0
 77159  1  0  0  0
 77160  1  0  0  0
 78 85  1  0  0  0
 78161  1  0  0  0
 78162  1  0  0  0
 78163  1  0  0  0
 79 80  1  0  0  0
 79 83  1  0  0  0
 79164  1  0  0  0
 79165  1  0  0  0
 80 84  1  0  0  0
 80166  1  0  0  0
 80167  1  0  0  0
 81 82  1  0  0  0
 81 86  1  0  0  0
 81168  1  0  0  0
 81169  1  0  0  0
 82 88  1  0  0  0
 82170  1  0  0  0
 82171  1  0  0  0
 83172  1  0  0  0
 83173  1  0  0  0
 87174  1  0  0  0
 88175  1  0  0  0
M  CHG  1  87   1
M  ISO  4   1 100  68 101  83 101  88 100
M  END
> <chiral flag>
0

> <version>
0

> <s_m_source_file>
/data/baiqing/PycharmProjects/Reinvent-master-3.2/result/LINK_invent/BTK/process_docking_weight1_custom_sum_contain_oxygen_bond_distance_aromatic_linkinvent_7_9_3/rearranged_h_0071.sdf

> <i_m_source_file_index>
75

> <r_mmod_Potential_Energy-OPLS-2005>
-103.276489257812

> <r_mmod_Stretch_Energy-OPLS-2005>
38.5155830383301

> <r_mmod_Bend_Energy-OPLS-2005>
117.88306427002

> <r_mmod_Torsional_Energy-OPLS-2005>
251.962646484375

> <r_mmod_Improper_Torsional_Energy-OPLS-2005>
6.51949739456177

> <r_mmod_Van_der_Waal_Energy-OPLS-2005>
146.812881469727

> <r_mmod_Electrostatic_Energy-OPLS-2005>
-265.147888183594

> <r_mmod_Solvation_Energy-OPLS-2005>
-408.644348144531

> <b_mmod_Minimization_Converged-OPLS-2005>
0

> <r_mmod_RMS_Derivative-OPLS-2005>
3.65084981918335

$$$$
77
                    3D
 Structure written by MMmdl.
169177  0  0  1  0            999 V2000
  -30.4757  -15.0361   20.4136 C   0  0  0  0  0  0
  -30.4479  -12.6572   19.4707 C   0  0  0  0  0  0
  -29.5180  -12.5353   18.2406 C   0  0  0  0  0  0
  -28.0546  -12.3065   18.6712 C   0  0  0  0  0  0
  -27.6193  -13.2477   19.8243 C   0  0  2  0  0  0
  -28.6675  -13.3070   20.9491 C   0  0  0  0  0  0
  -25.2426  -13.8194   20.5725 C   0  0  0  0  0  0
  -24.1758  -13.0412   20.9260 C   0  0  0  0  0  0
  -24.6391  -11.6908   20.8773 C   0  0  0  0  0  0
  -23.9077  -10.4285   21.0423 C   0  0  0  0  0  0
  -24.3633   -9.4199   21.9195 C   0  0  0  0  0  0
  -23.6305   -8.2233   22.0753 C   0  0  0  0  0  0
  -22.4276   -8.0285   21.3551 C   0  0  0  0  0  0
  -21.9923   -9.0254   20.4643 C   0  0  0  0  0  0
  -22.7257  -10.2132   20.3061 C   0  0  0  0  0  0
  -21.6845   -6.0749   22.5284 C   0  0  0  0  0  0
  -21.4012   -6.5650   23.8220 C   0  0  0  0  0  0
  -21.3657   -5.6798   24.9179 C   0  0  0  0  0  0
  -21.6042   -4.3062   24.7227 C   0  0  0  0  0  0
  -21.8814   -3.8158   23.4343 C   0  0  0  0  0  0
  -21.9194   -4.6979   22.3403 C   0  0  0  0  0  0
  -22.7776  -13.5181   21.1909 C   0  0  0  0  0  0
  -22.1661   -4.2166   21.0978 F   0  0  0  0  0  0
  -21.5628   -3.4545   25.7738 F   0  0  0  0  0  0
  -29.9150  -13.7593   20.3198 N   0  0  0  0  0  0
  -26.2844  -12.9432   20.3220 N   0  0  0  0  0  0
  -25.9321  -11.6564   20.5739 N   0  0  0  0  0  0
  -22.0439  -12.8159   22.0465 N   0  0  0  0  0  0
  -25.4047  -15.1928   20.4144 N   0  0  0  0  0  0
  -31.7075  -15.1053   20.3278 O   0  0  0  0  0  0
  -21.6631   -6.8890   21.4247 O   0  0  0  0  0  0
  -22.3464  -14.5485   20.6750 O   0  0  0  0  0  0
  -24.6480  -31.8400   23.1809 C   0  0  0  0  0  0
  -25.9229  -32.4679   23.8224 C   0  0  1  0  0  0
  -27.2165  -27.0636   20.1858 C   0  0  0  0  0  0
  -25.5968  -33.8483   24.2159 N   0  0  0  0  0  0
  -23.4547  -30.4528   21.5289 C   0  0  2  0  0  0
  -24.9035  -28.8532   20.1231 C   0  0  0  0  0  0
  -22.7583  -29.4526   22.4857 C   0  0  0  0  0  0
  -18.0313  -28.1387   22.8490 C   0  0  0  0  0  0
  -24.1482  -36.7216   23.2650 C   0  0  0  0  0  0
  -26.0140  -30.6881   21.3890 C   0  0  0  0  0  0
  -26.0830  -29.2876   20.7417 C   0  0  0  0  0  0
  -27.2421  -28.4138   20.7433 C   0  0  0  0  0  0
  -26.0090  -26.7344   19.5392 C   0  0  0  0  0  0
  -24.8823  -27.5918   19.5051 C   0  0  0  0  0  0
  -23.6857  -29.7693   20.1538 C   0  0  0  0  0  0
  -25.4113  -36.3011   24.0324 C   0  0  1  0  0  0
  -20.5927  -28.3710   23.1240 C   0  0  2  0  0  0
  -20.6788  -26.9417   22.5406 C   0  0  0  0  0  0
  -19.5761  -26.6371   21.5223 C   0  0  0  0  0  0
  -18.1944  -26.7931   22.1631 C   0  0  0  0  0  0
  -19.1568  -28.8872   23.2857 C   0  0  0  0  0  0
  -18.9492  -30.1467   23.8877 C   0  0  0  0  0  0
  -17.6487  -30.6594   24.0551 C   0  0  0  0  0  0
  -25.9073  -34.9403   23.5050 C   0  0  0  0  0  0
  -16.5380  -29.9081   23.6344 C   0  0  0  0  0  0
  -16.7295  -28.6496   23.0381 C   0  0  0  0  0  0
  -26.4527  -31.6574   25.0701 C   0  0  0  0  0  0
  -25.3692  -31.3783   26.1388 C   0  0  0  0  0  0
  -27.0397  -30.2967   24.6313 C   0  0  0  0  0  0
  -27.6045  -32.4361   25.7481 C   0  0  0  0  0  0
  -27.5560  -37.1760   24.8474 C   0  0  0  0  0  0
  -21.4277  -29.3032   22.3606 N   0  0  0  0  0  0
  -26.4260  -37.3741   23.9434 N   0  0  0  0  0  0
  -24.7265  -31.0176   22.0879 N   0  0  0  0  0  0
  -23.4211  -28.8097   23.3040 O   0  0  0  0  0  0
  -28.3022  -26.0979   20.1340 O   0  0  0  0  0  0
  -26.5663  -34.8924   22.4628 O   0  0  0  0  0  0
  -23.5582  -32.1317   23.6978 O   0  0  0  0  0  0
  -31.0422  -19.5888   20.7192 C   0  0  0  0  0  0
  -29.7117  -19.2028   20.5686 C   0  0  0  0  0  0
  -31.3832  -20.9548   20.7854 C   0  0  0  0  0  0
  -29.1834  -21.6706   20.4503 C   0  0  0  0  0  0
  -27.9841  -17.5484   21.5964 C   0  0  0  0  0  0
  -33.7795  -20.2439   21.3726 C   0  0  0  0  0  0
  -32.8125  -22.3165   22.3460 C   0  0  0  0  0  0
  -33.3839  -22.1977   19.8837 C   0  0  0  0  0  0
  -26.8219  -22.6451   20.0211 C   0  0  0  0  0  0
  -28.6793  -23.2528   18.4718 C   0  0  0  0  0  0
  -28.3606  -24.6041   20.6829 C   0  0  0  0  0  0
  -29.3939  -17.6097   20.9912 C   0  0  2  0  0  0
  -32.8194  -21.4217   21.0886 C   0  0  0  0  0  0
  -28.3108  -23.0345   19.9494 C   0  0  0  0  0  0
  -28.8014  -20.3018   20.3933 N   0  0  0  0  0  0
  -30.4692  -21.9427   20.6348 N   0  0  0  0  0  0
  -29.6459  -16.2004   20.2794 N   0  0  0  0  0  0
  -31.4694  -12.8610   19.1465 H   0  0  0  0  0  0
  -30.4882  -11.7180   20.0245 H   0  0  0  0  0  0
  -29.8500  -11.7252   17.5906 H   0  0  0  0  0  0
  -29.5835  -13.4484   17.6459 H   0  0  0  0  0  0
  -27.9656  -11.2692   18.9949 H   0  0  0  0  0  0
  -27.3846  -12.4146   17.8173 H   0  0  0  0  0  0
  -27.5668  -14.2413   19.3798 H   0  0  0  0  0  0
  -28.7874  -12.3367   21.4344 H   0  0  0  0  0  0
  -28.3577  -14.0107   21.7248 H   0  0  0  0  0  0
  -25.2784   -9.5667   22.4773 H   0  0  0  0  0  0
  -24.0025   -7.4610   22.7452 H   0  0  0  0  0  0
  -21.0866   -8.8756   19.8938 H   0  0  0  0  0  0
  -22.3716  -10.9669   19.6167 H   0  0  0  0  0  0
  -21.2000   -7.6156   23.9730 H   0  0  0  0  0  0
  -21.1484   -6.0526   25.9080 H   0  0  0  0  0  0
  -22.0598   -2.7624   23.2829 H   0  0  0  0  0  0
  -22.4079  -11.9825   22.4848 H   0  0  0  0  0  0
  -21.1056  -13.1158   22.2685 H   0  0  0  0  0  0
  -24.6309  -15.8384   20.5297 H   0  0  0  0  0  0
  -26.2421  -15.6416   20.0713 H   0  0  0  0  0  0
  -26.7302  -32.5259   23.0949 H   0  0  0  0  0  0
  -25.0153  -33.9595   25.0339 H   0  0  0  0  0  0
  -22.7601  -31.2802   21.3641 H   0  0  0  0  0  0
  -23.3782  -35.9513   23.3298 H   0  0  0  0  0  0
  -24.3552  -36.8855   22.2065 H   0  0  0  0  0  0
  -23.7211  -37.6392   23.6689 H   0  0  0  0  0  0
  -26.1753  -31.4331   20.6078 H   0  0  0  0  0  0
  -26.8826  -30.7442   22.0328 H   0  0  0  0  0  0
  -28.1512  -28.7544   21.2175 H   0  0  0  0  0  0
  -25.9282  -25.7715   19.0545 H   0  0  0  0  0  0
  -23.9831  -27.2531   19.0083 H   0  0  0  0  0  0
  -23.8347  -30.5385   19.3954 H   0  0  0  0  0  0
  -22.7983  -29.2174   19.8399 H   0  0  0  0  0  0
  -25.1306  -36.1822   25.0818 H   0  0  0  0  0  0
  -21.0021  -28.3296   24.1360 H   0  0  0  0  0  0
  -20.5693  -26.2331   23.3625 H   0  0  0  0  0  0
  -21.6655  -26.7418   22.1204 H   0  0  0  0  0  0
  -19.6923  -25.6277   21.1270 H   0  0  0  0  0  0
  -19.6696  -27.3174   20.6760 H   0  0  0  0  0  0
  -17.4219  -26.6713   21.4025 H   0  0  0  0  0  0
  -18.0310  -26.0058   22.9015 H   0  0  0  0  0  0
  -19.7976  -30.7281   24.2243 H   0  0  0  0  0  0
  -17.5054  -31.6281   24.5140 H   0  0  0  0  0  0
  -15.5386  -30.2981   23.7672 H   0  0  0  0  0  0
  -15.8700  -28.0791   22.7130 H   0  0  0  0  0  0
  -24.5877  -30.7128   25.7701 H   0  0  0  0  0  0
  -24.8865  -32.2968   26.4737 H   0  0  0  0  0  0
  -25.7953  -30.9003   27.0217 H   0  0  0  0  0  0
  -26.3028  -29.6686   24.1303 H   0  0  0  0  0  0
  -27.4001  -29.7274   25.4893 H   0  0  0  0  0  0
  -27.8941  -30.4215   23.9654 H   0  0  0  0  0  0
  -27.2649  -33.3714   26.1947 H   0  0  0  0  0  0
  -28.3894  -32.6856   25.0326 H   0  0  0  0  0  0
  -28.0673  -31.8567   26.5474 H   0  0  0  0  0  0
  -28.2580  -38.0053   24.7511 H   0  0  0  0  0  0
  -28.1052  -36.2584   24.6306 H   0  0  0  0  0  0
  -27.2270  -37.1405   25.8873 H   0  0  0  0  0  0
  -20.9500  -29.8723   21.6751 H   0  0  0  0  0  0
  -26.0128  -38.2805   24.1454 H   0  0  0  0  0  0
  -31.7714  -18.8121   20.8946 H   0  0  0  0  0  0
  -27.7795  -16.5813   22.0556 H   0  0  0  0  0  0
  -27.2248  -17.7327   20.8371 H   0  0  0  0  0  0
  -27.8633  -18.3072   22.3706 H   0  0  0  0  0  0
  -33.4575  -19.6625   22.2382 H   0  0  0  0  0  0
  -34.7883  -20.5971   21.5841 H   0  0  0  0  0  0
  -33.8554  -19.5704   20.5192 H   0  0  0  0  0  0
  -32.3701  -21.7951   23.1957 H   0  0  0  0  0  0
  -32.2332  -23.2269   22.1884 H   0  0  0  0  0  0
  -33.8193  -22.6186   22.6331 H   0  0  0  0  0  0
  -33.4114  -21.5704   18.9919 H   0  0  0  0  0  0
  -34.3989  -22.5459   20.0747 H   0  0  0  0  0  0
  -32.7773  -23.0718   19.6489 H   0  0  0  0  0  0
  -26.6070  -21.7552   19.4295 H   0  0  0  0  0  0
  -26.1829  -23.4463   19.6545 H   0  0  0  0  0  0
  -26.5290  -22.4313   21.0494 H   0  0  0  0  0  0
  -28.5069  -22.3495   17.8852 H   0  0  0  0  0  0
  -29.7338  -23.5095   18.3734 H   0  0  0  0  0  0
  -28.0986  -24.0612   18.0285 H   0  0  0  0  0  0
  -29.3524  -24.6120   21.1353 H   0  0  0  0  0  0
  -27.7034  -24.5769   21.5533 H   0  0  0  0  0  0
  -30.0485  -17.4922   21.8553 H   0  0  0  0  0  0
  -28.7816  -15.9224   19.8458 H   0  0  0  0  0  0
  1 25  1  0  0  0
  1 30  2  0  0  0
  1 87  1  0  0  0
  2  3  1  0  0  0
  2 25  1  0  0  0
  2 88  1  0  0  0
  2 89  1  0  0  0
  3  4  1  0  0  0
  3 90  1  0  0  0
  3 91  1  0  0  0
  4  5  1  0  0  0
  4 92  1  0  0  0
  4 93  1  0  0  0
  5  6  1  0  0  0
  5 26  1  0  0  0
  5 94  1  0  0  0
  6 25  1  0  0  0
  6 95  1  0  0  0
  6 96  1  0  0  0
  7  8  2  0  0  0
  7 26  1  0  0  0
  7 29  1  0  0  0
  8  9  1  0  0  0
  8 22  1  0  0  0
  9 10  1  0  0  0
  9 27  2  0  0  0
 10 11  2  0  0  0
 10 15  1  0  0  0
 11 12  1  0  0  0
 11 97  1  0  0  0
 12 13  2  0  0  0
 12 98  1  0  0  0
 13 14  1  0  0  0
 13 31  1  0  0  0
 14 15  2  0  0  0
 14 99  1  0  0  0
 15100  1  0  0  0
 16 17  2  0  0  0
 16 21  1  0  0  0
 16 31  1  0  0  0
 17 18  1  0  0  0
 17101  1  0  0  0
 18 19  2  0  0  0
 18102  1  0  0  0
 19 20  1  0  0  0
 19 24  1  0  0  0
 20 21  2  0  0  0
 20103  1  0  0  0
 21 23  1  0  0  0
 22 28  1  0  0  0
 22 32  2  0  0  0
 26 27  1  0  0  0
 28104  1  0  0  0
 28105  1  0  0  0
 29106  1  0  0  0
 29107  1  0  0  0
 33 34  1  0  0  0
 33 66  1  0  0  0
 33 70  2  0  0  0
 34 36  1  0  0  0
 34 59  1  0  0  0
 34108  1  0  0  0
 35 44  2  0  0  0
 35 45  1  0  0  0
 35 68  1  0  0  0
 36 56  1  0  0  0
 36109  1  0  0  0
 37 39  1  0  0  0
 37 47  1  0  0  0
 37 66  1  0  0  0
 37110  1  0  0  0
 38 43  2  0  0  0
 38 46  1  0  0  0
 38 47  1  0  0  0
 39 64  1  0  0  0
 39 67  2  0  0  0
 40 52  1  0  0  0
 40 53  2  0  0  0
 40 58  1  0  0  0
 41111  1  0  0  0
 41112  1  0  0  0
 41113  1  0  0  0
 41 48  1  0  0  0
 42 43  1  0  0  0
 42 66  1  0  0  0
 42114  1  0  0  0
 42115  1  0  0  0
 43 44  1  0  0  0
 44116  1  0  0  0
 45 46  2  0  0  0
 45117  1  0  0  0
 46118  1  0  0  0
 47119  1  0  0  0
 47120  1  0  0  0
 48 56  1  0  0  0
 48 65  1  0  0  0
 48121  1  0  0  0
 49 50  1  0  0  0
 49 53  1  0  0  0
 49 64  1  0  0  0
 49122  1  0  0  0
 50 51  1  0  0  0
 50123  1  0  0  0
 50124  1  0  0  0
 51 52  1  0  0  0
 51125  1  0  0  0
 51126  1  0  0  0
 52127  1  0  0  0
 52128  1  0  0  0
 53 54  1  0  0  0
 54 55  2  0  0  0
 54129  1  0  0  0
 55 57  1  0  0  0
 55130  1  0  0  0
 56 69  2  0  0  0
 57 58  2  0  0  0
 57131  1  0  0  0
 58132  1  0  0  0
 59 60  1  0  0  0
 59 61  1  0  0  0
 59 62  1  0  0  0
 60133  1  0  0  0
 60134  1  0  0  0
 60135  1  0  0  0
 61136  1  0  0  0
 61137  1  0  0  0
 61138  1  0  0  0
 62139  1  0  0  0
 62140  1  0  0  0
 62141  1  0  0  0
 63 65  1  0  0  0
 63142  1  0  0  0
 63143  1  0  0  0
 63144  1  0  0  0
 64145  1  0  0  0
 65146  1  0  0  0
 68 81  1  0  0  0
 71 72  2  0  0  0
 71 73  1  0  0  0
 71147  1  0  0  0
 72 82  1  0  0  0
 72 85  1  0  0  0
 73 83  1  0  0  0
 73 86  2  0  0  0
 74 84  1  0  0  0
 74 85  2  0  0  0
 74 86  1  0  0  0
 75148  1  0  0  0
 75149  1  0  0  0
 75150  1  0  0  0
 75 82  1  0  0  0
 76151  1  0  0  0
 76152  1  0  0  0
 76153  1  0  0  0
 76 83  1  0  0  0
 77 83  1  0  0  0
 77154  1  0  0  0
 77155  1  0  0  0
 77156  1  0  0  0
 78 83  1  0  0  0
 78157  1  0  0  0
 78158  1  0  0  0
 78159  1  0  0  0
 79160  1  0  0  0
 79161  1  0  0  0
 79162  1  0  0  0
 79 84  1  0  0  0
 80 84  1  0  0  0
 80163  1  0  0  0
 80164  1  0  0  0
 80165  1  0  0  0
 81 84  1  0  0  0
 81166  1  0  0  0
 81167  1  0  0  0
 82 87  1  0  0  0
 82168  1  0  0  0
 87169  1  0  0  0
M  ISO  4   1 100  68 101  81 101  87 100
M  END
> <chiral flag>
0

> <version>
0

> <s_m_source_file>
/data/baiqing/PycharmProjects/Reinvent-master-3.2/result/LINK_invent/BTK/process_docking_weight1_custom_sum_contain_oxygen_bond_distance_aromatic_linkinvent_7_9_3/rearranged_h_0071.sdf

> <i_m_source_file_index>
76

> <r_mmod_Potential_Energy-OPLS-2005>
191.4365234375

> <r_mmod_Stretch_Energy-OPLS-2005>
340.035491943359

> <r_mmod_Bend_Energy-OPLS-2005>
386.010711669922

> <r_mmod_Torsional_Energy-OPLS-2005>
266.437866210938

> <r_mmod_Improper_Torsional_Energy-OPLS-2005>
14.8291549682617

> <r_mmod_Van_der_Waal_Energy-OPLS-2005>
128.69319152832

> <r_mmod_Electrostatic_Energy-OPLS-2005>
-982.449768066406

> <r_mmod_Solvation_Energy-OPLS-2005>
-221.482421875

> <b_mmod_Minimization_Converged-OPLS-2005>
0

> <r_mmod_RMS_Derivative-OPLS-2005>
1.96048665046692

$$$$
78
                    3D
 Structure written by MMmdl.
166174  0  0  1  0            999 V2000
  -30.6826  -14.5296   20.5345 C   0  0  0  0  0  0
  -30.4260  -12.3365   19.4348 C   0  0  0  0  0  0
  -29.4949  -12.5046   18.2145 C   0  0  0  0  0  0
  -28.0171  -12.3560   18.6257 C   0  0  0  0  0  0
  -27.6563  -13.2123   19.8686 C   0  0  2  0  0  0
  -28.7018  -13.0338   20.9951 C   0  0  0  0  0  0
  -25.2565  -13.8159   20.5681 C   0  0  0  0  0  0
  -24.1839  -13.0423   20.9192 C   0  0  0  0  0  0
  -24.6407  -11.6899   20.8747 C   0  0  0  0  0  0
  -23.9062  -10.4293   21.0398 C   0  0  0  0  0  0
  -24.3619   -9.4216   21.9186 C   0  0  0  0  0  0
  -23.6299   -8.2246   22.0754 C   0  0  0  0  0  0
  -22.4286   -8.0292   21.3536 C   0  0  0  0  0  0
  -21.9907   -9.0263   20.4639 C   0  0  0  0  0  0
  -22.7226  -10.2142   20.3049 C   0  0  0  0  0  0
  -21.6860   -6.0750   22.5281 C   0  0  0  0  0  0
  -21.4020   -6.5648   23.8218 C   0  0  0  0  0  0
  -21.3648   -5.6796   24.9172 C   0  0  0  0  0  0
  -21.6037   -4.3061   24.7217 C   0  0  0  0  0  0
  -21.8819   -3.8154   23.4332 C   0  0  0  0  0  0
  -21.9204   -4.6978   22.3397 C   0  0  0  0  0  0
  -22.7870  -13.5223   21.1857 C   0  0  0  0  0  0
  -22.1677   -4.2164   21.0979 F   0  0  0  0  0  0
  -21.5613   -3.4548   25.7725 F   0  0  0  0  0  0
  -30.0295  -13.3383   20.4363 N   0  0  0  0  0  0
  -26.3006  -12.9339   20.3349 N   0  0  0  0  0  0
  -25.9337  -11.6494   20.5780 N   0  0  0  0  0  0
  -22.0522  -12.8208   22.0418 N   0  0  0  0  0  0
  -25.4231  -15.1860   20.4047 N   0  0  0  0  0  0
  -31.8266  -14.7041   20.1064 O   0  0  0  0  0  0
  -21.6639   -6.8890   21.4246 O   0  0  0  0  0  0
  -22.3547  -14.5536   20.6716 O   0  0  0  0  0  0
  -24.6169  -31.8654   23.2069 C   0  0  0  0  0  0
  -25.9053  -32.4814   23.8375 C   0  0  1  0  0  0
  -27.2383  -27.4023   20.0913 C   0  0  0  0  0  0
  -25.5895  -33.8620   24.2297 N   0  0  0  0  0  0
  -23.4042  -30.4892   21.5487 C   0  0  2  0  0  0
  -24.8481  -28.9474   20.1195 C   0  0  0  0  0  0
  -22.7382  -29.4675   22.4996 C   0  0  0  0  0  0
  -18.0273  -28.1376   22.8482 C   0  0  0  0  0  0
  -24.1484  -36.7325   23.2639 C   0  0  0  0  0  0
  -25.9353  -30.8216   21.3633 C   0  0  0  0  0  0
  -26.0096  -29.4521   20.7130 C   0  0  0  0  0  0
  -27.2020  -28.6858   20.6975 C   0  0  0  0  0  0
  -26.0441  -26.9147   19.5086 C   0  0  0  0  0  0
  -24.8613  -27.6779   19.5201 C   0  0  0  0  0  0
  -23.6116  -29.8165   20.1665 C   0  0  0  0  0  0
  -25.4115  -36.3119   24.0323 C   0  0  1  0  0  0
  -20.5853  -28.3666   23.1316 C   0  0  2  0  0  0
  -20.6765  -26.9405   22.5410 C   0  0  0  0  0  0
  -19.5769  -26.6443   21.5170 C   0  0  0  0  0  0
  -18.1944  -26.7931   22.1585 C   0  0  0  0  0  0
  -19.1516  -28.8829   23.2905 C   0  0  0  0  0  0
  -18.9455  -30.1428   23.8924 C   0  0  0  0  0  0
  -17.6464  -30.6571   24.0583 C   0  0  0  0  0  0
  -25.9035  -34.9478   23.5104 C   0  0  0  0  0  0
  -16.5354  -29.9074   23.6342 C   0  0  0  0  0  0
  -16.7269  -28.6499   23.0345 C   0  0  0  0  0  0
  -26.4475  -31.6621   25.0713 C   0  0  0  0  0  0
  -25.3734  -31.3762   26.1455 C   0  0  0  0  0  0
  -27.0304  -30.3053   24.6136 C   0  0  0  0  0  0
  -27.6039  -32.4349   25.7482 C   0  0  0  0  0  0
  -27.5580  -37.1820   24.8457 C   0  0  0  0  0  0
  -21.4104  -29.3054   22.3717 N   0  0  0  0  0  0
  -26.4304  -37.3799   23.9386 N   0  0  0  0  0  0
  -24.6704  -31.0748   22.0977 N   0  0  0  0  0  0
  -23.4143  -28.8216   23.3045 O   0  0  0  0  0  0
  -28.4324  -26.6897   20.1094 O   0  0  0  0  0  0
  -26.5603  -34.8933   22.4668 O   0  0  0  0  0  0
  -23.5353  -32.1418   23.7443 O   0  0  0  0  0  0
  -29.9005  -21.6101   21.8824 C   0  0  0  0  0  0
  -29.2728  -21.6291   20.6623 C   0  0  0  0  0  0
  -29.4392  -19.4727   21.3803 C   0  0  0  0  0  0
  -26.8841  -19.8815   19.1131 C   0  0  0  0  0  0
  -27.8105  -17.5321   21.4392 C   0  0  0  0  0  0
  -29.6246  -17.6378   23.1139 C   0  0  0  0  0  0
  -28.9307  -22.8100   19.7561 C   0  0  0  0  0  0
  -28.7175  -24.1923   20.4596 C   0  0  0  0  0  0
  -28.4200  -19.7965   19.1136 C   0  0  0  0  0  0
  -30.2119  -17.0188   20.7635 C   0  0  0  0  0  0
  -28.5841  -25.3954   19.4741 C   0  0  0  0  0  0
  -29.2845  -17.9460   21.6317 C   0  0  0  0  0  0
  -29.0357  -20.2852   20.3605 N   0  0  0  0  0  0
  -29.9905  -20.3028   22.2749 N   0  3  0  0  0  0
  -29.9271  -15.5703   20.9402 N   0  0  0  0  0  0
  -31.4696  -12.4455   19.1334 H   0  0  0  0  0  0
  -30.3395  -11.3331   19.8549 H   0  0  0  0  0  0
  -29.7453  -11.7693   17.4486 H   0  0  0  0  0  0
  -29.6470  -13.4846   17.7586 H   0  0  0  0  0  0
  -27.8397  -11.3011   18.8362 H   0  0  0  0  0  0
  -27.3637  -12.6139   17.7907 H   0  0  0  0  0  0
  -27.6863  -14.2534   19.5449 H   0  0  0  0  0  0
  -28.6918  -12.0102   21.3712 H   0  0  0  0  0  0
  -28.4635  -13.6653   21.8542 H   0  0  0  0  0  0
  -25.2767   -9.5697   22.4747 H   0  0  0  0  0  0
  -24.0018   -7.4627   22.7457 H   0  0  0  0  0  0
  -21.0834   -8.8770   19.8932 H   0  0  0  0  0  0
  -22.3686  -10.9685   19.6150 H   0  0  0  0  0  0
  -21.2028   -7.6164   23.9729 H   0  0  0  0  0  0
  -21.1459   -6.0522   25.9075 H   0  0  0  0  0  0
  -22.0608   -2.7622   23.2822 H   0  0  0  0  0  0
  -22.4155  -11.9853   22.4769 H   0  0  0  0  0  0
  -21.1147  -13.1214   22.2639 H   0  0  0  0  0  0
  -24.6491  -15.8321   20.5123 H   0  0  0  0  0  0
  -26.2625  -15.6269   20.0552 H   0  0  0  0  0  0
  -26.7108  -32.5492   23.1122 H   0  0  0  0  0  0
  -25.0070  -33.9808   25.0457 H   0  0  0  0  0  0
  -22.6961  -31.3075   21.4061 H   0  0  0  0  0  0
  -23.3737  -35.9667   23.3320 H   0  0  0  0  0  0
  -24.3585  -36.8927   22.2051 H   0  0  0  0  0  0
  -23.7227  -37.6532   23.6644 H   0  0  0  0  0  0
  -26.0498  -31.5855   20.5929 H   0  0  0  0  0  0
  -26.8235  -30.8735   21.9824 H   0  0  0  0  0  0
  -28.0979  -29.0777   21.1588 H   0  0  0  0  0  0
  -25.9825  -25.9421   19.0483 H   0  0  0  0  0  0
  -23.9626  -27.2750   19.0745 H   0  0  0  0  0  0
  -23.7205  -30.5864   19.4021 H   0  0  0  0  0  0
  -22.7353  -29.2358   19.8728 H   0  0  0  0  0  0
  -25.1292  -36.1999   25.0817 H   0  0  0  0  0  0
  -20.9952  -28.3217   24.1429 H   0  0  0  0  0  0
  -20.5639  -26.2271   23.3589 H   0  0  0  0  0  0
  -21.6651  -26.7445   22.1224 H   0  0  0  0  0  0
  -19.6971  -25.6397   21.1101 H   0  0  0  0  0  0
  -19.6720  -27.3336   20.6766 H   0  0  0  0  0  0
  -17.4206  -26.6634   21.4003 H   0  0  0  0  0  0
  -18.0392  -26.0048   22.8958 H   0  0  0  0  0  0
  -19.7925  -30.7235   24.2311 H   0  0  0  0  0  0
  -17.5025  -31.6253   24.5180 H   0  0  0  0  0  0
  -15.5359  -30.2977   23.7680 H   0  0  0  0  0  0
  -15.8672  -28.0834   22.7033 H   0  0  0  0  0  0
  -24.5889  -30.7138   25.7787 H   0  0  0  0  0  0
  -24.8968  -32.2936   26.4916 H   0  0  0  0  0  0
  -25.8079  -30.8914   27.0199 H   0  0  0  0  0  0
  -26.2857  -29.6817   24.1181 H   0  0  0  0  0  0
  -27.4018  -29.7311   25.4633 H   0  0  0  0  0  0
  -27.8712  -30.4350   23.9318 H   0  0  0  0  0  0
  -27.2643  -33.3617   26.2125 H   0  0  0  0  0  0
  -28.3823  -32.6972   25.0301 H   0  0  0  0  0  0
  -28.0733  -31.8436   26.5356 H   0  0  0  0  0  0
  -28.2609  -38.0109   24.7497 H   0  0  0  0  0  0
  -28.1055  -36.2632   24.6289 H   0  0  0  0  0  0
  -27.2292  -37.1481   25.8862 H   0  0  0  0  0  0
  -20.9240  -29.8722   21.6907 H   0  0  0  0  0  0
  -26.0196  -38.2876   24.1389 H   0  0  0  0  0  0
  -30.2793  -22.4192   22.4912 H   0  0  0  0  0  0
  -26.4756  -19.3588   18.2487 H   0  0  0  0  0  0
  -26.5336  -20.9103   19.0665 H   0  0  0  0  0  0
  -26.4427  -19.4330   20.0006 H   0  0  0  0  0  0
  -27.1441  -18.2276   21.9516 H   0  0  0  0  0  0
  -27.6039  -16.5445   21.8495 H   0  0  0  0  0  0
  -27.5298  -17.4897   20.3887 H   0  0  0  0  0  0
  -29.0139  -18.2226   23.8029 H   0  0  0  0  0  0
  -30.6728  -17.8316   23.3464 H   0  0  0  0  0  0
  -29.4455  -16.5920   23.3594 H   0  0  0  0  0  0
  -28.0365  -22.5823   19.1797 H   0  0  0  0  0  0
  -29.7338  -22.9077   19.0260 H   0  0  0  0  0  0
  -29.5626  -24.3945   21.1180 H   0  0  0  0  0  0
  -27.8348  -24.1442   21.0987 H   0  0  0  0  0  0
  -28.8206  -20.3856   18.2883 H   0  0  0  0  0  0
  -28.7509  -18.7775   18.9282 H   0  0  0  0  0  0
  -30.0975  -17.2440   19.7045 H   0  0  0  0  0  0
  -31.2595  -17.2200   20.9972 H   0  0  0  0  0  0
  -27.8443  -25.1839   18.7059 H   0  0  0  0  0  0
  -29.5173  -25.4593   18.9136 H   0  0  0  0  0  0
  -30.3850  -19.9993   23.1571 H   0  0  0  0  0  0
  -29.0025  -15.3354   21.2664 H   0  0  0  0  0  0
  1 25  1  0  0  0
  1 30  2  0  0  0
  1 85  1  0  0  0
  2  3  1  0  0  0
  2 25  1  0  0  0
  2 86  1  0  0  0
  2 87  1  0  0  0
  3  4  1  0  0  0
  3 88  1  0  0  0
  3 89  1  0  0  0
  4  5  1  0  0  0
  4 90  1  0  0  0
  4 91  1  0  0  0
  5  6  1  0  0  0
  5 26  1  0  0  0
  5 92  1  0  0  0
  6 25  1  0  0  0
  6 93  1  0  0  0
  6 94  1  0  0  0
  7  8  2  0  0  0
  7 26  1  0  0  0
  7 29  1  0  0  0
  8  9  1  0  0  0
  8 22  1  0  0  0
  9 10  1  0  0  0
  9 27  2  0  0  0
 10 11  2  0  0  0
 10 15  1  0  0  0
 11 12  1  0  0  0
 11 95  1  0  0  0
 12 13  2  0  0  0
 12 96  1  0  0  0
 13 14  1  0  0  0
 13 31  1  0  0  0
 14 15  2  0  0  0
 14 97  1  0  0  0
 15 98  1  0  0  0
 16 17  2  0  0  0
 16 21  1  0  0  0
 16 31  1  0  0  0
 17 18  1  0  0  0
 17 99  1  0  0  0
 18 19  2  0  0  0
 18100  1  0  0  0
 19 20  1  0  0  0
 19 24  1  0  0  0
 20 21  2  0  0  0
 20101  1  0  0  0
 21 23  1  0  0  0
 22 28  1  0  0  0
 22 32  2  0  0  0
 26 27  1  0  0  0
 28102  1  0  0  0
 28103  1  0  0  0
 29104  1  0  0  0
 29105  1  0  0  0
 33 34  1  0  0  0
 33 66  1  0  0  0
 33 70  2  0  0  0
 34 36  1  0  0  0
 34 59  1  0  0  0
 34106  1  0  0  0
 35 44  2  0  0  0
 35 45  1  0  0  0
 35 68  1  0  0  0
 36 56  1  0  0  0
 36107  1  0  0  0
 37 39  1  0  0  0
 37 47  1  0  0  0
 37 66  1  0  0  0
 37108  1  0  0  0
 38 43  2  0  0  0
 38 46  1  0  0  0
 38 47  1  0  0  0
 39 64  1  0  0  0
 39 67  2  0  0  0
 40 52  1  0  0  0
 40 53  2  0  0  0
 40 58  1  0  0  0
 41109  1  0  0  0
 41110  1  0  0  0
 41111  1  0  0  0
 41 48  1  0  0  0
 42 43  1  0  0  0
 42 66  1  0  0  0
 42112  1  0  0  0
 42113  1  0  0  0
 43 44  1  0  0  0
 44114  1  0  0  0
 45 46  2  0  0  0
 45115  1  0  0  0
 46116  1  0  0  0
 47117  1  0  0  0
 47118  1  0  0  0
 48 56  1  0  0  0
 48 65  1  0  0  0
 48119  1  0  0  0
 49 50  1  0  0  0
 49 53  1  0  0  0
 49 64  1  0  0  0
 49120  1  0  0  0
 50 51  1  0  0  0
 50121  1  0  0  0
 50122  1  0  0  0
 51 52  1  0  0  0
 51123  1  0  0  0
 51124  1  0  0  0
 52125  1  0  0  0
 52126  1  0  0  0
 53 54  1  0  0  0
 54 55  2  0  0  0
 54127  1  0  0  0
 55 57  1  0  0  0
 55128  1  0  0  0
 56 69  2  0  0  0
 57 58  2  0  0  0
 57129  1  0  0  0
 58130  1  0  0  0
 59 60  1  0  0  0
 59 61  1  0  0  0
 59 62  1  0  0  0
 60131  1  0  0  0
 60132  1  0  0  0
 60133  1  0  0  0
 61134  1  0  0  0
 61135  1  0  0  0
 61136  1  0  0  0
 62137  1  0  0  0
 62138  1  0  0  0
 62139  1  0  0  0
 63 65  1  0  0  0
 63140  1  0  0  0
 63141  1  0  0  0
 63142  1  0  0  0
 64143  1  0  0  0
 65144  1  0  0  0
 68 81  1  0  0  0
 71 72  2  0  0  0
 71 84  1  0  0  0
 71145  1  0  0  0
 72 77  1  0  0  0
 72 83  1  0  0  0
 73 82  1  0  0  0
 73 83  1  0  0  0
 73 84  2  0  0  0
 74 79  1  0  0  0
 74146  1  0  0  0
 74147  1  0  0  0
 74148  1  0  0  0
 75149  1  0  0  0
 75150  1  0  0  0
 75151  1  0  0  0
 75 82  1  0  0  0
 76 82  1  0  0  0
 76152  1  0  0  0
 76153  1  0  0  0
 76154  1  0  0  0
 77 78  1  0  0  0
 77155  1  0  0  0
 77156  1  0  0  0
 78 81  1  0  0  0
 78157  1  0  0  0
 78158  1  0  0  0
 79 83  1  0  0  0
 79159  1  0  0  0
 79160  1  0  0  0
 80 82  1  0  0  0
 80 85  1  0  0  0
 80161  1  0  0  0
 80162  1  0  0  0
 81163  1  0  0  0
 81164  1  0  0  0
 84165  1  0  0  0
 85166  1  0  0  0
M  CHG  1  84   1
M  ISO  4   1 100  68 101  81 101  85 100
M  END
> <chiral flag>
0

> <version>
0

> <s_m_source_file>
/data/baiqing/PycharmProjects/Reinvent-master-3.2/result/LINK_invent/BTK/process_docking_weight1_custom_sum_contain_oxygen_bond_distance_aromatic_linkinvent_7_9_3/rearranged_h_0071.sdf

> <i_m_source_file_index>
77

> <r_mmod_Potential_Energy-OPLS-2005>
-103.494667053223

> <r_mmod_Stretch_Energy-OPLS-2005>
52.5454635620117

> <r_mmod_Bend_Energy-OPLS-2005>
123.655364990234

> <r_mmod_Torsional_Energy-OPLS-2005>
241.130035400391

> <r_mmod_Improper_Torsional_Energy-OPLS-2005>
5.0607476234436

> <r_mmod_Van_der_Waal_Energy-OPLS-2005>
129.551391601562

> <r_mmod_Electrostatic_Energy-OPLS-2005>
-256.038665771484

> <r_mmod_Solvation_Energy-OPLS-2005>
-418.925262451172

> <b_mmod_Minimization_Converged-OPLS-2005>
0

> <r_mmod_RMS_Derivative-OPLS-2005>
2.84697771072388

$$$$
79
                    3D
 Structure written by MMmdl.
171179  0  0  1  0            999 V2000
  -30.6161  -14.7669   20.5199 C   0  0  0  0  0  0
  -30.4485  -12.4917   19.4566 C   0  0  0  0  0  0
  -29.5116  -12.5504   18.2283 C   0  0  0  0  0  0
  -28.0309  -12.3826   18.6284 C   0  0  0  0  0  0
  -27.6532  -13.2299   19.8708 C   0  0  2  0  0  0
  -28.7077  -13.0551   20.9796 C   0  0  0  0  0  0
  -25.2547  -13.8201   20.5675 C   0  0  0  0  0  0
  -24.1818  -13.0441   20.9186 C   0  0  0  0  0  0
  -24.6410  -11.6938   20.8748 C   0  0  0  0  0  0
  -23.9063  -10.4328   21.0437 C   0  0  0  0  0  0
  -24.3620   -9.4215   21.9184 C   0  0  0  0  0  0
  -23.6304   -8.2239   22.0726 C   0  0  0  0  0  0
  -22.4273   -8.0294   21.3535 C   0  0  0  0  0  0
  -21.9940   -9.0267   20.4619 C   0  0  0  0  0  0
  -22.7256  -10.2162   20.3051 C   0  0  0  0  0  0
  -21.6835   -6.0754   22.5296 C   0  0  0  0  0  0
  -21.3995   -6.5651   23.8232 C   0  0  0  0  0  0
  -21.3662   -5.6807   24.9197 C   0  0  0  0  0  0
  -21.6042   -4.3065   24.7244 C   0  0  0  0  0  0
  -21.8821   -3.8159   23.4366 C   0  0  0  0  0  0
  -21.9198   -4.6984   22.3422 C   0  0  0  0  0  0
  -22.7836  -13.5216   21.1885 C   0  0  0  0  0  0
  -22.1665   -4.2168   21.0997 F   0  0  0  0  0  0
  -21.5638   -3.4543   25.7746 F   0  0  0  0  0  0
  -29.9918  -13.5226   20.4328 N   0  0  0  0  0  0
  -26.2987  -12.9402   20.3387 N   0  0  0  0  0  0
  -25.9334  -11.6539   20.5778 N   0  0  0  0  0  0
  -22.0526  -12.8125   22.0455 N   0  0  0  0  0  0
  -25.4258  -15.1915   20.4003 N   0  0  0  0  0  0
  -31.7370  -14.8381   20.0008 O   0  0  0  0  0  0
  -21.6613   -6.8903   21.4255 O   0  0  0  0  0  0
  -22.3481  -14.5539   20.6818 O   0  0  0  0  0  0
  -24.6328  -31.8522   23.1970 C   0  0  0  0  0  0
  -25.9129  -32.4744   23.8329 C   0  0  1  0  0  0
  -27.2168  -27.2565   20.1247 C   0  0  0  0  0  0
  -25.5920  -33.8560   24.2248 N   0  0  0  0  0  0
  -23.4299  -30.4723   21.5416 C   0  0  2  0  0  0
  -24.8731  -28.9095   20.1171 C   0  0  0  0  0  0
  -22.7502  -29.4594   22.4936 C   0  0  0  0  0  0
  -18.0282  -28.1387   22.8472 C   0  0  0  0  0  0
  -24.1494  -36.7283   23.2644 C   0  0  0  0  0  0
  -25.9760  -30.7633   21.3746 C   0  0  0  0  0  0
  -26.0473  -29.3844   20.7149 C   0  0  0  0  0  0
  -27.2283  -28.5751   20.6936 C   0  0  0  0  0  0
  -26.0154  -26.8301   19.5283 C   0  0  0  0  0  0
  -24.8613  -27.6415   19.5113 C   0  0  0  0  0  0
  -23.6460  -29.8011   20.1596 C   0  0  0  0  0  0
  -25.4125  -36.3074   24.0325 C   0  0  1  0  0  0
  -20.5886  -28.3706   23.1264 C   0  0  2  0  0  0
  -20.6784  -26.9429   22.5410 C   0  0  0  0  0  0
  -19.5765  -26.6379   21.5208 C   0  0  0  0  0  0
  -18.1931  -26.7932   22.1601 C   0  0  0  0  0  0
  -19.1538  -28.8865   23.2849 C   0  0  0  0  0  0
  -18.9457  -30.1453   23.8885 C   0  0  0  0  0  0
  -17.6451  -30.6584   24.0559 C   0  0  0  0  0  0
  -25.9062  -34.9435   23.5088 C   0  0  0  0  0  0
  -16.5342  -29.9087   23.6334 C   0  0  0  0  0  0
  -16.7270  -28.6496   23.0366 C   0  0  0  0  0  0
  -26.4490  -31.6591   25.0734 C   0  0  0  0  0  0
  -25.3729  -31.3705   26.1459 C   0  0  0  0  0  0
  -27.0346  -30.3011   24.6237 C   0  0  0  0  0  0
  -27.6018  -32.4377   25.7504 C   0  0  0  0  0  0
  -27.5584  -37.1800   24.8461 C   0  0  0  0  0  0
  -21.4211  -29.3025   22.3651 N   0  0  0  0  0  0
  -26.4300  -37.3770   23.9397 N   0  0  0  0  0  0
  -24.6985  -31.0491   22.0939 N   0  0  0  0  0  0
  -23.4183  -28.8140   23.3057 O   0  0  0  0  0  0
  -28.3353  -26.4023   20.0729 O   0  0  0  0  0  0
  -26.5642  -34.8905   22.4669 O   0  0  0  0  0  0
  -23.5468  -32.1350   23.7245 O   0  0  0  0  0  0
  -29.6691  -17.3811   20.3379 C   0  0  0  0  0  0
  -28.9359  -19.3546   19.6187 C   0  0  0  0  0  0
  -31.7173  -20.5266   23.2418 C   0  0  0  0  0  0
  -28.9519  -15.9018   22.2489 C   0  0  0  0  0  0
  -31.3422  -16.5403   22.1172 C   0  0  0  0  0  0
  -28.1329  -21.1260   17.9734 C   0  0  0  0  0  0
  -26.7786  -20.5815   19.9939 C   0  0  0  0  0  0
  -31.1796  -20.0335   21.8970 C   0  0  0  0  0  0
  -28.1605  -23.6509   19.6969 C   0  0  0  0  0  0
  -28.7664  -22.1912   20.1597 C   0  0  0  0  0  0
  -29.7829  -19.3895   21.9740 C   0  0  0  0  0  0
  -28.3058  -24.9935   20.5983 C   0  0  0  0  0  0
  -30.1076  -16.1470   21.2612 C   0  0  0  0  0  0
  -28.2186  -20.7983   19.4879 C   0  0  0  0  0  0
  -29.2899  -17.2225   19.0672 N   0  0  0  0  0  0
  -28.8223  -18.4511   18.6241 N   0  0  0  0  0  0
  -29.4825  -18.7225   20.7173 N   0  0  0  0  0  0
  -31.4790  -12.6338   19.1314 H   0  0  0  0  0  0
  -30.4431  -11.5019   19.9087 H   0  0  0  0  0  0
  -29.7935  -11.7942   17.4951 H   0  0  0  0  0  0
  -29.6350  -13.5153   17.7384 H   0  0  0  0  0  0
  -27.8610  -11.3265   18.8363 H   0  0  0  0  0  0
  -27.3820  -12.6437   17.7896 H   0  0  0  0  0  0
  -27.6748  -14.2732   19.5532 H   0  0  0  0  0  0
  -28.7821  -11.9990   21.2422 H   0  0  0  0  0  0
  -28.4124  -13.5065   21.9156 H   0  0  0  0  0  0
  -25.2796   -9.5653   22.4721 H   0  0  0  0  0  0
  -24.0031   -7.4612   22.7404 H   0  0  0  0  0  0
  -21.0888   -8.8775   19.8901 H   0  0  0  0  0  0
  -22.3745  -10.9677   19.6112 H   0  0  0  0  0  0
  -21.1951   -7.6153   23.9726 H   0  0  0  0  0  0
  -21.1477   -6.0537   25.9098 H   0  0  0  0  0  0
  -22.0593   -2.7616   23.2856 H   0  0  0  0  0  0
  -22.4193  -11.9784   22.4789 H   0  0  0  0  0  0
  -21.1112  -13.1010   22.2714 H   0  0  0  0  0  0
  -24.6630  -15.8550   20.4727 H   0  0  0  0  0  0
  -26.2787  -15.6141   20.0555 H   0  0  0  0  0  0
  -26.7199  -32.5369   23.1066 H   0  0  0  0  0  0
  -25.0078  -33.9705   25.0400 H   0  0  0  0  0  0
  -22.7263  -31.2946   21.3959 H   0  0  0  0  0  0
  -23.3771  -35.9599   23.3307 H   0  0  0  0  0  0
  -24.3574  -36.8924   22.2059 H   0  0  0  0  0  0
  -23.7225  -37.6467   23.6694 H   0  0  0  0  0  0
  -26.1234  -31.5257   20.6084 H   0  0  0  0  0  0
  -26.8492  -30.8046   22.0159 H   0  0  0  0  0  0
  -28.1407  -28.9456   21.1387 H   0  0  0  0  0  0
  -25.9736  -25.8512   19.0720 H   0  0  0  0  0  0
  -23.9641  -27.2743   19.0331 H   0  0  0  0  0  0
  -23.7677  -30.5776   19.4027 H   0  0  0  0  0  0
  -22.7632  -29.2352   19.8592 H   0  0  0  0  0  0
  -25.1311  -36.1926   25.0820 H   0  0  0  0  0  0
  -20.9958  -28.3295   24.1392 H   0  0  0  0  0  0
  -20.5710  -26.2306   23.3596 H   0  0  0  0  0  0
  -21.6646  -26.7468   22.1191 H   0  0  0  0  0  0
  -19.6942  -25.6284   21.1251 H   0  0  0  0  0  0
  -19.6723  -27.3174   20.6722 H   0  0  0  0  0  0
  -17.4210  -26.6672   21.3994 H   0  0  0  0  0  0
  -18.0332  -26.0068   22.8998 H   0  0  0  0  0  0
  -19.7934  -30.7263   24.2273 H   0  0  0  0  0  0
  -17.5012  -31.6277   24.5151 H   0  0  0  0  0  0
  -15.5344  -30.2987   23.7670 H   0  0  0  0  0  0
  -15.8662  -28.0804   22.7124 H   0  0  0  0  0  0
  -24.5918  -30.7034   25.7787 H   0  0  0  0  0  0
  -24.8894  -32.2849   26.4916 H   0  0  0  0  0  0
  -25.8061  -30.8871   27.0227 H   0  0  0  0  0  0
  -26.2924  -29.6752   24.1265 H   0  0  0  0  0  0
  -27.4017  -29.7278   25.4758 H   0  0  0  0  0  0
  -27.8817  -30.4286   23.9491 H   0  0  0  0  0  0
  -27.2602  -33.3704   26.2021 H   0  0  0  0  0  0
  -28.3839  -32.6918   25.0336 H   0  0  0  0  0  0
  -28.0690  -31.8568   26.5471 H   0  0  0  0  0  0
  -28.2583  -38.0116   24.7535 H   0  0  0  0  0  0
  -28.1098  -36.2642   24.6276 H   0  0  0  0  0  0
  -27.2293  -37.1435   25.8860 H   0  0  0  0  0  0
  -20.9420  -29.8690   21.6795 H   0  0  0  0  0  0
  -26.0184  -38.2843   24.1409 H   0  0  0  0  0  0
  -32.7459  -20.8757   23.1315 H   0  0  0  0  0  0
  -31.7187  -19.7275   23.9837 H   0  0  0  0  0  0
  -31.1220  -21.3556   23.6270 H   0  0  0  0  0  0
  -28.0347  -15.6296   21.7271 H   0  0  0  0  0  0
  -28.6976  -16.7876   22.8287 H   0  0  0  0  0  0
  -29.2177  -15.1364   22.9767 H   0  0  0  0  0  0
  -31.1168  -17.2040   22.9486 H   0  0  0  0  0  0
  -32.1013  -17.0152   21.4966 H   0  0  0  0  0  0
  -31.8107  -15.6712   22.5805 H   0  0  0  0  0  0
  -27.6748  -20.3283   17.3883 H   0  0  0  0  0  0
  -29.1241  -21.3043   17.5604 H   0  0  0  0  0  0
  -27.5224  -22.0039   17.7728 H   0  0  0  0  0  0
  -26.2887  -19.7842   19.4319 H   0  0  0  0  0  0
  -26.1573  -21.4704   19.9014 H   0  0  0  0  0  0
  -26.7696  -20.2831   21.0435 H   0  0  0  0  0  0
  -31.8888  -19.3192   21.4795 H   0  0  0  0  0  0
  -31.1673  -20.8640   21.1916 H   0  0  0  0  0  0
  -27.0918  -23.5324   19.5091 H   0  0  0  0  0  0
  -28.5939  -23.8744   18.7211 H   0  0  0  0  0  0
  -28.6825  -22.1233   21.2444 H   0  0  0  0  0  0
  -29.8371  -22.2410   19.9684 H   0  0  0  0  0  0
  -29.0122  -20.1328   22.1746 H   0  0  0  0  0  0
  -29.7072  -18.6963   22.8029 H   0  0  0  0  0  0
  -29.2685  -24.9009   21.1001 H   0  0  0  0  0  0
  -27.5766  -24.9505   21.4083 H   0  0  0  0  0  0
  1 25  1  0  0  0
  1 30  2  0  0  0
  1 83  1  0  0  0
  2  3  1  0  0  0
  2 25  1  0  0  0
  2 88  1  0  0  0
  2 89  1  0  0  0
  3  4  1  0  0  0
  3 90  1  0  0  0
  3 91  1  0  0  0
  4  5  1  0  0  0
  4 92  1  0  0  0
  4 93  1  0  0  0
  5  6  1  0  0  0
  5 26  1  0  0  0
  5 94  1  0  0  0
  6 25  1  0  0  0
  6 95  1  0  0  0
  6 96  1  0  0  0
  7  8  2  0  0  0
  7 26  1  0  0  0
  7 29  1  0  0  0
  8  9  1  0  0  0
  8 22  1  0  0  0
  9 10  1  0  0  0
  9 27  2  0  0  0
 10 11  2  0  0  0
 10 15  1  0  0  0
 11 12  1  0  0  0
 11 97  1  0  0  0
 12 13  2  0  0  0
 12 98  1  0  0  0
 13 14  1  0  0  0
 13 31  1  0  0  0
 14 15  2  0  0  0
 14 99  1  0  0  0
 15100  1  0  0  0
 16 17  2  0  0  0
 16 21  1  0  0  0
 16 31  1  0  0  0
 17 18  1  0  0  0
 17101  1  0  0  0
 18 19  2  0  0  0
 18102  1  0  0  0
 19 20  1  0  0  0
 19 24  1  0  0  0
 20 21  2  0  0  0
 20103  1  0  0  0
 21 23  1  0  0  0
 22 28  1  0  0  0
 22 32  2  0  0  0
 26 27  1  0  0  0
 28104  1  0  0  0
 28105  1  0  0  0
 29106  1  0  0  0
 29107  1  0  0  0
 33 34  1  0  0  0
 33 66  1  0  0  0
 33 70  2  0  0  0
 34 36  1  0  0  0
 34 59  1  0  0  0
 34108  1  0  0  0
 35 44  2  0  0  0
 35 45  1  0  0  0
 35 68  1  0  0  0
 36 56  1  0  0  0
 36109  1  0  0  0
 37 39  1  0  0  0
 37 47  1  0  0  0
 37 66  1  0  0  0
 37110  1  0  0  0
 38 43  2  0  0  0
 38 46  1  0  0  0
 38 47  1  0  0  0
 39 64  1  0  0  0
 39 67  2  0  0  0
 40 52  1  0  0  0
 40 53  2  0  0  0
 40 58  1  0  0  0
 41111  1  0  0  0
 41112  1  0  0  0
 41113  1  0  0  0
 41 48  1  0  0  0
 42 43  1  0  0  0
 42 66  1  0  0  0
 42114  1  0  0  0
 42115  1  0  0  0
 43 44  1  0  0  0
 44116  1  0  0  0
 45 46  2  0  0  0
 45117  1  0  0  0
 46118  1  0  0  0
 47119  1  0  0  0
 47120  1  0  0  0
 48 56  1  0  0  0
 48 65  1  0  0  0
 48121  1  0  0  0
 49 50  1  0  0  0
 49 53  1  0  0  0
 49 64  1  0  0  0
 49122  1  0  0  0
 50 51  1  0  0  0
 50123  1  0  0  0
 50124  1  0  0  0
 51 52  1  0  0  0
 51125  1  0  0  0
 51126  1  0  0  0
 52127  1  0  0  0
 52128  1  0  0  0
 53 54  1  0  0  0
 54 55  2  0  0  0
 54129  1  0  0  0
 55 57  1  0  0  0
 55130  1  0  0  0
 56 69  2  0  0  0
 57 58  2  0  0  0
 57131  1  0  0  0
 58132  1  0  0  0
 59 60  1  0  0  0
 59 61  1  0  0  0
 59 62  1  0  0  0
 60133  1  0  0  0
 60134  1  0  0  0
 60135  1  0  0  0
 61136  1  0  0  0
 61137  1  0  0  0
 61138  1  0  0  0
 62139  1  0  0  0
 62140  1  0  0  0
 62141  1  0  0  0
 63 65  1  0  0  0
 63142  1  0  0  0
 63143  1  0  0  0
 63144  1  0  0  0
 64145  1  0  0  0
 65146  1  0  0  0
 68 82  1  0  0  0
 71 83  1  0  0  0
 71 85  2  0  0  0
 71 87  1  0  0  0
 72 84  1  0  0  0
 72 86  2  0  0  0
 72 87  1  0  0  0
 73 78  1  0  0  0
 73147  1  0  0  0
 73148  1  0  0  0
 73149  1  0  0  0
 74150  1  0  0  0
 74151  1  0  0  0
 74152  1  0  0  0
 74 83  1  0  0  0
 75 83  1  0  0  0
 75153  1  0  0  0
 75154  1  0  0  0
 75155  1  0  0  0
 76156  1  0  0  0
 76157  1  0  0  0
 76158  1  0  0  0
 76 84  1  0  0  0
 77 84  1  0  0  0
 77159  1  0  0  0
 77160  1  0  0  0
 77161  1  0  0  0
 78 81  1  0  0  0
 78162  1  0  0  0
 78163  1  0  0  0
 79 80  1  0  0  0
 79 82  1  0  0  0
 79164  1  0  0  0
 79165  1  0  0  0
 80 84  1  0  0  0
 80166  1  0  0  0
 80167  1  0  0  0
 81 87  1  0  0  0
 81168  1  0  0  0
 81169  1  0  0  0
 82170  1  0  0  0
 82171  1  0  0  0
 85 86  1  0  0  0
M  ISO  4   1 100  68 101  82 101  83 100
M  END
> <chiral flag>
0

> <version>
0

> <s_m_source_file>
/data/baiqing/PycharmProjects/Reinvent-master-3.2/result/LINK_invent/BTK/process_docking_weight1_custom_sum_contain_oxygen_bond_distance_aromatic_linkinvent_7_9_3/rearranged_h_0071.sdf

> <i_m_source_file_index>
78

> <r_mmod_Potential_Energy-OPLS-2005>
384.670471191406

> <r_mmod_Stretch_Energy-OPLS-2005>
169.023941040039

> <r_mmod_Bend_Energy-OPLS-2005>
264.339294433594

> <r_mmod_Torsional_Energy-OPLS-2005>
237.406646728516

> <r_mmod_Improper_Torsional_Energy-OPLS-2005>
4.15958499908447

> <r_mmod_Van_der_Waal_Energy-OPLS-2005>
128.274810791016

> <r_mmod_Electrostatic_Energy-OPLS-2005>
-292.483215332031

> <r_mmod_Solvation_Energy-OPLS-2005>
-204.468673706055

> <b_mmod_Minimization_Converged-OPLS-2005>
0

> <r_mmod_RMS_Derivative-OPLS-2005>
4.26261425018311

$$$$
80
                    3D
 Structure written by MMmdl.
166174  0  0  1  0            999 V2000
  -30.7405  -14.4697   20.5863 C   0  0  0  0  0  0
  -30.4114  -12.3099   19.4134 C   0  0  0  0  0  0
  -29.4813  -12.5031   18.1987 C   0  0  0  0  0  0
  -28.0056  -12.3597   18.6153 C   0  0  0  0  0  0
  -27.6577  -13.2126   19.8621 C   0  0  2  0  0  0
  -28.7024  -13.0130   20.9822 C   0  0  0  0  0  0
  -25.2566  -13.8205   20.5670 C   0  0  0  0  0  0
  -24.1830  -13.0453   20.9146 C   0  0  0  0  0  0
  -24.6397  -11.6924   20.8727 C   0  0  0  0  0  0
  -23.9074  -10.4298   21.0403 C   0  0  0  0  0  0
  -24.3624   -9.4209   21.9186 C   0  0  0  0  0  0
  -23.6281   -8.2259   22.0777 C   0  0  0  0  0  0
  -22.4274   -8.0289   21.3572 C   0  0  0  0  0  0
  -21.9902   -9.0259   20.4672 C   0  0  0  0  0  0
  -22.7250  -10.2133   20.3057 C   0  0  0  0  0  0
  -21.6847   -6.0733   22.5287 C   0  0  0  0  0  0
  -21.4013   -6.5638   23.8208 C   0  0  0  0  0  0
  -21.3645   -5.6799   24.9178 C   0  0  0  0  0  0
  -21.6041   -4.3054   24.7235 C   0  0  0  0  0  0
  -21.8814   -3.8146   23.4361 C   0  0  0  0  0  0
  -21.9186   -4.6951   22.3412 C   0  0  0  0  0  0
  -22.7845  -13.5229   21.1790 C   0  0  0  0  0  0
  -22.1647   -4.2132   21.0984 F   0  0  0  0  0  0
  -21.5631   -3.4540   25.7754 F   0  0  0  0  0  0
  -30.0394  -13.3063   20.4346 N   0  0  0  0  0  0
  -26.3004  -12.9389   20.3336 N   0  0  0  0  0  0
  -25.9330  -11.6533   20.5782 N   0  0  0  0  0  0
  -22.0518  -12.8250   22.0388 N   0  0  0  0  0  0
  -25.4258  -15.1936   20.4102 N   0  0  0  0  0  0
  -31.8063  -14.6753   19.9971 O   0  0  0  0  0  0
  -21.6646   -6.8883   21.4254 O   0  0  0  0  0  0
  -22.3508  -14.5500   20.6605 O   0  0  0  0  0  0
  -24.6153  -31.8655   23.2124 C   0  0  0  0  0  0
  -25.9021  -32.4827   23.8451 C   0  0  1  0  0  0
  -27.2400  -27.4288   20.0954 C   0  0  0  0  0  0
  -25.5884  -33.8640   24.2364 N   0  0  0  0  0  0
  -23.4075  -30.4872   21.5538 C   0  0  2  0  0  0
  -24.8526  -28.9557   20.1103 C   0  0  0  0  0  0
  -22.7432  -29.4619   22.4994 C   0  0  0  0  0  0
  -18.0245  -28.1385   22.8476 C   0  0  0  0  0  0
  -24.1480  -36.7333   23.2651 C   0  0  0  0  0  0
  -25.9348  -30.8264   21.3709 C   0  0  0  0  0  0
  -26.0074  -29.4602   20.7189 C   0  0  0  0  0  0
  -27.1958  -28.6983   20.7179 C   0  0  0  0  0  0
  -26.0651  -26.9372   19.4823 C   0  0  0  0  0  0
  -24.8766  -27.6944   19.4905 C   0  0  0  0  0  0
  -23.6162  -29.8247   20.1652 C   0  0  0  0  0  0
  -25.4097  -36.3144   24.0360 C   0  0  1  0  0  0
  -20.5852  -28.3662   23.1325 C   0  0  2  0  0  0
  -20.6733  -26.9385   22.5429 C   0  0  0  0  0  0
  -19.5717  -26.6358   21.5235 C   0  0  0  0  0  0
  -18.1883  -26.7926   22.1616 C   0  0  0  0  0  0
  -19.1506  -28.8840   23.2895 C   0  0  0  0  0  0
  -18.9435  -30.1440   23.8900 C   0  0  0  0  0  0
  -17.6442  -30.6585   24.0564 C   0  0  0  0  0  0
  -25.9024  -34.9491   23.5180 C   0  0  0  0  0  0
  -16.5327  -29.9079   23.6343 C   0  0  0  0  0  0
  -16.7237  -28.6512   23.0347 C   0  0  0  0  0  0
  -26.4450  -31.6615   25.0794 C   0  0  0  0  0  0
  -25.3699  -31.3634   26.1531 C   0  0  0  0  0  0
  -27.0314  -30.3095   24.6145 C   0  0  0  0  0  0
  -27.6090  -32.4300   25.7490 C   0  0  0  0  0  0
  -27.5572  -37.1823   24.8472 C   0  0  0  0  0  0
  -21.4153  -29.3043   22.3762 N   0  0  0  0  0  0
  -26.4290  -37.3828   23.9416 N   0  0  0  0  0  0
  -24.6711  -31.0732   22.1047 N   0  0  0  0  0  0
  -23.4183  -28.8136   23.3027 O   0  0  0  0  0  0
  -28.4214  -26.7153   20.1375 O   0  0  0  0  0  0
  -26.5603  -34.8918   22.4740 O   0  0  0  0  0  0
  -23.5340  -32.1410   23.7482 O   0  0  0  0  0  0
  -27.9415  -21.2325   20.9188 C   0  0  0  0  0  0
  -29.0649  -22.0997   20.8210 C   0  0  0  0  0  0
  -30.4671  -20.2589   21.0885 C   0  0  0  0  0  0
  -29.3445  -19.3896   21.2028 C   0  0  0  0  0  0
  -26.5072  -21.7312   20.9106 C   0  0  0  0  0  0
  -32.6856  -19.6597   19.9856 C   0  0  0  0  0  0
  -30.1536  -15.3417   22.7507 C   0  0  0  0  0  0
  -31.9040  -19.8050   21.3006 C   0  0  0  0  0  0
  -28.9757  -23.6393   20.7671 C   0  0  0  0  0  0
  -29.4307  -17.9244   21.6777 C   0  0  0  0  0  0
  -28.2800  -24.2479   19.5256 C   0  0  0  0  0  0
  -30.1054  -16.8624   20.7474 C   0  0  0  0  0  0
  -28.6916  -25.7009   19.1607 C   0  0  0  0  0  0
  -28.0870  -19.8892   21.0764 N   0  0  0  0  0  0
  -30.3212  -21.5908   20.8644 N   0  0  0  0  0  0
  -30.1401  -15.4673   21.2875 N   0  0  0  0  0  0
  -31.4556  -12.3844   19.1047 H   0  0  0  0  0  0
  -30.2967  -11.3055   19.8213 H   0  0  0  0  0  0
  -29.7150  -11.7773   17.4180 H   0  0  0  0  0  0
  -29.6424  -13.4883   17.7585 H   0  0  0  0  0  0
  -27.8162  -11.3073   18.8244 H   0  0  0  0  0  0
  -27.3492  -12.6240   17.7855 H   0  0  0  0  0  0
  -27.6937  -14.2566   19.5473 H   0  0  0  0  0  0
  -28.6807  -11.9888   21.3523 H   0  0  0  0  0  0
  -28.4410  -13.6364   21.8334 H   0  0  0  0  0  0
  -25.2776   -9.5678   22.4743 H   0  0  0  0  0  0
  -23.9973   -7.4668   22.7526 H   0  0  0  0  0  0
  -21.0820   -8.8791   19.9002 H   0  0  0  0  0  0
  -22.3711  -10.9661   19.6148 H   0  0  0  0  0  0
  -21.2008   -7.6145   23.9709 H   0  0  0  0  0  0
  -21.1467   -6.0529   25.9071 H   0  0  0  0  0  0
  -22.0603   -2.7598   23.2875 H   0  0  0  0  0  0
  -22.4121  -11.9890   22.4740 H   0  0  0  0  0  0
  -21.1161  -13.1341   22.2668 H   0  0  0  0  0  0
  -24.6654  -15.8521   20.5337 H   0  0  0  0  0  0
  -26.2861  -15.6390   20.1186 H   0  0  0  0  0  0
  -26.7081  -32.5529   23.1200 H   0  0  0  0  0  0
  -25.0096  -33.9821   25.0556 H   0  0  0  0  0  0
  -22.7001  -31.3069   21.4131 H   0  0  0  0  0  0
  -23.3761  -35.9645   23.3337 H   0  0  0  0  0  0
  -24.3604  -36.8943   22.2070 H   0  0  0  0  0  0
  -23.7183  -37.6531   23.6640 H   0  0  0  0  0  0
  -26.0519  -31.5871   20.5998 H   0  0  0  0  0  0
  -26.8227  -30.8817   21.9904 H   0  0  0  0  0  0
  -28.0887  -29.0798   21.1944 H   0  0  0  0  0  0
  -26.0508  -25.9713   19.0031 H   0  0  0  0  0  0
  -23.9896  -27.3027   19.0122 H   0  0  0  0  0  0
  -23.7215  -30.6043   19.4090 H   0  0  0  0  0  0
  -22.7423  -29.2445   19.8671 H   0  0  0  0  0  0
  -25.1248  -36.2078   25.0852 H   0  0  0  0  0  0
  -20.9896  -28.3192   24.1471 H   0  0  0  0  0  0
  -20.5669  -26.2238   23.3610 H   0  0  0  0  0  0
  -21.6582  -26.7436   22.1196 H   0  0  0  0  0  0
  -19.6887  -25.6279   21.1263 H   0  0  0  0  0  0
  -19.6677  -27.3166   20.6784 H   0  0  0  0  0  0
  -17.4163  -26.6711   21.4002 H   0  0  0  0  0  0
  -18.0229  -26.0067   22.9006 H   0  0  0  0  0  0
  -19.7922  -30.7250   24.2255 H   0  0  0  0  0  0
  -17.5001  -31.6271   24.5155 H   0  0  0  0  0  0
  -15.5333  -30.2986   23.7665 H   0  0  0  0  0  0
  -15.8635  -28.0837   22.7058 H   0  0  0  0  0  0
  -24.5932  -30.6930   25.7814 H   0  0  0  0  0  0
  -24.8785  -32.2722   26.5024 H   0  0  0  0  0  0
  -25.8048  -30.8769   27.0272 H   0  0  0  0  0  0
  -26.2857  -29.6818   24.1260 H   0  0  0  0  0  0
  -27.4214  -29.7379   25.4574 H   0  0  0  0  0  0
  -27.8610  -30.4502   23.9215 H   0  0  0  0  0  0
  -27.2846  -33.3650   26.2058 H   0  0  0  0  0  0
  -28.3860  -32.6780   25.0241 H   0  0  0  0  0  0
  -28.0787  -31.8409   26.5377 H   0  0  0  0  0  0
  -28.2610  -38.0106   24.7550 H   0  0  0  0  0  0
  -28.1049  -36.2653   24.6261 H   0  0  0  0  0  0
  -27.2313  -37.1461   25.8882 H   0  0  0  0  0  0
  -20.9292  -29.8879   21.7094 H   0  0  0  0  0  0
  -26.0218  -38.2922   24.1415 H   0  0  0  0  0  0
  -26.4254  -22.7411   21.3116 H   0  0  0  0  0  0
  -25.8692  -21.0925   21.5246 H   0  0  0  0  0  0
  -26.1124  -21.7288   19.8940 H   0  0  0  0  0  0
  -33.6839  -19.2674   20.1780 H   0  0  0  0  0  0
  -32.8015  -20.6261   19.4925 H   0  0  0  0  0  0
  -32.1913  -18.9819   19.2890 H   0  0  0  0  0  0
  -30.4684  -14.3489   23.0815 H   0  0  0  0  0  0
  -29.1544  -15.5125   23.1528 H   0  0  0  0  0  0
  -30.8443  -16.0510   23.2083 H   0  0  0  0  0  0
  -31.9458  -18.8834   21.8794 H   0  0  0  0  0  0
  -32.4001  -20.5506   21.9233 H   0  0  0  0  0  0
  -29.9919  -24.0333   20.8180 H   0  0  0  0  0  0
  -28.4866  -24.0012   21.6705 H   0  0  0  0  0  0
  -28.4195  -17.5741   21.8942 H   0  0  0  0  0  0
  -29.9333  -17.9667   22.6424 H   0  0  0  0  0  0
  -27.1989  -24.1685   19.6214 H   0  0  0  0  0  0
  -28.5462  -23.6364   18.6635 H   0  0  0  0  0  0
  -31.1236  -17.1707   20.5124 H   0  0  0  0  0  0
  -29.5731  -16.8447   19.7944 H   0  0  0  0  0  0
  -28.2612  -25.9788   18.1966 H   0  0  0  0  0  0
  -29.7700  -25.7200   18.9995 H   0  0  0  0  0  0
  1 25  1  0  0  0
  1 30  2  0  0  0
  1 86  1  0  0  0
  2  3  1  0  0  0
  2 25  1  0  0  0
  2 87  1  0  0  0
  2 88  1  0  0  0
  3  4  1  0  0  0
  3 89  1  0  0  0
  3 90  1  0  0  0
  4  5  1  0  0  0
  4 91  1  0  0  0
  4 92  1  0  0  0
  5  6  1  0  0  0
  5 26  1  0  0  0
  5 93  1  0  0  0
  6 25  1  0  0  0
  6 94  1  0  0  0
  6 95  1  0  0  0
  7  8  2  0  0  0
  7 26  1  0  0  0
  7 29  1  0  0  0
  8  9  1  0  0  0
  8 22  1  0  0  0
  9 10  1  0  0  0
  9 27  2  0  0  0
 10 11  2  0  0  0
 10 15  1  0  0  0
 11 12  1  0  0  0
 11 96  1  0  0  0
 12 13  2  0  0  0
 12 97  1  0  0  0
 13 14  1  0  0  0
 13 31  1  0  0  0
 14 15  2  0  0  0
 14 98  1  0  0  0
 15 99  1  0  0  0
 16 17  2  0  0  0
 16 21  1  0  0  0
 16 31  1  0  0  0
 17 18  1  0  0  0
 17100  1  0  0  0
 18 19  2  0  0  0
 18101  1  0  0  0
 19 20  1  0  0  0
 19 24  1  0  0  0
 20 21  2  0  0  0
 20102  1  0  0  0
 21 23  1  0  0  0
 22 28  1  0  0  0
 22 32  2  0  0  0
 26 27  1  0  0  0
 28103  1  0  0  0
 28104  1  0  0  0
 29105  1  0  0  0
 29106  1  0  0  0
 33 34  1  0  0  0
 33 66  1  0  0  0
 33 70  2  0  0  0
 34 36  1  0  0  0
 34 59  1  0  0  0
 34107  1  0  0  0
 35 44  2  0  0  0
 35 45  1  0  0  0
 35 68  1  0  0  0
 36 56  1  0  0  0
 36108  1  0  0  0
 37 39  1  0  0  0
 37 47  1  0  0  0
 37 66  1  0  0  0
 37109  1  0  0  0
 38 43  2  0  0  0
 38 46  1  0  0  0
 38 47  1  0  0  0
 39 64  1  0  0  0
 39 67  2  0  0  0
 40 52  1  0  0  0
 40 53  2  0  0  0
 40 58  1  0  0  0
 41110  1  0  0  0
 41111  1  0  0  0
 41112  1  0  0  0
 41 48  1  0  0  0
 42 43  1  0  0  0
 42 66  1  0  0  0
 42113  1  0  0  0
 42114  1  0  0  0
 43 44  1  0  0  0
 44115  1  0  0  0
 45 46  2  0  0  0
 45116  1  0  0  0
 46117  1  0  0  0
 47118  1  0  0  0
 47119  1  0  0  0
 48 56  1  0  0  0
 48 65  1  0  0  0
 48120  1  0  0  0
 49 50  1  0  0  0
 49 53  1  0  0  0
 49 64  1  0  0  0
 49121  1  0  0  0
 50 51  1  0  0  0
 50122  1  0  0  0
 50123  1  0  0  0
 51 52  1  0  0  0
 51124  1  0  0  0
 51125  1  0  0  0
 52126  1  0  0  0
 52127  1  0  0  0
 53 54  1  0  0  0
 54 55  2  0  0  0
 54128  1  0  0  0
 55 57  1  0  0  0
 55129  1  0  0  0
 56 69  2  0  0  0
 57 58  2  0  0  0
 57130  1  0  0  0
 58131  1  0  0  0
 59 60  1  0  0  0
 59 61  1  0  0  0
 59 62  1  0  0  0
 60132  1  0  0  0
 60133  1  0  0  0
 60134  1  0  0  0
 61135  1  0  0  0
 61136  1  0  0  0
 61137  1  0  0  0
 62138  1  0  0  0
 62139  1  0  0  0
 62140  1  0  0  0
 63 65  1  0  0  0
 63141  1  0  0  0
 63142  1  0  0  0
 63143  1  0  0  0
 64144  1  0  0  0
 65145  1  0  0  0
 68 83  1  0  0  0
 71 72  2  0  0  0
 71 75  1  0  0  0
 71 84  1  0  0  0
 72 79  1  0  0  0
 72 85  1  0  0  0
 73 74  1  0  0  0
 73 78  1  0  0  0
 73 85  2  0  0  0
 74 80  1  0  0  0
 74 84  2  0  0  0
 75146  1  0  0  0
 75147  1  0  0  0
 75148  1  0  0  0
 76 78  1  0  0  0
 76149  1  0  0  0
 76150  1  0  0  0
 76151  1  0  0  0
 77 86  1  0  0  0
 77152  1  0  0  0
 77153  1  0  0  0
 77154  1  0  0  0
 78155  1  0  0  0
 78156  1  0  0  0
 79 81  1  0  0  0
 79157  1  0  0  0
 79158  1  0  0  0
 80 82  1  0  0  0
 80159  1  0  0  0
 80160  1  0  0  0
 81 83  1  0  0  0
 81161  1  0  0  0
 81162  1  0  0  0
 82 86  1  0  0  0
 82163  1  0  0  0
 82164  1  0  0  0
 83165  1  0  0  0
 83166  1  0  0  0
M  ISO  4   1 100  68 101  83 101  86 100
M  END
> <chiral flag>
0

> <version>
0

> <s_m_source_file>
/data/baiqing/PycharmProjects/Reinvent-master-3.2/result/LINK_invent/BTK/process_docking_weight1_custom_sum_contain_oxygen_bond_distance_aromatic_linkinvent_7_9_3/rearranged_h_0071.sdf

> <i_m_source_file_index>
79

> <r_mmod_Potential_Energy-OPLS-2005>
117.213363647461

> <r_mmod_Stretch_Energy-OPLS-2005>
47.3578033447266

> <r_mmod_Bend_Energy-OPLS-2005>
120.514724731445

> <r_mmod_Torsional_Energy-OPLS-2005>
271.042724609375

> <r_mmod_Improper_Torsional_Energy-OPLS-2005>
6.54296350479126

> <r_mmod_Van_der_Waal_Energy-OPLS-2005>
157.947082519531

> <r_mmod_Electrostatic_Energy-OPLS-2005>
-296.813262939453

> <r_mmod_Solvation_Energy-OPLS-2005>
-202.927169799805

> <b_mmod_Minimization_Converged-OPLS-2005>
0

> <r_mmod_RMS_Derivative-OPLS-2005>
3.98360013961792

$$$$
81
                    3D
 Structure written by MMmdl.
160168  0  0  1  0            999 V2000
  -30.7249  -14.6008   20.4982 C   0  0  0  0  0  0
  -30.4102  -12.3682   19.4638 C   0  0  0  0  0  0
  -29.5001  -12.4919   18.2268 C   0  0  0  0  0  0
  -28.0252  -12.3459   18.6403 C   0  0  0  0  0  0
  -27.6498  -13.2306   19.8581 C   0  0  2  0  0  0
  -28.6991  -13.1340   20.9902 C   0  0  0  0  0  0
  -25.2530  -13.8217   20.5712 C   0  0  0  0  0  0
  -24.1823  -13.0465   20.9203 C   0  0  0  0  0  0
  -24.6411  -11.6939   20.8764 C   0  0  0  0  0  0
  -23.9074  -10.4300   21.0410 C   0  0  0  0  0  0
  -24.3636   -9.4194   21.9176 C   0  0  0  0  0  0
  -23.6300   -8.2233   22.0742 C   0  0  0  0  0  0
  -22.4263   -8.0273   21.3535 C   0  0  0  0  0  0
  -21.9912   -9.0258   20.4640 C   0  0  0  0  0  0
  -22.7251  -10.2134   20.3052 C   0  0  0  0  0  0
  -21.6847   -6.0737   22.5281 C   0  0  0  0  0  0
  -21.4010   -6.5649   23.8221 C   0  0  0  0  0  0
  -21.3652   -5.6799   24.9186 C   0  0  0  0  0  0
  -21.6049   -4.3059   24.7241 C   0  0  0  0  0  0
  -21.8815   -3.8145   23.4361 C   0  0  0  0  0  0
  -21.9191   -4.6962   22.3409 C   0  0  0  0  0  0
  -22.7846  -13.5227   21.1922 C   0  0  0  0  0  0
  -22.1657   -4.2146   21.0988 F   0  0  0  0  0  0
  -21.5625   -3.4545   25.7755 F   0  0  0  0  0  0
  -30.0160  -13.4332   20.4097 N   0  0  0  0  0  0
  -26.2977  -12.9428   20.3353 N   0  0  0  0  0  0
  -25.9339  -11.6569   20.5788 N   0  0  0  0  0  0
  -22.0503  -12.8182   22.0449 N   0  0  0  0  0  0
  -25.4275  -15.1943   20.4180 N   0  0  0  0  0  0
  -31.8850  -14.6377   20.0934 O   0  0  0  0  0  0
  -21.6608   -6.8873   21.4230 O   0  0  0  0  0  0
  -22.3531  -14.5556   20.6802 O   0  0  0  0  0  0
  -24.6206  -31.8562   23.1963 C   0  0  0  0  0  0
  -25.9037  -32.4755   23.8309 C   0  0  1  0  0  0
  -27.2429  -27.3555   20.0973 C   0  0  0  0  0  0
  -25.5811  -33.8558   24.2206 N   0  0  0  0  0  0
  -23.4137  -30.4753   21.5363 C   0  0  2  0  0  0
  -24.8594  -28.9239   20.1113 C   0  0  0  0  0  0
  -22.7402  -29.4624   22.4926 C   0  0  0  0  0  0
  -18.0286  -28.1363   22.8426 C   0  0  0  0  0  0
  -24.1505  -36.7331   23.2646 C   0  0  0  0  0  0
  -25.9477  -30.7980   21.3630 C   0  0  0  0  0  0
  -26.0224  -29.4291   20.7014 C   0  0  0  0  0  0
  -27.2099  -28.6546   20.6795 C   0  0  0  0  0  0
  -26.0476  -26.8653   19.5259 C   0  0  0  0  0  0
  -24.8685  -27.6435   19.5258 C   0  0  0  0  0  0
  -23.6248  -29.7964   20.1564 C   0  0  0  0  0  0
  -25.4130  -36.3069   24.0301 C   0  0  1  0  0  0
  -20.5868  -28.3726   23.1317 C   0  0  2  0  0  0
  -20.6835  -26.9459   22.5468 C   0  0  0  0  0  0
  -19.5880  -26.6358   21.5231 C   0  0  0  0  0  0
  -18.2009  -26.7895   22.1557 C   0  0  0  0  0  0
  -19.1517  -28.8859   23.2845 C   0  0  0  0  0  0
  -18.9433  -30.1468   23.8834 C   0  0  0  0  0  0
  -17.6419  -30.6615   24.0431 C   0  0  0  0  0  0
  -25.9042  -34.9429   23.5059 C   0  0  0  0  0  0
  -16.5340  -29.9046   23.6258 C   0  0  0  0  0  0
  -16.7268  -28.6448   23.0313 C   0  0  0  0  0  0
  -26.4460  -31.6577   25.0672 C   0  0  0  0  0  0
  -25.3715  -31.3714   26.1416 C   0  0  0  0  0  0
  -27.0295  -30.2976   24.6136 C   0  0  0  0  0  0
  -27.6006  -32.4340   25.7424 C   0  0  0  0  0  0
  -27.5599  -37.1821   24.8448 C   0  0  0  0  0  0
  -21.4104  -29.3079   22.3681 N   0  0  0  0  0  0
  -26.4309  -37.3751   23.9392 N   0  0  0  0  0  0
  -24.6788  -31.0595   22.0891 N   0  0  0  0  0  0
  -23.4133  -28.8210   23.3048 O   0  0  0  0  0  0
  -28.4318  -26.6260   20.2163 O   0  0  0  0  0  0
  -26.5668  -34.8885   22.4657 O   0  0  0  0  0  0
  -23.5374  -32.1370   23.7312 O   0  0  0  0  0  0
  -29.7528  -18.3523   21.1801 C   0  0  0  0  0  0
  -28.6586  -19.9460   21.9997 C   0  0  0  0  0  0
  -27.8922  -20.8163   22.9430 C   0  0  0  0  0  0
  -32.0457  -17.4718   20.5442 C   0  0  0  0  0  0
  -28.6144  -25.5176   18.0612 C   0  0  0  0  0  0
  -28.9457  -22.9077   20.3556 C   0  0  0  0  0  0
  -28.4153  -21.4727   19.9471 C   0  0  0  0  0  0
  -27.9944  -24.1585   20.1166 C   0  0  0  0  0  0
  -30.6773  -17.1128   21.1790 C   0  0  2  0  0  0
  -29.1607  -18.7574   22.3428 N   0  0  0  0  0  0
  -29.5836  -19.2219   20.1589 N   0  0  0  0  0  0
  -28.9005  -20.2839   20.7242 N   0  0  0  0  0  0
  -30.0919  -15.7463   20.8925 N   0  0  0  0  0  0
  -28.6758  -25.3306   19.5079 N   0  0  0  0  0  0
  -31.4594  -12.4167   19.1714 H   0  0  0  0  0  0
  -30.2845  -11.3909   19.9315 H   0  0  0  0  0  0
  -29.7605  -11.7229   17.4951 H   0  0  0  0  0  0
  -29.6624  -13.4561   17.7382 H   0  0  0  0  0  0
  -27.8608  -11.2955   18.8851 H   0  0  0  0  0  0
  -27.3720  -12.5663   17.7934 H   0  0  0  0  0  0
  -27.6599  -14.2603   19.5005 H   0  0  0  0  0  0
  -28.7033  -12.1354   21.4318 H   0  0  0  0  0  0
  -28.4615  -13.8227   21.8022 H   0  0  0  0  0  0
  -25.2807   -9.5646   22.4735 H   0  0  0  0  0  0
  -24.0006   -7.4606   22.7461 H   0  0  0  0  0  0
  -21.0848   -8.8797   19.8953 H   0  0  0  0  0  0
  -22.3737  -10.9669   19.6154 H   0  0  0  0  0  0
  -21.1985   -7.6155   23.9727 H   0  0  0  0  0  0
  -21.1481   -6.0529   25.9096 H   0  0  0  0  0  0
  -22.0596   -2.7602   23.2872 H   0  0  0  0  0  0
  -22.4155  -11.9828   22.4773 H   0  0  0  0  0  0
  -21.1123  -13.1160   22.2720 H   0  0  0  0  0  0
  -24.6768  -15.8609   20.5566 H   0  0  0  0  0  0
  -26.2882  -15.6237   20.1062 H   0  0  0  0  0  0
  -26.7075  -32.5424   23.1050 H   0  0  0  0  0  0
  -24.9809  -33.9725   25.0237 H   0  0  0  0  0  0
  -22.7074  -31.2925   21.3828 H   0  0  0  0  0  0
  -23.3708  -35.9722   23.3288 H   0  0  0  0  0  0
  -24.3633  -36.8978   22.2077 H   0  0  0  0  0  0
  -23.7319  -37.6539   23.6700 H   0  0  0  0  0  0
  -26.0844  -31.5676   20.6043 H   0  0  0  0  0  0
  -26.8255  -30.8362   21.9941 H   0  0  0  0  0  0
  -28.1074  -29.0461   21.1430 H   0  0  0  0  0  0
  -25.9954  -25.8714   19.1085 H   0  0  0  0  0  0
  -23.9646  -27.2383   19.0897 H   0  0  0  0  0  0
  -23.7412  -30.5626   19.3895 H   0  0  0  0  0  0
  -22.7501  -29.2102   19.8689 H   0  0  0  0  0  0
  -25.1328  -36.1912   25.0790 H   0  0  0  0  0  0
  -20.9914  -28.3355   24.1436 H   0  0  0  0  0  0
  -20.5748  -26.2366   23.3672 H   0  0  0  0  0  0
  -21.6729  -26.7573   22.1263 H   0  0  0  0  0  0
  -19.6900  -27.3102   20.6714 H   0  0  0  0  0  0
  -19.7162  -25.6253   21.1348 H   0  0  0  0  0  0
  -18.0454  -26.0043   22.8972 H   0  0  0  0  0  0
  -17.4336  -26.6495   21.3943 H   0  0  0  0  0  0
  -19.7886  -30.7307   24.2200 H   0  0  0  0  0  0
  -17.4953  -31.6349   24.4870 H   0  0  0  0  0  0
  -15.5313  -30.2918   23.7527 H   0  0  0  0  0  0
  -15.8685  -28.0695   22.7082 H   0  0  0  0  0  0
  -24.5881  -30.7061   25.7779 H   0  0  0  0  0  0
  -24.8925  -32.2874   26.4848 H   0  0  0  0  0  0
  -25.8083  -30.8898   27.0164 H   0  0  0  0  0  0
  -26.2861  -29.6683   24.1226 H   0  0  0  0  0  0
  -27.4032  -29.7275   25.4654 H   0  0  0  0  0  0
  -27.8708  -30.4232   23.9329 H   0  0  0  0  0  0
  -27.2578  -33.3620   26.2012 H   0  0  0  0  0  0
  -28.3784  -32.6941   25.0234 H   0  0  0  0  0  0
  -28.0699  -31.8456   26.5307 H   0  0  0  0  0  0
  -28.2569  -38.0158   24.7442 H   0  0  0  0  0  0
  -28.1116  -36.2650   24.6292 H   0  0  0  0  0  0
  -27.2310  -37.1514   25.8852 H   0  0  0  0  0  0
  -20.9247  -29.8779   21.6895 H   0  0  0  0  0  0
  -26.0154  -38.2803   24.1358 H   0  0  0  0  0  0
  -28.5674  -21.5046   23.4532 H   0  0  0  0  0  0
  -27.4018  -20.2066   23.7017 H   0  0  0  0  0  0
  -27.1325  -21.3941   22.4194 H   0  0  0  0  0  0
  -32.3925  -18.4427   20.9050 H   0  0  0  0  0  0
  -32.0049  -17.5155   19.4545 H   0  0  0  0  0  0
  -32.8346  -16.7758   20.8239 H   0  0  0  0  0  0
  -28.9520  -24.6163   17.5489 H   0  0  0  0  0  0
  -29.2751  -26.3267   17.7528 H   0  0  0  0  0  0
  -27.6162  -25.7471   17.7026 H   0  0  0  0  0  0
  -29.2154  -22.9072   21.4116 H   0  0  0  0  0  0
  -29.8914  -23.0692   19.8381 H   0  0  0  0  0  0
  -28.6154  -21.3071   18.8886 H   0  0  0  0  0  0
  -27.3293  -21.4746   20.0292 H   0  0  0  0  0  0
  -27.5713  -24.4551   21.0785 H   0  0  0  0  0  0
  -27.1444  -23.8756   19.4939 H   0  0  0  0  0  0
  -30.9418  -17.0026   22.2318 H   0  0  0  0  0  0
  -29.1219  -15.6452   21.1559 H   0  0  0  0  0  0
  1 25  1  0  0  0
  1 30  2  0  0  0
  1 83  1  0  0  0
  2  3  1  0  0  0
  2 25  1  0  0  0
  2 85  1  0  0  0
  2 86  1  0  0  0
  3  4  1  0  0  0
  3 87  1  0  0  0
  3 88  1  0  0  0
  4  5  1  0  0  0
  4 89  1  0  0  0
  4 90  1  0  0  0
  5  6  1  0  0  0
  5 26  1  0  0  0
  5 91  1  0  0  0
  6 25  1  0  0  0
  6 92  1  0  0  0
  6 93  1  0  0  0
  7  8  2  0  0  0
  7 26  1  0  0  0
  7 29  1  0  0  0
  8  9  1  0  0  0
  8 22  1  0  0  0
  9 10  1  0  0  0
  9 27  2  0  0  0
 10 11  2  0  0  0
 10 15  1  0  0  0
 11 12  1  0  0  0
 11 94  1  0  0  0
 12 13  2  0  0  0
 12 95  1  0  0  0
 13 14  1  0  0  0
 13 31  1  0  0  0
 14 15  2  0  0  0
 14 96  1  0  0  0
 15 97  1  0  0  0
 16 17  2  0  0  0
 16 21  1  0  0  0
 16 31  1  0  0  0
 17 18  1  0  0  0
 17 98  1  0  0  0
 18 19  2  0  0  0
 18 99  1  0  0  0
 19 20  1  0  0  0
 19 24  1  0  0  0
 20 21  2  0  0  0
 20100  1  0  0  0
 21 23  1  0  0  0
 22 28  1  0  0  0
 22 32  2  0  0  0
 26 27  1  0  0  0
 28101  1  0  0  0
 28102  1  0  0  0
 29103  1  0  0  0
 29104  1  0  0  0
 33 34  1  0  0  0
 33 66  1  0  0  0
 33 70  2  0  0  0
 34 36  1  0  0  0
 34 59  1  0  0  0
 34105  1  0  0  0
 35 44  2  0  0  0
 35 45  1  0  0  0
 35 68  1  0  0  0
 36 56  1  0  0  0
 36106  1  0  0  0
 37 39  1  0  0  0
 37 47  1  0  0  0
 37 66  1  0  0  0
 37107  1  0  0  0
 38 43  2  0  0  0
 38 46  1  0  0  0
 38 47  1  0  0  0
 39 64  1  0  0  0
 39 67  2  0  0  0
 40 52  1  0  0  0
 40 53  2  0  0  0
 40 58  1  0  0  0
 41108  1  0  0  0
 41109  1  0  0  0
 41110  1  0  0  0
 41 48  1  0  0  0
 42 43  1  0  0  0
 42 66  1  0  0  0
 42111  1  0  0  0
 42112  1  0  0  0
 43 44  1  0  0  0
 44113  1  0  0  0
 45 46  2  0  0  0
 45114  1  0  0  0
 46115  1  0  0  0
 47116  1  0  0  0
 47117  1  0  0  0
 48 56  1  0  0  0
 48 65  1  0  0  0
 48118  1  0  0  0
 49 50  1  0  0  0
 49 53  1  0  0  0
 49 64  1  0  0  0
 49119  1  0  0  0
 50 51  1  0  0  0
 50120  1  0  0  0
 50121  1  0  0  0
 51 52  1  0  0  0
 51122  1  0  0  0
 51123  1  0  0  0
 52124  1  0  0  0
 52125  1  0  0  0
 53 54  1  0  0  0
 54 55  2  0  0  0
 54126  1  0  0  0
 55 57  1  0  0  0
 55127  1  0  0  0
 56 69  2  0  0  0
 57 58  2  0  0  0
 57128  1  0  0  0
 58129  1  0  0  0
 59 60  1  0  0  0
 59 61  1  0  0  0
 59 62  1  0  0  0
 60130  1  0  0  0
 60131  1  0  0  0
 60132  1  0  0  0
 61133  1  0  0  0
 61134  1  0  0  0
 61135  1  0  0  0
 62136  1  0  0  0
 62137  1  0  0  0
 62138  1  0  0  0
 63 65  1  0  0  0
 63139  1  0  0  0
 63140  1  0  0  0
 63141  1  0  0  0
 64142  1  0  0  0
 65143  1  0  0  0
 68 84  1  0  0  0
 71 79  1  0  0  0
 71 80  1  0  0  0
 71 81  2  0  0  0
 72 73  1  0  0  0
 72 80  2  0  0  0
 72 82  1  0  0  0
 73144  1  0  0  0
 73145  1  0  0  0
 73146  1  0  0  0
 74147  1  0  0  0
 74148  1  0  0  0
 74149  1  0  0  0
 74 79  1  0  0  0
 75 84  1  0  0  0
 75150  1  0  0  0
 75151  1  0  0  0
 75152  1  0  0  0
 76 77  1  0  0  0
 76 78  1  0  0  0
 76153  1  0  0  0
 76154  1  0  0  0
 77 82  1  0  0  0
 77155  1  0  0  0
 77156  1  0  0  0
 78 84  1  0  0  0
 78157  1  0  0  0
 78158  1  0  0  0
 79 83  1  0  0  0
 79159  1  0  0  0
 81 82  1  0  0  0
 83160  1  0  0  0
M  ISO  4   1 100  68 101  83 100  84 101
M  END
> <chiral flag>
0

> <version>
0

> <s_m_source_file>
/data/baiqing/PycharmProjects/Reinvent-master-3.2/result/LINK_invent/BTK/process_docking_weight1_custom_sum_contain_oxygen_bond_distance_aromatic_linkinvent_7_9_3/rearranged_h_0071.sdf

> <i_m_source_file_index>
80

> <r_mmod_Potential_Energy-OPLS-2005>
-55.4412651062012

> <r_mmod_Stretch_Energy-OPLS-2005>
71.9843063354492

> <r_mmod_Bend_Energy-OPLS-2005>
199.334243774414

> <r_mmod_Torsional_Energy-OPLS-2005>
233.737823486328

> <r_mmod_Improper_Torsional_Energy-OPLS-2005>
4.62515783309937

> <r_mmod_Van_der_Waal_Energy-OPLS-2005>
125.246505737305

> <r_mmod_Electrostatic_Energy-OPLS-2005>
-501.392364501953

> <r_mmod_Solvation_Energy-OPLS-2005>
-229.330993652344

> <b_mmod_Minimization_Converged-OPLS-2005>
0

> <r_mmod_RMS_Derivative-OPLS-2005>
5.6490159034729

$$$$
83
                    3D
 Structure written by MMmdl.
179187  0  0  1  0            999 V2000
  -30.0162  -15.9366   20.5127 C   0  0  0  0  0  0
  -30.3893  -13.3282   19.6509 C   0  0  0  0  0  0
  -29.5798  -12.7771   18.4211 C   0  0  0  0  0  0
  -28.1705  -12.3227   18.8235 C   0  0  0  0  0  0
  -27.5748  -13.3292   19.8278 C   0  0  2  0  0  0
  -28.5228  -13.7269   20.9830 C   0  0  0  0  0  0
  -25.2194  -13.8291   20.5766 C   0  0  0  0  0  0
  -24.1614  -13.0411   20.9260 C   0  0  0  0  0  0
  -24.6355  -11.6941   20.8728 C   0  0  0  0  0  0
  -23.9091  -10.4288   21.0394 C   0  0  0  0  0  0
  -24.3653   -9.4202   21.9167 C   0  0  0  0  0  0
  -23.6314   -8.2242   22.0750 C   0  0  0  0  0  0
  -22.4287   -8.0287   21.3550 C   0  0  0  0  0  0
  -21.9930   -9.0253   20.4640 C   0  0  0  0  0  0
  -22.7272  -10.2122   20.3035 C   0  0  0  0  0  0
  -21.6857   -6.0746   22.5285 C   0  0  0  0  0  0
  -21.4016   -6.5648   23.8217 C   0  0  0  0  0  0
  -21.3655   -5.6794   24.9172 C   0  0  0  0  0  0
  -21.6041   -4.3058   24.7220 C   0  0  0  0  0  0
  -21.8823   -3.8158   23.4341 C   0  0  0  0  0  0
  -21.9195   -4.6977   22.3399 C   0  0  0  0  0  0
  -22.7640  -13.5144   21.1918 C   0  0  0  0  0  0
  -22.1665   -4.2166   21.0973 F   0  0  0  0  0  0
  -21.5625   -3.4541   25.7728 F   0  0  0  0  0  0
  -29.6584  -14.4814   20.4070 N   0  0  0  0  0  0
  -26.2600  -12.9625   20.3157 N   0  0  0  0  0  0
  -25.9285  -11.6691   20.5629 N   0  0  0  0  0  0
  -22.0336  -12.8112   22.0484 N   0  0  0  0  0  0
  -25.3813  -15.2044   20.4277 N   0  0  0  0  0  0
  -31.2488  -15.9063   20.2581 O   0  0  0  0  0  0
  -21.6641   -6.8892   21.4252 O   0  0  0  0  0  0
  -22.3320  -14.5445   20.6766 O   0  0  0  0  0  0
  -24.6619  -31.7453   23.1804 C   0  0  0  0  0  0
  -25.9300  -32.4084   23.8125 C   0  0  1  0  0  0
  -27.8222  -27.0636   19.5665 C   0  0  0  0  0  0
  -25.5931  -33.8034   24.1843 N   0  0  0  0  0  0
  -23.4942  -30.2660   21.5826 C   0  0  2  0  0  0
  -24.8487  -28.2643   20.3917 C   0  0  0  0  0  0
  -22.7338  -29.3821   22.5666 C   0  0  0  0  0  0
  -18.0152  -28.1389   22.8452 C   0  0  0  0  0  0
  -24.1506  -36.7010   23.2626 C   0  0  0  0  0  0
  -26.0136  -30.1278   21.7480 C   0  0  0  0  0  0
  -26.0427  -28.5374   21.3638 C   0  0  0  0  0  0
  -27.5023  -27.8301   21.0592 C   0  0  0  0  0  0
  -26.4679  -26.9409   18.5042 C   0  0  0  0  0  0
  -25.0233  -27.4493   19.0598 C   0  0  0  0  0  0
  -23.7373  -29.3687   20.3240 C   0  0  0  0  0  0
  -25.4150  -36.2714   24.0261 C   0  0  1  0  0  0
  -20.5644  -28.3536   23.1465 C   0  0  2  0  0  0
  -20.6597  -26.9298   22.5521 C   0  0  0  0  0  0
  -19.5661  -26.6357   21.5223 C   0  0  0  0  0  0
  -18.1809  -26.7941   22.1561 C   0  0  0  0  0  0
  -19.1384  -28.8823   23.2904 C   0  0  0  0  0  0
  -18.9359  -30.1435   23.8918 C   0  0  0  0  0  0
  -17.6375  -30.6605   24.0565 C   0  0  0  0  0  0
  -25.9141  -34.9083   23.4914 C   0  0  0  0  0  0
  -16.5261  -29.9124   23.6301 C   0  0  0  0  0  0
  -16.7157  -28.6538   23.0314 C   0  0  0  0  0  0
  -26.4528  -31.6430   25.0964 C   0  0  0  0  0  0
  -25.3451  -31.3813   26.1421 C   0  0  0  0  0  0
  -27.0854  -30.2723   24.7660 C   0  0  0  0  0  0
  -27.5795  -32.4600   25.7783 C   0  0  0  0  0  0
  -27.5542  -37.1649   24.8472 C   0  0  0  0  0  0
  -21.4093  -29.2768   22.3986 N   0  0  0  0  0  0
  -26.4254  -37.3509   23.9390 N   0  0  0  0  0  0
  -24.7468  -30.7725   22.2088 N   0  0  0  0  0  0
  -23.3551  -28.7504   23.4226 O   0  0  0  0  0  0
  -28.5947  -25.9663   19.4865 O   0  0  0  0  0  0
  -26.5809  -34.8674   22.4578 O   0  0  0  0  0  0
  -23.5630  -32.1329   23.6139 O   0  0  0  0  0  0
  -27.3881  -24.0784   22.6565 C   0  0  0  0  0  0
  -27.8406  -22.8548   23.2838 C   0  0  0  0  0  0
  -27.2195  -24.2529   21.2654 C   0  0  0  0  0  0
  -28.1839  -21.4383   21.3340 C   0  0  0  0  0  0
  -25.1336  -24.4750   18.3113 C   0  0  0  0  0  0
  -27.9076  -21.5036   25.4791 C   0  0  0  0  0  0
  -27.3315  -23.8948   25.5993 C   0  0  0  0  0  0
  -29.6665  -23.2148   24.9543 C   0  0  0  0  0  0
  -26.7947  -29.0308   19.2184 C   0  0  0  0  0  0
  -24.8690  -25.6811   21.3978 C   0  0  0  0  0  0
  -29.5777  -20.0554   19.3944 C   0  0  0  0  0  0
  -30.3826  -19.8769   21.6860 C   0  0  0  0  0  0
  -29.0467  -17.6612   20.8326 C   0  0  0  0  0  0
  -27.8339  -24.8536   18.8095 C   0  0  0  0  0  0
  -26.2683  -24.6803   19.3899 C   0  0  1  0  0  0
  -28.1736  -22.8702   24.7989 C   0  0  0  0  0  0
  -26.1925  -25.9013   20.5669 C   0  0  0  0  0  0
  -29.1107  -19.7433   20.8234 C   0  0  0  0  0  0
  -28.1799  -21.6594   22.6580 N   0  0  0  0  0  0
  -27.6995  -22.7923   20.7348 N   0  0  0  0  0  0
  -31.3562  -13.6753   19.2869 H   0  0  0  0  0  0
  -30.6387  -12.5194   20.3414 H   0  0  0  0  0  0
  -30.1244  -11.9644   17.9379 H   0  0  0  0  0  0
  -29.4946  -13.5746   17.6817 H   0  0  0  0  0  0
  -28.2432  -11.3390   19.2908 H   0  0  0  0  0  0
  -27.5309  -12.2091   17.9484 H   0  0  0  0  0  0
  -27.4232  -14.2281   19.2303 H   0  0  0  0  0  0
  -28.8372  -12.8614   21.5687 H   0  0  0  0  0  0
  -27.9983  -14.3855   21.6748 H   0  0  0  0  0  0
  -25.2817   -9.5670   22.4714 H   0  0  0  0  0  0
  -24.0027   -7.4633   22.7464 H   0  0  0  0  0  0
  -21.0866   -8.8778   19.8940 H   0  0  0  0  0  0
  -22.3759  -10.9645   19.6121 H   0  0  0  0  0  0
  -21.2015   -7.6157   23.9725 H   0  0  0  0  0  0
  -21.1464   -6.0521   25.9074 H   0  0  0  0  0  0
  -22.0604   -2.7623   23.2831 H   0  0  0  0  0  0
  -22.4027  -11.9800   22.4870 H   0  0  0  0  0  0
  -21.0934  -13.1064   22.2694 H   0  0  0  0  0  0
  -24.6146  -15.8578   20.5496 H   0  0  0  0  0  0
  -26.2342  -15.6494   20.1164 H   0  0  0  0  0  0
  -26.7235  -32.4328   23.0648 H   0  0  0  0  0  0
  -25.0056  -33.9107   24.9955 H   0  0  0  0  0  0
  -22.8599  -31.1081   21.3006 H   0  0  0  0  0  0
  -23.3777  -35.9323   23.3183 H   0  0  0  0  0  0
  -24.3591  -36.8769   22.2055 H   0  0  0  0  0  0
  -23.7243  -37.6165   23.6766 H   0  0  0  0  0  0
  -26.1899  -30.7501   20.8724 H   0  0  0  0  0  0
  -26.8968  -30.3587   22.3223 H   0  0  0  0  0  0
  -28.3171  -27.9516   21.7587 H   0  0  0  0  0  0
  -26.5603  -26.5891   17.4917 H   0  0  0  0  0  0
  -24.1983  -27.4250   18.3645 H   0  0  0  0  0  0
  -23.9368  -30.0203   19.4754 H   0  0  0  0  0  0
  -22.8160  -28.8532   20.0498 H   0  0  0  0  0  0
  -25.1352  -36.1453   25.0746 H   0  0  0  0  0  0
  -20.9542  -28.3050   24.1663 H   0  0  0  0  0  0
  -20.5420  -26.2134   23.3668 H   0  0  0  0  0  0
  -21.6488  -26.7318   22.1379 H   0  0  0  0  0  0
  -19.6804  -25.6271   21.1252 H   0  0  0  0  0  0
  -19.6711  -27.3172   20.6773 H   0  0  0  0  0  0
  -17.4115  -26.6724   21.3922 H   0  0  0  0  0  0
  -18.0144  -26.0094   22.8949 H   0  0  0  0  0  0
  -19.7860  -30.7208   24.2317 H   0  0  0  0  0  0
  -17.4957  -31.6288   24.5169 H   0  0  0  0  0  0
  -15.5274  -30.3056   23.7625 H   0  0  0  0  0  0
  -15.8542  -28.0901   22.7009 H   0  0  0  0  0  0
  -24.5830  -30.6924   25.7747 H   0  0  0  0  0  0
  -24.8390  -32.2994   26.4364 H   0  0  0  0  0  0
  -25.7483  -30.9347   27.0531 H   0  0  0  0  0  0
  -27.4209  -29.7768   25.6787 H   0  0  0  0  0  0
  -26.3801  -29.5766   24.3090 H   0  0  0  0  0  0
  -27.9743  -30.3673   24.1392 H   0  0  0  0  0  0
  -27.2124  -33.3893   26.2088 H   0  0  0  0  0  0
  -28.3682  -32.7163   25.0686 H   0  0  0  0  0  0
  -28.0430  -31.9019   26.5947 H   0  0  0  0  0  0
  -28.2508  -37.9984   24.7491 H   0  0  0  0  0  0
  -28.1081  -36.2492   24.6342 H   0  0  0  0  0  0
  -27.2235  -37.1325   25.8869 H   0  0  0  0  0  0
  -20.9609  -29.8234   21.6778 H   0  0  0  0  0  0
  -26.0038  -38.2545   24.1398 H   0  0  0  0  0  0
  -27.1371  -24.9392   23.2567 H   0  0  0  0  0  0
  -25.2006  -23.4809   17.8631 H   0  0  0  0  0  0
  -25.1198  -25.1362   17.4488 H   0  0  0  0  0  0
  -24.1481  -24.5406   18.7755 H   0  0  0  0  0  0
  -26.8688  -21.1911   25.3653 H   0  0  0  0  0  0
  -28.1178  -21.5525   26.5475 H   0  0  0  0  0  0
  -28.5399  -20.7157   25.0742 H   0  0  0  0  0  0
  -26.2652  -23.7111   25.4808 H   0  0  0  0  0  0
  -27.5313  -24.9269   25.3110 H   0  0  0  0  0  0
  -27.5472  -23.8375   26.6668 H   0  0  0  0  0  0
  -30.2887  -22.5295   24.3785 H   0  0  0  0  0  0
  -29.9870  -23.1647   25.9952 H   0  0  0  0  0  0
  -29.8772  -24.2213   24.5879 H   0  0  0  0  0  0
  -27.5101  -29.7045   19.7067 H   0  0  0  0  0  0
  -25.9832  -29.6904   18.8883 H   0  0  0  0  0  0
  -27.3513  -29.0604   18.2692 H   0  0  0  0  0  0
  -24.8913  -26.2390   22.3323 H   0  0  0  0  0  0
  -24.7431  -24.6316   21.6650 H   0  0  0  0  0  0
  -23.9554  -25.9352   20.8627 H   0  0  0  0  0  0
  -30.0920  -21.0198   19.3565 H   0  0  0  0  0  0
  -28.7371  -20.1102   18.7038 H   0  0  0  0  0  0
  -30.2754  -19.3007   19.0267 H   0  0  0  0  0  0
  -30.8306  -20.8697   21.6120 H   0  0  0  0  0  0
  -31.1421  -19.1471   21.4085 H   0  0  0  0  0  0
  -30.1456  -19.7154   22.7390 H   0  0  0  0  0  0
  -28.1905  -17.4745   20.1855 H   0  0  0  0  0  0
  -28.6566  -17.4595   21.8283 H   0  0  0  0  0  0
  -28.4390  -23.9516   18.8408 H   0  0  0  0  0  0
  -27.8475  -25.0092   17.7304 H   0  0  0  0  0  0
  -25.9140  -23.6948   19.7082 H   0  0  0  0  0  0
  1 25  1  0  0  0
  1 30  2  0  0  0
  1 83  1  0  0  0
  2  3  1  0  0  0
  2 25  1  0  0  0
  2 91  1  0  0  0
  2 92  1  0  0  0
  3  4  1  0  0  0
  3 93  1  0  0  0
  3 94  1  0  0  0
  4  5  1  0  0  0
  4 95  1  0  0  0
  4 96  1  0  0  0
  5  6  1  0  0  0
  5 26  1  0  0  0
  5 97  1  0  0  0
  6 25  1  0  0  0
  6 98  1  0  0  0
  6 99  1  0  0  0
  7  8  2  0  0  0
  7 26  1  0  0  0
  7 29  1  0  0  0
  8  9  1  0  0  0
  8 22  1  0  0  0
  9 10  1  0  0  0
  9 27  2  0  0  0
 10 11  2  0  0  0
 10 15  1  0  0  0
 11 12  1  0  0  0
 11100  1  0  0  0
 12 13  2  0  0  0
 12101  1  0  0  0
 13 14  1  0  0  0
 13 31  1  0  0  0
 14 15  2  0  0  0
 14102  1  0  0  0
 15103  1  0  0  0
 16 17  2  0  0  0
 16 21  1  0  0  0
 16 31  1  0  0  0
 17 18  1  0  0  0
 17104  1  0  0  0
 18 19  2  0  0  0
 18105  1  0  0  0
 19 20  1  0  0  0
 19 24  1  0  0  0
 20 21  2  0  0  0
 20106  1  0  0  0
 21 23  1  0  0  0
 22 28  1  0  0  0
 22 32  2  0  0  0
 26 27  1  0  0  0
 28107  1  0  0  0
 28108  1  0  0  0
 29109  1  0  0  0
 29110  1  0  0  0
 33 34  1  0  0  0
 33 66  1  0  0  0
 33 70  2  0  0  0
 34 36  1  0  0  0
 34 59  1  0  0  0
 34111  1  0  0  0
 35 44  2  0  0  0
 35 45  1  0  0  0
 35 68  1  0  0  0
 36 56  1  0  0  0
 36112  1  0  0  0
 37 39  1  0  0  0
 37 47  1  0  0  0
 37 66  1  0  0  0
 37113  1  0  0  0
 38 43  2  0  0  0
 38 46  1  0  0  0
 38 47  1  0  0  0
 39 64  1  0  0  0
 39 67  2  0  0  0
 40 52  1  0  0  0
 40 53  2  0  0  0
 40 58  1  0  0  0
 41114  1  0  0  0
 41115  1  0  0  0
 41116  1  0  0  0
 41 48  1  0  0  0
 42 43  1  0  0  0
 42 66  1  0  0  0
 42117  1  0  0  0
 42118  1  0  0  0
 43 44  1  0  0  0
 44119  1  0  0  0
 45 46  2  0  0  0
 45120  1  0  0  0
 46121  1  0  0  0
 47122  1  0  0  0
 47123  1  0  0  0
 48 56  1  0  0  0
 48 65  1  0  0  0
 48124  1  0  0  0
 49 50  1  0  0  0
 49 53  1  0  0  0
 49 64  1  0  0  0
 49125  1  0  0  0
 50 51  1  0  0  0
 50126  1  0  0  0
 50127  1  0  0  0
 51 52  1  0  0  0
 51128  1  0  0  0
 51129  1  0  0  0
 52130  1  0  0  0
 52131  1  0  0  0
 53 54  1  0  0  0
 54 55  2  0  0  0
 54132  1  0  0  0
 55 57  1  0  0  0
 55133  1  0  0  0
 56 69  2  0  0  0
 57 58  2  0  0  0
 57134  1  0  0  0
 58135  1  0  0  0
 59 60  1  0  0  0
 59 61  1  0  0  0
 59 62  1  0  0  0
 60136  1  0  0  0
 60137  1  0  0  0
 60138  1  0  0  0
 61139  1  0  0  0
 61140  1  0  0  0
 61141  1  0  0  0
 62142  1  0  0  0
 62143  1  0  0  0
 62144  1  0  0  0
 63 65  1  0  0  0
 63145  1  0  0  0
 63146  1  0  0  0
 63147  1  0  0  0
 64148  1  0  0  0
 65149  1  0  0  0
 68 84  1  0  0  0
 71 72  2  0  0  0
 71 73  1  0  0  0
 71150  1  0  0  0
 72 86  1  0  0  0
 72 89  1  0  0  0
 73 87  1  0  0  0
 73 90  2  0  0  0
 74 88  1  0  0  0
 74 89  2  0  0  0
 74 90  1  0  0  0
 75151  1  0  0  0
 75152  1  0  0  0
 75153  1  0  0  0
 75 85  1  0  0  0
 76154  1  0  0  0
 76155  1  0  0  0
 76156  1  0  0  0
 76 86  1  0  0  0
 77 86  1  0  0  0
 77157  1  0  0  0
 77158  1  0  0  0
 77159  1  0  0  0
 78 86  1  0  0  0
 78160  1  0  0  0
 78161  1  0  0  0
 78162  1  0  0  0
 79163  1  0  0  0
 79164  1  0  0  0
 79165  1  0  0  0
 79 87  1  0  0  0
 80 87  1  0  0  0
 80166  1  0  0  0
 80167  1  0  0  0
 80168  1  0  0  0
 81169  1  0  0  0
 81170  1  0  0  0
 81171  1  0  0  0
 81 88  1  0  0  0
 82 88  1  0  0  0
 82172  1  0  0  0
 82173  1  0  0  0
 82174  1  0  0  0
 83 88  1  0  0  0
 83175  1  0  0  0
 83176  1  0  0  0
 84 85  1  0  0  0
 84177  1  0  0  0
 84178  1  0  0  0
 85 87  1  0  0  0
 85179  1  0  0  0
M  ISO  4   1 100  68 101  83 100  84 101
M  END
> <chiral flag>
0

> <version>
0

> <s_m_source_file>
/data/baiqing/PycharmProjects/Reinvent-master-3.2/result/LINK_invent/BTK/process_docking_weight1_custom_sum_contain_oxygen_bond_distance_aromatic_linkinvent_7_9_3/rearranged_h_0071.sdf

> <i_m_source_file_index>
81

> <r_mmod_Potential_Energy-OPLS-2005>
11008.6455078125

> <r_mmod_Stretch_Energy-OPLS-2005>
6796.98095703125

> <r_mmod_Bend_Energy-OPLS-2005>
1170.13818359375

> <r_mmod_Torsional_Energy-OPLS-2005>
350.058227539062

> <r_mmod_Improper_Torsional_Energy-OPLS-2005>
47.7688140869141

> <r_mmod_Van_der_Waal_Energy-OPLS-2005>
2121.89892578125

> <r_mmod_Electrostatic_Energy-OPLS-2005>
-898.855102539062

> <r_mmod_Solvation_Energy-OPLS-2005>
-211.332458496094

> <b_mmod_Minimization_Converged-OPLS-2005>
0

> <r_mmod_RMS_Derivative-OPLS-2005>
8.96711826324463

$$$$
84
                    3D
 Structure written by MMmdl.
167175  0  0  1  0            999 V2000
  -30.7533  -14.5214   20.6466 C   0  0  0  0  0  0
  -30.4118  -12.3634   19.4531 C   0  0  0  0  0  0
  -29.4964  -12.5250   18.2249 C   0  0  0  0  0  0
  -28.0227  -12.3633   18.6353 C   0  0  0  0  0  0
  -27.6578  -13.2212   19.8749 C   0  0  2  0  0  0
  -28.6962  -13.0677   21.0086 C   0  0  0  0  0  0
  -25.2514  -13.8114   20.5540 C   0  0  0  0  0  0
  -24.1800  -13.0398   20.9107 C   0  0  0  0  0  0
  -24.6409  -11.6886   20.8735 C   0  0  0  0  0  0
  -23.9076  -10.4276   21.0405 C   0  0  0  0  0  0
  -24.3619   -9.4195   21.9189 C   0  0  0  0  0  0
  -23.6288   -8.2235   22.0759 C   0  0  0  0  0  0
  -22.4272   -8.0277   21.3544 C   0  0  0  0  0  0
  -21.9908   -9.0253   20.4648 C   0  0  0  0  0  0
  -22.7244  -10.2129   20.3056 C   0  0  0  0  0  0
  -21.6855   -6.0731   22.5279 C   0  0  0  0  0  0
  -21.4019   -6.5632   23.8213 C   0  0  0  0  0  0
  -21.3657   -5.6785   24.9173 C   0  0  0  0  0  0
  -21.6040   -4.3049   24.7225 C   0  0  0  0  0  0
  -21.8821   -3.8140   23.4346 C   0  0  0  0  0  0
  -21.9197   -4.6958   22.3401 C   0  0  0  0  0  0
  -22.7838  -13.5216   21.1801 C   0  0  0  0  0  0
  -22.1662   -4.2141   21.0980 F   0  0  0  0  0  0
  -21.5630   -3.4531   25.7738 F   0  0  0  0  0  0
  -30.0258  -13.3728   20.4650 N   0  0  0  0  0  0
  -26.3022  -12.9353   20.3405 N   0  0  0  0  0  0
  -25.9368  -11.6500   20.5850 N   0  0  0  0  0  0
  -22.0496  -12.8231   22.0386 N   0  0  0  0  0  0
  -25.4145  -15.1767   20.3727 N   0  0  0  0  0  0
  -31.7753  -14.6989   19.9736 O   0  0  0  0  0  0
  -21.6636   -6.8874   21.4241 O   0  0  0  0  0  0
  -22.3523  -14.5536   20.6687 O   0  0  0  0  0  0
  -24.6194  -31.8632   23.2045 C   0  0  0  0  0  0
  -25.9061  -32.4798   23.8363 C   0  0  1  0  0  0
  -27.2327  -27.3813   20.1180 C   0  0  0  0  0  0
  -25.5892  -33.8597   24.2300 N   0  0  0  0  0  0
  -23.4119  -30.4844   21.5455 C   0  0  2  0  0  0
  -24.8617  -28.9416   20.1138 C   0  0  0  0  0  0
  -22.7445  -29.4628   22.4955 C   0  0  0  0  0  0
  -18.0282  -28.1385   22.8484 C   0  0  0  0  0  0
  -24.1488  -36.7311   23.2638 C   0  0  0  0  0  0
  -25.9446  -30.8149   21.3638 C   0  0  0  0  0  0
  -26.0249  -29.4443   20.7127 C   0  0  0  0  0  0
  -27.2175  -28.6740   20.7061 C   0  0  0  0  0  0
  -26.0557  -26.9077   19.5047 C   0  0  0  0  0  0
  -24.8749  -27.6761   19.5013 C   0  0  0  0  0  0
  -23.6252  -29.8131   20.1617 C   0  0  0  0  0  0
  -25.4108  -36.3102   24.0337 C   0  0  1  0  0  0
  -20.5874  -28.3672   23.1300 C   0  0  2  0  0  0
  -20.6770  -26.9402   22.5411 C   0  0  0  0  0  0
  -19.5752  -26.6394   21.5201 C   0  0  0  0  0  0
  -18.1926  -26.7936   22.1606 C   0  0  0  0  0  0
  -19.1533  -28.8843   23.2893 C   0  0  0  0  0  0
  -18.9459  -30.1442   23.8915 C   0  0  0  0  0  0
  -17.6463  -30.6581   24.0577 C   0  0  0  0  0  0
  -25.9034  -34.9466   23.5120 C   0  0  0  0  0  0
  -16.5353  -29.9089   23.6327 C   0  0  0  0  0  0
  -16.7273  -28.6512   23.0339 C   0  0  0  0  0  0
  -26.4473  -31.6584   25.0704 C   0  0  0  0  0  0
  -25.3731  -31.3697   26.1448 C   0  0  0  0  0  0
  -27.0295  -30.3020   24.6090 C   0  0  0  0  0  0
  -27.6045  -32.4304   25.7468 C   0  0  0  0  0  0
  -27.5582  -37.1808   24.8464 C   0  0  0  0  0  0
  -21.4162  -29.3041   22.3710 N   0  0  0  0  0  0
  -26.4296  -37.3787   23.9407 N   0  0  0  0  0  0
  -24.6772  -31.0693   22.0964 N   0  0  0  0  0  0
  -23.4192  -28.8163   23.3012 O   0  0  0  0  0  0
  -28.3581  -26.5707   20.1276 O   0  0  0  0  0  0
  -26.5599  -34.8926   22.4686 O   0  0  0  0  0  0
  -23.5373  -32.1392   23.7414 O   0  0  0  0  0  0
  -29.5650  -18.0659   21.3511 C   0  0  0  0  0  0
  -28.3603  -18.6949   21.6164 C   0  0  0  0  0  0
  -27.5221  -17.5567   21.9002 C   0  0  0  0  0  0
  -26.1146  -17.4926   22.4314 C   0  0  0  0  0  0
  -26.4840  -20.4323   21.5319 C   0  0  0  0  0  0
  -28.2993  -20.5151   23.2849 C   0  0  0  0  0  0
  -28.5923  -22.7991   21.3560 C   0  0  0  0  0  0
  -28.6300  -23.9827   20.3187 C   0  0  0  0  0  0
  -28.7449  -21.2824   20.8939 C   0  0  0  0  0  0
  -28.2620  -25.3755   20.9568 C   0  0  0  0  0  0
  -30.4918  -15.0753   23.1821 C   0  0  0  0  0  0
  -30.4746  -15.6322   21.7325 C   0  0  2  0  0  0
  -27.9959  -20.2144   21.8006 C   0  0  0  0  0  0
  -28.1427  -16.3910   21.7751 N   0  0  0  0  0  0
  -29.4303  -16.6785   21.5177 N   0  0  0  0  0  0
  -30.6475  -16.1025   24.1564 O   0  0  0  0  0  0
  -31.4587  -12.4381   19.1536 H   0  0  0  0  0  0
  -30.3081  -11.3614   19.8737 H   0  0  0  0  0  0
  -29.7559  -11.7899   17.4624 H   0  0  0  0  0  0
  -29.6521  -13.5070   17.7746 H   0  0  0  0  0  0
  -27.8535  -11.3083   18.8528 H   0  0  0  0  0  0
  -27.3672  -12.6100   17.7992 H   0  0  0  0  0  0
  -27.6849  -14.2626   19.5527 H   0  0  0  0  0  0
  -28.6823  -12.0552   21.4129 H   0  0  0  0  0  0
  -28.4191  -13.7246   21.8267 H   0  0  0  0  0  0
  -25.2763   -9.5672   22.4766 H   0  0  0  0  0  0
  -23.9991   -7.4626   22.7483 H   0  0  0  0  0  0
  -21.0835   -8.8776   19.8956 H   0  0  0  0  0  0
  -22.3700  -10.9667   19.6163 H   0  0  0  0  0  0
  -21.2015   -7.6140   23.9713 H   0  0  0  0  0  0
  -21.1473   -6.0515   25.9075 H   0  0  0  0  0  0
  -22.0603   -2.7601   23.2850 H   0  0  0  0  0  0
  -22.4102  -11.9889   22.4770 H   0  0  0  0  0  0
  -21.1128  -13.1288   22.2608 H   0  0  0  0  0  0
  -24.6603  -15.8294   20.5482 H   0  0  0  0  0  0
  -26.3326  -15.6109   20.3675 H   0  0  0  0  0  0
  -26.7129  -32.5492   23.1120 H   0  0  0  0  0  0
  -25.0052  -33.9750   25.0452 H   0  0  0  0  0  0
  -22.7030  -31.3022   21.4012 H   0  0  0  0  0  0
  -23.3748  -35.9644   23.3305 H   0  0  0  0  0  0
  -24.3585  -36.8921   22.2050 H   0  0  0  0  0  0
  -23.7238  -37.6520   23.6645 H   0  0  0  0  0  0
  -26.0590  -31.5779   20.5929 H   0  0  0  0  0  0
  -26.8320  -30.8729   21.9826 H   0  0  0  0  0  0
  -28.1157  -29.0545   21.1723 H   0  0  0  0  0  0
  -26.0519  -25.9334   19.0363 H   0  0  0  0  0  0
  -23.9830  -27.2851   19.0311 H   0  0  0  0  0  0
  -23.7379  -30.5862   19.4008 H   0  0  0  0  0  0
  -22.7489  -29.2348   19.8635 H   0  0  0  0  0  0
  -25.1286  -36.1969   25.0830 H   0  0  0  0  0  0
  -20.9965  -28.3228   24.1421 H   0  0  0  0  0  0
  -20.5660  -26.2273   23.3598 H   0  0  0  0  0  0
  -21.6638  -26.7442   22.1195 H   0  0  0  0  0  0
  -19.6911  -25.6308   21.1218 H   0  0  0  0  0  0
  -19.6693  -27.3214   20.6736 H   0  0  0  0  0  0
  -17.4200  -26.6693   21.4005 H   0  0  0  0  0  0
  -18.0325  -26.0068   22.8992 H   0  0  0  0  0  0
  -19.7936  -30.7249   24.2296 H   0  0  0  0  0  0
  -17.5021  -31.6254   24.5192 H   0  0  0  0  0  0
  -15.5357  -30.2998   23.7649 H   0  0  0  0  0  0
  -15.8673  -28.0845   22.7033 H   0  0  0  0  0  0
  -24.5916  -30.7026   25.7789 H   0  0  0  0  0  0
  -24.8904  -32.2849   26.4884 H   0  0  0  0  0  0
  -25.8088  -30.8880   27.0212 H   0  0  0  0  0  0
  -26.2837  -29.6787   24.1138 H   0  0  0  0  0  0
  -27.4052  -29.7248   25.4549 H   0  0  0  0  0  0
  -27.8681  -30.4331   23.9249 H   0  0  0  0  0  0
  -27.2669  -33.3602   26.2058 H   0  0  0  0  0  0
  -28.3849  -32.6863   25.0290 H   0  0  0  0  0  0
  -28.0712  -31.8411   26.5371 H   0  0  0  0  0  0
  -28.2604  -38.0102   24.7511 H   0  0  0  0  0  0
  -28.1078  -36.2634   24.6294 H   0  0  0  0  0  0
  -27.2300  -37.1466   25.8868 H   0  0  0  0  0  0
  -20.9327  -29.8787   21.6946 H   0  0  0  0  0  0
  -26.0189  -38.2869   24.1406 H   0  0  0  0  0  0
  -30.5381  -18.5043   21.1771 H   0  0  0  0  0  0
  -25.3891  -17.8270   21.6907 H   0  0  0  0  0  0
  -26.0023  -18.0988   23.3294 H   0  0  0  0  0  0
  -25.8362  -16.4795   22.7221 H   0  0  0  0  0  0
  -25.8537  -20.0423   22.3264 H   0  0  0  0  0  0
  -26.1786  -19.9723   20.5916 H   0  0  0  0  0  0
  -26.1997  -21.4791   21.4591 H   0  0  0  0  0  0
  -27.8043  -19.8001   23.9427 H   0  0  0  0  0  0
  -27.9656  -21.5027   23.6018 H   0  0  0  0  0  0
  -29.3692  -20.4499   23.4868 H   0  0  0  0  0  0
  -27.6546  -22.9241   21.8915 H   0  0  0  0  0  0
  -29.3525  -22.9917   22.1137 H   0  0  0  0  0  0
  -27.9308  -23.7738   19.5087 H   0  0  0  0  0  0
  -29.6193  -24.0371   19.8636 H   0  0  0  0  0  0
  -29.8098  -21.0483   20.8604 H   0  0  0  0  0  0
  -28.3935  -21.1768   19.8666 H   0  0  0  0  0  0
  -28.9263  -25.5458   21.8046 H   0  0  0  0  0  0
  -27.2652  -25.2958   21.3953 H   0  0  0  0  0  0
  -31.3027  -14.3544   23.2980 H   0  0  0  0  0  0
  -29.5720  -14.5434   23.4169 H   0  0  0  0  0  0
  -31.3998  -16.2098   21.6926 H   0  0  0  0  0  0
  -29.8779  -16.6628   24.0999 H   0  0  0  0  0  0
  1 25  1  0  0  0
  1 30  2  0  0  0
  1 82  1  0  0  0
  2  3  1  0  0  0
  2 25  1  0  0  0
  2 87  1  0  0  0
  2 88  1  0  0  0
  3  4  1  0  0  0
  3 89  1  0  0  0
  3 90  1  0  0  0
  4  5  1  0  0  0
  4 91  1  0  0  0
  4 92  1  0  0  0
  5  6  1  0  0  0
  5 26  1  0  0  0
  5 93  1  0  0  0
  6 25  1  0  0  0
  6 94  1  0  0  0
  6 95  1  0  0  0
  7  8  2  0  0  0
  7 26  1  0  0  0
  7 29  1  0  0  0
  8  9  1  0  0  0
  8 22  1  0  0  0
  9 10  1  0  0  0
  9 27  2  0  0  0
 10 11  2  0  0  0
 10 15  1  0  0  0
 11 12  1  0  0  0
 11 96  1  0  0  0
 12 13  2  0  0  0
 12 97  1  0  0  0
 13 14  1  0  0  0
 13 31  1  0  0  0
 14 15  2  0  0  0
 14 98  1  0  0  0
 15 99  1  0  0  0
 16 17  2  0  0  0
 16 21  1  0  0  0
 16 31  1  0  0  0
 17 18  1  0  0  0
 17100  1  0  0  0
 18 19  2  0  0  0
 18101  1  0  0  0
 19 20  1  0  0  0
 19 24  1  0  0  0
 20 21  2  0  0  0
 20102  1  0  0  0
 21 23  1  0  0  0
 22 28  1  0  0  0
 22 32  2  0  0  0
 26 27  1  0  0  0
 28103  1  0  0  0
 28104  1  0  0  0
 29105  1  0  0  0
 29106  1  0  0  0
 33 34  1  0  0  0
 33 66  1  0  0  0
 33 70  2  0  0  0
 34 36  1  0  0  0
 34 59  1  0  0  0
 34107  1  0  0  0
 35 44  2  0  0  0
 35 45  1  0  0  0
 35 68  1  0  0  0
 36 56  1  0  0  0
 36108  1  0  0  0
 37 39  1  0  0  0
 37 47  1  0  0  0
 37 66  1  0  0  0
 37109  1  0  0  0
 38 43  2  0  0  0
 38 46  1  0  0  0
 38 47  1  0  0  0
 39 64  1  0  0  0
 39 67  2  0  0  0
 40 52  1  0  0  0
 40 53  2  0  0  0
 40 58  1  0  0  0
 41110  1  0  0  0
 41111  1  0  0  0
 41112  1  0  0  0
 41 48  1  0  0  0
 42 43  1  0  0  0
 42 66  1  0  0  0
 42113  1  0  0  0
 42114  1  0  0  0
 43 44  1  0  0  0
 44115  1  0  0  0
 45 46  2  0  0  0
 45116  1  0  0  0
 46117  1  0  0  0
 47118  1  0  0  0
 47119  1  0  0  0
 48 56  1  0  0  0
 48 65  1  0  0  0
 48120  1  0  0  0
 49 50  1  0  0  0
 49 53  1  0  0  0
 49 64  1  0  0  0
 49121  1  0  0  0
 50 51  1  0  0  0
 50122  1  0  0  0
 50123  1  0  0  0
 51 52  1  0  0  0
 51124  1  0  0  0
 51125  1  0  0  0
 52126  1  0  0  0
 52127  1  0  0  0
 53 54  1  0  0  0
 54 55  2  0  0  0
 54128  1  0  0  0
 55 57  1  0  0  0
 55129  1  0  0  0
 56 69  2  0  0  0
 57 58  2  0  0  0
 57130  1  0  0  0
 58131  1  0  0  0
 59 60  1  0  0  0
 59 61  1  0  0  0
 59 62  1  0  0  0
 60132  1  0  0  0
 60133  1  0  0  0
 60134  1  0  0  0
 61135  1  0  0  0
 61136  1  0  0  0
 61137  1  0  0  0
 62138  1  0  0  0
 62139  1  0  0  0
 62140  1  0  0  0
 63 65  1  0  0  0
 63141  1  0  0  0
 63142  1  0  0  0
 63143  1  0  0  0
 64144  1  0  0  0
 65145  1  0  0  0
 68 80  1  0  0  0
 71 72  2  0  0  0
 71 85  1  0  0  0
 71146  1  0  0  0
 72 73  1  0  0  0
 72 83  1  0  0  0
 73 74  1  0  0  0
 73 84  2  0  0  0
 74147  1  0  0  0
 74148  1  0  0  0
 74149  1  0  0  0
 75150  1  0  0  0
 75151  1  0  0  0
 75152  1  0  0  0
 75 83  1  0  0  0
 76 83  1  0  0  0
 76153  1  0  0  0
 76154  1  0  0  0
 76155  1  0  0  0
 77 78  1  0  0  0
 77 79  1  0  0  0
 77156  1  0  0  0
 77157  1  0  0  0
 78 80  1  0  0  0
 78158  1  0  0  0
 78159  1  0  0  0
 79 83  1  0  0  0
 79160  1  0  0  0
 79161  1  0  0  0
 80162  1  0  0  0
 80163  1  0  0  0
 81 86  1  0  0  0
 81164  1  0  0  0
 81165  1  0  0  0
 81 82  1  0  0  0
 82 85  1  0  0  0
 82166  1  0  0  0
 84 85  1  0  0  0
 86167  1  0  0  0
M  ISO  4   1 100  68 101  80 101  82 100
M  END
> <chiral flag>
0

> <version>
0

> <s_m_source_file>
/data/baiqing/PycharmProjects/Reinvent-master-3.2/result/LINK_invent/BTK/process_docking_weight1_custom_sum_contain_oxygen_bond_distance_aromatic_linkinvent_7_9_3/rearranged_h_0071.sdf

> <i_m_source_file_index>
82

> <r_mmod_Potential_Energy-OPLS-2005>
164.439331054688

> <r_mmod_Stretch_Energy-OPLS-2005>
68.2342224121094

> <r_mmod_Bend_Energy-OPLS-2005>
151.704666137695

> <r_mmod_Torsional_Energy-OPLS-2005>
244.972290039062

> <r_mmod_Improper_Torsional_Energy-OPLS-2005>
6.46987438201904

> <r_mmod_Van_der_Waal_Energy-OPLS-2005>
121.673980712891

> <r_mmod_Electrostatic_Energy-OPLS-2005>
-265.480499267578

> <r_mmod_Solvation_Energy-OPLS-2005>
-186.941848754883

> <b_mmod_Minimization_Converged-OPLS-2005>
0

> <r_mmod_RMS_Derivative-OPLS-2005>
1.07607710361481

$$$$
85
                    3D
 Structure written by MMmdl.
163171  0  0  1  0            999 V2000
  -30.5382  -15.0684   20.2677 C   0  0  0  0  0  0
  -30.4392  -12.6490   19.4836 C   0  0  0  0  0  0
  -29.5098  -12.4769   18.2582 C   0  0  0  0  0  0
  -28.0646  -12.2017   18.7092 C   0  0  0  0  0  0
  -27.6078  -13.1758   19.8170 C   0  0  2  0  0  0
  -28.6644  -13.3812   20.9264 C   0  0  0  0  0  0
  -25.2404  -13.7968   20.5667 C   0  0  0  0  0  0
  -24.1706  -13.0293   20.9293 C   0  0  0  0  0  0
  -24.6285  -11.6781   20.8875 C   0  0  0  0  0  0
  -23.8971  -10.4208   21.0505 C   0  0  0  0  0  0
  -24.3563   -9.4133   21.9244 C   0  0  0  0  0  0
  -23.6260   -8.2160   22.0772 C   0  0  0  0  0  0
  -22.4240   -8.0220   21.3553 C   0  0  0  0  0  0
  -21.9860   -9.0188   20.4659 C   0  0  0  0  0  0
  -22.7178  -10.2070   20.3104 C   0  0  0  0  0  0
  -21.6839   -6.0696   22.5278 C   0  0  0  0  0  0
  -21.3988   -6.5617   23.8203 C   0  0  0  0  0  0
  -21.3647   -5.6777   24.9170 C   0  0  0  0  0  0
  -21.6054   -4.3039   24.7224 C   0  0  0  0  0  0
  -21.8832   -3.8118   23.4348 C   0  0  0  0  0  0
  -21.9195   -4.6934   22.3400 C   0  0  0  0  0  0
  -22.7750  -13.5160   21.1904 C   0  0  0  0  0  0
  -22.1667   -4.2124   21.0978 F   0  0  0  0  0  0
  -21.5634   -3.4541   25.7747 F   0  0  0  0  0  0
  -29.9304  -13.7967   20.2928 N   0  0  0  0  0  0
  -26.2778  -12.9056   20.3286 N   0  0  0  0  0  0
  -25.9196  -11.6289   20.5896 N   0  0  0  0  0  0
  -22.0378  -12.8198   22.0483 N   0  0  0  0  0  0
  -25.3949  -15.1659   20.3844 N   0  0  0  0  0  0
  -31.7740  -15.0274   20.2803 O   0  0  0  0  0  0
  -21.6608   -6.8829   21.4233 O   0  0  0  0  0  0
  -22.3474  -14.5459   20.6716 O   0  0  0  0  0  0
  -24.6419  -31.8424   23.1831 C   0  0  0  0  0  0
  -25.9177  -32.4689   23.8252 C   0  0  1  0  0  0
  -27.2425  -27.1350   20.1534 C   0  0  0  0  0  0
  -25.5920  -33.8499   24.2179 N   0  0  0  0  0  0
  -23.4502  -30.4540   21.5272 C   0  0  2  0  0  0
  -24.9082  -28.8785   20.1053 C   0  0  0  0  0  0
  -22.7575  -29.4516   22.4833 C   0  0  0  0  0  0
  -18.0326  -28.1360   22.8502 C   0  0  0  0  0  0
  -24.1489  -36.7235   23.2648 C   0  0  0  0  0  0
  -26.0042  -30.7127   21.3882 C   0  0  0  0  0  0
  -26.0781  -29.3228   20.7314 C   0  0  0  0  0  0
  -27.2370  -28.4624   20.7473 C   0  0  0  0  0  0
  -26.0443  -26.7856   19.4918 C   0  0  0  0  0  0
  -24.9051  -27.6251   19.4706 C   0  0  0  0  0  0
  -23.6792  -29.7741   20.1487 C   0  0  0  0  0  0
  -25.4125  -36.3030   24.0324 C   0  0  1  0  0  0
  -20.5937  -28.3699   23.1242 C   0  0  2  0  0  0
  -20.6799  -26.9394   22.5409 C   0  0  0  0  0  0
  -19.5765  -26.6357   21.5219 C   0  0  0  0  0  0
  -18.1961  -26.7907   22.1639 C   0  0  0  0  0  0
  -19.1578  -28.8848   23.2872 C   0  0  0  0  0  0
  -18.9493  -30.1441   23.8891 C   0  0  0  0  0  0
  -17.6487  -30.6572   24.0549 C   0  0  0  0  0  0
  -25.9073  -34.9404   23.5072 C   0  0  0  0  0  0
  -16.5382  -29.9065   23.6327 C   0  0  0  0  0  0
  -16.7310  -28.6467   23.0379 C   0  0  0  0  0  0
  -26.4512  -31.6562   25.0699 C   0  0  0  0  0  0
  -25.3688  -31.3736   26.1383 C   0  0  0  0  0  0
  -27.0394  -30.2965   24.6289 C   0  0  0  0  0  0
  -27.6052  -32.4326   25.7467 C   0  0  0  0  0  0
  -27.5585  -37.1771   24.8472 C   0  0  0  0  0  0
  -21.4259  -29.3053   22.3627 N   0  0  0  0  0  0
  -26.4294  -37.3744   23.9414 N   0  0  0  0  0  0
  -24.7173  -31.0262   22.0873 N   0  0  0  0  0  0
  -23.4220  -28.8074   23.2988 O   0  0  0  0  0  0
  -28.3206  -26.1837   20.2853 O   0  0  0  0  0  0
  -26.5674  -34.8905   22.4664 O   0  0  0  0  0  0
  -23.5526  -32.1305   23.7027 O   0  0  0  0  0  0
  -31.1055  -20.0014   19.7769 C   0  0  0  0  0  0
  -29.8662  -20.5003   20.2891 C   0  0  0  0  0  0
  -29.2763  -19.2294   20.5631 C   0  0  0  0  0  0
  -28.0377  -18.2243   22.5340 C   0  0  0  0  0  0
  -29.9735  -22.4098   22.0147 C   0  0  0  0  0  0
  -28.3212  -16.4087   19.5036 C   0  0  0  0  0  0
  -30.3571  -16.5063   18.2334 C   0  0  0  0  0  0
  -27.9573  -19.0789   21.2638 C   0  0  0  0  0  0
  -28.3863  -23.1675   20.1167 C   0  0  0  0  0  0
  -28.4760  -24.7912   19.6095 C   0  0  0  0  0  0
  -29.6412  -22.1395   20.5421 C   0  0  2  0  0  0
  -29.8334  -16.5267   19.7029 C   0  0  0  0  0  0
  -31.2471  -18.6686   19.7231 N   0  0  0  0  0  0
  -30.0912  -18.0713   20.1276 N   0  0  0  0  0  0
  -31.4632  -12.8100   19.1418 H   0  0  0  0  0  0
  -30.4621  -11.7372   20.0825 H   0  0  0  0  0  0
  -29.8630  -11.6568   17.6318 H   0  0  0  0  0  0
  -29.5339  -13.3688   17.6323 H   0  0  0  0  0  0
  -28.0289  -11.1785   19.0849 H   0  0  0  0  0  0
  -27.3843  -12.2341   17.8570 H   0  0  0  0  0  0
  -27.4743  -14.0790   19.2662 H   0  0  0  0  0  0
  -28.7992  -12.4687   21.5101 H   0  0  0  0  0  0
  -28.3344  -14.1466   21.6291 H   0  0  0  0  0  0
  -25.2721   -9.5621   22.4798 H   0  0  0  0  0  0
  -24.0000   -7.4550   22.7477 H   0  0  0  0  0  0
  -21.0800   -8.8708   19.8951 H   0  0  0  0  0  0
  -22.3675  -10.9619   19.6205 H   0  0  0  0  0  0
  -21.1951   -7.6124   23.9706 H   0  0  0  0  0  0
  -21.1464   -6.0495   25.9079 H   0  0  0  0  0  0
  -22.0629   -2.7585   23.2848 H   0  0  0  0  0  0
  -22.4025  -11.9879   22.4882 H   0  0  0  0  0  0
  -21.0984  -13.1220   22.2666 H   0  0  0  0  0  0
  -24.6033  -15.7973   20.4425 H   0  0  0  0  0  0
  -26.2141  -15.5964   19.9778 H   0  0  0  0  0  0
  -26.7247  -32.5300   23.0984 H   0  0  0  0  0  0
  -25.0019  -33.9608   25.0293 H   0  0  0  0  0  0
  -22.7525  -31.2786   21.3629 H   0  0  0  0  0  0
  -23.3782  -35.9544   23.3298 H   0  0  0  0  0  0
  -24.3581  -36.8877   22.2068 H   0  0  0  0  0  0
  -23.7210  -37.6413   23.6690 H   0  0  0  0  0  0
  -26.1655  -31.4670   20.6163 H   0  0  0  0  0  0
  -26.8710  -30.7628   22.0357 H   0  0  0  0  0  0
  -28.1214  -28.7931   21.2744 H   0  0  0  0  0  0
  -25.9455  -25.8159   19.0273 H   0  0  0  0  0  0
  -24.0105  -27.2781   18.9724 H   0  0  0  0  0  0
  -23.8023  -30.5403   19.3813 H   0  0  0  0  0  0
  -22.8010  -29.2004   19.8498 H   0  0  0  0  0  0
  -25.1314  -36.1869   25.0820 H   0  0  0  0  0  0
  -21.0036  -28.3268   24.1364 H   0  0  0  0  0  0
  -20.5655  -26.2313   23.3633 H   0  0  0  0  0  0
  -21.6660  -26.7366   22.1222 H   0  0  0  0  0  0
  -19.6910  -25.6268   21.1251 H   0  0  0  0  0  0
  -19.6692  -27.3157   20.6742 H   0  0  0  0  0  0
  -17.4222  -26.6664   21.4042 H   0  0  0  0  0  0
  -18.0346  -26.0047   22.9027 H   0  0  0  0  0  0
  -19.7970  -30.7257   24.2255 H   0  0  0  0  0  0
  -17.5043  -31.6255   24.5133 H   0  0  0  0  0  0
  -15.5375  -30.2959   23.7639 H   0  0  0  0  0  0
  -15.8719  -28.0755   22.7132 H   0  0  0  0  0  0
  -24.5880  -30.7080   25.7676 H   0  0  0  0  0  0
  -24.8848  -32.2906   26.4751 H   0  0  0  0  0  0
  -25.7949  -30.8933   27.0198 H   0  0  0  0  0  0
  -26.3021  -29.6670   24.1292 H   0  0  0  0  0  0
  -27.4016  -29.7278   25.4859 H   0  0  0  0  0  0
  -27.8919  -30.4217   23.9614 H   0  0  0  0  0  0
  -27.2680  -33.3669   26.1967 H   0  0  0  0  0  0
  -28.3889  -32.6816   25.0296 H   0  0  0  0  0  0
  -28.0697  -31.8497   26.5430 H   0  0  0  0  0  0
  -28.2594  -38.0075   24.7540 H   0  0  0  0  0  0
  -28.1088  -36.2607   24.6281 H   0  0  0  0  0  0
  -27.2302  -37.1395   25.8874 H   0  0  0  0  0  0
  -20.9457  -29.8824   21.6855 H   0  0  0  0  0  0
  -26.0168  -38.2821   24.1412 H   0  0  0  0  0  0
  -31.9504  -20.5971   19.4623 H   0  0  0  0  0  0
  -28.7157  -18.6696   23.2624 H   0  0  0  0  0  0
  -28.3935  -17.2185   22.3214 H   0  0  0  0  0  0
  -27.0567  -18.1343   22.9969 H   0  0  0  0  0  0
  -29.3065  -21.8571   22.6767 H   0  0  0  0  0  0
  -29.8934  -23.4689   22.2589 H   0  0  0  0  0  0
  -30.9943  -22.1024   22.2477 H   0  0  0  0  0  0
  -27.8831  -17.3563   19.2070 H   0  0  0  0  0  0
  -27.8220  -16.0499   20.3976 H   0  0  0  0  0  0
  -28.0804  -15.8103   18.6310 H   0  0  0  0  0  0
  -29.9451  -17.3269   17.6449 H   0  0  0  0  0  0
  -30.1008  -15.5860   17.7122 H   0  0  0  0  0  0
  -31.4430  -16.5934   18.1809 H   0  0  0  0  0  0
  -27.1816  -18.7079   20.5998 H   0  0  0  0  0  0
  -27.5988  -20.0689   21.5499 H   0  0  0  0  0  0
  -27.9963  -22.6774   19.2240 H   0  0  0  0  0  0
  -27.5706  -23.0575   20.8316 H   0  0  0  0  0  0
  -27.8182  -24.8364   18.7449 H   0  0  0  0  0  0
  -29.4601  -24.8659   19.1455 H   0  0  0  0  0  0
  -30.4611  -22.6091   19.9979 H   0  0  0  0  0  0
  1 25  1  0  0  0
  1 30  2  0  0  0
  1 82  1  0  0  0
  2  3  1  0  0  0
  2 25  1  0  0  0
  2 85  1  0  0  0
  2 86  1  0  0  0
  3  4  1  0  0  0
  3 87  1  0  0  0
  3 88  1  0  0  0
  4  5  1  0  0  0
  4 89  1  0  0  0
  4 90  1  0  0  0
  5  6  1  0  0  0
  5 26  1  0  0  0
  5 91  1  0  0  0
  6 25  1  0  0  0
  6 92  1  0  0  0
  6 93  1  0  0  0
  7  8  2  0  0  0
  7 26  1  0  0  0
  7 29  1  0  0  0
  8  9  1  0  0  0
  8 22  1  0  0  0
  9 10  1  0  0  0
  9 27  2  0  0  0
 10 11  2  0  0  0
 10 15  1  0  0  0
 11 12  1  0  0  0
 11 94  1  0  0  0
 12 13  2  0  0  0
 12 95  1  0  0  0
 13 14  1  0  0  0
 13 31  1  0  0  0
 14 15  2  0  0  0
 14 96  1  0  0  0
 15 97  1  0  0  0
 16 17  2  0  0  0
 16 21  1  0  0  0
 16 31  1  0  0  0
 17 18  1  0  0  0
 17 98  1  0  0  0
 18 19  2  0  0  0
 18 99  1  0  0  0
 19 20  1  0  0  0
 19 24  1  0  0  0
 20 21  2  0  0  0
 20100  1  0  0  0
 21 23  1  0  0  0
 22 28  1  0  0  0
 22 32  2  0  0  0
 26 27  1  0  0  0
 28101  1  0  0  0
 28102  1  0  0  0
 29103  1  0  0  0
 29104  1  0  0  0
 33 34  1  0  0  0
 33 66  1  0  0  0
 33 70  2  0  0  0
 34 36  1  0  0  0
 34 59  1  0  0  0
 34105  1  0  0  0
 35 44  2  0  0  0
 35 45  1  0  0  0
 35 68  1  0  0  0
 36 56  1  0  0  0
 36106  1  0  0  0
 37 39  1  0  0  0
 37 47  1  0  0  0
 37 66  1  0  0  0
 37107  1  0  0  0
 38 43  2  0  0  0
 38 46  1  0  0  0
 38 47  1  0  0  0
 39 64  1  0  0  0
 39 67  2  0  0  0
 40 52  1  0  0  0
 40 53  2  0  0  0
 40 58  1  0  0  0
 41108  1  0  0  0
 41109  1  0  0  0
 41110  1  0  0  0
 41 48  1  0  0  0
 42 43  1  0  0  0
 42 66  1  0  0  0
 42111  1  0  0  0
 42112  1  0  0  0
 43 44  1  0  0  0
 44113  1  0  0  0
 45 46  2  0  0  0
 45114  1  0  0  0
 46115  1  0  0  0
 47116  1  0  0  0
 47117  1  0  0  0
 48 56  1  0  0  0
 48 65  1  0  0  0
 48118  1  0  0  0
 49 50  1  0  0  0
 49 53  1  0  0  0
 49 64  1  0  0  0
 49119  1  0  0  0
 50 51  1  0  0  0
 50120  1  0  0  0
 50121  1  0  0  0
 51 52  1  0  0  0
 51122  1  0  0  0
 51123  1  0  0  0
 52124  1  0  0  0
 52125  1  0  0  0
 53 54  1  0  0  0
 54 55  2  0  0  0
 54126  1  0  0  0
 55 57  1  0  0  0
 55127  1  0  0  0
 56 69  2  0  0  0
 57 58  2  0  0  0
 57128  1  0  0  0
 58129  1  0  0  0
 59 60  1  0  0  0
 59 61  1  0  0  0
 59 62  1  0  0  0
 60130  1  0  0  0
 60131  1  0  0  0
 60132  1  0  0  0
 61133  1  0  0  0
 61134  1  0  0  0
 61135  1  0  0  0
 62136  1  0  0  0
 62137  1  0  0  0
 62138  1  0  0  0
 63 65  1  0  0  0
 63139  1  0  0  0
 63140  1  0  0  0
 63141  1  0  0  0
 64142  1  0  0  0
 65143  1  0  0  0
 68 80  1  0  0  0
 71 72  1  0  0  0
 71 83  2  0  0  0
 71144  1  0  0  0
 72 73  2  0  0  0
 72 81  1  0  0  0
 73 78  1  0  0  0
 73 84  1  0  0  0
 74 78  1  0  0  0
 74145  1  0  0  0
 74146  1  0  0  0
 74147  1  0  0  0
 75148  1  0  0  0
 75149  1  0  0  0
 75150  1  0  0  0
 75 81  1  0  0  0
 76151  1  0  0  0
 76152  1  0  0  0
 76153  1  0  0  0
 76 82  1  0  0  0
 77 82  1  0  0  0
 77154  1  0  0  0
 77155  1  0  0  0
 77156  1  0  0  0
 78157  1  0  0  0
 78158  1  0  0  0
 79 80  1  0  0  0
 79 81  1  0  0  0
 79159  1  0  0  0
 79160  1  0  0  0
 80161  1  0  0  0
 80162  1  0  0  0
 81163  1  0  0  0
 82 84  1  0  0  0
 83 84  1  0  0  0
M  ISO  4   1 100  68 101  80 101  82 100
M  END
> <chiral flag>
0

> <version>
0

> <s_m_source_file>
/data/baiqing/PycharmProjects/Reinvent-master-3.2/result/LINK_invent/BTK/process_docking_weight1_custom_sum_contain_oxygen_bond_distance_aromatic_linkinvent_7_9_3/rearranged_h_0071.sdf

> <i_m_source_file_index>
83

> <r_mmod_Potential_Energy-OPLS-2005>
939.54248046875

> <r_mmod_Stretch_Energy-OPLS-2005>
311.929229736328

> <r_mmod_Bend_Energy-OPLS-2005>
401.629638671875

> <r_mmod_Torsional_Energy-OPLS-2005>
291.374237060547

> <r_mmod_Improper_Torsional_Energy-OPLS-2005>
18.8300876617432

> <r_mmod_Van_der_Waal_Energy-OPLS-2005>
129.99186706543

> <r_mmod_Electrostatic_Energy-OPLS-2005>
-264.860015869141

> <r_mmod_Solvation_Energy-OPLS-2005>
-205.07633972168

> <b_mmod_Minimization_Converged-OPLS-2005>
0

> <r_mmod_RMS_Derivative-OPLS-2005>
2.70820283889771

$$$$
86
                    3D
 Structure written by MMmdl.
155163  0  0  1  0            999 V2000
  -30.3798  -15.2191   20.4077 C   0  0  0  0  0  0
  -30.4491  -12.7762   19.5300 C   0  0  0  0  0  0
  -29.5425  -12.6063   18.2794 C   0  0  0  0  0  0
  -28.0846  -12.3219   18.6877 C   0  0  0  0  0  0
  -27.6180  -13.2647   19.8264 C   0  0  2  0  0  0
  -28.6443  -13.3808   20.9696 C   0  0  0  0  0  0
  -25.2453  -13.8197   20.5721 C   0  0  0  0  0  0
  -24.1802  -13.0413   20.9211 C   0  0  0  0  0  0
  -24.6427  -11.6894   20.8686 C   0  0  0  0  0  0
  -23.9104  -10.4281   21.0379 C   0  0  0  0  0  0
  -24.3640   -9.4194   21.9166 C   0  0  0  0  0  0
  -23.6306   -8.2231   22.0739 C   0  0  0  0  0  0
  -22.4285   -8.0249   21.3546 C   0  0  0  0  0  0
  -21.9959   -9.0218   20.4637 C   0  0  0  0  0  0
  -22.7278  -10.2112   20.3036 C   0  0  0  0  0  0
  -21.6831   -6.0717   22.5272 C   0  0  0  0  0  0
  -21.4030   -6.5633   23.8194 C   0  0  0  0  0  0
  -21.3681   -5.6795   24.9163 C   0  0  0  0  0  0
  -21.6064   -4.3050   24.7245 C   0  0  0  0  0  0
  -21.8848   -3.8133   23.4358 C   0  0  0  0  0  0
  -21.9197   -4.6948   22.3412 C   0  0  0  0  0  0
  -22.7839  -13.5171   21.1892 C   0  0  0  0  0  0
  -22.1695   -4.2133   21.0987 F   0  0  0  0  0  0
  -21.5625   -3.4541   25.7764 F   0  0  0  0  0  0
  -29.8936  -13.8848   20.3860 N   0  0  0  0  0  0
  -26.2853  -12.9447   20.3145 N   0  0  0  0  0  0
  -25.9368  -11.6553   20.5592 N   0  0  0  0  0  0
  -22.0522  -12.8093   22.0415 N   0  0  0  0  0  0
  -25.4174  -15.1923   20.4211 N   0  0  0  0  0  0
  -31.5943  -15.2788   20.1644 O   0  0  0  0  0  0
  -21.6661   -6.8841   21.4209 O   0  0  0  0  0  0
  -22.3507  -14.5479   20.6739 O   0  0  0  0  0  0
  -24.6599  -31.8268   23.1706 C   0  0  0  0  0  0
  -25.9286  -32.4616   23.8175 C   0  0  1  0  0  0
  -27.2087  -26.9513   20.2063 C   0  0  0  0  0  0
  -25.5966  -33.8427   24.2081 N   0  0  0  0  0  0
  -23.4746  -30.4409   21.5185 C   0  0  2  0  0  0
  -24.9277  -28.8358   20.1085 C   0  0  0  0  0  0
  -22.7656  -29.4450   22.4747 C   0  0  0  0  0  0
  -18.0323  -28.1415   22.8473 C   0  0  0  0  0  0
  -24.1508  -36.7245   23.2634 C   0  0  0  0  0  0
  -26.0393  -30.6473   21.3925 C   0  0  0  0  0  0
  -26.1093  -29.2380   20.7430 C   0  0  0  0  0  0
  -27.2482  -28.3183   20.7639 C   0  0  0  0  0  0
  -26.0035  -26.6943   19.5155 C   0  0  0  0  0  0
  -24.9033  -27.5867   19.4657 C   0  0  0  0  0  0
  -23.7131  -29.7615   20.1426 C   0  0  0  0  0  0
  -25.4138  -36.2987   24.0291 C   0  0  1  0  0  0
  -20.5931  -28.3747   23.1197 C   0  0  2  0  0  0
  -20.6789  -26.9435   22.5388 C   0  0  0  0  0  0
  -19.5765  -26.6387   21.5204 C   0  0  0  0  0  0
  -18.1959  -26.7949   22.1626 C   0  0  0  0  0  0
  -19.1569  -28.8905   23.2829 C   0  0  0  0  0  0
  -18.9479  -30.1497   23.8865 C   0  0  0  0  0  0
  -17.6468  -30.6598   24.0569 C   0  0  0  0  0  0
  -25.9096  -34.9365   23.5012 C   0  0  0  0  0  0
  -16.5370  -29.9083   23.6338 C   0  0  0  0  0  0
  -16.7304  -28.6509   23.0358 C   0  0  0  0  0  0
  -26.4548  -31.6523   25.0687 C   0  0  0  0  0  0
  -25.3677  -31.3755   26.1345 C   0  0  0  0  0  0
  -27.0392  -30.2895   24.6349 C   0  0  0  0  0  0
  -27.6062  -32.4305   25.7487 C   0  0  0  0  0  0
  -27.5592  -37.1786   24.8447 C   0  0  0  0  0  0
  -21.4314  -29.3050   22.3541 N   0  0  0  0  0  0
  -26.4304  -37.3708   23.9408 N   0  0  0  0  0  0
  -24.7461  -30.9965   22.0818 N   0  0  0  0  0  0
  -23.4228  -28.7997   23.2955 O   0  0  0  0  0  0
  -28.2064  -25.8549   20.3052 O   0  0  0  0  0  0
  -26.5691  -34.8889   22.4610 O   0  0  0  0  0  0
  -23.5694  -32.1191   23.6844 O   0  0  0  0  0  0
  -26.8572  -21.1956   20.0565 C   0  0  0  0  0  0
  -26.3568  -19.9371   19.9350 C   0  0  0  0  0  0
  -28.5599  -19.6876   20.3725 C   0  0  0  0  0  0
  -30.7821  -18.7173   19.4573 C   0  0  0  0  0  0
  -30.3959  -18.7259   21.9355 C   0  0  0  0  0  0
  -29.4269  -16.6862   20.5272 C   0  0  0  0  0  0
  -28.8180  -22.7057   20.4685 C   0  0  0  0  0  0
  -27.9014  -24.2437   20.2496 C   0  0  0  0  0  0
  -29.7475  -18.4588   20.5628 C   0  0  0  0  0  0
  -28.2129  -21.1449   20.3226 N   0  0  0  0  0  0
  -27.3893  -19.0808   20.1422 N   0  3  0  0  0  0
  -31.4689  -12.9959   19.2123 H   0  0  0  0  0  0
  -30.5059  -11.8442   20.0939 H   0  0  0  0  0  0
  -29.9151  -11.8080   17.6381 H   0  0  0  0  0  0
  -29.5845  -13.5166   17.6792 H   0  0  0  0  0  0
  -28.0353  -11.2858   19.0255 H   0  0  0  0  0  0
  -27.4157  -12.3950   17.8265 H   0  0  0  0  0  0
  -27.5499  -14.2477   19.3629 H   0  0  0  0  0  0
  -28.8014  -12.4247   21.4740 H   0  0  0  0  0  0
  -28.2863  -14.0772   21.7270 H   0  0  0  0  0  0
  -25.2801   -9.5669   22.4710 H   0  0  0  0  0  0
  -24.0026   -7.4664   22.7460 H   0  0  0  0  0  0
  -21.0916   -8.8702   19.8929 H   0  0  0  0  0  0
  -22.3727  -10.9609   19.6109 H   0  0  0  0  0  0
  -21.2006   -7.6142   23.9674 H   0  0  0  0  0  0
  -21.1484   -6.0531   25.9052 H   0  0  0  0  0  0
  -22.0608   -2.7587   23.2858 H   0  0  0  0  0  0
  -22.4270  -11.9800   22.4772 H   0  0  0  0  0  0
  -21.1086  -13.0972   22.2626 H   0  0  0  0  0  0
  -24.6625  -15.8583   20.5441 H   0  0  0  0  0  0
  -26.2690  -15.6102   20.0767 H   0  0  0  0  0  0
  -26.7373  -32.5168   23.0897 H   0  0  0  0  0  0
  -25.0073  -33.9504   25.0222 H   0  0  0  0  0  0
  -22.7872  -31.2719   21.3523 H   0  0  0  0  0  0
  -23.3770  -35.9572   23.3227 H   0  0  0  0  0  0
  -24.3595  -36.8976   22.2058 H   0  0  0  0  0  0
  -23.7265  -37.6425   23.6738 H   0  0  0  0  0  0
  -26.2036  -31.3852   20.6059 H   0  0  0  0  0  0
  -26.9091  -30.7142   22.0353 H   0  0  0  0  0  0
  -28.1450  -28.6259   21.2850 H   0  0  0  0  0  0
  -25.8798  -25.7370   19.0300 H   0  0  0  0  0  0
  -24.0112  -27.2775   18.9347 H   0  0  0  0  0  0
  -23.8636  -30.5335   19.3867 H   0  0  0  0  0  0
  -22.8240  -29.2131   19.8259 H   0  0  0  0  0  0
  -25.1336  -36.1781   25.0783 H   0  0  0  0  0  0
  -21.0064  -28.3351   24.1300 H   0  0  0  0  0  0
  -20.5658  -26.2370   23.3616 H   0  0  0  0  0  0
  -21.6663  -26.7391   22.1219 H   0  0  0  0  0  0
  -19.6918  -25.6285   21.1268 H   0  0  0  0  0  0
  -19.6719  -27.3162   20.6710 H   0  0  0  0  0  0
  -17.4224  -26.6696   21.4039 H   0  0  0  0  0  0
  -18.0356  -26.0102   22.9033 H   0  0  0  0  0  0
  -19.7946  -30.7317   24.2249 H   0  0  0  0  0  0
  -17.5006  -31.6276   24.5175 H   0  0  0  0  0  0
  -15.5358  -30.2967   23.7661 H   0  0  0  0  0  0
  -15.8715  -28.0801   22.7078 H   0  0  0  0  0  0
  -24.5897  -30.7067   25.7646 H   0  0  0  0  0  0
  -24.8812  -32.2938   26.4635 H   0  0  0  0  0  0
  -25.7912  -30.9016   27.0205 H   0  0  0  0  0  0
  -26.2994  -29.6610   24.1376 H   0  0  0  0  0  0
  -27.3958  -29.7225   25.4951 H   0  0  0  0  0  0
  -27.8939  -30.4077   23.9689 H   0  0  0  0  0  0
  -27.2658  -33.3643   26.1961 H   0  0  0  0  0  0
  -28.3926  -32.6795   25.0354 H   0  0  0  0  0  0
  -28.0659  -31.8489   26.5482 H   0  0  0  0  0  0
  -28.2548  -38.0139   24.7543 H   0  0  0  0  0  0
  -28.1169  -36.2675   24.6226 H   0  0  0  0  0  0
  -27.2322  -37.1359   25.8851 H   0  0  0  0  0  0
  -20.9523  -29.8807   21.6750 H   0  0  0  0  0  0
  -26.0144  -38.2784   24.1409 H   0  0  0  0  0  0
  -26.3095  -22.1196   19.9624 H   0  0  0  0  0  0
  -25.3502  -19.5957   19.7232 H   0  0  0  0  0  0
  -31.1145  -19.7550   19.4597 H   0  0  0  0  0  0
  -30.3555  -18.5086   18.4765 H   0  0  0  0  0  0
  -31.6624  -18.0855   19.5770 H   0  0  0  0  0  0
  -30.7803  -19.7416   22.0157 H   0  0  0  0  0  0
  -31.2240  -18.0452   22.1378 H   0  0  0  0  0  0
  -29.6650  -18.6012   22.7395 H   0  0  0  0  0  0
  -28.7570  -16.5646   19.6778 H   0  0  0  0  0  0
  -28.7943  -16.4900   21.3940 H   0  0  0  0  0  0
  -29.2498  -22.7386   21.4671 H   0  0  0  0  0  0
  -29.6748  -22.7430   19.7975 H   0  0  0  0  0  0
  -27.0817  -24.1470   20.9633 H   0  0  0  0  0  0
  -27.4295  -24.1192   19.2764 H   0  0  0  0  0  0
  -27.2803  -18.0789   20.1170 H   0  0  0  0  0  0
  1 25  1  0  0  0
  1 30  2  0  0  0
  1 76  1  0  0  0
  2  3  1  0  0  0
  2 25  1  0  0  0
  2 82  1  0  0  0
  2 83  1  0  0  0
  3  4  1  0  0  0
  3 84  1  0  0  0
  3 85  1  0  0  0
  4  5  1  0  0  0
  4 86  1  0  0  0
  4 87  1  0  0  0
  5  6  1  0  0  0
  5 26  1  0  0  0
  5 88  1  0  0  0
  6 25  1  0  0  0
  6 89  1  0  0  0
  6 90  1  0  0  0
  7  8  2  0  0  0
  7 26  1  0  0  0
  7 29  1  0  0  0
  8  9  1  0  0  0
  8 22  1  0  0  0
  9 10  1  0  0  0
  9 27  2  0  0  0
 10 11  2  0  0  0
 10 15  1  0  0  0
 11 12  1  0  0  0
 11 91  1  0  0  0
 12 13  2  0  0  0
 12 92  1  0  0  0
 13 14  1  0  0  0
 13 31  1  0  0  0
 14 15  2  0  0  0
 14 93  1  0  0  0
 15 94  1  0  0  0
 16 17  2  0  0  0
 16 21  1  0  0  0
 16 31  1  0  0  0
 17 18  1  0  0  0
 17 95  1  0  0  0
 18 19  2  0  0  0
 18 96  1  0  0  0
 19 20  1  0  0  0
 19 24  1  0  0  0
 20 21  2  0  0  0
 20 97  1  0  0  0
 21 23  1  0  0  0
 22 28  1  0  0  0
 22 32  2  0  0  0
 26 27  1  0  0  0
 28 98  1  0  0  0
 28 99  1  0  0  0
 29100  1  0  0  0
 29101  1  0  0  0
 33 34  1  0  0  0
 33 66  1  0  0  0
 33 70  2  0  0  0
 34 36  1  0  0  0
 34 59  1  0  0  0
 34102  1  0  0  0
 35 44  2  0  0  0
 35 45  1  0  0  0
 35 68  1  0  0  0
 36 56  1  0  0  0
 36103  1  0  0  0
 37 39  1  0  0  0
 37 47  1  0  0  0
 37 66  1  0  0  0
 37104  1  0  0  0
 38 43  2  0  0  0
 38 46  1  0  0  0
 38 47  1  0  0  0
 39 64  1  0  0  0
 39 67  2  0  0  0
 40 52  1  0  0  0
 40 53  2  0  0  0
 40 58  1  0  0  0
 41105  1  0  0  0
 41106  1  0  0  0
 41107  1  0  0  0
 41 48  1  0  0  0
 42 43  1  0  0  0
 42 66  1  0  0  0
 42108  1  0  0  0
 42109  1  0  0  0
 43 44  1  0  0  0
 44110  1  0  0  0
 45 46  2  0  0  0
 45111  1  0  0  0
 46112  1  0  0  0
 47113  1  0  0  0
 47114  1  0  0  0
 48 56  1  0  0  0
 48 65  1  0  0  0
 48115  1  0  0  0
 49 50  1  0  0  0
 49 53  1  0  0  0
 49 64  1  0  0  0
 49116  1  0  0  0
 50 51  1  0  0  0
 50117  1  0  0  0
 50118  1  0  0  0
 51 52  1  0  0  0
 51119  1  0  0  0
 51120  1  0  0  0
 52121  1  0  0  0
 52122  1  0  0  0
 53 54  1  0  0  0
 54 55  2  0  0  0
 54123  1  0  0  0
 55 57  1  0  0  0
 55124  1  0  0  0
 56 69  2  0  0  0
 57 58  2  0  0  0
 57125  1  0  0  0
 58126  1  0  0  0
 59 60  1  0  0  0
 59 61  1  0  0  0
 59 62  1  0  0  0
 60127  1  0  0  0
 60128  1  0  0  0
 60129  1  0  0  0
 61130  1  0  0  0
 61131  1  0  0  0
 61132  1  0  0  0
 62133  1  0  0  0
 62134  1  0  0  0
 62135  1  0  0  0
 63 65  1  0  0  0
 63136  1  0  0  0
 63137  1  0  0  0
 63138  1  0  0  0
 64139  1  0  0  0
 65140  1  0  0  0
 68 78  1  0  0  0
 71 72  2  0  0  0
 71 80  1  0  0  0
 71141  1  0  0  0
 72 81  1  0  0  0
 72142  1  0  0  0
 73 79  1  0  0  0
 73 80  1  0  0  0
 73 81  2  0  0  0
 74143  1  0  0  0
 74144  1  0  0  0
 74145  1  0  0  0
 74 79  1  0  0  0
 75 79  1  0  0  0
 75146  1  0  0  0
 75147  1  0  0  0
 75148  1  0  0  0
 76 79  1  0  0  0
 76149  1  0  0  0
 76150  1  0  0  0
 77 78  1  0  0  0
 77 80  1  0  0  0
 77151  1  0  0  0
 77152  1  0  0  0
 78153  1  0  0  0
 78154  1  0  0  0
 81155  1  0  0  0
M  CHG  1  81   1
M  ISO  4   1 100  68 101  76 100  78 101
M  END
> <chiral flag>
0

> <version>
0

> <s_m_source_file>
/data/baiqing/PycharmProjects/Reinvent-master-3.2/result/LINK_invent/BTK/process_docking_weight1_custom_sum_contain_oxygen_bond_distance_aromatic_linkinvent_7_9_3/rearranged_h_0071.sdf

> <i_m_source_file_index>
84

> <r_mmod_Potential_Energy-OPLS-2005>
1208.63684082031

> <r_mmod_Stretch_Energy-OPLS-2005>
598.217895507812

> <r_mmod_Bend_Energy-OPLS-2005>
474.7431640625

> <r_mmod_Torsional_Energy-OPLS-2005>
203.22932434082

> <r_mmod_Improper_Torsional_Energy-OPLS-2005>
3.788813829422

> <r_mmod_Van_der_Waal_Energy-OPLS-2005>
98.6152038574219

> <r_mmod_Electrostatic_Energy-OPLS-2005>
-157.517135620117

> <r_mmod_Solvation_Energy-OPLS-2005>
-433.677551269531

> <b_mmod_Minimization_Converged-OPLS-2005>
0

> <r_mmod_RMS_Derivative-OPLS-2005>
5.08321714401245

$$$$
87
                    3D
 Structure written by MMmdl.
162170  0  0  1  0            999 V2000
  -30.5906  -14.7422   20.4550 C   0  0  0  0  0  0
  -30.4419  -12.4565   19.4491 C   0  0  0  0  0  0
  -29.5080  -12.5060   18.2196 C   0  0  0  0  0  0
  -28.0336  -12.3291   18.6363 C   0  0  0  0  0  0
  -27.6422  -13.2238   19.8436 C   0  0  2  0  0  0
  -28.6916  -13.1413   20.9731 C   0  0  0  0  0  0
  -25.2523  -13.8161   20.5680 C   0  0  0  0  0  0
  -24.1814  -13.0429   20.9210 C   0  0  0  0  0  0
  -24.6388  -11.6902   20.8729 C   0  0  0  0  0  0
  -23.9056  -10.4293   21.0401 C   0  0  0  0  0  0
  -24.3610   -9.4212   21.9176 C   0  0  0  0  0  0
  -23.6294   -8.2250   22.0754 C   0  0  0  0  0  0
  -22.4281   -8.0280   21.3541 C   0  0  0  0  0  0
  -21.9906   -9.0243   20.4644 C   0  0  0  0  0  0
  -22.7225  -10.2126   20.3049 C   0  0  0  0  0  0
  -21.6857   -6.0729   22.5268 C   0  0  0  0  0  0
  -21.4015   -6.5633   23.8201 C   0  0  0  0  0  0
  -21.3658   -5.6788   24.9166 C   0  0  0  0  0  0
  -21.6052   -4.3051   24.7223 C   0  0  0  0  0  0
  -21.8824   -3.8140   23.4348 C   0  0  0  0  0  0
  -21.9203   -4.6955   22.3400 C   0  0  0  0  0  0
  -22.7842  -13.5223   21.1862 C   0  0  0  0  0  0
  -22.1668   -4.2141   21.0982 F   0  0  0  0  0  0
  -21.5634   -3.4531   25.7738 F   0  0  0  0  0  0
  -29.9890  -13.5064   20.3889 N   0  0  0  0  0  0
  -26.2942  -12.9350   20.3234 N   0  0  0  0  0  0
  -25.9314  -11.6501   20.5716 N   0  0  0  0  0  0
  -22.0473  -12.8218   22.0410 N   0  0  0  0  0  0
  -25.4201  -15.1882   20.4112 N   0  0  0  0  0  0
  -31.7836  -14.8685   20.1699 O   0  0  0  0  0  0
  -21.6650   -6.8874   21.4237 O   0  0  0  0  0  0
  -22.3527  -14.5526   20.6698 O   0  0  0  0  0  0
  -24.6312  -31.8526   23.1977 C   0  0  0  0  0  0
  -25.9139  -32.4739   23.8325 C   0  0  1  0  0  0
  -27.2274  -27.2611   20.1243 C   0  0  0  0  0  0
  -25.5933  -33.8549   24.2252 N   0  0  0  0  0  0
  -23.4299  -30.4741   21.5393 C   0  0  2  0  0  0
  -24.8790  -28.9158   20.1135 C   0  0  0  0  0  0
  -22.7488  -29.4583   22.4894 C   0  0  0  0  0  0
  -18.0290  -28.1369   22.8487 C   0  0  0  0  0  0
  -24.1485  -36.7265   23.2646 C   0  0  0  0  0  0
  -25.9769  -30.7647   21.3799 C   0  0  0  0  0  0
  -26.0512  -29.3882   20.7165 C   0  0  0  0  0  0
  -27.2305  -28.5761   20.7023 C   0  0  0  0  0  0
  -26.0312  -26.8515   19.4992 C   0  0  0  0  0  0
  -24.8738  -27.6551   19.4947 C   0  0  0  0  0  0
  -23.6511  -29.8047   20.1572 C   0  0  0  0  0  0
  -25.4115  -36.3061   24.0333 C   0  0  1  0  0  0
  -20.5892  -28.3682   23.1257 C   0  0  2  0  0  0
  -20.6776  -26.9397   22.5396 C   0  0  0  0  0  0
  -19.5763  -26.6370   21.5195 C   0  0  0  0  0  0
  -18.1942  -26.7912   22.1612 C   0  0  0  0  0  0
  -19.1547  -28.8842   23.2870 C   0  0  0  0  0  0
  -18.9467  -30.1435   23.8904 C   0  0  0  0  0  0
  -17.6478  -30.6585   24.0541 C   0  0  0  0  0  0
  -25.9051  -34.9428   23.5086 C   0  0  0  0  0  0
  -16.5360  -29.9080   23.6330 C   0  0  0  0  0  0
  -16.7279  -28.6478   23.0382 C   0  0  0  0  0  0
  -26.4519  -31.6586   25.0724 C   0  0  0  0  0  0
  -25.3753  -31.3722   26.1452 C   0  0  0  0  0  0
  -27.0387  -30.3006   24.6230 C   0  0  0  0  0  0
  -27.6065  -32.4344   25.7497 C   0  0  0  0  0  0
  -27.5573  -37.1788   24.8466 C   0  0  0  0  0  0
  -21.4196  -29.3041   22.3640 N   0  0  0  0  0  0
  -26.4281  -37.3766   23.9411 N   0  0  0  0  0  0
  -24.6980  -31.0475   22.0957 N   0  0  0  0  0  0
  -23.4175  -28.8126   23.2996 O   0  0  0  0  0  0
  -28.3364  -26.3873   20.1228 O   0  0  0  0  0  0
  -26.5605  -34.8915   22.4651 O   0  0  0  0  0  0
  -23.5463  -32.1353   23.7268 O   0  0  0  0  0  0
  -28.8506  -21.0308   19.4163 C   0  0  0  0  0  0
  -29.5401  -20.5316   21.3796 C   0  0  0  0  0  0
  -28.9912  -22.2545   20.1018 C   0  0  0  0  0  0
  -28.2674  -23.7889   18.2019 C   0  0  0  0  0  0
  -30.3986  -24.2195   19.3921 C   0  0  0  0  0  0
  -27.6971  -17.9823   20.0017 C   0  0  0  0  0  0
  -29.5996  -18.2107   18.4229 C   0  0  0  0  0  0
  -30.0606  -17.3464   20.7547 C   0  0  0  0  0  0
  -28.1764  -24.9199   20.4545 C   0  0  0  0  0  0
  -28.9376  -23.7729   19.5893 C   0  0  0  0  0  0
  -29.1725  -18.4017   19.8918 C   0  0  0  0  0  0
  -29.4483  -21.8771   21.3732 N   0  0  0  0  0  0
  -29.2351  -19.9098   20.2223 N   0  0  0  0  0  0
  -29.7713  -15.8411   20.6462 N   0  0  0  0  0  0
  -31.4777  -12.6039   19.1362 H   0  0  0  0  0  0
  -30.4033  -11.4755   19.9257 H   0  0  0  0  0  0
  -29.7873  -11.7317   17.5049 H   0  0  0  0  0  0
  -29.6286  -13.4563   17.6994 H   0  0  0  0  0  0
  -27.8905  -11.2789   18.8927 H   0  0  0  0  0  0
  -27.3732  -12.5263   17.7903 H   0  0  0  0  0  0
  -27.6374  -14.2474   19.4695 H   0  0  0  0  0  0
  -28.7350  -12.1329   21.3862 H   0  0  0  0  0  0
  -28.4259  -13.8011   21.8016 H   0  0  0  0  0  0
  -25.2756   -9.5692   22.4736 H   0  0  0  0  0  0
  -24.0008   -7.4652   22.7467 H   0  0  0  0  0  0
  -21.0838   -8.8749   19.8951 H   0  0  0  0  0  0
  -22.3676  -10.9658   19.6156 H   0  0  0  0  0  0
  -21.1992   -7.6136   23.9695 H   0  0  0  0  0  0
  -21.1477   -6.0517   25.9063 H   0  0  0  0  0  0
  -22.0605   -2.7601   23.2847 H   0  0  0  0  0  0
  -22.4094  -11.9901   22.4833 H   0  0  0  0  0  0
  -21.1076  -13.1220   22.2571 H   0  0  0  0  0  0
  -24.6515  -15.8389   20.5279 H   0  0  0  0  0  0
  -26.2544  -15.6248   20.0436 H   0  0  0  0  0  0
  -26.7188  -32.5376   23.1049 H   0  0  0  0  0  0
  -25.0100  -33.9671   25.0416 H   0  0  0  0  0  0
  -22.7292  -31.2982   21.3883 H   0  0  0  0  0  0
  -23.3752  -35.9592   23.3308 H   0  0  0  0  0  0
  -24.3573  -36.8887   22.2056 H   0  0  0  0  0  0
  -23.7231  -37.6462   23.6673 H   0  0  0  0  0  0
  -26.1262  -31.5301   20.6182 H   0  0  0  0  0  0
  -26.8500  -30.8043   22.0192 H   0  0  0  0  0  0
  -28.1337  -28.9380   21.1736 H   0  0  0  0  0  0
  -25.9841  -25.8896   19.0105 H   0  0  0  0  0  0
  -23.9766  -27.2861   19.0175 H   0  0  0  0  0  0
  -23.7803  -30.5801   19.4017 H   0  0  0  0  0  0
  -22.7717  -29.2377   19.8468 H   0  0  0  0  0  0
  -25.1307  -36.1896   25.0823 H   0  0  0  0  0  0
  -20.9996  -28.3238   24.1373 H   0  0  0  0  0  0
  -20.5645  -26.2282   23.3590 H   0  0  0  0  0  0
  -21.6649  -26.7408   22.1211 H   0  0  0  0  0  0
  -19.6921  -25.6278   21.1234 H   0  0  0  0  0  0
  -19.6708  -27.3163   20.6711 H   0  0  0  0  0  0
  -17.4206  -26.6654   21.4008 H   0  0  0  0  0  0
  -18.0354  -26.0034   22.8991 H   0  0  0  0  0  0
  -19.7944  -30.7226   24.2294 H   0  0  0  0  0  0
  -17.5037  -31.6281   24.5113 H   0  0  0  0  0  0
  -15.5363  -30.2993   23.7652 H   0  0  0  0  0  0
  -15.8666  -28.0776   22.7165 H   0  0  0  0  0  0
  -24.5941  -30.7059   25.7774 H   0  0  0  0  0  0
  -24.8937  -32.2882   26.4876 H   0  0  0  0  0  0
  -25.8088  -30.8899   27.0224 H   0  0  0  0  0  0
  -26.2971  -29.6716   24.1288 H   0  0  0  0  0  0
  -27.4094  -29.7318   25.4766 H   0  0  0  0  0  0
  -27.8843  -30.4271   23.9469 H   0  0  0  0  0  0
  -27.2670  -33.3660   26.2039 H   0  0  0  0  0  0
  -28.3895  -32.6884   25.0342 H   0  0  0  0  0  0
  -28.0715  -31.8495   26.5440 H   0  0  0  0  0  0
  -28.2600  -38.0077   24.7514 H   0  0  0  0  0  0
  -28.1071  -36.2612   24.6309 H   0  0  0  0  0  0
  -27.2284  -37.1435   25.8866 H   0  0  0  0  0  0
  -20.9370  -29.8744   21.6837 H   0  0  0  0  0  0
  -26.0159  -38.2840   24.1425 H   0  0  0  0  0  0
  -28.5377  -20.8775   18.3931 H   0  0  0  0  0  0
  -29.8411  -19.9863   22.2627 H   0  0  0  0  0  0
  -28.8067  -23.1642   17.4891 H   0  0  0  0  0  0
  -28.2307  -24.7961   17.7831 H   0  0  0  0  0  0
  -27.2424  -23.4220   18.2569 H   0  0  0  0  0  0
  -30.9233  -23.5561   18.7025 H   0  0  0  0  0  0
  -30.9479  -24.2115   20.3334 H   0  0  0  0  0  0
  -30.4577  -25.2282   18.9829 H   0  0  0  0  0  0
  -27.5375  -16.9773   19.6130 H   0  0  0  0  0  0
  -27.0518  -18.6480   19.4262 H   0  0  0  0  0  0
  -27.3562  -18.0010   21.0374 H   0  0  0  0  0  0
  -29.5923  -17.1561   18.1442 H   0  0  0  0  0  0
  -30.6100  -18.5850   18.2549 H   0  0  0  0  0  0
  -28.9335  -18.7241   17.7297 H   0  0  0  0  0  0
  -29.9326  -17.5895   21.8090 H   0  0  0  0  0  0
  -31.1187  -17.5187   20.5518 H   0  0  0  0  0  0
  -28.5343  -24.8323   21.4807 H   0  0  0  0  0  0
  -27.1227  -24.6497   20.5219 H   0  0  0  0  0  0
  -28.8062  -15.5942   20.7965 H   0  0  0  0  0  0
  1 25  1  0  0  0
  1 30  2  0  0  0
  1 84  1  0  0  0
  2  3  1  0  0  0
  2 25  1  0  0  0
  2 85  1  0  0  0
  2 86  1  0  0  0
  3  4  1  0  0  0
  3 87  1  0  0  0
  3 88  1  0  0  0
  4  5  1  0  0  0
  4 89  1  0  0  0
  4 90  1  0  0  0
  5  6  1  0  0  0
  5 26  1  0  0  0
  5 91  1  0  0  0
  6 25  1  0  0  0
  6 92  1  0  0  0
  6 93  1  0  0  0
  7  8  2  0  0  0
  7 26  1  0  0  0
  7 29  1  0  0  0
  8  9  1  0  0  0
  8 22  1  0  0  0
  9 10  1  0  0  0
  9 27  2  0  0  0
 10 11  2  0  0  0
 10 15  1  0  0  0
 11 12  1  0  0  0
 11 94  1  0  0  0
 12 13  2  0  0  0
 12 95  1  0  0  0
 13 14  1  0  0  0
 13 31  1  0  0  0
 14 15  2  0  0  0
 14 96  1  0  0  0
 15 97  1  0  0  0
 16 17  2  0  0  0
 16 21  1  0  0  0
 16 31  1  0  0  0
 17 18  1  0  0  0
 17 98  1  0  0  0
 18 19  2  0  0  0
 18 99  1  0  0  0
 19 20  1  0  0  0
 19 24  1  0  0  0
 20 21  2  0  0  0
 20100  1  0  0  0
 21 23  1  0  0  0
 22 28  1  0  0  0
 22 32  2  0  0  0
 26 27  1  0  0  0
 28101  1  0  0  0
 28102  1  0  0  0
 29103  1  0  0  0
 29104  1  0  0  0
 33 34  1  0  0  0
 33 66  1  0  0  0
 33 70  2  0  0  0
 34 36  1  0  0  0
 34 59  1  0  0  0
 34105  1  0  0  0
 35 44  2  0  0  0
 35 45  1  0  0  0
 35 68  1  0  0  0
 36 56  1  0  0  0
 36106  1  0  0  0
 37 39  1  0  0  0
 37 47  1  0  0  0
 37 66  1  0  0  0
 37107  1  0  0  0
 38 43  2  0  0  0
 38 46  1  0  0  0
 38 47  1  0  0  0
 39 64  1  0  0  0
 39 67  2  0  0  0
 40 52  1  0  0  0
 40 53  2  0  0  0
 40 58  1  0  0  0
 41108  1  0  0  0
 41109  1  0  0  0
 41110  1  0  0  0
 41 48  1  0  0  0
 42 43  1  0  0  0
 42 66  1  0  0  0
 42111  1  0  0  0
 42112  1  0  0  0
 43 44  1  0  0  0
 44113  1  0  0  0
 45 46  2  0  0  0
 45114  1  0  0  0
 46115  1  0  0  0
 47116  1  0  0  0
 47117  1  0  0  0
 48 56  1  0  0  0
 48 65  1  0  0  0
 48118  1  0  0  0
 49 50  1  0  0  0
 49 53  1  0  0  0
 49 64  1  0  0  0
 49119  1  0  0  0
 50 51  1  0  0  0
 50120  1  0  0  0
 50121  1  0  0  0
 51 52  1  0  0  0
 51122  1  0  0  0
 51123  1  0  0  0
 52124  1  0  0  0
 52125  1  0  0  0
 53 54  1  0  0  0
 54 55  2  0  0  0
 54126  1  0  0  0
 55 57  1  0  0  0
 55127  1  0  0  0
 56 69  2  0  0  0
 57 58  2  0  0  0
 57128  1  0  0  0
 58129  1  0  0  0
 59 60  1  0  0  0
 59 61  1  0  0  0
 59 62  1  0  0  0
 60130  1  0  0  0
 60131  1  0  0  0
 60132  1  0  0  0
 61133  1  0  0  0
 61134  1  0  0  0
 61135  1  0  0  0
 62136  1  0  0  0
 62137  1  0  0  0
 62138  1  0  0  0
 63 65  1  0  0  0
 63139  1  0  0  0
 63140  1  0  0  0
 63141  1  0  0  0
 64142  1  0  0  0
 65143  1  0  0  0
 68 79  1  0  0  0
 71 73  2  0  0  0
 71 83  1  0  0  0
 71144  1  0  0  0
 72 82  2  0  0  0
 72 83  1  0  0  0
 72145  1  0  0  0
 73 80  1  0  0  0
 73 82  1  0  0  0
 74146  1  0  0  0
 74147  1  0  0  0
 74148  1  0  0  0
 74 80  1  0  0  0
 75 80  1  0  0  0
 75149  1  0  0  0
 75150  1  0  0  0
 75151  1  0  0  0
 76152  1  0  0  0
 76153  1  0  0  0
 76154  1  0  0  0
 76 81  1  0  0  0
 77 81  1  0  0  0
 77155  1  0  0  0
 77156  1  0  0  0
 77157  1  0  0  0
 78 81  1  0  0  0
 78 84  1  0  0  0
 78158  1  0  0  0
 78159  1  0  0  0
 79 80  1  0  0  0
 79160  1  0  0  0
 79161  1  0  0  0
 81 83  1  0  0  0
 84162  1  0  0  0
M  ISO  4   1 100  68 101  79 101  84 100
M  END
> <chiral flag>
0

> <version>
0

> <s_m_source_file>
/data/baiqing/PycharmProjects/Reinvent-master-3.2/result/LINK_invent/BTK/process_docking_weight1_custom_sum_contain_oxygen_bond_distance_aromatic_linkinvent_7_9_3/rearranged_h_0071.sdf

> <i_m_source_file_index>
85

> <r_mmod_Potential_Energy-OPLS-2005>
111.741729736328

> <r_mmod_Stretch_Energy-OPLS-2005>
131.559722900391

> <r_mmod_Bend_Energy-OPLS-2005>
181.292022705078

> <r_mmod_Torsional_Energy-OPLS-2005>
258.576873779297

> <r_mmod_Improper_Torsional_Energy-OPLS-2005>
5.91206693649292

> <r_mmod_Van_der_Waal_Energy-OPLS-2005>
108.800804138184

> <r_mmod_Electrostatic_Energy-OPLS-2005>
-438.775024414062

> <r_mmod_Solvation_Energy-OPLS-2005>
-218.321594238281

> <b_mmod_Minimization_Converged-OPLS-2005>
0

> <r_mmod_RMS_Derivative-OPLS-2005>
2.27948212623596

$$$$
88
                    3D
 Structure written by MMmdl.
183191  0  0  1  0            999 V2000
  -30.6495  -14.7399   20.3357 C   0  0  0  0  0  0
  -30.4116  -12.4303   19.4316 C   0  0  0  0  0  0
  -29.4878  -12.4702   18.1953 C   0  0  0  0  0  0
  -28.0199  -12.3162   18.6356 C   0  0  0  0  0  0
  -27.6388  -13.2436   19.8264 C   0  0  2  0  0  0
  -28.7029  -13.2279   20.9456 C   0  0  0  0  0  0
  -25.2578  -13.8199   20.5744 C   0  0  0  0  0  0
  -24.1853  -13.0411   20.9205 C   0  0  0  0  0  0
  -24.6539  -11.6914   20.8795 C   0  0  0  0  0  0
  -23.9186  -10.4296   21.0436 C   0  0  0  0  0  0
  -24.3667   -9.4267   21.9285 C   0  0  0  0  0  0
  -23.6338   -8.2322   22.0804 C   0  0  0  0  0  0
  -22.4396   -8.0297   21.3558 C   0  0  0  0  0  0
  -22.0090   -9.0261   20.4619 C   0  0  0  0  0  0
  -22.7423  -10.2122   20.3014 C   0  0  0  0  0  0
  -21.6948   -6.0834   22.5296 C   0  0  0  0  0  0
  -21.4055   -6.5759   23.8208 C   0  0  0  0  0  0
  -21.3611   -5.6889   24.9167 C   0  0  0  0  0  0
  -21.6032   -4.3145   24.7219 C   0  0  0  0  0  0
  -21.8819   -3.8256   23.4347 C   0  0  0  0  0  0
  -21.9226   -4.7081   22.3408 C   0  0  0  0  0  0
  -22.7882  -13.5307   21.1773 C   0  0  0  0  0  0
  -22.1640   -4.2242   21.0986 F   0  0  0  0  0  0
  -21.5603   -3.4598   25.7711 F   0  0  0  0  0  0
  -29.9839  -13.5373   20.3170 N   0  0  0  0  0  0
  -26.2984  -12.9424   20.3246 N   0  0  0  0  0  0
  -25.9491  -11.6584   20.5830 N   0  0  0  0  0  0
  -22.0508  -12.8261   22.0330 N   0  0  0  0  0  0
  -25.4257  -15.1904   20.4171 N   0  0  0  0  0  0
  -31.8677  -14.7349   20.1703 O   0  0  0  0  0  0
  -21.6733   -6.8952   21.4246 O   0  0  0  0  0  0
  -22.3627  -14.5627   20.6626 O   0  0  0  0  0  0
  -24.6372  -31.8456   23.1932 C   0  0  0  0  0  0
  -25.9176  -32.4691   23.8292 C   0  0  1  0  0  0
  -27.2230  -27.2034   20.1367 C   0  0  0  0  0  0
  -25.5921  -33.8511   24.2195 N   0  0  0  0  0  0
  -23.4365  -30.4689   21.5338 C   0  0  2  0  0  0
  -24.8843  -28.9033   20.1038 C   0  0  0  0  0  0
  -22.7516  -29.4558   22.4869 C   0  0  0  0  0  0
  -18.0284  -28.1401   22.8465 C   0  0  0  0  0  0
  -24.1493  -36.7284   23.2642 C   0  0  0  0  0  0
  -25.9851  -30.7419   21.3769 C   0  0  0  0  0  0
  -26.0571  -29.3588   20.7200 C   0  0  0  0  0  0
  -27.2280  -28.5228   20.7187 C   0  0  0  0  0  0
  -26.0296  -26.8283   19.4833 C   0  0  0  0  0  0
  -24.8801  -27.6485   19.4720 C   0  0  0  0  0  0
  -23.6580  -29.7979   20.1516 C   0  0  0  0  0  0
  -25.4117  -36.3048   24.0323 C   0  0  1  0  0  0
  -20.5882  -28.3717   23.1239 C   0  0  2  0  0  0
  -20.6793  -26.9431   22.5425 C   0  0  0  0  0  0
  -19.5773  -26.6395   21.5221 C   0  0  0  0  0  0
  -18.1932  -26.7940   22.1617 C   0  0  0  0  0  0
  -19.1534  -28.8878   23.2838 C   0  0  0  0  0  0
  -18.9460  -30.1492   23.8873 C   0  0  0  0  0  0
  -17.6453  -30.6608   24.0562 C   0  0  0  0  0  0
  -25.9074  -34.9420   23.5054 C   0  0  0  0  0  0
  -16.5348  -29.9113   23.6328 C   0  0  0  0  0  0
  -16.7265  -28.6528   23.0330 C   0  0  0  0  0  0
  -26.4509  -31.6581   25.0730 C   0  0  0  0  0  0
  -25.3692  -31.3768   26.1437 C   0  0  0  0  0  0
  -27.0395  -30.2984   24.6295 C   0  0  0  0  0  0
  -27.6027  -32.4356   25.7491 C   0  0  0  0  0  0
  -27.5573  -37.1812   24.8458 C   0  0  0  0  0  0
  -21.4206  -29.3030   22.3596 N   0  0  0  0  0  0
  -26.4297  -37.3752   23.9394 N   0  0  0  0  0  0
  -24.7022  -31.0424   22.0870 N   0  0  0  0  0  0
  -23.4200  -28.8038   23.2943 O   0  0  0  0  0  0
  -28.3222  -26.3020   20.2144 O   0  0  0  0  0  0
  -26.5672  -34.8886   22.4648 O   0  0  0  0  0  0
  -23.5523  -32.1291   23.7255 O   0  0  0  0  0  0
  -30.4072  -21.8157   21.8046 C   0  0  0  0  0  0
  -29.5361  -22.1854   20.7894 C   0  0  0  0  0  0
  -28.4614  -21.4164   22.4420 C   0  0  0  0  0  0
  -27.2390  -21.1253   23.2554 C   0  0  0  0  0  0
  -33.9109  -18.7667   23.6297 C   0  0  0  0  0  0
  -30.5693  -24.5678   20.9432 C   0  0  0  0  0  0
  -27.1184  -19.6052   19.9114 C   0  0  0  0  0  0
  -28.2643  -18.6140   21.8795 C   0  0  0  0  0  0
  -31.4386  -17.7191   21.0993 C   0  0  0  0  0  0
  -31.2623  -17.2881   18.6558 C   0  0  0  0  0  0
  -31.9062  -21.6720   21.9121 C   0  0  0  0  0  0
  -33.6921  -19.9912   22.7274 C   0  0  0  0  0  0
  -32.2785  -20.5526   22.9053 C   0  0  0  0  0  0
  -29.4985  -18.7012   19.7117 C   0  0  0  0  0  0
  -28.2526  -24.7866   19.9802 C   0  0  0  0  0  0
  -29.2205  -23.8128   20.8879 C   0  0  1  0  0  0
  -28.4681  -19.5526   20.6664 C   0  0  0  0  0  0
  -30.4539  -17.3688   19.9882 C   0  0  0  0  0  0
  -29.6137  -21.8269   22.9564 N   0  0  0  0  0  0
  -28.7286  -21.0283   21.1718 N   0  0  0  0  0  0
  -29.9282  -15.9393   20.2669 N   0  0  0  0  0  0
  -31.4499  -12.5226   19.1148 H   0  0  0  0  0  0
  -30.3336  -11.4680   19.9455 H   0  0  0  0  0  0
  -29.7556  -11.6748   17.4971 H   0  0  0  0  0  0
  -29.6196  -13.4059   17.6415 H   0  0  0  0  0  0
  -27.8786  -11.2806   18.9397 H   0  0  0  0  0  0
  -27.3445  -12.4796   17.7940 H   0  0  0  0  0  0
  -27.6121  -14.2546   19.4163 H   0  0  0  0  0  0
  -28.7573  -12.2632   21.4501 H   0  0  0  0  0  0
  -28.4797  -13.9638   21.7201 H   0  0  0  0  0  0
  -25.2774   -9.5849   22.4909 H   0  0  0  0  0  0
  -23.9976   -7.4797   22.7670 H   0  0  0  0  0  0
  -21.1081   -8.8740   19.8838 H   0  0  0  0  0  0
  -22.3866  -10.9655   19.6093 H   0  0  0  0  0  0
  -21.2032   -7.6256   23.9747 H   0  0  0  0  0  0
  -21.1389   -6.0590   25.9069 H   0  0  0  0  0  0
  -22.0661   -2.7734   23.2781 H   0  0  0  0  0  0
  -22.4058  -11.9722   22.4328 H   0  0  0  0  0  0
  -21.1132  -13.1204   22.2585 H   0  0  0  0  0  0
  -24.6640  -15.8374   20.5768 H   0  0  0  0  0  0
  -26.2873  -15.6496   20.1479 H   0  0  0  0  0  0
  -26.7208  -32.5305   23.1007 H   0  0  0  0  0  0
  -24.9974  -33.9603   25.0275 H   0  0  0  0  0  0
  -22.7361  -31.2910   21.3879 H   0  0  0  0  0  0
  -23.3729  -35.9641   23.3299 H   0  0  0  0  0  0
  -24.3576  -36.8926   22.2055 H   0  0  0  0  0  0
  -23.7290  -37.6494   23.6683 H   0  0  0  0  0  0
  -26.1371  -31.5009   20.6104 H   0  0  0  0  0  0
  -26.8554  -30.7881   22.0166 H   0  0  0  0  0  0
  -28.1237  -28.8757   21.2040 H   0  0  0  0  0  0
  -25.9545  -25.8736   18.9919 H   0  0  0  0  0  0
  -23.9823  -27.2977   18.9830 H   0  0  0  0  0  0
  -23.7796  -30.5725   19.3925 H   0  0  0  0  0  0
  -22.7712  -29.2344   19.8513 H   0  0  0  0  0  0
  -25.1315  -36.1860   25.0819 H   0  0  0  0  0  0
  -20.9985  -28.3327   24.1347 H   0  0  0  0  0  0
  -20.5691  -26.2311   23.3627 H   0  0  0  0  0  0
  -21.6641  -26.7444   22.1197 H   0  0  0  0  0  0
  -19.6927  -25.6297   21.1247 H   0  0  0  0  0  0
  -19.6722  -27.3186   20.6718 H   0  0  0  0  0  0
  -17.4202  -26.6627   21.4025 H   0  0  0  0  0  0
  -18.0363  -26.0119   22.9043 H   0  0  0  0  0  0
  -19.7940  -30.7307   24.2221 H   0  0  0  0  0  0
  -17.5016  -31.6268   24.5182 H   0  0  0  0  0  0
  -15.5358  -30.2999   23.7719 H   0  0  0  0  0  0
  -15.8649  -28.0887   22.7042 H   0  0  0  0  0  0
  -24.5836  -30.7150   25.7748 H   0  0  0  0  0  0
  -24.8929  -32.2972   26.4831 H   0  0  0  0  0  0
  -25.7983  -30.8934   27.0231 H   0  0  0  0  0  0
  -26.3027  -29.6659   24.1317 H   0  0  0  0  0  0
  -27.4031  -29.7322   25.4887 H   0  0  0  0  0  0
  -27.8910  -30.4208   23.9592 H   0  0  0  0  0  0
  -27.2590  -33.3647   26.2043 H   0  0  0  0  0  0
  -28.3839  -32.6955   25.0331 H   0  0  0  0  0  0
  -28.0694  -31.8518   26.5436 H   0  0  0  0  0  0
  -28.2604  -38.0095   24.7483 H   0  0  0  0  0  0
  -28.1062  -36.2635   24.6311 H   0  0  0  0  0  0
  -27.2295  -37.1492   25.8862 H   0  0  0  0  0  0
  -20.9420  -29.8738   21.6784 H   0  0  0  0  0  0
  -26.0153  -38.2821   24.1353 H   0  0  0  0  0  0
  -26.4067  -20.8097   22.6228 H   0  0  0  0  0  0
  -26.9385  -22.0217   23.7960 H   0  0  0  0  0  0
  -27.4413  -20.3530   23.9957 H   0  0  0  0  0  0
  -33.6413  -18.9966   24.6608 H   0  0  0  0  0  0
  -34.9470  -18.4360   23.6259 H   0  0  0  0  0  0
  -33.2909  -17.9286   23.3057 H   0  0  0  0  0  0
  -31.1557  -24.2861   21.8161 H   0  0  0  0  0  0
  -30.4511  -25.6450   21.0322 H   0  0  0  0  0  0
  -31.1685  -24.3864   20.0500 H   0  0  0  0  0  0
  -27.2331  -19.8385   18.8523 H   0  0  0  0  0  0
  -26.4489  -20.3614   20.3204 H   0  0  0  0  0  0
  -26.5903  -18.6489   19.9810 H   0  0  0  0  0  0
  -28.9868  -18.8223   22.6676 H   0  0  0  0  0  0
  -28.3784  -17.5679   21.6124 H   0  0  0  0  0  0
  -27.2643  -18.6851   22.2997 H   0  0  0  0  0  0
  -31.7788  -18.7367   20.9390 H   0  0  0  0  0  0
  -32.3438  -17.1148   21.0732 H   0  0  0  0  0  0
  -30.9890  -17.6362   22.0895 H   0  0  0  0  0  0
  -30.6080  -17.0308   17.8245 H   0  0  0  0  0  0
  -32.0956  -16.5834   18.6518 H   0  0  0  0  0  0
  -31.7327  -18.2420   18.4208 H   0  0  0  0  0  0
  -32.3914  -22.5845   22.2390 H   0  0  0  0  0  0
  -32.3210  -21.4480   20.9306 H   0  0  0  0  0  0
  -33.8629  -19.7053   21.6844 H   0  0  0  0  0  0
  -34.4254  -20.7677   22.9493 H   0  0  0  0  0  0
  -31.5549  -19.7446   22.8179 H   0  0  0  0  0  0
  -32.1480  -20.9165   23.9236 H   0  0  0  0  0  0
  -30.1708  -19.4640   19.3214 H   0  0  0  0  0  0
  -28.9202  -18.3963   18.8359 H   0  0  0  0  0  0
  -27.2278  -24.4318   20.0980 H   0  0  0  0  0  0
  -28.4895  -24.6297   18.9251 H   0  0  0  0  0  0
  -28.7803  -23.9794   21.8760 H   0  0  0  0  0  0
  -28.9276  -15.8562   20.3467 H   0  0  0  0  0  0
  1 25  1  0  0  0
  1 30  2  0  0  0
  1 91  1  0  0  0
  2  3  1  0  0  0
  2 25  1  0  0  0
  2 92  1  0  0  0
  2 93  1  0  0  0
  3  4  1  0  0  0
  3 94  1  0  0  0
  3 95  1  0  0  0
  4  5  1  0  0  0
  4 96  1  0  0  0
  4 97  1  0  0  0
  5  6  1  0  0  0
  5 26  1  0  0  0
  5 98  1  0  0  0
  6 25  1  0  0  0
  6 99  1  0  0  0
  6100  1  0  0  0
  7  8  2  0  0  0
  7 26  1  0  0  0
  7 29  1  0  0  0
  8  9  1  0  0  0
  8 22  1  0  0  0
  9 10  1  0  0  0
  9 27  2  0  0  0
 10 11  2  0  0  0
 10 15  1  0  0  0
 11 12  1  0  0  0
 11101  1  0  0  0
 12 13  2  0  0  0
 12102  1  0  0  0
 13 14  1  0  0  0
 13 31  1  0  0  0
 14 15  2  0  0  0
 14103  1  0  0  0
 15104  1  0  0  0
 16 17  2  0  0  0
 16 21  1  0  0  0
 16 31  1  0  0  0
 17 18  1  0  0  0
 17105  1  0  0  0
 18 19  2  0  0  0
 18106  1  0  0  0
 19 20  1  0  0  0
 19 24  1  0  0  0
 20 21  2  0  0  0
 20107  1  0  0  0
 21 23  1  0  0  0
 22 28  1  0  0  0
 22 32  2  0  0  0
 26 27  1  0  0  0
 28108  1  0  0  0
 28109  1  0  0  0
 29110  1  0  0  0
 29111  1  0  0  0
 33 34  1  0  0  0
 33 66  1  0  0  0
 33 70  2  0  0  0
 34 36  1  0  0  0
 34 59  1  0  0  0
 34112  1  0  0  0
 35 44  2  0  0  0
 35 45  1  0  0  0
 35 68  1  0  0  0
 36 56  1  0  0  0
 36113  1  0  0  0
 37 39  1  0  0  0
 37 47  1  0  0  0
 37 66  1  0  0  0
 37114  1  0  0  0
 38 43  2  0  0  0
 38 46  1  0  0  0
 38 47  1  0  0  0
 39 64  1  0  0  0
 39 67  2  0  0  0
 40 52  1  0  0  0
 40 53  2  0  0  0
 40 58  1  0  0  0
 41115  1  0  0  0
 41116  1  0  0  0
 41117  1  0  0  0
 41 48  1  0  0  0
 42 43  1  0  0  0
 42 66  1  0  0  0
 42118  1  0  0  0
 42119  1  0  0  0
 43 44  1  0  0  0
 44120  1  0  0  0
 45 46  2  0  0  0
 45121  1  0  0  0
 46122  1  0  0  0
 47123  1  0  0  0
 47124  1  0  0  0
 48 56  1  0  0  0
 48 65  1  0  0  0
 48125  1  0  0  0
 49 50  1  0  0  0
 49 53  1  0  0  0
 49 64  1  0  0  0
 49126  1  0  0  0
 50 51  1  0  0  0
 50127  1  0  0  0
 50128  1  0  0  0
 51 52  1  0  0  0
 51129  1  0  0  0
 51130  1  0  0  0
 52131  1  0  0  0
 52132  1  0  0  0
 53 54  1  0  0  0
 54 55  2  0  0  0
 54133  1  0  0  0
 55 57  1  0  0  0
 55134  1  0  0  0
 56 69  2  0  0  0
 57 58  2  0  0  0
 57135  1  0  0  0
 58136  1  0  0  0
 59 60  1  0  0  0
 59 61  1  0  0  0
 59 62  1  0  0  0
 60137  1  0  0  0
 60138  1  0  0  0
 60139  1  0  0  0
 61140  1  0  0  0
 61141  1  0  0  0
 61142  1  0  0  0
 62143  1  0  0  0
 62144  1  0  0  0
 62145  1  0  0  0
 63 65  1  0  0  0
 63146  1  0  0  0
 63147  1  0  0  0
 63148  1  0  0  0
 64149  1  0  0  0
 65150  1  0  0  0
 68 85  1  0  0  0
 71 72  2  0  0  0
 71 81  1  0  0  0
 71 89  1  0  0  0
 72 86  1  0  0  0
 72 90  1  0  0  0
 73 74  1  0  0  0
 73 89  2  0  0  0
 73 90  1  0  0  0
 74151  1  0  0  0
 74152  1  0  0  0
 74153  1  0  0  0
 75 82  1  0  0  0
 75154  1  0  0  0
 75155  1  0  0  0
 75156  1  0  0  0
 76157  1  0  0  0
 76158  1  0  0  0
 76159  1  0  0  0
 76 86  1  0  0  0
 77160  1  0  0  0
 77161  1  0  0  0
 77162  1  0  0  0
 77 87  1  0  0  0
 78 87  1  0  0  0
 78163  1  0  0  0
 78164  1  0  0  0
 78165  1  0  0  0
 79166  1  0  0  0
 79167  1  0  0  0
 79168  1  0  0  0
 79 88  1  0  0  0
 80 88  1  0  0  0
 80169  1  0  0  0
 80170  1  0  0  0
 80171  1  0  0  0
 81 83  1  0  0  0
 81172  1  0  0  0
 81173  1  0  0  0
 82 83  1  0  0  0
 82174  1  0  0  0
 82175  1  0  0  0
 83176  1  0  0  0
 83177  1  0  0  0
 84 87  1  0  0  0
 84 88  1  0  0  0
 84178  1  0  0  0
 84179  1  0  0  0
 85 86  1  0  0  0
 85180  1  0  0  0
 85181  1  0  0  0
 86182  1  0  0  0
 87 90  1  0  0  0
 88 91  1  0  0  0
 91183  1  0  0  0
M  ISO  4   1 100  68 101  85 101  91 100
M  END
> <chiral flag>
0

> <version>
0

> <s_m_source_file>
/data/baiqing/PycharmProjects/Reinvent-master-3.2/result/LINK_invent/BTK/process_docking_weight1_custom_sum_contain_oxygen_bond_distance_aromatic_linkinvent_7_9_3/rearranged_h_0071.sdf

> <i_m_source_file_index>
86

> <r_mmod_Potential_Energy-OPLS-2005>
901.702087402344

> <r_mmod_Stretch_Energy-OPLS-2005>
218.615020751953

> <r_mmod_Bend_Energy-OPLS-2005>
414.732360839844

> <r_mmod_Torsional_Energy-OPLS-2005>
532.585693359375

> <r_mmod_Improper_Torsional_Energy-OPLS-2005>
41.7983665466309

> <r_mmod_Van_der_Waal_Energy-OPLS-2005>
147.598251342773

> <r_mmod_Electrostatic_Energy-OPLS-2005>
-363.471557617188

> <r_mmod_Solvation_Energy-OPLS-2005>
-200.317474365234

> <b_mmod_Minimization_Converged-OPLS-2005>
0

> <r_mmod_RMS_Derivative-OPLS-2005>
9.71566772460938

$$$$
89
                    3D
 Structure written by MMmdl.
165173  0  0  1  0            999 V2000
  -30.6578  -14.6025   20.4615 C   0  0  0  0  0  0
  -30.4247  -12.3577   19.4547 C   0  0  0  0  0  0
  -29.5077  -12.4880   18.2202 C   0  0  0  0  0  0
  -28.0270  -12.3433   18.6247 C   0  0  0  0  0  0
  -27.6482  -13.2193   19.8501 C   0  0  2  0  0  0
  -28.6936  -13.0932   20.9823 C   0  0  0  0  0  0
  -25.2529  -13.8185   20.5642 C   0  0  0  0  0  0
  -24.1810  -13.0451   20.9196 C   0  0  0  0  0  0
  -24.6385  -11.6924   20.8740 C   0  0  0  0  0  0
  -23.9056  -10.4310   21.0406 C   0  0  0  0  0  0
  -24.3615   -9.4224   21.9176 C   0  0  0  0  0  0
  -23.6295   -8.2256   22.0753 C   0  0  0  0  0  0
  -22.4276   -8.0282   21.3547 C   0  0  0  0  0  0
  -21.9903   -9.0253   20.4647 C   0  0  0  0  0  0
  -22.7236  -10.2130   20.3052 C   0  0  0  0  0  0
  -21.6857   -6.0729   22.5286 C   0  0  0  0  0  0
  -21.4019   -6.5628   23.8218 C   0  0  0  0  0  0
  -21.3668   -5.6785   24.9178 C   0  0  0  0  0  0
  -21.6041   -4.3048   24.7225 C   0  0  0  0  0  0
  -21.8821   -3.8136   23.4349 C   0  0  0  0  0  0
  -21.9187   -4.6957   22.3406 C   0  0  0  0  0  0
  -22.7823  -13.5235   21.1847 C   0  0  0  0  0  0
  -22.1648   -4.2138   21.0979 F   0  0  0  0  0  0
  -21.5630   -3.4530   25.7741 F   0  0  0  0  0  0
  -30.0137  -13.3995   20.4126 N   0  0  0  0  0  0
  -26.2952  -12.9367   20.3239 N   0  0  0  0  0  0
  -25.9311  -11.6525   20.5731 N   0  0  0  0  0  0
  -22.0450  -12.8244   22.0411 N   0  0  0  0  0  0
  -25.4222  -15.1909   20.4027 N   0  0  0  0  0  0
  -31.8594  -14.6803   20.2158 O   0  0  0  0  0  0
  -21.6647   -6.8870   21.4248 O   0  0  0  0  0  0
  -22.3501  -14.5517   20.6657 O   0  0  0  0  0  0
  -24.6231  -31.8641   23.2072 C   0  0  0  0  0  0
  -25.9094  -32.4804   23.8382 C   0  0  1  0  0  0
  -27.2105  -27.3538   20.1088 C   0  0  0  0  0  0
  -25.5916  -33.8607   24.2321 N   0  0  0  0  0  0
  -23.4137  -30.4919   21.5484 C   0  0  2  0  0  0
  -24.8554  -28.9569   20.1078 C   0  0  0  0  0  0
  -22.7456  -29.4653   22.4939 C   0  0  0  0  0  0
  -18.0276  -28.1381   22.8508 C   0  0  0  0  0  0
  -24.1485  -36.7301   23.2642 C   0  0  0  0  0  0
  -25.9532  -30.8069   21.3722 C   0  0  0  0  0  0
  -26.0243  -29.4389   20.7123 C   0  0  0  0  0  0
  -27.2049  -28.6475   20.7044 C   0  0  0  0  0  0
  -26.0219  -26.9214   19.4760 C   0  0  0  0  0  0
  -24.8544  -27.7017   19.4859 C   0  0  0  0  0  0
  -23.6252  -29.8356   20.1599 C   0  0  0  0  0  0
  -25.4104  -36.3107   24.0342 C   0  0  1  0  0  0
  -20.5884  -28.3668   23.1304 C   0  0  2  0  0  0
  -20.6778  -26.9401   22.5405 C   0  0  0  0  0  0
  -19.5747  -26.6390   21.5211 C   0  0  0  0  0  0
  -18.1926  -26.7933   22.1631 C   0  0  0  0  0  0
  -19.1535  -28.8849   23.2899 C   0  0  0  0  0  0
  -18.9449  -30.1457   23.8897 C   0  0  0  0  0  0
  -17.6453  -30.6587   24.0571 C   0  0  0  0  0  0
  -25.9032  -34.9469   23.5137 C   0  0  0  0  0  0
  -16.5348  -29.9086   23.6339 C   0  0  0  0  0  0
  -16.7259  -28.6505   23.0364 C   0  0  0  0  0  0
  -26.4487  -31.6593   25.0735 C   0  0  0  0  0  0
  -25.3741  -31.3717   26.1476 C   0  0  0  0  0  0
  -27.0317  -30.3020   24.6154 C   0  0  0  0  0  0
  -27.6051  -32.4324   25.7501 C   0  0  0  0  0  0
  -27.5577  -37.1815   24.8468 C   0  0  0  0  0  0
  -21.4173  -29.3047   22.3700 N   0  0  0  0  0  0
  -26.4284  -37.3789   23.9414 N   0  0  0  0  0  0
  -24.6825  -31.0698   22.0998 N   0  0  0  0  0  0
  -23.4215  -28.8200   23.2985 O   0  0  0  0  0  0
  -28.3341  -26.5251   20.1656 O   0  0  0  0  0  0
  -26.5590  -34.8934   22.4696 O   0  0  0  0  0  0
  -23.5405  -32.1405   23.7433 O   0  0  0  0  0  0
  -30.5036  -21.8928   20.2695 C   0  0  0  0  0  0
  -28.3894  -21.9079   19.8766 C   0  0  0  0  0  0
  -30.1384  -20.5987   19.9020 C   0  0  0  0  0  0
  -32.4828  -20.1405   19.1170 C   0  0  0  0  0  0
  -27.4114  -24.7578   21.6161 C   0  0  0  0  0  0
  -31.6546  -17.2346   18.4442 C   0  0  0  0  0  0
  -32.2353  -17.8292   20.8716 C   0  0  0  0  0  0
  -29.4605  -24.2448   20.1667 C   0  0  0  0  0  0
  -29.8765  -17.1890   20.2436 C   0  0  0  0  0  0
  -31.0737  -19.5131   19.3054 C   0  0  1  0  0  0
  -28.1295  -25.0692   20.2854 C   0  0  2  0  0  0
  -31.1756  -17.9504   19.7467 C   0  0  0  0  0  0
  -28.7534  -20.6266   19.7020 N   0  0  0  0  0  0
  -29.4026  -22.7513   20.1438 N   0  0  0  0  0  0
  -29.8359  -15.6956   20.5432 N   0  0  0  0  0  0
  -31.4717  -12.4497   19.1608 H   0  0  0  0  0  0
  -30.3233  -11.3697   19.9059 H   0  0  0  0  0  0
  -29.7686  -11.7349   17.4754 H   0  0  0  0  0  0
  -29.6669  -13.4559   17.7426 H   0  0  0  0  0  0
  -27.8461  -11.2918   18.8496 H   0  0  0  0  0  0
  -27.3848  -12.5816   17.7775 H   0  0  0  0  0  0
  -27.6563  -14.2502   19.4966 H   0  0  0  0  0  0
  -28.6930  -12.0842   21.3960 H   0  0  0  0  0  0
  -28.4537  -13.7611   21.8118 H   0  0  0  0  0  0
  -25.2764   -9.5691   22.4745 H   0  0  0  0  0  0
  -24.0003   -7.4640   22.7468 H   0  0  0  0  0  0
  -21.0833   -8.8777   19.8945 H   0  0  0  0  0  0
  -22.3707  -10.9659   19.6150 H   0  0  0  0  0  0
  -21.2022   -7.6145   23.9721 H   0  0  0  0  0  0
  -21.1483   -6.0510   25.9076 H   0  0  0  0  0  0
  -22.0592   -2.7601   23.2857 H   0  0  0  0  0  0
  -22.4048  -11.9933   22.4862 H   0  0  0  0  0  0
  -21.1049  -13.1252   22.2562 H   0  0  0  0  0  0
  -24.6545  -15.8435   20.5204 H   0  0  0  0  0  0
  -26.2645  -15.6338   20.0579 H   0  0  0  0  0  0
  -26.7186  -32.5482   23.1147 H   0  0  0  0  0  0
  -25.0082  -33.9747   25.0487 H   0  0  0  0  0  0
  -22.7042  -31.3103   21.4121 H   0  0  0  0  0  0
  -23.3744  -35.9633   23.3303 H   0  0  0  0  0  0
  -24.3585  -36.8906   22.2057 H   0  0  0  0  0  0
  -23.7231  -37.6510   23.6646 H   0  0  0  0  0  0
  -26.0826  -31.5774   20.6109 H   0  0  0  0  0  0
  -26.8367  -30.8522   21.9973 H   0  0  0  0  0  0
  -28.0999  -29.0108   21.1884 H   0  0  0  0  0  0
  -25.9591  -25.9710   18.9722 H   0  0  0  0  0  0
  -23.9577  -27.3276   19.0094 H   0  0  0  0  0  0
  -23.7436  -30.6176   19.4075 H   0  0  0  0  0  0
  -22.7458  -29.2656   19.8558 H   0  0  0  0  0  0
  -25.1286  -36.1966   25.0830 H   0  0  0  0  0  0
  -20.9959  -28.3221   24.1429 H   0  0  0  0  0  0
  -20.5695  -26.2267   23.3587 H   0  0  0  0  0  0
  -21.6642  -26.7449   22.1191 H   0  0  0  0  0  0
  -19.6894  -25.6298   21.1240 H   0  0  0  0  0  0
  -19.6688  -27.3217   20.6755 H   0  0  0  0  0  0
  -17.4203  -26.6685   21.4031 H   0  0  0  0  0  0
  -18.0309  -26.0055   22.9010 H   0  0  0  0  0  0
  -19.7920  -30.7285   24.2248 H   0  0  0  0  0  0
  -17.5003  -31.6256   24.5186 H   0  0  0  0  0  0
  -15.5350  -30.2999   23.7651 H   0  0  0  0  0  0
  -15.8655  -28.0827   22.7078 H   0  0  0  0  0  0
  -24.5916  -30.7050   25.7836 H   0  0  0  0  0  0
  -24.8922  -32.2873   26.4912 H   0  0  0  0  0  0
  -25.8090  -30.8910   27.0244 H   0  0  0  0  0  0
  -26.2874  -29.6788   24.1178 H   0  0  0  0  0  0
  -27.4032  -29.7253   25.4634 H   0  0  0  0  0  0
  -27.8740  -30.4322   23.9353 H   0  0  0  0  0  0
  -27.2659  -33.3623   26.2066 H   0  0  0  0  0  0
  -28.3857  -32.6877   25.0329 H   0  0  0  0  0  0
  -28.0712  -31.8453   26.5419 H   0  0  0  0  0  0
  -28.2613  -38.0103   24.7514 H   0  0  0  0  0  0
  -28.1063  -36.2637   24.6297 H   0  0  0  0  0  0
  -27.2299  -37.1460   25.8874 H   0  0  0  0  0  0
  -20.9310  -29.8774   21.6945 H   0  0  0  0  0  0
  -26.0173  -38.2867   24.1406 H   0  0  0  0  0  0
  -31.4885  -22.3102   20.4352 H   0  0  0  0  0  0
  -27.3733  -22.2467   19.7217 H   0  0  0  0  0  0
  -32.4262  -21.0605   18.5339 H   0  0  0  0  0  0
  -33.1852  -19.4989   18.5911 H   0  0  0  0  0  0
  -32.9340  -20.3917   20.0768 H   0  0  0  0  0  0
  -27.2519  -23.6885   21.7538 H   0  0  0  0  0  0
  -26.4295  -25.2271   21.6698 H   0  0  0  0  0  0
  -27.9958  -25.1157   22.4648 H   0  0  0  0  0  0
  -31.6264  -16.1572   18.4670 H   0  0  0  0  0  0
  -32.6792  -17.4888   18.1766 H   0  0  0  0  0  0
  -31.0264  -17.4846   17.5895 H   0  0  0  0  0  0
  -32.2487  -16.8517   21.3433 H   0  0  0  0  0  0
  -32.0371  -18.5484   21.6675 H   0  0  0  0  0  0
  -33.2499  -18.0125   20.5173 H   0  0  0  0  0  0
  -30.1344  -24.5411   20.9703 H   0  0  0  0  0  0
  -29.9545  -24.5439   19.2415 H   0  0  0  0  0  0
  -29.5029  -17.6963   21.1340 H   0  0  0  0  0  0
  -29.0990  -17.3534   19.4960 H   0  0  0  0  0  0
  -30.6994  -19.4671   18.2828 H   0  0  0  0  0  0
  -27.5158  -24.7174   19.4584 H   0  0  0  0  0  0
  -28.8998  -15.3948   20.7652 H   0  0  0  0  0  0
  1 25  1  0  0  0
  1 30  2  0  0  0
  1 85  1  0  0  0
  2  3  1  0  0  0
  2 25  1  0  0  0
  2 86  1  0  0  0
  2 87  1  0  0  0
  3  4  1  0  0  0
  3 88  1  0  0  0
  3 89  1  0  0  0
  4  5  1  0  0  0
  4 90  1  0  0  0
  4 91  1  0  0  0
  5  6  1  0  0  0
  5 26  1  0  0  0
  5 92  1  0  0  0
  6 25  1  0  0  0
  6 93  1  0  0  0
  6 94  1  0  0  0
  7  8  2  0  0  0
  7 26  1  0  0  0
  7 29  1  0  0  0
  8  9  1  0  0  0
  8 22  1  0  0  0
  9 10  1  0  0  0
  9 27  2  0  0  0
 10 11  2  0  0  0
 10 15  1  0  0  0
 11 12  1  0  0  0
 11 95  1  0  0  0
 12 13  2  0  0  0
 12 96  1  0  0  0
 13 14  1  0  0  0
 13 31  1  0  0  0
 14 15  2  0  0  0
 14 97  1  0  0  0
 15 98  1  0  0  0
 16 17  2  0  0  0
 16 21  1  0  0  0
 16 31  1  0  0  0
 17 18  1  0  0  0
 17 99  1  0  0  0
 18 19  2  0  0  0
 18100  1  0  0  0
 19 20  1  0  0  0
 19 24  1  0  0  0
 20 21  2  0  0  0
 20101  1  0  0  0
 21 23  1  0  0  0
 22 28  1  0  0  0
 22 32  2  0  0  0
 26 27  1  0  0  0
 28102  1  0  0  0
 28103  1  0  0  0
 29104  1  0  0  0
 29105  1  0  0  0
 33 34  1  0  0  0
 33 66  1  0  0  0
 33 70  2  0  0  0
 34 36  1  0  0  0
 34 59  1  0  0  0
 34106  1  0  0  0
 35 44  2  0  0  0
 35 45  1  0  0  0
 35 68  1  0  0  0
 36 56  1  0  0  0
 36107  1  0  0  0
 37 39  1  0  0  0
 37 47  1  0  0  0
 37 66  1  0  0  0
 37108  1  0  0  0
 38 43  2  0  0  0
 38 46  1  0  0  0
 38 47  1  0  0  0
 39 64  1  0  0  0
 39 67  2  0  0  0
 40 52  1  0  0  0
 40 53  2  0  0  0
 40 58  1  0  0  0
 41109  1  0  0  0
 41110  1  0  0  0
 41111  1  0  0  0
 41 48  1  0  0  0
 42 43  1  0  0  0
 42 66  1  0  0  0
 42112  1  0  0  0
 42113  1  0  0  0
 43 44  1  0  0  0
 44114  1  0  0  0
 45 46  2  0  0  0
 45115  1  0  0  0
 46116  1  0  0  0
 47117  1  0  0  0
 47118  1  0  0  0
 48 56  1  0  0  0
 48 65  1  0  0  0
 48119  1  0  0  0
 49 50  1  0  0  0
 49 53  1  0  0  0
 49 64  1  0  0  0
 49120  1  0  0  0
 50 51  1  0  0  0
 50121  1  0  0  0
 50122  1  0  0  0
 51 52  1  0  0  0
 51123  1  0  0  0
 51124  1  0  0  0
 52125  1  0  0  0
 52126  1  0  0  0
 53 54  1  0  0  0
 54 55  2  0  0  0
 54127  1  0  0  0
 55 57  1  0  0  0
 55128  1  0  0  0
 56 69  2  0  0  0
 57 58  2  0  0  0
 57129  1  0  0  0
 58130  1  0  0  0
 59 60  1  0  0  0
 59 61  1  0  0  0
 59 62  1  0  0  0
 60131  1  0  0  0
 60132  1  0  0  0
 60133  1  0  0  0
 61134  1  0  0  0
 61135  1  0  0  0
 61136  1  0  0  0
 62137  1  0  0  0
 62138  1  0  0  0
 62139  1  0  0  0
 63 65  1  0  0  0
 63140  1  0  0  0
 63141  1  0  0  0
 63142  1  0  0  0
 64143  1  0  0  0
 65144  1  0  0  0
 68 81  1  0  0  0
 71 73  2  0  0  0
 71 84  1  0  0  0
 71145  1  0  0  0
 72 83  2  0  0  0
 72 84  1  0  0  0
 72146  1  0  0  0
 73 80  1  0  0  0
 73 83  1  0  0  0
 74147  1  0  0  0
 74148  1  0  0  0
 74149  1  0  0  0
 74 80  1  0  0  0
 75150  1  0  0  0
 75151  1  0  0  0
 75152  1  0  0  0
 75 81  1  0  0  0
 76153  1  0  0  0
 76154  1  0  0  0
 76155  1  0  0  0
 76 82  1  0  0  0
 77 82  1  0  0  0
 77156  1  0  0  0
 77157  1  0  0  0
 77158  1  0  0  0
 78 81  1  0  0  0
 78 84  1  0  0  0
 78159  1  0  0  0
 78160  1  0  0  0
 79 82  1  0  0  0
 79 85  1  0  0  0
 79161  1  0  0  0
 79162  1  0  0  0
 80 82  1  0  0  0
 80163  1  0  0  0
 81164  1  0  0  0
 85165  1  0  0  0
M  ISO  4   1 100  68 101  81 101  85 100
M  END
> <chiral flag>
0

> <version>
0

> <s_m_source_file>
/data/baiqing/PycharmProjects/Reinvent-master-3.2/result/LINK_invent/BTK/process_docking_weight1_custom_sum_contain_oxygen_bond_distance_aromatic_linkinvent_7_9_3/rearranged_h_0071.sdf

> <i_m_source_file_index>
87

> <r_mmod_Potential_Energy-OPLS-2005>
100.095710754395

> <r_mmod_Stretch_Energy-OPLS-2005>
79.1618499755859

> <r_mmod_Bend_Energy-OPLS-2005>
206.07373046875

> <r_mmod_Torsional_Energy-OPLS-2005>
249.477493286133

> <r_mmod_Improper_Torsional_Energy-OPLS-2005>
11.4890069961548

> <r_mmod_Van_der_Waal_Energy-OPLS-2005>
145.995941162109

> <r_mmod_Electrostatic_Energy-OPLS-2005>
-422.412506103516

> <r_mmod_Solvation_Energy-OPLS-2005>
-212.082931518555

> <b_mmod_Minimization_Converged-OPLS-2005>
0

> <r_mmod_RMS_Derivative-OPLS-2005>
2.63962459564209

$$$$
90
                    3D
 Structure written by MMmdl.
158166  0  0  1  0            999 V2000
  -30.6255  -14.8059   20.3461 C   0  0  0  0  0  0
  -30.4424  -12.4627   19.4759 C   0  0  0  0  0  0
  -29.5225  -12.4047   18.2359 C   0  0  0  0  0  0
  -28.0450  -12.2643   18.6606 C   0  0  0  0  0  0
  -27.6315  -13.2085   19.8235 C   0  0  2  0  0  0
  -28.6893  -13.2633   20.9462 C   0  0  0  0  0  0
  -25.2587  -13.8118   20.5726 C   0  0  0  0  0  0
  -24.1849  -13.0396   20.9206 C   0  0  0  0  0  0
  -24.6409  -11.6862   20.8762 C   0  0  0  0  0  0
  -23.9085  -10.4258   21.0404 C   0  0  0  0  0  0
  -24.3634   -9.4169   21.9185 C   0  0  0  0  0  0
  -23.6296   -8.2219   22.0772 C   0  0  0  0  0  0
  -22.4264   -8.0291   21.3569 C   0  0  0  0  0  0
  -21.9909   -9.0262   20.4680 C   0  0  0  0  0  0
  -22.7262  -10.2129   20.3055 C   0  0  0  0  0  0
  -21.6852   -6.0746   22.5277 C   0  0  0  0  0  0
  -21.4045   -6.5638   23.8217 C   0  0  0  0  0  0
  -21.3650   -5.6784   24.9159 C   0  0  0  0  0  0
  -21.6017   -4.3038   24.7198 C   0  0  0  0  0  0
  -21.8822   -3.8158   23.4318 C   0  0  0  0  0  0
  -21.9187   -4.6989   22.3385 C   0  0  0  0  0  0
  -22.7893  -13.5238   21.1843 C   0  0  0  0  0  0
  -22.1646   -4.2184   21.0962 F   0  0  0  0  0  0
  -21.5612   -3.4504   25.7700 F   0  0  0  0  0  0
  -29.9771  -13.5851   20.3211 N   0  0  0  0  0  0
  -26.2941  -12.9251   20.3243 N   0  0  0  0  0  0
  -25.9321  -11.6430   20.5775 N   0  0  0  0  0  0
  -22.0511  -12.8242   22.0399 N   0  0  0  0  0  0
  -25.4323  -15.1846   20.4225 N   0  0  0  0  0  0
  -31.8567  -14.8315   20.2565 O   0  0  0  0  0  0
  -21.6617   -6.8895   21.4244 O   0  0  0  0  0  0
  -22.3597  -14.5553   20.6713 O   0  0  0  0  0  0
  -24.6324  -31.8548   23.1962 C   0  0  0  0  0  0
  -25.9164  -32.4742   23.8331 C   0  0  1  0  0  0
  -27.2434  -27.2579   20.1512 C   0  0  0  0  0  0
  -25.5953  -33.8544   24.2268 N   0  0  0  0  0  0
  -23.4335  -30.4747   21.5358 C   0  0  2  0  0  0
  -24.8885  -28.9096   20.1204 C   0  0  0  0  0  0
  -22.7521  -29.4641   22.4905 C   0  0  0  0  0  0
  -18.0305  -28.1395   22.8495 C   0  0  0  0  0  0
  -24.1486  -36.7260   23.2645 C   0  0  0  0  0  0
  -25.9786  -30.7683   21.3781 C   0  0  0  0  0  0
  -26.0585  -29.3871   20.7270 C   0  0  0  0  0  0
  -27.2406  -28.5755   20.7303 C   0  0  0  0  0  0
  -26.0518  -26.8438   19.5215 C   0  0  0  0  0  0
  -24.8910  -27.6459   19.5098 C   0  0  0  0  0  0
  -23.6569  -29.7971   20.1571 C   0  0  0  0  0  0
  -25.4118  -36.3053   24.0330 C   0  0  1  0  0  0
  -20.5915  -28.3729   23.1261 C   0  0  2  0  0  0
  -20.6793  -26.9444   22.5409 C   0  0  0  0  0  0
  -19.5757  -26.6395   21.5225 C   0  0  0  0  0  0
  -18.1940  -26.7936   22.1640 C   0  0  0  0  0  0
  -19.1555  -28.8878   23.2864 C   0  0  0  0  0  0
  -18.9473  -30.1478   23.8878 C   0  0  0  0  0  0
  -17.6473  -30.6583   24.0579 C   0  0  0  0  0  0
  -25.9064  -34.9433   23.5096 C   0  0  0  0  0  0
  -16.5366  -29.9075   23.6332 C   0  0  0  0  0  0
  -16.7289  -28.6502   23.0346 C   0  0  0  0  0  0
  -26.4518  -31.6586   25.0741 C   0  0  0  0  0  0
  -25.3737  -31.3744   26.1466 C   0  0  0  0  0  0
  -27.0378  -30.2998   24.6259 C   0  0  0  0  0  0
  -27.6059  -32.4339   25.7510 C   0  0  0  0  0  0
  -27.5570  -37.1794   24.8463 C   0  0  0  0  0  0
  -21.4225  -29.3055   22.3628 N   0  0  0  0  0  0
  -26.4282  -37.3772   23.9416 N   0  0  0  0  0  0
  -24.7002  -31.0509   22.0934 N   0  0  0  0  0  0
  -23.4214  -28.8210   23.3042 O   0  0  0  0  0  0
  -28.3301  -26.3571   20.1244 O   0  0  0  0  0  0
  -26.5607  -34.8910   22.4644 O   0  0  0  0  0  0
  -23.5467  -32.1386   23.7237 O   0  0  0  0  0  0
  -29.1715  -21.5640   20.4373 C   0  0  0  0  0  0
  -28.5497  -23.6902   20.4691 C   0  0  0  0  0  0
  -31.9223  -23.5183   20.8317 C   0  0  0  0  0  0
  -29.1645  -16.1487   18.9294 C   0  0  0  0  0  0
  -29.9102  -20.2091   20.8052 C   0  0  0  0  0  0
  -28.2791  -25.1636   21.0302 C   0  0  0  0  0  0
  -29.4788  -18.7548   20.2332 C   0  0  0  0  0  0
  -30.7164  -23.1255   21.7050 C   0  0  0  0  0  0
  -30.3050  -17.4063   20.6751 C   0  0  0  0  0  0
  -28.0642  -21.6646   19.6867 N   0  0  0  0  0  0
  -27.6696  -23.0124   19.7070 N   0  0  0  0  0  0
  -29.5434  -22.8176   20.8973 N   0  0  0  0  0  0
  -29.8922  -15.9978   20.1956 N   0  0  0  0  0  0
  -30.4039  -11.5221   20.0305 H   0  0  0  0  0  0
  -31.4801  -12.5829   19.1621 H   0  0  0  0  0  0
  -29.8100  -11.5534   17.6167 H   0  0  0  0  0  0
  -29.6631  -13.2814   17.6055 H   0  0  0  0  0  0
  -27.9046  -11.2305   18.9760 H   0  0  0  0  0  0
  -27.3911  -12.4021   17.7986 H   0  0  0  0  0  0
  -27.5574  -14.1924   19.3832 H   0  0  0  0  0  0
  -28.4294  -14.0406   21.6694 H   0  0  0  0  0  0
  -28.7397  -12.3242   21.4948 H   0  0  0  0  0  0
  -25.2782   -9.5612   22.4758 H   0  0  0  0  0  0
  -24.0004   -7.4585   22.7475 H   0  0  0  0  0  0
  -21.0848   -8.8779   19.8986 H   0  0  0  0  0  0
  -22.3735  -10.9669   19.6157 H   0  0  0  0  0  0
  -21.2077   -7.6149   23.9730 H   0  0  0  0  0  0
  -21.1462   -6.0499   25.9062 H   0  0  0  0  0  0
  -22.0627   -2.7638   23.2764 H   0  0  0  0  0  0
  -22.4109  -11.9902   22.4790 H   0  0  0  0  0  0
  -21.1156  -13.1338   22.2617 H   0  0  0  0  0  0
  -24.6766  -15.8458   20.5678 H   0  0  0  0  0  0
  -26.3035  -15.6311   20.1648 H   0  0  0  0  0  0
  -26.7239  -32.5404   23.1085 H   0  0  0  0  0  0
  -25.0148  -33.9678   25.0447 H   0  0  0  0  0  0
  -22.7328  -31.2979   21.3825 H   0  0  0  0  0  0
  -23.3749  -35.9588   23.3306 H   0  0  0  0  0  0
  -24.3593  -36.8883   22.2060 H   0  0  0  0  0  0
  -23.7237  -37.6468   23.6659 H   0  0  0  0  0  0
  -26.1184  -31.5345   20.6129 H   0  0  0  0  0  0
  -26.8520  -30.8210   22.0170 H   0  0  0  0  0  0
  -28.1360  -28.9457   21.2099 H   0  0  0  0  0  0
  -26.0149  -25.8691   19.0517 H   0  0  0  0  0  0
  -23.9968  -27.2752   19.0281 H   0  0  0  0  0  0
  -23.7785  -30.5668   19.3942 H   0  0  0  0  0  0
  -22.7771  -29.2255   19.8539 H   0  0  0  0  0  0
  -25.1302  -36.1900   25.0823 H   0  0  0  0  0  0
  -21.0002  -28.3303   24.1389 H   0  0  0  0  0  0
  -20.5718  -26.2341   23.3631 H   0  0  0  0  0  0
  -21.6663  -26.7474   22.1205 H   0  0  0  0  0  0
  -19.6928  -25.6303   21.1252 H   0  0  0  0  0  0
  -19.6670  -27.3205   20.6753 H   0  0  0  0  0  0
  -17.4225  -26.6703   21.4017 H   0  0  0  0  0  0
  -18.0325  -26.0070   22.9023 H   0  0  0  0  0  0
  -19.7951  -30.7303   24.2228 H   0  0  0  0  0  0
  -17.5022  -31.6260   24.5186 H   0  0  0  0  0  0
  -15.5361  -30.2967   23.7663 H   0  0  0  0  0  0
  -15.8706  -28.0810   22.7045 H   0  0  0  0  0  0
  -24.5881  -30.7116   25.7811 H   0  0  0  0  0  0
  -24.8945  -32.2901   26.4919 H   0  0  0  0  0  0
  -25.8056  -30.8910   27.0232 H   0  0  0  0  0  0
  -26.2973  -29.6733   24.1246 H   0  0  0  0  0  0
  -27.4013  -29.7291   25.4818 H   0  0  0  0  0  0
  -27.8874  -30.4285   23.9550 H   0  0  0  0  0  0
  -27.2653  -33.3638   26.2079 H   0  0  0  0  0  0
  -28.3859  -32.6909   25.0330 H   0  0  0  0  0  0
  -28.0730  -31.8471   26.5437 H   0  0  0  0  0  0
  -28.2593  -38.0087   24.7520 H   0  0  0  0  0  0
  -28.1059  -36.2619   24.6266 H   0  0  0  0  0  0
  -27.2289  -37.1424   25.8869 H   0  0  0  0  0  0
  -20.9435  -29.8734   21.6783 H   0  0  0  0  0  0
  -26.0142  -38.2844   24.1414 H   0  0  0  0  0  0
  -32.7855  -23.7818   21.4461 H   0  0  0  0  0  0
  -31.6944  -24.3831   20.2117 H   0  0  0  0  0  0
  -32.2266  -22.7018   20.1747 H   0  0  0  0  0  0
  -28.1687  -16.5532   19.1091 H   0  0  0  0  0  0
  -29.0764  -15.2326   18.3537 H   0  0  0  0  0  0
  -29.6957  -16.8295   18.2655 H   0  0  0  0  0  0
  -30.9622  -20.3481   20.5599 H   0  0  0  0  0  0
  -29.8789  -20.1336   21.8915 H   0  0  0  0  0  0
  -28.9845  -25.3682   21.8327 H   0  0  0  0  0  0
  -27.3082  -25.1355   21.5262 H   0  0  0  0  0  0
  -29.5102  -18.8541   19.1481 H   0  0  0  0  0  0
  -28.4301  -18.6007   20.4847 H   0  0  0  0  0  0
  -30.4819  -23.9268   22.4030 H   0  0  0  0  0  0
  -30.9736  -22.2646   22.3227 H   0  0  0  0  0  0
  -30.3314  -17.3771   21.7645 H   0  0  0  0  0  0
  -31.3416  -17.5490   20.3608 H   0  0  0  0  0  0
  1 25  1  0  0  0
  1 30  2  0  0  0
  1 83  1  0  0  0
  2  3  1  0  0  0
  2 25  1  0  0  0
  2 84  1  0  0  0
  2 85  1  0  0  0
  3  4  1  0  0  0
  3 86  1  0  0  0
  3 87  1  0  0  0
  4  5  1  0  0  0
  4 88  1  0  0  0
  4 89  1  0  0  0
  5  6  1  0  0  0
  5 26  1  0  0  0
  5 90  1  0  0  0
  6 25  1  0  0  0
  6 91  1  0  0  0
  6 92  1  0  0  0
  7  8  2  0  0  0
  7 26  1  0  0  0
  7 29  1  0  0  0
  8  9  1  0  0  0
  8 22  1  0  0  0
  9 10  1  0  0  0
  9 27  2  0  0  0
 10 11  2  0  0  0
 10 15  1  0  0  0
 11 12  1  0  0  0
 11 93  1  0  0  0
 12 13  2  0  0  0
 12 94  1  0  0  0
 13 14  1  0  0  0
 13 31  1  0  0  0
 14 15  2  0  0  0
 14 95  1  0  0  0
 15 96  1  0  0  0
 16 17  2  0  0  0
 16 21  1  0  0  0
 16 31  1  0  0  0
 17 18  1  0  0  0
 17 97  1  0  0  0
 18 19  2  0  0  0
 18 98  1  0  0  0
 19 20  1  0  0  0
 19 24  1  0  0  0
 20 21  2  0  0  0
 20 99  1  0  0  0
 21 23  1  0  0  0
 22 28  1  0  0  0
 22 32  2  0  0  0
 26 27  1  0  0  0
 28100  1  0  0  0
 28101  1  0  0  0
 29102  1  0  0  0
 29103  1  0  0  0
 33 34  1  0  0  0
 33 66  1  0  0  0
 33 70  2  0  0  0
 34 36  1  0  0  0
 34 59  1  0  0  0
 34104  1  0  0  0
 35 44  2  0  0  0
 35 45  1  0  0  0
 35 68  1  0  0  0
 36 56  1  0  0  0
 36105  1  0  0  0
 37 39  1  0  0  0
 37 47  1  0  0  0
 37 66  1  0  0  0
 37106  1  0  0  0
 38 43  2  0  0  0
 38 46  1  0  0  0
 38 47  1  0  0  0
 39 64  1  0  0  0
 39 67  2  0  0  0
 40 52  1  0  0  0
 40 53  2  0  0  0
 40 58  1  0  0  0
 41107  1  0  0  0
 41108  1  0  0  0
 41109  1  0  0  0
 41 48  1  0  0  0
 42 43  1  0  0  0
 42 66  1  0  0  0
 42110  1  0  0  0
 42111  1  0  0  0
 43 44  1  0  0  0
 44112  1  0  0  0
 45 46  2  0  0  0
 45113  1  0  0  0
 46114  1  0  0  0
 47115  1  0  0  0
 47116  1  0  0  0
 48 56  1  0  0  0
 48 65  1  0  0  0
 48117  1  0  0  0
 49 50  1  0  0  0
 49 53  1  0  0  0
 49 64  1  0  0  0
 49118  1  0  0  0
 50 51  1  0  0  0
 50119  1  0  0  0
 50120  1  0  0  0
 51 52  1  0  0  0
 51121  1  0  0  0
 51122  1  0  0  0
 52123  1  0  0  0
 52124  1  0  0  0
 53 54  1  0  0  0
 54 55  2  0  0  0
 54125  1  0  0  0
 55 57  1  0  0  0
 55126  1  0  0  0
 56 69  2  0  0  0
 57 58  2  0  0  0
 57127  1  0  0  0
 58128  1  0  0  0
 59 60  1  0  0  0
 59 61  1  0  0  0
 59 62  1  0  0  0
 60129  1  0  0  0
 60130  1  0  0  0
 60131  1  0  0  0
 61132  1  0  0  0
 61133  1  0  0  0
 61134  1  0  0  0
 62135  1  0  0  0
 62136  1  0  0  0
 62137  1  0  0  0
 63 65  1  0  0  0
 63138  1  0  0  0
 63139  1  0  0  0
 63140  1  0  0  0
 64141  1  0  0  0
 65142  1  0  0  0
 68 76  1  0  0  0
 71 75  1  0  0  0
 71 80  2  0  0  0
 71 82  1  0  0  0
 72 76  1  0  0  0
 72 81  2  0  0  0
 72 82  1  0  0  0
 73 78  1  0  0  0
 73143  1  0  0  0
 73144  1  0  0  0
 73145  1  0  0  0
 74 83  1  0  0  0
 74146  1  0  0  0
 74147  1  0  0  0
 74148  1  0  0  0
 75 77  1  0  0  0
 75149  1  0  0  0
 75150  1  0  0  0
 76151  1  0  0  0
 76152  1  0  0  0
 77 79  1  0  0  0
 77153  1  0  0  0
 77154  1  0  0  0
 78 82  1  0  0  0
 78155  1  0  0  0
 78156  1  0  0  0
 79 83  1  0  0  0
 79157  1  0  0  0
 79158  1  0  0  0
 80 81  1  0  0  0
M  ISO  4   1 100  68 101  76 101  83 100
M  END
> <chiral flag>
0

> <version>
0

> <s_m_source_file>
/data/baiqing/PycharmProjects/Reinvent-master-3.2/result/LINK_invent/BTK/process_docking_weight1_custom_sum_contain_oxygen_bond_distance_aromatic_linkinvent_7_9_3/rearranged_h_0071.sdf

> <i_m_source_file_index>
88

> <r_mmod_Potential_Energy-OPLS-2005>
437.655792236328

> <r_mmod_Stretch_Energy-OPLS-2005>
139.636825561523

> <r_mmod_Bend_Energy-OPLS-2005>
195.083541870117

> <r_mmod_Torsional_Energy-OPLS-2005>
348.290252685547

> <r_mmod_Improper_Torsional_Energy-OPLS-2005>
10.7894802093506

> <r_mmod_Van_der_Waal_Energy-OPLS-2005>
116.859992980957

> <r_mmod_Electrostatic_Energy-OPLS-2005>
-257.97607421875

> <r_mmod_Solvation_Energy-OPLS-2005>
-230.010406494141

> <b_mmod_Minimization_Converged-OPLS-2005>
0

> <r_mmod_RMS_Derivative-OPLS-2005>
4.88753890991211

$$$$
91
                    3D
 Structure written by MMmdl.
160168  0  0  1  0            999 V2000
  -30.5752  -14.7458   20.4632 C   0  0  0  0  0  0
  -30.4399  -12.4635   19.4559 C   0  0  0  0  0  0
  -29.5104  -12.5104   18.2243 C   0  0  0  0  0  0
  -28.0323  -12.3397   18.6328 C   0  0  0  0  0  0
  -27.6387  -13.2274   19.8426 C   0  0  2  0  0  0
  -28.6832  -13.1468   20.9750 C   0  0  0  0  0  0
  -25.2508  -13.8191   20.5707 C   0  0  0  0  0  0
  -24.1810  -13.0446   20.9200 C   0  0  0  0  0  0
  -24.6394  -11.6908   20.8719 C   0  0  0  0  0  0
  -23.9064  -10.4292   21.0379 C   0  0  0  0  0  0
  -24.3615   -9.4206   21.9170 C   0  0  0  0  0  0
  -23.6292   -8.2234   22.0749 C   0  0  0  0  0  0
  -22.4275   -8.0269   21.3540 C   0  0  0  0  0  0
  -21.9905   -9.0240   20.4647 C   0  0  0  0  0  0
  -22.7223  -10.2121   20.3047 C   0  0  0  0  0  0
  -21.6862   -6.0735   22.5283 C   0  0  0  0  0  0
  -21.4009   -6.5651   23.8212 C   0  0  0  0  0  0
  -21.3647   -5.6801   24.9184 C   0  0  0  0  0  0
  -21.6044   -4.3062   24.7250 C   0  0  0  0  0  0
  -21.8818   -3.8147   23.4367 C   0  0  0  0  0  0
  -21.9194   -4.6955   22.3412 C   0  0  0  0  0  0
  -22.7833  -13.5213   21.1882 C   0  0  0  0  0  0
  -22.1675   -4.2128   21.0993 F   0  0  0  0  0  0
  -21.5617   -3.4549   25.7768 F   0  0  0  0  0  0
  -29.9803  -13.5095   20.3934 N   0  0  0  0  0  0
  -26.2906  -12.9376   20.3217 N   0  0  0  0  0  0
  -25.9307  -11.6520   20.5684 N   0  0  0  0  0  0
  -22.0508  -12.8171   22.0423 N   0  0  0  0  0  0
  -25.4218  -15.1932   20.4214 N   0  0  0  0  0  0
  -31.7682  -14.8830   20.1815 O   0  0  0  0  0  0
  -21.6657   -6.8863   21.4236 O   0  0  0  0  0  0
  -22.3497  -14.5518   20.6730 O   0  0  0  0  0  0
  -24.6331  -31.8550   23.2047 C   0  0  0  0  0  0
  -25.9144  -32.4721   23.8391 C   0  0  1  0  0  0
  -27.2101  -27.2601   20.0996 C   0  0  0  0  0  0
  -25.5931  -33.8531   24.2321 N   0  0  0  0  0  0
  -23.4301  -30.4787   21.5501 C   0  0  2  0  0  0
  -24.8732  -28.9346   20.1079 C   0  0  0  0  0  0
  -22.7530  -29.4553   22.4935 C   0  0  0  0  0  0
  -18.0292  -28.1357   22.8415 C   0  0  0  0  0  0
  -24.1482  -36.7302   23.2630 C   0  0  0  0  0  0
  -25.9808  -30.7594   21.3952 C   0  0  0  0  0  0
  -26.0464  -29.3861   20.7252 C   0  0  0  0  0  0
  -27.2167  -28.5600   20.7119 C   0  0  0  0  0  0
  -26.0144  -26.8856   19.4461 C   0  0  0  0  0  0
  -24.8638  -27.6921   19.4569 C   0  0  0  0  0  0
  -23.6480  -29.8277   20.1633 C   0  0  0  0  0  0
  -25.4100  -36.3041   24.0315 C   0  0  1  0  0  0
  -20.5884  -28.3671   23.1239 C   0  0  2  0  0  0
  -20.6771  -26.9378   22.5397 C   0  0  0  0  0  0
  -19.5770  -26.6350   21.5165 C   0  0  0  0  0  0
  -18.1947  -26.7896   22.1552 C   0  0  0  0  0  0
  -19.1534  -28.8838   23.2819 C   0  0  0  0  0  0
  -18.9444  -30.1437   23.8835 C   0  0  0  0  0  0
  -17.6444  -30.6557   24.0515 C   0  0  0  0  0  0
  -25.9043  -34.9404   23.5121 C   0  0  0  0  0  0
  -16.5336  -29.9049   23.6288 C   0  0  0  0  0  0
  -16.7284  -28.6472   23.0295 C   0  0  0  0  0  0
  -26.4512  -31.6531   25.0785 C   0  0  0  0  0  0
  -25.3726  -31.3633   26.1501 C   0  0  0  0  0  0
  -27.0391  -30.2926   24.6346 C   0  0  0  0  0  0
  -27.6105  -32.4277   25.7541 C   0  0  0  0  0  0
  -27.5601  -37.1778   24.8442 C   0  0  0  0  0  0
  -21.4239  -29.3013   22.3670 N   0  0  0  0  0  0
  -26.4280  -37.3747   23.9412 N   0  0  0  0  0  0
  -24.7015  -31.0496   22.1038 N   0  0  0  0  0  0
  -23.4224  -28.8081   23.3036 O   0  0  0  0  0  0
  -28.2986  -26.3547   20.1497 O   0  0  0  0  0  0
  -26.5629  -34.8862   22.4692 O   0  0  0  0  0  0
  -23.5467  -32.1409   23.7277 O   0  0  0  0  0  0
  -27.8364  -21.5610   21.9499 C   0  0  0  0  0  0
  -27.4899  -20.4739   22.6973 C   0  0  0  0  0  0
  -28.7485  -19.7488   20.9625 C   0  0  0  0  0  0
  -26.6342  -20.3607   23.9253 C   0  0  0  0  0  0
  -30.2076  -18.9670   18.9339 C   0  0  0  0  0  0
  -29.1299  -23.7596   20.2606 C   0  0  0  0  0  0
  -28.9794  -22.1879   19.8211 C   0  0  0  0  0  0
  -30.0543  -17.3208   20.9262 C   0  0  0  0  0  0
  -28.0665  -24.8982   19.8431 C   0  0  0  0  0  0
  -29.3203  -18.5352   20.1120 C   0  0  1  0  0  0
  -28.5862  -21.1426   20.8721 N   0  0  0  0  0  0
  -28.0516  -19.4041   22.0594 N   0  3  0  0  0  0
  -29.7481  -15.8427   20.6632 N   0  0  0  0  0  0
  -31.4725  -12.6226   19.1408 H   0  0  0  0  0  0
  -30.4156  -11.4830   19.9309 H   0  0  0  0  0  0
  -29.7898  -11.7385   17.5067 H   0  0  0  0  0  0
  -29.6362  -13.4646   17.7096 H   0  0  0  0  0  0
  -27.8716  -11.2888   18.8750 H   0  0  0  0  0  0
  -27.3821  -12.5555   17.7839 H   0  0  0  0  0  0
  -27.6337  -14.2521   19.4677 H   0  0  0  0  0  0
  -28.7185  -12.1449   21.4031 H   0  0  0  0  0  0
  -28.4143  -13.8169   21.7924 H   0  0  0  0  0  0
  -25.2753   -9.5706   22.4752 H   0  0  0  0  0  0
  -24.0017   -7.4639   22.7467 H   0  0  0  0  0  0
  -21.0832   -8.8736   19.8964 H   0  0  0  0  0  0
  -22.3646  -10.9656   19.6169 H   0  0  0  0  0  0
  -21.1992   -7.6167   23.9702 H   0  0  0  0  0  0
  -21.1474   -6.0554   25.9083 H   0  0  0  0  0  0
  -22.0597   -2.7602   23.2892 H   0  0  0  0  0  0
  -22.4171  -11.9849   22.4800 H   0  0  0  0  0  0
  -21.1108  -13.1138   22.2652 H   0  0  0  0  0  0
  -24.6462  -15.8373   20.5278 H   0  0  0  0  0  0
  -26.2623  -15.6376   20.0786 H   0  0  0  0  0  0
  -26.7227  -32.5361   23.1147 H   0  0  0  0  0  0
  -24.9969  -33.9664   25.0394 H   0  0  0  0  0  0
  -22.7230  -31.2985   21.4132 H   0  0  0  0  0  0
  -23.3710  -35.9668   23.3245 H   0  0  0  0  0  0
  -24.3581  -36.9034   22.2063 H   0  0  0  0  0  0
  -23.7280  -37.6490   23.6720 H   0  0  0  0  0  0
  -26.1374  -31.5245   20.6321 H   0  0  0  0  0  0
  -26.8507  -30.7954   22.0400 H   0  0  0  0  0  0
  -28.1171  -28.8883   21.2109 H   0  0  0  0  0  0
  -25.9279  -25.9451   18.9238 H   0  0  0  0  0  0
  -23.9693  -27.3482   18.9548 H   0  0  0  0  0  0
  -23.7850  -30.6130   19.4207 H   0  0  0  0  0  0
  -22.7596  -29.2794   19.8425 H   0  0  0  0  0  0
  -25.1273  -36.1906   25.0811 H   0  0  0  0  0  0
  -20.9928  -28.3244   24.1383 H   0  0  0  0  0  0
  -20.5625  -26.2281   23.3609 H   0  0  0  0  0  0
  -21.6645  -26.7406   22.1219 H   0  0  0  0  0  0
  -19.6923  -25.6253   21.1230 H   0  0  0  0  0  0
  -19.6711  -27.3098   20.6650 H   0  0  0  0  0  0
  -17.4219  -26.6576   21.3973 H   0  0  0  0  0  0
  -18.0350  -26.0090   22.8992 H   0  0  0  0  0  0
  -19.7938  -30.7222   24.2216 H   0  0  0  0  0  0
  -17.5014  -31.6229   24.5139 H   0  0  0  0  0  0
  -15.5319  -30.2911   23.7702 H   0  0  0  0  0  0
  -15.8680  -28.0793   22.7023 H   0  0  0  0  0  0
  -24.6024  -30.6817   25.7846 H   0  0  0  0  0  0
  -24.8678  -32.2713   26.4810 H   0  0  0  0  0  0
  -25.8063  -30.8951   27.0362 H   0  0  0  0  0  0
  -26.3005  -29.6579   24.1419 H   0  0  0  0  0  0
  -27.4076  -29.7283   25.4928 H   0  0  0  0  0  0
  -27.8896  -30.4159   23.9642 H   0  0  0  0  0  0
  -27.2826  -33.3688   26.1965 H   0  0  0  0  0  0
  -28.3965  -32.6663   25.0363 H   0  0  0  0  0  0
  -28.0693  -31.8483   26.5542 H   0  0  0  0  0  0
  -28.2531  -38.0173   24.7572 H   0  0  0  0  0  0
  -28.1221  -36.2687   24.6165 H   0  0  0  0  0  0
  -27.2324  -37.1309   25.8855 H   0  0  0  0  0  0
  -20.9452  -29.8831   21.6925 H   0  0  0  0  0  0
  -26.0143  -38.2828   24.1425 H   0  0  0  0  0  0
  -27.5550  -22.5941   22.1037 H   0  0  0  0  0  0
  -25.6271  -20.0400   23.6586 H   0  0  0  0  0  0
  -26.5519  -21.3265   24.4225 H   0  0  0  0  0  0
  -27.0495  -19.6507   24.6403 H   0  0  0  0  0  0
  -29.6942  -19.6591   18.2662 H   0  0  0  0  0  0
  -30.4973  -18.1010   18.3352 H   0  0  0  0  0  0
  -31.1252  -19.4413   19.2860 H   0  0  0  0  0  0
  -30.0788  -24.0964   19.8375 H   0  0  0  0  0  0
  -29.3044  -23.8216   21.3336 H   0  0  0  0  0  0
  -29.9305  -21.8575   19.4047 H   0  0  0  0  0  0
  -28.2535  -22.1091   19.0081 H   0  0  0  0  0  0
  -29.8428  -17.4584   21.9863 H   0  0  0  0  0  0
  -31.1324  -17.4677   20.8698 H   0  0  0  0  0  0
  -27.1145  -24.5924   20.2825 H   0  0  0  0  0  0
  -27.9270  -24.8240   18.7619 H   0  0  0  0  0  0
  -28.4159  -18.1134   19.6713 H   0  0  0  0  0  0
  -27.9071  -18.4439   22.3471 H   0  0  0  0  0  0
  -28.7844  -15.5824   20.8136 H   0  0  0  0  0  0
  1 25  1  0  0  0
  1 30  2  0  0  0
  1 83  1  0  0  0
  2  3  1  0  0  0
  2 25  1  0  0  0
  2 84  1  0  0  0
  2 85  1  0  0  0
  3  4  1  0  0  0
  3 86  1  0  0  0
  3 87  1  0  0  0
  4  5  1  0  0  0
  4 88  1  0  0  0
  4 89  1  0  0  0
  5  6  1  0  0  0
  5 26  1  0  0  0
  5 90  1  0  0  0
  6 25  1  0  0  0
  6 91  1  0  0  0
  6 92  1  0  0  0
  7  8  2  0  0  0
  7 26  1  0  0  0
  7 29  1  0  0  0
  8  9  1  0  0  0
  8 22  1  0  0  0
  9 10  1  0  0  0
  9 27  2  0  0  0
 10 11  2  0  0  0
 10 15  1  0  0  0
 11 12  1  0  0  0
 11 93  1  0  0  0
 12 13  2  0  0  0
 12 94  1  0  0  0
 13 14  1  0  0  0
 13 31  1  0  0  0
 14 15  2  0  0  0
 14 95  1  0  0  0
 15 96  1  0  0  0
 16 17  2  0  0  0
 16 21  1  0  0  0
 16 31  1  0  0  0
 17 18  1  0  0  0
 17 97  1  0  0  0
 18 19  2  0  0  0
 18 98  1  0  0  0
 19 20  1  0  0  0
 19 24  1  0  0  0
 20 21  2  0  0  0
 20 99  1  0  0  0
 21 23  1  0  0  0
 22 28  1  0  0  0
 22 32  2  0  0  0
 26 27  1  0  0  0
 28100  1  0  0  0
 28101  1  0  0  0
 29102  1  0  0  0
 29103  1  0  0  0
 33 34  1  0  0  0
 33 66  1  0  0  0
 33 70  2  0  0  0
 34 36  1  0  0  0
 34 59  1  0  0  0
 34104  1  0  0  0
 35 44  2  0  0  0
 35 45  1  0  0  0
 35 68  1  0  0  0
 36 56  1  0  0  0
 36105  1  0  0  0
 37 39  1  0  0  0
 37 47  1  0  0  0
 37 66  1  0  0  0
 37106  1  0  0  0
 38 43  2  0  0  0
 38 46  1  0  0  0
 38 47  1  0  0  0
 39 64  1  0  0  0
 39 67  2  0  0  0
 40 52  1  0  0  0
 40 53  2  0  0  0
 40 58  1  0  0  0
 41107  1  0  0  0
 41108  1  0  0  0
 41109  1  0  0  0
 41 48  1  0  0  0
 42 43  1  0  0  0
 42 66  1  0  0  0
 42110  1  0  0  0
 42111  1  0  0  0
 43 44  1  0  0  0
 44112  1  0  0  0
 45 46  2  0  0  0
 45113  1  0  0  0
 46114  1  0  0  0
 47115  1  0  0  0
 47116  1  0  0  0
 48 56  1  0  0  0
 48 65  1  0  0  0
 48117  1  0  0  0
 49 50  1  0  0  0
 49 53  1  0  0  0
 49 64  1  0  0  0
 49118  1  0  0  0
 50 51  1  0  0  0
 50119  1  0  0  0
 50120  1  0  0  0
 51 52  1  0  0  0
 51121  1  0  0  0
 51122  1  0  0  0
 52123  1  0  0  0
 52124  1  0  0  0
 53 54  1  0  0  0
 54 55  2  0  0  0
 54125  1  0  0  0
 55 57  1  0  0  0
 55126  1  0  0  0
 56 69  2  0  0  0
 57 58  2  0  0  0
 57127  1  0  0  0
 58128  1  0  0  0
 59 60  1  0  0  0
 59 61  1  0  0  0
 59 62  1  0  0  0
 60129  1  0  0  0
 60130  1  0  0  0
 60131  1  0  0  0
 61132  1  0  0  0
 61133  1  0  0  0
 61134  1  0  0  0
 62135  1  0  0  0
 62136  1  0  0  0
 62137  1  0  0  0
 63 65  1  0  0  0
 63138  1  0  0  0
 63139  1  0  0  0
 63140  1  0  0  0
 64141  1  0  0  0
 65142  1  0  0  0
 68 79  1  0  0  0
 71 72  2  0  0  0
 71 81  1  0  0  0
 71143  1  0  0  0
 72 74  1  0  0  0
 72 82  1  0  0  0
 73 80  1  0  0  0
 73 81  1  0  0  0
 73 82  2  0  0  0
 74144  1  0  0  0
 74145  1  0  0  0
 74146  1  0  0  0
 75147  1  0  0  0
 75148  1  0  0  0
 75149  1  0  0  0
 75 80  1  0  0  0
 76 77  1  0  0  0
 76 79  1  0  0  0
 76150  1  0  0  0
 76151  1  0  0  0
 77 81  1  0  0  0
 77152  1  0  0  0
 77153  1  0  0  0
 78 80  1  0  0  0
 78 83  1  0  0  0
 78154  1  0  0  0
 78155  1  0  0  0
 79156  1  0  0  0
 79157  1  0  0  0
 80158  1  0  0  0
 82159  1  0  0  0
 83160  1  0  0  0
M  CHG  1  82   1
M  ISO  4   1 100  68 101  79 101  83 100
M  END
> <chiral flag>
0

> <version>
0

> <s_m_source_file>
/data/baiqing/PycharmProjects/Reinvent-master-3.2/result/LINK_invent/BTK/process_docking_weight1_custom_sum_contain_oxygen_bond_distance_aromatic_linkinvent_7_9_3/rearranged_h_0071.sdf

> <i_m_source_file_index>
89

> <r_mmod_Potential_Energy-OPLS-2005>
172.354156494141

> <r_mmod_Stretch_Energy-OPLS-2005>
135.303909301758

> <r_mmod_Bend_Energy-OPLS-2005>
201.338623046875

> <r_mmod_Torsional_Energy-OPLS-2005>
256.049041748047

> <r_mmod_Improper_Torsional_Energy-OPLS-2005>
5.39780282974243

> <r_mmod_Van_der_Waal_Energy-OPLS-2005>
115.215469360352

> <r_mmod_Electrostatic_Energy-OPLS-2005>
-197.116989135742

> <r_mmod_Solvation_Energy-OPLS-2005>
-433.613952636719

> <b_mmod_Minimization_Converged-OPLS-2005>
0

> <r_mmod_RMS_Derivative-OPLS-2005>
4.66722440719604

$$$$
92
                    3D
 Structure written by MMmdl.
163171  0  0  1  0            999 V2000
  -30.6891  -14.4903   20.5263 C   0  0  0  0  0  0
  -30.4220  -12.3013   19.4346 C   0  0  0  0  0  0
  -29.4980  -12.4919   18.2133 C   0  0  0  0  0  0
  -28.0180  -12.3565   18.6231 C   0  0  0  0  0  0
  -27.6607  -13.2067   19.8724 C   0  0  2  0  0  0
  -28.7032  -13.0082   20.9985 C   0  0  0  0  0  0
  -25.2589  -13.8159   20.5673 C   0  0  0  0  0  0
  -24.1840  -13.0439   20.9173 C   0  0  0  0  0  0
  -24.6393  -11.6904   20.8731 C   0  0  0  0  0  0
  -23.9056  -10.4291   21.0398 C   0  0  0  0  0  0
  -24.3611   -9.4207   21.9178 C   0  0  0  0  0  0
  -23.6287   -8.2240   22.0754 C   0  0  0  0  0  0
  -22.4270   -8.0277   21.3543 C   0  0  0  0  0  0
  -21.9900   -9.0248   20.4646 C   0  0  0  0  0  0
  -22.7226  -10.2128   20.3051 C   0  0  0  0  0  0
  -21.6852   -6.0729   22.5276 C   0  0  0  0  0  0
  -21.4014   -6.5635   23.8209 C   0  0  0  0  0  0
  -21.3660   -5.6792   24.9171 C   0  0  0  0  0  0
  -21.6042   -4.3053   24.7227 C   0  0  0  0  0  0
  -21.8820   -3.8140   23.4349 C   0  0  0  0  0  0
  -21.9194   -4.6954   22.3404 C   0  0  0  0  0  0
  -22.7864  -13.5237   21.1836 C   0  0  0  0  0  0
  -22.1662   -4.2139   21.0983 F   0  0  0  0  0  0
  -21.5631   -3.4542   25.7741 F   0  0  0  0  0  0
  -30.0347  -13.3005   20.4430 N   0  0  0  0  0  0
  -26.3021  -12.9328   20.3351 N   0  0  0  0  0  0
  -25.9320  -11.6490   20.5766 N   0  0  0  0  0  0
  -22.0507  -12.8230   22.0393 N   0  0  0  0  0  0
  -25.4319  -15.1875   20.4071 N   0  0  0  0  0  0
  -31.8338  -14.6554   20.0978 O   0  0  0  0  0  0
  -21.6641   -6.8870   21.4238 O   0  0  0  0  0  0
  -22.3550  -14.5542   20.6686 O   0  0  0  0  0  0
  -24.6147  -31.8679   23.2088 C   0  0  0  0  0  0
  -25.9041  -32.4824   23.8386 C   0  0  1  0  0  0
  -27.2313  -27.4322   20.1007 C   0  0  0  0  0  0
  -25.5904  -33.8619   24.2326 N   0  0  0  0  0  0
  -23.4034  -30.4903   21.5499 C   0  0  2  0  0  0
  -24.8519  -28.9583   20.1114 C   0  0  0  0  0  0
  -22.7421  -29.4649   22.4989 C   0  0  0  0  0  0
  -18.0275  -28.1376   22.8486 C   0  0  0  0  0  0
  -24.1495  -36.7307   23.2638 C   0  0  0  0  0  0
  -25.9331  -30.8332   21.3634 C   0  0  0  0  0  0
  -26.0123  -29.4686   20.7081 C   0  0  0  0  0  0
  -27.2089  -28.7139   20.6975 C   0  0  0  0  0  0
  -26.0589  -26.9405   19.4893 C   0  0  0  0  0  0
  -24.8704  -27.6943   19.4966 C   0  0  0  0  0  0
  -23.6119  -29.8226   20.1641 C   0  0  0  0  0  0
  -25.4114  -36.3109   24.0340 C   0  0  1  0  0  0
  -20.5865  -28.3660   23.1323 C   0  0  2  0  0  0
  -20.6771  -26.9395   22.5421 C   0  0  0  0  0  0
  -19.5753  -26.6378   21.5219 C   0  0  0  0  0  0
  -18.1926  -26.7920   22.1618 C   0  0  0  0  0  0
  -19.1523  -28.8834   23.2902 C   0  0  0  0  0  0
  -18.9455  -30.1443   23.8906 C   0  0  0  0  0  0
  -17.6459  -30.6582   24.0563 C   0  0  0  0  0  0
  -25.9038  -34.9476   23.5128 C   0  0  0  0  0  0
  -16.5348  -29.9083   23.6331 C   0  0  0  0  0  0
  -16.7262  -28.6503   23.0340 C   0  0  0  0  0  0
  -26.4467  -31.6600   25.0715 C   0  0  0  0  0  0
  -25.3727  -31.3716   26.1463 C   0  0  0  0  0  0
  -27.0290  -30.3042   24.6078 C   0  0  0  0  0  0
  -27.6047  -32.4319   25.7471 C   0  0  0  0  0  0
  -27.5587  -37.1810   24.8468 C   0  0  0  0  0  0
  -21.4147  -29.3029   22.3734 N   0  0  0  0  0  0
  -26.4302  -37.3791   23.9407 N   0  0  0  0  0  0
  -24.6685  -31.0779   22.0991 N   0  0  0  0  0  0
  -23.4197  -28.8194   23.3028 O   0  0  0  0  0  0
  -28.3662  -26.6496   20.1223 O   0  0  0  0  0  0
  -26.5593  -34.8922   22.4687 O   0  0  0  0  0  0
  -23.5341  -32.1426   23.7484 O   0  0  0  0  0  0
  -30.3904  -21.4198   19.9679 C   0  0  0  0  0  0
  -29.3570  -21.6770   20.8316 C   0  0  0  0  0  0
  -29.8883  -19.4783   20.9704 C   0  0  0  0  0  0
  -28.5103  -17.7550   22.1941 C   0  0  0  0  0  0
  -30.9671  -17.9218   22.6136 C   0  0  0  0  0  0
  -31.8198  -19.4430   19.3735 C   0  0  0  0  0  0
  -28.6204  -22.9421   21.2087 C   0  0  0  0  0  0
  -28.9281  -24.2020   20.3526 C   0  0  0  0  0  0
  -30.1407  -16.9426   20.4408 C   0  0  0  0  0  0
  -28.2278  -25.4604   20.9251 C   0  0  0  0  0  0
  -29.8807  -18.0386   21.5270 C   0  0  0  0  0  0
  -30.7160  -20.0875   20.0901 N   0  0  0  0  0  0
  -29.0879  -20.4616   21.4207 N   0  3  0  0  0  0
  -29.9218  -15.5425   20.8735 N   0  0  0  0  0  0
  -31.4680  -12.3904   19.1357 H   0  0  0  0  0  0
  -30.3149  -11.2957   19.8439 H   0  0  0  0  0  0
  -29.7396  -11.7600   17.4414 H   0  0  0  0  0  0
  -29.6690  -13.4733   17.7686 H   0  0  0  0  0  0
  -27.8277  -11.3021   18.8270 H   0  0  0  0  0  0
  -27.3700  -12.6233   17.7872 H   0  0  0  0  0  0
  -27.6979  -14.2506   19.5597 H   0  0  0  0  0  0
  -28.6768  -11.9800   21.3631 H   0  0  0  0  0  0
  -28.4723  -13.6339   21.8621 H   0  0  0  0  0  0
  -25.2758   -9.5684   22.4747 H   0  0  0  0  0  0
  -23.9996   -7.4638   22.7478 H   0  0  0  0  0  0
  -21.0830   -8.8766   19.8955 H   0  0  0  0  0  0
  -22.3685  -10.9665   19.6157 H   0  0  0  0  0  0
  -21.2006   -7.6146   23.9707 H   0  0  0  0  0  0
  -21.1480   -6.0525   25.9074 H   0  0  0  0  0  0
  -22.0597   -2.7603   23.2856 H   0  0  0  0  0  0
  -22.4123  -11.9891   22.4783 H   0  0  0  0  0  0
  -21.1117  -13.1250   22.2592 H   0  0  0  0  0  0
  -24.6641  -15.8419   20.5125 H   0  0  0  0  0  0
  -26.2798  -15.6233   20.0681 H   0  0  0  0  0  0
  -26.7113  -32.5539   23.1145 H   0  0  0  0  0  0
  -25.0088  -33.9789   25.0495 H   0  0  0  0  0  0
  -22.6915  -31.3066   21.4107 H   0  0  0  0  0  0
  -23.3762  -35.9640   23.3313 H   0  0  0  0  0  0
  -24.3584  -36.8898   22.2050 H   0  0  0  0  0  0
  -23.7242  -37.6514   23.6637 H   0  0  0  0  0  0
  -26.0467  -31.6009   20.5965 H   0  0  0  0  0  0
  -26.8204  -30.8836   21.9831 H   0  0  0  0  0  0
  -28.1037  -29.0989   21.1660 H   0  0  0  0  0  0
  -26.0632  -25.9669   19.0182 H   0  0  0  0  0  0
  -23.9791  -27.2965   19.0312 H   0  0  0  0  0  0
  -23.7151  -30.5980   19.4040 H   0  0  0  0  0  0
  -22.7368  -29.2399   19.8708 H   0  0  0  0  0  0
  -25.1290  -36.1976   25.0834 H   0  0  0  0  0  0
  -20.9959  -28.3218   24.1444 H   0  0  0  0  0  0
  -20.5687  -26.2260   23.3602 H   0  0  0  0  0  0
  -21.6639  -26.7441   22.1210 H   0  0  0  0  0  0
  -19.6921  -25.6298   21.1230 H   0  0  0  0  0  0
  -19.6704  -27.3207   20.6768 H   0  0  0  0  0  0
  -17.4204  -26.6682   21.4009 H   0  0  0  0  0  0
  -18.0309  -26.0054   22.9003 H   0  0  0  0  0  0
  -19.7934  -30.7257   24.2274 H   0  0  0  0  0  0
  -17.5013  -31.6261   24.5162 H   0  0  0  0  0  0
  -15.5351  -30.2985   23.7653 H   0  0  0  0  0  0
  -15.8660  -28.0833   22.7041 H   0  0  0  0  0  0
  -24.5924  -30.7025   25.7810 H   0  0  0  0  0  0
  -24.8891  -32.2877   26.4869 H   0  0  0  0  0  0
  -25.8079  -30.8929   27.0242 H   0  0  0  0  0  0
  -26.2832  -29.6815   24.1122 H   0  0  0  0  0  0
  -27.4059  -29.7258   25.4521 H   0  0  0  0  0  0
  -27.8662  -30.4365   23.9218 H   0  0  0  0  0  0
  -27.2673  -33.3618   26.2055 H   0  0  0  0  0  0
  -28.3842  -32.6875   25.0284 H   0  0  0  0  0  0
  -28.0723  -31.8436   26.5375 H   0  0  0  0  0  0
  -28.2614  -38.0099   24.7505 H   0  0  0  0  0  0
  -28.1071  -36.2628   24.6305 H   0  0  0  0  0  0
  -27.2299  -37.1466   25.8869 H   0  0  0  0  0  0
  -20.9305  -29.8743   21.6950 H   0  0  0  0  0  0
  -26.0195  -38.2873   24.1401 H   0  0  0  0  0  0
  -30.9312  -22.0870   19.3088 H   0  0  0  0  0  0
  -28.2961  -18.4567   23.0002 H   0  0  0  0  0  0
  -28.4666  -16.7653   22.6478 H   0  0  0  0  0  0
  -27.6945  -17.8190   21.4731 H   0  0  0  0  0  0
  -30.8032  -18.6378   23.4194 H   0  0  0  0  0  0
  -31.9625  -18.1092   22.2109 H   0  0  0  0  0  0
  -30.9835  -16.9273   23.0597 H   0  0  0  0  0  0
  -32.4318  -20.2038   18.8891 H   0  0  0  0  0  0
  -31.4197  -18.7795   18.6072 H   0  0  0  0  0  0
  -32.4491  -18.8946   20.0724 H   0  0  0  0  0  0
  -28.8537  -23.1589   22.2519 H   0  0  0  0  0  0
  -27.5493  -22.7392   21.1736 H   0  0  0  0  0  0
  -28.6000  -24.0330   19.3267 H   0  0  0  0  0  0
  -30.0032  -24.3792   20.3145 H   0  0  0  0  0  0
  -31.1531  -17.0343   20.0548 H   0  0  0  0  0  0
  -29.4802  -17.1203   19.5906 H   0  0  0  0  0  0
  -28.6421  -25.6826   21.9096 H   0  0  0  0  0  0
  -27.1796  -25.2120   21.1032 H   0  0  0  0  0  0
  -28.3774  -20.3130   22.1278 H   0  0  0  0  0  0
  -29.0029  -15.3171   21.2225 H   0  0  0  0  0  0
  1 25  1  0  0  0
  1 30  2  0  0  0
  1 84  1  0  0  0
  2  3  1  0  0  0
  2 25  1  0  0  0
  2 85  1  0  0  0
  2 86  1  0  0  0
  3  4  1  0  0  0
  3 87  1  0  0  0
  3 88  1  0  0  0
  4  5  1  0  0  0
  4 89  1  0  0  0
  4 90  1  0  0  0
  5  6  1  0  0  0
  5 26  1  0  0  0
  5 91  1  0  0  0
  6 25  1  0  0  0
  6 92  1  0  0  0
  6 93  1  0  0  0
  7  8  2  0  0  0
  7 26  1  0  0  0
  7 29  1  0  0  0
  8  9  1  0  0  0
  8 22  1  0  0  0
  9 10  1  0  0  0
  9 27  2  0  0  0
 10 11  2  0  0  0
 10 15  1  0  0  0
 11 12  1  0  0  0
 11 94  1  0  0  0
 12 13  2  0  0  0
 12 95  1  0  0  0
 13 14  1  0  0  0
 13 31  1  0  0  0
 14 15  2  0  0  0
 14 96  1  0  0  0
 15 97  1  0  0  0
 16 17  2  0  0  0
 16 21  1  0  0  0
 16 31  1  0  0  0
 17 18  1  0  0  0
 17 98  1  0  0  0
 18 19  2  0  0  0
 18 99  1  0  0  0
 19 20  1  0  0  0
 19 24  1  0  0  0
 20 21  2  0  0  0
 20100  1  0  0  0
 21 23  1  0  0  0
 22 28  1  0  0  0
 22 32  2  0  0  0
 26 27  1  0  0  0
 28101  1  0  0  0
 28102  1  0  0  0
 29103  1  0  0  0
 29104  1  0  0  0
 33 34  1  0  0  0
 33 66  1  0  0  0
 33 70  2  0  0  0
 34 36  1  0  0  0
 34 59  1  0  0  0
 34105  1  0  0  0
 35 44  2  0  0  0
 35 45  1  0  0  0
 35 68  1  0  0  0
 36 56  1  0  0  0
 36106  1  0  0  0
 37 39  1  0  0  0
 37 47  1  0  0  0
 37 66  1  0  0  0
 37107  1  0  0  0
 38 43  2  0  0  0
 38 46  1  0  0  0
 38 47  1  0  0  0
 39 64  1  0  0  0
 39 67  2  0  0  0
 40 52  1  0  0  0
 40 53  2  0  0  0
 40 58  1  0  0  0
 41108  1  0  0  0
 41109  1  0  0  0
 41110  1  0  0  0
 41 48  1  0  0  0
 42 43  1  0  0  0
 42 66  1  0  0  0
 42111  1  0  0  0
 42112  1  0  0  0
 43 44  1  0  0  0
 44113  1  0  0  0
 45 46  2  0  0  0
 45114  1  0  0  0
 46115  1  0  0  0
 47116  1  0  0  0
 47117  1  0  0  0
 48 56  1  0  0  0
 48 65  1  0  0  0
 48118  1  0  0  0
 49 50  1  0  0  0
 49 53  1  0  0  0
 49 64  1  0  0  0
 49119  1  0  0  0
 50 51  1  0  0  0
 50120  1  0  0  0
 50121  1  0  0  0
 51 52  1  0  0  0
 51122  1  0  0  0
 51123  1  0  0  0
 52124  1  0  0  0
 52125  1  0  0  0
 53 54  1  0  0  0
 54 55  2  0  0  0
 54126  1  0  0  0
 55 57  1  0  0  0
 55127  1  0  0  0
 56 69  2  0  0  0
 57 58  2  0  0  0
 57128  1  0  0  0
 58129  1  0  0  0
 59 60  1  0  0  0
 59 61  1  0  0  0
 59 62  1  0  0  0
 60130  1  0  0  0
 60131  1  0  0  0
 60132  1  0  0  0
 61133  1  0  0  0
 61134  1  0  0  0
 61135  1  0  0  0
 62136  1  0  0  0
 62137  1  0  0  0
 62138  1  0  0  0
 63 65  1  0  0  0
 63139  1  0  0  0
 63140  1  0  0  0
 63141  1  0  0  0
 64142  1  0  0  0
 65143  1  0  0  0
 68 80  1  0  0  0
 71 72  2  0  0  0
 71 82  1  0  0  0
 71144  1  0  0  0
 72 77  1  0  0  0
 72 83  1  0  0  0
 73 81  1  0  0  0
 73 82  1  0  0  0
 73 83  2  0  0  0
 74145  1  0  0  0
 74146  1  0  0  0
 74147  1  0  0  0
 74 81  1  0  0  0
 75 81  1  0  0  0
 75148  1  0  0  0
 75149  1  0  0  0
 75150  1  0  0  0
 76 82  1  0  0  0
 76151  1  0  0  0
 76152  1  0  0  0
 76153  1  0  0  0
 77 78  1  0  0  0
 77154  1  0  0  0
 77155  1  0  0  0
 78 80  1  0  0  0
 78156  1  0  0  0
 78157  1  0  0  0
 79 81  1  0  0  0
 79 84  1  0  0  0
 79158  1  0  0  0
 79159  1  0  0  0
 80160  1  0  0  0
 80161  1  0  0  0
 83162  1  0  0  0
 84163  1  0  0  0
M  CHG  1  83   1
M  ISO  4   1 100  68 101  80 101  84 100
M  END
> <chiral flag>
0

> <version>
0

> <s_m_source_file>
/data/baiqing/PycharmProjects/Reinvent-master-3.2/result/LINK_invent/BTK/process_docking_weight1_custom_sum_contain_oxygen_bond_distance_aromatic_linkinvent_7_9_3/rearranged_h_0071.sdf

> <i_m_source_file_index>
90

> <r_mmod_Potential_Energy-OPLS-2005>
-117.748977661133

> <r_mmod_Stretch_Energy-OPLS-2005>
41.5855407714844

> <r_mmod_Bend_Energy-OPLS-2005>
101.801856994629

> <r_mmod_Torsional_Energy-OPLS-2005>
256.098083496094

> <r_mmod_Improper_Torsional_Energy-OPLS-2005>
7.12163305282593

> <r_mmod_Van_der_Waal_Energy-OPLS-2005>
132.167327880859

> <r_mmod_Electrostatic_Energy-OPLS-2005>
-258.627136230469

> <r_mmod_Solvation_Energy-OPLS-2005>
-413.839172363281

> <b_mmod_Minimization_Converged-OPLS-2005>
0

> <r_mmod_RMS_Derivative-OPLS-2005>
0.99261212348938

$$$$
93
                    3D
 Structure written by MMmdl.
167175  0  0  1  0            999 V2000
  -30.5346  -14.9852   20.4355 C   0  0  0  0  0  0
  -30.4397  -12.6152   19.4880 C   0  0  0  0  0  0
  -29.5220  -12.5562   18.2419 C   0  0  0  0  0  0
  -28.0471  -12.3496   18.6437 C   0  0  0  0  0  0
  -27.6269  -13.2489   19.8317 C   0  0  2  0  0  0
  -28.6786  -13.2344   20.9624 C   0  0  0  0  0  0
  -25.2402  -13.8155   20.5653 C   0  0  0  0  0  0
  -24.1757  -13.0381   20.9163 C   0  0  0  0  0  0
  -24.6417  -11.6888   20.8698 C   0  0  0  0  0  0
  -23.9153  -10.4256   21.0344 C   0  0  0  0  0  0
  -24.3680   -9.4204   21.9150 C   0  0  0  0  0  0
  -23.6335   -8.2268   22.0762 C   0  0  0  0  0  0
  -22.4314   -8.0282   21.3546 C   0  0  0  0  0  0
  -21.9974   -9.0262   20.4654 C   0  0  0  0  0  0
  -22.7321  -10.2105   20.3016 C   0  0  0  0  0  0
  -21.6863   -6.0763   22.5289 C   0  0  0  0  0  0
  -21.4004   -6.5646   23.8227 C   0  0  0  0  0  0
  -21.3679   -5.6789   24.9182 C   0  0  0  0  0  0
  -21.6061   -4.3051   24.7232 C   0  0  0  0  0  0
  -21.8821   -3.8169   23.4344 C   0  0  0  0  0  0
  -21.9199   -4.6984   22.3404 C   0  0  0  0  0  0
  -22.7789  -13.5144   21.1882 C   0  0  0  0  0  0
  -22.1635   -4.2168   21.0974 F   0  0  0  0  0  0
  -21.5677   -3.4527   25.7748 F   0  0  0  0  0  0
  -29.9457  -13.7078   20.3848 N   0  0  0  0  0  0
  -26.2860  -12.9435   20.3173 N   0  0  0  0  0  0
  -25.9343  -11.6563   20.5683 N   0  0  0  0  0  0
  -22.0463  -12.8156   22.0466 N   0  0  0  0  0  0
  -25.3973  -15.1879   20.4104 N   0  0  0  0  0  0
  -31.7193  -15.0069   20.0824 O   0  0  0  0  0  0
  -21.6649   -6.8897   21.4260 O   0  0  0  0  0  0
  -22.3470  -14.5458   20.6757 O   0  0  0  0  0  0
  -24.6411  -31.8458   23.1920 C   0  0  0  0  0  0
  -25.9190  -32.4708   23.8299 C   0  0  1  0  0  0
  -27.2283  -27.1534   20.1589 C   0  0  0  0  0  0
  -25.5945  -33.8519   24.2209 N   0  0  0  0  0  0
  -23.4420  -30.4661   21.5393 C   0  0  2  0  0  0
  -24.8919  -28.8859   20.1254 C   0  0  0  0  0  0
  -22.7566  -29.4554   22.4912 C   0  0  0  0  0  0
  -18.0293  -28.1363   22.8514 C   0  0  0  0  0  0
  -24.1475  -36.7249   23.2646 C   0  0  0  0  0  0
  -25.9988  -30.7282   21.3824 C   0  0  0  0  0  0
  -26.0739  -29.3386   20.7283 C   0  0  0  0  0  0
  -27.2450  -28.4942   20.7163 C   0  0  0  0  0  0
  -26.0144  -26.7831   19.5464 C   0  0  0  0  0  0
  -24.8744  -27.6173   19.5235 C   0  0  0  0  0  0
  -23.6668  -29.7878   20.1622 C   0  0  0  0  0  0
  -25.4111  -36.3056   24.0322 C   0  0  1  0  0  0
  -20.5918  -28.3669   23.1264 C   0  0  2  0  0  0
  -20.6774  -26.9367   22.5430 C   0  0  0  0  0  0
  -19.5730  -26.6346   21.5253 C   0  0  0  0  0  0
  -18.1913  -26.7900   22.1657 C   0  0  0  0  0  0
  -19.1560  -28.8839   23.2869 C   0  0  0  0  0  0
  -18.9481  -30.1456   23.8852 C   0  0  0  0  0  0
  -17.6473  -30.6565   24.0563 C   0  0  0  0  0  0
  -25.9083  -34.9428   23.5084 C   0  0  0  0  0  0
  -16.5359  -29.9062   23.6352 C   0  0  0  0  0  0
  -16.7280  -28.6490   23.0364 C   0  0  0  0  0  0
  -26.4523  -31.6573   25.0731 C   0  0  0  0  0  0
  -25.3718  -31.3752   26.1448 C   0  0  0  0  0  0
  -27.0395  -30.2964   24.6299 C   0  0  0  0  0  0
  -27.6026  -32.4352   25.7504 C   0  0  0  0  0  0
  -27.5566  -37.1770   24.8469 C   0  0  0  0  0  0
  -21.4263  -29.3002   22.3649 N   0  0  0  0  0  0
  -26.4267  -37.3772   23.9435 N   0  0  0  0  0  0
  -24.7135  -31.0363   22.0920 N   0  0  0  0  0  0
  -23.4236  -28.8086   23.3031 O   0  0  0  0  0  0
  -28.3227  -26.2229   20.1320 O   0  0  0  0  0  0
  -26.5678  -34.8916   22.4668 O   0  0  0  0  0  0
  -23.5540  -32.1287   23.7191 O   0  0  0  0  0  0
  -28.9896  -20.4942   19.6649 C   0  0  0  0  0  0
  -29.9375  -21.6274   21.2573 C   0  0  0  0  0  0
  -29.1034  -21.8836   20.1950 C   0  0  0  0  0  0
  -29.7621  -19.4867   20.3092 C   0  0  0  0  0  0
  -29.8010  -17.6279   18.4973 C   0  0  0  0  0  0
  -27.2671  -23.1034   18.8433 C   0  0  0  0  0  0
  -29.6311  -23.8189   18.5958 C   0  0  0  0  0  0
  -28.3325  -16.4803   20.9358 C   0  0  0  0  0  0
  -30.3682  -16.7181   22.2878 C   0  0  0  0  0  0
  -31.4090  -19.8462   22.2180 C   0  0  0  0  0  0
  -28.2489  -24.7258   20.5574 C   0  0  0  0  0  0
  -30.1833  -17.9080   19.9646 C   0  0  2  0  0  0
  -28.5726  -23.3645   19.6176 C   0  0  0  0  0  0
  -29.8661  -16.4893   20.8497 C   0  0  0  0  0  0
  -30.3761  -20.2815   21.2933 N   0  0  0  0  0  0
  -31.4720  -12.7704   19.1743 H   0  0  0  0  0  0
  -30.4451  -11.6580   20.0099 H   0  0  0  0  0  0
  -29.8418  -11.7620   17.5661 H   0  0  0  0  0  0
  -29.6212  -13.4887   17.6846 H   0  0  0  0  0  0
  -27.9130  -11.3004   18.9084 H   0  0  0  0  0  0
  -27.3968  -12.5462   17.7905 H   0  0  0  0  0  0
  -27.5833  -14.2474   19.4052 H   0  0  0  0  0  0
  -28.7801  -12.2184   21.3454 H   0  0  0  0  0  0
  -28.3812  -13.8126   21.8342 H   0  0  0  0  0  0
  -25.2829   -9.5714   22.4721 H   0  0  0  0  0  0
  -24.0034   -7.4680   22.7506 H   0  0  0  0  0  0
  -21.0904   -8.8834   19.8945 H   0  0  0  0  0  0
  -22.3814  -10.9653   19.6129 H   0  0  0  0  0  0
  -21.1937   -7.6143   23.9705 H   0  0  0  0  0  0
  -21.1488   -6.0530   25.9073 H   0  0  0  0  0  0
  -22.0568   -2.7632   23.2841 H   0  0  0  0  0  0
  -22.4035  -11.9793   22.4833 H   0  0  0  0  0  0
  -21.1118  -13.1228   22.2718 H   0  0  0  0  0  0
  -24.6380  -15.8460   20.5473 H   0  0  0  0  0  0
  -26.2722  -15.6323   20.1694 H   0  0  0  0  0  0
  -26.7257  -32.5315   23.1025 H   0  0  0  0  0  0
  -25.0052  -33.9637   25.0332 H   0  0  0  0  0  0
  -22.7383  -31.2881   21.3854 H   0  0  0  0  0  0
  -23.3780  -35.9537   23.3301 H   0  0  0  0  0  0
  -24.3551  -36.8911   22.2064 H   0  0  0  0  0  0
  -23.7191  -37.6414   23.6696 H   0  0  0  0  0  0
  -26.1462  -31.4814   20.6071 H   0  0  0  0  0  0
  -26.8746  -30.7831   22.0202 H   0  0  0  0  0  0
  -28.1545  -28.8480   21.1814 H   0  0  0  0  0  0
  -25.9318  -25.8055   19.0969 H   0  0  0  0  0  0
  -23.9669  -27.2563   19.0589 H   0  0  0  0  0  0
  -23.7995  -30.5590   19.4023 H   0  0  0  0  0  0
  -22.7793  -29.2292   19.8570 H   0  0  0  0  0  0
  -25.1285  -36.1881   25.0808 H   0  0  0  0  0  0
  -21.0001  -28.3273   24.1392 H   0  0  0  0  0  0
  -20.5691  -26.2272   23.3649 H   0  0  0  0  0  0
  -21.6625  -26.7365   22.1199 H   0  0  0  0  0  0
  -19.6881  -25.6273   21.1243 H   0  0  0  0  0  0
  -19.6665  -27.3212   20.6833 H   0  0  0  0  0  0
  -17.4179  -26.6696   21.4041 H   0  0  0  0  0  0
  -18.0251  -26.0014   22.9019 H   0  0  0  0  0  0
  -19.7953  -30.7306   24.2160 H   0  0  0  0  0  0
  -17.5021  -31.6244   24.5171 H   0  0  0  0  0  0
  -15.5363  -30.2943   23.7699 H   0  0  0  0  0  0
  -15.8678  -28.0820   22.7055 H   0  0  0  0  0  0
  -24.5908  -30.7054   25.7828 H   0  0  0  0  0  0
  -24.8878  -32.2921   26.4799 H   0  0  0  0  0  0
  -25.8035  -30.9012   27.0274 H   0  0  0  0  0  0
  -26.3035  -29.6664   24.1269 H   0  0  0  0  0  0
  -27.3992  -29.7258   25.4882 H   0  0  0  0  0  0
  -27.8941  -30.4219   23.9637 H   0  0  0  0  0  0
  -27.2608  -33.3691   26.1966 H   0  0  0  0  0  0
  -28.3879  -32.6851   25.0360 H   0  0  0  0  0  0
  -28.0621  -31.8544   26.5509 H   0  0  0  0  0  0
  -28.2570  -38.0082   24.7562 H   0  0  0  0  0  0
  -28.1071  -36.2615   24.6243 H   0  0  0  0  0  0
  -27.2275  -37.1362   25.8867 H   0  0  0  0  0  0
  -20.9464  -29.8739   21.6851 H   0  0  0  0  0  0
  -26.0143  -38.2819   24.1506 H   0  0  0  0  0  0
  -28.4290  -20.2652   18.7712 H   0  0  0  0  0  0
  -30.3477  -22.3298   21.9714 H   0  0  0  0  0  0
  -30.2790  -18.3350   17.8185 H   0  0  0  0  0  0
  -28.7240  -17.7069   18.3451 H   0  0  0  0  0  0
  -30.1057  -16.6295   18.1802 H   0  0  0  0  0  0
  -27.3759  -22.3049   18.1107 H   0  0  0  0  0  0
  -26.9473  -23.9879   18.2939 H   0  0  0  0  0  0
  -26.4556  -22.8281   19.5166 H   0  0  0  0  0  0
  -29.7664  -23.0757   17.8091 H   0  0  0  0  0  0
  -30.5986  -23.9795   19.0725 H   0  0  0  0  0  0
  -29.3496  -24.7531   18.1061 H   0  0  0  0  0  0
  -27.9572  -17.4702   21.1937 H   0  0  0  0  0  0
  -27.9391  -15.8239   21.7038 H   0  0  0  0  0  0
  -27.8939  -16.2458   19.9737 H   0  0  0  0  0  0
  -29.8707  -17.5648   22.7569 H   0  0  0  0  0  0
  -31.4448  -16.8960   22.3061 H   0  0  0  0  0  0
  -30.1680  -15.8563   22.9272 H   0  0  0  0  0  0
  -32.0420  -20.6892   22.4988 H   0  0  0  0  0  0
  -32.0473  -19.0963   21.7505 H   0  0  0  0  0  0
  -30.9630  -19.4456   23.1250 H   0  0  0  0  0  0
  -28.9562  -24.6603   21.3847 H   0  0  0  0  0  0
  -27.2823  -24.5821   21.0417 H   0  0  0  0  0  0
  -31.2737  -17.9240   19.9391 H   0  0  0  0  0  0
  1 25  1  0  0  0
  1 30  2  0  0  0
  1 84  1  0  0  0
  2  3  1  0  0  0
  2 25  1  0  0  0
  2 86  1  0  0  0
  2 87  1  0  0  0
  3  4  1  0  0  0
  3 88  1  0  0  0
  3 89  1  0  0  0
  4  5  1  0  0  0
  4 90  1  0  0  0
  4 91  1  0  0  0
  5  6  1  0  0  0
  5 26  1  0  0  0
  5 92  1  0  0  0
  6 25  1  0  0  0
  6 93  1  0  0  0
  6 94  1  0  0  0
  7  8  2  0  0  0
  7 26  1  0  0  0
  7 29  1  0  0  0
  8  9  1  0  0  0
  8 22  1  0  0  0
  9 10  1  0  0  0
  9 27  2  0  0  0
 10 11  2  0  0  0
 10 15  1  0  0  0
 11 12  1  0  0  0
 11 95  1  0  0  0
 12 13  2  0  0  0
 12 96  1  0  0  0
 13 14  1  0  0  0
 13 31  1  0  0  0
 14 15  2  0  0  0
 14 97  1  0  0  0
 15 98  1  0  0  0
 16 17  2  0  0  0
 16 21  1  0  0  0
 16 31  1  0  0  0
 17 18  1  0  0  0
 17 99  1  0  0  0
 18 19  2  0  0  0
 18100  1  0  0  0
 19 20  1  0  0  0
 19 24  1  0  0  0
 20 21  2  0  0  0
 20101  1  0  0  0
 21 23  1  0  0  0
 22 28  1  0  0  0
 22 32  2  0  0  0
 26 27  1  0  0  0
 28102  1  0  0  0
 28103  1  0  0  0
 29104  1  0  0  0
 29105  1  0  0  0
 33 34  1  0  0  0
 33 66  1  0  0  0
 33 70  2  0  0  0
 34 36  1  0  0  0
 34 59  1  0  0  0
 34106  1  0  0  0
 35 44  2  0  0  0
 35 45  1  0  0  0
 35 68  1  0  0  0
 36 56  1  0  0  0
 36107  1  0  0  0
 37 39  1  0  0  0
 37 47  1  0  0  0
 37 66  1  0  0  0
 37108  1  0  0  0
 38 43  2  0  0  0
 38 46  1  0  0  0
 38 47  1  0  0  0
 39 64  1  0  0  0
 39 67  2  0  0  0
 40 52  1  0  0  0
 40 53  2  0  0  0
 40 58  1  0  0  0
 41109  1  0  0  0
 41110  1  0  0  0
 41111  1  0  0  0
 41 48  1  0  0  0
 42 43  1  0  0  0
 42 66  1  0  0  0
 42112  1  0  0  0
 42113  1  0  0  0
 43 44  1  0  0  0
 44114  1  0  0  0
 45 46  2  0  0  0
 45115  1  0  0  0
 46116  1  0  0  0
 47117  1  0  0  0
 47118  1  0  0  0
 48 56  1  0  0  0
 48 65  1  0  0  0
 48119  1  0  0  0
 49 50  1  0  0  0
 49 53  1  0  0  0
 49 64  1  0  0  0
 49120  1  0  0  0
 50 51  1  0  0  0
 50121  1  0  0  0
 50122  1  0  0  0
 51 52  1  0  0  0
 51123  1  0  0  0
 51124  1  0  0  0
 52125  1  0  0  0
 52126  1  0  0  0
 53 54  1  0  0  0
 54 55  2  0  0  0
 54127  1  0  0  0
 55 57  1  0  0  0
 55128  1  0  0  0
 56 69  2  0  0  0
 57 58  2  0  0  0
 57129  1  0  0  0
 58130  1  0  0  0
 59 60  1  0  0  0
 59 61  1  0  0  0
 59 62  1  0  0  0
 60131  1  0  0  0
 60132  1  0  0  0
 60133  1  0  0  0
 61134  1  0  0  0
 61135  1  0  0  0
 61136  1  0  0  0
 62137  1  0  0  0
 62138  1  0  0  0
 62139  1  0  0  0
 63 65  1  0  0  0
 63140  1  0  0  0
 63141  1  0  0  0
 63142  1  0  0  0
 64143  1  0  0  0
 65144  1  0  0  0
 68 81  1  0  0  0
 71 73  1  0  0  0
 71 74  2  0  0  0
 71145  1  0  0  0
 72 73  2  0  0  0
 72 85  1  0  0  0
 72146  1  0  0  0
 73 83  1  0  0  0
 74 82  1  0  0  0
 74 85  1  0  0  0
 75147  1  0  0  0
 75148  1  0  0  0
 75149  1  0  0  0
 75 82  1  0  0  0
 76150  1  0  0  0
 76151  1  0  0  0
 76152  1  0  0  0
 76 83  1  0  0  0
 77 83  1  0  0  0
 77153  1  0  0  0
 77154  1  0  0  0
 77155  1  0  0  0
 78156  1  0  0  0
 78157  1  0  0  0
 78158  1  0  0  0
 78 84  1  0  0  0
 79 84  1  0  0  0
 79159  1  0  0  0
 79160  1  0  0  0
 79161  1  0  0  0
 80 85  1  0  0  0
 80162  1  0  0  0
 80163  1  0  0  0
 80164  1  0  0  0
 81 83  1  0  0  0
 81165  1  0  0  0
 81166  1  0  0  0
 82 84  1  0  0  0
 82167  1  0  0  0
M  ISO  4   1 100  68 101  81 101  84 100
M  END
> <chiral flag>
0

> <version>
0

> <s_m_source_file>
/data/baiqing/PycharmProjects/Reinvent-master-3.2/result/LINK_invent/BTK/process_docking_weight1_custom_sum_contain_oxygen_bond_distance_aromatic_linkinvent_7_9_3/rearranged_h_0071.sdf

> <i_m_source_file_index>
91

> <r_mmod_Potential_Energy-OPLS-2005>
602.904052734375

> <r_mmod_Stretch_Energy-OPLS-2005>
291.782592773438

> <r_mmod_Bend_Energy-OPLS-2005>
304.304351806641

> <r_mmod_Torsional_Energy-OPLS-2005>
227.170181274414

> <r_mmod_Improper_Torsional_Energy-OPLS-2005>
3.91456174850464

> <r_mmod_Van_der_Waal_Energy-OPLS-2005>
111.222351074219

> <r_mmod_Electrostatic_Energy-OPLS-2005>
-336.464569091797

> <r_mmod_Solvation_Energy-OPLS-2005>
-180.288436889648

> <b_mmod_Minimization_Converged-OPLS-2005>
0

> <r_mmod_RMS_Derivative-OPLS-2005>
4.24718141555786

$$$$
94
                    3D
 Structure written by MMmdl.
168176  0  0  1  0            999 V2000
  -30.6918  -14.6560   20.4377 C   0  0  0  0  0  0
  -30.4391  -12.3844   19.4816 C   0  0  0  0  0  0
  -29.5222  -12.3993   18.2393 C   0  0  0  0  0  0
  -28.0353  -12.2601   18.6374 C   0  0  0  0  0  0
  -27.6328  -13.1751   19.8193 C   0  0  2  0  0  0
  -28.6824  -13.1603   20.9497 C   0  0  0  0  0  0
  -25.2583  -13.8013   20.5763 C   0  0  0  0  0  0
  -24.1805  -13.0366   20.9263 C   0  0  0  0  0  0
  -24.6308  -11.6799   20.8798 C   0  0  0  0  0  0
  -23.8954  -10.4212   21.0443 C   0  0  0  0  0  0
  -24.3534   -9.4133   21.9215 C   0  0  0  0  0  0
  -23.6226   -8.2163   22.0750 C   0  0  0  0  0  0
  -22.4219   -8.0213   21.3529 C   0  0  0  0  0  0
  -21.9853   -9.0189   20.4635 C   0  0  0  0  0  0
  -22.7149  -10.2068   20.3060 C   0  0  0  0  0  0
  -21.6797   -6.0670   22.5292 C   0  0  0  0  0  0
  -21.3969   -6.5585   23.8229 C   0  0  0  0  0  0
  -21.3693   -5.6745   24.9211 C   0  0  0  0  0  0
  -21.6055   -4.3015   24.7254 C   0  0  0  0  0  0
  -21.8800   -3.8106   23.4382 C   0  0  0  0  0  0
  -21.9156   -4.6902   22.3432 C   0  0  0  0  0  0
  -22.7841  -13.5220   21.1908 C   0  0  0  0  0  0
  -22.1634   -4.2088   21.1008 F   0  0  0  0  0  0
  -21.5674   -3.4511   25.7793 F   0  0  0  0  0  0
  -29.9987  -13.4721   20.3810 N   0  0  0  0  0  0
  -26.2907  -12.9092   20.3196 N   0  0  0  0  0  0
  -25.9222  -11.6311   20.5773 N   0  0  0  0  0  0
  -22.0391  -12.8291   22.0445 N   0  0  0  0  0  0
  -25.4397  -15.1737   20.4281 N   0  0  0  0  0  0
  -31.9102  -14.6310   20.2489 O   0  0  0  0  0  0
  -21.6563   -6.8826   21.4257 O   0  0  0  0  0  0
  -22.3577  -14.5526   20.6686 O   0  0  0  0  0  0
  -24.6169  -31.8695   23.2119 C   0  0  0  0  0  0
  -25.9076  -32.4819   23.8372 C   0  0  1  0  0  0
  -27.2165  -27.3930   20.1009 C   0  0  0  0  0  0
  -25.5957  -33.8615   24.2335 N   0  0  0  0  0  0
  -23.4072  -30.4952   21.5550 C   0  0  2  0  0  0
  -24.8523  -28.9741   20.1119 C   0  0  0  0  0  0
  -22.7438  -29.4674   22.5007 C   0  0  0  0  0  0
  -18.0295  -28.1365   22.8507 C   0  0  0  0  0  0
  -24.1502  -36.7302   23.2637 C   0  0  0  0  0  0
  -25.9412  -30.8245   21.3737 C   0  0  0  0  0  0
  -26.0186  -29.4586   20.7168 C   0  0  0  0  0  0
  -27.2033  -28.6752   20.7152 C   0  0  0  0  0  0
  -26.0310  -26.9661   19.4486 C   0  0  0  0  0  0
  -24.8571  -27.7311   19.4712 C   0  0  0  0  0  0
  -23.6183  -29.8423   20.1664 C   0  0  0  0  0  0
  -25.4128  -36.3118   24.0338 C   0  0  1  0  0  0
  -20.5883  -28.3688   23.1333 C   0  0  2  0  0  0
  -20.6794  -26.9449   22.5397 C   0  0  0  0  0  0
  -19.5753  -26.6463   21.5197 C   0  0  0  0  0  0
  -18.1967  -26.7886   22.1683 C   0  0  0  0  0  0
  -19.1536  -28.8854   23.2904 C   0  0  0  0  0  0
  -18.9452  -30.1463   23.8888 C   0  0  0  0  0  0
  -17.6439  -30.6589   24.0542 C   0  0  0  0  0  0
  -25.9051  -34.9467   23.5118 C   0  0  0  0  0  0
  -16.5346  -29.9059   23.6347 C   0  0  0  0  0  0
  -16.7265  -28.6455   23.0400 C   0  0  0  0  0  0
  -26.4510  -31.6552   25.0657 C   0  0  0  0  0  0
  -25.3772  -31.3665   26.1404 C   0  0  0  0  0  0
  -27.0341  -30.2987   24.5999 C   0  0  0  0  0  0
  -27.6077  -32.4277   25.7435 C   0  0  0  0  0  0
  -27.5586  -37.1815   24.8460 C   0  0  0  0  0  0
  -21.4156  -29.3075   22.3770 N   0  0  0  0  0  0
  -26.4299  -37.3818   23.9406 N   0  0  0  0  0  0
  -24.6728  -31.0755   22.1062 N   0  0  0  0  0  0
  -23.4192  -28.8184   23.3037 O   0  0  0  0  0  0
  -28.3323  -26.5603   20.1765 O   0  0  0  0  0  0
  -26.5583  -34.8919   22.4661 O   0  0  0  0  0  0
  -23.5343  -32.1463   23.7494 O   0  0  0  0  0  0
  -29.7042  -20.5481   19.7061 C   0  0  0  0  0  0
  -30.0590  -19.2071   19.9724 C   0  0  0  0  0  0
  -29.1149  -21.3383   20.7197 C   0  0  0  0  0  0
  -29.7445  -18.6349   21.2292 C   0  0  0  0  0  0
  -29.0515  -20.7609   22.0100 C   0  0  0  0  0  0
  -27.2219  -21.2511   23.7352 C   0  0  0  0  0  0
  -28.9840  -16.2480   19.2186 C   0  0  0  0  0  0
  -28.5625  -16.7100   22.3400 C   0  0  0  0  0  0
  -31.0440  -16.9499   22.5533 C   0  0  0  0  0  0
  -28.3767  -22.6445   20.3489 C   0  0  0  0  0  0
  -28.6352  -21.5665   23.2367 C   0  0  0  0  0  0
  -29.0130  -24.0552   20.5754 C   0  0  0  0  0  0
  -28.0268  -25.1408   20.0543 C   0  0  0  0  0  0
  -30.0564  -16.1189   20.3262 C   0  0  1  0  0  0
  -29.8586  -17.1014   21.5822 C   0  0  0  0  0  0
  -29.3497  -19.4571   22.2404 N   0  0  0  0  0  0
  -31.4788  -12.4878   19.1669 H   0  0  0  0  0  0
  -30.3913  -11.4300   20.0076 H   0  0  0  0  0  0
  -29.8005  -11.5811   17.5727 H   0  0  0  0  0  0
  -29.6821  -13.3128   17.6680 H   0  0  0  0  0  0
  -27.8580  -11.2139   18.8971 H   0  0  0  0  0  0
  -27.3949  -12.4609   17.7782 H   0  0  0  0  0  0
  -27.5818  -14.1483   19.3627 H   0  0  0  0  0  0
  -28.7103  -12.1769   21.4239 H   0  0  0  0  0  0
  -28.4107  -13.8578   21.7354 H   0  0  0  0  0  0
  -25.2662   -9.5585   22.4814 H   0  0  0  0  0  0
  -23.9899   -7.4514   22.7460 H   0  0  0  0  0  0
  -21.0776   -8.8667   19.8957 H   0  0  0  0  0  0
  -22.3593  -10.9593   19.6163 H   0  0  0  0  0  0
  -21.1918   -7.6081   23.9734 H   0  0  0  0  0  0
  -21.1574   -6.0475   25.9105 H   0  0  0  0  0  0
  -22.0555   -2.7559   23.2897 H   0  0  0  0  0  0
  -22.3915  -11.9948   22.4897 H   0  0  0  0  0  0
  -21.1017  -13.1385   22.2583 H   0  0  0  0  0  0
  -24.6875  -15.8400   20.5630 H   0  0  0  0  0  0
  -26.3154  -15.6064   20.1675 H   0  0  0  0  0  0
  -26.7118  -32.5555   23.1106 H   0  0  0  0  0  0
  -25.0171  -33.9777   25.0524 H   0  0  0  0  0  0
  -22.6981  -31.3142   21.4177 H   0  0  0  0  0  0
  -23.3771  -35.9627   23.3305 H   0  0  0  0  0  0
  -24.3582  -36.8901   22.2042 H   0  0  0  0  0  0
  -23.7226  -37.6508   23.6623 H   0  0  0  0  0  0
  -26.0474  -31.5932   20.6087 H   0  0  0  0  0  0
  -26.8315  -30.8826   21.9869 H   0  0  0  0  0  0
  -28.0944  -29.0352   21.2123 H   0  0  0  0  0  0
  -25.9706  -26.0284   18.9209 H   0  0  0  0  0  0
  -23.9648  -27.3598   18.9863 H   0  0  0  0  0  0
  -23.7350  -30.6242   19.4141 H   0  0  0  0  0  0
  -22.7427  -29.2687   19.8586 H   0  0  0  0  0  0
  -25.1304  -36.1988   25.0831 H   0  0  0  0  0  0
  -20.9955  -28.3237   24.1455 H   0  0  0  0  0  0
  -20.5725  -26.2335   23.3603 H   0  0  0  0  0  0
  -21.6682  -26.7512   22.1141 H   0  0  0  0  0  0
  -19.6935  -25.6407   21.1153 H   0  0  0  0  0  0
  -19.6638  -27.3308   20.6744 H   0  0  0  0  0  0
  -17.4154  -26.6472   21.4175 H   0  0  0  0  0  0
  -18.0606  -26.0068   22.9147 H   0  0  0  0  0  0
  -19.7932  -30.7292   24.2206 H   0  0  0  0  0  0
  -17.4950  -31.6289   24.5087 H   0  0  0  0  0  0
  -15.5333  -30.2938   23.7668 H   0  0  0  0  0  0
  -15.8675  -28.0704   22.7213 H   0  0  0  0  0  0
  -24.5957  -30.6975   25.7761 H   0  0  0  0  0  0
  -24.8933  -32.2829   26.4812 H   0  0  0  0  0  0
  -25.8155  -30.8878   27.0167 H   0  0  0  0  0  0
  -26.2866  -29.6723   24.1090 H   0  0  0  0  0  0
  -27.4185  -29.7233   25.4438 H   0  0  0  0  0  0
  -27.8682  -30.4321   23.9091 H   0  0  0  0  0  0
  -27.2680  -33.3581   26.2014 H   0  0  0  0  0  0
  -28.3908  -32.6828   25.0267 H   0  0  0  0  0  0
  -28.0701  -31.8356   26.5355 H   0  0  0  0  0  0
  -28.2636  -38.0094   24.7529 H   0  0  0  0  0  0
  -28.1059  -36.2618   24.6290 H   0  0  0  0  0  0
  -27.2275  -37.1487   25.8860 H   0  0  0  0  0  0
  -20.9299  -29.8886   21.7087 H   0  0  0  0  0  0
  -26.0188  -38.2893   24.1438 H   0  0  0  0  0  0
  -29.8225  -20.9417   18.7063 H   0  0  0  0  0  0
  -30.5060  -18.6331   19.1744 H   0  0  0  0  0  0
  -27.1385  -20.2168   24.0721 H   0  0  0  0  0  0
  -26.4847  -21.4154   22.9486 H   0  0  0  0  0  0
  -26.9621  -21.8915   24.5783 H   0  0  0  0  0  0
  -27.9856  -16.1303   19.6216 H   0  0  0  0  0  0
  -29.1481  -15.5366   18.4064 H   0  0  0  0  0  0
  -28.9652  -17.2258   18.7459 H   0  0  0  0  0  0
  -28.4047  -17.3383   23.2175 H   0  0  0  0  0  0
  -28.5843  -15.6959   22.7225 H   0  0  0  0  0  0
  -27.6721  -16.8270   21.7226 H   0  0  0  0  0  0
  -30.9029  -17.5557   23.4489 H   0  0  0  0  0  0
  -31.9694  -17.2721   22.0779 H   0  0  0  0  0  0
  -31.1723  -15.9186   22.8835 H   0  0  0  0  0  0
  -27.4077  -22.6074   20.8514 H   0  0  0  0  0  0
  -28.1147  -22.5679   19.2919 H   0  0  0  0  0  0
  -28.6967  -22.6311   23.0226 H   0  0  0  0  0  0
  -29.3569  -21.3988   24.0396 H   0  0  0  0  0  0
  -29.9609  -24.1284   20.0489 H   0  0  0  0  0  0
  -29.2134  -24.2382   21.6306 H   0  0  0  0  0  0
  -27.0955  -24.9456   20.5918 H   0  0  0  0  0  0
  -27.8348  -24.9279   19.0001 H   0  0  0  0  0  0
  -30.9017  -16.6026   19.8350 H   0  0  0  0  0  0
  1 25  1  0  0  0
  1 30  2  0  0  0
  1 84  1  0  0  0
  2  3  1  0  0  0
  2 25  1  0  0  0
  2 87  1  0  0  0
  2 88  1  0  0  0
  3  4  1  0  0  0
  3 89  1  0  0  0
  3 90  1  0  0  0
  4  5  1  0  0  0
  4 91  1  0  0  0
  4 92  1  0  0  0
  5  6  1  0  0  0
  5 26  1  0  0  0
  5 93  1  0  0  0
  6 25  1  0  0  0
  6 94  1  0  0  0
  6 95  1  0  0  0
  7  8  2  0  0  0
  7 26  1  0  0  0
  7 29  1  0  0  0
  8  9  1  0  0  0
  8 22  1  0  0  0
  9 10  1  0  0  0
  9 27  2  0  0  0
 10 11  2  0  0  0
 10 15  1  0  0  0
 11 12  1  0  0  0
 11 96  1  0  0  0
 12 13  2  0  0  0
 12 97  1  0  0  0
 13 14  1  0  0  0
 13 31  1  0  0  0
 14 15  2  0  0  0
 14 98  1  0  0  0
 15 99  1  0  0  0
 16 17  2  0  0  0
 16 21  1  0  0  0
 16 31  1  0  0  0
 17 18  1  0  0  0
 17100  1  0  0  0
 18 19  2  0  0  0
 18101  1  0  0  0
 19 20  1  0  0  0
 19 24  1  0  0  0
 20 21  2  0  0  0
 20102  1  0  0  0
 21 23  1  0  0  0
 22 28  1  0  0  0
 22 32  2  0  0  0
 26 27  1  0  0  0
 28103  1  0  0  0
 28104  1  0  0  0
 29105  1  0  0  0
 29106  1  0  0  0
 33 34  1  0  0  0
 33 66  1  0  0  0
 33 70  2  0  0  0
 34 36  1  0  0  0
 34 59  1  0  0  0
 34107  1  0  0  0
 35 44  2  0  0  0
 35 45  1  0  0  0
 35 68  1  0  0  0
 36 56  1  0  0  0
 36108  1  0  0  0
 37 39  1  0  0  0
 37 47  1  0  0  0
 37 66  1  0  0  0
 37109  1  0  0  0
 38 43  2  0  0  0
 38 46  1  0  0  0
 38 47  1  0  0  0
 39 64  1  0  0  0
 39 67  2  0  0  0
 40 52  1  0  0  0
 40 53  2  0  0  0
 40 58  1  0  0  0
 41110  1  0  0  0
 41111  1  0  0  0
 41112  1  0  0  0
 41 48  1  0  0  0
 42 43  1  0  0  0
 42 66  1  0  0  0
 42113  1  0  0  0
 42114  1  0  0  0
 43 44  1  0  0  0
 44115  1  0  0  0
 45 46  2  0  0  0
 45116  1  0  0  0
 46117  1  0  0  0
 47118  1  0  0  0
 47119  1  0  0  0
 48 56  1  0  0  0
 48 65  1  0  0  0
 48120  1  0  0  0
 49 50  1  0  0  0
 49 53  1  0  0  0
 49 64  1  0  0  0
 49121  1  0  0  0
 50 51  1  0  0  0
 50122  1  0  0  0
 50123  1  0  0  0
 51 52  1  0  0  0
 51124  1  0  0  0
 51125  1  0  0  0
 52126  1  0  0  0
 52127  1  0  0  0
 53 54  1  0  0  0
 54 55  2  0  0  0
 54128  1  0  0  0
 55 57  1  0  0  0
 55129  1  0  0  0
 56 69  2  0  0  0
 57 58  2  0  0  0
 57130  1  0  0  0
 58131  1  0  0  0
 59 60  1  0  0  0
 59 61  1  0  0  0
 59 62  1  0  0  0
 60132  1  0  0  0
 60133  1  0  0  0
 60134  1  0  0  0
 61135  1  0  0  0
 61136  1  0  0  0
 61137  1  0  0  0
 62138  1  0  0  0
 62139  1  0  0  0
 62140  1  0  0  0
 63 65  1  0  0  0
 63141  1  0  0  0
 63142  1  0  0  0
 63143  1  0  0  0
 64144  1  0  0  0
 65145  1  0  0  0
 68 83  1  0  0  0
 71 72  2  0  0  0
 71 73  1  0  0  0
 71146  1  0  0  0
 72 74  1  0  0  0
 72147  1  0  0  0
 73 75  2  0  0  0
 73 80  1  0  0  0
 74 85  1  0  0  0
 74 86  2  0  0  0
 75 81  1  0  0  0
 75 86  1  0  0  0
 76 81  1  0  0  0
 76148  1  0  0  0
 76149  1  0  0  0
 76150  1  0  0  0
 77151  1  0  0  0
 77152  1  0  0  0
 77153  1  0  0  0
 77 84  1  0  0  0
 78154  1  0  0  0
 78155  1  0  0  0
 78156  1  0  0  0
 78 85  1  0  0  0
 79 85  1  0  0  0
 79157  1  0  0  0
 79158  1  0  0  0
 79159  1  0  0  0
 80 82  1  0  0  0
 80160  1  0  0  0
 80161  1  0  0  0
 81162  1  0  0  0
 81163  1  0  0  0
 82 83  1  0  0  0
 82164  1  0  0  0
 82165  1  0  0  0
 83166  1  0  0  0
 83167  1  0  0  0
 84 85  1  0  0  0
 84168  1  0  0  0
M  ISO  4   1 100  68 101  83 101  84 100
M  END
> <chiral flag>
0

> <version>
0

> <s_m_source_file>
/data/baiqing/PycharmProjects/Reinvent-master-3.2/result/LINK_invent/BTK/process_docking_weight1_custom_sum_contain_oxygen_bond_distance_aromatic_linkinvent_7_9_3/rearranged_h_0071.sdf

> <i_m_source_file_index>
92

> <r_mmod_Potential_Energy-OPLS-2005>
-23.6752223968506

> <r_mmod_Stretch_Energy-OPLS-2005>
66.3309097290039

> <r_mmod_Bend_Energy-OPLS-2005>
171.648330688477

> <r_mmod_Torsional_Energy-OPLS-2005>
201.88037109375

> <r_mmod_Improper_Torsional_Energy-OPLS-2005>
10.4853353500366

> <r_mmod_Van_der_Waal_Energy-OPLS-2005>
173.483169555664

> <r_mmod_Electrostatic_Energy-OPLS-2005>
-514.393859863281

> <r_mmod_Solvation_Energy-OPLS-2005>
-189.920639038086

> <b_mmod_Minimization_Converged-OPLS-2005>
0

> <r_mmod_RMS_Derivative-OPLS-2005>
5.31173849105835

$$$$
95
                    3D
 Structure written by MMmdl.
165173  0  0  1  0            999 V2000
  -30.7979  -14.4953   20.5179 C   0  0  0  0  0  0
  -30.3825  -12.3261   19.4446 C   0  0  0  0  0  0
  -29.4665  -12.4556   18.2171 C   0  0  0  0  0  0
  -27.9980  -12.3242   18.6489 C   0  0  0  0  0  0
  -27.6377  -13.2325   19.8541 C   0  0  2  0  0  0
  -28.6881  -13.1606   20.9829 C   0  0  0  0  0  0
  -25.2472  -13.8224   20.5743 C   0  0  0  0  0  0
  -24.1769  -13.0454   20.9259 C   0  0  0  0  0  0
  -24.6375  -11.6935   20.8798 C   0  0  0  0  0  0
  -23.9062  -10.4302   21.0425 C   0  0  0  0  0  0
  -24.3623   -9.4195   21.9200 C   0  0  0  0  0  0
  -23.6301   -8.2230   22.0759 C   0  0  0  0  0  0
  -22.4285   -8.0276   21.3539 C   0  0  0  0  0  0
  -21.9899   -9.0258   20.4647 C   0  0  0  0  0  0
  -22.7226  -10.2139   20.3071 C   0  0  0  0  0  0
  -21.6849   -6.0728   22.5276 C   0  0  0  0  0  0
  -21.4014   -6.5651   23.8214 C   0  0  0  0  0  0
  -21.3670   -5.6799   24.9179 C   0  0  0  0  0  0
  -21.6050   -4.3056   24.7233 C   0  0  0  0  0  0
  -21.8813   -3.8153   23.4353 C   0  0  0  0  0  0
  -21.9202   -4.6952   22.3405 C   0  0  0  0  0  0
  -22.7801  -13.5211   21.1905 C   0  0  0  0  0  0
  -22.1661   -4.2142   21.0984 F   0  0  0  0  0  0
  -21.5629   -3.4548   25.7740 F   0  0  0  0  0  0
  -30.0056  -13.3968   20.3845 N   0  0  0  0  0  0
  -26.2920  -12.9451   20.3388 N   0  0  0  0  0  0
  -25.9309  -11.6588   20.5885 N   0  0  0  0  0  0
  -22.0464  -12.8183   22.0468 N   0  0  0  0  0  0
  -25.4110  -15.1945   20.4120 N   0  0  0  0  0  0
  -31.9913  -14.4144   20.2537 O   0  0  0  0  0  0
  -21.6660   -6.8866   21.4230 O   0  0  0  0  0  0
  -22.3478  -14.5535   20.6769 O   0  0  0  0  0  0
  -24.6154  -31.8685   23.2156 C   0  0  0  0  0  0
  -25.9035  -32.4832   23.8445 C   0  0  1  0  0  0
  -27.2203  -27.4197   20.0978 C   0  0  0  0  0  0
  -25.5865  -33.8635   24.2346 N   0  0  0  0  0  0
  -23.4053  -30.4962   21.5556 C   0  0  2  0  0  0
  -24.8503  -28.9776   20.1068 C   0  0  0  0  0  0
  -22.7426  -29.4645   22.4983 C   0  0  0  0  0  0
  -18.0258  -28.1397   22.8508 C   0  0  0  0  0  0
  -24.1459  -36.7330   23.2642 C   0  0  0  0  0  0
  -25.9397  -30.8317   21.3751 C   0  0  0  0  0  0
  -26.0133  -29.4722   20.7078 C   0  0  0  0  0  0
  -27.2048  -28.7055   20.6933 C   0  0  0  0  0  0
  -26.0401  -26.9623   19.4630 C   0  0  0  0  0  0
  -24.8608  -27.7252   19.4746 C   0  0  0  0  0  0
  -23.6145  -29.8460   20.1643 C   0  0  0  0  0  0
  -25.4083  -36.3117   24.0333 C   0  0  1  0  0  0
  -20.5860  -28.3652   23.1340 C   0  0  2  0  0  0
  -20.6737  -26.9380   22.5444 C   0  0  0  0  0  0
  -19.5710  -26.6383   21.5246 C   0  0  0  0  0  0
  -18.1895  -26.7934   22.1662 C   0  0  0  0  0  0
  -19.1511  -28.8840   23.2920 C   0  0  0  0  0  0
  -18.9442  -30.1451   23.8926 C   0  0  0  0  0  0
  -17.6443  -30.6601   24.0576 C   0  0  0  0  0  0
  -25.9016  -34.9484   23.5133 C   0  0  0  0  0  0
  -16.5332  -29.9117   23.6325 C   0  0  0  0  0  0
  -16.7243  -28.6534   23.0342 C   0  0  0  0  0  0
  -26.4468  -31.6637   25.0786 C   0  0  0  0  0  0
  -25.3744  -31.3761   26.1554 C   0  0  0  0  0  0
  -27.0294  -30.3051   24.6222 C   0  0  0  0  0  0
  -27.6016  -32.4399   25.7536 C   0  0  0  0  0  0
  -27.5563  -37.1802   24.8457 C   0  0  0  0  0  0
  -21.4151  -29.3016   22.3742 N   0  0  0  0  0  0
  -26.4261  -37.3803   23.9416 N   0  0  0  0  0  0
  -24.6715  -31.0784   22.1065 N   0  0  0  0  0  0
  -23.4204  -28.8172   23.3013 O   0  0  0  0  0  0
  -28.3616  -26.6342   20.1692 O   0  0  0  0  0  0
  -26.5596  -34.8925   22.4712 O   0  0  0  0  0  0
  -23.5342  -32.1430   23.7544 O   0  0  0  0  0  0
  -30.5423  -19.4317   21.5934 C   0  0  0  0  0  0
  -28.6842  -19.7523   20.5371 C   0  0  0  0  0  0
  -30.1531  -18.2407   21.0107 C   0  0  0  0  0  0
  -32.8274  -19.6960   19.2234 C   0  0  0  0  0  0
  -33.5517  -17.0410   20.2757 C   0  0  0  0  0  0
  -32.0226  -18.4570   18.7910 C   0  0  0  0  0  0
  -28.8595  -22.8119   20.6653 C   0  0  0  0  0  0
  -29.2151  -24.3245   20.7570 C   0  0  0  0  0  0
  -29.8409  -21.8681   21.4066 C   0  0  0  0  0  0
  -28.1536  -25.2094   20.0627 C   0  0  0  0  0  0
  -31.0121  -16.9943   20.8370 C   0  0  2  0  0  0
  -32.1157  -17.2020   19.7079 C   0  0  2  0  0  0
  -28.9182  -18.4417   20.3879 N   0  0  0  0  0  0
  -29.6599  -20.4248   21.1767 N   0  0  0  0  0  0
  -30.2430  -15.7146   20.7215 N   0  0  0  0  0  0
  -31.4226  -12.3773   19.1189 H   0  0  0  0  0  0
  -30.2669  -11.3517   19.9245 H   0  0  0  0  0  0
  -29.7076  -11.6800   17.4887 H   0  0  0  0  0  0
  -29.6216  -13.4119   17.7161 H   0  0  0  0  0  0
  -27.8372  -11.2801   18.9179 H   0  0  0  0  0  0
  -27.3336  -12.5288   17.8106 H   0  0  0  0  0  0
  -27.6404  -14.2540   19.4750 H   0  0  0  0  0  0
  -28.6655  -12.1889   21.4791 H   0  0  0  0  0  0
  -28.4652  -13.9070   21.7476 H   0  0  0  0  0  0
  -25.2742   -9.5682   22.4800 H   0  0  0  0  0  0
  -23.9991   -7.4617   22.7493 H   0  0  0  0  0  0
  -21.0815   -8.8802   19.8959 H   0  0  0  0  0  0
  -22.3672  -10.9712   19.6223 H   0  0  0  0  0  0
  -21.2005   -7.6146   23.9706 H   0  0  0  0  0  0
  -21.1502   -6.0539   25.9087 H   0  0  0  0  0  0
  -22.0580   -2.7595   23.2874 H   0  0  0  0  0  0
  -22.4099  -11.9826   22.4803 H   0  0  0  0  0  0
  -21.1111  -13.1214   22.2776 H   0  0  0  0  0  0
  -24.6376  -15.8379   20.5391 H   0  0  0  0  0  0
  -26.2658  -15.6467   20.1087 H   0  0  0  0  0  0
  -26.7112  -32.5536   23.1215 H   0  0  0  0  0  0
  -24.9944  -33.9807   25.0434 H   0  0  0  0  0  0
  -22.6931  -31.3146   21.4259 H   0  0  0  0  0  0
  -23.3709  -35.9680   23.3327 H   0  0  0  0  0  0
  -24.3537  -36.8929   22.2050 H   0  0  0  0  0  0
  -23.7224  -37.6537   23.6665 H   0  0  0  0  0  0
  -26.0679  -31.6092   20.6213 H   0  0  0  0  0  0
  -26.8207  -30.8682   22.0053 H   0  0  0  0  0  0
  -28.1022  -29.0815   21.1618 H   0  0  0  0  0  0
  -26.0040  -26.0079   18.9563 H   0  0  0  0  0  0
  -23.9683  -27.3498   18.9930 H   0  0  0  0  0  0
  -23.7326  -30.6349   19.4202 H   0  0  0  0  0  0
  -22.7364  -29.2772   19.8525 H   0  0  0  0  0  0
  -25.1262  -36.1978   25.0824 H   0  0  0  0  0  0
  -20.9943  -28.3197   24.1464 H   0  0  0  0  0  0
  -20.5643  -26.2241   23.3623 H   0  0  0  0  0  0
  -21.6599  -26.7425   22.1222 H   0  0  0  0  0  0
  -19.6857  -25.6304   21.1246 H   0  0  0  0  0  0
  -19.6654  -27.3218   20.6803 H   0  0  0  0  0  0
  -17.4153  -26.6672   21.4077 H   0  0  0  0  0  0
  -18.0300  -26.0096   22.9080 H   0  0  0  0  0  0
  -19.7910  -30.7267   24.2306 H   0  0  0  0  0  0
  -17.4994  -31.6274   24.5191 H   0  0  0  0  0  0
  -15.5334  -30.3034   23.7640 H   0  0  0  0  0  0
  -15.8635  -28.0879   22.7038 H   0  0  0  0  0  0
  -24.5865  -30.7164   25.7912 H   0  0  0  0  0  0
  -24.9015  -32.2935   26.5068 H   0  0  0  0  0  0
  -25.8105  -30.8879   27.0276 H   0  0  0  0  0  0
  -26.2861  -29.6824   24.1227 H   0  0  0  0  0  0
  -27.3947  -29.7292   25.4733 H   0  0  0  0  0  0
  -27.8767  -30.4326   23.9475 H   0  0  0  0  0  0
  -27.2580  -33.3670   26.2149 H   0  0  0  0  0  0
  -28.3789  -32.7024   25.0346 H   0  0  0  0  0  0
  -28.0746  -31.8534   26.5420 H   0  0  0  0  0  0
  -28.2579  -38.0095   24.7493 H   0  0  0  0  0  0
  -28.1043  -36.2617   24.6287 H   0  0  0  0  0  0
  -27.2286  -37.1479   25.8860 H   0  0  0  0  0  0
  -20.9309  -29.8725   21.6955 H   0  0  0  0  0  0
  -26.0148  -38.2872   24.1454 H   0  0  0  0  0  0
  -31.4437  -19.6705   22.1394 H   0  0  0  0  0  0
  -27.8142  -20.2380   20.1152 H   0  0  0  0  0  0
  -32.4593  -20.5881   18.7150 H   0  0  0  0  0  0
  -33.8810  -19.5816   18.9706 H   0  0  0  0  0  0
  -32.7706  -19.8816   20.2932 H   0  0  0  0  0  0
  -34.2930  -17.0258   19.4780 H   0  0  0  0  0  0
  -33.6764  -16.1110   20.8285 H   0  0  0  0  0  0
  -33.8104  -17.8480   20.9651 H   0  0  0  0  0  0
  -32.3937  -18.1781   17.8043 H   0  0  0  0  0  0
  -30.9843  -18.7267   18.6099 H   0  0  0  0  0  0
  -28.8133  -22.5343   19.6109 H   0  0  0  0  0  0
  -27.8536  -22.6496   21.0570 H   0  0  0  0  0  0
  -30.1932  -24.5042   20.3077 H   0  0  0  0  0  0
  -29.3015  -24.6196   21.8053 H   0  0  0  0  0  0
  -29.8021  -22.0537   22.4808 H   0  0  0  0  0  0
  -30.8574  -22.1129   21.0924 H   0  0  0  0  0  0
  -27.2004  -24.9379   20.5202 H   0  0  0  0  0  0
  -28.0842  -24.9394   19.0075 H   0  0  0  0  0  0
  -31.5505  -16.8716   21.7801 H   0  0  0  0  0  0
  -31.9821  -16.4107   18.9745 H   0  0  0  0  0  0
  -29.2369  -15.7837   20.8058 H   0  0  0  0  0  0
  1 25  1  0  0  0
  1 30  2  0  0  0
  1 85  1  0  0  0
  2  3  1  0  0  0
  2 25  1  0  0  0
  2 86  1  0  0  0
  2 87  1  0  0  0
  3  4  1  0  0  0
  3 88  1  0  0  0
  3 89  1  0  0  0
  4  5  1  0  0  0
  4 90  1  0  0  0
  4 91  1  0  0  0
  5  6  1  0  0  0
  5 26  1  0  0  0
  5 92  1  0  0  0
  6 25  1  0  0  0
  6 93  1  0  0  0
  6 94  1  0  0  0
  7  8  2  0  0  0
  7 26  1  0  0  0
  7 29  1  0  0  0
  8  9  1  0  0  0
  8 22  1  0  0  0
  9 10  1  0  0  0
  9 27  2  0  0  0
 10 11  2  0  0  0
 10 15  1  0  0  0
 11 12  1  0  0  0
 11 95  1  0  0  0
 12 13  2  0  0  0
 12 96  1  0  0  0
 13 14  1  0  0  0
 13 31  1  0  0  0
 14 15  2  0  0  0
 14 97  1  0  0  0
 15 98  1  0  0  0
 16 17  2  0  0  0
 16 21  1  0  0  0
 16 31  1  0  0  0
 17 18  1  0  0  0
 17 99  1  0  0  0
 18 19  2  0  0  0
 18100  1  0  0  0
 19 20  1  0  0  0
 19 24  1  0  0  0
 20 21  2  0  0  0
 20101  1  0  0  0
 21 23  1  0  0  0
 22 28  1  0  0  0
 22 32  2  0  0  0
 26 27  1  0  0  0
 28102  1  0  0  0
 28103  1  0  0  0
 29104  1  0  0  0
 29105  1  0  0  0
 33 34  1  0  0  0
 33 66  1  0  0  0
 33 70  2  0  0  0
 34 36  1  0  0  0
 34 59  1  0  0  0
 34106  1  0  0  0
 35 44  2  0  0  0
 35 45  1  0  0  0
 35 68  1  0  0  0
 36 56  1  0  0  0
 36107  1  0  0  0
 37 39  1  0  0  0
 37 47  1  0  0  0
 37 66  1  0  0  0
 37108  1  0  0  0
 38 43  2  0  0  0
 38 46  1  0  0  0
 38 47  1  0  0  0
 39 64  1  0  0  0
 39 67  2  0  0  0
 40 52  1  0  0  0
 40 53  2  0  0  0
 40 58  1  0  0  0
 41109  1  0  0  0
 41110  1  0  0  0
 41111  1  0  0  0
 41 48  1  0  0  0
 42 43  1  0  0  0
 42 66  1  0  0  0
 42112  1  0  0  0
 42113  1  0  0  0
 43 44  1  0  0  0
 44114  1  0  0  0
 45 46  2  0  0  0
 45115  1  0  0  0
 46116  1  0  0  0
 47117  1  0  0  0
 47118  1  0  0  0
 48 56  1  0  0  0
 48 65  1  0  0  0
 48119  1  0  0  0
 49 50  1  0  0  0
 49 53  1  0  0  0
 49 64  1  0  0  0
 49120  1  0  0  0
 50 51  1  0  0  0
 50121  1  0  0  0
 50122  1  0  0  0
 51 52  1  0  0  0
 51123  1  0  0  0
 51124  1  0  0  0
 52125  1  0  0  0
 52126  1  0  0  0
 53 54  1  0  0  0
 54 55  2  0  0  0
 54127  1  0  0  0
 55 57  1  0  0  0
 55128  1  0  0  0
 56 69  2  0  0  0
 57 58  2  0  0  0
 57129  1  0  0  0
 58130  1  0  0  0
 59 60  1  0  0  0
 59 61  1  0  0  0
 59 62  1  0  0  0
 60131  1  0  0  0
 60132  1  0  0  0
 60133  1  0  0  0
 61134  1  0  0  0
 61135  1  0  0  0
 61136  1  0  0  0
 62137  1  0  0  0
 62138  1  0  0  0
 62139  1  0  0  0
 63 65  1  0  0  0
 63140  1  0  0  0
 63141  1  0  0  0
 63142  1  0  0  0
 64143  1  0  0  0
 65144  1  0  0  0
 68 80  1  0  0  0
 71 73  2  0  0  0
 71 84  1  0  0  0
 71145  1  0  0  0
 72 83  2  0  0  0
 72 84  1  0  0  0
 72146  1  0  0  0
 73 81  1  0  0  0
 73 83  1  0  0  0
 74 76  1  0  0  0
 74147  1  0  0  0
 74148  1  0  0  0
 74149  1  0  0  0
 75150  1  0  0  0
 75151  1  0  0  0
 75152  1  0  0  0
 75 82  1  0  0  0
 76 82  1  0  0  0
 76153  1  0  0  0
 76154  1  0  0  0
 77 78  1  0  0  0
 77 79  1  0  0  0
 77155  1  0  0  0
 77156  1  0  0  0
 78 80  1  0  0  0
 78157  1  0  0  0
 78158  1  0  0  0
 79 84  1  0  0  0
 79159  1  0  0  0
 79160  1  0  0  0
 80161  1  0  0  0
 80162  1  0  0  0
 81 82  1  0  0  0
 81 85  1  0  0  0
 81163  1  0  0  0
 82164  1  0  0  0
 85165  1  0  0  0
M  ISO  4   1 100  68 101  80 101  85 100
M  END
> <chiral flag>
0

> <version>
0

> <s_m_source_file>
/data/baiqing/PycharmProjects/Reinvent-master-3.2/result/LINK_invent/BTK/process_docking_weight1_custom_sum_contain_oxygen_bond_distance_aromatic_linkinvent_7_9_3/rearranged_h_0071.sdf

> <i_m_source_file_index>
93

> <r_mmod_Potential_Energy-OPLS-2005>
-29.6703300476074

> <r_mmod_Stretch_Energy-OPLS-2005>
46.5855865478516

> <r_mmod_Bend_Energy-OPLS-2005>
130.822372436523

> <r_mmod_Torsional_Energy-OPLS-2005>
244.916702270508

> <r_mmod_Improper_Torsional_Energy-OPLS-2005>
5.99656677246094

> <r_mmod_Van_der_Waal_Energy-OPLS-2005>
150.32551574707

> <r_mmod_Electrostatic_Energy-OPLS-2005>
-449.408782958984

> <r_mmod_Solvation_Energy-OPLS-2005>
-201.529235839844

> <b_mmod_Minimization_Converged-OPLS-2005>
0

> <r_mmod_RMS_Derivative-OPLS-2005>
4.58139657974243

$$$$
96
                    3D
 Structure written by MMmdl.
165173  0  0  1  0            999 V2000
  -30.6768  -14.7726   20.3531 C   0  0  0  0  0  0
  -30.4181  -12.4550   19.4815 C   0  0  0  0  0  0
  -29.5027  -12.4258   18.2410 C   0  0  0  0  0  0
  -28.0325  -12.2527   18.6674 C   0  0  0  0  0  0
  -27.6204  -13.2011   19.8206 C   0  0  2  0  0  0
  -28.6758  -13.2840   20.9433 C   0  0  0  0  0  0
  -25.2511  -13.8105   20.5757 C   0  0  0  0  0  0
  -24.1777  -13.0399   20.9272 C   0  0  0  0  0  0
  -24.6336  -11.6870   20.8821 C   0  0  0  0  0  0
  -23.9009  -10.4279   21.0458 C   0  0  0  0  0  0
  -24.3583   -9.4199   21.9219 C   0  0  0  0  0  0
  -23.6278   -8.2224   22.0761 C   0  0  0  0  0  0
  -22.4266   -8.0276   21.3537 C   0  0  0  0  0  0
  -21.9895   -9.0244   20.4641 C   0  0  0  0  0  0
  -22.7203  -10.2130   20.3076 C   0  0  0  0  0  0
  -21.6848   -6.0740   22.5282 C   0  0  0  0  0  0
  -21.4011   -6.5649   23.8214 C   0  0  0  0  0  0
  -21.3653   -5.6800   24.9176 C   0  0  0  0  0  0
  -21.6040   -4.3059   24.7220 C   0  0  0  0  0  0
  -21.8821   -3.8157   23.4340 C   0  0  0  0  0  0
  -21.9190   -4.6976   22.3402 C   0  0  0  0  0  0
  -22.7817  -13.5225   21.1916 C   0  0  0  0  0  0
  -22.1663   -4.2166   21.0980 F   0  0  0  0  0  0
  -21.5621   -3.4544   25.7730 F   0  0  0  0  0  0
  -29.9734  -13.5853   20.3298 N   0  0  0  0  0  0
  -26.2861  -12.9228   20.3278 N   0  0  0  0  0  0
  -25.9241  -11.6424   20.5818 N   0  0  0  0  0  0
  -22.0439  -12.8208   22.0457 N   0  0  0  0  0  0
  -25.4247  -15.1827   20.4181 N   0  0  0  0  0  0
  -31.9043  -14.6708   20.3286 O   0  0  0  0  0  0
  -21.6631   -6.8879   21.4241 O   0  0  0  0  0  0
  -22.3529  -14.5544   20.6777 O   0  0  0  0  0  0
  -24.6274  -31.8575   23.2023 C   0  0  0  0  0  0
  -25.9105  -32.4789   23.8360 C   0  0  1  0  0  0
  -27.2146  -27.2801   20.1308 C   0  0  0  0  0  0
  -25.5888  -33.8583   24.2279 N   0  0  0  0  0  0
  -23.4251  -30.4805   21.5453 C   0  0  2  0  0  0
  -24.8733  -28.9346   20.1089 C   0  0  0  0  0  0
  -22.7497  -29.4599   22.4928 C   0  0  0  0  0  0
  -18.0283  -28.1354   22.8448 C   0  0  0  0  0  0
  -24.1492  -36.7273   23.2653 C   0  0  0  0  0  0
  -25.9717  -30.7751   21.3835 C   0  0  0  0  0  0
  -26.0442  -29.4028   20.7195 C   0  0  0  0  0  0
  -27.2204  -28.5893   20.7134 C   0  0  0  0  0  0
  -26.0220  -26.8788   19.4851 C   0  0  0  0  0  0
  -24.8662  -27.6817   19.4794 C   0  0  0  0  0  0
  -23.6444  -29.8199   20.1595 C   0  0  0  0  0  0
  -25.4125  -36.3088   24.0333 C   0  0  1  0  0  0
  -20.5877  -28.3669   23.1235 C   0  0  2  0  0  0
  -20.6771  -26.9387   22.5377 C   0  0  0  0  0  0
  -19.5755  -26.6339   21.5172 C   0  0  0  0  0  0
  -18.1933  -26.7893   22.1584 C   0  0  0  0  0  0
  -19.1537  -28.8822   23.2840 C   0  0  0  0  0  0
  -18.9482  -30.1417   23.8869 C   0  0  0  0  0  0
  -17.6489  -30.6568   24.0527 C   0  0  0  0  0  0
  -25.9037  -34.9457   23.5110 C   0  0  0  0  0  0
  -16.5369  -29.9058   23.6316 C   0  0  0  0  0  0
  -16.7274  -28.6466   23.0348 C   0  0  0  0  0  0
  -26.4486  -31.6617   25.0742 C   0  0  0  0  0  0
  -25.3688  -31.3753   26.1448 C   0  0  0  0  0  0
  -27.0387  -30.3054   24.6235 C   0  0  0  0  0  0
  -27.6044  -32.4391   25.7488 C   0  0  0  0  0  0
  -27.5594  -37.1799   24.8476 C   0  0  0  0  0  0
  -21.4207  -29.3034   22.3660 N   0  0  0  0  0  0
  -26.4306  -37.3774   23.9411 N   0  0  0  0  0  0
  -24.6933  -31.0551   22.0998 N   0  0  0  0  0  0
  -23.4201  -28.8146   23.3026 O   0  0  0  0  0  0
  -28.3060  -26.3877   20.2046 O   0  0  0  0  0  0
  -26.5632  -34.8911   22.4692 O   0  0  0  0  0  0
  -23.5422  -32.1407   23.7296 O   0  0  0  0  0  0
  -29.8090  -18.8216   21.0592 C   0  0  0  0  0  0
  -30.5978  -20.7150   21.5720 C   0  0  0  0  0  0
  -31.4841  -21.6925   22.2621 C   0  0  0  0  0  0
  -31.2892  -16.9935   19.2499 C   0  0  0  0  0  0
  -28.9980  -16.2167   18.9110 C   0  0  0  0  0  0
  -29.5671  -24.2433   22.0536 C   0  0  0  0  0  0
  -30.2996  -23.9900   19.6357 C   0  0  0  0  0  0
  -29.6161  -17.2603   21.1374 C   0  0  0  0  0  0
  -28.6239  -22.2677   20.6088 C   0  0  0  0  0  0
  -28.0217  -24.9142   20.1904 C   0  0  0  0  0  0
  -30.1165  -16.2667   19.9766 C   0  0  0  0  0  0
  -29.1356  -23.8247   20.6298 C   0  0  0  0  0  0
  -30.8850  -19.4093   21.6511 N   0  0  0  0  0  0
  -28.9375  -19.7378   20.5622 N   0  0  0  0  0  0
  -29.4550  -20.9991   20.8966 N   0  0  0  0  0  0
  -31.4592  -12.5456   19.1687 H   0  0  0  0  0  0
  -30.3528  -11.5170   20.0358 H   0  0  0  0  0  0
  -29.7945  -11.6059   17.5845 H   0  0  0  0  0  0
  -29.6282  -13.3344   17.6549 H   0  0  0  0  0  0
  -27.9112  -11.2166   18.9859 H   0  0  0  0  0  0
  -27.3690  -12.3827   17.8119 H   0  0  0  0  0  0
  -27.5459  -14.1640   19.3443 H   0  0  0  0  0  0
  -28.7282  -12.3492   21.5047 H   0  0  0  0  0  0
  -28.4094  -14.0636   21.6580 H   0  0  0  0  0  0
  -25.2722   -9.5694   22.4804 H   0  0  0  0  0  0
  -24.0000   -7.4616   22.7473 H   0  0  0  0  0  0
  -21.0839   -8.8753   19.8939 H   0  0  0  0  0  0
  -22.3669  -10.9676   19.6198 H   0  0  0  0  0  0
  -21.2013   -7.6162   23.9722 H   0  0  0  0  0  0
  -21.1466   -6.0531   25.9077 H   0  0  0  0  0  0
  -22.0605   -2.7625   23.2831 H   0  0  0  0  0  0
  -22.4030  -11.9836   22.4811 H   0  0  0  0  0  0
  -21.1061  -13.1246   22.2672 H   0  0  0  0  0  0
  -24.6617  -15.8390   20.5415 H   0  0  0  0  0  0
  -26.2760  -15.6215   20.0952 H   0  0  0  0  0  0
  -26.7170  -32.5435   23.1102 H   0  0  0  0  0  0
  -25.0006  -33.9731   25.0401 H   0  0  0  0  0  0
  -22.7191  -31.3017   21.4025 H   0  0  0  0  0  0
  -23.3761  -35.9598   23.3322 H   0  0  0  0  0  0
  -24.3556  -36.8869   22.2066 H   0  0  0  0  0  0
  -23.7219  -37.6460   23.6666 H   0  0  0  0  0  0
  -26.1169  -31.5450   20.6244 H   0  0  0  0  0  0
  -26.8447  -30.8140   22.0227 H   0  0  0  0  0  0
  -28.1181  -28.9433   21.2007 H   0  0  0  0  0  0
  -25.9487  -25.9223   18.9908 H   0  0  0  0  0  0
  -23.9697  -27.3191   18.9951 H   0  0  0  0  0  0
  -23.7734  -30.6033   19.4108 H   0  0  0  0  0  0
  -22.7633  -29.2561   19.8494 H   0  0  0  0  0  0
  -25.1305  -36.1954   25.0826 H   0  0  0  0  0  0
  -20.9962  -28.3238   24.1354 H   0  0  0  0  0  0
  -20.5637  -26.2297   23.3592 H   0  0  0  0  0  0
  -21.6644  -26.7379   22.1200 H   0  0  0  0  0  0
  -19.6926  -25.6238   21.1225 H   0  0  0  0  0  0
  -19.6694  -27.3123   20.6684 H   0  0  0  0  0  0
  -17.4204  -26.6602   21.4001 H   0  0  0  0  0  0
  -18.0354  -26.0048   22.8994 H   0  0  0  0  0  0
  -19.7976  -30.7209   24.2249 H   0  0  0  0  0  0
  -17.5057  -31.6261   24.5124 H   0  0  0  0  0  0
  -15.5370  -30.2968   23.7658 H   0  0  0  0  0  0
  -15.8668  -28.0784   22.7100 H   0  0  0  0  0  0
  -24.5863  -30.7119   25.7743 H   0  0  0  0  0  0
  -24.8876  -32.2929   26.4862 H   0  0  0  0  0  0
  -25.7970  -30.8924   27.0238 H   0  0  0  0  0  0
  -26.3011  -29.6760   24.1259 H   0  0  0  0  0  0
  -27.4100  -29.7360   25.4758 H   0  0  0  0  0  0
  -27.8849  -30.4359   23.9484 H   0  0  0  0  0  0
  -27.2668  -33.3723   26.2018 H   0  0  0  0  0  0
  -28.3854  -32.6911   25.0295 H   0  0  0  0  0  0
  -28.0723  -31.8559   26.5424 H   0  0  0  0  0  0
  -28.2617  -38.0111   24.7532 H   0  0  0  0  0  0
  -28.1089  -36.2618   24.6297 H   0  0  0  0  0  0
  -27.2290  -37.1427   25.8880 H   0  0  0  0  0  0
  -20.9404  -29.8777   21.6871 H   0  0  0  0  0  0
  -26.0189  -38.2835   24.1431 H   0  0  0  0  0  0
  -32.3277  -21.1764   22.7225 H   0  0  0  0  0  0
  -30.9421  -22.1800   23.0693 H   0  0  0  0  0  0
  -31.8959  -22.4169   21.5661 H   0  0  0  0  0  0
  -30.9981  -17.9552   18.8251 H   0  0  0  0  0  0
  -31.6855  -16.4040   18.4219 H   0  0  0  0  0  0
  -32.1152  -17.1943   19.9351 H   0  0  0  0  0  0
  -28.9738  -17.1252   18.3079 H   0  0  0  0  0  0
  -28.0109  -16.1653   19.3611 H   0  0  0  0  0  0
  -29.1187  -15.3928   18.2110 H   0  0  0  0  0  0
  -30.6363  -24.1486   22.2137 H   0  0  0  0  0  0
  -29.0385  -23.6739   22.8196 H   0  0  0  0  0  0
  -29.3608  -25.2946   22.2529 H   0  0  0  0  0  0
  -31.0660  -23.2282   19.7500 H   0  0  0  0  0  0
  -30.7754  -24.9677   19.7371 H   0  0  0  0  0  0
  -29.9413  -23.9142   18.6083 H   0  0  0  0  0  0
  -28.5625  -17.0727   21.3406 H   0  0  0  0  0  0
  -30.1113  -16.9381   22.0541 H   0  0  0  0  0  0
  -28.2018  -22.1111   19.6158 H   0  0  0  0  0  0
  -27.7615  -22.2036   21.2736 H   0  0  0  0  0  0
  -27.7066  -24.6511   19.1799 H   0  0  0  0  0  0
  -27.1487  -24.7499   20.8253 H   0  0  0  0  0  0
  1 25  1  0  0  0
  1 30  2  0  0  0
  1 81  1  0  0  0
  2  3  1  0  0  0
  2 25  1  0  0  0
  2 86  1  0  0  0
  2 87  1  0  0  0
  3  4  1  0  0  0
  3 88  1  0  0  0
  3 89  1  0  0  0
  4  5  1  0  0  0
  4 90  1  0  0  0
  4 91  1  0  0  0
  5  6  1  0  0  0
  5 26  1  0  0  0
  5 92  1  0  0  0
  6 25  1  0  0  0
  6 93  1  0  0  0
  6 94  1  0  0  0
  7  8  2  0  0  0
  7 26  1  0  0  0
  7 29  1  0  0  0
  8  9  1  0  0  0
  8 22  1  0  0  0
  9 10  1  0  0  0
  9 27  2  0  0  0
 10 11  2  0  0  0
 10 15  1  0  0  0
 11 12  1  0  0  0
 11 95  1  0  0  0
 12 13  2  0  0  0
 12 96  1  0  0  0
 13 14  1  0  0  0
 13 31  1  0  0  0
 14 15  2  0  0  0
 14 97  1  0  0  0
 15 98  1  0  0  0
 16 17  2  0  0  0
 16 21  1  0  0  0
 16 31  1  0  0  0
 17 18  1  0  0  0
 17 99  1  0  0  0
 18 19  2  0  0  0
 18100  1  0  0  0
 19 20  1  0  0  0
 19 24  1  0  0  0
 20 21  2  0  0  0
 20101  1  0  0  0
 21 23  1  0  0  0
 22 28  1  0  0  0
 22 32  2  0  0  0
 26 27  1  0  0  0
 28102  1  0  0  0
 28103  1  0  0  0
 29104  1  0  0  0
 29105  1  0  0  0
 33 34  1  0  0  0
 33 66  1  0  0  0
 33 70  2  0  0  0
 34 36  1  0  0  0
 34 59  1  0  0  0
 34106  1  0  0  0
 35 44  2  0  0  0
 35 45  1  0  0  0
 35 68  1  0  0  0
 36 56  1  0  0  0
 36107  1  0  0  0
 37 39  1  0  0  0
 37 47  1  0  0  0
 37 66  1  0  0  0
 37108  1  0  0  0
 38 43  2  0  0  0
 38 46  1  0  0  0
 38 47  1  0  0  0
 39 64  1  0  0  0
 39 67  2  0  0  0
 40 52  1  0  0  0
 40 53  2  0  0  0
 40 58  1  0  0  0
 41109  1  0  0  0
 41110  1  0  0  0
 41111  1  0  0  0
 41 48  1  0  0  0
 42 43  1  0  0  0
 42 66  1  0  0  0
 42112  1  0  0  0
 42113  1  0  0  0
 43 44  1  0  0  0
 44114  1  0  0  0
 45 46  2  0  0  0
 45115  1  0  0  0
 46116  1  0  0  0
 47117  1  0  0  0
 47118  1  0  0  0
 48 56  1  0  0  0
 48 65  1  0  0  0
 48119  1  0  0  0
 49 50  1  0  0  0
 49 53  1  0  0  0
 49 64  1  0  0  0
 49120  1  0  0  0
 50 51  1  0  0  0
 50121  1  0  0  0
 50122  1  0  0  0
 51 52  1  0  0  0
 51123  1  0  0  0
 51124  1  0  0  0
 52125  1  0  0  0
 52126  1  0  0  0
 53 54  1  0  0  0
 54 55  2  0  0  0
 54127  1  0  0  0
 55 57  1  0  0  0
 55128  1  0  0  0
 56 69  2  0  0  0
 57 58  2  0  0  0
 57129  1  0  0  0
 58130  1  0  0  0
 59 60  1  0  0  0
 59 61  1  0  0  0
 59 62  1  0  0  0
 60131  1  0  0  0
 60132  1  0  0  0
 60133  1  0  0  0
 61134  1  0  0  0
 61135  1  0  0  0
 61136  1  0  0  0
 62137  1  0  0  0
 62138  1  0  0  0
 62139  1  0  0  0
 63 65  1  0  0  0
 63140  1  0  0  0
 63141  1  0  0  0
 63142  1  0  0  0
 64143  1  0  0  0
 65144  1  0  0  0
 68 80  1  0  0  0
 71 78  1  0  0  0
 71 83  1  0  0  0
 71 84  2  0  0  0
 72 73  1  0  0  0
 72 83  2  0  0  0
 72 85  1  0  0  0
 73145  1  0  0  0
 73146  1  0  0  0
 73147  1  0  0  0
 74148  1  0  0  0
 74149  1  0  0  0
 74150  1  0  0  0
 74 81  1  0  0  0
 75 81  1  0  0  0
 75151  1  0  0  0
 75152  1  0  0  0
 75153  1  0  0  0
 76154  1  0  0  0
 76155  1  0  0  0
 76156  1  0  0  0
 76 82  1  0  0  0
 77 82  1  0  0  0
 77157  1  0  0  0
 77158  1  0  0  0
 77159  1  0  0  0
 78 81  1  0  0  0
 78160  1  0  0  0
 78161  1  0  0  0
 79 82  1  0  0  0
 79 85  1  0  0  0
 79162  1  0  0  0
 79163  1  0  0  0
 80 82  1  0  0  0
 80164  1  0  0  0
 80165  1  0  0  0
 84 85  1  0  0  0
M  ISO  4   1 100  68 101  80 101  81 100
M  END
> <chiral flag>
0

> <version>
0

> <s_m_source_file>
/data/baiqing/PycharmProjects/Reinvent-master-3.2/result/LINK_invent/BTK/process_docking_weight1_custom_sum_contain_oxygen_bond_distance_aromatic_linkinvent_7_9_3/rearranged_h_0071.sdf

> <i_m_source_file_index>
94

> <r_mmod_Potential_Energy-OPLS-2005>
296.840606689453

> <r_mmod_Stretch_Energy-OPLS-2005>
133.418334960938

> <r_mmod_Bend_Energy-OPLS-2005>
220.455963134766

> <r_mmod_Torsional_Energy-OPLS-2005>
235.080368041992

> <r_mmod_Improper_Torsional_Energy-OPLS-2005>
11.7700328826904

> <r_mmod_Van_der_Waal_Energy-OPLS-2005>
137.799743652344

> <r_mmod_Electrostatic_Energy-OPLS-2005>
-348.22705078125

> <r_mmod_Solvation_Energy-OPLS-2005>
-204.030120849609

> <b_mmod_Minimization_Converged-OPLS-2005>
0

> <r_mmod_RMS_Derivative-OPLS-2005>
2.46721458435059

$$$$
97
                    3D
 Structure written by MMmdl.
155163  0  0  1  0            999 V2000
  -30.4829  -15.1512   20.3997 C   0  0  0  0  0  0
  -30.4436  -12.7202   19.5229 C   0  0  0  0  0  0
  -29.5368  -12.5759   18.2741 C   0  0  0  0  0  0
  -28.0768  -12.3140   18.6860 C   0  0  0  0  0  0
  -27.6251  -13.2572   19.8282 C   0  0  2  0  0  0
  -28.6649  -13.3259   20.9660 C   0  0  0  0  0  0
  -25.2379  -13.8164   20.5601 C   0  0  0  0  0  0
  -24.1755  -13.0383   20.9199 C   0  0  0  0  0  0
  -24.6410  -11.6888   20.8743 C   0  0  0  0  0  0
  -23.9098  -10.4264   21.0412 C   0  0  0  0  0  0
  -24.3642   -9.4187   21.9195 C   0  0  0  0  0  0
  -23.6304   -8.2230   22.0757 C   0  0  0  0  0  0
  -22.4289   -8.0271   21.3540 C   0  0  0  0  0  0
  -21.9938   -9.0247   20.4640 C   0  0  0  0  0  0
  -22.7278  -10.2113   20.3050 C   0  0  0  0  0  0
  -21.6860   -6.0724   22.5278 C   0  0  0  0  0  0
  -21.4015   -6.5630   23.8210 C   0  0  0  0  0  0
  -21.3658   -5.6786   24.9176 C   0  0  0  0  0  0
  -21.6043   -4.3050   24.7230 C   0  0  0  0  0  0
  -21.8822   -3.8141   23.4353 C   0  0  0  0  0  0
  -21.9195   -4.6953   22.3406 C   0  0  0  0  0  0
  -22.7780  -13.5151   21.1871 C   0  0  0  0  0  0
  -22.1667   -4.2136   21.0985 F   0  0  0  0  0  0
  -21.5629   -3.4533   25.7746 F   0  0  0  0  0  0
  -29.9184  -13.8447   20.3821 N   0  0  0  0  0  0
  -26.2864  -12.9448   20.3170 N   0  0  0  0  0  0
  -25.9349  -11.6570   20.5720 N   0  0  0  0  0  0
  -22.0426  -12.8144   22.0424 N   0  0  0  0  0  0
  -25.3828  -15.1882   20.3870 N   0  0  0  0  0  0
  -31.6675  -15.1400   20.0340 O   0  0  0  0  0  0
  -21.6641   -6.8872   21.4242 O   0  0  0  0  0  0
  -22.3463  -14.5467   20.6730 O   0  0  0  0  0  0
  -24.6592  -31.8291   23.1767 C   0  0  0  0  0  0
  -25.9319  -32.4603   23.8199 C   0  0  1  0  0  0
  -27.2210  -27.0034   20.1610 C   0  0  0  0  0  0
  -25.6022  -33.8412   24.2127 N   0  0  0  0  0  0
  -23.4689  -30.4447   21.5249 C   0  0  2  0  0  0
  -24.9214  -28.8492   20.1079 C   0  0  0  0  0  0
  -22.7646  -29.4472   22.4799 C   0  0  0  0  0  0
  -18.0320  -28.1392   22.8441 C   0  0  0  0  0  0
  -24.1501  -36.7195   23.2638 C   0  0  0  0  0  0
  -26.0340  -30.6608   21.3935 C   0  0  0  0  0  0
  -26.1043  -29.2590   20.7353 C   0  0  0  0  0  0
  -27.2531  -28.3562   20.7404 C   0  0  0  0  0  0
  -26.0100  -26.7367   19.4820 C   0  0  0  0  0  0
  -24.8948  -27.6064   19.4615 C   0  0  0  0  0  0
  -23.7031  -29.7664   20.1476 C   0  0  0  0  0  0
  -25.4117  -36.2948   24.0318 C   0  0  1  0  0  0
  -20.5942  -28.3726   23.1183 C   0  0  2  0  0  0
  -20.6797  -26.9409   22.5389 C   0  0  0  0  0  0
  -19.5786  -26.6368   21.5183 C   0  0  0  0  0  0
  -18.1958  -26.7924   22.1591 C   0  0  0  0  0  0
  -19.1584  -28.8875   23.2802 C   0  0  0  0  0  0
  -18.9498  -30.1465   23.8827 C   0  0  0  0  0  0
  -17.6493  -30.6576   24.0538 C   0  0  0  0  0  0
  -25.9089  -34.9345   23.5018 C   0  0  0  0  0  0
  -16.5376  -29.9060   23.6342 C   0  0  0  0  0  0
  -16.7307  -28.6498   23.0334 C   0  0  0  0  0  0
  -26.4588  -31.6495   25.0676 C   0  0  0  0  0  0
  -25.3745  -31.3710   26.1351 C   0  0  0  0  0  0
  -27.0477  -30.2877   24.6330 C   0  0  0  0  0  0
  -27.6098  -32.4278   25.7471 C   0  0  0  0  0  0
  -27.5580  -37.1720   24.8452 C   0  0  0  0  0  0
  -21.4319  -29.3037   22.3548 N   0  0  0  0  0  0
  -26.4250  -37.3698   23.9450 N   0  0  0  0  0  0
  -24.7412  -31.0029   22.0863 N   0  0  0  0  0  0
  -23.4227  -28.8018   23.3003 O   0  0  0  0  0  0
  -28.2179  -25.9148   20.2470 O   0  0  0  0  0  0
  -26.5674  -34.8885   22.4597 O   0  0  0  0  0  0
  -23.5686  -32.1241   23.6915 O   0  0  0  0  0  0
  -28.0106  -21.8114   21.1160 C   0  0  0  0  0  0
  -28.3654  -20.3812   21.0925 C   0  0  0  0  0  0
  -28.5733  -22.8265   20.2461 C   0  0  0  0  0  0
  -29.3379  -19.8156   20.1906 C   0  0  0  0  0  0
  -28.8653  -17.7756   18.6196 C   0  0  0  0  0  0
  -28.4552  -16.5308   21.4663 C   0  0  0  0  0  0
  -30.7688  -17.1756   21.9862 C   0  0  0  0  0  0
  -27.8456  -24.3669   19.9706 C   0  0  0  0  0  0
  -29.7102  -18.1627   19.8475 C   0  0  2  0  0  0
  -29.8417  -16.7170   20.8405 C   0  0  0  0  0  0
  -29.4959  -22.2087   19.3956 N   0  0  0  0  0  0
  -29.8519  -20.8483   19.3882 N   0  0  0  0  0  0
  -31.4725  -12.8866   19.2039 H   0  0  0  0  0  0
  -30.4715  -11.7814   20.0800 H   0  0  0  0  0  0
  -29.8986  -11.7709   17.6333 H   0  0  0  0  0  0
  -29.5912  -13.4890   17.6797 H   0  0  0  0  0  0
  -28.0128  -11.2792   19.0217 H   0  0  0  0  0  0
  -27.4145  -12.3998   17.8245 H   0  0  0  0  0  0
  -27.5688  -14.2463   19.3747 H   0  0  0  0  0  0
  -28.8097  -12.3397   21.4106 H   0  0  0  0  0  0
  -28.3067  -13.9407   21.7845 H   0  0  0  0  0  0
  -25.2777   -9.5662   22.4788 H   0  0  0  0  0  0
  -23.9994   -7.4624   22.7496 H   0  0  0  0  0  0
  -21.0854   -8.8775   19.8955 H   0  0  0  0  0  0
  -22.3741  -10.9652   19.6161 H   0  0  0  0  0  0
  -21.2009   -7.6138   23.9711 H   0  0  0  0  0  0
  -21.1478   -6.0514   25.9074 H   0  0  0  0  0  0
  -22.0605   -2.7598   23.2861 H   0  0  0  0  0  0
  -22.4041  -11.9807   22.4814 H   0  0  0  0  0  0
  -21.1032  -13.1162   22.2596 H   0  0  0  0  0  0
  -24.5972  -15.8225   20.4793 H   0  0  0  0  0  0
  -26.2152  -15.6369   20.0302 H   0  0  0  0  0  0
  -26.7380  -32.5159   23.0914 H   0  0  0  0  0  0
  -25.0188  -33.9471   25.0289 H   0  0  0  0  0  0
  -22.7791  -31.2749   21.3612 H   0  0  0  0  0  0
  -23.3778  -35.9513   23.3235 H   0  0  0  0  0  0
  -24.3601  -36.8877   22.2065 H   0  0  0  0  0  0
  -23.7267  -37.6367   23.6714 H   0  0  0  0  0  0
  -26.1986  -31.4067   20.6147 H   0  0  0  0  0  0
  -26.9013  -30.7168   22.0393 H   0  0  0  0  0  0
  -28.1489  -28.6658   21.2596 H   0  0  0  0  0  0
  -25.8748  -25.7898   18.9810 H   0  0  0  0  0  0
  -23.9953  -27.2873   18.9518 H   0  0  0  0  0  0
  -23.8498  -30.5389   19.3925 H   0  0  0  0  0  0
  -22.8162  -29.2139   19.8331 H   0  0  0  0  0  0
  -25.1304  -36.1712   25.0808 H   0  0  0  0  0  0
  -21.0023  -28.3335   24.1315 H   0  0  0  0  0  0
  -20.5665  -26.2337   23.3631 H   0  0  0  0  0  0
  -21.6662  -26.7391   22.1201 H   0  0  0  0  0  0
  -19.6953  -25.6279   21.1222 H   0  0  0  0  0  0
  -19.6727  -27.3168   20.6709 H   0  0  0  0  0  0
  -17.4229  -26.6655   21.3987 H   0  0  0  0  0  0
  -18.0355  -26.0059   22.8992 H   0  0  0  0  0  0
  -19.7986  -30.7282   24.2160 H   0  0  0  0  0  0
  -17.5062  -31.6252   24.5159 H   0  0  0  0  0  0
  -15.5383  -30.2938   23.7718 H   0  0  0  0  0  0
  -15.8709  -28.0816   22.7052 H   0  0  0  0  0  0
  -24.5997  -30.6957   25.7704 H   0  0  0  0  0  0
  -24.8846  -32.2875   26.4626 H   0  0  0  0  0  0
  -25.8022  -30.9025   27.0223 H   0  0  0  0  0  0
  -26.3131  -29.6555   24.1320 H   0  0  0  0  0  0
  -27.4030  -29.7215   25.4948 H   0  0  0  0  0  0
  -27.9056  -30.4073   23.9715 H   0  0  0  0  0  0
  -27.2700  -33.3636   26.1916 H   0  0  0  0  0  0
  -28.3974  -32.6719   25.0334 H   0  0  0  0  0  0
  -28.0692  -31.8476   26.5476 H   0  0  0  0  0  0
  -28.2472  -38.0131   24.7609 H   0  0  0  0  0  0
  -28.1184  -36.2657   24.6104 H   0  0  0  0  0  0
  -27.2311  -37.1146   25.8848 H   0  0  0  0  0  0
  -20.9564  -29.8749   21.6700 H   0  0  0  0  0  0
  -26.0074  -38.2722   24.1554 H   0  0  0  0  0  0
  -27.2122  -22.1174   21.7769 H   0  0  0  0  0  0
  -27.8256  -19.7122   21.7460 H   0  0  0  0  0  0
  -28.9831  -18.5050   17.8182 H   0  0  0  0  0  0
  -27.8037  -17.7318   18.8641 H   0  0  0  0  0  0
  -29.1577  -16.8054   18.2164 H   0  0  0  0  0  0
  -28.0051  -17.4820   21.7425 H   0  0  0  0  0  0
  -28.4986  -15.9441   22.3821 H   0  0  0  0  0  0
  -27.7816  -16.0555   20.7639 H   0  0  0  0  0  0
  -30.3634  -18.0448   22.5059 H   0  0  0  0  0  0
  -31.7521  -17.4531   21.6052 H   0  0  0  0  0  0
  -30.9192  -16.3918   22.7309 H   0  0  0  0  0  0
  -26.8849  -24.2537   20.4712 H   0  0  0  0  0  0
  -27.6031  -24.3352   18.9088 H   0  0  0  0  0  0
  -30.7230  -18.2566   19.4543 H   0  0  0  0  0  0
  1 25  1  0  0  0
  1 30  2  0  0  0
  1 80  1  0  0  0
  2  3  1  0  0  0
  2 25  1  0  0  0
  2 83  1  0  0  0
  2 84  1  0  0  0
  3  4  1  0  0  0
  3 85  1  0  0  0
  3 86  1  0  0  0
  4  5  1  0  0  0
  4 87  1  0  0  0
  4 88  1  0  0  0
  5  6  1  0  0  0
  5 26  1  0  0  0
  5 89  1  0  0  0
  6 25  1  0  0  0
  6 90  1  0  0  0
  6 91  1  0  0  0
  7  8  2  0  0  0
  7 26  1  0  0  0
  7 29  1  0  0  0
  8  9  1  0  0  0
  8 22  1  0  0  0
  9 10  1  0  0  0
  9 27  2  0  0  0
 10 11  2  0  0  0
 10 15  1  0  0  0
 11 12  1  0  0  0
 11 92  1  0  0  0
 12 13  2  0  0  0
 12 93  1  0  0  0
 13 14  1  0  0  0
 13 31  1  0  0  0
 14 15  2  0  0  0
 14 94  1  0  0  0
 15 95  1  0  0  0
 16 17  2  0  0  0
 16 21  1  0  0  0
 16 31  1  0  0  0
 17 18  1  0  0  0
 17 96  1  0  0  0
 18 19  2  0  0  0
 18 97  1  0  0  0
 19 20  1  0  0  0
 19 24  1  0  0  0
 20 21  2  0  0  0
 20 98  1  0  0  0
 21 23  1  0  0  0
 22 28  1  0  0  0
 22 32  2  0  0  0
 26 27  1  0  0  0
 28 99  1  0  0  0
 28100  1  0  0  0
 29101  1  0  0  0
 29102  1  0  0  0
 33 34  1  0  0  0
 33 66  1  0  0  0
 33 70  2  0  0  0
 34 36  1  0  0  0
 34 59  1  0  0  0
 34103  1  0  0  0
 35 44  2  0  0  0
 35 45  1  0  0  0
 35 68  1  0  0  0
 36 56  1  0  0  0
 36104  1  0  0  0
 37 39  1  0  0  0
 37 47  1  0  0  0
 37 66  1  0  0  0
 37105  1  0  0  0
 38 43  2  0  0  0
 38 46  1  0  0  0
 38 47  1  0  0  0
 39 64  1  0  0  0
 39 67  2  0  0  0
 40 52  1  0  0  0
 40 53  2  0  0  0
 40 58  1  0  0  0
 41106  1  0  0  0
 41107  1  0  0  0
 41108  1  0  0  0
 41 48  1  0  0  0
 42 43  1  0  0  0
 42 66  1  0  0  0
 42109  1  0  0  0
 42110  1  0  0  0
 43 44  1  0  0  0
 44111  1  0  0  0
 45 46  2  0  0  0
 45112  1  0  0  0
 46113  1  0  0  0
 47114  1  0  0  0
 47115  1  0  0  0
 48 56  1  0  0  0
 48 65  1  0  0  0
 48116  1  0  0  0
 49 50  1  0  0  0
 49 53  1  0  0  0
 49 64  1  0  0  0
 49117  1  0  0  0
 50 51  1  0  0  0
 50118  1  0  0  0
 50119  1  0  0  0
 51 52  1  0  0  0
 51120  1  0  0  0
 51121  1  0  0  0
 52122  1  0  0  0
 52123  1  0  0  0
 53 54  1  0  0  0
 54 55  2  0  0  0
 54124  1  0  0  0
 55 57  1  0  0  0
 55125  1  0  0  0
 56 69  2  0  0  0
 57 58  2  0  0  0
 57126  1  0  0  0
 58127  1  0  0  0
 59 60  1  0  0  0
 59 61  1  0  0  0
 59 62  1  0  0  0
 60128  1  0  0  0
 60129  1  0  0  0
 60130  1  0  0  0
 61131  1  0  0  0
 61132  1  0  0  0
 61133  1  0  0  0
 62134  1  0  0  0
 62135  1  0  0  0
 62136  1  0  0  0
 63 65  1  0  0  0
 63137  1  0  0  0
 63138  1  0  0  0
 63139  1  0  0  0
 64140  1  0  0  0
 65141  1  0  0  0
 68 78  1  0  0  0
 71 72  2  0  0  0
 71 73  1  0  0  0
 71142  1  0  0  0
 72 74  1  0  0  0
 72143  1  0  0  0
 73 78  1  0  0  0
 73 81  2  0  0  0
 74 79  1  0  0  0
 74 82  2  0  0  0
 75144  1  0  0  0
 75145  1  0  0  0
 75146  1  0  0  0
 75 79  1  0  0  0
 76147  1  0  0  0
 76148  1  0  0  0
 76149  1  0  0  0
 76 80  1  0  0  0
 77 80  1  0  0  0
 77150  1  0  0  0
 77151  1  0  0  0
 77152  1  0  0  0
 78153  1  0  0  0
 78154  1  0  0  0
 79 80  1  0  0  0
 79155  1  0  0  0
 81 82  1  0  0  0
M  ISO  4   1 100  68 101  78 101  80 100
M  END
> <chiral flag>
0

> <version>
0

> <s_m_source_file>
/data/baiqing/PycharmProjects/Reinvent-master-3.2/result/LINK_invent/BTK/process_docking_weight1_custom_sum_contain_oxygen_bond_distance_aromatic_linkinvent_7_9_3/rearranged_h_0071.sdf

> <i_m_source_file_index>
95

> <r_mmod_Potential_Energy-OPLS-2005>
1088.40197753906

> <r_mmod_Stretch_Energy-OPLS-2005>
458.290924072266

> <r_mmod_Bend_Energy-OPLS-2005>
427.77197265625

> <r_mmod_Torsional_Energy-OPLS-2005>
195.689193725586

> <r_mmod_Improper_Torsional_Energy-OPLS-2005>
6.24137210845947

> <r_mmod_Van_der_Waal_Energy-OPLS-2005>
135.245193481445

> <r_mmod_Electrostatic_Energy-OPLS-2005>
-254.462295532227

> <r_mmod_Solvation_Energy-OPLS-2005>
-220.112930297852

> <b_mmod_Minimization_Converged-OPLS-2005>
0

> <r_mmod_RMS_Derivative-OPLS-2005>
2.57971000671387

$$$$
98
                    3D
 Structure written by MMmdl.
164172  0  0  1  0            999 V2000
  -30.7213  -14.4436   20.6501 C   0  0  0  0  0  0
  -30.4313  -12.3179   19.4106 C   0  0  0  0  0  0
  -29.4919  -12.5416   18.2071 C   0  0  0  0  0  0
  -28.0119  -12.4014   18.6189 C   0  0  0  0  0  0
  -27.6682  -13.2084   19.8980 C   0  0  2  0  0  0
  -28.7191  -12.9445   21.0027 C   0  0  0  0  0  0
  -25.2573  -13.8143   20.5703 C   0  0  0  0  0  0
  -24.1830  -13.0417   20.9177 C   0  0  0  0  0  0
  -24.6381  -11.6879   20.8722 C   0  0  0  0  0  0
  -23.9040  -10.4274   21.0386 C   0  0  0  0  0  0
  -24.3584   -9.4198   21.9172 C   0  0  0  0  0  0
  -23.6267   -8.2232   22.0753 C   0  0  0  0  0  0
  -22.4257   -8.0256   21.3540 C   0  0  0  0  0  0
  -21.9879   -9.0219   20.4650 C   0  0  0  0  0  0
  -22.7196  -10.2104   20.3058 C   0  0  0  0  0  0
  -21.6838   -6.0716   22.5263 C   0  0  0  0  0  0
  -21.3984   -6.5629   23.8192 C   0  0  0  0  0  0
  -21.3679   -5.6797   24.9161 C   0  0  0  0  0  0
  -21.6064   -4.3059   24.7214 C   0  0  0  0  0  0
  -21.8812   -3.8136   23.4331 C   0  0  0  0  0  0
  -21.9179   -4.6947   22.3388 C   0  0  0  0  0  0
  -22.7844  -13.5193   21.1861 C   0  0  0  0  0  0
  -22.1635   -4.2136   21.0957 F   0  0  0  0  0  0
  -21.5678   -3.4551   25.7733 F   0  0  0  0  0  0
  -30.0490  -13.2726   20.4609 N   0  0  0  0  0  0
  -26.3060  -12.9329   20.3496 N   0  0  0  0  0  0
  -25.9324  -11.6478   20.5788 N   0  0  0  0  0  0
  -22.0496  -12.8187   22.0432 N   0  0  0  0  0  0
  -25.4284  -15.1863   20.4043 N   0  0  0  0  0  0
  -31.7757  -14.6999   20.0578 O   0  0  0  0  0  0
  -21.6627   -6.8850   21.4228 O   0  0  0  0  0  0
  -22.3502  -14.5485   20.6700 O   0  0  0  0  0  0
  -24.6161  -31.8674   23.2107 C   0  0  0  0  0  0
  -25.9048  -32.4821   23.8404 C   0  0  1  0  0  0
  -27.2309  -27.4266   20.0984 C   0  0  0  0  0  0
  -25.5897  -33.8620   24.2332 N   0  0  0  0  0  0
  -23.4055  -30.4900   21.5524 C   0  0  2  0  0  0
  -24.8546  -28.9602   20.1120 C   0  0  0  0  0  0
  -22.7430  -29.4641   22.4998 C   0  0  0  0  0  0
  -18.0278  -28.1385   22.8497 C   0  0  0  0  0  0
  -24.1486  -36.7309   23.2639 C   0  0  0  0  0  0
  -25.9362  -30.8323   21.3650 C   0  0  0  0  0  0
  -26.0164  -29.4679   20.7088 C   0  0  0  0  0  0
  -27.2123  -28.7092   20.6968 C   0  0  0  0  0  0
  -26.0577  -26.9432   19.4818 C   0  0  0  0  0  0
  -24.8700  -27.6976   19.4948 C   0  0  0  0  0  0
  -23.6161  -29.8257   20.1657 C   0  0  0  0  0  0
  -25.4103  -36.3105   24.0342 C   0  0  1  0  0  0
  -20.5866  -28.3655   23.1336 C   0  0  2  0  0  0
  -20.6768  -26.9389   22.5438 C   0  0  0  0  0  0
  -19.5745  -26.6379   21.5234 C   0  0  0  0  0  0
  -18.1918  -26.7930   22.1637 C   0  0  0  0  0  0
  -19.1525  -28.8838   23.2908 C   0  0  0  0  0  0
  -18.9449  -30.1452   23.8912 C   0  0  0  0  0  0
  -17.6449  -30.6585   24.0565 C   0  0  0  0  0  0
  -25.9034  -34.9474   23.5133 C   0  0  0  0  0  0
  -16.5342  -29.9088   23.6332 C   0  0  0  0  0  0
  -16.7264  -28.6511   23.0337 C   0  0  0  0  0  0
  -26.4466  -31.6604   25.0732 C   0  0  0  0  0  0
  -25.3726  -31.3718   26.1473 C   0  0  0  0  0  0
  -27.0296  -30.3053   24.6105 C   0  0  0  0  0  0
  -27.6040  -32.4325   25.7488 C   0  0  0  0  0  0
  -27.5581  -37.1805   24.8461 C   0  0  0  0  0  0
  -21.4152  -29.3024   22.3750 N   0  0  0  0  0  0
  -26.4290  -37.3793   23.9413 N   0  0  0  0  0  0
  -24.6708  -31.0766   22.1016 N   0  0  0  0  0  0
  -23.4193  -28.8169   23.3033 O   0  0  0  0  0  0
  -28.3556  -26.6266   20.1253 O   0  0  0  0  0  0
  -26.5596  -34.8922   22.4694 O   0  0  0  0  0  0
  -23.5354  -32.1426   23.7500 O   0  0  0  0  0  0
  -28.6370  -19.7116   20.1062 C   0  0  0  0  0  0
  -30.9191  -20.2255   19.8051 C   0  0  0  0  0  0
  -29.9446  -19.2093   19.9308 C   0  0  0  0  0  0
  -29.3328  -21.8850   19.8436 C   0  0  0  0  0  0
  -30.1247  -17.9072   22.4829 C   0  0  0  0  0  0
  -29.0327  -16.9612   19.2214 C   0  0  0  0  0  0
  -28.9343  -23.3484   19.6018 C   0  0  0  0  0  0
  -30.1183  -15.5535   21.5479 C   0  0  0  0  0  0
  -29.2189  -24.3211   20.7727 C   0  0  0  0  0  0
  -28.1851  -25.4630   20.9609 C   0  0  0  0  0  0
  -30.5876  -17.0360   21.2917 C   0  0  1  0  0  0
  -30.2557  -17.6702   19.8700 C   0  0  2  0  0  0
  -28.3433  -21.0287   20.0670 N   0  0  0  0  0  0
  -30.6131  -21.5433   19.7435 N   0  0  0  0  0  0
  -31.4040  -17.3979   18.9703 N   0  3  0  0  0  0
  -31.4748  -12.4276   19.1068 H   0  0  0  0  0  0
  -30.3417  -11.2968   19.7864 H   0  0  0  0  0  0
  -29.7229  -11.8325   17.4118 H   0  0  0  0  0  0
  -29.6645  -13.5373   17.7946 H   0  0  0  0  0  0
  -27.8097  -11.3434   18.7829 H   0  0  0  0  0  0
  -27.3616  -12.7127   17.7994 H   0  0  0  0  0  0
  -27.7187  -14.2638   19.6362 H   0  0  0  0  0  0
  -28.6950  -11.8891   21.2788 H   0  0  0  0  0  0
  -28.4859  -13.4766   21.9246 H   0  0  0  0  0  0
  -25.2731   -9.5681   22.4738 H   0  0  0  0  0  0
  -24.0002   -7.4616   22.7445 H   0  0  0  0  0  0
  -21.0830   -8.8685   19.8928 H   0  0  0  0  0  0
  -22.3628  -10.9617   19.6159 H   0  0  0  0  0  0
  -21.1933   -7.6136   23.9668 H   0  0  0  0  0  0
  -21.1545   -6.0547   25.9069 H   0  0  0  0  0  0
  -22.0581   -2.7598   23.2829 H   0  0  0  0  0  0
  -22.4078  -11.9839   22.4852 H   0  0  0  0  0  0
  -21.1103  -13.1187   22.2611 H   0  0  0  0  0  0
  -24.6660  -15.8455   20.5215 H   0  0  0  0  0  0
  -26.2819  -15.6180   20.0757 H   0  0  0  0  0  0
  -26.7121  -32.5540   23.1170 H   0  0  0  0  0  0
  -25.0051  -33.9776   25.0479 H   0  0  0  0  0  0
  -22.6952  -31.3074   21.4150 H   0  0  0  0  0  0
  -23.3748  -35.9640   23.3299 H   0  0  0  0  0  0
  -24.3585  -36.8925   22.2055 H   0  0  0  0  0  0
  -23.7233  -37.6512   23.6654 H   0  0  0  0  0  0
  -26.0498  -31.6024   20.6000 H   0  0  0  0  0  0
  -26.8223  -30.8849   21.9851 H   0  0  0  0  0  0
  -28.1086  -29.0924   21.1649 H   0  0  0  0  0  0
  -26.0595  -25.9752   19.0013 H   0  0  0  0  0  0
  -23.9780  -27.3032   19.0290 H   0  0  0  0  0  0
  -23.7248  -30.6039   19.4095 H   0  0  0  0  0  0
  -22.7401  -29.2475   19.8673 H   0  0  0  0  0  0
  -25.1284  -36.1970   25.0838 H   0  0  0  0  0  0
  -20.9954  -28.3212   24.1453 H   0  0  0  0  0  0
  -20.5683  -26.2256   23.3616 H   0  0  0  0  0  0
  -21.6633  -26.7440   22.1214 H   0  0  0  0  0  0
  -19.6896  -25.6289   21.1254 H   0  0  0  0  0  0
  -19.6690  -27.3199   20.6766 H   0  0  0  0  0  0
  -17.4196  -26.6688   21.4029 H   0  0  0  0  0  0
  -18.0301  -26.0071   22.9028 H   0  0  0  0  0  0
  -19.7918  -30.7270   24.2279 H   0  0  0  0  0  0
  -17.4997  -31.6260   24.5163 H   0  0  0  0  0  0
  -15.5342  -30.2984   23.7644 H   0  0  0  0  0  0
  -15.8669  -28.0839   22.7027 H   0  0  0  0  0  0
  -24.5884  -30.7086   25.7798 H   0  0  0  0  0  0
  -24.8927  -32.2884   26.4927 H   0  0  0  0  0  0
  -25.8059  -30.8870   27.0231 H   0  0  0  0  0  0
  -26.2850  -29.6828   24.1132 H   0  0  0  0  0  0
  -27.4050  -29.7271   25.4556 H   0  0  0  0  0  0
  -27.8687  -30.4380   23.9267 H   0  0  0  0  0  0
  -27.2658  -33.3614   26.2094 H   0  0  0  0  0  0
  -28.3825  -32.6915   25.0297 H   0  0  0  0  0  0
  -28.0738  -31.8441   26.5380 H   0  0  0  0  0  0
  -28.2591  -38.0112   24.7523 H   0  0  0  0  0  0
  -28.1088  -36.2646   24.6265 H   0  0  0  0  0  0
  -27.2307  -37.1426   25.8866 H   0  0  0  0  0  0
  -20.9323  -29.8753   21.6976 H   0  0  0  0  0  0
  -26.0180  -38.2871   24.1418 H   0  0  0  0  0  0
  -27.7878  -19.0621   20.2490 H   0  0  0  0  0  0
  -31.9647  -19.9792   19.6928 H   0  0  0  0  0  0
  -30.4563  -17.4791   23.4296 H   0  0  0  0  0  0
  -29.0388  -17.9891   22.5330 H   0  0  0  0  0  0
  -30.5405  -18.9151   22.4511 H   0  0  0  0  0  0
  -28.1561  -16.9543   19.8672 H   0  0  0  0  0  0
  -29.2307  -15.9238   18.9631 H   0  0  0  0  0  0
  -28.7404  -17.4362   18.2848 H   0  0  0  0  0  0
  -27.8647  -23.3576   19.3875 H   0  0  0  0  0  0
  -29.4094  -23.7101   18.6894 H   0  0  0  0  0  0
  -29.0318  -15.5261   21.5067 H   0  0  0  0  0  0
  -30.3744  -15.2728   22.5697 H   0  0  0  0  0  0
  -30.2342  -24.7115   20.7093 H   0  0  0  0  0  0
  -29.1888  -23.7303   21.6885 H   0  0  0  0  0  0
  -28.2542  -25.8114   21.9921 H   0  0  0  0  0  0
  -27.1830  -25.0376   20.8747 H   0  0  0  0  0  0
  -31.6738  -17.0346   21.4011 H   0  0  0  0  0  0
  -31.2135  -17.6705   18.0205 H   0  0  0  0  0  0
  -31.6051  -16.4067   18.9721 H   0  0  0  0  0  0
  -32.2511  -17.8461   19.2728 H   0  0  0  0  0  0
  1 25  1  0  0  0
  1 30  2  0  0  0
  1 78  1  0  0  0
  2  3  1  0  0  0
  2 25  1  0  0  0
  2 86  1  0  0  0
  2 87  1  0  0  0
  3  4  1  0  0  0
  3 88  1  0  0  0
  3 89  1  0  0  0
  4  5  1  0  0  0
  4 90  1  0  0  0
  4 91  1  0  0  0
  5  6  1  0  0  0
  5 26  1  0  0  0
  5 92  1  0  0  0
  6 25  1  0  0  0
  6 93  1  0  0  0
  6 94  1  0  0  0
  7  8  2  0  0  0
  7 26  1  0  0  0
  7 29  1  0  0  0
  8  9  1  0  0  0
  8 22  1  0  0  0
  9 10  1  0  0  0
  9 27  2  0  0  0
 10 11  2  0  0  0
 10 15  1  0  0  0
 11 12  1  0  0  0
 11 95  1  0  0  0
 12 13  2  0  0  0
 12 96  1  0  0  0
 13 14  1  0  0  0
 13 31  1  0  0  0
 14 15  2  0  0  0
 14 97  1  0  0  0
 15 98  1  0  0  0
 16 17  2  0  0  0
 16 21  1  0  0  0
 16 31  1  0  0  0
 17 18  1  0  0  0
 17 99  1  0  0  0
 18 19  2  0  0  0
 18100  1  0  0  0
 19 20  1  0  0  0
 19 24  1  0  0  0
 20 21  2  0  0  0
 20101  1  0  0  0
 21 23  1  0  0  0
 22 28  1  0  0  0
 22 32  2  0  0  0
 26 27  1  0  0  0
 28102  1  0  0  0
 28103  1  0  0  0
 29104  1  0  0  0
 29105  1  0  0  0
 33 34  1  0  0  0
 33 66  1  0  0  0
 33 70  2  0  0  0
 34 36  1  0  0  0
 34 59  1  0  0  0
 34106  1  0  0  0
 35 44  2  0  0  0
 35 45  1  0  0  0
 35 68  1  0  0  0
 36 56  1  0  0  0
 36107  1  0  0  0
 37 39  1  0  0  0
 37 47  1  0  0  0
 37 66  1  0  0  0
 37108  1  0  0  0
 38 43  2  0  0  0
 38 46  1  0  0  0
 38 47  1  0  0  0
 39 64  1  0  0  0
 39 67  2  0  0  0
 40 52  1  0  0  0
 40 53  2  0  0  0
 40 58  1  0  0  0
 41109  1  0  0  0
 41110  1  0  0  0
 41111  1  0  0  0
 41 48  1  0  0  0
 42 43  1  0  0  0
 42 66  1  0  0  0
 42112  1  0  0  0
 42113  1  0  0  0
 43 44  1  0  0  0
 44114  1  0  0  0
 45 46  2  0  0  0
 45115  1  0  0  0
 46116  1  0  0  0
 47117  1  0  0  0
 47118  1  0  0  0
 48 56  1  0  0  0
 48 65  1  0  0  0
 48119  1  0  0  0
 49 50  1  0  0  0
 49 53  1  0  0  0
 49 64  1  0  0  0
 49120  1  0  0  0
 50 51  1  0  0  0
 50121  1  0  0  0
 50122  1  0  0  0
 51 52  1  0  0  0
 51123  1  0  0  0
 51124  1  0  0  0
 52125  1  0  0  0
 52126  1  0  0  0
 53 54  1  0  0  0
 54 55  2  0  0  0
 54127  1  0  0  0
 55 57  1  0  0  0
 55128  1  0  0  0
 56 69  2  0  0  0
 57 58  2  0  0  0
 57129  1  0  0  0
 58130  1  0  0  0
 59 60  1  0  0  0
 59 61  1  0  0  0
 59 62  1  0  0  0
 60131  1  0  0  0
 60132  1  0  0  0
 60133  1  0  0  0
 61134  1  0  0  0
 61135  1  0  0  0
 61136  1  0  0  0
 62137  1  0  0  0
 62138  1  0  0  0
 62139  1  0  0  0
 63 65  1  0  0  0
 63140  1  0  0  0
 63141  1  0  0  0
 63142  1  0  0  0
 64143  1  0  0  0
 65144  1  0  0  0
 68 80  1  0  0  0
 71 73  2  0  0  0
 71 83  1  0  0  0
 71145  1  0  0  0
 72 73  1  0  0  0
 72 84  2  0  0  0
 72146  1  0  0  0
 73 82  1  0  0  0
 74 77  1  0  0  0
 74 83  2  0  0  0
 74 84  1  0  0  0
 75147  1  0  0  0
 75148  1  0  0  0
 75149  1  0  0  0
 75 81  1  0  0  0
 76150  1  0  0  0
 76151  1  0  0  0
 76152  1  0  0  0
 76 82  1  0  0  0
 77 79  1  0  0  0
 77153  1  0  0  0
 77154  1  0  0  0
 78 81  1  0  0  0
 78155  1  0  0  0
 78156  1  0  0  0
 79 80  1  0  0  0
 79157  1  0  0  0
 79158  1  0  0  0
 80159  1  0  0  0
 80160  1  0  0  0
 81 82  1  0  0  0
 81161  1  0  0  0
 82 85  1  0  0  0
 85162  1  0  0  0
 85163  1  0  0  0
 85164  1  0  0  0
M  CHG  1  85   1
M  ISO  4   1 100  68 101  78 100  80 101
M  END
> <chiral flag>
0

> <version>
0

> <s_m_source_file>
/data/baiqing/PycharmProjects/Reinvent-master-3.2/result/LINK_invent/BTK/process_docking_weight1_custom_sum_contain_oxygen_bond_distance_aromatic_linkinvent_7_9_3/rearranged_h_0071.sdf

> <i_m_source_file_index>
96

> <r_mmod_Potential_Energy-OPLS-2005>
-658.529296875

> <r_mmod_Stretch_Energy-OPLS-2005>
49.228385925293

> <r_mmod_Bend_Energy-OPLS-2005>
117.555572509766

> <r_mmod_Torsional_Energy-OPLS-2005>
194.748153686523

> <r_mmod_Improper_Torsional_Energy-OPLS-2005>
2.52843761444092

> <r_mmod_Van_der_Waal_Energy-OPLS-2005>
167.601608276367

> <r_mmod_Electrostatic_Energy-OPLS-2005>
-743.022827148438

> <r_mmod_Solvation_Energy-OPLS-2005>
-459.496887207031

> <b_mmod_Minimization_Converged-OPLS-2005>
0

> <r_mmod_RMS_Derivative-OPLS-2005>
2.53941130638123

$$$$
