0
                    3D
 Structure written by MMmdl.
175184  0  0  1  0            999 V2000
  -30.7222  -14.4211   20.6771 C   0  0  0  0  0  0
  -30.4198  -12.3267   19.4002 C   0  0  0  0  0  0
  -29.4933  -12.5719   18.1941 C   0  0  0  0  0  0
  -28.0173  -12.3939   18.5974 C   0  0  0  0  0  0
  -27.6608  -13.2091   19.8698 C   0  0  2  0  0  0
  -28.6921  -12.9568   20.9908 C   0  0  0  0  0  0
  -25.2612  -13.8142   20.5703 C   0  0  0  0  0  0
  -24.1849  -13.0417   20.9111 C   0  0  0  0  0  0
  -24.6389  -11.6900   20.8645 C   0  0  0  0  0  0
  -23.9047  -10.4289   21.0327 C   0  0  0  0  0  0
  -24.3623   -9.4234   21.9119 C   0  0  0  0  0  0
  -23.6311   -8.2262   22.0705 C   0  0  0  0  0  0
  -22.4283   -8.0263   21.3510 C   0  0  0  0  0  0
  -21.9905   -9.0219   20.4590 C   0  0  0  0  0  0
  -22.7212  -10.2102   20.2982 C   0  0  0  0  0  0
  -21.6871   -6.0729   22.5276 C   0  0  0  0  0  0
  -21.3990   -6.5633   23.8198 C   0  0  0  0  0  0
  -21.3642   -5.6781   24.9166 C   0  0  0  0  0  0
  -21.6037   -4.3044   24.7209 C   0  0  0  0  0  0
  -21.8829   -3.8150   23.4335 C   0  0  0  0  0  0
  -21.9217   -4.6969   22.3405 C   0  0  0  0  0  0
  -22.7889  -13.5260   21.1847 C   0  0  0  0  0  0
  -22.1697   -4.2168   21.0972 F   0  0  0  0  0  0
  -21.5622   -3.4522   25.7721 F   0  0  0  0  0  0
  -30.0341  -13.2672   20.4676 N   0  0  0  0  0  0
  -26.3021  -12.9312   20.3286 N   0  0  0  0  0  0
  -25.9295  -11.6483   20.5594 N   0  0  0  0  0  0
  -22.0518  -12.8185   22.0377 N   0  0  0  0  0  0
  -25.4356  -15.1843   20.4261 N   0  0  0  0  0  0
  -31.7617  -14.7044   20.0727 O   0  0  0  0  0  0
  -21.6643   -6.8865   21.4222 O   0  0  0  0  0  0
  -22.3586  -14.5581   20.6745 O   0  0  0  0  0  0
  -24.6221  -31.8664   23.2063 C   0  0  0  0  0  0
  -25.9132  -32.4779   23.8371 C   0  0  1  0  0  0
  -27.2477  -27.4267   20.1130 C   0  0  0  0  0  0
  -25.6019  -33.8595   24.2348 N   0  0  0  0  0  0
  -23.4064  -30.4855   21.5467 C   0  0  2  0  0  0
  -24.8546  -28.9385   20.1252 C   0  0  0  0  0  0
  -22.7430  -29.4661   22.5011 C   0  0  0  0  0  0
  -18.0260  -28.1351   22.8468 C   0  0  0  0  0  0
  -24.1471  -36.7214   23.2611 C   0  0  0  0  0  0
  -25.9358  -30.8284   21.3550 C   0  0  0  0  0  0
  -26.0144  -29.4629   20.7065 C   0  0  0  0  0  0
  -27.2173  -28.7200   20.6816 C   0  0  0  0  0  0
  -26.0677  -26.9074   19.5380 C   0  0  0  0  0  0
  -24.8726  -27.6595   19.5382 C   0  0  0  0  0  0
  -23.6164  -29.8064   20.1649 C   0  0  0  0  0  0
  -25.4070  -36.3064   24.0365 C   0  0  1  0  0  0
  -20.5864  -28.3654   23.1312 C   0  0  2  0  0  0
  -20.6758  -26.9388   22.5422 C   0  0  0  0  0  0
  -19.5742  -26.6360   21.5209 C   0  0  0  0  0  0
  -18.1898  -26.7943   22.1549 C   0  0  0  0  0  0
  -19.1525  -28.8818   23.2893 C   0  0  0  0  0  0
  -18.9430  -30.1420   23.8927 C   0  0  0  0  0  0
  -17.6416  -30.6547   24.0566 C   0  0  0  0  0  0
  -25.9076  -34.9453   23.5137 C   0  0  0  0  0  0
  -16.5317  -29.9033   23.6327 C   0  0  0  0  0  0
  -16.7240  -28.6454   23.0348 C   0  0  0  0  0  0
  -26.4532  -31.6552   25.0699 C   0  0  0  0  0  0
  -25.3805  -31.3608   26.1437 C   0  0  0  0  0  0
  -27.0366  -30.3006   24.6063 C   0  0  0  0  0  0
  -27.6100  -32.4272   25.7473 C   0  0  0  0  0  0
  -27.5661  -37.1649   24.8378 C   0  0  0  0  0  0
  -21.4160  -29.3036   22.3759 N   0  0  0  0  0  0
  -26.4197  -37.3841   23.9598 N   0  0  0  0  0  0
  -24.6727  -31.0756   22.0944 N   0  0  0  0  0  0
  -23.4219  -28.8229   23.3081 O   0  0  0  0  0  0
  -28.4318  -26.7149   20.0969 O   0  0  0  0  0  0
  -26.5584  -34.8933   22.4667 O   0  0  0  0  0  0
  -23.5418  -32.1438   23.7460 O   0  0  0  0  0  0
  -32.2059  -19.4866   18.8385 C   0  0  0  0  0  0
  -28.7644  -22.8887   20.0232 C   0  0  0  0  0  0
  -29.7139  -23.7709   22.1635 C   0  0  0  0  0  0
  -28.6371  -24.3332   19.4742 C   0  0  0  0  0  0
  -29.5368  -25.2201   21.6441 C   0  0  0  0  0  0
  -31.5009  -20.7303   19.3561 C   0  0  0  0  0  0
  -32.3214  -18.6497   20.1128 C   0  0  0  0  0  0
  -29.9318  -22.7254   21.0321 C   0  0  1  0  0  0
  -28.4119  -25.3656   20.6007 C   0  0  1  0  0  0
  -30.4969  -20.1967   20.4055 C   0  0  2  0  0  0
  -31.0867  -21.1300   22.7482 C   0  0  0  0  0  0
  -30.3548  -16.8890   23.3957 C   0  0  0  0  0  0
  -30.1901  -17.7223   20.9664 C   0  0  0  0  0  0
  -30.1211  -21.2369   21.5366 C   0  0  1  0  0  0
  -30.7131  -16.6003   21.9231 C   0  0  2  0  0  0
  -30.1813  -15.2747   21.5666 N   0  0  0  0  0  0
  -31.0921  -18.9120   20.9095 N   0  3  1  0  0  0
  -31.4638  -12.4435   19.1078 H   0  0  0  0  0  0
  -30.3252  -11.2995   19.7528 H   0  0  0  0  0  0
  -29.7508  -11.9037   17.3729 H   0  0  0  0  0  0
  -29.6422  -13.5861   17.8179 H   0  0  0  0  0  0
  -27.8388  -11.3324   18.7675 H   0  0  0  0  0  0
  -27.3663  -12.6842   17.7715 H   0  0  0  0  0  0
  -27.7099  -14.2637   19.5968 H   0  0  0  0  0  0
  -28.6551  -11.9104   21.2949 H   0  0  0  0  0  0
  -28.4257  -13.5209   21.8840 H   0  0  0  0  0  0
  -25.2774   -9.5747   22.4679 H   0  0  0  0  0  0
  -24.0057   -7.4645   22.7409 H   0  0  0  0  0  0
  -21.0859   -8.8679   19.8878 H   0  0  0  0  0  0
  -22.3660  -10.9613   19.6073 H   0  0  0  0  0  0
  -21.1921   -7.6142   23.9718 H   0  0  0  0  0  0
  -21.1436   -6.0494   25.9064 H   0  0  0  0  0  0
  -22.0615   -2.7612   23.2818 H   0  0  0  0  0  0
  -22.4155  -11.9837   22.4728 H   0  0  0  0  0  0
  -21.1118  -13.1176   22.2571 H   0  0  0  0  0  0
  -24.6655  -15.8364   20.5273 H   0  0  0  0  0  0
  -26.3028  -15.6289   20.1489 H   0  0  0  0  0  0
  -26.7209  -32.5447   23.1142 H   0  0  0  0  0  0
  -25.0350  -33.9765   25.0615 H   0  0  0  0  0  0
  -22.6971  -31.3027   21.4001 H   0  0  0  0  0  0
  -23.3919  -35.9345   23.2909 H   0  0  0  0  0  0
  -24.3678  -36.9199   22.2106 H   0  0  0  0  0  0
  -23.6954  -37.6184   23.6843 H   0  0  0  0  0  0
  -26.0561  -31.5916   20.5853 H   0  0  0  0  0  0
  -26.8204  -30.8785   21.9762 H   0  0  0  0  0  0
  -28.1167  -29.1317   21.1158 H   0  0  0  0  0  0
  -26.0656  -25.9242   19.0890 H   0  0  0  0  0  0
  -23.9747  -27.2451   19.0984 H   0  0  0  0  0  0
  -23.7353  -30.5748   19.4013 H   0  0  0  0  0  0
  -22.7407  -29.2269   19.8631 H   0  0  0  0  0  0
  -25.1212  -36.1800   25.0842 H   0  0  0  0  0  0
  -20.9898  -28.3168   24.1450 H   0  0  0  0  0  0
  -20.5571  -26.2277   23.3631 H   0  0  0  0  0  0
  -21.6636  -26.7404   22.1239 H   0  0  0  0  0  0
  -19.6870  -25.6245   21.1273 H   0  0  0  0  0  0
  -19.6699  -27.3149   20.6720 H   0  0  0  0  0  0
  -17.4215  -26.6772   21.3887 H   0  0  0  0  0  0
  -18.0196  -26.0036   22.8870 H   0  0  0  0  0  0
  -19.7894  -30.7252   24.2319 H   0  0  0  0  0  0
  -17.4942  -31.6229   24.5148 H   0  0  0  0  0  0
  -15.5303  -30.2911   23.7689 H   0  0  0  0  0  0
  -15.8648  -28.0764   22.7088 H   0  0  0  0  0  0
  -24.6072  -30.6850   25.7771 H   0  0  0  0  0  0
  -24.8873  -32.2700   26.4870 H   0  0  0  0  0  0
  -25.8183  -30.8818   27.0206 H   0  0  0  0  0  0
  -26.2867  -29.6693   24.1276 H   0  0  0  0  0  0
  -27.4310  -29.7313   25.4491 H   0  0  0  0  0  0
  -27.8635  -30.4315   23.9089 H   0  0  0  0  0  0
  -27.2754  -33.3609   26.2007 H   0  0  0  0  0  0
  -28.3969  -32.6766   25.0341 H   0  0  0  0  0  0
  -28.0714  -31.8409   26.5440 H   0  0  0  0  0  0
  -28.2240  -38.0350   24.8216 H   0  0  0  0  0  0
  -28.1605  -36.3055   24.5229 H   0  0  0  0  0  0
  -27.2564  -37.0030   25.8724 H   0  0  0  0  0  0
  -20.9341  -29.8809   21.7015 H   0  0  0  0  0  0
  -26.0018  -38.2784   24.2054 H   0  0  0  0  0  0
  -33.1712  -19.7022   18.3765 H   0  0  0  0  0  0
  -31.5914  -18.9739   18.0947 H   0  0  0  0  0  0
  -28.8902  -22.2081   19.1823 H   0  0  0  0  0  0
  -27.8244  -22.6121   20.5010 H   0  0  0  0  0  0
  -28.8495  -23.4871   22.7629 H   0  0  0  0  0  0
  -30.5647  -23.7874   22.8442 H   0  0  0  0  0  0
  -27.8119  -24.3835   18.7632 H   0  0  0  0  0  0
  -29.5362  -24.5854   18.9082 H   0  0  0  0  0  0
  -30.4796  -25.5614   21.2132 H   0  0  0  0  0  0
  -29.3381  -25.8888   22.4838 H   0  0  0  0  0  0
  -31.0227  -21.2935   18.5532 H   0  0  0  0  0  0
  -32.2468  -21.3769   19.8224 H   0  0  0  0  0  0
  -33.1829  -18.9981   20.6867 H   0  0  0  0  0  0
  -32.4977  -17.5965   19.8854 H   0  0  0  0  0  0
  -30.8539  -23.0246   20.5332 H   0  0  0  0  0  0
  -27.4636  -25.1579   21.0990 H   0  0  0  0  0  0
  -29.5852  -19.9457   19.8583 H   0  0  0  0  0  0
  -30.7638  -21.7430   23.5897 H   0  0  0  0  0  0
  -32.1068  -21.4251   22.5012 H   0  0  0  0  0  0
  -31.1252  -20.1214   23.1558 H   0  0  0  0  0  0
  -30.7530  -17.8441   23.7382 H   0  0  0  0  0  0
  -30.7651  -16.1296   24.0615 H   0  0  0  0  0  0
  -29.2764  -16.9041   23.5618 H   0  0  0  0  0  0
  -29.2021  -18.0327   21.3049 H   0  0  0  0  0  0
  -30.0449  -17.3357   19.9532 H   0  0  0  0  0  0
  -29.1495  -20.9233   21.9232 H   0  0  0  0  0  0
  -31.8005  -16.5449   21.8645 H   0  0  0  0  0  0
  -29.3550  -14.9526   22.0511 H   0  0  0  0  0  0
  -31.3894  -19.1009   21.8555 H   0  0  0  0  0  0
  1 25  1  0  0  0
  1 30  2  0  0  0
  1 86  1  0  0  0
  2  3  1  0  0  0
  2 25  1  0  0  0
  2 88  1  0  0  0
  2 89  1  0  0  0
  3  4  1  0  0  0
  3 90  1  0  0  0
  3 91  1  0  0  0
  4  5  1  0  0  0
  4 92  1  0  0  0
  4 93  1  0  0  0
  5  6  1  0  0  0
  5 26  1  0  0  0
  5 94  1  0  0  0
  6 25  1  0  0  0
  6 95  1  0  0  0
  6 96  1  0  0  0
  7  8  2  0  0  0
  7 26  1  0  0  0
  7 29  1  0  0  0
  8  9  1  0  0  0
  8 22  1  0  0  0
  9 10  1  0  0  0
  9 27  2  0  0  0
 10 11  2  0  0  0
 10 15  1  0  0  0
 11 12  1  0  0  0
 11 97  1  0  0  0
 12 13  2  0  0  0
 12 98  1  0  0  0
 13 14  1  0  0  0
 13 31  1  0  0  0
 14 15  2  0  0  0
 14 99  1  0  0  0
 15100  1  0  0  0
 16 17  2  0  0  0
 16 21  1  0  0  0
 16 31  1  0  0  0
 17 18  1  0  0  0
 17101  1  0  0  0
 18 19  2  0  0  0
 18102  1  0  0  0
 19 20  1  0  0  0
 19 24  1  0  0  0
 20 21  2  0  0  0
 20103  1  0  0  0
 21 23  1  0  0  0
 22 28  1  0  0  0
 22 32  2  0  0  0
 26 27  1  0  0  0
 28104  1  0  0  0
 28105  1  0  0  0
 29106  1  0  0  0
 29107  1  0  0  0
 33 34  1  0  0  0
 33 66  1  0  0  0
 33 70  2  0  0  0
 34 36  1  0  0  0
 34 59  1  0  0  0
 34108  1  0  0  0
 35 44  2  0  0  0
 35 45  1  0  0  0
 35 68  1  0  0  0
 36 56  1  0  0  0
 36109  1  0  0  0
 37 39  1  0  0  0
 37 47  1  0  0  0
 37 66  1  0  0  0
 37110  1  0  0  0
 38 43  2  0  0  0
 38 46  1  0  0  0
 38 47  1  0  0  0
 39 64  1  0  0  0
 39 67  2  0  0  0
 40 52  1  0  0  0
 40 53  2  0  0  0
 40 58  1  0  0  0
 41111  1  0  0  0
 41112  1  0  0  0
 41113  1  0  0  0
 41 48  1  0  0  0
 42 43  1  0  0  0
 42 66  1  0  0  0
 42114  1  0  0  0
 42115  1  0  0  0
 43 44  1  0  0  0
 44116  1  0  0  0
 45 46  2  0  0  0
 45117  1  0  0  0
 46118  1  0  0  0
 47119  1  0  0  0
 47120  1  0  0  0
 48 56  1  0  0  0
 48 65  1  0  0  0
 48121  1  0  0  0
 49 50  1  0  0  0
 49 53  1  0  0  0
 49 64  1  0  0  0
 49122  1  0  0  0
 50 51  1  0  0  0
 50123  1  0  0  0
 50124  1  0  0  0
 51 52  1  0  0  0
 51125  1  0  0  0
 51126  1  0  0  0
 52127  1  0  0  0
 52128  1  0  0  0
 53 54  1  0  0  0
 54 55  2  0  0  0
 54129  1  0  0  0
 55 57  1  0  0  0
 55130  1  0  0  0
 56 69  2  0  0  0
 57 58  2  0  0  0
 57131  1  0  0  0
 58132  1  0  0  0
 59 60  1  0  0  0
 59 61  1  0  0  0
 59 62  1  0  0  0
 60133  1  0  0  0
 60134  1  0  0  0
 60135  1  0  0  0
 61136  1  0  0  0
 61137  1  0  0  0
 61138  1  0  0  0
 62139  1  0  0  0
 62140  1  0  0  0
 62141  1  0  0  0
 63 65  1  0  0  0
 63142  1  0  0  0
 63143  1  0  0  0
 63144  1  0  0  0
 64145  1  0  0  0
 65146  1  0  0  0
 68 79  1  0  0  0
 71 76  1  0  0  0
 71 77  1  0  0  0
 71147  1  0  0  0
 71148  1  0  0  0
 72 74  1  0  0  0
 72149  1  0  0  0
 72150  1  0  0  0
 72 78  1  0  0  0
 73 75  1  0  0  0
 73 78  1  0  0  0
 73151  1  0  0  0
 73152  1  0  0  0
 74 79  1  0  0  0
 74153  1  0  0  0
 74154  1  0  0  0
 75 79  1  0  0  0
 75155  1  0  0  0
 75156  1  0  0  0
 76157  1  0  0  0
 76158  1  0  0  0
 76 80  1  0  0  0
 77 87  1  0  0  0
 77159  1  0  0  0
 77160  1  0  0  0
 78 84  1  0  0  0
 78161  1  0  0  0
 79162  1  0  0  0
 80 84  1  0  0  0
 80 87  1  0  0  0
 80163  1  0  0  0
 81164  1  0  0  0
 81165  1  0  0  0
 81166  1  0  0  0
 81 84  1  0  0  0
 82167  1  0  0  0
 82168  1  0  0  0
 82169  1  0  0  0
 82 85  1  0  0  0
 83 85  1  0  0  0
 83170  1  0  0  0
 83171  1  0  0  0
 83 87  1  0  0  0
 84172  1  0  0  0
 85 86  1  0  0  0
 85173  1  0  0  0
 86174  1  0  0  0
 87175  1  0  0  0
M  CHG  1  87   1
M  ISO  4   1 100  68 101  79 101  86 100
M  END
> <chiral flag>
0

> <version>
0

> <s_m_source_file>
/data/baiqing/PycharmProjects/Reinvent-master-3.2/result/LINK_invent/BTK/process_docking_weight1_custom_sum_contain_oxygen_bond_distance_aromatic_linkinvent_7_9_3/rearranged_h_0147.sdf

> <i_m_source_file_index>
1

> <r_mmod_Potential_Energy-OPLS-2005>
-40.2490882873535

> <r_mmod_Stretch_Energy-OPLS-2005>
48.1038360595703

> <r_mmod_Bend_Energy-OPLS-2005>
131.653411865234

> <r_mmod_Torsional_Energy-OPLS-2005>
329.311248779297

> <r_mmod_Improper_Torsional_Energy-OPLS-2005>
1.78725028038025

> <r_mmod_Van_der_Waal_Energy-OPLS-2005>
129.274993896484

> <r_mmod_Electrostatic_Energy-OPLS-2005>
-280.387023925781

> <r_mmod_Solvation_Energy-OPLS-2005>
-411.088989257812

> <b_mmod_Minimization_Converged-OPLS-2005>
0

> <r_mmod_RMS_Derivative-OPLS-2005>
5.90040397644043

$$$$
1
                    3D
 Structure written by MMmdl.
176185  0  0  1  0            999 V2000
  -30.7039  -14.4704   20.5780 C   0  0  0  0  0  0
  -30.4213  -12.3050   19.4221 C   0  0  0  0  0  0
  -29.4938  -12.5026   18.2056 C   0  0  0  0  0  0
  -28.0146  -12.3654   18.6173 C   0  0  0  0  0  0
  -27.6610  -13.2062   19.8735 C   0  0  2  0  0  0
  -28.7019  -12.9863   20.9946 C   0  0  0  0  0  0
  -25.2586  -13.8160   20.5673 C   0  0  0  0  0  0
  -24.1839  -13.0439   20.9176 C   0  0  0  0  0  0
  -24.6391  -11.6907   20.8739 C   0  0  0  0  0  0
  -23.9056  -10.4292   21.0407 C   0  0  0  0  0  0
  -24.3613   -9.4207   21.9182 C   0  0  0  0  0  0
  -23.6291   -8.2241   22.0753 C   0  0  0  0  0  0
  -22.4272   -8.0281   21.3543 C   0  0  0  0  0  0
  -21.9906   -9.0251   20.4644 C   0  0  0  0  0  0
  -22.7232  -10.2131   20.3053 C   0  0  0  0  0  0
  -21.6851   -6.0737   22.5280 C   0  0  0  0  0  0
  -21.4012   -6.5640   23.8214 C   0  0  0  0  0  0
  -21.3657   -5.6792   24.9174 C   0  0  0  0  0  0
  -21.6044   -4.3054   24.7225 C   0  0  0  0  0  0
  -21.8820   -3.8146   23.4345 C   0  0  0  0  0  0
  -21.9193   -4.6964   22.3401 C   0  0  0  0  0  0
  -22.7862  -13.5239   21.1840 C   0  0  0  0  0  0
  -22.1662   -4.2150   21.0979 F   0  0  0  0  0  0
  -21.5628   -3.4535   25.7736 F   0  0  0  0  0  0
  -30.0334  -13.2918   20.4437 N   0  0  0  0  0  0
  -26.3019  -12.9327   20.3352 N   0  0  0  0  0  0
  -25.9316  -11.6491   20.5762 N   0  0  0  0  0  0
  -22.0495  -12.8236   22.0394 N   0  0  0  0  0  0
  -25.4313  -15.1879   20.4081 N   0  0  0  0  0  0
  -31.8306  -14.6304   20.0964 O   0  0  0  0  0  0
  -21.6637   -6.8878   21.4241 O   0  0  0  0  0  0
  -22.3557  -14.5549   20.6693 O   0  0  0  0  0  0
  -24.6143  -31.8673   23.2091 C   0  0  0  0  0  0
  -25.9039  -32.4817   23.8387 C   0  0  1  0  0  0
  -27.2347  -27.4385   20.1066 C   0  0  0  0  0  0
  -25.5903  -33.8614   24.2330 N   0  0  0  0  0  0
  -23.4020  -30.4894   21.5493 C   0  0  2  0  0  0
  -24.8496  -28.9508   20.1183 C   0  0  0  0  0  0
  -22.7405  -29.4655   22.4995 C   0  0  0  0  0  0
  -18.0270  -28.1375   22.8488 C   0  0  0  0  0  0
  -24.1488  -36.7317   23.2638 C   0  0  0  0  0  0
  -25.9284  -30.8368   21.3577 C   0  0  0  0  0  0
  -26.0083  -29.4683   20.7118 C   0  0  0  0  0  0
  -27.2071  -28.7206   20.6994 C   0  0  0  0  0  0
  -26.0631  -26.9295   19.5099 C   0  0  0  0  0  0
  -24.8712  -27.6808   19.5134 C   0  0  0  0  0  0
  -23.6106  -29.8167   20.1651 C   0  0  0  0  0  0
  -25.4107  -36.3109   24.0341 C   0  0  1  0  0  0
  -20.5858  -28.3658   23.1327 C   0  0  2  0  0  0
  -20.6762  -26.9396   22.5421 C   0  0  0  0  0  0
  -19.5748  -26.6385   21.5210 C   0  0  0  0  0  0
  -18.1924  -26.7923   22.1616 C   0  0  0  0  0  0
  -19.1517  -28.8833   23.2903 C   0  0  0  0  0  0
  -18.9447  -30.1442   23.8908 C   0  0  0  0  0  0
  -17.6449  -30.6583   24.0565 C   0  0  0  0  0  0
  -25.9034  -34.9474   23.5132 C   0  0  0  0  0  0
  -16.5340  -29.9086   23.6326 C   0  0  0  0  0  0
  -16.7259  -28.6504   23.0339 C   0  0  0  0  0  0
  -26.4475  -31.6582   25.0700 C   0  0  0  0  0  0
  -25.3758  -31.3669   26.1460 C   0  0  0  0  0  0
  -27.0280  -30.3025   24.6034 C   0  0  0  0  0  0
  -27.6067  -32.4278   25.7459 C   0  0  0  0  0  0
  -27.5580  -37.1815   24.8463 C   0  0  0  0  0  0
  -21.4132  -29.3028   22.3737 N   0  0  0  0  0  0
  -26.4291  -37.3794   23.9410 N   0  0  0  0  0  0
  -24.6666  -31.0787   22.0981 N   0  0  0  0  0  0
  -23.4182  -28.8201   23.3037 O   0  0  0  0  0  0
  -28.3976  -26.7055   20.0735 O   0  0  0  0  0  0
  -26.5587  -34.8925   22.4686 O   0  0  0  0  0  0
  -23.5340  -32.1418   23.7500 O   0  0  0  0  0  0
  -29.5617  -19.0413   22.0910 C   0  0  0  0  0  0
  -29.2994  -17.6772   21.8464 C   0  0  0  0  0  0
  -30.8373  -19.6010   21.8146 C   0  0  0  0  0  0
  -30.3032  -16.8526   21.3083 C   0  0  0  0  0  0
  -31.7741  -18.6977   21.2253 C   0  0  0  0  0  0
  -29.9997  -21.8592   22.9051 C   0  0  0  0  0  0
  -31.7812  -21.9412   21.1449 C   0  0  0  0  0  0
  -29.0200  -22.4926   21.8849 C   0  0  0  0  0  0
  -30.7277  -22.5310   20.1855 C   0  0  0  0  0  0
  -31.2133  -21.0489   22.3057 C   0  0  2  0  0  0
  -32.7438  -22.1574   24.2027 C   0  0  0  0  0  0
  -31.9386  -19.8059   24.4988 C   0  0  0  0  0  0
  -34.0030  -18.1475   20.2382 C   0  0  0  0  0  0
  -28.9471  -24.2914   20.1067 C   0  0  0  0  0  0
  -28.4121  -25.5217   20.8878 C   0  0  0  0  0  0
  -32.2997  -20.8817   23.4487 C   0  0  0  0  0  0
  -31.4937  -17.3985   20.9855 N   0  0  0  0  0  0
  -29.9932  -15.4653   21.1564 N   0  0  0  0  0  0
  -33.0823  -19.0718   20.8907 N   0  0  0  0  0  0
  -29.7687  -23.3654   20.9470 N   0  3  1  0  0  0
  -31.4655  -12.3987   19.1193 H   0  0  0  0  0  0
  -30.3207  -11.2943   19.8208 H   0  0  0  0  0  0
  -29.7329  -11.7759   17.4278 H   0  0  0  0  0  0
  -29.6641  -13.4872   17.7666 H   0  0  0  0  0  0
  -27.8230  -11.3098   18.8131 H   0  0  0  0  0  0
  -27.3649  -12.6405   17.7854 H   0  0  0  0  0  0
  -27.7050  -14.2538   19.5746 H   0  0  0  0  0  0
  -28.6783  -11.9498   21.3344 H   0  0  0  0  0  0
  -28.4603  -13.5827   21.8752 H   0  0  0  0  0  0
  -25.2758   -9.5685   22.4754 H   0  0  0  0  0  0
  -24.0001   -7.4632   22.7472 H   0  0  0  0  0  0
  -21.0835   -8.8768   19.8953 H   0  0  0  0  0  0
  -22.3690  -10.9668   19.6160 H   0  0  0  0  0  0
  -21.2004   -7.6149   23.9719 H   0  0  0  0  0  0
  -21.1477   -6.0518   25.9078 H   0  0  0  0  0  0
  -22.0601   -2.7609   23.2841 H   0  0  0  0  0  0
  -22.4099  -11.9888   22.4776 H   0  0  0  0  0  0
  -21.1115  -13.1272   22.2594 H   0  0  0  0  0  0
  -24.6616  -15.8406   20.5110 H   0  0  0  0  0  0
  -26.2784  -15.6265   20.0696 H   0  0  0  0  0  0
  -26.7111  -32.5538   23.1157 H   0  0  0  0  0  0
  -25.0075  -33.9769   25.0492 H   0  0  0  0  0  0
  -22.6910  -31.3062   21.4087 H   0  0  0  0  0  0
  -23.3742  -35.9655   23.3294 H   0  0  0  0  0  0
  -24.3593  -36.8927   22.2052 H   0  0  0  0  0  0
  -23.7241  -37.6525   23.6648 H   0  0  0  0  0  0
  -26.0319  -31.5987   20.5839 H   0  0  0  0  0  0
  -26.8208  -30.8984   21.9687 H   0  0  0  0  0  0
  -28.1055  -29.1195   21.1497 H   0  0  0  0  0  0
  -26.0745  -25.9578   19.0362 H   0  0  0  0  0  0
  -23.9813  -27.2780   19.0491 H   0  0  0  0  0  0
  -23.7173  -30.5889   19.4027 H   0  0  0  0  0  0
  -22.7354  -29.2338   19.8716 H   0  0  0  0  0  0
  -25.1283  -36.1975   25.0835 H   0  0  0  0  0  0
  -20.9948  -28.3215   24.1450 H   0  0  0  0  0  0
  -20.5661  -26.2261   23.3600 H   0  0  0  0  0  0
  -21.6635  -26.7445   22.1217 H   0  0  0  0  0  0
  -19.6908  -25.6301   21.1225 H   0  0  0  0  0  0
  -19.6696  -27.3208   20.6752 H   0  0  0  0  0  0
  -17.4199  -26.6672   21.4013 H   0  0  0  0  0  0
  -18.0323  -26.0064   22.9011 H   0  0  0  0  0  0
  -19.7923  -30.7253   24.2283 H   0  0  0  0  0  0
  -17.5006  -31.6263   24.5161 H   0  0  0  0  0  0
  -15.5341  -30.2991   23.7647 H   0  0  0  0  0  0
  -15.8659  -28.0834   22.7039 H   0  0  0  0  0  0
  -24.5952  -30.6985   25.7808 H   0  0  0  0  0  0
  -24.8926  -32.2809   26.4919 H   0  0  0  0  0  0
  -25.8144  -30.8848   27.0207 H   0  0  0  0  0  0
  -26.2791  -29.6800   24.1123 H   0  0  0  0  0  0
  -27.4093  -29.7245   25.4461 H   0  0  0  0  0  0
  -27.8613  -30.4339   23.9128 H   0  0  0  0  0  0
  -27.2708  -33.3580   26.2051 H   0  0  0  0  0  0
  -28.3878  -32.6820   25.0283 H   0  0  0  0  0  0
  -28.0726  -31.8377   26.5359 H   0  0  0  0  0  0
  -28.2603  -38.0107   24.7511 H   0  0  0  0  0  0
  -28.1069  -36.2640   24.6290 H   0  0  0  0  0  0
  -27.2299  -37.1465   25.8866 H   0  0  0  0  0  0
  -20.9290  -29.8749   21.6961 H   0  0  0  0  0  0
  -26.0177  -38.2871   24.1413 H   0  0  0  0  0  0
  -28.7709  -19.6176   22.5428 H   0  0  0  0  0  0
  -28.3297  -17.2743   22.1060 H   0  0  0  0  0  0
  -29.4613  -21.2901   23.6616 H   0  0  0  0  0  0
  -30.3744  -22.7174   23.4577 H   0  0  0  0  0  0
  -32.3071  -22.7974   21.5602 H   0  0  0  0  0  0
  -32.5398  -21.4433   20.5514 H   0  0  0  0  0  0
  -28.2728  -23.0774   22.4223 H   0  0  0  0  0  0
  -28.4739  -21.7252   21.3346 H   0  0  0  0  0  0
  -30.2062  -21.7390   19.6455 H   0  0  0  0  0  0
  -31.2392  -23.1354   19.4353 H   0  0  0  0  0  0
  -33.0265  -22.9775   23.5461 H   0  0  0  0  0  0
  -33.6224  -21.9449   24.8129 H   0  0  0  0  0  0
  -31.9807  -22.5203   24.8909 H   0  0  0  0  0  0
  -31.8521  -18.8084   24.0690 H   0  0  0  0  0  0
  -30.9982  -20.0345   25.0001 H   0  0  0  0  0  0
  -32.7078  -19.7362   25.2686 H   0  0  0  0  0  0
  -34.9585  -18.6345   20.0425 H   0  0  0  0  0  0
  -33.5964  -17.8036   19.2863 H   0  0  0  0  0  0
  -34.1892  -17.2761   20.8672 H   0  0  0  0  0  0
  -29.5848  -24.6742   19.3095 H   0  0  0  0  0  0
  -28.1352  -23.7588   19.6111 H   0  0  0  0  0  0
  -29.0717  -25.7454   21.7270 H   0  0  0  0  0  0
  -27.4377  -25.2954   21.3256 H   0  0  0  0  0  0
  -33.2150  -20.5286   22.9777 H   0  0  0  0  0  0
  -29.0832  -15.1871   21.4831 H   0  0  0  0  0  0
  -33.3931  -20.0203   21.0625 H   0  0  0  0  0  0
  -30.3406  -23.9760   21.5127 H   0  0  0  0  0  0
  1 25  1  0  0  0
  1 30  2  0  0  0
  1 88  1  0  0  0
  2  3  1  0  0  0
  2 25  1  0  0  0
  2 91  1  0  0  0
  2 92  1  0  0  0
  3  4  1  0  0  0
  3 93  1  0  0  0
  3 94  1  0  0  0
  4  5  1  0  0  0
  4 95  1  0  0  0
  4 96  1  0  0  0
  5  6  1  0  0  0
  5 26  1  0  0  0
  5 97  1  0  0  0
  6 25  1  0  0  0
  6 98  1  0  0  0
  6 99  1  0  0  0
  7  8  2  0  0  0
  7 26  1  0  0  0
  7 29  1  0  0  0
  8  9  1  0  0  0
  8 22  1  0  0  0
  9 10  1  0  0  0
  9 27  2  0  0  0
 10 11  2  0  0  0
 10 15  1  0  0  0
 11 12  1  0  0  0
 11100  1  0  0  0
 12 13  2  0  0  0
 12101  1  0  0  0
 13 14  1  0  0  0
 13 31  1  0  0  0
 14 15  2  0  0  0
 14102  1  0  0  0
 15103  1  0  0  0
 16 17  2  0  0  0
 16 21  1  0  0  0
 16 31  1  0  0  0
 17 18  1  0  0  0
 17104  1  0  0  0
 18 19  2  0  0  0
 18105  1  0  0  0
 19 20  1  0  0  0
 19 24  1  0  0  0
 20 21  2  0  0  0
 20106  1  0  0  0
 21 23  1  0  0  0
 22 28  1  0  0  0
 22 32  2  0  0  0
 26 27  1  0  0  0
 28107  1  0  0  0
 28108  1  0  0  0
 29109  1  0  0  0
 29110  1  0  0  0
 33 34  1  0  0  0
 33 66  1  0  0  0
 33 70  2  0  0  0
 34 36  1  0  0  0
 34 59  1  0  0  0
 34111  1  0  0  0
 35 44  2  0  0  0
 35 45  1  0  0  0
 35 68  1  0  0  0
 36 56  1  0  0  0
 36112  1  0  0  0
 37 39  1  0  0  0
 37 47  1  0  0  0
 37 66  1  0  0  0
 37113  1  0  0  0
 38 43  2  0  0  0
 38 46  1  0  0  0
 38 47  1  0  0  0
 39 64  1  0  0  0
 39 67  2  0  0  0
 40 52  1  0  0  0
 40 53  2  0  0  0
 40 58  1  0  0  0
 41114  1  0  0  0
 41115  1  0  0  0
 41116  1  0  0  0
 41 48  1  0  0  0
 42 43  1  0  0  0
 42 66  1  0  0  0
 42117  1  0  0  0
 42118  1  0  0  0
 43 44  1  0  0  0
 44119  1  0  0  0
 45 46  2  0  0  0
 45120  1  0  0  0
 46121  1  0  0  0
 47122  1  0  0  0
 47123  1  0  0  0
 48 56  1  0  0  0
 48 65  1  0  0  0
 48124  1  0  0  0
 49 50  1  0  0  0
 49 53  1  0  0  0
 49 64  1  0  0  0
 49125  1  0  0  0
 50 51  1  0  0  0
 50126  1  0  0  0
 50127  1  0  0  0
 51 52  1  0  0  0
 51128  1  0  0  0
 51129  1  0  0  0
 52130  1  0  0  0
 52131  1  0  0  0
 53 54  1  0  0  0
 54 55  2  0  0  0
 54132  1  0  0  0
 55 57  1  0  0  0
 55133  1  0  0  0
 56 69  2  0  0  0
 57 58  2  0  0  0
 57134  1  0  0  0
 58135  1  0  0  0
 59 60  1  0  0  0
 59 61  1  0  0  0
 59 62  1  0  0  0
 60136  1  0  0  0
 60137  1  0  0  0
 60138  1  0  0  0
 61139  1  0  0  0
 61140  1  0  0  0
 61141  1  0  0  0
 62142  1  0  0  0
 62143  1  0  0  0
 62144  1  0  0  0
 63 65  1  0  0  0
 63145  1  0  0  0
 63146  1  0  0  0
 63147  1  0  0  0
 64148  1  0  0  0
 65149  1  0  0  0
 68 85  1  0  0  0
 71 72  2  0  0  0
 71 73  1  0  0  0
 71150  1  0  0  0
 72 74  1  0  0  0
 72151  1  0  0  0
 73 75  2  0  0  0
 73 80  1  0  0  0
 74 87  2  0  0  0
 74 88  1  0  0  0
 75 87  1  0  0  0
 75 89  1  0  0  0
 76 78  1  0  0  0
 76 80  1  0  0  0
 76152  1  0  0  0
 76153  1  0  0  0
 77 79  1  0  0  0
 77 80  1  0  0  0
 77154  1  0  0  0
 77155  1  0  0  0
 78 90  1  0  0  0
 78156  1  0  0  0
 78157  1  0  0  0
 79 90  1  0  0  0
 79158  1  0  0  0
 79159  1  0  0  0
 80 86  1  0  0  0
 81160  1  0  0  0
 81161  1  0  0  0
 81162  1  0  0  0
 81 86  1  0  0  0
 82 86  1  0  0  0
 82163  1  0  0  0
 82164  1  0  0  0
 82165  1  0  0  0
 83 89  1  0  0  0
 83166  1  0  0  0
 83167  1  0  0  0
 83168  1  0  0  0
 84 85  1  0  0  0
 84169  1  0  0  0
 84170  1  0  0  0
 84 90  1  0  0  0
 85171  1  0  0  0
 85172  1  0  0  0
 86173  1  0  0  0
 88174  1  0  0  0
 89175  1  0  0  0
 90176  1  0  0  0
M  CHG  1  90   1
M  ISO  4   1 100  68 101  85 101  88 100
M  END
> <chiral flag>
0

> <version>
0

> <s_m_source_file>
/data/baiqing/PycharmProjects/Reinvent-master-3.2/result/LINK_invent/BTK/process_docking_weight1_custom_sum_contain_oxygen_bond_distance_aromatic_linkinvent_7_9_3/rearranged_h_0147.sdf

> <i_m_source_file_index>
2

> <r_mmod_Potential_Energy-OPLS-2005>
-230.42658996582

> <r_mmod_Stretch_Energy-OPLS-2005>
52.9111061096191

> <r_mmod_Bend_Energy-OPLS-2005>
143.824401855469

> <r_mmod_Torsional_Energy-OPLS-2005>
271.438201904297

> <r_mmod_Improper_Torsional_Energy-OPLS-2005>
3.82265973091125

> <r_mmod_Van_der_Waal_Energy-OPLS-2005>
182.841644287109

> <r_mmod_Electrostatic_Energy-OPLS-2005>
-433.903533935547

> <r_mmod_Solvation_Energy-OPLS-2005>
-462.835998535156

> <b_mmod_Minimization_Converged-OPLS-2005>
0

> <r_mmod_RMS_Derivative-OPLS-2005>
0.745862722396851

$$$$
2
                    3D
 Structure written by MMmdl.
164173  0  0  1  0            999 V2000
  -30.5624  -14.7962   20.4494 C   0  0  0  0  0  0
  -30.4361  -12.4919   19.4517 C   0  0  0  0  0  0
  -29.4986  -12.4992   18.2220 C   0  0  0  0  0  0
  -28.0294  -12.3136   18.6507 C   0  0  0  0  0  0
  -27.6341  -13.2259   19.8414 C   0  0  2  0  0  0
  -28.6826  -13.1731   20.9689 C   0  0  0  0  0  0
  -25.2479  -13.8171   20.5672 C   0  0  0  0  0  0
  -24.1787  -13.0426   20.9228 C   0  0  0  0  0  0
  -24.6374  -11.6901   20.8777 C   0  0  0  0  0  0
  -23.9045  -10.4290   21.0412 C   0  0  0  0  0  0
  -24.3590   -9.4216   21.9208 C   0  0  0  0  0  0
  -23.6253   -8.2260   22.0783 C   0  0  0  0  0  0
  -22.4255   -8.0291   21.3542 C   0  0  0  0  0  0
  -21.9899   -9.0264   20.4635 C   0  0  0  0  0  0
  -22.7220  -10.2146   20.3050 C   0  0  0  0  0  0
  -21.6839   -6.0744   22.5276 C   0  0  0  0  0  0
  -21.4021   -6.5651   23.8214 C   0  0  0  0  0  0
  -21.3638   -5.6800   24.9173 C   0  0  0  0  0  0
  -21.6034   -4.3063   24.7222 C   0  0  0  0  0  0
  -21.8816   -3.8160   23.4339 C   0  0  0  0  0  0
  -21.9198   -4.6978   22.3398 C   0  0  0  0  0  0
  -22.7818  -13.5211   21.1909 C   0  0  0  0  0  0
  -22.1656   -4.2171   21.0977 F   0  0  0  0  0  0
  -21.5620   -3.4542   25.7723 F   0  0  0  0  0  0
  -29.9655  -13.5559   20.3675 N   0  0  0  0  0  0
  -26.2895  -12.9369   20.3259 N   0  0  0  0  0  0
  -25.9307  -11.6516   20.5808 N   0  0  0  0  0  0
  -22.0500  -12.8194   22.0479 N   0  0  0  0  0  0
  -25.4149  -15.1884   20.3996 N   0  0  0  0  0  0
  -31.7739  -14.9031   20.2379 O   0  0  0  0  0  0
  -21.6620   -6.8888   21.4236 O   0  0  0  0  0  0
  -22.3487  -14.5515   20.6754 O   0  0  0  0  0  0
  -24.6345  -31.8510   23.1933 C   0  0  0  0  0  0
  -25.9152  -32.4731   23.8301 C   0  0  1  0  0  0
  -27.2240  -27.2323   20.1458 C   0  0  0  0  0  0
  -25.5927  -33.8533   24.2222 N   0  0  0  0  0  0
  -23.4346  -30.4696   21.5361 C   0  0  2  0  0  0
  -24.8833  -28.9022   20.1172 C   0  0  0  0  0  0
  -22.7521  -29.4581   22.4886 C   0  0  0  0  0  0
  -18.0298  -28.1394   22.8480 C   0  0  0  0  0  0
  -24.1494  -36.7277   23.2643 C   0  0  0  0  0  0
  -25.9811  -30.7554   21.3771 C   0  0  0  0  0  0
  -26.0560  -29.3726   20.7231 C   0  0  0  0  0  0
  -27.2330  -28.5528   20.7177 C   0  0  0  0  0  0
  -26.0289  -26.8246   19.5221 C   0  0  0  0  0  0
  -24.8761  -27.6379   19.5043 C   0  0  0  0  0  0
  -23.6570  -29.7952   20.1562 C   0  0  0  0  0  0
  -25.4123  -36.3056   24.0321 C   0  0  1  0  0  0
  -20.5903  -28.3713   23.1252 C   0  0  2  0  0  0
  -20.6780  -26.9423   22.5400 C   0  0  0  0  0  0
  -19.5754  -26.6384   21.5209 C   0  0  0  0  0  0
  -18.1938  -26.7934   22.1625 C   0  0  0  0  0  0
  -19.1552  -28.8869   23.2861 C   0  0  0  0  0  0
  -18.9473  -30.1466   23.8885 C   0  0  0  0  0  0
  -17.6471  -30.6589   24.0565 C   0  0  0  0  0  0
  -25.9063  -34.9426   23.5080 C   0  0  0  0  0  0
  -16.5362  -29.9087   23.6332 C   0  0  0  0  0  0
  -16.7284  -28.6506   23.0353 C   0  0  0  0  0  0
  -26.4510  -31.6575   25.0712 C   0  0  0  0  0  0
  -25.3718  -31.3732   26.1422 C   0  0  0  0  0  0
  -27.0371  -30.2983   24.6237 C   0  0  0  0  0  0
  -27.6047  -32.4336   25.7493 C   0  0  0  0  0  0
  -27.5578  -37.1795   24.8465 C   0  0  0  0  0  0
  -21.4224  -29.3057   22.3634 N   0  0  0  0  0  0
  -26.4293  -37.3757   23.9405 N   0  0  0  0  0  0
  -24.7023  -31.0447   22.0918 N   0  0  0  0  0  0
  -23.4194  -28.8135   23.3016 O   0  0  0  0  0  0
  -28.3189  -26.3340   20.1298 O   0  0  0  0  0  0
  -26.5642  -34.8909   22.4654 O   0  0  0  0  0  0
  -23.5486  -32.1342   23.7207 O   0  0  0  0  0  0
  -25.8688  -20.4962   22.4456 C   0  0  0  0  0  0
  -27.4936  -18.7590   22.0859 C   0  0  0  0  0  0
  -28.3046  -19.6131   21.2672 C   0  0  0  0  0  0
  -26.2328  -19.1624   22.5584 C   0  0  0  0  0  0
  -26.7491  -21.4422   21.9021 C   0  0  0  0  0  0
  -27.9525  -21.0767   21.2038 C   0  0  0  0  0  0
  -27.9823  -17.3870   22.5505 C   0  0  0  0  0  0
  -29.4338  -18.7599   20.5012 C   0  0  0  0  0  0
  -29.5050  -17.2736   22.5679 C   0  0  0  0  0  0
  -30.0046  -17.3366   21.1354 C   0  0  1  0  0  0
  -25.2739  -18.2022   23.2528 C   0  0  0  0  0  0
  -26.3522  -22.8603   22.2500 C   0  0  0  0  0  0
  -28.2110  -24.9699   20.7834 C   0  0  0  0  0  0
  -28.2117  -23.4803   20.0535 C   0  0  0  0  0  0
  -29.7425  -15.9225   20.5684 N   0  0  0  0  0  0
  -28.7275  -22.1502   20.6300 O   0  0  0  0  0  0
  -31.4664  -12.6545   19.1313 H   0  0  0  0  0  0
  -30.4237  -11.5208   19.9479 H   0  0  0  0  0  0
  -29.7846  -11.7103   17.5249 H   0  0  0  0  0  0
  -29.6069  -13.4394   17.6795 H   0  0  0  0  0  0
  -27.9009  -11.2684   18.9325 H   0  0  0  0  0  0
  -27.3611  -12.4832   17.8052 H   0  0  0  0  0  0
  -27.6204  -14.2435   19.4516 H   0  0  0  0  0  0
  -28.7403  -12.1749   21.4063 H   0  0  0  0  0  0
  -28.4114  -13.8492   21.7807 H   0  0  0  0  0  0
  -25.2725   -9.5712   22.4797 H   0  0  0  0  0  0
  -23.9941   -7.4689   22.7552 H   0  0  0  0  0  0
  -21.0849   -8.8754   19.8908 H   0  0  0  0  0  0
  -22.3663  -10.9685   19.6165 H   0  0  0  0  0  0
  -21.2014   -7.6170   23.9724 H   0  0  0  0  0  0
  -21.1437   -6.0523   25.9070 H   0  0  0  0  0  0
  -22.0603   -2.7617   23.2829 H   0  0  0  0  0  0
  -22.4165  -11.9850   22.4816 H   0  0  0  0  0  0
  -21.1107  -13.1140   22.2702 H   0  0  0  0  0  0
  -24.6324  -15.8280   20.4780 H   0  0  0  0  0  0
  -26.2327  -15.6156   19.9880 H   0  0  0  0  0  0
  -26.7220  -32.5375   23.1040 H   0  0  0  0  0  0
  -25.0053  -33.9659   25.0353 H   0  0  0  0  0  0
  -22.7340  -31.2929   21.3823 H   0  0  0  0  0  0
  -23.3756  -35.9609   23.3299 H   0  0  0  0  0  0
  -24.3580  -36.8911   22.2058 H   0  0  0  0  0  0
  -23.7251  -37.6473   23.6682 H   0  0  0  0  0  0
  -26.1235  -31.5137   20.6063 H   0  0  0  0  0  0
  -26.8556  -30.8063   22.0140 H   0  0  0  0  0  0
  -28.1375  -28.9118   21.1893 H   0  0  0  0  0  0
  -25.9839  -25.8520   19.0519 H   0  0  0  0  0  0
  -23.9788  -27.2719   19.0248 H   0  0  0  0  0  0
  -23.7888  -30.5656   19.3956 H   0  0  0  0  0  0
  -22.7756  -29.2293   19.8504 H   0  0  0  0  0  0
  -25.1313  -36.1891   25.0814 H   0  0  0  0  0  0
  -21.0001  -28.3302   24.1372 H   0  0  0  0  0  0
  -20.5677  -26.2331   23.3615 H   0  0  0  0  0  0
  -21.6652  -26.7437   22.1202 H   0  0  0  0  0  0
  -19.6919  -25.6291   21.1251 H   0  0  0  0  0  0
  -19.6692  -27.3182   20.6730 H   0  0  0  0  0  0
  -17.4207  -26.6675   21.4031 H   0  0  0  0  0  0
  -18.0348  -26.0078   22.9024 H   0  0  0  0  0  0
  -19.7948  -30.7286   24.2250 H   0  0  0  0  0  0
  -17.5026  -31.6270   24.5171 H   0  0  0  0  0  0
  -15.5362  -30.2988   23.7664 H   0  0  0  0  0  0
  -15.8686  -28.0822   22.7077 H   0  0  0  0  0  0
  -24.5900  -30.7078   25.7744 H   0  0  0  0  0  0
  -24.8908  -32.2903   26.4828 H   0  0  0  0  0  0
  -25.8025  -30.8918   27.0210 H   0  0  0  0  0  0
  -26.2968  -29.6710   24.1258 H   0  0  0  0  0  0
  -27.4027  -29.7278   25.4786 H   0  0  0  0  0  0
  -27.8859  -30.4245   23.9512 H   0  0  0  0  0  0
  -27.2634  -33.3643   26.2039 H   0  0  0  0  0  0
  -28.3871  -32.6884   25.0334 H   0  0  0  0  0  0
  -28.0699  -31.8487   26.5434 H   0  0  0  0  0  0
  -28.2593  -38.0092   24.7500 H   0  0  0  0  0  0
  -28.1075  -36.2619   24.6312 H   0  0  0  0  0  0
  -27.2289  -37.1469   25.8865 H   0  0  0  0  0  0
  -20.9419  -29.8777   21.6827 H   0  0  0  0  0  0
  -26.0168  -38.2830   24.1393 H   0  0  0  0  0  0
  -24.9388  -20.8148   22.8975 H   0  0  0  0  0  0
  -27.5227  -16.6089   21.9417 H   0  0  0  0  0  0
  -27.6508  -17.2136   23.5748 H   0  0  0  0  0  0
  -30.2830  -19.4353   20.3953 H   0  0  0  0  0  0
  -29.0931  -18.5830   19.4812 H   0  0  0  0  0  0
  -29.8147  -16.3475   23.0556 H   0  0  0  0  0  0
  -29.9330  -18.0856   23.1564 H   0  0  0  0  0  0
  -31.0916  -17.4275   21.1633 H   0  0  0  0  0  0
  -24.2532  -18.5873   23.2542 H   0  0  0  0  0  0
  -25.5667  -18.0432   24.2913 H   0  0  0  0  0  0
  -25.2465  -17.2356   22.7481 H   0  0  0  0  0  0
  -25.9099  -23.3808   21.4026 H   0  0  0  0  0  0
  -27.2198  -23.3763   22.6574 H   0  0  0  0  0  0
  -25.6102  -22.8940   23.0493 H   0  0  0  0  0  0
  -29.0614  -24.9526   21.4632 H   0  0  0  0  0  0
  -27.3519  -25.0711   21.4376 H   0  0  0  0  0  0
  -28.8607  -23.6168   19.1892 H   0  0  0  0  0  0
  -27.2365  -23.3047   19.6012 H   0  0  0  0  0  0
  -28.7626  -15.6932   20.5053 H   0  0  0  0  0  0
  1 25  1  0  0  0
  1 30  2  0  0  0
  1 85  1  0  0  0
  2  3  1  0  0  0
  2 25  1  0  0  0
  2 87  1  0  0  0
  2 88  1  0  0  0
  3  4  1  0  0  0
  3 89  1  0  0  0
  3 90  1  0  0  0
  4  5  1  0  0  0
  4 91  1  0  0  0
  4 92  1  0  0  0
  5  6  1  0  0  0
  5 26  1  0  0  0
  5 93  1  0  0  0
  6 25  1  0  0  0
  6 94  1  0  0  0
  6 95  1  0  0  0
  7  8  2  0  0  0
  7 26  1  0  0  0
  7 29  1  0  0  0
  8  9  1  0  0  0
  8 22  1  0  0  0
  9 10  1  0  0  0
  9 27  2  0  0  0
 10 11  2  0  0  0
 10 15  1  0  0  0
 11 12  1  0  0  0
 11 96  1  0  0  0
 12 13  2  0  0  0
 12 97  1  0  0  0
 13 14  1  0  0  0
 13 31  1  0  0  0
 14 15  2  0  0  0
 14 98  1  0  0  0
 15 99  1  0  0  0
 16 17  2  0  0  0
 16 21  1  0  0  0
 16 31  1  0  0  0
 17 18  1  0  0  0
 17100  1  0  0  0
 18 19  2  0  0  0
 18101  1  0  0  0
 19 20  1  0  0  0
 19 24  1  0  0  0
 20 21  2  0  0  0
 20102  1  0  0  0
 21 23  1  0  0  0
 22 28  1  0  0  0
 22 32  2  0  0  0
 26 27  1  0  0  0
 28103  1  0  0  0
 28104  1  0  0  0
 29105  1  0  0  0
 29106  1  0  0  0
 33 34  1  0  0  0
 33 66  1  0  0  0
 33 70  2  0  0  0
 34 36  1  0  0  0
 34 59  1  0  0  0
 34107  1  0  0  0
 35 44  2  0  0  0
 35 45  1  0  0  0
 35 68  1  0  0  0
 36 56  1  0  0  0
 36108  1  0  0  0
 37 39  1  0  0  0
 37 47  1  0  0  0
 37 66  1  0  0  0
 37109  1  0  0  0
 38 43  2  0  0  0
 38 46  1  0  0  0
 38 47  1  0  0  0
 39 64  1  0  0  0
 39 67  2  0  0  0
 40 52  1  0  0  0
 40 53  2  0  0  0
 40 58  1  0  0  0
 41110  1  0  0  0
 41111  1  0  0  0
 41112  1  0  0  0
 41 48  1  0  0  0
 42 43  1  0  0  0
 42 66  1  0  0  0
 42113  1  0  0  0
 42114  1  0  0  0
 43 44  1  0  0  0
 44115  1  0  0  0
 45 46  2  0  0  0
 45116  1  0  0  0
 46117  1  0  0  0
 47118  1  0  0  0
 47119  1  0  0  0
 48 56  1  0  0  0
 48 65  1  0  0  0
 48120  1  0  0  0
 49 50  1  0  0  0
 49 53  1  0  0  0
 49 64  1  0  0  0
 49121  1  0  0  0
 50 51  1  0  0  0
 50122  1  0  0  0
 50123  1  0  0  0
 51 52  1  0  0  0
 51124  1  0  0  0
 51125  1  0  0  0
 52126  1  0  0  0
 52127  1  0  0  0
 53 54  1  0  0  0
 54 55  2  0  0  0
 54128  1  0  0  0
 55 57  1  0  0  0
 55129  1  0  0  0
 56 69  2  0  0  0
 57 58  2  0  0  0
 57130  1  0  0  0
 58131  1  0  0  0
 59 60  1  0  0  0
 59 61  1  0  0  0
 59 62  1  0  0  0
 60132  1  0  0  0
 60133  1  0  0  0
 60134  1  0  0  0
 61135  1  0  0  0
 61136  1  0  0  0
 61137  1  0  0  0
 62138  1  0  0  0
 62139  1  0  0  0
 62140  1  0  0  0
 63 65  1  0  0  0
 63141  1  0  0  0
 63142  1  0  0  0
 63143  1  0  0  0
 64144  1  0  0  0
 65145  1  0  0  0
 68 83  1  0  0  0
 71 74  2  0  0  0
 71 75  1  0  0  0
 71146  1  0  0  0
 72 73  2  0  0  0
 72 74  1  0  0  0
 72 77  1  0  0  0
 73 76  1  0  0  0
 73 78  1  0  0  0
 74 81  1  0  0  0
 75 76  2  0  0  0
 75 82  1  0  0  0
 76 86  1  0  0  0
 77 79  1  0  0  0
 77147  1  0  0  0
 77148  1  0  0  0
 78 80  1  0  0  0
 78149  1  0  0  0
 78150  1  0  0  0
 79 80  1  0  0  0
 79151  1  0  0  0
 79152  1  0  0  0
 80 85  1  0  0  0
 80153  1  0  0  0
 81154  1  0  0  0
 81155  1  0  0  0
 81156  1  0  0  0
 82157  1  0  0  0
 82158  1  0  0  0
 82159  1  0  0  0
 83 84  1  0  0  0
 83160  1  0  0  0
 83161  1  0  0  0
 84 86  1  0  0  0
 84162  1  0  0  0
 84163  1  0  0  0
 85164  1  0  0  0
M  ISO  4   1 100  68 101  83 101  85 100
M  END
> <chiral flag>
0

> <version>
0

> <s_m_source_file>
/data/baiqing/PycharmProjects/Reinvent-master-3.2/result/LINK_invent/BTK/process_docking_weight1_custom_sum_contain_oxygen_bond_distance_aromatic_linkinvent_7_9_3/rearranged_h_0147.sdf

> <i_m_source_file_index>
3

> <r_mmod_Potential_Energy-OPLS-2005>
394.446411132812

> <r_mmod_Stretch_Energy-OPLS-2005>
194.750091552734

> <r_mmod_Bend_Energy-OPLS-2005>
269.854187011719

> <r_mmod_Torsional_Energy-OPLS-2005>
284.535980224609

> <r_mmod_Improper_Torsional_Energy-OPLS-2005>
6.49742889404297

> <r_mmod_Van_der_Waal_Energy-OPLS-2005>
152.304306030273

> <r_mmod_Electrostatic_Energy-OPLS-2005>
-409.655670166016

> <r_mmod_Solvation_Energy-OPLS-2005>
-212.031814575195

> <b_mmod_Minimization_Converged-OPLS-2005>
0

> <r_mmod_RMS_Derivative-OPLS-2005>
2.17845988273621

$$$$
3
                    3D
 Structure written by MMmdl.
172181  0  0  1  0            999 V2000
  -30.8077  -14.3474   20.6966 C   0  0  0  0  0  0
  -30.4119  -12.2856   19.4034 C   0  0  0  0  0  0
  -29.4865  -12.5248   18.1988 C   0  0  0  0  0  0
  -28.0128  -12.3790   18.6150 C   0  0  0  0  0  0
  -27.6681  -13.2079   19.8805 C   0  0  2  0  0  0
  -28.7063  -12.9702   21.0020 C   0  0  0  0  0  0
  -25.2619  -13.8182   20.5689 C   0  0  0  0  0  0
  -24.1854  -13.0445   20.9180 C   0  0  0  0  0  0
  -24.6409  -11.6915   20.8723 C   0  0  0  0  0  0
  -23.9069  -10.4291   21.0390 C   0  0  0  0  0  0
  -24.3621   -9.4213   21.9174 C   0  0  0  0  0  0
  -23.6296   -8.2251   22.0756 C   0  0  0  0  0  0
  -22.4282   -8.0278   21.3545 C   0  0  0  0  0  0
  -21.9908   -9.0256   20.4654 C   0  0  0  0  0  0
  -22.7237  -10.2134   20.3049 C   0  0  0  0  0  0
  -21.6850   -6.0739   22.5279 C   0  0  0  0  0  0
  -21.4017   -6.5639   23.8216 C   0  0  0  0  0  0
  -21.3661   -5.6793   24.9173 C   0  0  0  0  0  0
  -21.6041   -4.3060   24.7223 C   0  0  0  0  0  0
  -21.8818   -3.8145   23.4348 C   0  0  0  0  0  0
  -21.9200   -4.6966   22.3400 C   0  0  0  0  0  0
  -22.7882  -13.5248   21.1831 C   0  0  0  0  0  0
  -22.1658   -4.2152   21.0984 F   0  0  0  0  0  0
  -21.5632   -3.4539   25.7739 F   0  0  0  0  0  0
  -30.0536  -13.2385   20.4649 N   0  0  0  0  0  0
  -26.3069  -12.9347   20.3388 N   0  0  0  0  0  0
  -25.9343  -11.6508   20.5766 N   0  0  0  0  0  0
  -22.0510  -12.8238   22.0391 N   0  0  0  0  0  0
  -25.4320  -15.1889   20.4116 N   0  0  0  0  0  0
  -31.8034  -14.6185   20.0160 O   0  0  0  0  0  0
  -21.6640   -6.8876   21.4242 O   0  0  0  0  0  0
  -22.3562  -14.5553   20.6688 O   0  0  0  0  0  0
  -24.6054  -31.8716   23.2168 C   0  0  0  0  0  0
  -25.8959  -32.4853   23.8502 C   0  0  1  0  0  0
  -27.2527  -27.5040   20.0597 C   0  0  0  0  0  0
  -25.5856  -33.8654   24.2438 N   0  0  0  0  0  0
  -23.3976  -30.4909   21.5524 C   0  0  2  0  0  0
  -24.8498  -28.9566   20.1254 C   0  0  0  0  0  0
  -22.7410  -29.4608   22.4975 C   0  0  0  0  0  0
  -18.0266  -28.1407   22.8425 C   0  0  0  0  0  0
  -24.1487  -36.7328   23.2636 C   0  0  0  0  0  0
  -25.9217  -30.8445   21.3744 C   0  0  0  0  0  0
  -26.0007  -29.4833   20.7244 C   0  0  0  0  0  0
  -27.2048  -28.7569   20.7039 C   0  0  0  0  0  0
  -26.0917  -26.9747   19.4642 C   0  0  0  0  0  0
  -24.8822  -27.6910   19.5099 C   0  0  0  0  0  0
  -23.6135  -29.8217   20.1668 C   0  0  0  0  0  0
  -25.4096  -36.3148   24.0369 C   0  0  1  0  0  0
  -20.5850  -28.3648   23.1315 C   0  0  2  0  0  0
  -20.6753  -26.9387   22.5414 C   0  0  0  0  0  0
  -19.5745  -26.6386   21.5209 C   0  0  0  0  0  0
  -18.1914  -26.7938   22.1600 C   0  0  0  0  0  0
  -19.1517  -28.8838   23.2864 C   0  0  0  0  0  0
  -18.9440  -30.1426   23.8900 C   0  0  0  0  0  0
  -17.6447  -30.6578   24.0553 C   0  0  0  0  0  0
  -25.9001  -34.9495   23.5204 C   0  0  0  0  0  0
  -16.5332  -29.9092   23.6327 C   0  0  0  0  0  0
  -16.7258  -28.6538   23.0293 C   0  0  0  0  0  0
  -26.4419  -31.6617   25.0805 C   0  0  0  0  0  0
  -25.3715  -31.3708   26.1596 C   0  0  0  0  0  0
  -27.0221  -30.3062   24.6142 C   0  0  0  0  0  0
  -27.6049  -32.4278   25.7535 C   0  0  0  0  0  0
  -27.5596  -37.1812   24.8452 C   0  0  0  0  0  0
  -21.4133  -29.3012   22.3738 N   0  0  0  0  0  0
  -26.4301  -37.3820   23.9413 N   0  0  0  0  0  0
  -24.6581  -31.0843   22.1069 N   0  0  0  0  0  0
  -23.4204  -28.8114   23.2970 O   0  0  0  0  0  0
  -28.4156  -26.7954   19.9675 O   0  0  0  0  0  0
  -26.5547  -34.8921   22.4751 O   0  0  0  0  0  0
  -23.5250  -32.1379   23.7584 O   0  0  0  0  0  0
  -32.1844  -18.7218   22.8675 C   0  0  0  0  0  0
  -30.7879  -18.7017   22.6797 C   0  0  0  0  0  0
  -30.1882  -17.4637   22.3179 C   0  0  0  0  0  0
  -32.9201  -17.5419   22.7247 C   0  0  0  0  0  0
  -31.0167  -16.3199   22.1520 C   0  0  0  0  0  0
  -30.5672  -21.0440   23.7614 C   0  0  0  0  0  0
  -29.8353  -20.6340   21.3790 C   0  0  0  0  0  0
  -29.7787  -22.3589   23.7394 C   0  0  0  0  0  0
  -29.0858  -21.9743   21.4148 C   0  0  0  0  0  0
  -29.9841  -20.0052   22.7780 C   0  0  1  0  0  0
  -28.6813  -17.3542   22.0696 C   0  0  0  0  0  0
  -34.4265  -17.5439   22.8879 C   0  0  0  0  0  0
  -29.1145  -24.2653   22.3569 C   0  0  0  0  0  0
  -29.0154  -26.4974   21.2140 C   0  0  0  0  0  0
  -29.5109  -25.0517   21.1035 C   0  0  1  0  0  0
  -32.3477  -16.3712   22.3951 N   0  0  0  0  0  0
  -30.4122  -15.1115   21.7273 N   0  0  0  0  0  0
  -29.7243  -22.9220   22.3673 N   0  3  1  0  0  0
  -30.9189  -25.0170   20.9140 O   0  0  0  0  0  0
  -31.4569  -12.3670   19.0976 H   0  0  0  0  0  0
  -30.2982  -11.2658   19.7753 H   0  0  0  0  0  0
  -29.7191  -11.8207   17.3999 H   0  0  0  0  0  0
  -29.6580  -13.5220   17.7904 H   0  0  0  0  0  0
  -27.8227  -11.3214   18.8011 H   0  0  0  0  0  0
  -27.3587  -12.6638   17.7895 H   0  0  0  0  0  0
  -27.7208  -14.2598   19.5989 H   0  0  0  0  0  0
  -28.6621  -11.9366   21.3468 H   0  0  0  0  0  0
  -28.4549  -13.5765   21.8730 H   0  0  0  0  0  0
  -25.2771   -9.5692   22.4745 H   0  0  0  0  0  0
  -24.0007   -7.4645   22.7469 H   0  0  0  0  0  0
  -21.0841   -8.8776   19.8953 H   0  0  0  0  0  0
  -22.3696  -10.9678   19.6158 H   0  0  0  0  0  0
  -21.1999   -7.6140   23.9716 H   0  0  0  0  0  0
  -21.1483   -6.0519   25.9077 H   0  0  0  0  0  0
  -22.0596   -2.7608   23.2847 H   0  0  0  0  0  0
  -22.4117  -11.9900   22.4794 H   0  0  0  0  0  0
  -21.1127  -13.1260   22.2574 H   0  0  0  0  0  0
  -24.6643  -15.8425   20.5199 H   0  0  0  0  0  0
  -26.2816  -15.6297   20.0836 H   0  0  0  0  0  0
  -26.7040  -32.5619   23.1294 H   0  0  0  0  0  0
  -25.0106  -33.9878   25.0640 H   0  0  0  0  0  0
  -22.6827  -31.3036   21.4075 H   0  0  0  0  0  0
  -23.3782  -35.9634   23.3274 H   0  0  0  0  0  0
  -24.3596  -36.8958   22.2056 H   0  0  0  0  0  0
  -23.7185  -37.6524   23.6616 H   0  0  0  0  0  0
  -26.0360  -31.6046   20.6019 H   0  0  0  0  0  0
  -26.8106  -30.9007   21.9916 H   0  0  0  0  0  0
  -28.0974  -29.1680   21.1548 H   0  0  0  0  0  0
  -26.1339  -26.0164   18.9653 H   0  0  0  0  0  0
  -23.9934  -27.2765   19.0577 H   0  0  0  0  0  0
  -23.7364  -30.5968   19.4091 H   0  0  0  0  0  0
  -22.7429  -29.2455   19.8522 H   0  0  0  0  0  0
  -25.1241  -36.2082   25.0869 H   0  0  0  0  0  0
  -20.9896  -28.3203   24.1452 H   0  0  0  0  0  0
  -20.5663  -26.2248   23.3583 H   0  0  0  0  0  0
  -21.6608  -26.7418   22.1184 H   0  0  0  0  0  0
  -19.6913  -25.6313   21.1206 H   0  0  0  0  0  0
  -19.6735  -27.3202   20.6752 H   0  0  0  0  0  0
  -17.4176  -26.6642   21.4013 H   0  0  0  0  0  0
  -18.0315  -26.0134   22.9049 H   0  0  0  0  0  0
  -19.7927  -30.7221   24.2296 H   0  0  0  0  0  0
  -17.5015  -31.6258   24.5155 H   0  0  0  0  0  0
  -15.5342  -30.2995   23.7671 H   0  0  0  0  0  0
  -15.8649  -28.0884   22.6973 H   0  0  0  0  0  0
  -24.5933  -30.6983   25.7985 H   0  0  0  0  0  0
  -24.8830  -32.2846   26.5007 H   0  0  0  0  0  0
  -25.8113  -30.8965   27.0379 H   0  0  0  0  0  0
  -26.2757  -29.6918   24.1109 H   0  0  0  0  0  0
  -27.3915  -29.7226   25.4580 H   0  0  0  0  0  0
  -27.8638  -30.4433   23.9345 H   0  0  0  0  0  0
  -27.2753  -33.3620   26.2107 H   0  0  0  0  0  0
  -28.3871  -32.6769   25.0337 H   0  0  0  0  0  0
  -28.0697  -31.8386   26.5458 H   0  0  0  0  0  0
  -28.2571  -38.0159   24.7545 H   0  0  0  0  0  0
  -28.1152  -36.2685   24.6205 H   0  0  0  0  0  0
  -27.2305  -37.1356   25.8859 H   0  0  0  0  0  0
  -20.9287  -29.8845   21.7052 H   0  0  0  0  0  0
  -26.0232  -38.2912   24.1488 H   0  0  0  0  0  0
  -32.7295  -19.6241   23.1012 H   0  0  0  0  0  0
  -30.5715  -20.6365   24.7724 H   0  0  0  0  0  0
  -31.5958  -21.2978   23.5189 H   0  0  0  0  0  0
  -30.8189  -20.7804   20.9335 H   0  0  0  0  0  0
  -29.3063  -19.9542   20.7113 H   0  0  0  0  0  0
  -30.2549  -23.0691   24.4177 H   0  0  0  0  0  0
  -28.7638  -22.2071   24.1119 H   0  0  0  0  0  0
  -28.0444  -21.8166   21.6983 H   0  0  0  0  0  0
  -29.0657  -22.3830   20.4045 H   0  0  0  0  0  0
  -28.9936  -19.7674   23.1678 H   0  0  0  0  0  0
  -28.1785  -17.0035   22.9716 H   0  0  0  0  0  0
  -28.4492  -16.6615   21.2606 H   0  0  0  0  0  0
  -28.2192  -18.2935   21.7766 H   0  0  0  0  0  0
  -34.7363  -18.2923   23.6182 H   0  0  0  0  0  0
  -34.9025  -17.7843   21.9368 H   0  0  0  0  0  0
  -34.7998  -16.5753   23.2207 H   0  0  0  0  0  0
  -28.0301  -24.1749   22.4154 H   0  0  0  0  0  0
  -29.4319  -24.8233   23.2395 H   0  0  0  0  0  0
  -29.8106  -27.1998   21.4740 H   0  0  0  0  0  0
  -28.2720  -26.5561   22.0130 H   0  0  0  0  0  0
  -29.0351  -24.5812   20.2403 H   0  0  0  0  0  0
  -29.5364  -14.8624   22.1565 H   0  0  0  0  0  0
  -30.6662  -23.1028   22.0468 H   0  0  0  0  0  0
  -31.1068  -25.4808   20.0986 H   0  0  0  0  0  0
  1 25  1  0  0  0
  1 30  2  0  0  0
  1 87  1  0  0  0
  2  3  1  0  0  0
  2 25  1  0  0  0
  2 90  1  0  0  0
  2 91  1  0  0  0
  3  4  1  0  0  0
  3 92  1  0  0  0
  3 93  1  0  0  0
  4  5  1  0  0  0
  4 94  1  0  0  0
  4 95  1  0  0  0
  5  6  1  0  0  0
  5 26  1  0  0  0
  5 96  1  0  0  0
  6 25  1  0  0  0
  6 97  1  0  0  0
  6 98  1  0  0  0
  7  8  2  0  0  0
  7 26  1  0  0  0
  7 29  1  0  0  0
  8  9  1  0  0  0
  8 22  1  0  0  0
  9 10  1  0  0  0
  9 27  2  0  0  0
 10 11  2  0  0  0
 10 15  1  0  0  0
 11 12  1  0  0  0
 11 99  1  0  0  0
 12 13  2  0  0  0
 12100  1  0  0  0
 13 14  1  0  0  0
 13 31  1  0  0  0
 14 15  2  0  0  0
 14101  1  0  0  0
 15102  1  0  0  0
 16 17  2  0  0  0
 16 21  1  0  0  0
 16 31  1  0  0  0
 17 18  1  0  0  0
 17103  1  0  0  0
 18 19  2  0  0  0
 18104  1  0  0  0
 19 20  1  0  0  0
 19 24  1  0  0  0
 20 21  2  0  0  0
 20105  1  0  0  0
 21 23  1  0  0  0
 22 28  1  0  0  0
 22 32  2  0  0  0
 26 27  1  0  0  0
 28106  1  0  0  0
 28107  1  0  0  0
 29108  1  0  0  0
 29109  1  0  0  0
 33 34  1  0  0  0
 33 66  1  0  0  0
 33 70  2  0  0  0
 34 36  1  0  0  0
 34 59  1  0  0  0
 34110  1  0  0  0
 35 44  2  0  0  0
 35 45  1  0  0  0
 35 68  1  0  0  0
 36 56  1  0  0  0
 36111  1  0  0  0
 37 39  1  0  0  0
 37 47  1  0  0  0
 37 66  1  0  0  0
 37112  1  0  0  0
 38 43  2  0  0  0
 38 46  1  0  0  0
 38 47  1  0  0  0
 39 64  1  0  0  0
 39 67  2  0  0  0
 40 52  1  0  0  0
 40 53  2  0  0  0
 40 58  1  0  0  0
 41113  1  0  0  0
 41114  1  0  0  0
 41115  1  0  0  0
 41 48  1  0  0  0
 42 43  1  0  0  0
 42 66  1  0  0  0
 42116  1  0  0  0
 42117  1  0  0  0
 43 44  1  0  0  0
 44118  1  0  0  0
 45 46  2  0  0  0
 45119  1  0  0  0
 46120  1  0  0  0
 47121  1  0  0  0
 47122  1  0  0  0
 48 56  1  0  0  0
 48 65  1  0  0  0
 48123  1  0  0  0
 49 50  1  0  0  0
 49 53  1  0  0  0
 49 64  1  0  0  0
 49124  1  0  0  0
 50 51  1  0  0  0
 50125  1  0  0  0
 50126  1  0  0  0
 51 52  1  0  0  0
 51127  1  0  0  0
 51128  1  0  0  0
 52129  1  0  0  0
 52130  1  0  0  0
 53 54  1  0  0  0
 54 55  2  0  0  0
 54131  1  0  0  0
 55 57  1  0  0  0
 55132  1  0  0  0
 56 69  2  0  0  0
 57 58  2  0  0  0
 57133  1  0  0  0
 58134  1  0  0  0
 59 60  1  0  0  0
 59 61  1  0  0  0
 59 62  1  0  0  0
 60135  1  0  0  0
 60136  1  0  0  0
 60137  1  0  0  0
 61138  1  0  0  0
 61139  1  0  0  0
 61140  1  0  0  0
 62141  1  0  0  0
 62142  1  0  0  0
 62143  1  0  0  0
 63 65  1  0  0  0
 63144  1  0  0  0
 63145  1  0  0  0
 63146  1  0  0  0
 64147  1  0  0  0
 65148  1  0  0  0
 68 84  1  0  0  0
 71 72  2  0  0  0
 71 74  1  0  0  0
 71149  1  0  0  0
 72 73  1  0  0  0
 72 80  1  0  0  0
 73 75  2  0  0  0
 73 81  1  0  0  0
 74 82  1  0  0  0
 74 86  2  0  0  0
 75 86  1  0  0  0
 75 87  1  0  0  0
 76 78  1  0  0  0
 76 80  1  0  0  0
 76150  1  0  0  0
 76151  1  0  0  0
 77 79  1  0  0  0
 77 80  1  0  0  0
 77152  1  0  0  0
 77153  1  0  0  0
 78 88  1  0  0  0
 78154  1  0  0  0
 78155  1  0  0  0
 79 88  1  0  0  0
 79156  1  0  0  0
 79157  1  0  0  0
 80158  1  0  0  0
 81159  1  0  0  0
 81160  1  0  0  0
 81161  1  0  0  0
 82162  1  0  0  0
 82163  1  0  0  0
 82164  1  0  0  0
 83 85  1  0  0  0
 83165  1  0  0  0
 83166  1  0  0  0
 83 88  1  0  0  0
 84 85  1  0  0  0
 84167  1  0  0  0
 84168  1  0  0  0
 85 89  1  0  0  0
 85169  1  0  0  0
 87170  1  0  0  0
 88171  1  0  0  0
 89172  1  0  0  0
M  CHG  1  88   1
M  ISO  4   1 100  68 101  84 101  87 100
M  END
> <chiral flag>
0

> <version>
0

> <s_m_source_file>
/data/baiqing/PycharmProjects/Reinvent-master-3.2/result/LINK_invent/BTK/process_docking_weight1_custom_sum_contain_oxygen_bond_distance_aromatic_linkinvent_7_9_3/rearranged_h_0147.sdf

> <i_m_source_file_index>
4

> <r_mmod_Potential_Energy-OPLS-2005>
-362.980407714844

> <r_mmod_Stretch_Energy-OPLS-2005>
34.4707641601562

> <r_mmod_Bend_Energy-OPLS-2005>
96.7754287719727

> <r_mmod_Torsional_Energy-OPLS-2005>
278.937713623047

> <r_mmod_Improper_Torsional_Energy-OPLS-2005>
2.07960367202759

> <r_mmod_Van_der_Waal_Energy-OPLS-2005>
178.707855224609

> <r_mmod_Electrostatic_Energy-OPLS-2005>
-492.397430419922

> <r_mmod_Solvation_Energy-OPLS-2005>
-469.337860107422

> <b_mmod_Minimization_Converged-OPLS-2005>
0

> <r_mmod_RMS_Derivative-OPLS-2005>
4.06747531890869

$$$$
4
                    3D
 Structure written by MMmdl.
141149  0  0  1  0            999 V2000
  -30.2056  -15.8643   20.3081 C   0  0  0  0  0  0
  -30.4101  -13.2525   19.5441 C   0  0  0  0  0  0
  -29.5606  -12.7156   18.3488 C   0  0  0  0  0  0
  -28.1521  -12.3080   18.8018 C   0  0  0  0  0  0
  -27.5894  -13.3302   19.8109 C   0  0  2  0  0  0
  -28.5903  -13.7554   20.9170 C   0  0  0  0  0  0
  -25.2289  -13.8312   20.5823 C   0  0  0  0  0  0
  -24.1702  -13.0433   20.9304 C   0  0  0  0  0  0
  -24.6435  -11.6954   20.8763 C   0  0  0  0  0  0
  -23.9140  -10.4293   21.0389 C   0  0  0  0  0  0
  -24.3667   -9.4206   21.9176 C   0  0  0  0  0  0
  -23.6321   -8.2250   22.0753 C   0  0  0  0  0  0
  -22.4301   -8.0291   21.3544 C   0  0  0  0  0  0
  -21.9952   -9.0268   20.4642 C   0  0  0  0  0  0
  -22.7302  -10.2136   20.3044 C   0  0  0  0  0  0
  -21.6861   -6.0744   22.5279 C   0  0  0  0  0  0
  -21.4020   -6.5645   23.8213 C   0  0  0  0  0  0
  -21.3661   -5.6795   24.9174 C   0  0  0  0  0  0
  -21.6044   -4.3058   24.7223 C   0  0  0  0  0  0
  -21.8818   -3.8152   23.4343 C   0  0  0  0  0  0
  -21.9195   -4.6970   22.3400 C   0  0  0  0  0  0
  -22.7708  -13.5146   21.1931 C   0  0  0  0  0  0
  -22.1662   -4.2156   21.0978 F   0  0  0  0  0  0
  -21.5627   -3.4540   25.7734 F   0  0  0  0  0  0
  -29.7273  -14.4515   20.2494 N   0  0  0  0  0  0
  -26.2765  -12.9687   20.3263 N   0  0  0  0  0  0
  -25.9391  -11.6733   20.5689 N   0  0  0  0  0  0
  -22.0379  -12.8117   22.0481 N   0  0  0  0  0  0
  -25.3841  -15.2057   20.4258 N   0  0  0  0  0  0
  -31.4467  -15.7823   20.1671 O   0  0  0  0  0  0
  -21.6652   -6.8894   21.4244 O   0  0  0  0  0  0
  -22.3377  -14.5442   20.6765 O   0  0  0  0  0  0
  -24.6996  -31.7806   23.1373 C   0  0  0  0  0  0
  -25.9498  -32.4370   23.7982 C   0  0  1  0  0  0
  -27.2351  -26.5355   20.2313 C   0  0  0  0  0  0
  -25.6007  -33.8205   24.1853 N   0  0  0  0  0  0
  -23.5337  -30.3747   21.4952 C   0  0  2  0  0  0
  -24.9934  -28.6803   20.1230 C   0  0  0  0  0  0
  -22.7839  -29.4212   22.4664 C   0  0  0  0  0  0
  -18.0349  -28.1430   22.8447 C   0  0  0  0  0  0
  -24.1496  -36.7111   23.2657 C   0  0  0  0  0  0
  -26.1212  -30.4582   21.4273 C   0  0  0  0  0  0
  -26.1852  -29.0042   20.7810 C   0  0  0  0  0  0
  -27.2822  -27.9654   20.7972 C   0  0  0  0  0  0
  -26.0081  -26.4642   19.5107 C   0  0  0  0  0  0
  -24.9541  -27.4382   19.4629 C   0  0  0  0  0  0
  -23.7973  -29.6558   20.1380 C   0  0  0  0  0  0
  -25.4153  -36.2839   24.0269 C   0  0  1  0  0  0
  -20.5993  -28.3799   23.1110 C   0  0  2  0  0  0
  -20.6806  -26.9442   22.5406 C   0  0  0  0  0  0
  -19.5785  -26.6366   21.5218 C   0  0  0  0  0  0
  -18.1968  -26.7954   22.1617 C   0  0  0  0  0  0
  -19.1620  -28.8943   23.2754 C   0  0  0  0  0  0
  -18.9522  -30.1522   23.8807 C   0  0  0  0  0  0
  -17.6509  -30.6608   24.0547 C   0  0  0  0  0  0
  -25.9144  -34.9234   23.4910 C   0  0  0  0  0  0
  -16.5398  -29.9086   23.6355 C   0  0  0  0  0  0
  -16.7328  -28.6510   23.0370 C   0  0  0  0  0  0
  -26.4622  -31.6477   25.0675 C   0  0  0  0  0  0
  -25.3644  -31.3842   26.1259 C   0  0  0  0  0  0
  -27.0582  -30.2796   24.6698 C   0  0  0  0  0  0
  -27.6037  -32.4379   25.7505 C   0  0  0  0  0  0
  -27.5558  -37.1712   24.8466 C   0  0  0  0  0  0
  -21.4471  -29.3012   22.3411 N   0  0  0  0  0  0
  -26.4264  -37.3619   23.9407 N   0  0  0  0  0  0
  -24.8102  -30.9085   22.0719 N   0  0  0  0  0  0
  -23.4204  -28.7840   23.3087 O   0  0  0  0  0  0
  -28.1809  -25.2432   20.3049 O   0  0  0  0  0  0
  -26.5809  -34.8844   22.4544 O   0  0  0  0  0  0
  -23.5980  -32.0959   23.6221 O   0  0  0  0  0  0
  -30.4051  -20.0901   20.1724 C   0  0  0  0  0  0
  -28.3716  -20.2347   20.3411 C   0  0  0  0  0  0
  -29.3643  -19.0652   20.2999 C   0  0  0  0  0  0
  -27.8646  -23.4779   20.1208 C   0  0  0  0  0  0
  -30.0701  -21.4762   20.1352 N   0  0  0  0  0  0
  -28.7122  -21.7991   20.2621 N   0  0  0  0  0  0
  -29.4028  -17.2631   20.3464 N   0  0  0  0  0  0
  -31.3834  -13.5523   19.1543 H   0  0  0  0  0  0
  -30.6310  -12.4511   20.2514 H   0  0  0  0  0  0
  -30.0617  -11.8740   17.8687 H   0  0  0  0  0  0
  -29.4820  -13.4976   17.5922 H   0  0  0  0  0  0
  -28.2207  -11.3292   19.2781 H   0  0  0  0  0  0
  -27.4860  -12.1920   17.9458 H   0  0  0  0  0  0
  -27.4223  -14.2217   19.2043 H   0  0  0  0  0  0
  -28.9029  -12.9095   21.5314 H   0  0  0  0  0  0
  -28.1125  -14.4615   21.5976 H   0  0  0  0  0  0
  -25.2805   -9.5678   22.4763 H   0  0  0  0  0  0
  -24.0019   -7.4643   22.7481 H   0  0  0  0  0  0
  -21.0881   -8.8799   19.8949 H   0  0  0  0  0  0
  -22.3761  -10.9677   19.6156 H   0  0  0  0  0  0
  -21.2016   -7.6153   23.9719 H   0  0  0  0  0  0
  -21.1483   -6.0525   25.9077 H   0  0  0  0  0  0
  -22.0595   -2.7614   23.2841 H   0  0  0  0  0  0
  -22.4030  -11.9798   22.4877 H   0  0  0  0  0  0
  -21.0981  -13.1101   22.2677 H   0  0  0  0  0  0
  -24.6081  -15.8499   20.5342 H   0  0  0  0  0  0
  -26.2188  -15.6482   20.0659 H   0  0  0  0  0  0
  -26.7596  -32.4801   23.0702 H   0  0  0  0  0  0
  -25.0037  -33.9214   24.9928 H   0  0  0  0  0  0
  -22.8685  -31.2162   21.2905 H   0  0  0  0  0  0
  -23.3781  -35.9416   23.3254 H   0  0  0  0  0  0
  -24.3557  -36.8850   22.2084 H   0  0  0  0  0  0
  -23.7235  -37.6257   23.6792 H   0  0  0  0  0  0
  -26.3412  -31.1713   20.6317 H   0  0  0  0  0  0
  -26.9657  -30.5329   22.0995 H   0  0  0  0  0  0
  -28.1754  -28.2269   21.3470 H   0  0  0  0  0  0
  -25.8125  -25.5361   18.9929 H   0  0  0  0  0  0
  -24.0599  -27.1785   18.9128 H   0  0  0  0  0  0
  -23.9861  -30.4085   19.3718 H   0  0  0  0  0  0
  -22.8988  -29.1304   19.8101 H   0  0  0  0  0  0
  -25.1371  -36.1576   25.0758 H   0  0  0  0  0  0
  -21.0069  -28.3437   24.1240 H   0  0  0  0  0  0
  -20.5654  -26.2428   23.3684 H   0  0  0  0  0  0
  -21.6666  -26.7357   22.1235 H   0  0  0  0  0  0
  -19.6938  -25.6252   21.1307 H   0  0  0  0  0  0
  -19.6733  -27.3126   20.6710 H   0  0  0  0  0  0
  -17.4238  -26.6698   21.4019 H   0  0  0  0  0  0
  -18.0350  -26.0118   22.9033 H   0  0  0  0  0  0
  -19.7997  -30.7360   24.2138 H   0  0  0  0  0  0
  -17.5059  -31.6279   24.5167 H   0  0  0  0  0  0
  -15.5395  -30.2960   23.7731 H   0  0  0  0  0  0
  -15.8729  -28.0798   22.7137 H   0  0  0  0  0  0
  -24.5865  -30.7155   25.7553 H   0  0  0  0  0  0
  -24.8796  -32.3078   26.4430 H   0  0  0  0  0  0
  -25.7782  -30.9171   27.0205 H   0  0  0  0  0  0
  -26.3332  -29.6358   24.1710 H   0  0  0  0  0  0
  -27.3961  -29.7311   25.5501 H   0  0  0  0  0  0
  -27.9330  -30.3882   24.0286 H   0  0  0  0  0  0
  -27.2554  -33.3770   26.1815 H   0  0  0  0  0  0
  -28.3983  -32.6796   25.0433 H   0  0  0  0  0  0
  -28.0557  -31.8691   26.5641 H   0  0  0  0  0  0
  -28.2534  -38.0044   24.7514 H   0  0  0  0  0  0
  -28.1095  -36.2564   24.6295 H   0  0  0  0  0  0
  -27.2272  -37.1344   25.8867 H   0  0  0  0  0  0
  -20.9816  -29.8641   21.6428 H   0  0  0  0  0  0
  -26.0076  -38.2658   24.1424 H   0  0  0  0  0  0
  -31.4608  -19.8753   20.0837 H   0  0  0  0  0  0
  -27.3064  -20.0650   20.4117 H   0  0  0  0  0  0
  -26.9988  -23.3545   20.7715 H   0  0  0  0  0  0
  -27.4471  -23.4429   19.1146 H   0  0  0  0  0  0
  -28.4448  -16.9528   20.4260 H   0  0  0  0  0  0
  1 25  1  0  0  0
  1 30  2  0  0  0
  1 77  1  0  0  0
  2  3  1  0  0  0
  2 25  1  0  0  0
  2 78  1  0  0  0
  2 79  1  0  0  0
  3  4  1  0  0  0
  3 80  1  0  0  0
  3 81  1  0  0  0
  4  5  1  0  0  0
  4 82  1  0  0  0
  4 83  1  0  0  0
  5  6  1  0  0  0
  5 26  1  0  0  0
  5 84  1  0  0  0
  6 25  1  0  0  0
  6 85  1  0  0  0
  6 86  1  0  0  0
  7  8  2  0  0  0
  7 26  1  0  0  0
  7 29  1  0  0  0
  8  9  1  0  0  0
  8 22  1  0  0  0
  9 10  1  0  0  0
  9 27  2  0  0  0
 10 11  2  0  0  0
 10 15  1  0  0  0
 11 12  1  0  0  0
 11 87  1  0  0  0
 12 13  2  0  0  0
 12 88  1  0  0  0
 13 14  1  0  0  0
 13 31  1  0  0  0
 14 15  2  0  0  0
 14 89  1  0  0  0
 15 90  1  0  0  0
 16 17  2  0  0  0
 16 21  1  0  0  0
 16 31  1  0  0  0
 17 18  1  0  0  0
 17 91  1  0  0  0
 18 19  2  0  0  0
 18 92  1  0  0  0
 19 20  1  0  0  0
 19 24  1  0  0  0
 20 21  2  0  0  0
 20 93  1  0  0  0
 21 23  1  0  0  0
 22 28  1  0  0  0
 22 32  2  0  0  0
 26 27  1  0  0  0
 28 94  1  0  0  0
 28 95  1  0  0  0
 29 96  1  0  0  0
 29 97  1  0  0  0
 33 34  1  0  0  0
 33 66  1  0  0  0
 33 70  2  0  0  0
 34 36  1  0  0  0
 34 59  1  0  0  0
 34 98  1  0  0  0
 35 44  2  0  0  0
 35 45  1  0  0  0
 35 68  1  0  0  0
 36 56  1  0  0  0
 36 99  1  0  0  0
 37 39  1  0  0  0
 37 47  1  0  0  0
 37 66  1  0  0  0
 37100  1  0  0  0
 38 43  2  0  0  0
 38 46  1  0  0  0
 38 47  1  0  0  0
 39 64  1  0  0  0
 39 67  2  0  0  0
 40 52  1  0  0  0
 40 53  2  0  0  0
 40 58  1  0  0  0
 41101  1  0  0  0
 41102  1  0  0  0
 41103  1  0  0  0
 41 48  1  0  0  0
 42 43  1  0  0  0
 42 66  1  0  0  0
 42104  1  0  0  0
 42105  1  0  0  0
 43 44  1  0  0  0
 44106  1  0  0  0
 45 46  2  0  0  0
 45107  1  0  0  0
 46108  1  0  0  0
 47109  1  0  0  0
 47110  1  0  0  0
 48 56  1  0  0  0
 48 65  1  0  0  0
 48111  1  0  0  0
 49 50  1  0  0  0
 49 53  1  0  0  0
 49 64  1  0  0  0
 49112  1  0  0  0
 50 51  1  0  0  0
 50113  1  0  0  0
 50114  1  0  0  0
 51 52  1  0  0  0
 51115  1  0  0  0
 51116  1  0  0  0
 52117  1  0  0  0
 52118  1  0  0  0
 53 54  1  0  0  0
 54 55  2  0  0  0
 54119  1  0  0  0
 55 57  1  0  0  0
 55120  1  0  0  0
 56 69  2  0  0  0
 57 58  2  0  0  0
 57121  1  0  0  0
 58122  1  0  0  0
 59 60  1  0  0  0
 59 61  1  0  0  0
 59 62  1  0  0  0
 60123  1  0  0  0
 60124  1  0  0  0
 60125  1  0  0  0
 61126  1  0  0  0
 61127  1  0  0  0
 61128  1  0  0  0
 62129  1  0  0  0
 62130  1  0  0  0
 62131  1  0  0  0
 63 65  1  0  0  0
 63132  1  0  0  0
 63133  1  0  0  0
 63134  1  0  0  0
 64135  1  0  0  0
 65136  1  0  0  0
 68 74  1  0  0  0
 71 73  1  0  0  0
 71 75  2  0  0  0
 71137  1  0  0  0
 72 73  2  0  0  0
 72 76  1  0  0  0
 72138  1  0  0  0
 73 77  1  0  0  0
 74 76  1  0  0  0
 74139  1  0  0  0
 74140  1  0  0  0
 75 76  1  0  0  0
 77141  1  0  0  0
M  ISO  4   1 100  68 101  74 101  77 100
M  END
> <chiral flag>
0

> <version>
0

> <s_m_source_file>
/data/baiqing/PycharmProjects/Reinvent-master-3.2/result/LINK_invent/BTK/process_docking_weight1_custom_sum_contain_oxygen_bond_distance_aromatic_linkinvent_7_9_3/rearranged_h_0147.sdf

> <i_m_source_file_index>
5

> <r_mmod_Potential_Energy-OPLS-2005>
3182.65625

> <r_mmod_Stretch_Energy-OPLS-2005>
1372.72985839844

> <r_mmod_Bend_Energy-OPLS-2005>
788.074951171875

> <r_mmod_Torsional_Energy-OPLS-2005>
223.366088867188

> <r_mmod_Improper_Torsional_Energy-OPLS-2005>
4.16430377960205

> <r_mmod_Van_der_Waal_Energy-OPLS-2005>
109.162757873535

> <r_mmod_Electrostatic_Energy-OPLS-2005>
-345.901885986328

> <r_mmod_Solvation_Energy-OPLS-2005>
-252.893615722656

> <b_mmod_Minimization_Converged-OPLS-2005>
1

> <r_mmod_RMS_Derivative-OPLS-2005>
0.043536264449358

$$$$
5
                    3D
 Structure written by MMmdl.
156164  0  0  1  0            999 V2000
  -30.5450  -14.9338   20.4212 C   0  0  0  0  0  0
  -30.4342  -12.5769   19.4966 C   0  0  0  0  0  0
  -29.5181  -12.5252   18.2521 C   0  0  0  0  0  0
  -28.0489  -12.3191   18.6691 C   0  0  0  0  0  0
  -27.6272  -13.2489   19.8378 C   0  0  2  0  0  0
  -28.6692  -13.2721   20.9755 C   0  0  0  0  0  0
  -25.2453  -13.8226   20.5738 C   0  0  0  0  0  0
  -24.1767  -13.0445   20.9249 C   0  0  0  0  0  0
  -24.6377  -11.6931   20.8762 C   0  0  0  0  0  0
  -23.9059  -10.4299   21.0405 C   0  0  0  0  0  0
  -24.3611   -9.4214   21.9185 C   0  0  0  0  0  0
  -23.6295   -8.2242   22.0749 C   0  0  0  0  0  0
  -22.4276   -8.0279   21.3542 C   0  0  0  0  0  0
  -21.9908   -9.0243   20.4633 C   0  0  0  0  0  0
  -22.7233  -10.2129   20.3045 C   0  0  0  0  0  0
  -21.6849   -6.0732   22.5276 C   0  0  0  0  0  0
  -21.4015   -6.5633   23.8211 C   0  0  0  0  0  0
  -21.3660   -5.6782   24.9174 C   0  0  0  0  0  0
  -21.6046   -4.3049   24.7220 C   0  0  0  0  0  0
  -21.8819   -3.8141   23.4340 C   0  0  0  0  0  0
  -21.9193   -4.6957   22.3401 C   0  0  0  0  0  0
  -22.7785  -13.5205   21.1899 C   0  0  0  0  0  0
  -22.1660   -4.2146   21.0976 F   0  0  0  0  0  0
  -21.5629   -3.4532   25.7732 F   0  0  0  0  0  0
  -29.9457  -13.6776   20.3764 N   0  0  0  0  0  0
  -26.2868  -12.9456   20.3240 N   0  0  0  0  0  0
  -25.9305  -11.6582   20.5724 N   0  0  0  0  0  0
  -22.0422  -12.8196   22.0442 N   0  0  0  0  0  0
  -25.4138  -15.1949   20.4192 N   0  0  0  0  0  0
  -31.7489  -14.9981   20.1566 O   0  0  0  0  0  0
  -21.6646   -6.8876   21.4238 O   0  0  0  0  0  0
  -22.3466  -14.5501   20.6726 O   0  0  0  0  0  0
  -24.6432  -31.8444   23.1857 C   0  0  0  0  0  0
  -25.9203  -32.4694   23.8261 C   0  0  1  0  0  0
  -27.2238  -27.1346   20.1590 C   0  0  0  0  0  0
  -25.5982  -33.8501   24.2210 N   0  0  0  0  0  0
  -23.4450  -30.4582   21.5330 C   0  0  2  0  0  0
  -24.8919  -28.8715   20.1175 C   0  0  0  0  0  0
  -22.7554  -29.4548   22.4904 C   0  0  0  0  0  0
  -18.0300  -28.1405   22.8481 C   0  0  0  0  0  0
  -24.1484  -36.7236   23.2643 C   0  0  0  0  0  0
  -25.9958  -30.7154   21.3804 C   0  0  0  0  0  0
  -26.0640  -29.3197   20.7372 C   0  0  0  0  0  0
  -27.2253  -28.4649   20.7445 C   0  0  0  0  0  0
  -26.0302  -26.7858   19.4923 C   0  0  0  0  0  0
  -24.8857  -27.6168   19.4842 C   0  0  0  0  0  0
  -23.6686  -29.7752   20.1562 C   0  0  0  0  0  0
  -25.4118  -36.3035   24.0330 C   0  0  1  0  0  0
  -20.5907  -28.3724   23.1256 C   0  0  2  0  0  0
  -20.6786  -26.9435   22.5406 C   0  0  0  0  0  0
  -19.5762  -26.6395   21.5215 C   0  0  0  0  0  0
  -18.1943  -26.7947   22.1619 C   0  0  0  0  0  0
  -19.1557  -28.8884   23.2856 C   0  0  0  0  0  0
  -18.9478  -30.1491   23.8870 C   0  0  0  0  0  0
  -17.6469  -30.6600   24.0561 C   0  0  0  0  0  0
  -25.9076  -34.9413   23.5071 C   0  0  0  0  0  0
  -16.5365  -29.9081   23.6346 C   0  0  0  0  0  0
  -16.7287  -28.6506   23.0356 C   0  0  0  0  0  0
  -26.4538  -31.6542   25.0687 C   0  0  0  0  0  0
  -25.3734  -31.3705   26.1386 C   0  0  0  0  0  0
  -27.0409  -30.2961   24.6224 C   0  0  0  0  0  0
  -27.6090  -32.4284   25.7459 C   0  0  0  0  0  0
  -27.5570  -37.1772   24.8472 C   0  0  0  0  0  0
  -21.4251  -29.3053   22.3639 N   0  0  0  0  0  0
  -26.4273  -37.3757   23.9430 N   0  0  0  0  0  0
  -24.7146  -31.0286   22.0886 N   0  0  0  0  0  0
  -23.4207  -28.8120   23.3063 O   0  0  0  0  0  0
  -28.3464  -26.2343   20.1665 O   0  0  0  0  0  0
  -26.5639  -34.8915   22.4636 O   0  0  0  0  0  0
  -23.5560  -32.1313   23.7091 O   0  0  0  0  0  0
  -27.4485  -23.7302   20.1963 C   0  0  0  0  0  0
  -30.0076  -22.9122   20.3606 C   0  0  0  0  0  0
  -27.7509  -22.2936   20.2552 C   0  0  0  0  0  0
  -29.1091  -21.7906   20.3383 C   0  0  0  0  0  0
  -28.4447  -24.7635   20.2248 C   0  0  0  0  0  0
  -26.0441  -21.1738   18.7760 C   0  0  0  0  0  0
  -25.4532  -21.6947   21.1929 C   0  0  0  0  0  0
  -30.1832  -17.6509   20.4559 C   0  0  0  0  0  0
  -29.1501  -18.9922   20.4123 C   0  0  0  0  0  0
  -26.5767  -21.3201   20.2089 C   0  0  0  0  0  0
  -29.7176  -24.2687   20.3086 N   0  0  0  0  0  0
  -29.7771  -16.1234   20.5498 N   0  0  0  0  0  0
  -29.6964  -20.4364   20.3938 O   0  0  0  0  0  0
  -31.4696  -12.7290   19.1890 H   0  0  0  0  0  0
  -30.4178  -11.6238   20.0270 H   0  0  0  0  0  0
  -29.8328  -11.7245   17.5812 H   0  0  0  0  0  0
  -29.6147  -13.4542   17.6877 H   0  0  0  0  0  0
  -27.9384  -11.2773   18.9720 H   0  0  0  0  0  0
  -27.3874  -12.4599   17.8131 H   0  0  0  0  0  0
  -27.5916  -14.2531   19.4140 H   0  0  0  0  0  0
  -28.7523  -12.2962   21.4543 H   0  0  0  0  0  0
  -28.3745  -13.9771   21.7544 H   0  0  0  0  0  0
  -25.2742   -9.5708   22.4772 H   0  0  0  0  0  0
  -24.0011   -7.4627   22.7458 H   0  0  0  0  0  0
  -21.0843   -8.8739   19.8922 H   0  0  0  0  0  0
  -22.3673  -10.9663   19.6151 H   0  0  0  0  0  0
  -21.2008   -7.6140   23.9718 H   0  0  0  0  0  0
  -21.1481   -6.0511   25.9079 H   0  0  0  0  0  0
  -22.0599   -2.7601   23.2835 H   0  0  0  0  0  0
  -22.4033  -11.9860   22.4846 H   0  0  0  0  0  0
  -21.1015  -13.1194   22.2593 H   0  0  0  0  0  0
  -24.6461  -15.8476   20.5357 H   0  0  0  0  0  0
  -26.2580  -15.6353   20.0775 H   0  0  0  0  0  0
  -26.7250  -32.5297   23.0975 H   0  0  0  0  0  0
  -25.0193  -33.9619   25.0403 H   0  0  0  0  0  0
  -22.7480  -31.2832   21.3738 H   0  0  0  0  0  0
  -23.3770  -35.9542   23.3287 H   0  0  0  0  0  0
  -24.3571  -36.8871   22.2060 H   0  0  0  0  0  0
  -23.7198  -37.6417   23.6669 H   0  0  0  0  0  0
  -26.1380  -31.4587   20.5954 H   0  0  0  0  0  0
  -26.8732  -30.7792   22.0124 H   0  0  0  0  0  0
  -28.1258  -28.8099   21.2307 H   0  0  0  0  0  0
  -25.9658  -25.8400   18.9751 H   0  0  0  0  0  0
  -23.9922  -27.2708   18.9823 H   0  0  0  0  0  0
  -23.8021  -30.5420   19.3930 H   0  0  0  0  0  0
  -22.7847  -29.2125   19.8510 H   0  0  0  0  0  0
  -25.1290  -36.1863   25.0819 H   0  0  0  0  0  0
  -20.9990  -28.3285   24.1380 H   0  0  0  0  0  0
  -20.5711  -26.2326   23.3616 H   0  0  0  0  0  0
  -21.6640  -26.7455   22.1190 H   0  0  0  0  0  0
  -19.6923  -25.6305   21.1250 H   0  0  0  0  0  0
  -19.6695  -27.3198   20.6744 H   0  0  0  0  0  0
  -17.4221  -26.6727   21.4014 H   0  0  0  0  0  0
  -18.0315  -26.0084   22.9006 H   0  0  0  0  0  0
  -19.7952  -30.7326   24.2207 H   0  0  0  0  0  0
  -17.5020  -31.6271   24.5175 H   0  0  0  0  0  0
  -15.5362  -30.2972   23.7688 H   0  0  0  0  0  0
  -15.8688  -28.0814   22.7077 H   0  0  0  0  0  0
  -24.5954  -30.7001   25.7702 H   0  0  0  0  0  0
  -24.8881  -32.2874   26.4745 H   0  0  0  0  0  0
  -25.8047  -30.8931   27.0196 H   0  0  0  0  0  0
  -26.3018  -29.6686   24.1239 H   0  0  0  0  0  0
  -27.4063  -29.7246   25.4765 H   0  0  0  0  0  0
  -27.8896  -30.4229   23.9502 H   0  0  0  0  0  0
  -27.2727  -33.3632   26.1950 H   0  0  0  0  0  0
  -28.3947  -32.6756   25.0303 H   0  0  0  0  0  0
  -28.0704  -31.8450   26.5440 H   0  0  0  0  0  0
  -28.2564  -38.0097   24.7556 H   0  0  0  0  0  0
  -28.1089  -36.2630   24.6236 H   0  0  0  0  0  0
  -27.2301  -37.1325   25.8878 H   0  0  0  0  0  0
  -20.9478  -29.8718   21.6765 H   0  0  0  0  0  0
  -26.0141  -38.2819   24.1457 H   0  0  0  0  0  0
  -26.4185  -24.0375   20.1271 H   0  0  0  0  0  0
  -31.0654  -22.7029   20.4223 H   0  0  0  0  0  0
  -26.8291  -20.8360   18.0992 H   0  0  0  0  0  0
  -25.6627  -22.1212   18.3928 H   0  0  0  0  0  0
  -25.2351  -20.4442   18.7288 H   0  0  0  0  0  0
  -25.8412  -21.8163   22.2051 H   0  0  0  0  0  0
  -24.6915  -20.9148   21.2246 H   0  0  0  0  0  0
  -24.9477  -22.6194   20.9157 H   0  0  0  0  0  0
  -30.8522  -17.8132   21.3012 H   0  0  0  0  0  0
  -30.8346  -17.7269   19.5845 H   0  0  0  0  0  0
  -28.4964  -18.9165   21.2801 H   0  0  0  0  0  0
  -28.5067  -18.8863   19.5380 H   0  0  0  0  0  0
  -26.9293  -20.3449   20.5292 H   0  0  0  0  0  0
  -28.7965  -15.9605   20.7235 H   0  0  0  0  0  0
  1 25  1  0  0  0
  1 30  2  0  0  0
  1 82  1  0  0  0
  2  3  1  0  0  0
  2 25  1  0  0  0
  2 84  1  0  0  0
  2 85  1  0  0  0
  3  4  1  0  0  0
  3 86  1  0  0  0
  3 87  1  0  0  0
  4  5  1  0  0  0
  4 88  1  0  0  0
  4 89  1  0  0  0
  5  6  1  0  0  0
  5 26  1  0  0  0
  5 90  1  0  0  0
  6 25  1  0  0  0
  6 91  1  0  0  0
  6 92  1  0  0  0
  7  8  2  0  0  0
  7 26  1  0  0  0
  7 29  1  0  0  0
  8  9  1  0  0  0
  8 22  1  0  0  0
  9 10  1  0  0  0
  9 27  2  0  0  0
 10 11  2  0  0  0
 10 15  1  0  0  0
 11 12  1  0  0  0
 11 93  1  0  0  0
 12 13  2  0  0  0
 12 94  1  0  0  0
 13 14  1  0  0  0
 13 31  1  0  0  0
 14 15  2  0  0  0
 14 95  1  0  0  0
 15 96  1  0  0  0
 16 17  2  0  0  0
 16 21  1  0  0  0
 16 31  1  0  0  0
 17 18  1  0  0  0
 17 97  1  0  0  0
 18 19  2  0  0  0
 18 98  1  0  0  0
 19 20  1  0  0  0
 19 24  1  0  0  0
 20 21  2  0  0  0
 20 99  1  0  0  0
 21 23  1  0  0  0
 22 28  1  0  0  0
 22 32  2  0  0  0
 26 27  1  0  0  0
 28100  1  0  0  0
 28101  1  0  0  0
 29102  1  0  0  0
 29103  1  0  0  0
 33 34  1  0  0  0
 33 66  1  0  0  0
 33 70  2  0  0  0
 34 36  1  0  0  0
 34 59  1  0  0  0
 34104  1  0  0  0
 35 44  2  0  0  0
 35 45  1  0  0  0
 35 68  1  0  0  0
 36 56  1  0  0  0
 36105  1  0  0  0
 37 39  1  0  0  0
 37 47  1  0  0  0
 37 66  1  0  0  0
 37106  1  0  0  0
 38 43  2  0  0  0
 38 46  1  0  0  0
 38 47  1  0  0  0
 39 64  1  0  0  0
 39 67  2  0  0  0
 40 52  1  0  0  0
 40 53  2  0  0  0
 40 58  1  0  0  0
 41107  1  0  0  0
 41108  1  0  0  0
 41109  1  0  0  0
 41 48  1  0  0  0
 42 43  1  0  0  0
 42 66  1  0  0  0
 42110  1  0  0  0
 42111  1  0  0  0
 43 44  1  0  0  0
 44112  1  0  0  0
 45 46  2  0  0  0
 45113  1  0  0  0
 46114  1  0  0  0
 47115  1  0  0  0
 47116  1  0  0  0
 48 56  1  0  0  0
 48 65  1  0  0  0
 48117  1  0  0  0
 49 50  1  0  0  0
 49 53  1  0  0  0
 49 64  1  0  0  0
 49118  1  0  0  0
 50 51  1  0  0  0
 50119  1  0  0  0
 50120  1  0  0  0
 51 52  1  0  0  0
 51121  1  0  0  0
 51122  1  0  0  0
 52123  1  0  0  0
 52124  1  0  0  0
 53 54  1  0  0  0
 54 55  2  0  0  0
 54125  1  0  0  0
 55 57  1  0  0  0
 55126  1  0  0  0
 56 69  2  0  0  0
 57 58  2  0  0  0
 57127  1  0  0  0
 58128  1  0  0  0
 59 60  1  0  0  0
 59 61  1  0  0  0
 59 62  1  0  0  0
 60129  1  0  0  0
 60130  1  0  0  0
 60131  1  0  0  0
 61132  1  0  0  0
 61133  1  0  0  0
 61134  1  0  0  0
 62135  1  0  0  0
 62136  1  0  0  0
 62137  1  0  0  0
 63 65  1  0  0  0
 63138  1  0  0  0
 63139  1  0  0  0
 63140  1  0  0  0
 64141  1  0  0  0
 65142  1  0  0  0
 68 75  1  0  0  0
 71 73  2  0  0  0
 71 75  1  0  0  0
 71143  1  0  0  0
 72 74  2  0  0  0
 72 81  1  0  0  0
 72144  1  0  0  0
 73 74  1  0  0  0
 73 80  1  0  0  0
 74 83  1  0  0  0
 75 81  2  0  0  0
 76145  1  0  0  0
 76146  1  0  0  0
 76147  1  0  0  0
 76 80  1  0  0  0
 77 80  1  0  0  0
 77148  1  0  0  0
 77149  1  0  0  0
 77150  1  0  0  0
 78 79  1  0  0  0
 78 82  1  0  0  0
 78151  1  0  0  0
 78152  1  0  0  0
 79 83  1  0  0  0
 79153  1  0  0  0
 79154  1  0  0  0
 80155  1  0  0  0
 82156  1  0  0  0
M  ISO  4   1 100  68 101  75 101  82 100
M  END
> <chiral flag>
0

> <version>
0

> <s_m_source_file>
/data/baiqing/PycharmProjects/Reinvent-master-3.2/result/LINK_invent/BTK/process_docking_weight1_custom_sum_contain_oxygen_bond_distance_aromatic_linkinvent_7_9_3/rearranged_h_0147.sdf

> <i_m_source_file_index>
6

> <r_mmod_Potential_Energy-OPLS-2005>
306.382415771484

> <r_mmod_Stretch_Energy-OPLS-2005>
228.906158447266

> <r_mmod_Bend_Energy-OPLS-2005>
307.868835449219

> <r_mmod_Torsional_Energy-OPLS-2005>
197.338623046875

> <r_mmod_Improper_Torsional_Energy-OPLS-2005>
4.42836618423462

> <r_mmod_Van_der_Waal_Energy-OPLS-2005>
130.661010742188

> <r_mmod_Electrostatic_Energy-OPLS-2005>
-511.872802734375

> <r_mmod_Solvation_Energy-OPLS-2005>
-227.279678344727

> <b_mmod_Minimization_Converged-OPLS-2005>
0

> <r_mmod_RMS_Derivative-OPLS-2005>
1.85151398181915

$$$$
6
                    3D
 Structure written by MMmdl.
160169  0  0  1  0            999 V2000
  -30.5386  -15.1033   20.4224 C   0  0  0  0  0  0
  -30.4455  -12.7029   19.5263 C   0  0  0  0  0  0
  -29.5287  -12.5453   18.2897 C   0  0  0  0  0  0
  -28.0676  -12.3074   18.7039 C   0  0  0  0  0  0
  -27.6201  -13.2776   19.8245 C   0  0  2  0  0  0
  -28.6561  -13.4049   20.9611 C   0  0  0  0  0  0
  -25.2396  -13.8356   20.5748 C   0  0  0  0  0  0
  -24.1771  -13.0558   20.9324 C   0  0  0  0  0  0
  -24.6443  -11.7034   20.8848 C   0  0  0  0  0  0
  -23.9178  -10.4392   21.0468 C   0  0  0  0  0  0
  -24.3715   -9.4266   21.9218 C   0  0  0  0  0  0
  -23.6366   -8.2306   22.0800 C   0  0  0  0  0  0
  -22.4312   -8.0399   21.3612 C   0  0  0  0  0  0
  -21.9983   -9.0377   20.4691 C   0  0  0  0  0  0
  -22.7376  -10.2229   20.3092 C   0  0  0  0  0  0
  -21.6844   -6.0842   22.5320 C   0  0  0  0  0  0
  -21.3992   -6.5710   23.8297 C   0  0  0  0  0  0
  -21.3636   -5.6828   24.9233 C   0  0  0  0  0  0
  -21.6033   -4.3094   24.7218 C   0  0  0  0  0  0
  -21.8816   -3.8234   23.4323 C   0  0  0  0  0  0
  -21.9182   -4.7076   22.3434 C   0  0  0  0  0  0
  -22.7764  -13.5259   21.1976 C   0  0  0  0  0  0
  -22.1654   -4.2284   21.0981 F   0  0  0  0  0  0
  -21.5600   -3.4549   25.7710 F   0  0  0  0  0  0
  -29.9186  -13.8385   20.3566 N   0  0  0  0  0  0
  -26.2858  -12.9636   20.3232 N   0  0  0  0  0  0
  -25.9365  -11.6770   20.5771 N   0  0  0  0  0  0
  -22.0344  -12.8284   22.0460 N   0  0  0  0  0  0
  -25.4097  -15.2119   20.4226 N   0  0  0  0  0  0
  -31.7550  -15.0879   20.1863 O   0  0  0  0  0  0
  -21.6662   -6.9006   21.4315 O   0  0  0  0  0  0
  -22.3448  -14.5566   20.6785 O   0  0  0  0  0  0
  -24.6590  -31.8240   23.1677 C   0  0  0  0  0  0
  -25.9312  -32.4576   23.8117 C   0  0  1  0  0  0
  -27.2260  -26.9717   20.1797 C   0  0  0  0  0  0
  -25.6005  -33.8370   24.2049 N   0  0  0  0  0  0
  -23.4707  -30.4349   21.5132 C   0  0  2  0  0  0
  -24.9332  -28.8373   20.1014 C   0  0  0  0  0  0
  -22.7640  -29.4455   22.4757 C   0  0  0  0  0  0
  -18.0312  -28.1421   22.8492 C   0  0  0  0  0  0
  -24.1487  -36.7116   23.2650 C   0  0  0  0  0  0
  -26.0333  -30.6474   21.3970 C   0  0  0  0  0  0
  -26.1121  -29.2454   20.7348 C   0  0  0  0  0  0
  -27.2526  -28.3322   20.7512 C   0  0  0  0  0  0
  -26.0192  -26.7072   19.4906 C   0  0  0  0  0  0
  -24.9135  -27.5971   19.4454 C   0  0  0  0  0  0
  -23.7079  -29.7449   20.1383 C   0  0  0  0  0  0
  -25.4133  -36.2912   24.0292 C   0  0  1  0  0  0
  -20.5939  -28.3743   23.1160 C   0  0  2  0  0  0
  -20.6782  -26.9427   22.5395 C   0  0  0  0  0  0
  -19.5756  -26.6396   21.5196 C   0  0  0  0  0  0
  -18.1942  -26.7948   22.1626 C   0  0  0  0  0  0
  -19.1576  -28.8908   23.2816 C   0  0  0  0  0  0
  -18.9495  -30.1494   23.8842 C   0  0  0  0  0  0
  -17.6494  -30.6626   24.0535 C   0  0  0  0  0  0
  -25.9103  -34.9326   23.4996 C   0  0  0  0  0  0
  -16.5378  -29.9084   23.6394 C   0  0  0  0  0  0
  -16.7292  -28.6505   23.0407 C   0  0  0  0  0  0
  -26.4624  -31.6523   25.0634 C   0  0  0  0  0  0
  -25.3760  -31.3754   26.1275 C   0  0  0  0  0  0
  -27.0541  -30.2888   24.6398 C   0  0  0  0  0  0
  -27.6080  -32.4360   25.7418 C   0  0  0  0  0  0
  -27.5533  -37.1722   24.8494 C   0  0  0  0  0  0
  -21.4309  -29.2999   22.3478 N   0  0  0  0  0  0
  -26.4275  -37.3650   23.9415 N   0  0  0  0  0  0
  -24.7399  -30.9949   22.0765 N   0  0  0  0  0  0
  -23.4203  -28.8083   23.3062 O   0  0  0  0  0  0
  -28.2392  -25.8924   20.2911 O   0  0  0  0  0  0
  -26.5651  -34.8867   22.4564 O   0  0  0  0  0  0
  -23.5684  -32.1166   23.6884 O   0  0  0  0  0  0
  -30.9899  -22.9524   22.0611 C   0  0  0  0  0  0
  -29.6760  -23.3924   21.8121 C   0  0  0  0  0  0
  -30.9124  -21.6063   20.0349 C   0  0  0  0  0  0
  -29.4979  -21.5969   20.1147 C   0  0  0  0  0  0
  -31.6581  -22.2175   21.0624 C   0  0  0  0  0  0
  -28.9763  -22.9660   20.6565 C   0  0  0  0  0  0
  -29.5971  -18.8298   19.1621 C   0  0  0  0  0  0
  -29.8462  -19.0331   21.4579 C   0  0  0  0  0  0
  -29.3451  -17.2046   19.3014 C   0  0  0  0  0  0
  -29.7226  -17.3889   21.6397 C   0  0  0  0  0  0
  -29.1244  -19.9107   20.2907 C   0  0  0  0  0  0
  -33.1594  -22.0000   21.1540 C   0  0  0  0  0  0
  -28.0423  -24.2832   20.0422 C   0  0  0  0  0  0
  -29.8318  -16.3860   20.4837 N   0  0  0  0  0  0
  -31.4615  -12.9079   19.1784 H   0  0  0  0  0  0
  -30.5178  -11.7832   20.1085 H   0  0  0  0  0  0
  -29.8815  -11.7350   17.6562 H   0  0  0  0  0  0
  -29.5931  -13.4557   17.6908 H   0  0  0  0  0  0
  -27.9805  -11.2802   19.0600 H   0  0  0  0  0  0
  -27.4112  -12.3960   17.8378 H   0  0  0  0  0  0
  -27.5536  -14.2559   19.3497 H   0  0  0  0  0  0
  -28.7640  -12.4678   21.5038 H   0  0  0  0  0  0
  -28.3292  -14.1554   21.6813 H   0  0  0  0  0  0
  -25.2849   -9.5721   22.4810 H   0  0  0  0  0  0
  -24.0092   -7.4664   22.7475 H   0  0  0  0  0  0
  -21.0940   -8.8966   19.8941 H   0  0  0  0  0  0
  -22.3915  -10.9805   19.6208 H   0  0  0  0  0  0
  -21.1992   -7.6212   23.9860 H   0  0  0  0  0  0
  -21.1413   -6.0524   25.9160 H   0  0  0  0  0  0
  -22.0582   -2.7689   23.2791 H   0  0  0  0  0  0
  -22.3835  -11.9916   22.4885 H   0  0  0  0  0  0
  -21.0986  -13.1396   22.2653 H   0  0  0  0  0  0
  -24.6544  -15.8757   20.5739 H   0  0  0  0  0  0
  -26.2673  -15.6454   20.0981 H   0  0  0  0  0  0
  -26.7357  -32.5171   23.0801 H   0  0  0  0  0  0
  -25.0217  -33.9476   25.0239 H   0  0  0  0  0  0
  -22.7842  -31.2623   21.3412 H   0  0  0  0  0  0
  -23.3771  -35.9438   23.3362 H   0  0  0  0  0  0
  -24.3508  -36.8705   22.2048 H   0  0  0  0  0  0
  -23.7268  -37.6328   23.6671 H   0  0  0  0  0  0
  -26.2220  -31.4073   20.6405 H   0  0  0  0  0  0
  -26.8801  -30.6808   22.0706 H   0  0  0  0  0  0
  -28.1460  -28.6424   21.2776 H   0  0  0  0  0  0
  -25.8963  -25.7496   19.0024 H   0  0  0  0  0  0
  -24.0246  -27.2991   18.9110 H   0  0  0  0  0  0
  -23.8272  -30.4934   19.3535 H   0  0  0  0  0  0
  -22.8289  -29.1660   19.8560 H   0  0  0  0  0  0
  -25.1372  -36.1649   25.0780 H   0  0  0  0  0  0
  -21.0033  -28.3361   24.1268 H   0  0  0  0  0  0
  -20.5645  -26.2362   23.3635 H   0  0  0  0  0  0
  -21.6643  -26.7399   22.1196 H   0  0  0  0  0  0
  -19.6890  -25.6287   21.1242 H   0  0  0  0  0  0
  -19.6694  -27.3179   20.6698 H   0  0  0  0  0  0
  -17.4209  -26.6700   21.4030 H   0  0  0  0  0  0
  -18.0356  -26.0081   22.9021 H   0  0  0  0  0  0
  -19.7954  -30.7340   24.2191 H   0  0  0  0  0  0
  -17.5034  -31.6296   24.5122 H   0  0  0  0  0  0
  -15.5375  -30.2971   23.7748 H   0  0  0  0  0  0
  -15.8673  -28.0784   22.7190 H   0  0  0  0  0  0
  -24.5923  -30.7164   25.7526 H   0  0  0  0  0  0
  -24.9023  -32.2985   26.4624 H   0  0  0  0  0  0
  -25.7990  -30.8910   27.0089 H   0  0  0  0  0  0
  -26.3231  -29.6507   24.1421 H   0  0  0  0  0  0
  -27.4073  -29.7302   25.5082 H   0  0  0  0  0  0
  -27.9173  -30.4041   23.9822 H   0  0  0  0  0  0
  -27.2605  -33.3685   26.1861 H   0  0  0  0  0  0
  -28.3931  -32.6885   25.0276 H   0  0  0  0  0  0
  -28.0705  -31.8599   26.5448 H   0  0  0  0  0  0
  -28.2609  -37.9957   24.7462 H   0  0  0  0  0  0
  -28.0975  -36.2491   24.6459 H   0  0  0  0  0  0
  -27.2218  -37.1503   25.8890 H   0  0  0  0  0  0
  -20.9593  -29.8606   21.6501 H   0  0  0  0  0  0
  -26.0094  -38.2700   24.1448 H   0  0  0  0  0  0
  -31.5305  -23.3021   22.9342 H   0  0  0  0  0  0
  -29.2814  -24.1915   22.4315 H   0  0  0  0  0  0
  -31.4181  -20.8710   19.4239 H   0  0  0  0  0  0
  -29.2025  -19.1319   18.1909 H   0  0  0  0  0  0
  -30.6769  -18.9147   19.0340 H   0  0  0  0  0  0
  -29.5923  -19.4771   22.4233 H   0  0  0  0  0  0
  -30.9158  -19.1992   21.3577 H   0  0  0  0  0  0
  -29.7271  -16.7079   18.4062 H   0  0  0  0  0  0
  -28.2657  -17.0335   19.2649 H   0  0  0  0  0  0
  -28.7421  -17.2137   22.0859 H   0  0  0  0  0  0
  -30.4190  -17.0813   22.4284 H   0  0  0  0  0  0
  -28.0420  -19.8079   20.3966 H   0  0  0  0  0  0
  -33.6664  -22.9072   21.4951 H   0  0  0  0  0  0
  -33.5674  -21.7362   20.1757 H   0  0  0  0  0  0
  -33.3728  -21.1920   21.8534 H   0  0  0  0  0  0
  -27.0291  -24.0667   20.3800 H   0  0  0  0  0  0
  -28.0033  -24.1441   18.9587 H   0  0  0  0  0  0
  1 25  1  0  0  0
  1 30  2  0  0  0
  1 84  1  0  0  0
  2  3  1  0  0  0
  2 25  1  0  0  0
  2 85  1  0  0  0
  2 86  1  0  0  0
  3  4  1  0  0  0
  3 87  1  0  0  0
  3 88  1  0  0  0
  4  5  1  0  0  0
  4 89  1  0  0  0
  4 90  1  0  0  0
  5  6  1  0  0  0
  5 26  1  0  0  0
  5 91  1  0  0  0
  6 25  1  0  0  0
  6 92  1  0  0  0
  6 93  1  0  0  0
  7  8  2  0  0  0
  7 26  1  0  0  0
  7 29  1  0  0  0
  8  9  1  0  0  0
  8 22  1  0  0  0
  9 10  1  0  0  0
  9 27  2  0  0  0
 10 11  2  0  0  0
 10 15  1  0  0  0
 11 12  1  0  0  0
 11 94  1  0  0  0
 12 13  2  0  0  0
 12 95  1  0  0  0
 13 14  1  0  0  0
 13 31  1  0  0  0
 14 15  2  0  0  0
 14 96  1  0  0  0
 15 97  1  0  0  0
 16 17  2  0  0  0
 16 21  1  0  0  0
 16 31  1  0  0  0
 17 18  1  0  0  0
 17 98  1  0  0  0
 18 19  2  0  0  0
 18 99  1  0  0  0
 19 20  1  0  0  0
 19 24  1  0  0  0
 20 21  2  0  0  0
 20100  1  0  0  0
 21 23  1  0  0  0
 22 28  1  0  0  0
 22 32  2  0  0  0
 26 27  1  0  0  0
 28101  1  0  0  0
 28102  1  0  0  0
 29103  1  0  0  0
 29104  1  0  0  0
 33 34  1  0  0  0
 33 66  1  0  0  0
 33 70  2  0  0  0
 34 36  1  0  0  0
 34 59  1  0  0  0
 34105  1  0  0  0
 35 44  2  0  0  0
 35 45  1  0  0  0
 35 68  1  0  0  0
 36 56  1  0  0  0
 36106  1  0  0  0
 37 39  1  0  0  0
 37 47  1  0  0  0
 37 66  1  0  0  0
 37107  1  0  0  0
 38 43  2  0  0  0
 38 46  1  0  0  0
 38 47  1  0  0  0
 39 64  1  0  0  0
 39 67  2  0  0  0
 40 52  1  0  0  0
 40 53  2  0  0  0
 40 58  1  0  0  0
 41108  1  0  0  0
 41109  1  0  0  0
 41110  1  0  0  0
 41 48  1  0  0  0
 42 43  1  0  0  0
 42 66  1  0  0  0
 42111  1  0  0  0
 42112  1  0  0  0
 43 44  1  0  0  0
 44113  1  0  0  0
 45 46  2  0  0  0
 45114  1  0  0  0
 46115  1  0  0  0
 47116  1  0  0  0
 47117  1  0  0  0
 48 56  1  0  0  0
 48 65  1  0  0  0
 48118  1  0  0  0
 49 50  1  0  0  0
 49 53  1  0  0  0
 49 64  1  0  0  0
 49119  1  0  0  0
 50 51  1  0  0  0
 50120  1  0  0  0
 50121  1  0  0  0
 51 52  1  0  0  0
 51122  1  0  0  0
 51123  1  0  0  0
 52124  1  0  0  0
 52125  1  0  0  0
 53 54  1  0  0  0
 54 55  2  0  0  0
 54126  1  0  0  0
 55 57  1  0  0  0
 55127  1  0  0  0
 56 69  2  0  0  0
 57 58  2  0  0  0
 57128  1  0  0  0
 58129  1  0  0  0
 59 60  1  0  0  0
 59 61  1  0  0  0
 59 62  1  0  0  0
 60130  1  0  0  0
 60131  1  0  0  0
 60132  1  0  0  0
 61133  1  0  0  0
 61134  1  0  0  0
 61135  1  0  0  0
 62136  1  0  0  0
 62137  1  0  0  0
 62138  1  0  0  0
 63 65  1  0  0  0
 63139  1  0  0  0
 63140  1  0  0  0
 63141  1  0  0  0
 64142  1  0  0  0
 65143  1  0  0  0
 68 83  1  0  0  0
 71 72  2  0  0  0
 71 75  1  0  0  0
 71144  1  0  0  0
 72 76  1  0  0  0
 72145  1  0  0  0
 73 74  1  0  0  0
 73 75  2  0  0  0
 73146  1  0  0  0
 74 76  2  0  0  0
 74 81  1  0  0  0
 75 82  1  0  0  0
 76 83  1  0  0  0
 77 79  1  0  0  0
 77 81  1  0  0  0
 77147  1  0  0  0
 77148  1  0  0  0
 78 80  1  0  0  0
 78 81  1  0  0  0
 78149  1  0  0  0
 78150  1  0  0  0
 79 84  1  0  0  0
 79151  1  0  0  0
 79152  1  0  0  0
 80 84  1  0  0  0
 80153  1  0  0  0
 80154  1  0  0  0
 81155  1  0  0  0
 82156  1  0  0  0
 82157  1  0  0  0
 82158  1  0  0  0
 83159  1  0  0  0
 83160  1  0  0  0
M  ISO  4   1 100  68 101  83 101  84 100
M  END
> <chiral flag>
0

> <version>
0

> <s_m_source_file>
/data/baiqing/PycharmProjects/Reinvent-master-3.2/result/LINK_invent/BTK/process_docking_weight1_custom_sum_contain_oxygen_bond_distance_aromatic_linkinvent_7_9_3/rearranged_h_0147.sdf

> <i_m_source_file_index>
7

> <r_mmod_Potential_Energy-OPLS-2005>
1476.35266113281

> <r_mmod_Stretch_Energy-OPLS-2005>
462.020172119141

> <r_mmod_Bend_Energy-OPLS-2005>
433.844329833984

> <r_mmod_Torsional_Energy-OPLS-2005>
547.975891113281

> <r_mmod_Improper_Torsional_Energy-OPLS-2005>
24.0345497131348

> <r_mmod_Van_der_Waal_Energy-OPLS-2005>
129.87336730957

> <r_mmod_Electrostatic_Energy-OPLS-2005>
-272.102935791016

> <r_mmod_Solvation_Energy-OPLS-2005>
-194.691253662109

> <b_mmod_Minimization_Converged-OPLS-2005>
0

> <r_mmod_RMS_Derivative-OPLS-2005>
9.46014404296875

$$$$
7
                    3D
 Structure written by MMmdl.
169178  0  0  1  0            999 V2000
  -30.7265  -14.4744   20.4408 C   0  0  0  0  0  0
  -30.4297  -12.2880   19.4138 C   0  0  0  0  0  0
  -29.4916  -12.4709   18.2030 C   0  0  0  0  0  0
  -28.0151  -12.3474   18.6182 C   0  0  0  0  0  0
  -27.6678  -13.2048   19.8640 C   0  0  2  0  0  0
  -28.7255  -13.0486   20.9813 C   0  0  0  0  0  0
  -25.2721  -13.8178   20.5699 C   0  0  0  0  0  0
  -24.1966  -13.0493   20.9181 C   0  0  0  0  0  0
  -24.6501  -11.6942   20.8746 C   0  0  0  0  0  0
  -23.9163  -10.4349   21.0415 C   0  0  0  0  0  0
  -24.3732   -9.4263   21.9169 C   0  0  0  0  0  0
  -23.6378   -8.2308   22.0711 C   0  0  0  0  0  0
  -22.4326   -8.0360   21.3549 C   0  0  0  0  0  0
  -21.9987   -9.0343   20.4635 C   0  0  0  0  0  0
  -22.7356  -10.2207   20.3061 C   0  0  0  0  0  0
  -21.6859   -6.0839   22.5293 C   0  0  0  0  0  0
  -21.3990   -6.5699   23.8247 C   0  0  0  0  0  0
  -21.3627   -5.6815   24.9179 C   0  0  0  0  0  0
  -21.6064   -4.3100   24.7205 C   0  0  0  0  0  0
  -21.8842   -3.8212   23.4309 C   0  0  0  0  0  0
  -21.9219   -4.7068   22.3393 C   0  0  0  0  0  0
  -22.8019  -13.5306   21.1877 C   0  0  0  0  0  0
  -22.1698   -4.2277   21.0967 F   0  0  0  0  0  0
  -21.5633   -3.4570   25.7696 F   0  0  0  0  0  0
  -30.0494  -13.3023   20.4006 N   0  0  0  0  0  0
  -26.3134  -12.9332   20.3381 N   0  0  0  0  0  0
  -25.9421  -11.6503   20.5788 N   0  0  0  0  0  0
  -22.0680  -12.8221   22.0366 N   0  0  0  0  0  0
  -25.4545  -15.1885   20.4064 N   0  0  0  0  0  0
  -31.9277  -14.5766   20.1869 O   0  0  0  0  0  0
  -21.6637   -6.9003   21.4257 O   0  0  0  0  0  0
  -22.3703  -14.5660   20.6798 O   0  0  0  0  0  0
  -24.6161  -31.8674   23.2160 C   0  0  0  0  0  0
  -25.9052  -32.4819   23.8444 C   0  0  1  0  0  0
  -27.2246  -27.4400   20.0807 C   0  0  0  0  0  0
  -25.5900  -33.8625   24.2336 N   0  0  0  0  0  0
  -23.4014  -30.4952   21.5575 C   0  0  2  0  0  0
  -24.8395  -28.9640   20.1174 C   0  0  0  0  0  0
  -22.7404  -29.4643   22.5001 C   0  0  0  0  0  0
  -18.0261  -28.1406   22.8507 C   0  0  0  0  0  0
  -24.1478  -36.7319   23.2645 C   0  0  0  0  0  0
  -25.9307  -30.8335   21.3675 C   0  0  0  0  0  0
  -26.0023  -29.4710   20.7102 C   0  0  0  0  0  0
  -27.1949  -28.7165   20.6864 C   0  0  0  0  0  0
  -26.0344  -26.9364   19.5016 C   0  0  0  0  0  0
  -24.8508  -27.6950   19.5157 C   0  0  0  0  0  0
  -23.6082  -29.8377   20.1684 C   0  0  0  0  0  0
  -25.4090  -36.3096   24.0337 C   0  0  1  0  0  0
  -20.5855  -28.3664   23.1342 C   0  0  2  0  0  0
  -20.6759  -26.9402   22.5422 C   0  0  0  0  0  0
  -19.5733  -26.6406   21.5227 C   0  0  0  0  0  0
  -18.1915  -26.7952   22.1631 C   0  0  0  0  0  0
  -19.1524  -28.8846   23.2935 C   0  0  0  0  0  0
  -18.9436  -30.1467   23.8923 C   0  0  0  0  0  0
  -17.6443  -30.6598   24.0588 C   0  0  0  0  0  0
  -25.9014  -34.9469   23.5128 C   0  0  0  0  0  0
  -16.5330  -29.9101   23.6351 C   0  0  0  0  0  0
  -16.7256  -28.6536   23.0341 C   0  0  0  0  0  0
  -26.4479  -31.6630   25.0787 C   0  0  0  0  0  0
  -25.3731  -31.3760   26.1530 C   0  0  0  0  0  0
  -27.0310  -30.3065   24.6181 C   0  0  0  0  0  0
  -27.6055  -32.4369   25.7513 C   0  0  0  0  0  0
  -27.5577  -37.1803   24.8450 C   0  0  0  0  0  0
  -21.4129  -29.3042   22.3759 N   0  0  0  0  0  0
  -26.4265  -37.3790   23.9424 N   0  0  0  0  0  0
  -24.6685  -31.0784   22.1055 N   0  0  0  0  0  0
  -23.4183  -28.8156   23.3023 O   0  0  0  0  0  0
  -28.4232  -26.7598   20.0745 O   0  0  0  0  0  0
  -26.5575  -34.8917   22.4683 O   0  0  0  0  0  0
  -23.5359  -32.1386   23.7567 O   0  0  0  0  0  0
  -28.8790  -20.7659   20.5967 C   0  0  0  0  0  0
  -28.2469  -19.8545   22.7565 C   0  0  0  0  0  0
  -28.8114  -19.6604   21.4756 C   0  0  0  0  0  0
  -27.7333  -21.1337   23.0676 C   0  0  0  0  0  0
  -28.3802  -22.0090   21.0195 C   0  0  0  0  0  0
  -28.8600  -18.8054   25.0970 C   0  0  0  0  0  0
  -29.3499  -17.8201   24.0654 C   0  0  0  0  0  0
  -28.1700  -18.7166   23.7505 C   0  0  0  0  0  0
  -27.0204  -22.4687   26.4895 C   0  0  0  0  0  0
  -27.4545  -22.5587   25.0191 C   0  0  0  0  0  0
  -30.4325  -16.8219   19.7871 C   0  0  0  0  0  0
  -29.4105  -17.9682   19.8417 C   0  0  0  0  0  0
  -28.4842  -25.4220   19.5719 C   0  0  0  0  0  0
  -28.0500  -24.3797   20.6206 C   0  0  0  0  0  0
  -27.8063  -22.1858   22.2271 N   0  0  0  0  0  0
  -27.0890  -21.3534   24.2867 N   0  0  0  0  0  0
  -29.9560  -15.5676   20.3875 N   0  0  0  0  0  0
  -29.3008  -18.4009   21.1922 O   0  0  0  0  0  0
  -28.4779  -23.0920   20.1695 O   0  0  0  0  0  0
  -31.4682  -12.3816   19.0902 H   0  0  0  0  0  0
  -30.3491  -11.2914   19.8435 H   0  0  0  0  0  0
  -29.7197  -11.7356   17.4327 H   0  0  0  0  0  0
  -29.6515  -13.4527   17.7520 H   0  0  0  0  0  0
  -27.8060  -11.2947   18.8126 H   0  0  0  0  0  0
  -27.3770  -12.6324   17.7826 H   0  0  0  0  0  0
  -27.6911  -14.2390   19.5230 H   0  0  0  0  0  0
  -28.7019  -12.0443   21.4003 H   0  0  0  0  0  0
  -28.5276  -13.7304   21.8086 H   0  0  0  0  0  0
  -25.2893   -9.5765   22.4719 H   0  0  0  0  0  0
  -24.0145   -7.4698   22.7380 H   0  0  0  0  0  0
  -21.0940   -8.8925   19.8899 H   0  0  0  0  0  0
  -22.3852  -10.9788   19.6192 H   0  0  0  0  0  0
  -21.1904   -7.6195   23.9806 H   0  0  0  0  0  0
  -21.1394   -6.0500   25.9103 H   0  0  0  0  0  0
  -22.0619   -2.7687   23.2745 H   0  0  0  0  0  0
  -22.4290  -11.9725   22.4482 H   0  0  0  0  0  0
  -21.1369  -13.1298   22.2762 H   0  0  0  0  0  0
  -24.7022  -15.8639   20.4901 H   0  0  0  0  0  0
  -26.3161  -15.5911   20.0641 H   0  0  0  0  0  0
  -26.7112  -32.5501   23.1208 H   0  0  0  0  0  0
  -25.0080  -33.9791   25.0499 H   0  0  0  0  0  0
  -22.6913  -31.3143   21.4273 H   0  0  0  0  0  0
  -23.3736  -35.9660   23.3265 H   0  0  0  0  0  0
  -24.3591  -36.8970   22.2072 H   0  0  0  0  0  0
  -23.7222  -37.6513   23.6676 H   0  0  0  0  0  0
  -26.0446  -31.6038   20.6030 H   0  0  0  0  0  0
  -26.8190  -30.8780   21.9864 H   0  0  0  0  0  0
  -28.0960  -29.1122   21.1338 H   0  0  0  0  0  0
  -25.9850  -25.9679   19.0283 H   0  0  0  0  0  0
  -23.9510  -27.2963   19.0674 H   0  0  0  0  0  0
  -23.7282  -30.6207   19.4181 H   0  0  0  0  0  0
  -22.7256  -29.2737   19.8638 H   0  0  0  0  0  0
  -25.1263  -36.1965   25.0830 H   0  0  0  0  0  0
  -20.9960  -28.3213   24.1454 H   0  0  0  0  0  0
  -20.5704  -26.2246   23.3594 H   0  0  0  0  0  0
  -21.6624  -26.7477   22.1180 H   0  0  0  0  0  0
  -19.6890  -25.6327   21.1237 H   0  0  0  0  0  0
  -19.6692  -27.3242   20.6783 H   0  0  0  0  0  0
  -17.4190  -26.6738   21.4021 H   0  0  0  0  0  0
  -18.0287  -26.0088   22.9016 H   0  0  0  0  0  0
  -19.7898  -30.7316   24.2273 H   0  0  0  0  0  0
  -17.4966  -31.6268   24.5208 H   0  0  0  0  0  0
  -15.5324  -30.3007   23.7657 H   0  0  0  0  0  0
  -15.8648  -28.0878   22.7000 H   0  0  0  0  0  0
  -24.5884  -30.7121   25.7882 H   0  0  0  0  0  0
  -24.8945  -32.2933   26.4986 H   0  0  0  0  0  0
  -25.8064  -30.8929   27.0294 H   0  0  0  0  0  0
  -26.2863  -29.6842   24.1198 H   0  0  0  0  0  0
  -27.4017  -29.7312   25.4678 H   0  0  0  0  0  0
  -27.8727  -30.4391   23.9376 H   0  0  0  0  0  0
  -27.2669  -33.3665   26.2113 H   0  0  0  0  0  0
  -28.3826  -32.6949   25.0305 H   0  0  0  0  0  0
  -28.0762  -31.8494   26.5407 H   0  0  0  0  0  0
  -28.2553  -38.0141   24.7539 H   0  0  0  0  0  0
  -28.1103  -36.2673   24.6188 H   0  0  0  0  0  0
  -27.2314  -37.1348   25.8856 H   0  0  0  0  0  0
  -20.9264  -29.8781   21.7012 H   0  0  0  0  0  0
  -26.0147  -38.2854   24.1476 H   0  0  0  0  0  0
  -29.3333  -20.7100   19.6197 H   0  0  0  0  0  0
  -29.4995  -19.6644   25.2988 H   0  0  0  0  0  0
  -28.3365  -18.4011   25.9621 H   0  0  0  0  0  0
  -29.1594  -16.7662   24.2731 H   0  0  0  0  0  0
  -30.3012  -18.0324   23.5817 H   0  0  0  0  0  0
  -27.1915  -18.2398   23.7125 H   0  0  0  0  0  0
  -25.9395  -22.3624   26.5913 H   0  0  0  0  0  0
  -27.3110  -23.3638   27.0412 H   0  0  0  0  0  0
  -27.4817  -21.6197   26.9944 H   0  0  0  0  0  0
  -28.5355  -22.7004   24.9639 H   0  0  0  0  0  0
  -26.9963  -23.4307   24.5482 H   0  0  0  0  0  0
  -31.3638  -17.1407   20.2572 H   0  0  0  0  0  0
  -30.6874  -16.6277   18.7420 H   0  0  0  0  0  0
  -28.4341  -17.6473   19.4737 H   0  0  0  0  0  0
  -29.7721  -18.7473   19.1738 H   0  0  0  0  0  0
  -27.9595  -25.2988   18.6245 H   0  0  0  0  0  0
  -29.5317  -25.2399   19.3307 H   0  0  0  0  0  0
  -26.9694  -24.4013   20.7687 H   0  0  0  0  0  0
  -28.5239  -24.6219   21.5728 H   0  0  0  0  0  0
  -27.0140  -20.5164   24.8542 H   0  0  0  0  0  0
  -28.9614  -15.4282   20.4714 H   0  0  0  0  0  0
  1 25  1  0  0  0
  1 30  2  0  0  0
  1 87  1  0  0  0
  2  3  1  0  0  0
  2 25  1  0  0  0
  2 90  1  0  0  0
  2 91  1  0  0  0
  3  4  1  0  0  0
  3 92  1  0  0  0
  3 93  1  0  0  0
  4  5  1  0  0  0
  4 94  1  0  0  0
  4 95  1  0  0  0
  5  6  1  0  0  0
  5 26  1  0  0  0
  5 96  1  0  0  0
  6 25  1  0  0  0
  6 97  1  0  0  0
  6 98  1  0  0  0
  7  8  2  0  0  0
  7 26  1  0  0  0
  7 29  1  0  0  0
  8  9  1  0  0  0
  8 22  1  0  0  0
  9 10  1  0  0  0
  9 27  2  0  0  0
 10 11  2  0  0  0
 10 15  1  0  0  0
 11 12  1  0  0  0
 11 99  1  0  0  0
 12 13  2  0  0  0
 12100  1  0  0  0
 13 14  1  0  0  0
 13 31  1  0  0  0
 14 15  2  0  0  0
 14101  1  0  0  0
 15102  1  0  0  0
 16 17  2  0  0  0
 16 21  1  0  0  0
 16 31  1  0  0  0
 17 18  1  0  0  0
 17103  1  0  0  0
 18 19  2  0  0  0
 18104  1  0  0  0
 19 20  1  0  0  0
 19 24  1  0  0  0
 20 21  2  0  0  0
 20105  1  0  0  0
 21 23  1  0  0  0
 22 28  1  0  0  0
 22 32  2  0  0  0
 26 27  1  0  0  0
 28106  1  0  0  0
 28107  1  0  0  0
 29108  1  0  0  0
 29109  1  0  0  0
 33 34  1  0  0  0
 33 66  1  0  0  0
 33 70  2  0  0  0
 34 36  1  0  0  0
 34 59  1  0  0  0
 34110  1  0  0  0
 35 44  2  0  0  0
 35 45  1  0  0  0
 35 68  1  0  0  0
 36 56  1  0  0  0
 36111  1  0  0  0
 37 39  1  0  0  0
 37 47  1  0  0  0
 37 66  1  0  0  0
 37112  1  0  0  0
 38 43  2  0  0  0
 38 46  1  0  0  0
 38 47  1  0  0  0
 39 64  1  0  0  0
 39 67  2  0  0  0
 40 52  1  0  0  0
 40 53  2  0  0  0
 40 58  1  0  0  0
 41113  1  0  0  0
 41114  1  0  0  0
 41115  1  0  0  0
 41 48  1  0  0  0
 42 43  1  0  0  0
 42 66  1  0  0  0
 42116  1  0  0  0
 42117  1  0  0  0
 43 44  1  0  0  0
 44118  1  0  0  0
 45 46  2  0  0  0
 45119  1  0  0  0
 46120  1  0  0  0
 47121  1  0  0  0
 47122  1  0  0  0
 48 56  1  0  0  0
 48 65  1  0  0  0
 48123  1  0  0  0
 49 50  1  0  0  0
 49 53  1  0  0  0
 49 64  1  0  0  0
 49124  1  0  0  0
 50 51  1  0  0  0
 50125  1  0  0  0
 50126  1  0  0  0
 51 52  1  0  0  0
 51127  1  0  0  0
 51128  1  0  0  0
 52129  1  0  0  0
 52130  1  0  0  0
 53 54  1  0  0  0
 54 55  2  0  0  0
 54131  1  0  0  0
 55 57  1  0  0  0
 55132  1  0  0  0
 56 69  2  0  0  0
 57 58  2  0  0  0
 57133  1  0  0  0
 58134  1  0  0  0
 59 60  1  0  0  0
 59 61  1  0  0  0
 59 62  1  0  0  0
 60135  1  0  0  0
 60136  1  0  0  0
 60137  1  0  0  0
 61138  1  0  0  0
 61139  1  0  0  0
 61140  1  0  0  0
 62141  1  0  0  0
 62142  1  0  0  0
 62143  1  0  0  0
 63 65  1  0  0  0
 63144  1  0  0  0
 63145  1  0  0  0
 63146  1  0  0  0
 64147  1  0  0  0
 65148  1  0  0  0
 68 83  1  0  0  0
 71 73  2  0  0  0
 71 75  1  0  0  0
 71149  1  0  0  0
 72 73  1  0  0  0
 72 74  2  0  0  0
 72 78  1  0  0  0
 73 88  1  0  0  0
 74 85  1  0  0  0
 74 86  1  0  0  0
 75 85  2  0  0  0
 75 89  1  0  0  0
 76 77  1  0  0  0
 76 78  1  0  0  0
 76150  1  0  0  0
 76151  1  0  0  0
 77 78  1  0  0  0
 77152  1  0  0  0
 77153  1  0  0  0
 78154  1  0  0  0
 79 80  1  0  0  0
 79155  1  0  0  0
 79156  1  0  0  0
 79157  1  0  0  0
 80 86  1  0  0  0
 80158  1  0  0  0
 80159  1  0  0  0
 81 82  1  0  0  0
 81 87  1  0  0  0
 81160  1  0  0  0
 81161  1  0  0  0
 82 88  1  0  0  0
 82162  1  0  0  0
 82163  1  0  0  0
 83 84  1  0  0  0
 83164  1  0  0  0
 83165  1  0  0  0
 84 89  1  0  0  0
 84166  1  0  0  0
 84167  1  0  0  0
 86168  1  0  0  0
 87169  1  0  0  0
M  ISO  4   1 100  68 101  83 101  87 100
M  END
> <chiral flag>
0

> <version>
0

> <s_m_source_file>
/data/baiqing/PycharmProjects/Reinvent-master-3.2/result/LINK_invent/BTK/process_docking_weight1_custom_sum_contain_oxygen_bond_distance_aromatic_linkinvent_7_9_3/rearranged_h_0147.sdf

> <i_m_source_file_index>
8

> <r_mmod_Potential_Energy-OPLS-2005>
-289.871887207031

> <r_mmod_Stretch_Energy-OPLS-2005>
33.3355865478516

> <r_mmod_Bend_Energy-OPLS-2005>
118.629974365234

> <r_mmod_Torsional_Energy-OPLS-2005>
233.083801269531

> <r_mmod_Improper_Torsional_Energy-OPLS-2005>
15.392014503479

> <r_mmod_Van_der_Waal_Energy-OPLS-2005>
166.236862182617

> <r_mmod_Electrostatic_Energy-OPLS-2005>
-652.890197753906

> <r_mmod_Solvation_Energy-OPLS-2005>
-226.360137939453

> <b_mmod_Minimization_Converged-OPLS-2005>
0

> <r_mmod_RMS_Derivative-OPLS-2005>
5.04517793655396

$$$$
8
                    3D
 Structure written by MMmdl.
169178  0  0  1  0            999 V2000
  -30.6596  -14.6417   20.4214 C   0  0  0  0  0  0
  -30.4189  -12.3780   19.4622 C   0  0  0  0  0  0
  -29.5003  -12.4778   18.2257 C   0  0  0  0  0  0
  -28.0247  -12.3256   18.6420 C   0  0  0  0  0  0
  -27.6442  -13.2238   19.8503 C   0  0  2  0  0  0
  -28.6926  -13.1402   20.9830 C   0  0  0  0  0  0
  -25.2525  -13.8196   20.5690 C   0  0  0  0  0  0
  -24.1813  -13.0446   20.9204 C   0  0  0  0  0  0
  -24.6392  -11.6917   20.8758 C   0  0  0  0  0  0
  -23.9070  -10.4295   21.0410 C   0  0  0  0  0  0
  -24.3625   -9.4211   21.9186 C   0  0  0  0  0  0
  -23.6305   -8.2248   22.0757 C   0  0  0  0  0  0
  -22.4282   -8.0288   21.3550 C   0  0  0  0  0  0
  -21.9920   -9.0254   20.4642 C   0  0  0  0  0  0
  -22.7247  -10.2131   20.3053 C   0  0  0  0  0  0
  -21.6851   -6.0744   22.5284 C   0  0  0  0  0  0
  -21.4010   -6.5643   23.8218 C   0  0  0  0  0  0
  -21.3661   -5.6794   24.9176 C   0  0  0  0  0  0
  -21.6036   -4.3060   24.7224 C   0  0  0  0  0  0
  -21.8824   -3.8153   23.4347 C   0  0  0  0  0  0
  -21.9192   -4.6969   22.3402 C   0  0  0  0  0  0
  -22.7828  -13.5225   21.1858 C   0  0  0  0  0  0
  -22.1661   -4.2155   21.0982 F   0  0  0  0  0  0
  -21.5627   -3.4543   25.7738 F   0  0  0  0  0  0
  -30.0038  -13.4413   20.3984 N   0  0  0  0  0  0
  -26.2956  -12.9388   20.3299 N   0  0  0  0  0  0
  -25.9325  -11.6534   20.5777 N   0  0  0  0  0  0
  -22.0478  -12.8207   22.0399 N   0  0  0  0  0  0
  -25.4228  -15.1920   20.4098 N   0  0  0  0  0  0
  -31.8596  -14.7075   20.1470 O   0  0  0  0  0  0
  -21.6645   -6.8888   21.4244 O   0  0  0  0  0  0
  -22.3516  -14.5538   20.6713 O   0  0  0  0  0  0
  -24.6243  -31.8591   23.2011 C   0  0  0  0  0  0
  -25.9108  -32.4767   23.8321 C   0  0  1  0  0  0
  -27.2276  -27.3328   20.1318 C   0  0  0  0  0  0
  -25.5933  -33.8564   24.2257 N   0  0  0  0  0  0
  -23.4169  -30.4799   21.5447 C   0  0  2  0  0  0
  -24.8646  -28.9291   20.1154 C   0  0  0  0  0  0
  -22.7460  -29.4602   22.4951 C   0  0  0  0  0  0
  -18.0267  -28.1347   22.8467 C   0  0  0  0  0  0
  -24.1497  -36.7292   23.2639 C   0  0  0  0  0  0
  -25.9541  -30.7962   21.3665 C   0  0  0  0  0  0
  -26.0312  -29.4227   20.7135 C   0  0  0  0  0  0
  -27.2193  -28.6369   20.7085 C   0  0  0  0  0  0
  -26.0424  -26.8758   19.5210 C   0  0  0  0  0  0
  -24.8702  -27.6594   19.5102 C   0  0  0  0  0  0
  -23.6297  -29.8085   20.1617 C   0  0  0  0  0  0
  -25.4126  -36.3076   24.0329 C   0  0  1  0  0  0
  -20.5874  -28.3660   23.1290 C   0  0  2  0  0  0
  -20.6771  -26.9397   22.5414 C   0  0  0  0  0  0
  -19.5752  -26.6364   21.5208 C   0  0  0  0  0  0
  -18.1918  -26.7892   22.1607 C   0  0  0  0  0  0
  -19.1526  -28.8827   23.2855 C   0  0  0  0  0  0
  -18.9459  -30.1429   23.8875 C   0  0  0  0  0  0
  -17.6468  -30.6570   24.0554 C   0  0  0  0  0  0
  -25.9068  -34.9448   23.5092 C   0  0  0  0  0  0
  -16.5355  -29.9075   23.6324 C   0  0  0  0  0  0
  -16.7264  -28.6483   23.0351 C   0  0  0  0  0  0
  -26.4501  -31.6573   25.0683 C   0  0  0  0  0  0
  -25.3738  -31.3709   26.1409 C   0  0  0  0  0  0
  -27.0339  -30.2994   24.6115 C   0  0  0  0  0  0
  -27.6041  -32.4310   25.7469 C   0  0  0  0  0  0
  -27.5599  -37.1783   24.8465 C   0  0  0  0  0  0
  -21.4175  -29.3011   22.3693 N   0  0  0  0  0  0
  -26.4298  -37.3782   23.9427 N   0  0  0  0  0  0
  -24.6837  -31.0616   22.0957 N   0  0  0  0  0  0
  -23.4185  -28.8159   23.3031 O   0  0  0  0  0  0
  -28.3514  -26.5034   20.1235 O   0  0  0  0  0  0
  -26.5649  -34.8931   22.4671 O   0  0  0  0  0  0
  -23.5420  -32.1394   23.7366 O   0  0  0  0  0  0
  -28.8327  -20.7305   19.4364 C   0  0  0  0  0  0
  -29.5672  -20.4090   21.6955 C   0  0  0  0  0  0
  -29.1478  -19.3649   19.1478 C   0  0  0  0  0  0
  -29.7242  -18.4890   20.1251 C   0  0  0  0  0  0
  -29.0559  -21.3010   20.7110 C   0  0  0  0  0  0
  -29.8958  -19.0438   21.4184 C   0  0  0  0  0  0
  -28.9104  -18.9020   17.7193 C   0  0  0  0  0  0
  -30.3743  -16.8960   18.1968 C   0  0  0  0  0  0
  -30.3327  -17.0792   19.7378 C   0  0  2  0  0  0
  -29.0937  -17.3907   17.5019 C   0  0  2  0  0  0
  -30.2581  -16.8734   24.3310 C   0  0  0  0  0  0
  -28.5974  -23.8350   20.1157 C   0  0  0  0  0  0
  -29.5789  -17.9166   23.4410 C   0  0  0  0  0  0
  -28.2578  -25.2178   20.8414 C   0  0  0  0  0  0
  -28.7922  -22.6732   21.0437 N   0  0  0  0  0  0
  -29.8999  -15.7870   20.4009 N   0  0  0  0  0  0
  -29.0680  -17.0597   16.0624 N   0  3  0  0  0  0
  -30.4647  -18.2565   22.3866 O   0  0  0  0  0  0
  -31.4644  -12.4643   19.1620 H   0  0  0  0  0  0
  -30.3242  -11.4004   19.9378 H   0  0  0  0  0  0
  -29.7636  -11.7090   17.4973 H   0  0  0  0  0  0
  -29.6457  -13.4365   17.7260 H   0  0  0  0  0  0
  -27.8656  -11.2772   18.8974 H   0  0  0  0  0  0
  -27.3683  -12.5322   17.7952 H   0  0  0  0  0  0
  -27.6443  -14.2465   19.4741 H   0  0  0  0  0  0
  -28.7010  -12.1453   21.4303 H   0  0  0  0  0  0
  -28.4558  -13.8394   21.7871 H   0  0  0  0  0  0
  -25.2769   -9.5681   22.4758 H   0  0  0  0  0  0
  -24.0006   -7.4635   22.7478 H   0  0  0  0  0  0
  -21.0855   -8.8777   19.8945 H   0  0  0  0  0  0
  -22.3719  -10.9671   19.6160 H   0  0  0  0  0  0
  -21.2010   -7.6151   23.9721 H   0  0  0  0  0  0
  -21.1472   -6.0525   25.9077 H   0  0  0  0  0  0
  -22.0603   -2.7616   23.2848 H   0  0  0  0  0  0
  -22.4101  -11.9863   22.4776 H   0  0  0  0  0  0
  -21.1094  -13.1214   22.2605 H   0  0  0  0  0  0
  -24.6559  -15.8451   20.5261 H   0  0  0  0  0  0
  -26.2706  -15.6347   20.0841 H   0  0  0  0  0  0
  -26.7175  -32.5448   23.1064 H   0  0  0  0  0  0
  -25.0065  -33.9705   25.0395 H   0  0  0  0  0  0
  -22.7085  -31.2983   21.3987 H   0  0  0  0  0  0
  -23.3764  -35.9617   23.3279 H   0  0  0  0  0  0
  -24.3585  -36.8945   22.2061 H   0  0  0  0  0  0
  -23.7229  -37.6480   23.6672 H   0  0  0  0  0  0
  -26.0775  -31.5594   20.5971 H   0  0  0  0  0  0
  -26.8363  -30.8478   21.9924 H   0  0  0  0  0  0
  -28.1178  -29.0132   21.1773 H   0  0  0  0  0  0
  -26.0217  -25.8995   19.0566 H   0  0  0  0  0  0
  -23.9735  -27.2699   19.0452 H   0  0  0  0  0  0
  -23.7419  -30.5799   19.3991 H   0  0  0  0  0  0
  -22.7507  -29.2339   19.8658 H   0  0  0  0  0  0
  -25.1274  -36.1933   25.0816 H   0  0  0  0  0  0
  -20.9921  -28.3257   24.1426 H   0  0  0  0  0  0
  -20.5687  -26.2286   23.3614 H   0  0  0  0  0  0
  -21.6641  -26.7438   22.1204 H   0  0  0  0  0  0
  -19.6971  -25.6285   21.1223 H   0  0  0  0  0  0
  -19.6716  -27.3192   20.6748 H   0  0  0  0  0  0
  -17.4203  -26.6630   21.3991 H   0  0  0  0  0  0
  -18.0311  -26.0022   22.8990 H   0  0  0  0  0  0
  -19.7966  -30.7200   24.2261 H   0  0  0  0  0  0
  -17.5058  -31.6257   24.5139 H   0  0  0  0  0  0
  -15.5370  -30.2983   23.7666 H   0  0  0  0  0  0
  -15.8644  -28.0807   22.7088 H   0  0  0  0  0  0
  -24.5921  -30.7042   25.7752 H   0  0  0  0  0  0
  -24.8916  -32.2882   26.4799 H   0  0  0  0  0  0
  -25.8059  -30.8919   27.0204 H   0  0  0  0  0  0
  -26.2895  -29.6734   24.1172 H   0  0  0  0  0  0
  -27.4098  -29.7237   25.4586 H   0  0  0  0  0  0
  -27.8737  -30.4275   23.9275 H   0  0  0  0  0  0
  -27.2618  -33.3618   26.1998 H   0  0  0  0  0  0
  -28.3871  -32.6862   25.0318 H   0  0  0  0  0  0
  -28.0673  -31.8468   26.5430 H   0  0  0  0  0  0
  -28.2549  -38.0140   24.7544 H   0  0  0  0  0  0
  -28.1127  -36.2650   24.6195 H   0  0  0  0  0  0
  -27.2304  -37.1328   25.8863 H   0  0  0  0  0  0
  -20.9380  -29.8736   21.6891 H   0  0  0  0  0  0
  -26.0173  -38.2851   24.1454 H   0  0  0  0  0  0
  -28.4284  -21.3524   18.6505 H   0  0  0  0  0  0
  -29.7576  -20.7877   22.6891 H   0  0  0  0  0  0
  -29.5942  -19.4604   17.0780 H   0  0  0  0  0  0
  -27.9017  -19.1921   17.4214 H   0  0  0  0  0  0
  -30.5925  -15.8653   17.9206 H   0  0  0  0  0  0
  -31.2133  -17.4752   17.8091 H   0  0  0  0  0  0
  -31.3758  -17.1943   20.0410 H   0  0  0  0  0  0
  -28.2489  -16.8748   17.9627 H   0  0  0  0  0  0
  -29.6075  -16.5906   25.1585 H   0  0  0  0  0  0
  -31.1862  -17.2613   24.7523 H   0  0  0  0  0  0
  -30.4950  -15.9692   23.7690 H   0  0  0  0  0  0
  -29.5124  -23.9536   19.5346 H   0  0  0  0  0  0
  -27.8078  -23.6041   19.3998 H   0  0  0  0  0  0
  -29.3190  -18.7998   24.0259 H   0  0  0  0  0  0
  -28.6526  -17.5031   23.0360 H   0  0  0  0  0  0
  -28.9627  -25.3237   21.6669 H   0  0  0  0  0  0
  -27.2837  -25.1316   21.3249 H   0  0  0  0  0  0
  -28.9920  -22.9384   22.0053 H   0  0  0  0  0  0
  -28.9239  -15.6929   20.6346 H   0  0  0  0  0  0
  -29.8285  -17.4983   15.5727 H   0  0  0  0  0  0
  -28.2094  -17.3763   15.6456 H   0  0  0  0  0  0
  -29.1279  -16.0682   15.9169 H   0  0  0  0  0  0
  1 25  1  0  0  0
  1 30  2  0  0  0
  1 86  1  0  0  0
  2  3  1  0  0  0
  2 25  1  0  0  0
  2 89  1  0  0  0
  2 90  1  0  0  0
  3  4  1  0  0  0
  3 91  1  0  0  0
  3 92  1  0  0  0
  4  5  1  0  0  0
  4 93  1  0  0  0
  4 94  1  0  0  0
  5  6  1  0  0  0
  5 26  1  0  0  0
  5 95  1  0  0  0
  6 25  1  0  0  0
  6 96  1  0  0  0
  6 97  1  0  0  0
  7  8  2  0  0  0
  7 26  1  0  0  0
  7 29  1  0  0  0
  8  9  1  0  0  0
  8 22  1  0  0  0
  9 10  1  0  0  0
  9 27  2  0  0  0
 10 11  2  0  0  0
 10 15  1  0  0  0
 11 12  1  0  0  0
 11 98  1  0  0  0
 12 13  2  0  0  0
 12 99  1  0  0  0
 13 14  1  0  0  0
 13 31  1  0  0  0
 14 15  2  0  0  0
 14100  1  0  0  0
 15101  1  0  0  0
 16 17  2  0  0  0
 16 21  1  0  0  0
 16 31  1  0  0  0
 17 18  1  0  0  0
 17102  1  0  0  0
 18 19  2  0  0  0
 18103  1  0  0  0
 19 20  1  0  0  0
 19 24  1  0  0  0
 20 21  2  0  0  0
 20104  1  0  0  0
 21 23  1  0  0  0
 22 28  1  0  0  0
 22 32  2  0  0  0
 26 27  1  0  0  0
 28105  1  0  0  0
 28106  1  0  0  0
 29107  1  0  0  0
 29108  1  0  0  0
 33 34  1  0  0  0
 33 66  1  0  0  0
 33 70  2  0  0  0
 34 36  1  0  0  0
 34 59  1  0  0  0
 34109  1  0  0  0
 35 44  2  0  0  0
 35 45  1  0  0  0
 35 68  1  0  0  0
 36 56  1  0  0  0
 36110  1  0  0  0
 37 39  1  0  0  0
 37 47  1  0  0  0
 37 66  1  0  0  0
 37111  1  0  0  0
 38 43  2  0  0  0
 38 46  1  0  0  0
 38 47  1  0  0  0
 39 64  1  0  0  0
 39 67  2  0  0  0
 40 52  1  0  0  0
 40 53  2  0  0  0
 40 58  1  0  0  0
 41112  1  0  0  0
 41113  1  0  0  0
 41114  1  0  0  0
 41 48  1  0  0  0
 42 43  1  0  0  0
 42 66  1  0  0  0
 42115  1  0  0  0
 42116  1  0  0  0
 43 44  1  0  0  0
 44117  1  0  0  0
 45 46  2  0  0  0
 45118  1  0  0  0
 46119  1  0  0  0
 47120  1  0  0  0
 47121  1  0  0  0
 48 56  1  0  0  0
 48 65  1  0  0  0
 48122  1  0  0  0
 49 50  1  0  0  0
 49 53  1  0  0  0
 49 64  1  0  0  0
 49123  1  0  0  0
 50 51  1  0  0  0
 50124  1  0  0  0
 50125  1  0  0  0
 51 52  1  0  0  0
 51126  1  0  0  0
 51127  1  0  0  0
 52128  1  0  0  0
 52129  1  0  0  0
 53 54  1  0  0  0
 54 55  2  0  0  0
 54130  1  0  0  0
 55 57  1  0  0  0
 55131  1  0  0  0
 56 69  2  0  0  0
 57 58  2  0  0  0
 57132  1  0  0  0
 58133  1  0  0  0
 59 60  1  0  0  0
 59 61  1  0  0  0
 59 62  1  0  0  0
 60134  1  0  0  0
 60135  1  0  0  0
 60136  1  0  0  0
 61137  1  0  0  0
 61138  1  0  0  0
 61139  1  0  0  0
 62140  1  0  0  0
 62141  1  0  0  0
 62142  1  0  0  0
 63 65  1  0  0  0
 63143  1  0  0  0
 63144  1  0  0  0
 63145  1  0  0  0
 64146  1  0  0  0
 65147  1  0  0  0
 68 84  1  0  0  0
 71 73  2  0  0  0
 71 75  1  0  0  0
 71148  1  0  0  0
 72 75  2  0  0  0
 72 76  1  0  0  0
 72149  1  0  0  0
 73 74  1  0  0  0
 73 77  1  0  0  0
 74 76  2  0  0  0
 74 79  1  0  0  0
 75 85  1  0  0  0
 76 88  1  0  0  0
 77 80  1  0  0  0
 77150  1  0  0  0
 77151  1  0  0  0
 78 79  1  0  0  0
 78 80  1  0  0  0
 78152  1  0  0  0
 78153  1  0  0  0
 79 86  1  0  0  0
 79154  1  0  0  0
 80 87  1  0  0  0
 80155  1  0  0  0
 81 83  1  0  0  0
 81156  1  0  0  0
 81157  1  0  0  0
 81158  1  0  0  0
 82 84  1  0  0  0
 82 85  1  0  0  0
 82159  1  0  0  0
 82160  1  0  0  0
 83 88  1  0  0  0
 83161  1  0  0  0
 83162  1  0  0  0
 84163  1  0  0  0
 84164  1  0  0  0
 85165  1  0  0  0
 86166  1  0  0  0
 87167  1  0  0  0
 87168  1  0  0  0
 87169  1  0  0  0
M  CHG  1  87   1
M  ISO  4   1 100  68 101  84 101  86 100
M  END
> <chiral flag>
0

> <version>
0

> <s_m_source_file>
/data/baiqing/PycharmProjects/Reinvent-master-3.2/result/LINK_invent/BTK/process_docking_weight1_custom_sum_contain_oxygen_bond_distance_aromatic_linkinvent_7_9_3/rearranged_h_0147.sdf

> <i_m_source_file_index>
9

> <r_mmod_Potential_Energy-OPLS-2005>
-135.685806274414

> <r_mmod_Stretch_Energy-OPLS-2005>
80.2825393676758

> <r_mmod_Bend_Energy-OPLS-2005>
154.151916503906

> <r_mmod_Torsional_Energy-OPLS-2005>
264.732116699219

> <r_mmod_Improper_Torsional_Energy-OPLS-2005>
11.7558746337891

> <r_mmod_Van_der_Waal_Energy-OPLS-2005>
132.99201965332

> <r_mmod_Electrostatic_Energy-OPLS-2005>
-296.444610595703

> <r_mmod_Solvation_Energy-OPLS-2005>
-533.399658203125

> <b_mmod_Minimization_Converged-OPLS-2005>
0

> <r_mmod_RMS_Derivative-OPLS-2005>
2.54907464981079

$$$$
9
                    3D
 Structure written by MMmdl.
153161  0  0  1  0            999 V2000
  -30.4336  -15.2489   20.3593 C   0  0  0  0  0  0
  -30.4395  -12.7903   19.5354 C   0  0  0  0  0  0
  -29.5381  -12.5743   18.2933 C   0  0  0  0  0  0
  -28.0837  -12.3053   18.7146 C   0  0  0  0  0  0
  -27.6145  -13.2741   19.8280 C   0  0  2  0  0  0
  -28.6461  -13.4345   20.9661 C   0  0  0  0  0  0
  -25.2391  -13.8251   20.5740 C   0  0  0  0  0  0
  -24.1743  -13.0442   20.9253 C   0  0  0  0  0  0
  -24.6397  -11.6935   20.8752 C   0  0  0  0  0  0
  -23.9083  -10.4295   21.0398 C   0  0  0  0  0  0
  -24.3626   -9.4208   21.9177 C   0  0  0  0  0  0
  -23.6294   -8.2246   22.0749 C   0  0  0  0  0  0
  -22.4272   -8.0284   21.3547 C   0  0  0  0  0  0
  -21.9912   -9.0261   20.4651 C   0  0  0  0  0  0
  -22.7245  -10.2136   20.3055 C   0  0  0  0  0  0
  -21.6861   -6.0728   22.5274 C   0  0  0  0  0  0
  -21.4023   -6.5634   23.8207 C   0  0  0  0  0  0
  -21.3659   -5.6784   24.9170 C   0  0  0  0  0  0
  -21.6042   -4.3045   24.7218 C   0  0  0  0  0  0
  -21.8818   -3.8140   23.4339 C   0  0  0  0  0  0
  -21.9200   -4.6961   22.3396 C   0  0  0  0  0  0
  -22.7761  -13.5196   21.1897 C   0  0  0  0  0  0
  -22.1663   -4.2145   21.0972 F   0  0  0  0  0  0
  -21.5626   -3.4528   25.7731 F   0  0  0  0  0  0
  -29.8855  -13.9346   20.3499 N   0  0  0  0  0  0
  -26.2822  -12.9524   20.3220 N   0  0  0  0  0  0
  -25.9334  -11.6630   20.5713 N   0  0  0  0  0  0
  -22.0411  -12.8185   22.0457 N   0  0  0  0  0  0
  -25.4031  -15.1984   20.4164 N   0  0  0  0  0  0
  -31.6423  -15.2667   20.0864 O   0  0  0  0  0  0
  -21.6641   -6.8876   21.4237 O   0  0  0  0  0  0
  -22.3437  -14.5496   20.6739 O   0  0  0  0  0  0
  -24.6630  -31.8216   23.1708 C   0  0  0  0  0  0
  -25.9317  -32.4573   23.8156 C   0  0  1  0  0  0
  -27.2230  -26.9275   20.1789 C   0  0  0  0  0  0
  -25.5988  -33.8387   24.2070 N   0  0  0  0  0  0
  -23.4774  -30.4340   21.5186 C   0  0  2  0  0  0
  -24.9318  -28.8206   20.1078 C   0  0  0  0  0  0
  -22.7660  -29.4431   22.4771 C   0  0  0  0  0  0
  -18.0317  -28.1412   22.8455 C   0  0  0  0  0  0
  -24.1495  -36.7193   23.2646 C   0  0  0  0  0  0
  -26.0457  -30.6276   21.4009 C   0  0  0  0  0  0
  -26.1132  -29.2179   20.7443 C   0  0  0  0  0  0
  -27.2489  -28.2907   20.7589 C   0  0  0  0  0  0
  -26.0149  -26.6854   19.4837 C   0  0  0  0  0  0
  -24.9084  -27.5745   19.4585 C   0  0  0  0  0  0
  -23.7171  -29.7484   20.1444 C   0  0  0  0  0  0
  -25.4135  -36.2958   24.0300 C   0  0  1  0  0  0
  -20.5943  -28.3751   23.1186 C   0  0  2  0  0  0
  -20.6798  -26.9428   22.5411 C   0  0  0  0  0  0
  -19.5780  -26.6379   21.5214 C   0  0  0  0  0  0
  -18.1955  -26.7944   22.1609 C   0  0  0  0  0  0
  -19.1582  -28.8904   23.2806 C   0  0  0  0  0  0
  -18.9493  -30.1489   23.8845 C   0  0  0  0  0  0
  -17.6483  -30.6598   24.0553 C   0  0  0  0  0  0
  -25.9098  -34.9340   23.5004 C   0  0  0  0  0  0
  -16.5375  -29.9084   23.6348 C   0  0  0  0  0  0
  -16.7303  -28.6506   23.0356 C   0  0  0  0  0  0
  -26.4571  -31.6524   25.0687 C   0  0  0  0  0  0
  -25.3705  -31.3789   26.1356 C   0  0  0  0  0  0
  -27.0455  -30.2881   24.6438 C   0  0  0  0  0  0
  -27.6071  -32.4328   25.7475 C   0  0  0  0  0  0
  -27.5573  -37.1749   24.8458 C   0  0  0  0  0  0
  -21.4333  -29.3028   22.3521 N   0  0  0  0  0  0
  -26.4275  -37.3702   23.9409 N   0  0  0  0  0  0
  -24.7498  -30.9882   22.0839 N   0  0  0  0  0  0
  -23.4203  -28.8008   23.3020 O   0  0  0  0  0  0
  -28.2331  -25.8339   20.3074 O   0  0  0  0  0  0
  -26.5702  -34.8880   22.4596 O   0  0  0  0  0  0
  -23.5703  -32.1179   23.6814 O   0  0  0  0  0  0
  -28.1696  -20.1401   19.2146 C   0  0  0  0  0  0
  -28.7069  -18.6301   18.9952 C   0  0  0  0  0  0
  -29.5812  -19.5836   20.9409 C   0  0  0  0  0  0
  -29.1361  -21.0064   20.0792 C   0  0  2  0  0  0
  -29.7537  -18.1238   20.0623 C   0  0  1  0  0  0
  -28.1919  -24.2312   19.8847 C   0  0  0  0  0  0
  -28.7250  -22.6834   20.6541 C   0  0  2  0  0  0
  -29.6503  -16.5041   20.4779 N   0  0  0  0  0  0
  -29.8708  -23.0697   21.5001 N   0  3  0  0  0  0
  -31.4619  -12.9849   19.2094 H   0  0  0  0  0  0
  -30.4955  -11.8798   20.1343 H   0  0  0  0  0  0
  -29.9119  -11.7466   17.6892 H   0  0  0  0  0  0
  -29.5765  -13.4603   17.6579 H   0  0  0  0  0  0
  -28.0304  -11.2790   19.0790 H   0  0  0  0  0  0
  -27.4192  -12.3587   17.8517 H   0  0  0  0  0  0
  -27.5357  -14.2438   19.3357 H   0  0  0  0  0  0
  -28.8052  -12.4952   21.4982 H   0  0  0  0  0  0
  -28.2883  -14.1531   21.7048 H   0  0  0  0  0  0
  -25.2766   -9.5693   22.4756 H   0  0  0  0  0  0
  -24.0008   -7.4640   22.7468 H   0  0  0  0  0  0
  -21.0842   -8.8783   19.8957 H   0  0  0  0  0  0
  -22.3694  -10.9680   19.6170 H   0  0  0  0  0  0
  -21.2019   -7.6142   23.9705 H   0  0  0  0  0  0
  -21.1478   -6.0514   25.9069 H   0  0  0  0  0  0
  -22.0600   -2.7607   23.2834 H   0  0  0  0  0  0
  -22.4036  -11.9863   22.4869 H   0  0  0  0  0  0
  -21.1029  -13.1218   22.2654 H   0  0  0  0  0  0
  -24.6311  -15.8465   20.5271 H   0  0  0  0  0  0
  -26.2336  -15.6362   20.0408 H   0  0  0  0  0  0
  -26.7384  -32.5113   23.0862 H   0  0  0  0  0  0
  -25.0097  -33.9453   25.0197 H   0  0  0  0  0  0
  -22.7913  -31.2663   21.3488 H   0  0  0  0  0  0
  -23.3775  -35.9504   23.3267 H   0  0  0  0  0  0
  -24.3581  -36.8875   22.2070 H   0  0  0  0  0  0
  -23.7237  -37.6365   23.6720 H   0  0  0  0  0  0
  -26.2277  -31.3706   20.6233 H   0  0  0  0  0  0
  -26.9050  -30.6827   22.0568 H   0  0  0  0  0  0
  -28.1391  -28.5902   21.2942 H   0  0  0  0  0  0
  -25.8823  -25.7381   18.9832 H   0  0  0  0  0  0
  -24.0098  -27.2667   18.9403 H   0  0  0  0  0  0
  -23.8718  -30.5169   19.3863 H   0  0  0  0  0  0
  -22.8263  -29.2031   19.8276 H   0  0  0  0  0  0
  -25.1338  -36.1743   25.0793 H   0  0  0  0  0  0
  -21.0027  -28.3372   24.1310 H   0  0  0  0  0  0
  -20.5677  -26.2363   23.3647 H   0  0  0  0  0  0
  -21.6664  -26.7400   22.1227 H   0  0  0  0  0  0
  -19.6936  -25.6279   21.1273 H   0  0  0  0  0  0
  -19.6740  -27.3161   20.6723 H   0  0  0  0  0  0
  -17.4230  -26.6681   21.4004 H   0  0  0  0  0  0
  -18.0343  -26.0102   22.9025 H   0  0  0  0  0  0
  -19.7968  -30.7319   24.2190 H   0  0  0  0  0  0
  -17.5038  -31.6275   24.5164 H   0  0  0  0  0  0
  -15.5370  -30.2964   23.7715 H   0  0  0  0  0  0
  -15.8698  -28.0814   22.7092 H   0  0  0  0  0  0
  -24.5893  -30.7125   25.7679 H   0  0  0  0  0  0
  -24.8892  -32.3000   26.4656 H   0  0  0  0  0  0
  -25.7953  -30.9046   27.0214 H   0  0  0  0  0  0
  -26.3120  -29.6558   24.1428 H   0  0  0  0  0  0
  -27.3944  -29.7253   25.5107 H   0  0  0  0  0  0
  -27.9085  -30.4035   23.9876 H   0  0  0  0  0  0
  -27.2644  -33.3664   26.1947 H   0  0  0  0  0  0
  -28.3932  -32.6835   25.0340 H   0  0  0  0  0  0
  -28.0686  -31.8528   26.5477 H   0  0  0  0  0  0
  -28.2565  -38.0070   24.7527 H   0  0  0  0  0  0
  -28.1096  -36.2601   24.6255 H   0  0  0  0  0  0
  -27.2293  -37.1359   25.8861 H   0  0  0  0  0  0
  -20.9584  -29.8687   21.6628 H   0  0  0  0  0  0
  -26.0118  -38.2751   24.1445 H   0  0  0  0  0  0
  -27.2086  -20.0900   19.7290 H   0  0  0  0  0  0
  -27.9688  -20.6196   18.2549 H   0  0  0  0  0  0
  -29.1656  -18.5589   18.0076 H   0  0  0  0  0  0
  -27.8513  -17.9543   18.9606 H   0  0  0  0  0  0
  -28.8198  -19.4153   21.7045 H   0  0  0  0  0  0
  -30.5000  -19.7693   21.4968 H   0  0  0  0  0  0
  -29.9935  -21.1891   19.4293 H   0  0  0  0  0  0
  -30.7371  -18.1939   19.5936 H   0  0  0  0  0  0
  -27.1653  -24.0394   19.5788 H   0  0  0  0  0  0
  -28.7351  -24.2458   18.9395 H   0  0  0  0  0  0
  -27.9216  -22.5003   21.3684 H   0  0  0  0  0  0
  -28.7109  -16.2727   20.7667 H   0  0  0  0  0  0
  -30.6861  -23.2596   20.9429 H   0  0  0  0  0  0
  -30.0958  -22.3402   22.1529 H   0  0  0  0  0  0
  -29.6551  -23.9004   22.0251 H   0  0  0  0  0  0
  1 25  1  0  0  0
  1 30  2  0  0  0
  1 78  1  0  0  0
  2  3  1  0  0  0
  2 25  1  0  0  0
  2 80  1  0  0  0
  2 81  1  0  0  0
  3  4  1  0  0  0
  3 82  1  0  0  0
  3 83  1  0  0  0
  4  5  1  0  0  0
  4 84  1  0  0  0
  4 85  1  0  0  0
  5  6  1  0  0  0
  5 26  1  0  0  0
  5 86  1  0  0  0
  6 25  1  0  0  0
  6 87  1  0  0  0
  6 88  1  0  0  0
  7  8  2  0  0  0
  7 26  1  0  0  0
  7 29  1  0  0  0
  8  9  1  0  0  0
  8 22  1  0  0  0
  9 10  1  0  0  0
  9 27  2  0  0  0
 10 11  2  0  0  0
 10 15  1  0  0  0
 11 12  1  0  0  0
 11 89  1  0  0  0
 12 13  2  0  0  0
 12 90  1  0  0  0
 13 14  1  0  0  0
 13 31  1  0  0  0
 14 15  2  0  0  0
 14 91  1  0  0  0
 15 92  1  0  0  0
 16 17  2  0  0  0
 16 21  1  0  0  0
 16 31  1  0  0  0
 17 18  1  0  0  0
 17 93  1  0  0  0
 18 19  2  0  0  0
 18 94  1  0  0  0
 19 20  1  0  0  0
 19 24  1  0  0  0
 20 21  2  0  0  0
 20 95  1  0  0  0
 21 23  1  0  0  0
 22 28  1  0  0  0
 22 32  2  0  0  0
 26 27  1  0  0  0
 28 96  1  0  0  0
 28 97  1  0  0  0
 29 98  1  0  0  0
 29 99  1  0  0  0
 33 34  1  0  0  0
 33 66  1  0  0  0
 33 70  2  0  0  0
 34 36  1  0  0  0
 34 59  1  0  0  0
 34100  1  0  0  0
 35 44  2  0  0  0
 35 45  1  0  0  0
 35 68  1  0  0  0
 36 56  1  0  0  0
 36101  1  0  0  0
 37 39  1  0  0  0
 37 47  1  0  0  0
 37 66  1  0  0  0
 37102  1  0  0  0
 38 43  2  0  0  0
 38 46  1  0  0  0
 38 47  1  0  0  0
 39 64  1  0  0  0
 39 67  2  0  0  0
 40 52  1  0  0  0
 40 53  2  0  0  0
 40 58  1  0  0  0
 41103  1  0  0  0
 41104  1  0  0  0
 41105  1  0  0  0
 41 48  1  0  0  0
 42 43  1  0  0  0
 42 66  1  0  0  0
 42106  1  0  0  0
 42107  1  0  0  0
 43 44  1  0  0  0
 44108  1  0  0  0
 45 46  2  0  0  0
 45109  1  0  0  0
 46110  1  0  0  0
 47111  1  0  0  0
 47112  1  0  0  0
 48 56  1  0  0  0
 48 65  1  0  0  0
 48113  1  0  0  0
 49 50  1  0  0  0
 49 53  1  0  0  0
 49 64  1  0  0  0
 49114  1  0  0  0
 50 51  1  0  0  0
 50115  1  0  0  0
 50116  1  0  0  0
 51 52  1  0  0  0
 51117  1  0  0  0
 51118  1  0  0  0
 52119  1  0  0  0
 52120  1  0  0  0
 53 54  1  0  0  0
 54 55  2  0  0  0
 54121  1  0  0  0
 55 57  1  0  0  0
 55122  1  0  0  0
 56 69  2  0  0  0
 57 58  2  0  0  0
 57123  1  0  0  0
 58124  1  0  0  0
 59 60  1  0  0  0
 59 61  1  0  0  0
 59 62  1  0  0  0
 60125  1  0  0  0
 60126  1  0  0  0
 60127  1  0  0  0
 61128  1  0  0  0
 61129  1  0  0  0
 61130  1  0  0  0
 62131  1  0  0  0
 62132  1  0  0  0
 62133  1  0  0  0
 63 65  1  0  0  0
 63134  1  0  0  0
 63135  1  0  0  0
 63136  1  0  0  0
 64137  1  0  0  0
 65138  1  0  0  0
 68 76  1  0  0  0
 71 72  1  0  0  0
 71139  1  0  0  0
 71140  1  0  0  0
 71 74  1  0  0  0
 72 75  1  0  0  0
 72141  1  0  0  0
 72142  1  0  0  0
 73 74  1  0  0  0
 73 75  1  0  0  0
 73143  1  0  0  0
 73144  1  0  0  0
 74 77  1  0  0  0
 74145  1  0  0  0
 75 78  1  0  0  0
 75146  1  0  0  0
 76 77  1  0  0  0
 76147  1  0  0  0
 76148  1  0  0  0
 77 79  1  0  0  0
 77149  1  0  0  0
 78150  1  0  0  0
 79151  1  0  0  0
 79152  1  0  0  0
 79153  1  0  0  0
M  CHG  1  79   1
M  ISO  4   1 100  68 101  76 101  78 100
M  END
> <chiral flag>
0

> <version>
0

> <s_m_source_file>
/data/baiqing/PycharmProjects/Reinvent-master-3.2/result/LINK_invent/BTK/process_docking_weight1_custom_sum_contain_oxygen_bond_distance_aromatic_linkinvent_7_9_3/rearranged_h_0147.sdf

> <i_m_source_file_index>
10

> <r_mmod_Potential_Energy-OPLS-2005>
1144.3701171875

> <r_mmod_Stretch_Energy-OPLS-2005>
586.853088378906

> <r_mmod_Bend_Energy-OPLS-2005>
503.716857910156

> <r_mmod_Torsional_Energy-OPLS-2005>
270.024139404297

> <r_mmod_Improper_Torsional_Energy-OPLS-2005>
4.50070571899414

> <r_mmod_Van_der_Waal_Energy-OPLS-2005>
105.090309143066

> <r_mmod_Electrostatic_Energy-OPLS-2005>
-288.740661621094

> <r_mmod_Solvation_Energy-OPLS-2005>
-485.884368896484

> <b_mmod_Minimization_Converged-OPLS-2005>
0

> <r_mmod_RMS_Derivative-OPLS-2005>
1.36808574199677

$$$$
10
                    3D
 Structure written by MMmdl.
159167  0  0  1  0            999 V2000
  -30.7187  -14.4114   20.6522 C   0  0  0  0  0  0
  -30.4243  -12.3007   19.3979 C   0  0  0  0  0  0
  -29.4872  -12.5167   18.1922 C   0  0  0  0  0  0
  -28.0103  -12.3710   18.6078 C   0  0  0  0  0  0
  -27.6655  -13.1959   19.8750 C   0  0  2  0  0  0
  -28.7023  -12.9375   20.9895 C   0  0  0  0  0  0
  -25.2632  -13.8141   20.5658 C   0  0  0  0  0  0
  -24.1863  -13.0444   20.9155 C   0  0  0  0  0  0
  -24.6389  -11.6902   20.8716 C   0  0  0  0  0  0
  -23.9046  -10.4302   21.0388 C   0  0  0  0  0  0
  -24.3614   -9.4231   21.9169 C   0  0  0  0  0  0
  -23.6308   -8.2253   22.0741 C   0  0  0  0  0  0
  -22.4293   -8.0270   21.3528 C   0  0  0  0  0  0
  -21.9906   -9.0238   20.4635 C   0  0  0  0  0  0
  -22.7214  -10.2133   20.3037 C   0  0  0  0  0  0
  -21.6851   -6.0741   22.5292 C   0  0  0  0  0  0
  -21.4000   -6.5647   23.8224 C   0  0  0  0  0  0
  -21.3660   -5.6800   24.9186 C   0  0  0  0  0  0
  -21.6048   -4.3062   24.7237 C   0  0  0  0  0  0
  -21.8814   -3.8152   23.4358 C   0  0  0  0  0  0
  -21.9201   -4.6970   22.3419 C   0  0  0  0  0  0
  -22.7895  -13.5251   21.1844 C   0  0  0  0  0  0
  -22.1665   -4.2149   21.0995 F   0  0  0  0  0  0
  -21.5630   -3.4552   25.7754 F   0  0  0  0  0  0
  -30.0393  -13.2515   20.4528 N   0  0  0  0  0  0
  -26.3042  -12.9289   20.3329 N   0  0  0  0  0  0
  -25.9303  -11.6455   20.5722 N   0  0  0  0  0  0
  -22.0545  -12.8225   22.0406 N   0  0  0  0  0  0
  -25.4390  -15.1855   20.4068 N   0  0  0  0  0  0
  -31.7845  -14.6782   20.0886 O   0  0  0  0  0  0
  -21.6652   -6.8872   21.4238 O   0  0  0  0  0  0
  -22.3577  -14.5565   20.6722 O   0  0  0  0  0  0
  -24.6133  -31.8679   23.2095 C   0  0  0  0  0  0
  -25.9041  -32.4821   23.8376 C   0  0  1  0  0  0
  -27.2329  -27.4331   20.0971 C   0  0  0  0  0  0
  -25.5916  -33.8624   24.2309 N   0  0  0  0  0  0
  -23.3993  -30.4911   21.5513 C   0  0  2  0  0  0
  -24.8425  -28.9543   20.1158 C   0  0  0  0  0  0
  -22.7407  -29.4657   22.5008 C   0  0  0  0  0  0
  -18.0281  -28.1376   22.8499 C   0  0  0  0  0  0
  -24.1501  -36.7308   23.2635 C   0  0  0  0  0  0
  -25.9278  -30.8313   21.3622 C   0  0  0  0  0  0
  -26.0018  -29.4664   20.7101 C   0  0  0  0  0  0
  -27.1957  -28.7128   20.6974 C   0  0  0  0  0  0
  -26.0495  -26.9292   19.5067 C   0  0  0  0  0  0
  -24.8612  -27.6844   19.5130 C   0  0  0  0  0  0
  -23.6043  -29.8197   20.1662 C   0  0  0  0  0  0
  -25.4122  -36.3105   24.0336 C   0  0  1  0  0  0
  -20.5872  -28.3658   23.1338 C   0  0  2  0  0  0
  -20.6775  -26.9390   22.5442 C   0  0  0  0  0  0
  -19.5765  -26.6375   21.5234 C   0  0  0  0  0  0
  -18.1931  -26.7934   22.1603 C   0  0  0  0  0  0
  -19.1529  -28.8834   23.2916 C   0  0  0  0  0  0
  -18.9447  -30.1441   23.8921 C   0  0  0  0  0  0
  -17.6450  -30.6578   24.0568 C   0  0  0  0  0  0
  -25.9055  -34.9480   23.5116 C   0  0  0  0  0  0
  -16.5348  -29.9076   23.6332 C   0  0  0  0  0  0
  -16.7268  -28.6498   23.0348 C   0  0  0  0  0  0
  -26.4468  -31.6619   25.0714 C   0  0  0  0  0  0
  -25.3723  -31.3771   26.1468 C   0  0  0  0  0  0
  -27.0257  -30.3044   24.6097 C   0  0  0  0  0  0
  -27.6059  -32.4331   25.7453 C   0  0  0  0  0  0
  -27.5612  -37.1788   24.8446 C   0  0  0  0  0  0
  -21.4140  -29.3017   22.3737 N   0  0  0  0  0  0
  -26.4298  -37.3802   23.9426 N   0  0  0  0  0  0
  -24.6652  -31.0789   22.0992 N   0  0  0  0  0  0
  -23.4193  -28.8213   23.3053 O   0  0  0  0  0  0
  -28.4306  -26.7443   20.1166 O   0  0  0  0  0  0
  -26.5610  -34.8933   22.4671 O   0  0  0  0  0  0
  -23.5343  -32.1429   23.7519 O   0  0  0  0  0  0
  -26.3297  -20.5347   22.2394 C   0  0  0  0  0  0
  -27.3791  -19.6440   22.5274 C   0  0  0  0  0  0
  -28.9030  -21.0472   21.2516 C   0  0  0  0  0  0
  -26.5512  -21.6797   21.4437 C   0  0  0  0  0  0
  -28.6686  -19.8752   22.0070 C   0  0  0  0  0  0
  -27.8603  -21.9671   20.9745 C   0  0  0  0  0  0
  -25.3500  -22.5286   21.0630 C   0  0  0  0  0  0
  -29.4621  -17.6682   21.5464 C   0  0  0  0  0  0
  -30.5592  -16.6235   21.8473 C   0  0  0  0  0  0
  -28.4959  -25.3831   19.6733 C   0  0  0  0  0  0
  -27.9615  -24.3613   20.7015 C   0  0  0  0  0  0
  -29.6972  -18.9443   22.2234 N   0  0  0  0  0  0
  -30.1177  -15.2778   21.4829 N   0  0  0  0  0  0
  -28.1488  -23.0464   20.1649 O   0  0  0  0  0  0
  -31.4661  -12.4165   19.0939 H   0  0  0  0  0  0
  -30.3374  -11.2785   19.7699 H   0  0  0  0  0  0
  -29.7222  -11.8068   17.3984 H   0  0  0  0  0  0
  -29.6508  -13.5094   17.7695 H   0  0  0  0  0  0
  -27.8165  -11.3123   18.7878 H   0  0  0  0  0  0
  -27.3563  -12.6598   17.7846 H   0  0  0  0  0  0
  -27.7258  -14.2489   19.5974 H   0  0  0  0  0  0
  -28.6792  -11.8895   21.2937 H   0  0  0  0  0  0
  -28.4437  -13.4982   21.8879 H   0  0  0  0  0  0
  -25.2770   -9.5724   22.4733 H   0  0  0  0  0  0
  -24.0041   -7.4650   22.7447 H   0  0  0  0  0  0
  -21.0838   -8.8725   19.8954 H   0  0  0  0  0  0
  -22.3647  -10.9657   19.6140 H   0  0  0  0  0  0
  -21.1974   -7.6155   23.9718 H   0  0  0  0  0  0
  -21.1473   -6.0538   25.9089 H   0  0  0  0  0  0
  -22.0595   -2.7606   23.2867 H   0  0  0  0  0  0
  -22.4164  -11.9876   22.4767 H   0  0  0  0  0  0
  -21.1160  -13.1227   22.2619 H   0  0  0  0  0  0
  -24.6746  -15.8442   20.5112 H   0  0  0  0  0  0
  -26.2941  -15.6216   20.0867 H   0  0  0  0  0  0
  -26.7107  -32.5508   23.1137 H   0  0  0  0  0  0
  -25.0102  -33.9797   25.0474 H   0  0  0  0  0  0
  -22.6876  -31.3076   21.4134 H   0  0  0  0  0  0
  -23.3790  -35.9607   23.3242 H   0  0  0  0  0  0
  -24.3616  -36.8978   22.2061 H   0  0  0  0  0  0
  -23.7216  -37.6480   23.6684 H   0  0  0  0  0  0
  -26.0452  -31.5975   20.5946 H   0  0  0  0  0  0
  -26.8145  -30.8787   21.9834 H   0  0  0  0  0  0
  -28.0900  -29.1091   21.1576 H   0  0  0  0  0  0
  -26.0153  -25.9571   19.0388 H   0  0  0  0  0  0
  -23.9687  -27.2799   19.0556 H   0  0  0  0  0  0
  -23.7059  -30.5903   19.4027 H   0  0  0  0  0  0
  -22.7279  -29.2352   19.8776 H   0  0  0  0  0  0
  -25.1298  -36.1952   25.0831 H   0  0  0  0  0  0
  -20.9970  -28.3217   24.1454 H   0  0  0  0  0  0
  -20.5678  -26.2264   23.3629 H   0  0  0  0  0  0
  -21.6644  -26.7435   22.1224 H   0  0  0  0  0  0
  -19.6920  -25.6282   21.1263 H   0  0  0  0  0  0
  -19.6738  -27.3191   20.6773 H   0  0  0  0  0  0
  -17.4229  -26.6741   21.3963 H   0  0  0  0  0  0
  -18.0271  -26.0049   22.8960 H   0  0  0  0  0  0
  -19.7926  -30.7262   24.2287 H   0  0  0  0  0  0
  -17.5004  -31.6265   24.5157 H   0  0  0  0  0  0
  -15.5344  -30.2986   23.7650 H   0  0  0  0  0  0
  -15.8668  -28.0831   22.7046 H   0  0  0  0  0  0
  -24.5901  -30.7100   25.7832 H   0  0  0  0  0  0
  -24.8904  -32.2941   26.4872 H   0  0  0  0  0  0
  -25.8062  -30.8985   27.0256 H   0  0  0  0  0  0
  -26.2773  -29.6842   24.1151 H   0  0  0  0  0  0
  -27.4003  -29.7274   25.4565 H   0  0  0  0  0  0
  -27.8639  -30.4349   23.9247 H   0  0  0  0  0  0
  -27.2694  -33.3628   26.2063 H   0  0  0  0  0  0
  -28.3841  -32.6900   25.0248 H   0  0  0  0  0  0
  -28.0758  -31.8430   26.5336 H   0  0  0  0  0  0
  -28.2578  -38.0142   24.7571 H   0  0  0  0  0  0
  -28.1158  -36.2678   24.6142 H   0  0  0  0  0  0
  -27.2351  -37.1275   25.8851 H   0  0  0  0  0  0
  -20.9304  -29.8720   21.6943 H   0  0  0  0  0  0
  -26.0182  -38.2864   24.1484 H   0  0  0  0  0  0
  -25.3383  -20.3106   22.6090 H   0  0  0  0  0  0
  -27.1730  -18.7651   23.1224 H   0  0  0  0  0  0
  -29.8929  -21.2422   20.8645 H   0  0  0  0  0  0
  -24.4351  -21.9347   21.0720 H   0  0  0  0  0  0
  -25.4603  -22.9342   20.0572 H   0  0  0  0  0  0
  -25.2203  -23.3521   21.7650 H   0  0  0  0  0  0
  -28.4982  -17.2742   21.8718 H   0  0  0  0  0  0
  -29.3851  -17.8342   20.4707 H   0  0  0  0  0  0
  -30.7724  -16.6034   22.9166 H   0  0  0  0  0  0
  -31.4907  -16.8929   21.3473 H   0  0  0  0  0  0
  -28.0227  -25.2531   18.7000 H   0  0  0  0  0  0
  -29.5505  -25.1649   19.5036 H   0  0  0  0  0  0
  -26.9178  -24.5772   20.9090 H   0  0  0  0  0  0
  -28.5000  -24.4597   21.6447 H   0  0  0  0  0  0
  -29.8598  -18.7905   23.2166 H   0  0  0  0  0  0
  -29.2563  -14.9559   21.8990 H   0  0  0  0  0  0
  1 25  1  0  0  0
  1 30  2  0  0  0
  1 83  1  0  0  0
  2  3  1  0  0  0
  2 25  1  0  0  0
  2 85  1  0  0  0
  2 86  1  0  0  0
  3  4  1  0  0  0
  3 87  1  0  0  0
  3 88  1  0  0  0
  4  5  1  0  0  0
  4 89  1  0  0  0
  4 90  1  0  0  0
  5  6  1  0  0  0
  5 26  1  0  0  0
  5 91  1  0  0  0
  6 25  1  0  0  0
  6 92  1  0  0  0
  6 93  1  0  0  0
  7  8  2  0  0  0
  7 26  1  0  0  0
  7 29  1  0  0  0
  8  9  1  0  0  0
  8 22  1  0  0  0
  9 10  1  0  0  0
  9 27  2  0  0  0
 10 11  2  0  0  0
 10 15  1  0  0  0
 11 12  1  0  0  0
 11 94  1  0  0  0
 12 13  2  0  0  0
 12 95  1  0  0  0
 13 14  1  0  0  0
 13 31  1  0  0  0
 14 15  2  0  0  0
 14 96  1  0  0  0
 15 97  1  0  0  0
 16 17  2  0  0  0
 16 21  1  0  0  0
 16 31  1  0  0  0
 17 18  1  0  0  0
 17 98  1  0  0  0
 18 19  2  0  0  0
 18 99  1  0  0  0
 19 20  1  0  0  0
 19 24  1  0  0  0
 20 21  2  0  0  0
 20100  1  0  0  0
 21 23  1  0  0  0
 22 28  1  0  0  0
 22 32  2  0  0  0
 26 27  1  0  0  0
 28101  1  0  0  0
 28102  1  0  0  0
 29103  1  0  0  0
 29104  1  0  0  0
 33 34  1  0  0  0
 33 66  1  0  0  0
 33 70  2  0  0  0
 34 36  1  0  0  0
 34 59  1  0  0  0
 34105  1  0  0  0
 35 44  2  0  0  0
 35 45  1  0  0  0
 35 68  1  0  0  0
 36 56  1  0  0  0
 36106  1  0  0  0
 37 39  1  0  0  0
 37 47  1  0  0  0
 37 66  1  0  0  0
 37107  1  0  0  0
 38 43  2  0  0  0
 38 46  1  0  0  0
 38 47  1  0  0  0
 39 64  1  0  0  0
 39 67  2  0  0  0
 40 52  1  0  0  0
 40 53  2  0  0  0
 40 58  1  0  0  0
 41108  1  0  0  0
 41109  1  0  0  0
 41110  1  0  0  0
 41 48  1  0  0  0
 42 43  1  0  0  0
 42 66  1  0  0  0
 42111  1  0  0  0
 42112  1  0  0  0
 43 44  1  0  0  0
 44113  1  0  0  0
 45 46  2  0  0  0
 45114  1  0  0  0
 46115  1  0  0  0
 47116  1  0  0  0
 47117  1  0  0  0
 48 56  1  0  0  0
 48 65  1  0  0  0
 48118  1  0  0  0
 49 50  1  0  0  0
 49 53  1  0  0  0
 49 64  1  0  0  0
 49119  1  0  0  0
 50 51  1  0  0  0
 50120  1  0  0  0
 50121  1  0  0  0
 51 52  1  0  0  0
 51122  1  0  0  0
 51123  1  0  0  0
 52124  1  0  0  0
 52125  1  0  0  0
 53 54  1  0  0  0
 54 55  2  0  0  0
 54126  1  0  0  0
 55 57  1  0  0  0
 55127  1  0  0  0
 56 69  2  0  0  0
 57 58  2  0  0  0
 57128  1  0  0  0
 58129  1  0  0  0
 59 60  1  0  0  0
 59 61  1  0  0  0
 59 62  1  0  0  0
 60130  1  0  0  0
 60131  1  0  0  0
 60132  1  0  0  0
 61133  1  0  0  0
 61134  1  0  0  0
 61135  1  0  0  0
 62136  1  0  0  0
 62137  1  0  0  0
 62138  1  0  0  0
 63 65  1  0  0  0
 63139  1  0  0  0
 63140  1  0  0  0
 63141  1  0  0  0
 64142  1  0  0  0
 65143  1  0  0  0
 68 80  1  0  0  0
 71 72  2  0  0  0
 71 74  1  0  0  0
 71144  1  0  0  0
 72 75  1  0  0  0
 72145  1  0  0  0
 73 75  2  0  0  0
 73 76  1  0  0  0
 73146  1  0  0  0
 74 76  2  0  0  0
 74 77  1  0  0  0
 75 82  1  0  0  0
 76 84  1  0  0  0
 77147  1  0  0  0
 77148  1  0  0  0
 77149  1  0  0  0
 78 79  1  0  0  0
 78 82  1  0  0  0
 78150  1  0  0  0
 78151  1  0  0  0
 79 83  1  0  0  0
 79152  1  0  0  0
 79153  1  0  0  0
 80 81  1  0  0  0
 80154  1  0  0  0
 80155  1  0  0  0
 81 84  1  0  0  0
 81156  1  0  0  0
 81157  1  0  0  0
 82158  1  0  0  0
 83159  1  0  0  0
M  ISO  4   1 100  68 101  80 101  83 100
M  END
> <chiral flag>
0

> <version>
0

> <s_m_source_file>
/data/baiqing/PycharmProjects/Reinvent-master-3.2/result/LINK_invent/BTK/process_docking_weight1_custom_sum_contain_oxygen_bond_distance_aromatic_linkinvent_7_9_3/rearranged_h_0147.sdf

> <i_m_source_file_index>
11

> <r_mmod_Potential_Energy-OPLS-2005>
-113.915466308594

> <r_mmod_Stretch_Energy-OPLS-2005>
35.5461921691895

> <r_mmod_Bend_Energy-OPLS-2005>
101.938804626465

> <r_mmod_Torsional_Energy-OPLS-2005>
226.56657409668

> <r_mmod_Improper_Torsional_Energy-OPLS-2005>
7.96389532089233

> <r_mmod_Van_der_Waal_Energy-OPLS-2005>
154.565475463867

> <r_mmod_Electrostatic_Energy-OPLS-2005>
-422.270263671875

> <r_mmod_Solvation_Energy-OPLS-2005>
-227.988983154297

> <b_mmod_Minimization_Converged-OPLS-2005>
0

> <r_mmod_RMS_Derivative-OPLS-2005>
2.32847237586975

$$$$
11
                    3D
 Structure written by MMmdl.
163172  0  0  1  0            999 V2000
  -30.5482  -14.7414   20.4442 C   0  0  0  0  0  0
  -30.4474  -12.4488   19.4633 C   0  0  0  0  0  0
  -29.5173  -12.5075   18.2303 C   0  0  0  0  0  0
  -28.0406  -12.3279   18.6432 C   0  0  0  0  0  0
  -27.6443  -13.2185   19.8507 C   0  0  2  0  0  0
  -28.6883  -13.1116   20.9836 C   0  0  0  0  0  0
  -25.2498  -13.8155   20.5645 C   0  0  0  0  0  0
  -24.1795  -13.0426   20.9226 C   0  0  0  0  0  0
  -24.6382  -11.6897   20.8750 C   0  0  0  0  0  0
  -23.9064  -10.4281   21.0394 C   0  0  0  0  0  0
  -24.3620   -9.4199   21.9170 C   0  0  0  0  0  0
  -23.6282   -8.2238   22.0763 C   0  0  0  0  0  0
  -22.4253   -8.0294   21.3556 C   0  0  0  0  0  0
  -21.9884   -9.0265   20.4660 C   0  0  0  0  0  0
  -22.7225  -10.2128   20.3051 C   0  0  0  0  0  0
  -21.6866   -6.0711   22.5269 C   0  0  0  0  0  0
  -21.4022   -6.5617   23.8198 C   0  0  0  0  0  0
  -21.3651   -5.6773   24.9165 C   0  0  0  0  0  0
  -21.6031   -4.3036   24.7222 C   0  0  0  0  0  0
  -21.8824   -3.8128   23.4340 C   0  0  0  0  0  0
  -21.9195   -4.6938   22.3384 C   0  0  0  0  0  0
  -22.7813  -13.5223   21.1859 C   0  0  0  0  0  0
  -22.1657   -4.2127   21.0964 F   0  0  0  0  0  0
  -21.5622   -3.4529   25.7739 F   0  0  0  0  0  0
  -29.9894  -13.4851   20.4124 N   0  0  0  0  0  0
  -26.2930  -12.9341   20.3244 N   0  0  0  0  0  0
  -25.9301  -11.6503   20.5729 N   0  0  0  0  0  0
  -22.0445  -12.8260   22.0441 N   0  0  0  0  0  0
  -25.4122  -15.1873   20.3937 N   0  0  0  0  0  0
  -31.7361  -14.8912   20.1392 O   0  0  0  0  0  0
  -21.6644   -6.8865   21.4236 O   0  0  0  0  0  0
  -22.3490  -14.5501   20.6665 O   0  0  0  0  0  0
  -24.6292  -31.8552   23.2007 C   0  0  0  0  0  0
  -25.9137  -32.4740   23.8333 C   0  0  1  0  0  0
  -27.2158  -27.2716   20.1285 C   0  0  0  0  0  0
  -25.5961  -33.8539   24.2288 N   0  0  0  0  0  0
  -23.4252  -30.4796   21.5423 C   0  0  2  0  0  0
  -24.8713  -28.9264   20.1077 C   0  0  0  0  0  0
  -22.7482  -29.4592   22.4898 C   0  0  0  0  0  0
  -18.0303  -28.1385   22.8448 C   0  0  0  0  0  0
  -24.1486  -36.7253   23.2638 C   0  0  0  0  0  0
  -25.9693  -30.7704   21.3800 C   0  0  0  0  0  0
  -26.0419  -29.3951   20.7173 C   0  0  0  0  0  0
  -27.2174  -28.5803   20.7150 C   0  0  0  0  0  0
  -26.0265  -26.8672   19.4861 C   0  0  0  0  0  0
  -24.8679  -27.6694   19.4796 C   0  0  0  0  0  0
  -23.6431  -29.8158   20.1563 C   0  0  0  0  0  0
  -25.4107  -36.3045   24.0338 C   0  0  1  0  0  0
  -20.5895  -28.3683   23.1265 C   0  0  2  0  0  0
  -20.6788  -26.9394   22.5423 C   0  0  0  0  0  0
  -19.5788  -26.6367   21.5200 C   0  0  0  0  0  0
  -18.1951  -26.7933   22.1577 C   0  0  0  0  0  0
  -19.1549  -28.8853   23.2857 C   0  0  0  0  0  0
  -18.9465  -30.1438   23.8890 C   0  0  0  0  0  0
  -17.6470  -30.6568   24.0562 C   0  0  0  0  0  0
  -25.9052  -34.9421   23.5107 C   0  0  0  0  0  0
  -16.5355  -29.9068   23.6326 C   0  0  0  0  0  0
  -16.7283  -28.6489   23.0329 C   0  0  0  0  0  0
  -26.4532  -31.6552   25.0702 C   0  0  0  0  0  0
  -25.3785  -31.3734   26.1458 C   0  0  0  0  0  0
  -27.0354  -30.2953   24.6192 C   0  0  0  0  0  0
  -27.6112  -32.4274   25.7442 C   0  0  0  0  0  0
  -27.5582  -37.1758   24.8455 C   0  0  0  0  0  0
  -21.4195  -29.3024   22.3639 N   0  0  0  0  0  0
  -26.4279  -37.3740   23.9419 N   0  0  0  0  0  0
  -24.6934  -31.0517   22.0971 N   0  0  0  0  0  0
  -23.4181  -28.8143   23.3013 O   0  0  0  0  0  0
  -28.3245  -26.3973   20.1737 O   0  0  0  0  0  0
  -26.5602  -34.8903   22.4662 O   0  0  0  0  0  0
  -23.5452  -32.1387   23.7319 O   0  0  0  0  0  0
  -28.5358  -19.4565   21.1652 C   0  0  0  0  0  0
  -30.2101  -19.4920   19.4769 C   0  0  0  0  0  0
  -29.3075  -20.2529   20.2753 C   0  0  0  0  0  0
  -28.6807  -18.0290   21.2735 C   0  0  0  0  0  0
  -30.3644  -18.0619   19.5607 C   0  0  0  0  0  0
  -29.6305  -17.2724   20.5051 C   0  0  0  0  0  0
  -28.8977  -22.6531   21.4862 C   0  0  0  0  0  0
  -28.3346  -22.5068   19.0855 C   0  0  0  0  0  0
  -29.0134  -24.2304   21.3667 C   0  0  0  0  0  0
  -28.4422  -24.0885   18.9608 C   0  0  0  0  0  0
  -29.2412  -21.8560   20.1853 C   0  0  2  0  0  0
  -28.1356  -24.9064   20.2609 C   0  0  2  0  0  0
  -27.7626  -17.3075   22.2517 C   0  0  0  0  0  0
  -31.2985  -17.4141   18.5547 C   0  0  0  0  0  0
  -29.6626  -15.7871   20.6657 N   0  0  0  0  0  0
  -31.4837  -12.6005   19.1605 H   0  0  0  0  0  0
  -30.4143  -11.4645   19.9329 H   0  0  0  0  0  0
  -29.7987  -11.7411   17.5060 H   0  0  0  0  0  0
  -29.6423  -13.4673   17.7258 H   0  0  0  0  0  0
  -27.8979  -11.2779   18.9007 H   0  0  0  0  0  0
  -27.3866  -12.5253   17.7931 H   0  0  0  0  0  0
  -27.6449  -14.2454   19.4837 H   0  0  0  0  0  0
  -28.7248  -12.0937   21.3755 H   0  0  0  0  0  0
  -28.4237  -13.7461   21.8299 H   0  0  0  0  0  0
  -25.2760   -9.5676   22.4752 H   0  0  0  0  0  0
  -23.9984   -7.4628   22.7480 H   0  0  0  0  0  0
  -21.0803   -8.8794   19.8968 H   0  0  0  0  0  0
  -22.3682  -10.9679   19.6170 H   0  0  0  0  0  0
  -21.2030   -7.6127   23.9698 H   0  0  0  0  0  0
  -21.1454   -6.0500   25.9066 H   0  0  0  0  0  0
  -22.0613   -2.7595   23.2853 H   0  0  0  0  0  0
  -22.4043  -11.9943   22.4865 H   0  0  0  0  0  0
  -21.1049  -13.1306   22.2595 H   0  0  0  0  0  0
  -24.6409  -15.8326   20.5164 H   0  0  0  0  0  0
  -26.2202  -15.6252   19.9712 H   0  0  0  0  0  0
  -26.7187  -32.5397   23.1060 H   0  0  0  0  0  0
  -25.0193  -33.9676   25.0495 H   0  0  0  0  0  0
  -22.7212  -31.3018   21.3987 H   0  0  0  0  0  0
  -23.3752  -35.9579   23.3303 H   0  0  0  0  0  0
  -24.3580  -36.8861   22.2048 H   0  0  0  0  0  0
  -23.7232  -37.6458   23.6653 H   0  0  0  0  0  0
  -26.1133  -31.5352   20.6164 H   0  0  0  0  0  0
  -26.8445  -30.8127   22.0170 H   0  0  0  0  0  0
  -28.1148  -28.9295   21.2076 H   0  0  0  0  0  0
  -25.9765  -25.9081   18.9911 H   0  0  0  0  0  0
  -23.9729  -27.3075   18.9923 H   0  0  0  0  0  0
  -23.7728  -30.5967   19.4049 H   0  0  0  0  0  0
  -22.7585  -29.2553   19.8480 H   0  0  0  0  0  0
  -25.1276  -36.1899   25.0828 H   0  0  0  0  0  0
  -20.9998  -28.3291   24.1381 H   0  0  0  0  0  0
  -20.5651  -26.2294   23.3633 H   0  0  0  0  0  0
  -21.6671  -26.7405   22.1242 H   0  0  0  0  0  0
  -19.6953  -25.6274   21.1236 H   0  0  0  0  0  0
  -19.6747  -27.3168   20.6728 H   0  0  0  0  0  0
  -17.4232  -26.6675   21.3968 H   0  0  0  0  0  0
  -18.0324  -26.0075   22.8965 H   0  0  0  0  0  0
  -19.7954  -30.7253   24.2261 H   0  0  0  0  0  0
  -17.5030  -31.6257   24.5159 H   0  0  0  0  0  0
  -15.5364  -30.2963   23.7668 H   0  0  0  0  0  0
  -15.8679  -28.0814   22.7041 H   0  0  0  0  0  0
  -24.5957  -30.7057   25.7850 H   0  0  0  0  0  0
  -24.8991  -32.2914   26.4864 H   0  0  0  0  0  0
  -25.8137  -30.8958   27.0247 H   0  0  0  0  0  0
  -26.2913  -29.6673   24.1275 H   0  0  0  0  0  0
  -27.4096  -29.7241   25.4706 H   0  0  0  0  0  0
  -27.8784  -30.4204   23.9389 H   0  0  0  0  0  0
  -27.2748  -33.3567   26.2060 H   0  0  0  0  0  0
  -28.3893  -32.6833   25.0231 H   0  0  0  0  0  0
  -28.0830  -31.8376   26.5321 H   0  0  0  0  0  0
  -28.2596  -38.0056   24.7505 H   0  0  0  0  0  0
  -28.1079  -36.2592   24.6250 H   0  0  0  0  0  0
  -27.2321  -37.1406   25.8865 H   0  0  0  0  0  0
  -20.9383  -29.8738   21.6830 H   0  0  0  0  0  0
  -26.0166  -38.2809   24.1451 H   0  0  0  0  0  0
  -27.8073  -19.9529   21.7926 H   0  0  0  0  0  0
  -30.8135  -20.0294   18.7579 H   0  0  0  0  0  0
  -27.8867  -22.4025   21.8092 H   0  0  0  0  0  0
  -29.5553  -22.3161   22.2869 H   0  0  0  0  0  0
  -28.5791  -22.0634   18.1194 H   0  0  0  0  0  0
  -27.2937  -22.2446   19.2771 H   0  0  0  0  0  0
  -30.0594  -24.4893   21.1947 H   0  0  0  0  0  0
  -28.7573  -24.6728   22.3305 H   0  0  0  0  0  0
  -27.7760  -24.4273   18.1662 H   0  0  0  0  0  0
  -29.4499  -24.3364   18.6252 H   0  0  0  0  0  0
  -30.2631  -22.1367   19.9270 H   0  0  0  0  0  0
  -27.1014  -24.7029   20.5417 H   0  0  0  0  0  0
  -28.2930  -17.0585   23.1712 H   0  0  0  0  0  0
  -27.3773  -16.3832   21.8243 H   0  0  0  0  0  0
  -26.8954  -17.9167   22.5132 H   0  0  0  0  0  0
  -31.4582  -18.0613   17.6923 H   0  0  0  0  0  0
  -30.8792  -16.4808   18.1761 H   0  0  0  0  0  0
  -32.2701  -17.2132   19.0066 H   0  0  0  0  0  0
  -28.7828  -15.4229   20.9979 H   0  0  0  0  0  0
  1 25  1  0  0  0
  1 30  2  0  0  0
  1 85  1  0  0  0
  2  3  1  0  0  0
  2 25  1  0  0  0
  2 86  1  0  0  0
  2 87  1  0  0  0
  3  4  1  0  0  0
  3 88  1  0  0  0
  3 89  1  0  0  0
  4  5  1  0  0  0
  4 90  1  0  0  0
  4 91  1  0  0  0
  5  6  1  0  0  0
  5 26  1  0  0  0
  5 92  1  0  0  0
  6 25  1  0  0  0
  6 93  1  0  0  0
  6 94  1  0  0  0
  7  8  2  0  0  0
  7 26  1  0  0  0
  7 29  1  0  0  0
  8  9  1  0  0  0
  8 22  1  0  0  0
  9 10  1  0  0  0
  9 27  2  0  0  0
 10 11  2  0  0  0
 10 15  1  0  0  0
 11 12  1  0  0  0
 11 95  1  0  0  0
 12 13  2  0  0  0
 12 96  1  0  0  0
 13 14  1  0  0  0
 13 31  1  0  0  0
 14 15  2  0  0  0
 14 97  1  0  0  0
 15 98  1  0  0  0
 16 17  2  0  0  0
 16 21  1  0  0  0
 16 31  1  0  0  0
 17 18  1  0  0  0
 17 99  1  0  0  0
 18 19  2  0  0  0
 18100  1  0  0  0
 19 20  1  0  0  0
 19 24  1  0  0  0
 20 21  2  0  0  0
 20101  1  0  0  0
 21 23  1  0  0  0
 22 28  1  0  0  0
 22 32  2  0  0  0
 26 27  1  0  0  0
 28102  1  0  0  0
 28103  1  0  0  0
 29104  1  0  0  0
 29105  1  0  0  0
 33 34  1  0  0  0
 33 66  1  0  0  0
 33 70  2  0  0  0
 34 36  1  0  0  0
 34 59  1  0  0  0
 34106  1  0  0  0
 35 44  2  0  0  0
 35 45  1  0  0  0
 35 68  1  0  0  0
 36 56  1  0  0  0
 36107  1  0  0  0
 37 39  1  0  0  0
 37 47  1  0  0  0
 37 66  1  0  0  0
 37108  1  0  0  0
 38 43  2  0  0  0
 38 46  1  0  0  0
 38 47  1  0  0  0
 39 64  1  0  0  0
 39 67  2  0  0  0
 40 52  1  0  0  0
 40 53  2  0  0  0
 40 58  1  0  0  0
 41109  1  0  0  0
 41110  1  0  0  0
 41111  1  0  0  0
 41 48  1  0  0  0
 42 43  1  0  0  0
 42 66  1  0  0  0
 42112  1  0  0  0
 42113  1  0  0  0
 43 44  1  0  0  0
 44114  1  0  0  0
 45 46  2  0  0  0
 45115  1  0  0  0
 46116  1  0  0  0
 47117  1  0  0  0
 47118  1  0  0  0
 48 56  1  0  0  0
 48 65  1  0  0  0
 48119  1  0  0  0
 49 50  1  0  0  0
 49 53  1  0  0  0
 49 64  1  0  0  0
 49120  1  0  0  0
 50 51  1  0  0  0
 50121  1  0  0  0
 50122  1  0  0  0
 51 52  1  0  0  0
 51123  1  0  0  0
 51124  1  0  0  0
 52125  1  0  0  0
 52126  1  0  0  0
 53 54  1  0  0  0
 54 55  2  0  0  0
 54127  1  0  0  0
 55 57  1  0  0  0
 55128  1  0  0  0
 56 69  2  0  0  0
 57 58  2  0  0  0
 57129  1  0  0  0
 58130  1  0  0  0
 59 60  1  0  0  0
 59 61  1  0  0  0
 59 62  1  0  0  0
 60131  1  0  0  0
 60132  1  0  0  0
 60133  1  0  0  0
 61134  1  0  0  0
 61135  1  0  0  0
 61136  1  0  0  0
 62137  1  0  0  0
 62138  1  0  0  0
 62139  1  0  0  0
 63 65  1  0  0  0
 63140  1  0  0  0
 63141  1  0  0  0
 63142  1  0  0  0
 64143  1  0  0  0
 65144  1  0  0  0
 68 82  1  0  0  0
 71 73  2  0  0  0
 71 74  1  0  0  0
 71145  1  0  0  0
 72 73  1  0  0  0
 72 75  2  0  0  0
 72146  1  0  0  0
 73 81  1  0  0  0
 74 76  2  0  0  0
 74 83  1  0  0  0
 75 76  1  0  0  0
 75 84  1  0  0  0
 76 85  1  0  0  0
 77 79  1  0  0  0
 77 81  1  0  0  0
 77147  1  0  0  0
 77148  1  0  0  0
 78 80  1  0  0  0
 78 81  1  0  0  0
 78149  1  0  0  0
 78150  1  0  0  0
 79 82  1  0  0  0
 79151  1  0  0  0
 79152  1  0  0  0
 80 82  1  0  0  0
 80153  1  0  0  0
 80154  1  0  0  0
 81155  1  0  0  0
 82156  1  0  0  0
 83157  1  0  0  0
 83158  1  0  0  0
 83159  1  0  0  0
 84160  1  0  0  0
 84161  1  0  0  0
 84162  1  0  0  0
 85163  1  0  0  0
M  ISO  4   1 100  68 101  82 101  85 100
M  END
> <chiral flag>
0

> <version>
0

> <s_m_source_file>
/data/baiqing/PycharmProjects/Reinvent-master-3.2/result/LINK_invent/BTK/process_docking_weight1_custom_sum_contain_oxygen_bond_distance_aromatic_linkinvent_7_9_3/rearranged_h_0147.sdf

> <i_m_source_file_index>
12

> <r_mmod_Potential_Energy-OPLS-2005>
138.297149658203

> <r_mmod_Stretch_Energy-OPLS-2005>
111.309638977051

> <r_mmod_Bend_Energy-OPLS-2005>
175.132507324219

> <r_mmod_Torsional_Energy-OPLS-2005>
243.99397277832

> <r_mmod_Improper_Torsional_Energy-OPLS-2005>
4.7695894241333

> <r_mmod_Van_der_Waal_Energy-OPLS-2005>
137.913238525391

> <r_mmod_Electrostatic_Energy-OPLS-2005>
-423.173004150391

> <r_mmod_Solvation_Energy-OPLS-2005>
-193.863098144531

> <b_mmod_Minimization_Converged-OPLS-2005>
0

> <r_mmod_RMS_Derivative-OPLS-2005>
3.11989164352417

$$$$
12
                    3D
 Structure written by MMmdl.
153161  0  0  1  0            999 V2000
  -30.7048  -14.4874   20.4936 C   0  0  0  0  0  0
  -30.4138  -12.2900   19.4501 C   0  0  0  0  0  0
  -29.5011  -12.4739   18.2200 C   0  0  0  0  0  0
  -28.0167  -12.3533   18.6228 C   0  0  0  0  0  0
  -27.6523  -13.2145   19.8656 C   0  0  2  0  0  0
  -28.6942  -13.0473   20.9976 C   0  0  0  0  0  0
  -25.2530  -13.8182   20.5688 C   0  0  0  0  0  0
  -24.1800  -13.0452   20.9191 C   0  0  0  0  0  0
  -24.6367  -11.6918   20.8726 C   0  0  0  0  0  0
  -23.9032  -10.4308   21.0417 C   0  0  0  0  0  0
  -24.3594   -9.4221   21.9187 C   0  0  0  0  0  0
  -23.6281   -8.2248   22.0760 C   0  0  0  0  0  0
  -22.4256   -8.0279   21.3554 C   0  0  0  0  0  0
  -21.9886   -9.0255   20.4655 C   0  0  0  0  0  0
  -22.7209  -10.2141   20.3070 C   0  0  0  0  0  0
  -21.6849   -6.0722   22.5273 C   0  0  0  0  0  0
  -21.4019   -6.5628   23.8208 C   0  0  0  0  0  0
  -21.3668   -5.6782   24.9168 C   0  0  0  0  0  0
  -21.6051   -4.3050   24.7215 C   0  0  0  0  0  0
  -21.8814   -3.8131   23.4339 C   0  0  0  0  0  0
  -21.9195   -4.6947   22.3396 C   0  0  0  0  0  0
  -22.7816  -13.5253   21.1843 C   0  0  0  0  0  0
  -22.1659   -4.2126   21.0970 F   0  0  0  0  0  0
  -21.5633   -3.4541   25.7739 F   0  0  0  0  0  0
  -30.0260  -13.3114   20.4362 N   0  0  0  0  0  0
  -26.2962  -12.9371   20.3344 N   0  0  0  0  0  0
  -25.9290  -11.6519   20.5739 N   0  0  0  0  0  0
  -22.0481  -12.8268   22.0429 N   0  0  0  0  0  0
  -25.4256  -15.1900   20.4085 N   0  0  0  0  0  0
  -31.8864  -14.5855   20.1562 O   0  0  0  0  0  0
  -21.6633   -6.8867   21.4236 O   0  0  0  0  0  0
  -22.3507  -14.5571   20.6685 O   0  0  0  0  0  0
  -24.6133  -31.8699   23.2142 C   0  0  0  0  0  0
  -25.9037  -32.4857   23.8412 C   0  0  1  0  0  0
  -27.2178  -27.4298   20.1028 C   0  0  0  0  0  0
  -25.5900  -33.8648   24.2345 N   0  0  0  0  0  0
  -23.3999  -30.4983   21.5533 C   0  0  2  0  0  0
  -24.8420  -28.9681   20.1158 C   0  0  0  0  0  0
  -22.7407  -29.4682   22.4991 C   0  0  0  0  0  0
  -18.0276  -28.1396   22.8520 C   0  0  0  0  0  0
  -24.1472  -36.7296   23.2639 C   0  0  0  0  0  0
  -25.9289  -30.8419   21.3597 C   0  0  0  0  0  0
  -26.0049  -29.4740   20.7104 C   0  0  0  0  0  0
  -27.1981  -28.7147   20.6960 C   0  0  0  0  0  0
  -26.0372  -26.9469   19.4945 C   0  0  0  0  0  0
  -24.8542  -27.7063   19.5027 C   0  0  0  0  0  0
  -23.6060  -29.8358   20.1660 C   0  0  0  0  0  0
  -25.4101  -36.3121   24.0342 C   0  0  1  0  0  0
  -20.5865  -28.3671   23.1335 C   0  0  2  0  0  0
  -20.6749  -26.9400   22.5434 C   0  0  0  0  0  0
  -19.5725  -26.6405   21.5230 C   0  0  0  0  0  0
  -18.1908  -26.7951   22.1645 C   0  0  0  0  0  0
  -19.1525  -28.8852   23.2932 C   0  0  0  0  0  0
  -18.9448  -30.1457   23.8943 C   0  0  0  0  0  0
  -17.6447  -30.6601   24.0582 C   0  0  0  0  0  0
  -25.9031  -34.9498   23.5141 C   0  0  0  0  0  0
  -16.5338  -29.9105   23.6332 C   0  0  0  0  0  0
  -16.7266  -28.6520   23.0364 C   0  0  0  0  0  0
  -26.4463  -31.6644   25.0738 C   0  0  0  0  0  0
  -25.3746  -31.3727   26.1501 C   0  0  0  0  0  0
  -27.0271  -30.3106   24.6060 C   0  0  0  0  0  0
  -27.6053  -32.4348   25.7495 C   0  0  0  0  0  0
  -27.5571  -37.1805   24.8471 C   0  0  0  0  0  0
  -21.4136  -29.3049   22.3738 N   0  0  0  0  0  0
  -26.4274  -37.3820   23.9429 N   0  0  0  0  0  0
  -24.6662  -31.0824   22.1019 N   0  0  0  0  0  0
  -23.4187  -28.8212   23.3024 O   0  0  0  0  0  0
  -28.3783  -26.6845   20.1068 O   0  0  0  0  0  0
  -26.5573  -34.8952   22.4692 O   0  0  0  0  0  0
  -23.5339  -32.1419   23.7567 O   0  0  0  0  0  0
  -30.2371  -18.8956   21.2097 C   0  0  0  0  0  0
  -29.9364  -20.2732   21.3160 C   0  0  0  0  0  0
  -28.8409  -18.8438   19.2463 C   0  0  0  0  0  0
  -29.7133  -18.1637   20.1242 C   0  0  0  0  0  0
  -29.1139  -20.8783   20.3394 C   0  0  0  0  0  0
  -30.2419  -16.7724   19.7432 C   0  0  0  0  0  0
  -29.6039  -24.5823   20.3837 C   0  0  0  0  0  0
  -28.2367  -25.2885   20.4311 C   0  0  0  0  0  0
  -29.6467  -23.1507   20.9756 C   0  0  0  0  0  0
  -28.5463  -20.1582   19.3516 N   0  0  0  0  0  0
  -29.9409  -15.5972   20.5880 N   0  0  0  0  0  0
  -28.8305  -22.2303   20.2463 O   0  0  0  0  0  0
  -31.4661  -12.3595   19.1630 H   0  0  0  0  0  0
  -30.2933  -11.2947   19.8815 H   0  0  0  0  0  0
  -29.7411  -11.7312   17.4582 H   0  0  0  0  0  0
  -29.6873  -13.4469   17.7636 H   0  0  0  0  0  0
  -27.8147  -11.3018   18.8351 H   0  0  0  0  0  0
  -27.3786  -12.6188   17.7774 H   0  0  0  0  0  0
  -27.6762  -14.2526   19.5343 H   0  0  0  0  0  0
  -28.6587  -12.0338   21.4009 H   0  0  0  0  0  0
  -28.4746  -13.7128   21.8353 H   0  0  0  0  0  0
  -25.2762   -9.5675   22.4733 H   0  0  0  0  0  0
  -23.9991   -7.4627   22.7485 H   0  0  0  0  0  0
  -21.0814   -8.8776   19.8959 H   0  0  0  0  0  0
  -22.3697  -10.9661   19.6149 H   0  0  0  0  0  0
  -21.2019   -7.6135   23.9698 H   0  0  0  0  0  0
  -21.1501   -6.0518   25.9072 H   0  0  0  0  0  0
  -22.0588   -2.7588   23.2845 H   0  0  0  0  0  0
  -22.4094  -11.9929   22.4813 H   0  0  0  0  0  0
  -21.1101  -13.1290   22.2647 H   0  0  0  0  0  0
  -24.6605  -15.8487   20.5103 H   0  0  0  0  0  0
  -26.2715  -15.6247   20.0624 H   0  0  0  0  0  0
  -26.7116  -32.5569   23.1190 H   0  0  0  0  0  0
  -25.0099  -33.9815   25.0518 H   0  0  0  0  0  0
  -22.6898  -31.3158   21.4199 H   0  0  0  0  0  0
  -23.3747  -35.9613   23.3320 H   0  0  0  0  0  0
  -24.3560  -36.8887   22.2046 H   0  0  0  0  0  0
  -23.7213  -37.6510   23.6632 H   0  0  0  0  0  0
  -26.0259  -31.6065   20.5869 H   0  0  0  0  0  0
  -26.8226  -30.9065   21.9682 H   0  0  0  0  0  0
  -28.0969  -29.1012   21.1556 H   0  0  0  0  0  0
  -26.0123  -25.9889   18.9969 H   0  0  0  0  0  0
  -23.9602  -27.3154   19.0376 H   0  0  0  0  0  0
  -23.7177  -30.6135   19.4090 H   0  0  0  0  0  0
  -22.7280  -29.2590   19.8686 H   0  0  0  0  0  0
  -25.1280  -36.1982   25.0832 H   0  0  0  0  0  0
  -20.9973  -28.3223   24.1450 H   0  0  0  0  0  0
  -20.5647  -26.2264   23.3616 H   0  0  0  0  0  0
  -21.6616  -26.7443   22.1219 H   0  0  0  0  0  0
  -19.6855  -25.6322   21.1243 H   0  0  0  0  0  0
  -19.6658  -27.3233   20.6773 H   0  0  0  0  0  0
  -17.4169  -26.6737   21.4046 H   0  0  0  0  0  0
  -18.0287  -26.0089   22.9036 H   0  0  0  0  0  0
  -19.7918  -30.7277   24.2317 H   0  0  0  0  0  0
  -17.5003  -31.6285   24.5179 H   0  0  0  0  0  0
  -15.5343  -30.3016   23.7645 H   0  0  0  0  0  0
  -15.8668  -28.0857   22.7048 H   0  0  0  0  0  0
  -24.5932  -30.7054   25.7850 H   0  0  0  0  0  0
  -24.8908  -32.2865   26.4960 H   0  0  0  0  0  0
  -25.8121  -30.8913   27.0257 H   0  0  0  0  0  0
  -26.2781  -29.6917   24.1117 H   0  0  0  0  0  0
  -27.4063  -29.7313   25.4485 H   0  0  0  0  0  0
  -27.8611  -30.4457   23.9174 H   0  0  0  0  0  0
  -27.2694  -33.3645   26.2103 H   0  0  0  0  0  0
  -28.3852  -32.6917   25.0312 H   0  0  0  0  0  0
  -28.0739  -31.8456   26.5390 H   0  0  0  0  0  0
  -28.2612  -38.0082   24.7537 H   0  0  0  0  0  0
  -28.1046  -36.2628   24.6277 H   0  0  0  0  0  0
  -27.2293  -37.1434   25.8874 H   0  0  0  0  0  0
  -20.9259  -29.8784   21.6991 H   0  0  0  0  0  0
  -26.0160  -38.2887   24.1476 H   0  0  0  0  0  0
  -30.9238  -18.4339   21.9074 H   0  0  0  0  0  0
  -30.3740  -20.8470   22.1224 H   0  0  0  0  0  0
  -28.4309  -18.3464   18.3799 H   0  0  0  0  0  0
  -31.3194  -16.8957   19.6194 H   0  0  0  0  0  0
  -29.8814  -16.5284   18.7410 H   0  0  0  0  0  0
  -30.3263  -25.1936   20.9281 H   0  0  0  0  0  0
  -29.9550  -24.5568   19.3525 H   0  0  0  0  0  0
  -27.5675  -24.7694   19.7447 H   0  0  0  0  0  0
  -27.8051  -25.1998   21.4301 H   0  0  0  0  0  0
  -29.3515  -23.1564   22.0261 H   0  0  0  0  0  0
  -30.6845  -22.8212   20.9347 H   0  0  0  0  0  0
  -28.9800  -15.4503   20.8533 H   0  0  0  0  0  0
  1 25  1  0  0  0
  1 30  2  0  0  0
  1 81  1  0  0  0
  2  3  1  0  0  0
  2 25  1  0  0  0
  2 83  1  0  0  0
  2 84  1  0  0  0
  3  4  1  0  0  0
  3 85  1  0  0  0
  3 86  1  0  0  0
  4  5  1  0  0  0
  4 87  1  0  0  0
  4 88  1  0  0  0
  5  6  1  0  0  0
  5 26  1  0  0  0
  5 89  1  0  0  0
  6 25  1  0  0  0
  6 90  1  0  0  0
  6 91  1  0  0  0
  7  8  2  0  0  0
  7 26  1  0  0  0
  7 29  1  0  0  0
  8  9  1  0  0  0
  8 22  1  0  0  0
  9 10  1  0  0  0
  9 27  2  0  0  0
 10 11  2  0  0  0
 10 15  1  0  0  0
 11 12  1  0  0  0
 11 92  1  0  0  0
 12 13  2  0  0  0
 12 93  1  0  0  0
 13 14  1  0  0  0
 13 31  1  0  0  0
 14 15  2  0  0  0
 14 94  1  0  0  0
 15 95  1  0  0  0
 16 17  2  0  0  0
 16 21  1  0  0  0
 16 31  1  0  0  0
 17 18  1  0  0  0
 17 96  1  0  0  0
 18 19  2  0  0  0
 18 97  1  0  0  0
 19 20  1  0  0  0
 19 24  1  0  0  0
 20 21  2  0  0  0
 20 98  1  0  0  0
 21 23  1  0  0  0
 22 28  1  0  0  0
 22 32  2  0  0  0
 26 27  1  0  0  0
 28 99  1  0  0  0
 28100  1  0  0  0
 29101  1  0  0  0
 29102  1  0  0  0
 33 34  1  0  0  0
 33 66  1  0  0  0
 33 70  2  0  0  0
 34 36  1  0  0  0
 34 59  1  0  0  0
 34103  1  0  0  0
 35 44  2  0  0  0
 35 45  1  0  0  0
 35 68  1  0  0  0
 36 56  1  0  0  0
 36104  1  0  0  0
 37 39  1  0  0  0
 37 47  1  0  0  0
 37 66  1  0  0  0
 37105  1  0  0  0
 38 43  2  0  0  0
 38 46  1  0  0  0
 38 47  1  0  0  0
 39 64  1  0  0  0
 39 67  2  0  0  0
 40 52  1  0  0  0
 40 53  2  0  0  0
 40 58  1  0  0  0
 41106  1  0  0  0
 41107  1  0  0  0
 41108  1  0  0  0
 41 48  1  0  0  0
 42 43  1  0  0  0
 42 66  1  0  0  0
 42109  1  0  0  0
 42110  1  0  0  0
 43 44  1  0  0  0
 44111  1  0  0  0
 45 46  2  0  0  0
 45112  1  0  0  0
 46113  1  0  0  0
 47114  1  0  0  0
 47115  1  0  0  0
 48 56  1  0  0  0
 48 65  1  0  0  0
 48116  1  0  0  0
 49 50  1  0  0  0
 49 53  1  0  0  0
 49 64  1  0  0  0
 49117  1  0  0  0
 50 51  1  0  0  0
 50118  1  0  0  0
 50119  1  0  0  0
 51 52  1  0  0  0
 51120  1  0  0  0
 51121  1  0  0  0
 52122  1  0  0  0
 52123  1  0  0  0
 53 54  1  0  0  0
 54 55  2  0  0  0
 54124  1  0  0  0
 55 57  1  0  0  0
 55125  1  0  0  0
 56 69  2  0  0  0
 57 58  2  0  0  0
 57126  1  0  0  0
 58127  1  0  0  0
 59 60  1  0  0  0
 59 61  1  0  0  0
 59 62  1  0  0  0
 60128  1  0  0  0
 60129  1  0  0  0
 60130  1  0  0  0
 61131  1  0  0  0
 61132  1  0  0  0
 61133  1  0  0  0
 62134  1  0  0  0
 62135  1  0  0  0
 62136  1  0  0  0
 63 65  1  0  0  0
 63137  1  0  0  0
 63138  1  0  0  0
 63139  1  0  0  0
 64140  1  0  0  0
 65141  1  0  0  0
 68 78  1  0  0  0
 71 72  2  0  0  0
 71 74  1  0  0  0
 71142  1  0  0  0
 72 75  1  0  0  0
 72143  1  0  0  0
 73 74  2  0  0  0
 73 80  1  0  0  0
 73144  1  0  0  0
 74 76  1  0  0  0
 75 80  2  0  0  0
 75 82  1  0  0  0
 76 81  1  0  0  0
 76145  1  0  0  0
 76146  1  0  0  0
 77 78  1  0  0  0
 77 79  1  0  0  0
 77147  1  0  0  0
 77148  1  0  0  0
 78149  1  0  0  0
 78150  1  0  0  0
 79 82  1  0  0  0
 79151  1  0  0  0
 79152  1  0  0  0
 81153  1  0  0  0
M  ISO  4   1 100  68 101  78 101  81 100
M  END
> <chiral flag>
0

> <version>
0

> <s_m_source_file>
/data/baiqing/PycharmProjects/Reinvent-master-3.2/result/LINK_invent/BTK/process_docking_weight1_custom_sum_contain_oxygen_bond_distance_aromatic_linkinvent_7_9_3/rearranged_h_0147.sdf

> <i_m_source_file_index>
13

> <r_mmod_Potential_Energy-OPLS-2005>
-175.976058959961

> <r_mmod_Stretch_Energy-OPLS-2005>
37.085636138916

> <r_mmod_Bend_Energy-OPLS-2005>
104.436508178711

> <r_mmod_Torsional_Energy-OPLS-2005>
240.674682617188

> <r_mmod_Improper_Torsional_Energy-OPLS-2005>
12.9236259460449

> <r_mmod_Van_der_Waal_Energy-OPLS-2005>
158.86198425293

> <r_mmod_Electrostatic_Energy-OPLS-2005>
-524.342407226562

> <r_mmod_Solvation_Energy-OPLS-2005>
-225.252105712891

> <b_mmod_Minimization_Converged-OPLS-2005>
0

> <r_mmod_RMS_Derivative-OPLS-2005>
3.01843786239624

$$$$
13
                    3D
 Structure written by MMmdl.
164174  0  0  1  0            999 V2000
  -30.6962  -14.4812   20.5054 C   0  0  0  0  0  0
  -30.4147  -12.2943   19.4239 C   0  0  0  0  0  0
  -29.4899  -12.4779   18.2033 C   0  0  0  0  0  0
  -28.0102  -12.3527   18.6188 C   0  0  0  0  0  0
  -27.6529  -13.2065   19.8663 C   0  0  2  0  0  0
  -28.6992  -13.0293   20.9889 C   0  0  0  0  0  0
  -25.2572  -13.8157   20.5688 C   0  0  0  0  0  0
  -24.1822  -13.0434   20.9180 C   0  0  0  0  0  0
  -24.6376  -11.6902   20.8746 C   0  0  0  0  0  0
  -23.9045  -10.4293   21.0417 C   0  0  0  0  0  0
  -24.3602   -9.4210   21.9189 C   0  0  0  0  0  0
  -23.6279   -8.2245   22.0758 C   0  0  0  0  0  0
  -22.4264   -8.0280   21.3548 C   0  0  0  0  0  0
  -21.9898   -9.0254   20.4652 C   0  0  0  0  0  0
  -22.7223  -10.2134   20.3063 C   0  0  0  0  0  0
  -21.6851   -6.0731   22.5278 C   0  0  0  0  0  0
  -21.4014   -6.5636   23.8210 C   0  0  0  0  0  0
  -21.3653   -5.6791   24.9173 C   0  0  0  0  0  0
  -21.6043   -4.3053   24.7228 C   0  0  0  0  0  0
  -21.8818   -3.8144   23.4349 C   0  0  0  0  0  0
  -21.9194   -4.6960   22.3404 C   0  0  0  0  0  0
  -22.7849  -13.5242   21.1839 C   0  0  0  0  0  0
  -22.1664   -4.2141   21.0982 F   0  0  0  0  0  0
  -21.5627   -3.4541   25.7743 F   0  0  0  0  0  0
  -30.0228  -13.3052   20.4152 N   0  0  0  0  0  0
  -26.2989  -12.9316   20.3360 N   0  0  0  0  0  0
  -25.9306  -11.6482   20.5790 N   0  0  0  0  0  0
  -22.0480  -12.8246   22.0395 N   0  0  0  0  0  0
  -25.4308  -15.1872   20.4102 N   0  0  0  0  0  0
  -31.8804  -14.5997   20.1714 O   0  0  0  0  0  0
  -21.6629   -6.8876   21.4242 O   0  0  0  0  0  0
  -22.3545  -14.5552   20.6690 O   0  0  0  0  0  0
  -24.6116  -31.8680   23.2072 C   0  0  0  0  0  0
  -25.9010  -32.4813   23.8380 C   0  0  1  0  0  0
  -27.2407  -27.4377   20.1049 C   0  0  0  0  0  0
  -25.5876  -33.8618   24.2311 N   0  0  0  0  0  0
  -23.4006  -30.4866   21.5475 C   0  0  2  0  0  0
  -24.8465  -28.9414   20.1190 C   0  0  0  0  0  0
  -22.7396  -29.4649   22.5004 C   0  0  0  0  0  0
  -18.0260  -28.1370   22.8491 C   0  0  0  0  0  0
  -24.1488  -36.7316   23.2642 C   0  0  0  0  0  0
  -25.9247  -30.8348   21.3563 C   0  0  0  0  0  0
  -26.0011  -29.4656   20.7102 C   0  0  0  0  0  0
  -27.1976  -28.7208   20.6944 C   0  0  0  0  0  0
  -26.0702  -26.9130   19.5173 C   0  0  0  0  0  0
  -24.8755  -27.6658   19.5208 C   0  0  0  0  0  0
  -23.6076  -29.8076   20.1648 C   0  0  0  0  0  0
  -25.4107  -36.3104   24.0335 C   0  0  1  0  0  0
  -20.5848  -28.3660   23.1324 C   0  0  2  0  0  0
  -20.6754  -26.9399   22.5429 C   0  0  0  0  0  0
  -19.5735  -26.6386   21.5220 C   0  0  0  0  0  0
  -18.1906  -26.7915   22.1619 C   0  0  0  0  0  0
  -19.1510  -28.8829   23.2903 C   0  0  0  0  0  0
  -18.9448  -30.1432   23.8917 C   0  0  0  0  0  0
  -17.6456  -30.6584   24.0555 C   0  0  0  0  0  0
  -25.9034  -34.9472   23.5130 C   0  0  0  0  0  0
  -16.5343  -29.9088   23.6317 C   0  0  0  0  0  0
  -16.7251  -28.6498   23.0346 C   0  0  0  0  0  0
  -26.4459  -31.6588   25.0706 C   0  0  0  0  0  0
  -25.3730  -31.3702   26.1467 C   0  0  0  0  0  0
  -27.0288  -30.3025   24.6085 C   0  0  0  0  0  0
  -27.6044  -32.4306   25.7456 C   0  0  0  0  0  0
  -27.5577  -37.1809   24.8469 C   0  0  0  0  0  0
  -21.4126  -29.3027   22.3738 N   0  0  0  0  0  0
  -26.4296  -37.3781   23.9406 N   0  0  0  0  0  0
  -24.6637  -31.0786   22.0959 N   0  0  0  0  0  0
  -23.4173  -28.8190   23.3040 O   0  0  0  0  0  0
  -28.4527  -26.7881   20.1057 O   0  0  0  0  0  0
  -26.5612  -34.8927   22.4698 O   0  0  0  0  0  0
  -23.5310  -32.1443   23.7471 O   0  0  0  0  0  0
  -29.8725  -20.9807   19.9793 C   0  0  0  0  0  0
  -29.5038  -22.3381   20.0250 C   0  0  0  0  0  0
  -27.8355  -20.3887   21.1429 C   0  0  0  0  0  0
  -29.0634  -19.9904   20.5699 C   0  0  0  0  0  0
  -28.3199  -22.7675   20.6710 C   0  0  0  0  0  0
  -27.4614  -21.7581   21.1939 C   0  0  0  0  0  0
  -29.4048  -17.7694   21.8958 C   0  0  0  0  0  0
  -28.9399  -17.6622   19.4876 C   0  0  0  0  0  0
  -29.2644  -25.0884   21.2496 C   0  0  0  0  0  0
  -30.1649  -16.4185   21.8465 C   0  0  0  0  0  0
  -29.7178  -16.3357   19.3704 C   0  0  0  0  0  0
  -29.5590  -18.5366   20.5745 C   0  0  0  0  0  0
  -28.0739  -24.2669   20.8640 C   0  0  1  0  0  0
  -28.5808  -25.3738   19.9203 C   0  0  2  0  0  0
  -26.1361  -22.1158   21.8437 C   0  0  0  0  0  0
  -29.9254  -15.5928   20.6400 N   0  0  0  0  0  0
  -31.4608  -12.3832   19.1234 H   0  0  0  0  0  0
  -30.3067  -11.2937   19.8443 H   0  0  0  0  0  0
  -29.7259  -11.7364   17.4387 H   0  0  0  0  0  0
  -29.6645  -13.4517   17.7445 H   0  0  0  0  0  0
  -27.8154  -11.2999   18.8258 H   0  0  0  0  0  0
  -27.3618  -12.6197   17.7834 H   0  0  0  0  0  0
  -27.6759  -14.2465   19.5471 H   0  0  0  0  0  0
  -28.6738  -12.0138   21.3857 H   0  0  0  0  0  0
  -28.4816  -13.6915   21.8287 H   0  0  0  0  0  0
  -25.2748   -9.5683   22.4758 H   0  0  0  0  0  0
  -23.9988   -7.4635   22.7476 H   0  0  0  0  0  0
  -21.0830   -8.8776   19.8953 H   0  0  0  0  0  0
  -22.3689  -10.9673   19.6168 H   0  0  0  0  0  0
  -21.2004   -7.6142   23.9714 H   0  0  0  0  0  0
  -21.1475   -6.0519   25.9074 H   0  0  0  0  0  0
  -22.0603   -2.7605   23.2855 H   0  0  0  0  0  0
  -22.4086  -11.9905   22.4786 H   0  0  0  0  0  0
  -21.1099  -13.1292   22.2593 H   0  0  0  0  0  0
  -24.6692  -15.8472   20.5224 H   0  0  0  0  0  0
  -26.2995  -15.6244   20.1301 H   0  0  0  0  0  0
  -26.7065  -32.5535   23.1133 H   0  0  0  0  0  0
  -25.0005  -33.9801   25.0443 H   0  0  0  0  0  0
  -22.6908  -31.3037   21.4036 H   0  0  0  0  0  0
  -23.3747  -35.9652   23.3319 H   0  0  0  0  0  0
  -24.3578  -36.8933   22.2055 H   0  0  0  0  0  0
  -23.7263  -37.6531   23.6657 H   0  0  0  0  0  0
  -26.0338  -31.5965   20.5826 H   0  0  0  0  0  0
  -26.8139  -30.8911   21.9730 H   0  0  0  0  0  0
  -28.0951  -29.1288   21.1378 H   0  0  0  0  0  0
  -26.0791  -25.9383   19.0494 H   0  0  0  0  0  0
  -23.9852  -27.2584   19.0626 H   0  0  0  0  0  0
  -23.7140  -30.5768   19.3992 H   0  0  0  0  0  0
  -22.7316  -29.2241   19.8749 H   0  0  0  0  0  0
  -25.1279  -36.1968   25.0826 H   0  0  0  0  0  0
  -20.9931  -28.3226   24.1448 H   0  0  0  0  0  0
  -20.5666  -26.2269   23.3619 H   0  0  0  0  0  0
  -21.6625  -26.7454   22.1220 H   0  0  0  0  0  0
  -19.6918  -25.6308   21.1224 H   0  0  0  0  0  0
  -19.6670  -27.3222   20.6771 H   0  0  0  0  0  0
  -17.4187  -26.6665   21.4006 H   0  0  0  0  0  0
  -18.0289  -26.0051   22.9007 H   0  0  0  0  0  0
  -19.7936  -30.7222   24.2306 H   0  0  0  0  0  0
  -17.5022  -31.6268   24.5153 H   0  0  0  0  0  0
  -15.5341  -30.2993   23.7656 H   0  0  0  0  0  0
  -15.8643  -28.0828   22.7059 H   0  0  0  0  0  0
  -24.5878  -30.7074   25.7812 H   0  0  0  0  0  0
  -24.8950  -32.2862   26.4942 H   0  0  0  0  0  0
  -25.8080  -30.8848   27.0214 H   0  0  0  0  0  0
  -26.2840  -29.6777   24.1144 H   0  0  0  0  0  0
  -27.4066  -29.7258   25.4541 H   0  0  0  0  0  0
  -27.8653  -30.4342   23.9220 H   0  0  0  0  0  0
  -27.2679  -33.3603   26.2059 H   0  0  0  0  0  0
  -28.3829  -32.6882   25.0258 H   0  0  0  0  0  0
  -28.0734  -31.8419   26.5355 H   0  0  0  0  0  0
  -28.2601  -38.0095   24.7488 H   0  0  0  0  0  0
  -28.1059  -36.2629   24.6310 H   0  0  0  0  0  0
  -27.2294  -37.1481   25.8871 H   0  0  0  0  0  0
  -20.9302  -29.8735   21.6941 H   0  0  0  0  0  0
  -26.0186  -38.2859   24.1394 H   0  0  0  0  0  0
  -30.8094  -20.7095   19.5112 H   0  0  0  0  0  0
  -30.1841  -23.0584   19.5933 H   0  0  0  0  0  0
  -27.1857  -19.6379   21.5713 H   0  0  0  0  0  0
  -29.7949  -18.3669   22.7209 H   0  0  0  0  0  0
  -28.3507  -17.5944   22.1160 H   0  0  0  0  0  0
  -27.8858  -17.4771   19.6987 H   0  0  0  0  0  0
  -28.9753  -18.1800   18.5284 H   0  0  0  0  0  0
  -30.2596  -24.6524   21.2018 H   0  0  0  0  0  0
  -29.1156  -25.7708   22.0864 H   0  0  0  0  0  0
  -29.9115  -15.8324   22.7319 H   0  0  0  0  0  0
  -31.2349  -16.6267   21.9214 H   0  0  0  0  0  0
  -30.6901  -16.5551   18.9223 H   0  0  0  0  0  0
  -29.2052  -15.6945   18.6516 H   0  0  0  0  0  0
  -30.6308  -18.5945   20.3746 H   0  0  0  0  0  0
  -27.1431  -24.4732   21.3848 H   0  0  0  0  0  0
  -29.1228  -25.1159   19.0121 H   0  0  0  0  0  0
  -25.5488  -21.2237   22.0632 H   0  0  0  0  0  0
  -25.5361  -22.7422   21.1819 H   0  0  0  0  0  0
  -26.2973  -22.6483   22.7815 H   0  0  0  0  0  0
  1 25  1  0  0  0
  1 30  2  0  0  0
  1 86  1  0  0  0
  2  3  1  0  0  0
  2 25  1  0  0  0
  2 87  1  0  0  0
  2 88  1  0  0  0
  3  4  1  0  0  0
  3 89  1  0  0  0
  3 90  1  0  0  0
  4  5  1  0  0  0
  4 91  1  0  0  0
  4 92  1  0  0  0
  5  6  1  0  0  0
  5 26  1  0  0  0
  5 93  1  0  0  0
  6 25  1  0  0  0
  6 94  1  0  0  0
  6 95  1  0  0  0
  7  8  2  0  0  0
  7 26  1  0  0  0
  7 29  1  0  0  0
  8  9  1  0  0  0
  8 22  1  0  0  0
  9 10  1  0  0  0
  9 27  2  0  0  0
 10 11  2  0  0  0
 10 15  1  0  0  0
 11 12  1  0  0  0
 11 96  1  0  0  0
 12 13  2  0  0  0
 12 97  1  0  0  0
 13 14  1  0  0  0
 13 31  1  0  0  0
 14 15  2  0  0  0
 14 98  1  0  0  0
 15 99  1  0  0  0
 16 17  2  0  0  0
 16 21  1  0  0  0
 16 31  1  0  0  0
 17 18  1  0  0  0
 17100  1  0  0  0
 18 19  2  0  0  0
 18101  1  0  0  0
 19 20  1  0  0  0
 19 24  1  0  0  0
 20 21  2  0  0  0
 20102  1  0  0  0
 21 23  1  0  0  0
 22 28  1  0  0  0
 22 32  2  0  0  0
 26 27  1  0  0  0
 28103  1  0  0  0
 28104  1  0  0  0
 29105  1  0  0  0
 29106  1  0  0  0
 33 34  1  0  0  0
 33 66  1  0  0  0
 33 70  2  0  0  0
 34 36  1  0  0  0
 34 59  1  0  0  0
 34107  1  0  0  0
 35 44  2  0  0  0
 35 45  1  0  0  0
 35 68  1  0  0  0
 36 56  1  0  0  0
 36108  1  0  0  0
 37 39  1  0  0  0
 37 47  1  0  0  0
 37 66  1  0  0  0
 37109  1  0  0  0
 38 43  2  0  0  0
 38 46  1  0  0  0
 38 47  1  0  0  0
 39 64  1  0  0  0
 39 67  2  0  0  0
 40 52  1  0  0  0
 40 53  2  0  0  0
 40 58  1  0  0  0
 41110  1  0  0  0
 41111  1  0  0  0
 41112  1  0  0  0
 41 48  1  0  0  0
 42 43  1  0  0  0
 42 66  1  0  0  0
 42113  1  0  0  0
 42114  1  0  0  0
 43 44  1  0  0  0
 44115  1  0  0  0
 45 46  2  0  0  0
 45116  1  0  0  0
 46117  1  0  0  0
 47118  1  0  0  0
 47119  1  0  0  0
 48 56  1  0  0  0
 48 65  1  0  0  0
 48120  1  0  0  0
 49 50  1  0  0  0
 49 53  1  0  0  0
 49 64  1  0  0  0
 49121  1  0  0  0
 50 51  1  0  0  0
 50122  1  0  0  0
 50123  1  0  0  0
 51 52  1  0  0  0
 51124  1  0  0  0
 51125  1  0  0  0
 52126  1  0  0  0
 52127  1  0  0  0
 53 54  1  0  0  0
 54 55  2  0  0  0
 54128  1  0  0  0
 55 57  1  0  0  0
 55129  1  0  0  0
 56 69  2  0  0  0
 57 58  2  0  0  0
 57130  1  0  0  0
 58131  1  0  0  0
 59 60  1  0  0  0
 59 61  1  0  0  0
 59 62  1  0  0  0
 60132  1  0  0  0
 60133  1  0  0  0
 60134  1  0  0  0
 61135  1  0  0  0
 61136  1  0  0  0
 61137  1  0  0  0
 62138  1  0  0  0
 62139  1  0  0  0
 62140  1  0  0  0
 63 65  1  0  0  0
 63141  1  0  0  0
 63142  1  0  0  0
 63143  1  0  0  0
 64144  1  0  0  0
 65145  1  0  0  0
 68 84  1  0  0  0
 71 72  2  0  0  0
 71 74  1  0  0  0
 71146  1  0  0  0
 72 75  1  0  0  0
 72147  1  0  0  0
 73 74  2  0  0  0
 73 76  1  0  0  0
 73148  1  0  0  0
 74 82  1  0  0  0
 75 76  2  0  0  0
 75 83  1  0  0  0
 76 85  1  0  0  0
 77 80  1  0  0  0
 77 82  1  0  0  0
 77149  1  0  0  0
 77150  1  0  0  0
 78 81  1  0  0  0
 78 82  1  0  0  0
 78151  1  0  0  0
 78152  1  0  0  0
 79 83  1  0  0  0
 79 84  1  0  0  0
 79153  1  0  0  0
 79154  1  0  0  0
 80 86  1  0  0  0
 80155  1  0  0  0
 80156  1  0  0  0
 81 86  1  0  0  0
 81157  1  0  0  0
 81158  1  0  0  0
 82159  1  0  0  0
 83 84  1  0  0  0
 83160  1  0  0  0
 84161  1  0  0  0
 85162  1  0  0  0
 85163  1  0  0  0
 85164  1  0  0  0
M  ISO  4   1 100  68 101  84 101  86 100
M  END
> <chiral flag>
0

> <version>
0

> <s_m_source_file>
/data/baiqing/PycharmProjects/Reinvent-master-3.2/result/LINK_invent/BTK/process_docking_weight1_custom_sum_contain_oxygen_bond_distance_aromatic_linkinvent_7_9_3/rearranged_h_0147.sdf

> <i_m_source_file_index>
14

> <r_mmod_Potential_Energy-OPLS-2005>
248.789810180664

> <r_mmod_Stretch_Energy-OPLS-2005>
42.1951065063477

> <r_mmod_Bend_Energy-OPLS-2005>
152.877532958984

> <r_mmod_Torsional_Energy-OPLS-2005>
352.880645751953

> <r_mmod_Improper_Torsional_Energy-OPLS-2005>
12.6389560699463

> <r_mmod_Van_der_Waal_Energy-OPLS-2005>
150.885391235352

> <r_mmod_Electrostatic_Energy-OPLS-2005>
-294.7783203125

> <r_mmod_Solvation_Energy-OPLS-2005>
-186.106918334961

> <b_mmod_Minimization_Converged-OPLS-2005>
0

> <r_mmod_RMS_Derivative-OPLS-2005>
1.38656258583069

$$$$
14
                    3D
 Structure written by MMmdl.
164173  0  0  1  0            999 V2000
  -30.6387  -14.7512   20.4542 C   0  0  0  0  0  0
  -30.4244  -12.4633   19.4752 C   0  0  0  0  0  0
  -29.5066  -12.5230   18.2362 C   0  0  0  0  0  0
  -28.0320  -12.3537   18.6455 C   0  0  0  0  0  0
  -27.6406  -13.2482   19.8516 C   0  0  2  0  0  0
  -28.6861  -13.2003   20.9877 C   0  0  0  0  0  0
  -25.2490  -13.8262   20.5682 C   0  0  0  0  0  0
  -24.1822  -13.0484   20.9213 C   0  0  0  0  0  0
  -24.6458  -11.6964   20.8805 C   0  0  0  0  0  0
  -23.9152  -10.4324   21.0454 C   0  0  0  0  0  0
  -24.3681   -9.4203   21.9215 C   0  0  0  0  0  0
  -23.6324   -8.2255   22.0764 C   0  0  0  0  0  0
  -22.4302   -8.0331   21.3547 C   0  0  0  0  0  0
  -21.9982   -9.0317   20.4631 C   0  0  0  0  0  0
  -22.7357  -10.2179   20.3056 C   0  0  0  0  0  0
  -21.6838   -6.0774   22.5271 C   0  0  0  0  0  0
  -21.4006   -6.5667   23.8214 C   0  0  0  0  0  0
  -21.3652   -5.6812   24.9173 C   0  0  0  0  0  0
  -21.6048   -4.3066   24.7212 C   0  0  0  0  0  0
  -21.8825   -3.8179   23.4318 C   0  0  0  0  0  0
  -21.9192   -4.7004   22.3383 C   0  0  0  0  0  0
  -22.7825  -13.5216   21.1864 C   0  0  0  0  0  0
  -22.1658   -4.2197   21.0947 F   0  0  0  0  0  0
  -21.5638   -3.4537   25.7715 F   0  0  0  0  0  0
  -29.9888  -13.5358   20.4043 N   0  0  0  0  0  0
  -26.2950  -12.9499   20.3306 N   0  0  0  0  0  0
  -25.9387  -11.6625   20.5801 N   0  0  0  0  0  0
  -22.0452  -12.8170   22.0371 N   0  0  0  0  0  0
  -25.4176  -15.1993   20.4052 N   0  0  0  0  0  0
  -31.8359  -14.7794   20.1441 O   0  0  0  0  0  0
  -21.6644   -6.8944   21.4244 O   0  0  0  0  0  0
  -22.3496  -14.5519   20.6710 O   0  0  0  0  0  0
  -24.6257  -31.8595   23.2004 C   0  0  0  0  0  0
  -25.9083  -32.4789   23.8346 C   0  0  1  0  0  0
  -27.2165  -27.2802   20.1516 C   0  0  0  0  0  0
  -25.5881  -33.8586   24.2257 N   0  0  0  0  0  0
  -23.4235  -30.4756   21.5453 C   0  0  2  0  0  0
  -24.8749  -28.9208   20.1172 C   0  0  0  0  0  0
  -22.7483  -29.4577   22.4959 C   0  0  0  0  0  0
  -18.0276  -28.1323   22.8521 C   0  0  0  0  0  0
  -24.1470  -36.7291   23.2639 C   0  0  0  0  0  0
  -25.9642  -30.7783   21.3764 C   0  0  0  0  0  0
  -26.0446  -29.3980   20.7263 C   0  0  0  0  0  0
  -27.2231  -28.5898   20.7316 C   0  0  0  0  0  0
  -26.0312  -26.8584   19.5207 C   0  0  0  0  0  0
  -24.8702  -27.6568   19.5049 C   0  0  0  0  0  0
  -23.6448  -29.8070   20.1628 C   0  0  0  0  0  0
  -25.4102  -36.3080   24.0316 C   0  0  1  0  0  0
  -20.5882  -28.3615   23.1291 C   0  0  2  0  0  0
  -20.6755  -26.9352   22.5369 C   0  0  0  0  0  0
  -19.5706  -26.6376   21.5179 C   0  0  0  0  0  0
  -18.1912  -26.7882   22.1639 C   0  0  0  0  0  0
  -19.1538  -28.8786   23.2894 C   0  0  0  0  0  0
  -18.9463  -30.1398   23.8900 C   0  0  0  0  0  0
  -17.6472  -30.6542   24.0555 C   0  0  0  0  0  0
  -25.9042  -34.9455   23.5088 C   0  0  0  0  0  0
  -16.5356  -29.9047   23.6334 C   0  0  0  0  0  0
  -16.7274  -28.6452   23.0379 C   0  0  0  0  0  0
  -26.4446  -31.6629   25.0745 C   0  0  0  0  0  0
  -25.3640  -31.3728   26.1436 C   0  0  0  0  0  0
  -27.0386  -30.3094   24.6216 C   0  0  0  0  0  0
  -27.5938  -32.4427   25.7600 C   0  0  0  0  0  0
  -27.5558  -37.1805   24.8453 C   0  0  0  0  0  0
  -21.4191  -29.3006   22.3715 N   0  0  0  0  0  0
  -26.4269  -37.3779   23.9395 N   0  0  0  0  0  0
  -24.6909  -31.0554   22.0989 N   0  0  0  0  0  0
  -23.4197  -28.8096   23.3016 O   0  0  0  0  0  0
  -28.3014  -26.3889   20.1727 O   0  0  0  0  0  0
  -26.5657  -34.8951   22.4682 O   0  0  0  0  0  0
  -23.5407  -32.1415   23.7294 O   0  0  0  0  0  0
  -29.3726  -18.4602   20.7045 C   0  0  0  0  0  0
  -30.8330  -19.9699   19.5127 C   0  0  0  0  0  0
  -29.6680  -19.8251   20.2926 C   0  0  0  0  0  0
  -30.2123  -17.3283   20.3432 C   0  0  0  0  0  0
  -31.6380  -18.8564   19.2382 C   0  0  0  0  0  0
  -27.4403  -21.2457   20.0353 C   0  0  0  0  0  0
  -29.3733  -22.6094   20.4531 C   0  0  0  0  0  0
  -28.8229  -21.1210   20.6803 C   0  0  2  0  0  0
  -26.9707  -22.6922   20.3544 C   0  0  1  0  0  0
  -28.1923  -23.6266   20.1113 C   0  0  1  0  0  0
  -25.6941  -23.0836   19.5943 C   0  0  0  0  0  0
  -33.8940  -18.0326   18.7826 C   0  0  0  0  0  0
  -28.1110  -25.0672   20.8486 C   0  0  0  0  0  0
  -31.3216  -17.6067   19.6244 N   0  0  0  0  0  0
  -29.9042  -15.9140   20.6851 N   0  0  0  0  0  0
  -32.8407  -19.0181   18.5441 N   0  0  0  0  0  0
  -31.4646  -12.5742   19.1658 H   0  0  0  0  0  0
  -30.3621  -11.4908   19.9645 H   0  0  0  0  0  0
  -29.7873  -11.7528   17.5163 H   0  0  0  0  0  0
  -29.6379  -13.4789   17.7270 H   0  0  0  0  0  0
  -27.8752  -11.3043   18.8908 H   0  0  0  0  0  0
  -27.3828  -12.5684   17.7964 H   0  0  0  0  0  0
  -27.6296  -14.2687   19.4669 H   0  0  0  0  0  0
  -28.7204  -12.2158   21.4553 H   0  0  0  0  0  0
  -28.4244  -13.9058   21.7777 H   0  0  0  0  0  0
  -25.2824   -9.5643   22.4808 H   0  0  0  0  0  0
  -24.0010   -7.4634   22.7490 H   0  0  0  0  0  0
  -21.0932   -8.8897   19.8906 H   0  0  0  0  0  0
  -22.3891  -10.9738   19.6162 H   0  0  0  0  0  0
  -21.1986   -7.6173   23.9733 H   0  0  0  0  0  0
  -21.1465   -6.0527   25.9084 H   0  0  0  0  0  0
  -22.0610   -2.7643   23.2799 H   0  0  0  0  0  0
  -22.4060  -11.9804   22.4708 H   0  0  0  0  0  0
  -21.1040  -13.1152   22.2549 H   0  0  0  0  0  0
  -24.6456  -15.8524   20.4884 H   0  0  0  0  0  0
  -26.2646  -15.6329   20.0608 H   0  0  0  0  0  0
  -26.7165  -32.5463   23.1097 H   0  0  0  0  0  0
  -24.9879  -33.9709   25.0299 H   0  0  0  0  0  0
  -22.7172  -31.2963   21.4003 H   0  0  0  0  0  0
  -23.3765  -35.9583   23.3260 H   0  0  0  0  0  0
  -24.3532  -36.8979   22.2061 H   0  0  0  0  0  0
  -23.7209  -37.6452   23.6729 H   0  0  0  0  0  0
  -26.0831  -31.5362   20.6006 H   0  0  0  0  0  0
  -26.8470  -30.8352   22.0028 H   0  0  0  0  0  0
  -28.1177  -28.9463   21.2231 H   0  0  0  0  0  0
  -26.0015  -25.8829   19.0590 H   0  0  0  0  0  0
  -23.9736  -27.2838   19.0291 H   0  0  0  0  0  0
  -23.7639  -30.5825   19.4049 H   0  0  0  0  0  0
  -22.7649  -29.2314   19.8677 H   0  0  0  0  0  0
  -25.1276  -36.1909   25.0809 H   0  0  0  0  0  0
  -20.9944  -28.3170   24.1416 H   0  0  0  0  0  0
  -20.5644  -26.2210   23.3533 H   0  0  0  0  0  0
  -21.6613  -26.7385   22.1123 H   0  0  0  0  0  0
  -19.6841  -25.6302   21.1151 H   0  0  0  0  0  0
  -19.6618  -27.3234   20.6750 H   0  0  0  0  0  0
  -17.4147  -26.6647   21.4075 H   0  0  0  0  0  0
  -18.0313  -25.9994   22.9011 H   0  0  0  0  0  0
  -19.7959  -30.7188   24.2298 H   0  0  0  0  0  0
  -17.5049  -31.6252   24.5114 H   0  0  0  0  0  0
  -15.5348  -30.2935   23.7668 H   0  0  0  0  0  0
  -15.8695  -28.0769   22.7099 H   0  0  0  0  0  0
  -24.5748  -30.7211   25.7673 H   0  0  0  0  0  0
  -24.8901  -32.2883   26.4992 H   0  0  0  0  0  0
  -25.7879  -30.8738   27.0165 H   0  0  0  0  0  0
  -26.3046  -29.6825   24.1142 H   0  0  0  0  0  0
  -27.4017  -29.7349   25.4748 H   0  0  0  0  0  0
  -27.8897  -30.4463   23.9539 H   0  0  0  0  0  0
  -27.2476  -33.3743   26.2120 H   0  0  0  0  0  0
  -28.3805  -32.6994   25.0486 H   0  0  0  0  0  0
  -28.0545  -31.8607   26.5592 H   0  0  0  0  0  0
  -28.2484  -38.0199   24.7599 H   0  0  0  0  0  0
  -28.1155  -36.2710   24.6181 H   0  0  0  0  0  0
  -27.2249  -37.1303   25.8848 H   0  0  0  0  0  0
  -20.9349  -29.8860   21.7053 H   0  0  0  0  0  0
  -26.0140  -38.2828   24.1471 H   0  0  0  0  0  0
  -28.4931  -18.2892   21.3094 H   0  0  0  0  0  0
  -31.1387  -20.9385   19.1459 H   0  0  0  0  0  0
  -26.7476  -20.4933   20.4151 H   0  0  0  0  0  0
  -27.5204  -21.1077   18.9566 H   0  0  0  0  0  0
  -30.0656  -22.6534   19.6161 H   0  0  0  0  0  0
  -29.9426  -22.9363   21.3234 H   0  0  0  0  0  0
  -28.6548  -21.0301   21.7537 H   0  0  0  0  0  0
  -26.7359  -22.7115   21.4196 H   0  0  0  0  0  0
  -28.2330  -23.8209   19.0410 H   0  0  0  0  0  0
  -25.9002  -23.3294   18.5521 H   0  0  0  0  0  0
  -25.2131  -23.9448   20.0593 H   0  0  0  0  0  0
  -24.9642  -22.2737   19.6021 H   0  0  0  0  0  0
  -34.8254  -18.3227   18.2957 H   0  0  0  0  0  0
  -33.6047  -17.0538   18.3969 H   0  0  0  0  0  0
  -34.0867  -17.9303   19.8521 H   0  0  0  0  0  0
  -28.8429  -25.0535   21.6555 H   0  0  0  0  0  0
  -27.1586  -25.0961   21.3804 H   0  0  0  0  0  0
  -28.9676  -15.7595   21.0162 H   0  0  0  0  0  0
  -33.1360  -19.9647   18.3186 H   0  0  0  0  0  0
  1 25  1  0  0  0
  1 30  2  0  0  0
  1 85  1  0  0  0
  2  3  1  0  0  0
  2 25  1  0  0  0
  2 87  1  0  0  0
  2 88  1  0  0  0
  3  4  1  0  0  0
  3 89  1  0  0  0
  3 90  1  0  0  0
  4  5  1  0  0  0
  4 91  1  0  0  0
  4 92  1  0  0  0
  5  6  1  0  0  0
  5 26  1  0  0  0
  5 93  1  0  0  0
  6 25  1  0  0  0
  6 94  1  0  0  0
  6 95  1  0  0  0
  7  8  2  0  0  0
  7 26  1  0  0  0
  7 29  1  0  0  0
  8  9  1  0  0  0
  8 22  1  0  0  0
  9 10  1  0  0  0
  9 27  2  0  0  0
 10 11  2  0  0  0
 10 15  1  0  0  0
 11 12  1  0  0  0
 11 96  1  0  0  0
 12 13  2  0  0  0
 12 97  1  0  0  0
 13 14  1  0  0  0
 13 31  1  0  0  0
 14 15  2  0  0  0
 14 98  1  0  0  0
 15 99  1  0  0  0
 16 17  2  0  0  0
 16 21  1  0  0  0
 16 31  1  0  0  0
 17 18  1  0  0  0
 17100  1  0  0  0
 18 19  2  0  0  0
 18101  1  0  0  0
 19 20  1  0  0  0
 19 24  1  0  0  0
 20 21  2  0  0  0
 20102  1  0  0  0
 21 23  1  0  0  0
 22 28  1  0  0  0
 22 32  2  0  0  0
 26 27  1  0  0  0
 28103  1  0  0  0
 28104  1  0  0  0
 29105  1  0  0  0
 29106  1  0  0  0
 33 34  1  0  0  0
 33 66  1  0  0  0
 33 70  2  0  0  0
 34 36  1  0  0  0
 34 59  1  0  0  0
 34107  1  0  0  0
 35 44  2  0  0  0
 35 45  1  0  0  0
 35 68  1  0  0  0
 36 56  1  0  0  0
 36108  1  0  0  0
 37 39  1  0  0  0
 37 47  1  0  0  0
 37 66  1  0  0  0
 37109  1  0  0  0
 38 43  2  0  0  0
 38 46  1  0  0  0
 38 47  1  0  0  0
 39 64  1  0  0  0
 39 67  2  0  0  0
 40 52  1  0  0  0
 40 53  2  0  0  0
 40 58  1  0  0  0
 41110  1  0  0  0
 41111  1  0  0  0
 41112  1  0  0  0
 41 48  1  0  0  0
 42 43  1  0  0  0
 42 66  1  0  0  0
 42113  1  0  0  0
 42114  1  0  0  0
 43 44  1  0  0  0
 44115  1  0  0  0
 45 46  2  0  0  0
 45116  1  0  0  0
 46117  1  0  0  0
 47118  1  0  0  0
 47119  1  0  0  0
 48 56  1  0  0  0
 48 65  1  0  0  0
 48120  1  0  0  0
 49 50  1  0  0  0
 49 53  1  0  0  0
 49 64  1  0  0  0
 49121  1  0  0  0
 50 51  1  0  0  0
 50122  1  0  0  0
 50123  1  0  0  0
 51 52  1  0  0  0
 51124  1  0  0  0
 51125  1  0  0  0
 52126  1  0  0  0
 52127  1  0  0  0
 53 54  1  0  0  0
 54 55  2  0  0  0
 54128  1  0  0  0
 55 57  1  0  0  0
 55129  1  0  0  0
 56 69  2  0  0  0
 57 58  2  0  0  0
 57130  1  0  0  0
 58131  1  0  0  0
 59 60  1  0  0  0
 59 61  1  0  0  0
 59 62  1  0  0  0
 60132  1  0  0  0
 60133  1  0  0  0
 60134  1  0  0  0
 61135  1  0  0  0
 61136  1  0  0  0
 61137  1  0  0  0
 62138  1  0  0  0
 62139  1  0  0  0
 62140  1  0  0  0
 63 65  1  0  0  0
 63141  1  0  0  0
 63142  1  0  0  0
 63143  1  0  0  0
 64144  1  0  0  0
 65145  1  0  0  0
 68 83  1  0  0  0
 71 73  2  0  0  0
 71 74  1  0  0  0
 71146  1  0  0  0
 72 73  1  0  0  0
 72 75  2  0  0  0
 72147  1  0  0  0
 73 78  1  0  0  0
 74 84  2  0  0  0
 74 85  1  0  0  0
 75 84  1  0  0  0
 75 86  1  0  0  0
 76 78  1  0  0  0
 76 79  1  0  0  0
 76148  1  0  0  0
 76149  1  0  0  0
 77 78  1  0  0  0
 77 80  1  0  0  0
 77150  1  0  0  0
 77151  1  0  0  0
 78152  1  0  0  0
 79 80  1  0  0  0
 79 81  1  0  0  0
 79153  1  0  0  0
 80 83  1  0  0  0
 80154  1  0  0  0
 81155  1  0  0  0
 81156  1  0  0  0
 81157  1  0  0  0
 82 86  1  0  0  0
 82158  1  0  0  0
 82159  1  0  0  0
 82160  1  0  0  0
 83161  1  0  0  0
 83162  1  0  0  0
 85163  1  0  0  0
 86164  1  0  0  0
M  ISO  4   1 100  68 101  83 101  85 100
M  END
> <chiral flag>
0

> <version>
0

> <s_m_source_file>
/data/baiqing/PycharmProjects/Reinvent-master-3.2/result/LINK_invent/BTK/process_docking_weight1_custom_sum_contain_oxygen_bond_distance_aromatic_linkinvent_7_9_3/rearranged_h_0147.sdf

> <i_m_source_file_index>
15

> <r_mmod_Potential_Energy-OPLS-2005>
32.133731842041

> <r_mmod_Stretch_Energy-OPLS-2005>
112.845314025879

> <r_mmod_Bend_Energy-OPLS-2005>
200.229354858398

> <r_mmod_Torsional_Energy-OPLS-2005>
282.963073730469

> <r_mmod_Improper_Torsional_Energy-OPLS-2005>
6.2212119102478

> <r_mmod_Van_der_Waal_Energy-OPLS-2005>
142.498474121094

> <r_mmod_Electrostatic_Energy-OPLS-2005>
-545.901000976562

> <r_mmod_Solvation_Energy-OPLS-2005>
-249.379440307617

> <b_mmod_Minimization_Converged-OPLS-2005>
0

> <r_mmod_RMS_Derivative-OPLS-2005>
4.1483359336853

$$$$
15
                    3D
 Structure written by MMmdl.
170180  0  0  1  0            999 V2000
  -30.6945  -14.4643   20.6163 C   0  0  0  0  0  0
  -30.4346  -12.3225   19.4028 C   0  0  0  0  0  0
  -29.4943  -12.5227   18.1958 C   0  0  0  0  0  0
  -28.0161  -12.3732   18.6106 C   0  0  0  0  0  0
  -27.6650  -13.2011   19.8756 C   0  0  2  0  0  0
  -28.7076  -12.9527   20.9877 C   0  0  0  0  0  0
  -25.2610  -13.8142   20.5658 C   0  0  0  0  0  0
  -24.1849  -13.0434   20.9156 C   0  0  0  0  0  0
  -24.6395  -11.6897   20.8720 C   0  0  0  0  0  0
  -23.9057  -10.4291   21.0401 C   0  0  0  0  0  0
  -24.3610   -9.4208   21.9180 C   0  0  0  0  0  0
  -23.6285   -8.2244   22.0759 C   0  0  0  0  0  0
  -22.4269   -8.0281   21.3548 C   0  0  0  0  0  0
  -21.9901   -9.0252   20.4647 C   0  0  0  0  0  0
  -22.7229  -10.2131   20.3051 C   0  0  0  0  0  0
  -21.6851   -6.0734   22.5277 C   0  0  0  0  0  0
  -21.4012   -6.5638   23.8211 C   0  0  0  0  0  0
  -21.3660   -5.6791   24.9172 C   0  0  0  0  0  0
  -21.6043   -4.3056   24.7224 C   0  0  0  0  0  0
  -21.8820   -3.8147   23.4347 C   0  0  0  0  0  0
  -21.9194   -4.6962   22.3402 C   0  0  0  0  0  0
  -22.7872  -13.5244   21.1830 C   0  0  0  0  0  0
  -22.1661   -4.2147   21.0979 F   0  0  0  0  0  0
  -21.5632   -3.4540   25.7738 F   0  0  0  0  0  0
  -30.0389  -13.2837   20.4435 N   0  0  0  0  0  0
  -26.3045  -12.9299   20.3354 N   0  0  0  0  0  0
  -25.9319  -11.6470   20.5745 N   0  0  0  0  0  0
  -22.0507  -12.8238   22.0387 N   0  0  0  0  0  0
  -25.4355  -15.1857   20.4078 N   0  0  0  0  0  0
  -31.7971  -14.6975   20.1137 O   0  0  0  0  0  0
  -21.6638   -6.8875   21.4240 O   0  0  0  0  0  0
  -22.3561  -14.5555   20.6686 O   0  0  0  0  0  0
  -24.6143  -31.8674   23.2092 C   0  0  0  0  0  0
  -25.9037  -32.4817   23.8393 C   0  0  1  0  0  0
  -27.2381  -27.4396   20.1025 C   0  0  0  0  0  0
  -25.5888  -33.8616   24.2327 N   0  0  0  0  0  0
  -23.4025  -30.4891   21.5498 C   0  0  2  0  0  0
  -24.8502  -28.9498   20.1188 C   0  0  0  0  0  0
  -22.7406  -29.4658   22.5003 C   0  0  0  0  0  0
  -18.0263  -28.1368   22.8501 C   0  0  0  0  0  0
  -24.1481  -36.7319   23.2637 C   0  0  0  0  0  0
  -25.9286  -30.8356   21.3587 C   0  0  0  0  0  0
  -26.0091  -29.4687   20.7098 C   0  0  0  0  0  0
  -27.2090  -28.7216   20.6953 C   0  0  0  0  0  0
  -26.0643  -26.9268   19.5136 C   0  0  0  0  0  0
  -24.8716  -27.6779   19.5177 C   0  0  0  0  0  0
  -23.6110  -29.8160   20.1663 C   0  0  0  0  0  0
  -25.4104  -36.3114   24.0338 C   0  0  1  0  0  0
  -20.5857  -28.3663   23.1322 C   0  0  2  0  0  0
  -20.6760  -26.9403   22.5418 C   0  0  0  0  0  0
  -19.5740  -26.6386   21.5211 C   0  0  0  0  0  0
  -18.1915  -26.7917   22.1620 C   0  0  0  0  0  0
  -19.1515  -28.8832   23.2908 C   0  0  0  0  0  0
  -18.9445  -30.1436   23.8924 C   0  0  0  0  0  0
  -17.6452  -30.6585   24.0565 C   0  0  0  0  0  0
  -25.9035  -34.9477   23.5139 C   0  0  0  0  0  0
  -16.5343  -29.9088   23.6327 C   0  0  0  0  0  0
  -16.7253  -28.6498   23.0362 C   0  0  0  0  0  0
  -26.4469  -31.6593   25.0721 C   0  0  0  0  0  0
  -25.3735  -31.3669   26.1471 C   0  0  0  0  0  0
  -27.0306  -30.3047   24.6077 C   0  0  0  0  0  0
  -27.6060  -32.4299   25.7477 C   0  0  0  0  0  0
  -27.5577  -37.1809   24.8466 C   0  0  0  0  0  0
  -21.4136  -29.3035   22.3736 N   0  0  0  0  0  0
  -26.4287  -37.3803   23.9417 N   0  0  0  0  0  0
  -24.6668  -31.0778   22.0987 N   0  0  0  0  0  0
  -23.4174  -28.8208   23.3055 O   0  0  0  0  0  0
  -28.4044  -26.7104   20.0781 O   0  0  0  0  0  0
  -26.5603  -34.8926   22.4699 O   0  0  0  0  0  0
  -23.5339  -32.1424   23.7496 O   0  0  0  0  0  0
  -29.0227  -21.5621   18.9030 C   0  0  0  0  0  0
  -30.2303  -21.0442   20.9305 C   0  0  0  0  0  0
  -30.3399  -19.4801   19.0475 C   0  0  0  0  0  0
  -29.4465  -20.3382   18.3435 C   0  0  0  0  0  0
  -30.6883  -19.8129   20.3904 C   0  0  0  0  0  0
  -29.4332  -21.9478   20.1953 C   0  0  0  0  0  0
  -32.4292  -18.0991   18.1904 C   0  0  0  0  0  0
  -31.5851  -18.3808   16.9824 C   0  0  0  0  0  0
  -31.4589  -16.9359   22.6340 C   0  0  0  0  0  0
  -30.9286  -18.2725   18.3488 C   0  0  0  0  0  0
  -30.2903  -16.7425   21.6933 C   0  0  1  0  0  0
  -31.5093  -17.5494   21.2564 C   0  0  1  0  0  0
  -28.9143  -19.9843   16.9630 C   0  0  0  0  0  0
  -32.7306  -19.6921   21.6899 C   0  0  0  0  0  0
  -28.3879  -25.4885   20.8322 C   0  0  0  0  0  0
  -28.5852  -24.2184   19.9713 C   0  0  0  0  0  0
  -29.9931  -15.3826   21.3092 N   0  0  0  0  0  0
  -31.5279  -19.0169   21.2093 N   0  0  0  0  0  0
  -29.0850  -23.1496   20.7903 O   0  0  0  0  0  0
  -31.4749  -12.4462   19.0971 H   0  0  0  0  0  0
  -30.3570  -11.3043   19.7860 H   0  0  0  0  0  0
  -29.7364  -11.8074   17.4087 H   0  0  0  0  0  0
  -29.6543  -13.5133   17.7665 H   0  0  0  0  0  0
  -27.8282  -11.3152   18.7973 H   0  0  0  0  0  0
  -27.3628  -12.6559   17.7838 H   0  0  0  0  0  0
  -27.7174  -14.2529   19.5941 H   0  0  0  0  0  0
  -28.6918  -11.9043   21.2900 H   0  0  0  0  0  0
  -28.4567  -13.5083   21.8919 H   0  0  0  0  0  0
  -25.2757   -9.5687   22.4749 H   0  0  0  0  0  0
  -23.9998   -7.4642   22.7480 H   0  0  0  0  0  0
  -21.0832   -8.8769   19.8955 H   0  0  0  0  0  0
  -22.3691  -10.9667   19.6156 H   0  0  0  0  0  0
  -21.2006   -7.6147   23.9711 H   0  0  0  0  0  0
  -21.1476   -6.0523   25.9074 H   0  0  0  0  0  0
  -22.0602   -2.7609   23.2848 H   0  0  0  0  0  0
  -22.4112  -11.9888   22.4761 H   0  0  0  0  0  0
  -21.1127  -13.1272   22.2598 H   0  0  0  0  0  0
  -24.6724  -15.8450   20.5163 H   0  0  0  0  0  0
  -26.2934  -15.6231   20.0946 H   0  0  0  0  0  0
  -26.7113  -32.5544   23.1164 H   0  0  0  0  0  0
  -25.0038  -33.9778   25.0468 H   0  0  0  0  0  0
  -22.6920  -31.3061   21.4090 H   0  0  0  0  0  0
  -23.3736  -35.9656   23.3309 H   0  0  0  0  0  0
  -24.3574  -36.8928   22.2052 H   0  0  0  0  0  0
  -23.7241  -37.6526   23.6651 H   0  0  0  0  0  0
  -26.0340  -31.5972   20.5848 H   0  0  0  0  0  0
  -26.8188  -30.8957   21.9733 H   0  0  0  0  0  0
  -28.1075  -29.1199   21.1468 H   0  0  0  0  0  0
  -26.0731  -25.9517   19.0484 H   0  0  0  0  0  0
  -23.9796  -27.2717   19.0612 H   0  0  0  0  0  0
  -23.7163  -30.5886   19.4036 H   0  0  0  0  0  0
  -22.7353  -29.2330   19.8753 H   0  0  0  0  0  0
  -25.1271  -36.1977   25.0833 H   0  0  0  0  0  0
  -20.9946  -28.3218   24.1441 H   0  0  0  0  0  0
  -20.5662  -26.2273   23.3600 H   0  0  0  0  0  0
  -21.6632  -26.7444   22.1210 H   0  0  0  0  0  0
  -19.6910  -25.6301   21.1226 H   0  0  0  0  0  0
  -19.6677  -27.3209   20.6749 H   0  0  0  0  0  0
  -17.4192  -26.6675   21.4016 H   0  0  0  0  0  0
  -18.0315  -26.0035   22.8998 H   0  0  0  0  0  0
  -19.7924  -30.7236   24.2315 H   0  0  0  0  0  0
  -17.5011  -31.6274   24.5149 H   0  0  0  0  0  0
  -15.5349  -30.3002   23.7640 H   0  0  0  0  0  0
  -15.8651  -28.0823   22.7083 H   0  0  0  0  0  0
  -24.5931  -30.6993   25.7797 H   0  0  0  0  0  0
  -24.8892  -32.2805   26.4934 H   0  0  0  0  0  0
  -25.8095  -30.8834   27.0222 H   0  0  0  0  0  0
  -26.2847  -29.6796   24.1156 H   0  0  0  0  0  0
  -27.4124  -29.7295   25.4518 H   0  0  0  0  0  0
  -27.8651  -30.4386   23.9189 H   0  0  0  0  0  0
  -27.2712  -33.3606   26.2071 H   0  0  0  0  0  0
  -28.3861  -32.6843   25.0287 H   0  0  0  0  0  0
  -28.0734  -31.8401   26.5373 H   0  0  0  0  0  0
  -28.2596  -38.0105   24.7526 H   0  0  0  0  0  0
  -28.1075  -36.2643   24.6274 H   0  0  0  0  0  0
  -27.2305  -37.1439   25.8870 H   0  0  0  0  0  0
  -20.9301  -29.8748   21.6946 H   0  0  0  0  0  0
  -26.0174  -38.2882   24.1411 H   0  0  0  0  0  0
  -28.3755  -22.1988   18.3177 H   0  0  0  0  0  0
  -30.5112  -21.3220   21.9364 H   0  0  0  0  0  0
  -33.0755  -18.8999   18.5455 H   0  0  0  0  0  0
  -32.8386  -17.0941   18.2788 H   0  0  0  0  0  0
  -31.4464  -17.5610   16.2811 H   0  0  0  0  0  0
  -31.7079  -19.3643   16.5332 H   0  0  0  0  0  0
  -32.1208  -16.0926   22.8205 H   0  0  0  0  0  0
  -31.2996  -17.5910   23.4889 H   0  0  0  0  0  0
  -30.3379  -17.3817   18.5550 H   0  0  0  0  0  0
  -29.4062  -17.3391   21.9135 H   0  0  0  0  0  0
  -32.2356  -17.1144   20.5759 H   0  0  0  0  0  0
  -27.9365  -20.4378   16.7960 H   0  0  0  0  0  0
  -28.7869  -18.9083   16.8411 H   0  0  0  0  0  0
  -29.5837  -20.3489   16.1840 H   0  0  0  0  0  0
  -33.1594  -20.3313   20.9169 H   0  0  0  0  0  0
  -33.4951  -18.9724   21.9864 H   0  0  0  0  0  0
  -32.5073  -20.3110   22.5597 H   0  0  0  0  0  0
  -29.2217  -25.5624   21.5310 H   0  0  0  0  0  0
  -27.4945  -25.3871   21.4521 H   0  0  0  0  0  0
  -29.3103  -24.4226   19.1814 H   0  0  0  0  0  0
  -27.6406  -23.9466   19.4990 H   0  0  0  0  0  0
  -29.0964  -15.0461   21.6266 H   0  0  0  0  0  0
  1 25  1  0  0  0
  1 30  2  0  0  0
  1 87  1  0  0  0
  2  3  1  0  0  0
  2 25  1  0  0  0
  2 90  1  0  0  0
  2 91  1  0  0  0
  3  4  1  0  0  0
  3 92  1  0  0  0
  3 93  1  0  0  0
  4  5  1  0  0  0
  4 94  1  0  0  0
  4 95  1  0  0  0
  5  6  1  0  0  0
  5 26  1  0  0  0
  5 96  1  0  0  0
  6 25  1  0  0  0
  6 97  1  0  0  0
  6 98  1  0  0  0
  7  8  2  0  0  0
  7 26  1  0  0  0
  7 29  1  0  0  0
  8  9  1  0  0  0
  8 22  1  0  0  0
  9 10  1  0  0  0
  9 27  2  0  0  0
 10 11  2  0  0  0
 10 15  1  0  0  0
 11 12  1  0  0  0
 11 99  1  0  0  0
 12 13  2  0  0  0
 12100  1  0  0  0
 13 14  1  0  0  0
 13 31  1  0  0  0
 14 15  2  0  0  0
 14101  1  0  0  0
 15102  1  0  0  0
 16 17  2  0  0  0
 16 21  1  0  0  0
 16 31  1  0  0  0
 17 18  1  0  0  0
 17103  1  0  0  0
 18 19  2  0  0  0
 18104  1  0  0  0
 19 20  1  0  0  0
 19 24  1  0  0  0
 20 21  2  0  0  0
 20105  1  0  0  0
 21 23  1  0  0  0
 22 28  1  0  0  0
 22 32  2  0  0  0
 26 27  1  0  0  0
 28106  1  0  0  0
 28107  1  0  0  0
 29108  1  0  0  0
 29109  1  0  0  0
 33 34  1  0  0  0
 33 66  1  0  0  0
 33 70  2  0  0  0
 34 36  1  0  0  0
 34 59  1  0  0  0
 34110  1  0  0  0
 35 44  2  0  0  0
 35 45  1  0  0  0
 35 68  1  0  0  0
 36 56  1  0  0  0
 36111  1  0  0  0
 37 39  1  0  0  0
 37 47  1  0  0  0
 37 66  1  0  0  0
 37112  1  0  0  0
 38 43  2  0  0  0
 38 46  1  0  0  0
 38 47  1  0  0  0
 39 64  1  0  0  0
 39 67  2  0  0  0
 40 52  1  0  0  0
 40 53  2  0  0  0
 40 58  1  0  0  0
 41113  1  0  0  0
 41114  1  0  0  0
 41115  1  0  0  0
 41 48  1  0  0  0
 42 43  1  0  0  0
 42 66  1  0  0  0
 42116  1  0  0  0
 42117  1  0  0  0
 43 44  1  0  0  0
 44118  1  0  0  0
 45 46  2  0  0  0
 45119  1  0  0  0
 46120  1  0  0  0
 47121  1  0  0  0
 47122  1  0  0  0
 48 56  1  0  0  0
 48 65  1  0  0  0
 48123  1  0  0  0
 49 50  1  0  0  0
 49 53  1  0  0  0
 49 64  1  0  0  0
 49124  1  0  0  0
 50 51  1  0  0  0
 50125  1  0  0  0
 50126  1  0  0  0
 51 52  1  0  0  0
 51127  1  0  0  0
 51128  1  0  0  0
 52129  1  0  0  0
 52130  1  0  0  0
 53 54  1  0  0  0
 54 55  2  0  0  0
 54131  1  0  0  0
 55 57  1  0  0  0
 55132  1  0  0  0
 56 69  2  0  0  0
 57 58  2  0  0  0
 57133  1  0  0  0
 58134  1  0  0  0
 59 60  1  0  0  0
 59 61  1  0  0  0
 59 62  1  0  0  0
 60135  1  0  0  0
 60136  1  0  0  0
 60137  1  0  0  0
 61138  1  0  0  0
 61139  1  0  0  0
 61140  1  0  0  0
 62141  1  0  0  0
 62142  1  0  0  0
 62143  1  0  0  0
 63 65  1  0  0  0
 63144  1  0  0  0
 63145  1  0  0  0
 63146  1  0  0  0
 64147  1  0  0  0
 65148  1  0  0  0
 68 85  1  0  0  0
 71 74  2  0  0  0
 71 76  1  0  0  0
 71149  1  0  0  0
 72 75  1  0  0  0
 72 76  2  0  0  0
 72150  1  0  0  0
 73 74  1  0  0  0
 73 75  2  0  0  0
 73 80  1  0  0  0
 74 83  1  0  0  0
 75 88  1  0  0  0
 76 89  1  0  0  0
 77 78  1  0  0  0
 77 80  1  0  0  0
 77151  1  0  0  0
 77152  1  0  0  0
 78 80  1  0  0  0
 78153  1  0  0  0
 78154  1  0  0  0
 79 81  1  0  0  0
 79 82  1  0  0  0
 79155  1  0  0  0
 79156  1  0  0  0
 80157  1  0  0  0
 81 82  1  0  0  0
 81 87  1  0  0  0
 81158  1  0  0  0
 82 88  1  0  0  0
 82159  1  0  0  0
 83160  1  0  0  0
 83161  1  0  0  0
 83162  1  0  0  0
 84 88  1  0  0  0
 84163  1  0  0  0
 84164  1  0  0  0
 84165  1  0  0  0
 85 86  1  0  0  0
 85166  1  0  0  0
 85167  1  0  0  0
 86 89  1  0  0  0
 86168  1  0  0  0
 86169  1  0  0  0
 87170  1  0  0  0
M  ISO  4   1 100  68 101  85 101  87 100
M  END
> <chiral flag>
0

> <version>
0

> <s_m_source_file>
/data/baiqing/PycharmProjects/Reinvent-master-3.2/result/LINK_invent/BTK/process_docking_weight1_custom_sum_contain_oxygen_bond_distance_aromatic_linkinvent_7_9_3/rearranged_h_0147.sdf

> <i_m_source_file_index>
16

> <r_mmod_Potential_Energy-OPLS-2005>
79.912483215332

> <r_mmod_Stretch_Energy-OPLS-2005>
41.5982208251953

> <r_mmod_Bend_Energy-OPLS-2005>
130.986663818359

> <r_mmod_Torsional_Energy-OPLS-2005>
343.469879150391

> <r_mmod_Improper_Torsional_Energy-OPLS-2005>
3.39548802375793

> <r_mmod_Van_der_Waal_Energy-OPLS-2005>
151.867828369141

> <r_mmod_Electrostatic_Energy-OPLS-2005>
-389.098052978516

> <r_mmod_Solvation_Energy-OPLS-2005>
-213.039291381836

> <b_mmod_Minimization_Converged-OPLS-2005>
0

> <r_mmod_RMS_Derivative-OPLS-2005>
1.2157895565033

$$$$
16
                    3D
 Structure written by MMmdl.
161170  0  0  1  0            999 V2000
  -30.6763  -14.6360   20.4944 C   0  0  0  0  0  0
  -30.4244  -12.3933   19.4592 C   0  0  0  0  0  0
  -29.5031  -12.5025   18.2261 C   0  0  0  0  0  0
  -28.0277  -12.3432   18.6397 C   0  0  0  0  0  0
  -27.6488  -13.2275   19.8581 C   0  0  2  0  0  0
  -28.6952  -13.1238   20.9909 C   0  0  0  0  0  0
  -25.2540  -13.8194   20.5700 C   0  0  0  0  0  0
  -24.1818  -13.0444   20.9202 C   0  0  0  0  0  0
  -24.6400  -11.6921   20.8745 C   0  0  0  0  0  0
  -23.9074  -10.4296   21.0404 C   0  0  0  0  0  0
  -24.3623   -9.4211   21.9184 C   0  0  0  0  0  0
  -23.6297   -8.2245   22.0753 C   0  0  0  0  0  0
  -22.4279   -8.0279   21.3541 C   0  0  0  0  0  0
  -21.9915   -9.0253   20.4644 C   0  0  0  0  0  0
  -22.7246  -10.2134   20.3054 C   0  0  0  0  0  0
  -21.6856   -6.0737   22.5279 C   0  0  0  0  0  0
  -21.4012   -6.5641   23.8212 C   0  0  0  0  0  0
  -21.3656   -5.6793   24.9173 C   0  0  0  0  0  0
  -21.6043   -4.3055   24.7224 C   0  0  0  0  0  0
  -21.8819   -3.8147   23.4345 C   0  0  0  0  0  0
  -21.9195   -4.6964   22.3402 C   0  0  0  0  0  0
  -22.7836  -13.5229   21.1857 C   0  0  0  0  0  0
  -22.1664   -4.2150   21.0978 F   0  0  0  0  0  0
  -21.5628   -3.4539   25.7737 F   0  0  0  0  0  0
  -30.0090  -13.4411   20.4149 N   0  0  0  0  0  0
  -26.2974  -12.9399   20.3322 N   0  0  0  0  0  0
  -25.9334  -11.6544   20.5766 N   0  0  0  0  0  0
  -22.0481  -12.8214   22.0408 N   0  0  0  0  0  0
  -25.4237  -15.1917   20.4104 N   0  0  0  0  0  0
  -31.8509  -14.7280   20.1327 O   0  0  0  0  0  0
  -21.6642   -6.8878   21.4240 O   0  0  0  0  0  0
  -22.3523  -14.5539   20.6710 O   0  0  0  0  0  0
  -24.6299  -31.8612   23.2085 C   0  0  0  0  0  0
  -25.9149  -32.4782   23.8396 C   0  0  1  0  0  0
  -27.2045  -27.2980   20.1009 C   0  0  0  0  0  0
  -25.5966  -33.8583   24.2316 N   0  0  0  0  0  0
  -23.4223  -30.4934   21.5523 C   0  0  2  0  0  0
  -24.8648  -28.9650   20.1067 C   0  0  0  0  0  0
  -22.7493  -29.4645   22.4930 C   0  0  0  0  0  0
  -18.0291  -28.1389   22.8485 C   0  0  0  0  0  0
  -24.1484  -36.7281   23.2633 C   0  0  0  0  0  0
  -25.9710  -30.7823   21.3894 C   0  0  0  0  0  0
  -26.0395  -29.4128   20.7249 C   0  0  0  0  0  0
  -27.2107  -28.5886   20.7246 C   0  0  0  0  0  0
  -26.0073  -26.9458   19.4206 C   0  0  0  0  0  0
  -24.8525  -27.7357   19.4464 C   0  0  0  0  0  0
  -23.6363  -29.8463   20.1628 C   0  0  0  0  0  0
  -25.4103  -36.3079   24.0337 C   0  0  1  0  0  0
  -20.5896  -28.3698   23.1266 C   0  0  2  0  0  0
  -20.6780  -26.9417   22.5398 C   0  0  0  0  0  0
  -19.5751  -26.6387   21.5206 C   0  0  0  0  0  0
  -18.1933  -26.7934   22.1623 C   0  0  0  0  0  0
  -19.1545  -28.8859   23.2873 C   0  0  0  0  0  0
  -18.9466  -30.1462   23.8891 C   0  0  0  0  0  0
  -17.6464  -30.6588   24.0566 C   0  0  0  0  0  0
  -25.9055  -34.9452   23.5118 C   0  0  0  0  0  0
  -16.5354  -29.9083   23.6340 C   0  0  0  0  0  0
  -16.7277  -28.6506   23.0354 C   0  0  0  0  0  0
  -26.4521  -31.6582   25.0761 C   0  0  0  0  0  0
  -25.3750  -31.3714   26.1482 C   0  0  0  0  0  0
  -27.0365  -30.3000   24.6232 C   0  0  0  0  0  0
  -27.6079  -32.4315   25.7532 C   0  0  0  0  0  0
  -27.5585  -37.1781   24.8453 C   0  0  0  0  0  0
  -21.4204  -29.3058   22.3664 N   0  0  0  0  0  0
  -26.4271  -37.3787   23.9438 N   0  0  0  0  0  0
  -24.6936  -31.0615   22.1058 N   0  0  0  0  0  0
  -23.4210  -28.8154   23.2992 O   0  0  0  0  0  0
  -28.2712  -26.3666   20.1820 O   0  0  0  0  0  0
  -26.5604  -34.8920   22.4672 O   0  0  0  0  0  0
  -23.5459  -32.1423   23.7399 O   0  0  0  0  0  0
  -30.2211  -22.0948   21.2185 C   0  0  0  0  0  0
  -29.7577  -23.4252   20.9605 C   0  0  0  0  0  0
  -28.6392  -23.6218   20.1103 C   0  0  0  0  0  0
  -28.0860  -22.4179   19.5669 C   0  0  0  0  0  0
  -29.5864  -20.9580   20.6456 C   0  0  0  0  0  0
  -31.0820  -17.7320   21.9600 C   0  0  0  0  0  0
  -31.0826  -19.2711   21.8113 C   0  0  0  0  0  0
  -29.4344  -18.3485   20.3374 C   0  0  0  0  0  0
  -30.4577  -17.1926   20.6633 C   0  0  2  0  0  0
  -30.4530  -24.6084   21.6045 C   0  0  0  0  0  0
  -26.8786  -22.4469   18.6424 C   0  0  0  0  0  0
  -27.9063  -24.9809   19.7772 C   0  0  0  0  0  0
  -28.5393  -21.1562   19.8218 N   0  0  0  0  0  0
  -29.9921  -19.6031   20.9031 N   0  0  0  0  0  0
  -29.9597  -15.7696   20.7791 N   0  0  0  0  0  0
  -31.4687  -12.4911   19.1580 H   0  0  0  0  0  0
  -30.3392  -11.4074   19.9188 H   0  0  0  0  0  0
  -29.7684  -11.7448   17.4874 H   0  0  0  0  0  0
  -29.6470  -13.4690   17.7399 H   0  0  0  0  0  0
  -27.8668  -11.2919   18.8813 H   0  0  0  0  0  0
  -27.3725  -12.5631   17.7959 H   0  0  0  0  0  0
  -27.6562  -14.2571   19.4993 H   0  0  0  0  0  0
  -28.7040  -12.1204   21.4183 H   0  0  0  0  0  0
  -28.4477  -13.8007   21.8099 H   0  0  0  0  0  0
  -25.2766   -9.5691   22.4762 H   0  0  0  0  0  0
  -24.0006   -7.4639   22.7473 H   0  0  0  0  0  0
  -21.0848   -8.8771   19.8948 H   0  0  0  0  0  0
  -22.3704  -10.9671   19.6160 H   0  0  0  0  0  0
  -21.1998   -7.6148   23.9715 H   0  0  0  0  0  0
  -21.1478   -6.0522   25.9078 H   0  0  0  0  0  0
  -22.0598   -2.7610   23.2844 H   0  0  0  0  0  0
  -22.4097  -11.9870   22.4790 H   0  0  0  0  0  0
  -21.1094  -13.1227   22.2608 H   0  0  0  0  0  0
  -24.6551  -15.8450   20.5144 H   0  0  0  0  0  0
  -26.2699  -15.6288   20.0689 H   0  0  0  0  0  0
  -26.7212  -32.5438   23.1135 H   0  0  0  0  0  0
  -25.0146  -33.9732   25.0484 H   0  0  0  0  0  0
  -22.7178  -31.3168   21.4175 H   0  0  0  0  0  0
  -23.3770  -35.9585   23.3250 H   0  0  0  0  0  0
  -24.3597  -36.8942   22.2059 H   0  0  0  0  0  0
  -23.7196  -37.6455   23.6674 H   0  0  0  0  0  0
  -26.1120  -31.5473   20.6245 H   0  0  0  0  0  0
  -26.8493  -30.8231   22.0218 H   0  0  0  0  0  0
  -28.1008  -28.9198   21.2414 H   0  0  0  0  0  0
  -25.8950  -26.0323   18.8583 H   0  0  0  0  0  0
  -23.9601  -27.3950   18.9392 H   0  0  0  0  0  0
  -23.7578  -30.6312   19.4154 H   0  0  0  0  0  0
  -22.7543  -29.2818   19.8538 H   0  0  0  0  0  0
  -25.1269  -36.1924   25.0826 H   0  0  0  0  0  0
  -20.9993  -28.3268   24.1385 H   0  0  0  0  0  0
  -20.5683  -26.2309   23.3601 H   0  0  0  0  0  0
  -21.6645  -26.7444   22.1182 H   0  0  0  0  0  0
  -19.6911  -25.6298   21.1236 H   0  0  0  0  0  0
  -19.6687  -27.3198   20.6737 H   0  0  0  0  0  0
  -17.4201  -26.6689   21.4025 H   0  0  0  0  0  0
  -18.0330  -26.0070   22.9013 H   0  0  0  0  0  0
  -19.7941  -30.7283   24.2252 H   0  0  0  0  0  0
  -17.5017  -31.6269   24.5162 H   0  0  0  0  0  0
  -15.5355  -30.2982   23.7672 H   0  0  0  0  0  0
  -15.8676  -28.0824   22.7069 H   0  0  0  0  0  0
  -24.5946  -30.7038   25.7812 H   0  0  0  0  0  0
  -24.8923  -32.2873   26.4897 H   0  0  0  0  0  0
  -25.8081  -30.8907   27.0263 H   0  0  0  0  0  0
  -26.2949  -29.6748   24.1246 H   0  0  0  0  0  0
  -27.4040  -29.7256   25.4746 H   0  0  0  0  0  0
  -27.8832  -30.4279   23.9485 H   0  0  0  0  0  0
  -27.2696  -33.3629   26.2084 H   0  0  0  0  0  0
  -28.3904  -32.6846   25.0365 H   0  0  0  0  0  0
  -28.0725  -31.8451   26.5469 H   0  0  0  0  0  0
  -28.2531  -38.0150   24.7606 H   0  0  0  0  0  0
  -28.1153  -36.2689   24.6130 H   0  0  0  0  0  0
  -27.2330  -37.1240   25.8858 H   0  0  0  0  0  0
  -20.9378  -29.8808   21.6900 H   0  0  0  0  0  0
  -26.0144  -38.2843   24.1510 H   0  0  0  0  0  0
  -31.0689  -21.9599   21.8753 H   0  0  0  0  0  0
  -30.4585  -17.4562   22.8118 H   0  0  0  0  0  0
  -32.0811  -17.3359   22.1457 H   0  0  0  0  0  0
  -32.0212  -19.6129   21.3732 H   0  0  0  0  0  0
  -30.9647  -19.7625   22.7780 H   0  0  0  0  0  0
  -28.4678  -18.1588   20.8054 H   0  0  0  0  0  0
  -29.2688  -18.4440   19.2634 H   0  0  0  0  0  0
  -31.2253  -17.2276   19.8871 H   0  0  0  0  0  0
  -31.2893  -24.2908   22.2271 H   0  0  0  0  0  0
  -29.7585  -25.1666   22.2326 H   0  0  0  0  0  0
  -30.8417  -25.2817   20.8402 H   0  0  0  0  0  0
  -27.0886  -23.0293   17.7455 H   0  0  0  0  0  0
  -26.0149  -22.8805   19.1460 H   0  0  0  0  0  0
  -26.5961  -21.4447   18.3180 H   0  0  0  0  0  0
  -26.9300  -24.7711   20.2160 H   0  0  0  0  0  0
  -27.8039  -25.0036   18.6919 H   0  0  0  0  0  0
  -28.9883  -15.6399   21.0182 H   0  0  0  0  0  0
  1 25  1  0  0  0
  1 30  2  0  0  0
  1 85  1  0  0  0
  2  3  1  0  0  0
  2 25  1  0  0  0
  2 86  1  0  0  0
  2 87  1  0  0  0
  3  4  1  0  0  0
  3 88  1  0  0  0
  3 89  1  0  0  0
  4  5  1  0  0  0
  4 90  1  0  0  0
  4 91  1  0  0  0
  5  6  1  0  0  0
  5 26  1  0  0  0
  5 92  1  0  0  0
  6 25  1  0  0  0
  6 93  1  0  0  0
  6 94  1  0  0  0
  7  8  2  0  0  0
  7 26  1  0  0  0
  7 29  1  0  0  0
  8  9  1  0  0  0
  8 22  1  0  0  0
  9 10  1  0  0  0
  9 27  2  0  0  0
 10 11  2  0  0  0
 10 15  1  0  0  0
 11 12  1  0  0  0
 11 95  1  0  0  0
 12 13  2  0  0  0
 12 96  1  0  0  0
 13 14  1  0  0  0
 13 31  1  0  0  0
 14 15  2  0  0  0
 14 97  1  0  0  0
 15 98  1  0  0  0
 16 17  2  0  0  0
 16 21  1  0  0  0
 16 31  1  0  0  0
 17 18  1  0  0  0
 17 99  1  0  0  0
 18 19  2  0  0  0
 18100  1  0  0  0
 19 20  1  0  0  0
 19 24  1  0  0  0
 20 21  2  0  0  0
 20101  1  0  0  0
 21 23  1  0  0  0
 22 28  1  0  0  0
 22 32  2  0  0  0
 26 27  1  0  0  0
 28102  1  0  0  0
 28103  1  0  0  0
 29104  1  0  0  0
 29105  1  0  0  0
 33 34  1  0  0  0
 33 66  1  0  0  0
 33 70  2  0  0  0
 34 36  1  0  0  0
 34 59  1  0  0  0
 34106  1  0  0  0
 35 44  2  0  0  0
 35 45  1  0  0  0
 35 68  1  0  0  0
 36 56  1  0  0  0
 36107  1  0  0  0
 37 39  1  0  0  0
 37 47  1  0  0  0
 37 66  1  0  0  0
 37108  1  0  0  0
 38 43  2  0  0  0
 38 46  1  0  0  0
 38 47  1  0  0  0
 39 64  1  0  0  0
 39 67  2  0  0  0
 40 52  1  0  0  0
 40 53  2  0  0  0
 40 58  1  0  0  0
 41109  1  0  0  0
 41110  1  0  0  0
 41111  1  0  0  0
 41 48  1  0  0  0
 42 43  1  0  0  0
 42 66  1  0  0  0
 42112  1  0  0  0
 42113  1  0  0  0
 43 44  1  0  0  0
 44114  1  0  0  0
 45 46  2  0  0  0
 45115  1  0  0  0
 46116  1  0  0  0
 47117  1  0  0  0
 47118  1  0  0  0
 48 56  1  0  0  0
 48 65  1  0  0  0
 48119  1  0  0  0
 49 50  1  0  0  0
 49 53  1  0  0  0
 49 64  1  0  0  0
 49120  1  0  0  0
 50 51  1  0  0  0
 50121  1  0  0  0
 50122  1  0  0  0
 51 52  1  0  0  0
 51123  1  0  0  0
 51124  1  0  0  0
 52125  1  0  0  0
 52126  1  0  0  0
 53 54  1  0  0  0
 54 55  2  0  0  0
 54127  1  0  0  0
 55 57  1  0  0  0
 55128  1  0  0  0
 56 69  2  0  0  0
 57 58  2  0  0  0
 57129  1  0  0  0
 58130  1  0  0  0
 59 60  1  0  0  0
 59 61  1  0  0  0
 59 62  1  0  0  0
 60131  1  0  0  0
 60132  1  0  0  0
 60133  1  0  0  0
 61134  1  0  0  0
 61135  1  0  0  0
 61136  1  0  0  0
 62137  1  0  0  0
 62138  1  0  0  0
 62139  1  0  0  0
 63 65  1  0  0  0
 63140  1  0  0  0
 63141  1  0  0  0
 63142  1  0  0  0
 64143  1  0  0  0
 65144  1  0  0  0
 68 82  1  0  0  0
 71 72  2  0  0  0
 71 75  1  0  0  0
 71145  1  0  0  0
 72 73  1  0  0  0
 72 80  1  0  0  0
 73 74  2  0  0  0
 73 82  1  0  0  0
 74 81  1  0  0  0
 74 83  1  0  0  0
 75 83  2  0  0  0
 75 84  1  0  0  0
 76 77  1  0  0  0
 76 79  1  0  0  0
 76146  1  0  0  0
 76147  1  0  0  0
 77 84  1  0  0  0
 77148  1  0  0  0
 77149  1  0  0  0
 78 79  1  0  0  0
 78 84  1  0  0  0
 78150  1  0  0  0
 78151  1  0  0  0
 79 85  1  0  0  0
 79152  1  0  0  0
 80153  1  0  0  0
 80154  1  0  0  0
 80155  1  0  0  0
 81156  1  0  0  0
 81157  1  0  0  0
 81158  1  0  0  0
 82159  1  0  0  0
 82160  1  0  0  0
 85161  1  0  0  0
M  ISO  4   1 100  68 101  82 101  85 100
M  END
> <chiral flag>
0

> <version>
0

> <s_m_source_file>
/data/baiqing/PycharmProjects/Reinvent-master-3.2/result/LINK_invent/BTK/process_docking_weight1_custom_sum_contain_oxygen_bond_distance_aromatic_linkinvent_7_9_3/rearranged_h_0147.sdf

> <i_m_source_file_index>
17

> <r_mmod_Potential_Energy-OPLS-2005>
-60.9796524047852

> <r_mmod_Stretch_Energy-OPLS-2005>
81.0315933227539

> <r_mmod_Bend_Energy-OPLS-2005>
207.423370361328

> <r_mmod_Torsional_Energy-OPLS-2005>
242.954040527344

> <r_mmod_Improper_Torsional_Energy-OPLS-2005>
4.86362171173096

> <r_mmod_Van_der_Waal_Energy-OPLS-2005>
161.034866333008

> <r_mmod_Electrostatic_Energy-OPLS-2005>
-577.382751464844

> <r_mmod_Solvation_Energy-OPLS-2005>
-243.05989074707

> <b_mmod_Minimization_Converged-OPLS-2005>
0

> <r_mmod_RMS_Derivative-OPLS-2005>
0.575429141521454

$$$$
17
                    3D
 Structure written by MMmdl.
172181  0  0  1  0            999 V2000
  -30.3702  -15.5815   20.3169 C   0  0  0  0  0  0
  -30.3981  -13.0355   19.5347 C   0  0  0  0  0  0
  -29.5230  -12.6499   18.3128 C   0  0  0  0  0  0
  -28.0965  -12.3091   18.7646 C   0  0  0  0  0  0
  -27.5882  -13.3154   19.8185 C   0  0  2  0  0  0
  -28.6091  -13.6564   20.9310 C   0  0  0  0  0  0
  -25.2304  -13.8332   20.5896 C   0  0  0  0  0  0
  -24.1691  -13.0460   20.9356 C   0  0  0  0  0  0
  -24.6390  -11.6958   20.8787 C   0  0  0  0  0  0
  -23.9078  -10.4310   21.0421 C   0  0  0  0  0  0
  -24.3632   -9.4223   21.9206 C   0  0  0  0  0  0
  -23.6324   -8.2238   22.0742 C   0  0  0  0  0  0
  -22.4306   -8.0270   21.3533 C   0  0  0  0  0  0
  -21.9941   -9.0240   20.4640 C   0  0  0  0  0  0
  -22.7244  -10.2140   20.3063 C   0  0  0  0  0  0
  -21.6887   -6.0730   22.5262 C   0  0  0  0  0  0
  -21.4032   -6.5642   23.8184 C   0  0  0  0  0  0
  -21.3664   -5.6805   24.9150 C   0  0  0  0  0  0
  -21.6049   -4.3068   24.7223 C   0  0  0  0  0  0
  -21.8800   -3.8143   23.4348 C   0  0  0  0  0  0
  -21.9191   -4.6948   22.3393 C   0  0  0  0  0  0
  -22.7696  -13.5181   21.1994 C   0  0  0  0  0  0
  -22.1666   -4.2140   21.0970 F   0  0  0  0  0  0
  -21.5624   -3.4540   25.7729 F   0  0  0  0  0  0
  -29.7895  -14.2426   20.2555 N   0  0  0  0  0  0
  -26.2747  -12.9670   20.3388 N   0  0  0  0  0  0
  -25.9332  -11.6720   20.5774 N   0  0  0  0  0  0
  -22.0402  -12.8110   22.0538 N   0  0  0  0  0  0
  -25.3944  -15.2062   20.4313 N   0  0  0  0  0  0
  -31.5942  -15.4557   20.1212 O   0  0  0  0  0  0
  -21.6655   -6.8880   21.4226 O   0  0  0  0  0  0
  -22.3377  -14.5491   20.6871 O   0  0  0  0  0  0
  -24.6854  -31.8024   23.1517 C   0  0  0  0  0  0
  -25.9445  -32.4477   23.8095 C   0  0  1  0  0  0
  -27.2368  -26.7265   20.1823 C   0  0  0  0  0  0
  -25.6016  -33.8296   24.1936 N   0  0  0  0  0  0
  -23.5087  -30.4111   21.5068 C   0  0  2  0  0  0
  -24.9724  -28.7643   20.1221 C   0  0  0  0  0  0
  -22.7770  -29.4333   22.4680 C   0  0  0  0  0  0
  -18.0343  -28.1397   22.8442 C   0  0  0  0  0  0
  -24.1504  -36.7159   23.2644 C   0  0  0  0  0  0
  -26.0993  -30.5492   21.4135 C   0  0  0  0  0  0
  -26.1729  -29.1169   20.7548 C   0  0  0  0  0  0
  -27.2990  -28.1297   20.7539 C   0  0  0  0  0  0
  -25.9839  -26.5828   19.5379 C   0  0  0  0  0  0
  -24.9131  -27.5130   19.4972 C   0  0  0  0  0  0
  -23.7633  -29.7144   20.1418 C   0  0  0  0  0  0
  -25.4161  -36.2888   24.0258 C   0  0  1  0  0  0
  -20.5975  -28.3785   23.1086 C   0  0  2  0  0  0
  -20.6816  -26.9438   22.5385 C   0  0  0  0  0  0
  -19.5800  -26.6343   21.5199 C   0  0  0  0  0  0
  -18.1959  -26.7932   22.1588 C   0  0  0  0  0  0
  -19.1602  -28.8922   23.2747 C   0  0  0  0  0  0
  -18.9516  -30.1502   23.8804 C   0  0  0  0  0  0
  -17.6501  -30.6584   24.0532 C   0  0  0  0  0  0
  -25.9148  -34.9281   23.4932 C   0  0  0  0  0  0
  -16.5394  -29.9063   23.6344 C   0  0  0  0  0  0
  -16.7318  -28.6471   23.0386 C   0  0  0  0  0  0
  -26.4595  -31.6530   25.0729 C   0  0  0  0  0  0
  -25.3605  -31.3935   26.1310 C   0  0  0  0  0  0
  -27.0510  -30.2835   24.6680 C   0  0  0  0  0  0
  -27.6006  -32.4414   25.7577 C   0  0  0  0  0  0
  -27.5577  -37.1749   24.8451 C   0  0  0  0  0  0
  -21.4423  -29.3043   22.3417 N   0  0  0  0  0  0
  -26.4278  -37.3647   23.9396 N   0  0  0  0  0  0
  -24.7889  -30.9518   22.0750 N   0  0  0  0  0  0
  -23.4242  -28.7893   23.2962 O   0  0  0  0  0  0
  -28.0562  -25.3609   20.1988 O   0  0  0  0  0  0
  -26.5772  -34.8845   22.4544 O   0  0  0  0  0  0
  -23.5869  -32.1062   23.6487 O   0  0  0  0  0  0
  -28.2255  -23.5299   18.6370 C   0  0  0  0  0  0
  -30.2804  -18.2428   19.3903 C   0  0  0  0  0  0
  -28.8763  -17.9407   21.1676 C   0  0  0  0  0  0
  -28.7446  -25.3871   18.0980 C   0  0  0  0  0  0
  -29.5554  -19.7953   19.1293 C   0  0  0  0  0  0
  -28.5916  -19.6877   21.2220 C   0  0  0  0  0  0
  -29.8467  -25.7063   21.4333 C   0  0  0  0  0  0
  -29.2302  -23.8012   21.6283 C   0  0  2  0  0  0
  -28.8731  -22.5663   20.1750 C   0  0  1  0  0  0
  -28.4938  -24.2179   24.0650 C   0  0  0  0  0  0
  -28.0792  -23.7450   22.6563 C   0  0  0  0  0  0
  -31.0446  -25.7399   19.1617 C   0  0  0  0  0  0
  -30.1414  -24.6920   19.5677 C   0  0  0  0  0  0
  -29.7405  -17.0107   20.2135 N   0  0  0  0  0  0
  -29.1836  -20.8045   20.2757 N   0  3  0  0  0  0
  -29.8038  -26.1648   19.5390 N   0  3  2  0  0  0
  -31.4096  -13.2386   19.1836 H   0  0  0  0  0  0
  -30.5041  -12.1864   20.2152 H   0  0  0  0  0  0
  -29.9559  -11.8108   17.7694 H   0  0  0  0  0  0
  -29.4861  -13.4854   17.6108 H   0  0  0  0  0  0
  -28.1156  -11.3111   19.1981 H   0  0  0  0  0  0
  -27.4153  -12.2632   17.9114 H   0  0  0  0  0  0
  -27.4464  -14.2358   19.2522 H   0  0  0  0  0  0
  -28.8592  -12.7883   21.5409 H   0  0  0  0  0  0
  -28.1918  -14.3968   21.6126 H   0  0  0  0  0  0
  -25.2769   -9.5681   22.4813 H   0  0  0  0  0  0
  -24.0014   -7.4621   22.7460 H   0  0  0  0  0  0
  -21.0872   -8.8754   19.8968 H   0  0  0  0  0  0
  -22.3701  -10.9664   19.6181 H   0  0  0  0  0  0
  -21.2038   -7.6154   23.9690 H   0  0  0  0  0  0
  -21.1530   -6.0546   25.9069 H   0  0  0  0  0  0
  -22.0587   -2.7603   23.2841 H   0  0  0  0  0  0
  -22.4081  -11.9729   22.4814 H   0  0  0  0  0  0
  -21.1022  -13.1041   22.2836 H   0  0  0  0  0  0
  -24.6262  -15.8624   20.5329 H   0  0  0  0  0  0
  -26.2368  -15.6357   20.0730 H   0  0  0  0  0  0
  -26.7536  -32.4940   23.0815 H   0  0  0  0  0  0
  -25.0111  -33.9372   25.0063 H   0  0  0  0  0  0
  -22.8319  -31.2458   21.3193 H   0  0  0  0  0  0
  -23.3772  -35.9479   23.3229 H   0  0  0  0  0  0
  -24.3563  -36.8909   22.2070 H   0  0  0  0  0  0
  -23.7267  -37.6313   23.6785 H   0  0  0  0  0  0
  -26.3086  -31.2814   20.6318 H   0  0  0  0  0  0
  -26.9467  -30.6133   22.0840 H   0  0  0  0  0  0
  -28.1964  -28.4168   21.2814 H   0  0  0  0  0  0
  -25.7888  -25.6214   19.0802 H   0  0  0  0  0  0
  -23.9975  -27.2122   19.0068 H   0  0  0  0  0  0
  -23.9294  -30.4781   19.3809 H   0  0  0  0  0  0
  -22.8722  -29.1717   19.8162 H   0  0  0  0  0  0
  -25.1381  -36.1632   25.0743 H   0  0  0  0  0  0
  -21.0078  -28.3446   24.1212 H   0  0  0  0  0  0
  -20.5625  -26.2441   23.3678 H   0  0  0  0  0  0
  -21.6682  -26.7346   22.1249 H   0  0  0  0  0  0
  -19.6965  -25.6227   21.1310 H   0  0  0  0  0  0
  -19.6744  -27.3083   20.6672 H   0  0  0  0  0  0
  -17.4253  -26.6662   21.3978 H   0  0  0  0  0  0
  -18.0351  -26.0087   22.8990 H   0  0  0  0  0  0
  -19.7993  -30.7320   24.2147 H   0  0  0  0  0  0
  -17.5053  -31.6262   24.5149 H   0  0  0  0  0  0
  -15.5386  -30.2934   23.7717 H   0  0  0  0  0  0
  -15.8709  -28.0730   22.7200 H   0  0  0  0  0  0
  -24.5814  -30.7244   25.7635 H   0  0  0  0  0  0
  -24.8765  -32.3201   26.4405 H   0  0  0  0  0  0
  -25.7716  -30.9338   27.0301 H   0  0  0  0  0  0
  -26.3243  -29.6449   24.1626 H   0  0  0  0  0  0
  -27.3845  -29.7293   25.5470 H   0  0  0  0  0  0
  -27.9266  -30.3904   24.0261 H   0  0  0  0  0  0
  -27.2506  -33.3791   26.1900 H   0  0  0  0  0  0
  -28.3970  -32.6854   25.0538 H   0  0  0  0  0  0
  -28.0490  -31.8718   26.5727 H   0  0  0  0  0  0
  -28.2536  -38.0095   24.7504 H   0  0  0  0  0  0
  -28.1128  -36.2615   24.6260 H   0  0  0  0  0  0
  -27.2290  -37.1364   25.8849 H   0  0  0  0  0  0
  -20.9700  -29.8745   21.6520 H   0  0  0  0  0  0
  -26.0087  -38.2685   24.1403 H   0  0  0  0  0  0
  -28.4229  -22.8964   17.7704 H   0  0  0  0  0  0
  -27.1382  -23.5205   18.7140 H   0  0  0  0  0  0
  -31.2946  -18.4112   19.7469 H   0  0  0  0  0  0
  -30.4388  -17.8302   18.3901 H   0  0  0  0  0  0
  -27.8762  -17.5053   21.0979 H   0  0  0  0  0  0
  -29.1900  -17.6628   22.1729 H   0  0  0  0  0  0
  -27.8832  -25.9935   17.8205 H   0  0  0  0  0  0
  -29.3118  -25.3640   17.1654 H   0  0  0  0  0  0
  -30.1902  -20.3425   18.4348 H   0  0  0  0  0  0
  -28.6415  -19.6153   18.5573 H   0  0  0  0  0  0
  -27.5100  -19.8232   21.1823 H   0  0  0  0  0  0
  -28.8480  -20.0157   22.2313 H   0  0  0  0  0  0
  -30.8438  -25.8291   21.8638 H   0  0  0  0  0  0
  -29.2260  -26.3789   22.0193 H   0  0  0  0  0  0
  -30.0597  -23.3164   22.1445 H   0  0  0  0  0  0
  -29.8831  -22.3860   19.8225 H   0  0  0  0  0  0
  -27.6516  -24.1696   24.7569 H   0  0  0  0  0  0
  -28.8307  -25.2525   24.0590 H   0  0  0  0  0  0
  -29.3004  -23.6124   24.4876 H   0  0  0  0  0  0
  -27.7117  -22.7214   22.7327 H   0  0  0  0  0  0
  -27.2369  -24.3483   22.3065 H   0  0  0  0  0  0
  -31.2580  -25.8758   18.1009 H   0  0  0  0  0  0
  -31.8490  -26.0259   19.8393 H   0  0  0  0  0  0
  -30.8877  -24.1355   20.1793 H   0  0  0  0  0  0
  -30.4071  -23.9937   18.7404 H   0  0  0  0  0  0
  -30.0992  -20.8893   20.6897 H   0  0  0  0  0  0
  -28.9809  -25.6532   19.8540 H   0  0  0  0  0  0
  1 25  1  0  0  0
  1 30  2  0  0  0
  1 84  1  0  0  0
  2  3  1  0  0  0
  2 25  1  0  0  0
  2 87  1  0  0  0
  2 88  1  0  0  0
  3  4  1  0  0  0
  3 89  1  0  0  0
  3 90  1  0  0  0
  4  5  1  0  0  0
  4 91  1  0  0  0
  4 92  1  0  0  0
  5  6  1  0  0  0
  5 26  1  0  0  0
  5 93  1  0  0  0
  6 25  1  0  0  0
  6 94  1  0  0  0
  6 95  1  0  0  0
  7  8  2  0  0  0
  7 26  1  0  0  0
  7 29  1  0  0  0
  8  9  1  0  0  0
  8 22  1  0  0  0
  9 10  1  0  0  0
  9 27  2  0  0  0
 10 11  2  0  0  0
 10 15  1  0  0  0
 11 12  1  0  0  0
 11 96  1  0  0  0
 12 13  2  0  0  0
 12 97  1  0  0  0
 13 14  1  0  0  0
 13 31  1  0  0  0
 14 15  2  0  0  0
 14 98  1  0  0  0
 15 99  1  0  0  0
 16 17  2  0  0  0
 16 21  1  0  0  0
 16 31  1  0  0  0
 17 18  1  0  0  0
 17100  1  0  0  0
 18 19  2  0  0  0
 18101  1  0  0  0
 19 20  1  0  0  0
 19 24  1  0  0  0
 20 21  2  0  0  0
 20102  1  0  0  0
 21 23  1  0  0  0
 22 28  1  0  0  0
 22 32  2  0  0  0
 26 27  1  0  0  0
 28103  1  0  0  0
 28104  1  0  0  0
 29105  1  0  0  0
 29106  1  0  0  0
 33 34  1  0  0  0
 33 66  1  0  0  0
 33 70  2  0  0  0
 34 36  1  0  0  0
 34 59  1  0  0  0
 34107  1  0  0  0
 35 44  2  0  0  0
 35 45  1  0  0  0
 35 68  1  0  0  0
 36 56  1  0  0  0
 36108  1  0  0  0
 37 39  1  0  0  0
 37 47  1  0  0  0
 37 66  1  0  0  0
 37109  1  0  0  0
 38 43  2  0  0  0
 38 46  1  0  0  0
 38 47  1  0  0  0
 39 64  1  0  0  0
 39 67  2  0  0  0
 40 52  1  0  0  0
 40 53  2  0  0  0
 40 58  1  0  0  0
 41110  1  0  0  0
 41111  1  0  0  0
 41112  1  0  0  0
 41 48  1  0  0  0
 42 43  1  0  0  0
 42 66  1  0  0  0
 42113  1  0  0  0
 42114  1  0  0  0
 43 44  1  0  0  0
 44115  1  0  0  0
 45 46  2  0  0  0
 45116  1  0  0  0
 46117  1  0  0  0
 47118  1  0  0  0
 47119  1  0  0  0
 48 56  1  0  0  0
 48 65  1  0  0  0
 48120  1  0  0  0
 49 50  1  0  0  0
 49 53  1  0  0  0
 49 64  1  0  0  0
 49121  1  0  0  0
 50 51  1  0  0  0
 50122  1  0  0  0
 50123  1  0  0  0
 51 52  1  0  0  0
 51124  1  0  0  0
 51125  1  0  0  0
 52126  1  0  0  0
 52127  1  0  0  0
 53 54  1  0  0  0
 54 55  2  0  0  0
 54128  1  0  0  0
 55 57  1  0  0  0
 55129  1  0  0  0
 56 69  2  0  0  0
 57 58  2  0  0  0
 57130  1  0  0  0
 58131  1  0  0  0
 59 60  1  0  0  0
 59 61  1  0  0  0
 59 62  1  0  0  0
 60132  1  0  0  0
 60133  1  0  0  0
 60134  1  0  0  0
 61135  1  0  0  0
 61136  1  0  0  0
 61137  1  0  0  0
 62138  1  0  0  0
 62139  1  0  0  0
 62140  1  0  0  0
 63 65  1  0  0  0
 63141  1  0  0  0
 63142  1  0  0  0
 63143  1  0  0  0
 64144  1  0  0  0
 65145  1  0  0  0
 68 83  1  0  0  0
 71 74  1  0  0  0
 71146  1  0  0  0
 71147  1  0  0  0
 71 79  1  0  0  0
 72 75  1  0  0  0
 72 84  1  0  0  0
 72148  1  0  0  0
 72149  1  0  0  0
 73 76  1  0  0  0
 73 84  1  0  0  0
 73150  1  0  0  0
 73151  1  0  0  0
 74 86  1  0  0  0
 74152  1  0  0  0
 74153  1  0  0  0
 75154  1  0  0  0
 75155  1  0  0  0
 75 85  1  0  0  0
 76 85  1  0  0  0
 76156  1  0  0  0
 76157  1  0  0  0
 77 78  1  0  0  0
 77 86  1  0  0  0
 77158  1  0  0  0
 77159  1  0  0  0
 78 79  1  0  0  0
 78 81  1  0  0  0
 78160  1  0  0  0
 79 85  1  0  0  0
 79161  1  0  0  0
 80 81  1  0  0  0
 80162  1  0  0  0
 80163  1  0  0  0
 80164  1  0  0  0
 81165  1  0  0  0
 81166  1  0  0  0
 82 83  1  0  0  0
 82167  1  0  0  0
 82168  1  0  0  0
 82 86  1  0  0  0
 83169  1  0  0  0
 83170  1  0  0  0
 85171  1  0  0  0
 86172  1  0  0  0
M  CHG  2  85   1  86   1
M  ISO  4   1 100  68 101  83 101  84 100
M  END
> <chiral flag>
0

> <version>
0

> <s_m_source_file>
/data/baiqing/PycharmProjects/Reinvent-master-3.2/result/LINK_invent/BTK/process_docking_weight1_custom_sum_contain_oxygen_bond_distance_aromatic_linkinvent_7_9_3/rearranged_h_0147.sdf

> <i_m_source_file_index>
18

> <r_mmod_Potential_Energy-OPLS-2005>
6584.71337890625

> <r_mmod_Stretch_Energy-OPLS-2005>
3317.79809570312

> <r_mmod_Bend_Energy-OPLS-2005>
1333.85607910156

> <r_mmod_Torsional_Energy-OPLS-2005>
542.719299316406

> <r_mmod_Improper_Torsional_Energy-OPLS-2005>
13.9845132827759

> <r_mmod_Van_der_Waal_Energy-OPLS-2005>
1296.95776367188

> <r_mmod_Electrostatic_Energy-OPLS-2005>
123.444068908691

> <r_mmod_Solvation_Energy-OPLS-2005>
-915.908752441406

> <b_mmod_Minimization_Converged-OPLS-2005>
0

> <r_mmod_RMS_Derivative-OPLS-2005>
7.68196392059326

$$$$
18
                    3D
 Structure written by MMmdl.
161170  0  0  1  0            999 V2000
  -30.6331  -14.8432   20.4475 C   0  0  0  0  0  0
  -30.4200  -12.5239   19.4877 C   0  0  0  0  0  0
  -29.5103  -12.5003   18.2428 C   0  0  0  0  0  0
  -28.0427  -12.2860   18.6560 C   0  0  0  0  0  0
  -27.6238  -13.2179   19.8226 C   0  0  2  0  0  0
  -28.6689  -13.2616   20.9617 C   0  0  0  0  0  0
  -25.2454  -13.8134   20.5628 C   0  0  0  0  0  0
  -24.1753  -13.0411   20.9197 C   0  0  0  0  0  0
  -24.6351  -11.6893   20.8761 C   0  0  0  0  0  0
  -23.9021  -10.4289   21.0432 C   0  0  0  0  0  0
  -24.3584   -9.4206   21.9217 C   0  0  0  0  0  0
  -23.6271   -8.2238   22.0759 C   0  0  0  0  0  0
  -22.4267   -8.0275   21.3539 C   0  0  0  0  0  0
  -21.9901   -9.0230   20.4634 C   0  0  0  0  0  0
  -22.7196  -10.2133   20.3062 C   0  0  0  0  0  0
  -21.6826   -6.0748   22.5295 C   0  0  0  0  0  0
  -21.3992   -6.5647   23.8233 C   0  0  0  0  0  0
  -21.3630   -5.6782   24.9191 C   0  0  0  0  0  0
  -21.6038   -4.3050   24.7222 C   0  0  0  0  0  0
  -21.8827   -3.8160   23.4336 C   0  0  0  0  0  0
  -21.9178   -4.6988   22.3411 C   0  0  0  0  0  0
  -22.7781  -13.5222   21.1822 C   0  0  0  0  0  0
  -22.1632   -4.2186   21.0976 F   0  0  0  0  0  0
  -21.5645   -3.4515   25.7722 F   0  0  0  0  0  0
  -29.9536  -13.6356   20.3606 N   0  0  0  0  0  0
  -26.2842  -12.9313   20.3153 N   0  0  0  0  0  0
  -25.9277  -11.6494   20.5743 N   0  0  0  0  0  0
  -22.0375  -12.8284   22.0395 N   0  0  0  0  0  0
  -25.4126  -15.1843   20.4015 N   0  0  0  0  0  0
  -31.8450  -14.8196   20.2050 O   0  0  0  0  0  0
  -21.6624   -6.8880   21.4249 O   0  0  0  0  0  0
  -22.3512  -14.5516   20.6616 O   0  0  0  0  0  0
  -24.6340  -31.8478   23.1912 C   0  0  0  0  0  0
  -25.9147  -32.4702   23.8289 C   0  0  1  0  0  0
  -27.2325  -27.2051   20.1678 C   0  0  0  0  0  0
  -25.5943  -33.8514   24.2222 N   0  0  0  0  0  0
  -23.4357  -30.4641   21.5326 C   0  0  2  0  0  0
  -24.8888  -28.8917   20.1168 C   0  0  0  0  0  0
  -22.7516  -29.4579   22.4885 C   0  0  0  0  0  0
  -18.0288  -28.1408   22.8483 C   0  0  0  0  0  0
  -24.1484  -36.7245   23.2642 C   0  0  0  0  0  0
  -25.9831  -30.7425   21.3836 C   0  0  0  0  0  0
  -26.0579  -29.3560   20.7357 C   0  0  0  0  0  0
  -27.2275  -28.5262   20.7455 C   0  0  0  0  0  0
  -26.0429  -26.8142   19.5173 C   0  0  0  0  0  0
  -24.8904  -27.6305   19.4942 C   0  0  0  0  0  0
  -23.6599  -29.7826   20.1549 C   0  0  0  0  0  0
  -25.4120  -36.3040   24.0321 C   0  0  1  0  0  0
  -20.5889  -28.3725   23.1242 C   0  0  2  0  0  0
  -20.6780  -26.9435   22.5415 C   0  0  0  0  0  0
  -19.5764  -26.6383   21.5222 C   0  0  0  0  0  0
  -18.1930  -26.7947   22.1622 C   0  0  0  0  0  0
  -19.1542  -28.8882   23.2858 C   0  0  0  0  0  0
  -18.9469  -30.1485   23.8879 C   0  0  0  0  0  0
  -17.6466  -30.6604   24.0564 C   0  0  0  0  0  0
  -25.9068  -34.9413   23.5076 C   0  0  0  0  0  0
  -16.5357  -29.9099   23.6350 C   0  0  0  0  0  0
  -16.7271  -28.6518   23.0359 C   0  0  0  0  0  0
  -26.4513  -31.6544   25.0699 C   0  0  0  0  0  0
  -25.3722  -31.3695   26.1403 C   0  0  0  0  0  0
  -27.0385  -30.2942   24.6264 C   0  0  0  0  0  0
  -27.6049  -32.4303   25.7488 C   0  0  0  0  0  0
  -27.5588  -37.1766   24.8450 C   0  0  0  0  0  0
  -21.4215  -29.3049   22.3613 N   0  0  0  0  0  0
  -26.4272  -37.3759   23.9425 N   0  0  0  0  0  0
  -24.7030  -31.0408   22.0904 N   0  0  0  0  0  0
  -23.4183  -28.8152   23.3040 O   0  0  0  0  0  0
  -28.3595  -26.3370   20.1583 O   0  0  0  0  0  0
  -26.5660  -34.8901   22.4661 O   0  0  0  0  0  0
  -23.5479  -32.1335   23.7169 O   0  0  0  0  0  0
  -29.3324  -24.0883   19.5415 C   0  0  0  0  0  0
  -29.4680  -22.6573   19.7321 C   0  0  0  0  0  0
  -28.6427  -21.9677   20.6753 C   0  0  0  0  0  0
  -27.7233  -22.8600   21.3352 C   0  0  0  0  0  0
  -28.3891  -24.8885   20.2544 C   0  0  0  0  0  0
  -30.6197  -18.7455   20.8171 C   0  0  0  0  0  0
  -28.2827  -18.1068   20.4879 C   0  0  0  0  0  0
  -30.7326  -17.2395   21.3865 C   0  0  0  0  0  0
  -28.8041  -16.6583   20.0442 C   0  0  0  0  0  0
  -29.2373  -19.3452   20.3533 C   0  0  0  0  0  0
  -26.7728  -22.2908   22.3746 C   0  0  0  0  0  0
  -31.4020  -22.5580   18.2989 C   0  0  0  0  0  0
  -27.5980  -24.2262   21.1445 N   0  0  0  0  0  0
  -30.0120  -16.0932   20.7181 N   0  0  0  0  0  0
  -28.6901  -20.5696   21.0573 O   0  0  0  0  0  0
  -30.4005  -21.8922   19.0599 O   0  0  0  0  0  0
  -31.4623  -12.6347   19.1831 H   0  0  0  0  0  0
  -30.3721  -11.5723   20.0199 H   0  0  0  0  0  0
  -29.8241  -11.7114   17.5582 H   0  0  0  0  0  0
  -29.6070  -13.4394   17.6972 H   0  0  0  0  0  0
  -27.9376  -11.2414   18.9503 H   0  0  0  0  0  0
  -27.3776  -12.4192   17.8006 H   0  0  0  0  0  0
  -27.5745  -14.1923   19.3525 H   0  0  0  0  0  0
  -28.7443  -12.2958   21.4641 H   0  0  0  0  0  0
  -28.3806  -13.9845   21.7277 H   0  0  0  0  0  0
  -25.2715   -9.5688   22.4813 H   0  0  0  0  0  0
  -23.9966   -7.4655   22.7502 H   0  0  0  0  0  0
  -21.0829   -8.8728   19.8952 H   0  0  0  0  0  0
  -22.3636  -10.9676   19.6182 H   0  0  0  0  0  0
  -21.1985   -7.6157   23.9747 H   0  0  0  0  0  0
  -21.1417   -6.0510   25.9085 H   0  0  0  0  0  0
  -22.0637   -2.7632   23.2830 H   0  0  0  0  0  0
  -22.3879  -11.9939   22.4845 H   0  0  0  0  0  0
  -21.1005  -13.1390   22.2516 H   0  0  0  0  0  0
  -24.6508  -15.8373   20.5453 H   0  0  0  0  0  0
  -26.2593  -15.6282   20.0728 H   0  0  0  0  0  0
  -26.7218  -32.5337   23.1029 H   0  0  0  0  0  0
  -25.0076  -33.9644   25.0356 H   0  0  0  0  0  0
  -22.7364  -31.2876   21.3733 H   0  0  0  0  0  0
  -23.3783  -35.9528   23.3229 H   0  0  0  0  0  0
  -24.3590  -36.8952   22.2073 H   0  0  0  0  0  0
  -23.7181  -37.6395   23.6723 H   0  0  0  0  0  0
  -26.1319  -31.4966   20.6095 H   0  0  0  0  0  0
  -26.8554  -30.7931   22.0236 H   0  0  0  0  0  0
  -28.1270  -28.8831   21.2294 H   0  0  0  0  0  0
  -26.0012  -25.8481   19.0362 H   0  0  0  0  0  0
  -24.0000  -27.2688   18.9977 H   0  0  0  0  0  0
  -23.7820  -30.5476   19.3869 H   0  0  0  0  0  0
  -22.7811  -29.2073   19.8595 H   0  0  0  0  0  0
  -25.1300  -36.1861   25.0808 H   0  0  0  0  0  0
  -20.9983  -28.3326   24.1359 H   0  0  0  0  0  0
  -20.5690  -26.2347   23.3630 H   0  0  0  0  0  0
  -21.6653  -26.7467   22.1185 H   0  0  0  0  0  0
  -19.6917  -25.6287   21.1281 H   0  0  0  0  0  0
  -19.6706  -27.3184   20.6745 H   0  0  0  0  0  0
  -17.4212  -26.6708   21.4009 H   0  0  0  0  0  0
  -18.0315  -26.0088   22.9005 H   0  0  0  0  0  0
  -19.7948  -30.7314   24.2223 H   0  0  0  0  0  0
  -17.5020  -31.6287   24.5164 H   0  0  0  0  0  0
  -15.5357  -30.2998   23.7690 H   0  0  0  0  0  0
  -15.8665  -28.0840   22.7083 H   0  0  0  0  0  0
  -24.5878  -30.7087   25.7700 H   0  0  0  0  0  0
  -24.8955  -32.2861   26.4881 H   0  0  0  0  0  0
  -25.8002  -30.8805   27.0154 H   0  0  0  0  0  0
  -26.2993  -29.6642   24.1299 H   0  0  0  0  0  0
  -27.4031  -29.7266   25.4836 H   0  0  0  0  0  0
  -27.8887  -30.4188   23.9551 H   0  0  0  0  0  0
  -27.2633  -33.3587   26.2077 H   0  0  0  0  0  0
  -28.3857  -32.6884   25.0320 H   0  0  0  0  0  0
  -28.0718  -31.8429   26.5400 H   0  0  0  0  0  0
  -28.2525  -38.0146   24.7616 H   0  0  0  0  0  0
  -28.1174  -36.2689   24.6120 H   0  0  0  0  0  0
  -27.2323  -37.1199   25.8850 H   0  0  0  0  0  0
  -20.9416  -29.8720   21.6756 H   0  0  0  0  0  0
  -26.0136  -38.2800   24.1518 H   0  0  0  0  0  0
  -29.9756  -24.6121   18.8527 H   0  0  0  0  0  0
  -31.2951  -18.8141   19.9643 H   0  0  0  0  0  0
  -31.0516  -19.4228   21.5548 H   0  0  0  0  0  0
  -27.9772  -18.0333   21.5323 H   0  0  0  0  0  0
  -27.3623  -18.3234   19.9443 H   0  0  0  0  0  0
  -30.3768  -17.2504   22.4185 H   0  0  0  0  0  0
  -31.7943  -17.0024   21.4656 H   0  0  0  0  0  0
  -28.9635  -16.6292   18.9637 H   0  0  0  0  0  0
  -27.9865  -15.9893   20.2619 H   0  0  0  0  0  0
  -29.3113  -19.5836   19.2915 H   0  0  0  0  0  0
  -26.1706  -21.5000   21.9232 H   0  0  0  0  0  0
  -26.0987  -23.0515   22.7826 H   0  0  0  0  0  0
  -27.3393  -21.8657   23.2051 H   0  0  0  0  0  0
  -32.1355  -21.8300   17.9505 H   0  0  0  0  0  0
  -31.9423  -23.2905   18.9006 H   0  0  0  0  0  0
  -30.9916  -23.0476   17.4145 H   0  0  0  0  0  0
  1 25  1  0  0  0
  1 30  2  0  0  0
  1 84  1  0  0  0
  2  3  1  0  0  0
  2 25  1  0  0  0
  2 87  1  0  0  0
  2 88  1  0  0  0
  3  4  1  0  0  0
  3 89  1  0  0  0
  3 90  1  0  0  0
  4  5  1  0  0  0
  4 91  1  0  0  0
  4 92  1  0  0  0
  5  6  1  0  0  0
  5 26  1  0  0  0
  5 93  1  0  0  0
  6 25  1  0  0  0
  6 94  1  0  0  0
  6 95  1  0  0  0
  7  8  2  0  0  0
  7 26  1  0  0  0
  7 29  1  0  0  0
  8  9  1  0  0  0
  8 22  1  0  0  0
  9 10  1  0  0  0
  9 27  2  0  0  0
 10 11  2  0  0  0
 10 15  1  0  0  0
 11 12  1  0  0  0
 11 96  1  0  0  0
 12 13  2  0  0  0
 12 97  1  0  0  0
 13 14  1  0  0  0
 13 31  1  0  0  0
 14 15  2  0  0  0
 14 98  1  0  0  0
 15 99  1  0  0  0
 16 17  2  0  0  0
 16 21  1  0  0  0
 16 31  1  0  0  0
 17 18  1  0  0  0
 17100  1  0  0  0
 18 19  2  0  0  0
 18101  1  0  0  0
 19 20  1  0  0  0
 19 24  1  0  0  0
 20 21  2  0  0  0
 20102  1  0  0  0
 21 23  1  0  0  0
 22 28  1  0  0  0
 22 32  2  0  0  0
 26 27  1  0  0  0
 28103  1  0  0  0
 28104  1  0  0  0
 29105  1  0  0  0
 29106  1  0  0  0
 33 34  1  0  0  0
 33 66  1  0  0  0
 33 70  2  0  0  0
 34 36  1  0  0  0
 34 59  1  0  0  0
 34107  1  0  0  0
 35 44  2  0  0  0
 35 45  1  0  0  0
 35 68  1  0  0  0
 36 56  1  0  0  0
 36108  1  0  0  0
 37 39  1  0  0  0
 37 47  1  0  0  0
 37 66  1  0  0  0
 37109  1  0  0  0
 38 43  2  0  0  0
 38 46  1  0  0  0
 38 47  1  0  0  0
 39 64  1  0  0  0
 39 67  2  0  0  0
 40 52  1  0  0  0
 40 53  2  0  0  0
 40 58  1  0  0  0
 41110  1  0  0  0
 41111  1  0  0  0
 41112  1  0  0  0
 41 48  1  0  0  0
 42 43  1  0  0  0
 42 66  1  0  0  0
 42113  1  0  0  0
 42114  1  0  0  0
 43 44  1  0  0  0
 44115  1  0  0  0
 45 46  2  0  0  0
 45116  1  0  0  0
 46117  1  0  0  0
 47118  1  0  0  0
 47119  1  0  0  0
 48 56  1  0  0  0
 48 65  1  0  0  0
 48120  1  0  0  0
 49 50  1  0  0  0
 49 53  1  0  0  0
 49 64  1  0  0  0
 49121  1  0  0  0
 50 51  1  0  0  0
 50122  1  0  0  0
 50123  1  0  0  0
 51 52  1  0  0  0
 51124  1  0  0  0
 51125  1  0  0  0
 52126  1  0  0  0
 52127  1  0  0  0
 53 54  1  0  0  0
 54 55  2  0  0  0
 54128  1  0  0  0
 55 57  1  0  0  0
 55129  1  0  0  0
 56 69  2  0  0  0
 57 58  2  0  0  0
 57130  1  0  0  0
 58131  1  0  0  0
 59 60  1  0  0  0
 59 61  1  0  0  0
 59 62  1  0  0  0
 60132  1  0  0  0
 60133  1  0  0  0
 60134  1  0  0  0
 61135  1  0  0  0
 61136  1  0  0  0
 61137  1  0  0  0
 62138  1  0  0  0
 62139  1  0  0  0
 62140  1  0  0  0
 63 65  1  0  0  0
 63141  1  0  0  0
 63142  1  0  0  0
 63143  1  0  0  0
 64144  1  0  0  0
 65145  1  0  0  0
 68 75  1  0  0  0
 71 72  2  0  0  0
 71 75  1  0  0  0
 71146  1  0  0  0
 72 73  1  0  0  0
 72 86  1  0  0  0
 73 74  2  0  0  0
 73 85  1  0  0  0
 74 81  1  0  0  0
 74 83  1  0  0  0
 75 83  2  0  0  0
 76 78  1  0  0  0
 76 80  1  0  0  0
 76147  1  0  0  0
 76148  1  0  0  0
 77 79  1  0  0  0
 77 80  1  0  0  0
 77149  1  0  0  0
 77150  1  0  0  0
 78 84  1  0  0  0
 78151  1  0  0  0
 78152  1  0  0  0
 79 84  1  0  0  0
 79153  1  0  0  0
 79154  1  0  0  0
 80 85  1  0  0  0
 80155  1  0  0  0
 81156  1  0  0  0
 81157  1  0  0  0
 81158  1  0  0  0
 82 86  1  0  0  0
 82159  1  0  0  0
 82160  1  0  0  0
 82161  1  0  0  0
M  ISO  4   1 100  68 101  75 101  84 100
M  END
> <chiral flag>
0

> <version>
0

> <s_m_source_file>
/data/baiqing/PycharmProjects/Reinvent-master-3.2/result/LINK_invent/BTK/process_docking_weight1_custom_sum_contain_oxygen_bond_distance_aromatic_linkinvent_7_9_3/rearranged_h_0147.sdf

> <i_m_source_file_index>
19

> <r_mmod_Potential_Energy-OPLS-2005>
380.344268798828

> <r_mmod_Stretch_Energy-OPLS-2005>
152.234405517578

> <r_mmod_Bend_Energy-OPLS-2005>
265.523010253906

> <r_mmod_Torsional_Energy-OPLS-2005>
337.346649169922

> <r_mmod_Improper_Torsional_Energy-OPLS-2005>
3.55556917190552

> <r_mmod_Van_der_Waal_Energy-OPLS-2005>
143.4658203125

> <r_mmod_Electrostatic_Energy-OPLS-2005>
-434.642181396484

> <r_mmod_Solvation_Energy-OPLS-2005>
-212.893020629883

> <b_mmod_Minimization_Converged-OPLS-2005>
0

> <r_mmod_RMS_Derivative-OPLS-2005>
3.90112781524658

$$$$
19
                    3D
 Structure written by MMmdl.
175184  0  0  1  0            999 V2000
  -30.6485  -14.6563   20.4880 C   0  0  0  0  0  0
  -30.4082  -12.3860   19.4999 C   0  0  0  0  0  0
  -29.5067  -12.4854   18.2523 C   0  0  0  0  0  0
  -28.0280  -12.3357   18.6494 C   0  0  0  0  0  0
  -27.6439  -13.2250   19.8630 C   0  0  2  0  0  0
  -28.6788  -13.1292   21.0087 C   0  0  0  0  0  0
  -25.2475  -13.8141   20.5562 C   0  0  0  0  0  0
  -24.1781  -13.0414   20.9140 C   0  0  0  0  0  0
  -24.6371  -11.6894   20.8737 C   0  0  0  0  0  0
  -23.9054  -10.4281   21.0389 C   0  0  0  0  0  0
  -24.3604   -9.4201   21.9173 C   0  0  0  0  0  0
  -23.6281   -8.2245   22.0769 C   0  0  0  0  0  0
  -22.4267   -8.0269   21.3547 C   0  0  0  0  0  0
  -21.9889   -9.0239   20.4650 C   0  0  0  0  0  0
  -22.7224  -10.2117   20.3042 C   0  0  0  0  0  0
  -21.6852   -6.0710   22.5275 C   0  0  0  0  0  0
  -21.4008   -6.5616   23.8202 C   0  0  0  0  0  0
  -21.3668   -5.6772   24.9165 C   0  0  0  0  0  0
  -21.6043   -4.3048   24.7224 C   0  0  0  0  0  0
  -21.8825   -3.8128   23.4356 C   0  0  0  0  0  0
  -21.9199   -4.6930   22.3405 C   0  0  0  0  0  0
  -22.7815  -13.5221   21.1806 C   0  0  0  0  0  0
  -22.1663   -4.2109   21.0986 F   0  0  0  0  0  0
  -21.5634   -3.4538   25.7751 F   0  0  0  0  0  0
  -29.9961  -13.4480   20.4493 N   0  0  0  0  0  0
  -26.2930  -12.9358   20.3304 N   0  0  0  0  0  0
  -25.9319  -11.6513   20.5831 N   0  0  0  0  0  0
  -22.0484  -12.8230   22.0381 N   0  0  0  0  0  0
  -25.4106  -15.1822   20.3779 N   0  0  0  0  0  0
  -31.7512  -14.7481   19.9485 O   0  0  0  0  0  0
  -21.6657   -6.8846   21.4232 O   0  0  0  0  0  0
  -22.3487  -14.5512   20.6639 O   0  0  0  0  0  0
  -24.6281  -31.8578   23.2000 C   0  0  0  0  0  0
  -25.9103  -32.4766   23.8360 C   0  0  1  0  0  0
  -27.2064  -27.2994   20.1510 C   0  0  0  0  0  0
  -25.5903  -33.8578   24.2264 N   0  0  0  0  0  0
  -23.4232  -30.4812   21.5409 C   0  0  2  0  0  0
  -24.8678  -28.9343   20.1073 C   0  0  0  0  0  0
  -22.7497  -29.4591   22.4902 C   0  0  0  0  0  0
  -18.0308  -28.1424   22.8459 C   0  0  0  0  0  0
  -24.1473  -36.7318   23.2636 C   0  0  0  0  0  0
  -25.9604  -30.7891   21.3650 C   0  0  0  0  0  0
  -26.0349  -29.4132   20.7176 C   0  0  0  0  0  0
  -27.2115  -28.6067   20.7254 C   0  0  0  0  0  0
  -26.0240  -26.8688   19.5199 C   0  0  0  0  0  0
  -24.8617  -27.6663   19.5015 C   0  0  0  0  0  0
  -23.6380  -29.8152   20.1543 C   0  0  0  0  0  0
  -25.4091  -36.3088   24.0311 C   0  0  1  0  0  0
  -20.5900  -28.3715   23.1299 C   0  0  2  0  0  0
  -20.6786  -26.9430   22.5431 C   0  0  0  0  0  0
  -19.5765  -26.6374   21.5247 C   0  0  0  0  0  0
  -18.1920  -26.7963   22.1601 C   0  0  0  0  0  0
  -19.1555  -28.8871   23.2878 C   0  0  0  0  0  0
  -18.9478  -30.1466   23.8899 C   0  0  0  0  0  0
  -17.6482  -30.6608   24.0551 C   0  0  0  0  0  0
  -25.9049  -34.9462   23.5084 C   0  0  0  0  0  0
  -16.5377  -29.9106   23.6353 C   0  0  0  0  0  0
  -16.7278  -28.6531   23.0335 C   0  0  0  0  0  0
  -26.4488  -31.6604   25.0741 C   0  0  0  0  0  0
  -25.3679  -31.3806   26.1457 C   0  0  0  0  0  0
  -27.0316  -30.3028   24.6184 C   0  0  0  0  0  0
  -27.6072  -32.4338   25.7480 C   0  0  0  0  0  0
  -27.5567  -37.1773   24.8429 C   0  0  0  0  0  0
  -21.4186  -29.3047   22.3668 N   0  0  0  0  0  0
  -26.4270  -37.3772   23.9419 N   0  0  0  0  0  0
  -24.6905  -31.0588   22.0953 N   0  0  0  0  0  0
  -23.4208  -28.8108   23.2972 O   0  0  0  0  0  0
  -28.2990  -26.4262   20.1875 O   0  0  0  0  0  0
  -26.5640  -34.8914   22.4675 O   0  0  0  0  0  0
  -23.5416  -32.1387   23.7307 O   0  0  0  0  0  0
  -29.7517  -23.2314   20.0063 C   0  0  0  0  0  0
  -29.9003  -19.9092   20.6162 C   0  0  0  0  0  0
  -28.8630  -22.3945   20.9060 C   0  0  2  0  0  0
  -28.6413  -20.8682   20.5040 C   0  0  2  0  0  0
  -28.3446  -23.7338   20.2078 C   0  0  1  0  0  0
  -29.4884  -18.4851   21.1852 C   0  0  1  0  0  0
  -27.6062  -20.0143   21.3087 C   0  0  2  0  0  0
  -27.9629  -18.5230   20.9395 C   0  0  2  0  0  0
  -27.1866  -17.4893   21.7659 C   0  0  0  0  0  0
  -32.8550  -16.4830   21.9479 C   0  0  0  0  0  0
  -25.7721  -21.7287   21.9187 C   0  0  0  0  0  0
  -25.4532  -20.2666   19.8565 C   0  0  0  0  0  0
  -28.1223  -25.1372   20.9104 C   0  0  0  0  0  0
  -31.7399  -17.5243   21.7696 C   0  0  0  0  0  0
  -26.0955  -20.3851   21.2460 C   0  0  0  0  0  0
  -30.4849  -17.2291   20.8756 C   0  0  1  0  0  0
  -30.0226  -15.7778   21.0043 N   0  0  0  0  0  0
  -31.4575  -12.4558   19.2114 H   0  0  0  0  0  0
  -30.3053  -11.4067   19.9718 H   0  0  0  0  0  0
  -29.7779  -11.7149   17.5299 H   0  0  0  0  0  0
  -29.6604  -13.4433   17.7543 H   0  0  0  0  0  0
  -27.8557  -11.2852   18.8914 H   0  0  0  0  0  0
  -27.3828  -12.5553   17.7989 H   0  0  0  0  0  0
  -27.6532  -14.2516   19.4986 H   0  0  0  0  0  0
  -28.6903  -12.1262   21.4386 H   0  0  0  0  0  0
  -28.4210  -13.8046   21.8241 H   0  0  0  0  0  0
  -25.2744   -9.5683   22.4745 H   0  0  0  0  0  0
  -23.9982   -7.4639   22.7501 H   0  0  0  0  0  0
  -21.0820   -8.8746   19.8966 H   0  0  0  0  0  0
  -22.3678  -10.9636   19.6147 H   0  0  0  0  0  0
  -21.2003   -7.6123   23.9680 H   0  0  0  0  0  0
  -21.1480   -6.0519   25.9059 H   0  0  0  0  0  0
  -22.0609   -2.7583   23.2882 H   0  0  0  0  0  0
  -22.4108  -11.9888   22.4752 H   0  0  0  0  0  0
  -21.1100  -13.1258   22.2595 H   0  0  0  0  0  0
  -24.6578  -15.8472   20.5113 H   0  0  0  0  0  0
  -26.2770  -15.6181   20.0919 H   0  0  0  0  0  0
  -26.7160  -32.5433   23.1102 H   0  0  0  0  0  0
  -25.0064  -33.9763   25.0398 H   0  0  0  0  0  0
  -22.7174  -31.3022   21.3920 H   0  0  0  0  0  0
  -23.3754  -35.9630   23.3255 H   0  0  0  0  0  0
  -24.3605  -36.9013   22.2069 H   0  0  0  0  0  0
  -23.7186  -37.6469   23.6726 H   0  0  0  0  0  0
  -26.0755  -31.5453   20.5868 H   0  0  0  0  0  0
  -26.8487  -30.8552   21.9827 H   0  0  0  0  0  0
  -28.1062  -28.9585   21.2202 H   0  0  0  0  0  0
  -25.9915  -25.8892   19.0636 H   0  0  0  0  0  0
  -23.9623  -27.2926   19.0338 H   0  0  0  0  0  0
  -23.7579  -30.5923   19.3995 H   0  0  0  0  0  0
  -22.7577  -29.2455   19.8477 H   0  0  0  0  0  0
  -25.1246  -36.1937   25.0794 H   0  0  0  0  0  0
  -20.9994  -28.3287   24.1429 H   0  0  0  0  0  0
  -20.5735  -26.2285   23.3625 H   0  0  0  0  0  0
  -21.6644  -26.7464   22.1190 H   0  0  0  0  0  0
  -19.6947  -25.6292   21.1264 H   0  0  0  0  0  0
  -19.6755  -27.3197   20.6802 H   0  0  0  0  0  0
  -17.4221  -26.6776   21.3962 H   0  0  0  0  0  0
  -18.0247  -26.0114   22.8987 H   0  0  0  0  0  0
  -19.7962  -30.7253   24.2252 H   0  0  0  0  0  0
  -17.5053  -31.6287   24.5163 H   0  0  0  0  0  0
  -15.5373  -30.2982   23.7696 H   0  0  0  0  0  0
  -15.8690  -28.0846   22.7052 H   0  0  0  0  0  0
  -24.5943  -30.7033   25.7844 H   0  0  0  0  0  0
  -24.8738  -32.2957   26.4739 H   0  0  0  0  0  0
  -25.7965  -30.9146   27.0330 H   0  0  0  0  0  0
  -26.2898  -29.6789   24.1188 H   0  0  0  0  0  0
  -27.4020  -29.7311   25.4693 H   0  0  0  0  0  0
  -27.8728  -30.4363   23.9395 H   0  0  0  0  0  0
  -27.2786  -33.3721   26.1988 H   0  0  0  0  0  0
  -28.3903  -32.6773   25.0286 H   0  0  0  0  0  0
  -28.0698  -31.8471   26.5433 H   0  0  0  0  0  0
  -28.2497  -38.0159   24.7597 H   0  0  0  0  0  0
  -28.1143  -36.2676   24.6085 H   0  0  0  0  0  0
  -27.2322  -37.1256   25.8846 H   0  0  0  0  0  0
  -20.9385  -29.8809   21.6903 H   0  0  0  0  0  0
  -26.0140  -38.2810   24.1563 H   0  0  0  0  0  0
  -29.9788  -22.8556   19.0120 H   0  0  0  0  0  0
  -30.5565  -23.7976   20.4734 H   0  0  0  0  0  0
  -30.6642  -20.3482   21.2591 H   0  0  0  0  0  0
  -30.3511  -19.8005   19.6281 H   0  0  0  0  0  0
  -29.0551  -22.5029   21.9708 H   0  0  0  0  0  0
  -28.3288  -20.8676   19.4596 H   0  0  0  0  0  0
  -27.6560  -23.5759   19.3828 H   0  0  0  0  0  0
  -29.5233  -18.5953   22.2694 H   0  0  0  0  0  0
  -27.8681  -20.1377   22.3629 H   0  0  0  0  0  0
  -27.7593  -18.3486   19.8806 H   0  0  0  0  0  0
  -26.1177  -17.5528   21.5602 H   0  0  0  0  0  0
  -27.3262  -17.6301   22.8374 H   0  0  0  0  0  0
  -27.4914  -16.4785   21.5088 H   0  0  0  0  0  0
  -33.6141  -16.8563   22.6364 H   0  0  0  0  0  0
  -33.3664  -16.2601   21.0128 H   0  0  0  0  0  0
  -32.4793  -15.5523   22.3733 H   0  0  0  0  0  0
  -26.1748  -21.7630   22.9311 H   0  0  0  0  0  0
  -24.6941  -21.8748   22.0066 H   0  0  0  0  0  0
  -26.1705  -22.5838   21.3759 H   0  0  0  0  0  0
  -25.5045  -19.2438   19.4844 H   0  0  0  0  0  0
  -25.9303  -20.9215   19.1278 H   0  0  0  0  0  0
  -24.3963  -20.5335   19.9060 H   0  0  0  0  0  0
  -28.8167  -25.1826   21.7485 H   0  0  0  0  0  0
  -27.1357  -25.1090   21.3771 H   0  0  0  0  0  0
  -32.2135  -18.4304   21.3895 H   0  0  0  0  0  0
  -31.4172  -17.7762   22.7810 H   0  0  0  0  0  0
  -25.5719  -19.6673   21.8769 H   0  0  0  0  0  0
  -30.7892  -17.3235   19.8332 H   0  0  0  0  0  0
  -29.1380  -15.6236   21.4639 H   0  0  0  0  0  0
  1 25  1  0  0  0
  1 30  2  0  0  0
  1 87  1  0  0  0
  2  3  1  0  0  0
  2 25  1  0  0  0
  2 88  1  0  0  0
  2 89  1  0  0  0
  3  4  1  0  0  0
  3 90  1  0  0  0
  3 91  1  0  0  0
  4  5  1  0  0  0
  4 92  1  0  0  0
  4 93  1  0  0  0
  5  6  1  0  0  0
  5 26  1  0  0  0
  5 94  1  0  0  0
  6 25  1  0  0  0
  6 95  1  0  0  0
  6 96  1  0  0  0
  7  8  2  0  0  0
  7 26  1  0  0  0
  7 29  1  0  0  0
  8  9  1  0  0  0
  8 22  1  0  0  0
  9 10  1  0  0  0
  9 27  2  0  0  0
 10 11  2  0  0  0
 10 15  1  0  0  0
 11 12  1  0  0  0
 11 97  1  0  0  0
 12 13  2  0  0  0
 12 98  1  0  0  0
 13 14  1  0  0  0
 13 31  1  0  0  0
 14 15  2  0  0  0
 14 99  1  0  0  0
 15100  1  0  0  0
 16 17  2  0  0  0
 16 21  1  0  0  0
 16 31  1  0  0  0
 17 18  1  0  0  0
 17101  1  0  0  0
 18 19  2  0  0  0
 18102  1  0  0  0
 19 20  1  0  0  0
 19 24  1  0  0  0
 20 21  2  0  0  0
 20103  1  0  0  0
 21 23  1  0  0  0
 22 28  1  0  0  0
 22 32  2  0  0  0
 26 27  1  0  0  0
 28104  1  0  0  0
 28105  1  0  0  0
 29106  1  0  0  0
 29107  1  0  0  0
 33 34  1  0  0  0
 33 66  1  0  0  0
 33 70  2  0  0  0
 34 36  1  0  0  0
 34 59  1  0  0  0
 34108  1  0  0  0
 35 44  2  0  0  0
 35 45  1  0  0  0
 35 68  1  0  0  0
 36 56  1  0  0  0
 36109  1  0  0  0
 37 39  1  0  0  0
 37 47  1  0  0  0
 37 66  1  0  0  0
 37110  1  0  0  0
 38 43  2  0  0  0
 38 46  1  0  0  0
 38 47  1  0  0  0
 39 64  1  0  0  0
 39 67  2  0  0  0
 40 52  1  0  0  0
 40 53  2  0  0  0
 40 58  1  0  0  0
 41111  1  0  0  0
 41112  1  0  0  0
 41113  1  0  0  0
 41 48  1  0  0  0
 42 43  1  0  0  0
 42 66  1  0  0  0
 42114  1  0  0  0
 42115  1  0  0  0
 43 44  1  0  0  0
 44116  1  0  0  0
 45 46  2  0  0  0
 45117  1  0  0  0
 46118  1  0  0  0
 47119  1  0  0  0
 47120  1  0  0  0
 48 56  1  0  0  0
 48 65  1  0  0  0
 48121  1  0  0  0
 49 50  1  0  0  0
 49 53  1  0  0  0
 49 64  1  0  0  0
 49122  1  0  0  0
 50 51  1  0  0  0
 50123  1  0  0  0
 50124  1  0  0  0
 51 52  1  0  0  0
 51125  1  0  0  0
 51126  1  0  0  0
 52127  1  0  0  0
 52128  1  0  0  0
 53 54  1  0  0  0
 54 55  2  0  0  0
 54129  1  0  0  0
 55 57  1  0  0  0
 55130  1  0  0  0
 56 69  2  0  0  0
 57 58  2  0  0  0
 57131  1  0  0  0
 58132  1  0  0  0
 59 60  1  0  0  0
 59 61  1  0  0  0
 59 62  1  0  0  0
 60133  1  0  0  0
 60134  1  0  0  0
 60135  1  0  0  0
 61136  1  0  0  0
 61137  1  0  0  0
 61138  1  0  0  0
 62139  1  0  0  0
 62140  1  0  0  0
 62141  1  0  0  0
 63 65  1  0  0  0
 63142  1  0  0  0
 63143  1  0  0  0
 63144  1  0  0  0
 64145  1  0  0  0
 65146  1  0  0  0
 68 83  1  0  0  0
 71 75  1  0  0  0
 71147  1  0  0  0
 71148  1  0  0  0
 71 73  1  0  0  0
 72149  1  0  0  0
 72150  1  0  0  0
 72 74  1  0  0  0
 72 76  1  0  0  0
 73 74  1  0  0  0
 73 75  1  0  0  0
 73151  1  0  0  0
 74 77  1  0  0  0
 74152  1  0  0  0
 75 83  1  0  0  0
 75153  1  0  0  0
 76 78  1  0  0  0
 76 86  1  0  0  0
 76154  1  0  0  0
 77 78  1  0  0  0
 77 85  1  0  0  0
 77155  1  0  0  0
 78 79  1  0  0  0
 78156  1  0  0  0
 79157  1  0  0  0
 79158  1  0  0  0
 79159  1  0  0  0
 80 84  1  0  0  0
 80160  1  0  0  0
 80161  1  0  0  0
 80162  1  0  0  0
 81163  1  0  0  0
 81164  1  0  0  0
 81165  1  0  0  0
 81 85  1  0  0  0
 82 85  1  0  0  0
 82166  1  0  0  0
 82167  1  0  0  0
 82168  1  0  0  0
 83169  1  0  0  0
 83170  1  0  0  0
 84171  1  0  0  0
 84172  1  0  0  0
 84 86  1  0  0  0
 85173  1  0  0  0
 86 87  1  0  0  0
 86174  1  0  0  0
 87175  1  0  0  0
M  ISO  4   1 100  68 101  83 101  87 100
M  END
> <chiral flag>
0

> <version>
0

> <s_m_source_file>
/data/baiqing/PycharmProjects/Reinvent-master-3.2/result/LINK_invent/BTK/process_docking_weight1_custom_sum_contain_oxygen_bond_distance_aromatic_linkinvent_7_9_3/rearranged_h_0147.sdf

> <i_m_source_file_index>
20

> <r_mmod_Potential_Energy-OPLS-2005>
309.604034423828

> <r_mmod_Stretch_Energy-OPLS-2005>
108.962799072266

> <r_mmod_Bend_Energy-OPLS-2005>
235.769729614258

> <r_mmod_Torsional_Energy-OPLS-2005>
344.205444335938

> <r_mmod_Improper_Torsional_Energy-OPLS-2005>
2.99319934844971

> <r_mmod_Van_der_Waal_Energy-OPLS-2005>
120.382591247559

> <r_mmod_Electrostatic_Energy-OPLS-2005>
-385.979187011719

> <r_mmod_Solvation_Energy-OPLS-2005>
-176.861267089844

> <b_mmod_Minimization_Converged-OPLS-2005>
0

> <r_mmod_RMS_Derivative-OPLS-2005>
5.05792474746704

$$$$
20
                    3D
 Structure written by MMmdl.
160169  0  0  1  0            999 V2000
  -30.7000  -14.4612   20.5906 C   0  0  0  0  0  0
  -30.4149  -12.3050   19.4285 C   0  0  0  0  0  0
  -29.4909  -12.5145   18.2096 C   0  0  0  0  0  0
  -28.0105  -12.3749   18.6140 C   0  0  0  0  0  0
  -27.6570  -13.2072   19.8738 C   0  0  2  0  0  0
  -28.6931  -12.9862   20.9989 C   0  0  0  0  0  0
  -25.2555  -13.8169   20.5675 C   0  0  0  0  0  0
  -24.1792  -13.0455   20.9157 C   0  0  0  0  0  0
  -24.6327  -11.6915   20.8696 C   0  0  0  0  0  0
  -23.8982  -10.4297   21.0377 C   0  0  0  0  0  0
  -24.3550   -9.4223   21.9160 C   0  0  0  0  0  0
  -23.6258   -8.2236   22.0748 C   0  0  0  0  0  0
  -22.4245   -8.0247   21.3531 C   0  0  0  0  0  0
  -21.9851   -9.0214   20.4637 C   0  0  0  0  0  0
  -22.7149  -10.2110   20.3040 C   0  0  0  0  0  0
  -21.6865   -6.0686   22.5262 C   0  0  0  0  0  0
  -21.4018   -6.5600   23.8181 C   0  0  0  0  0  0
  -21.3668   -5.6770   24.9149 C   0  0  0  0  0  0
  -21.6060   -4.3037   24.7220 C   0  0  0  0  0  0
  -21.8818   -3.8107   23.4347 C   0  0  0  0  0  0
  -21.9193   -4.6913   22.3395 C   0  0  0  0  0  0
  -22.7820  -13.5263   21.1808 C   0  0  0  0  0  0
  -22.1665   -4.2093   21.0979 F   0  0  0  0  0  0
  -21.5648   -3.4537   25.7741 F   0  0  0  0  0  0
  -30.0312  -13.2842   20.4585 N   0  0  0  0  0  0
  -26.2969  -12.9321   20.3338 N   0  0  0  0  0  0
  -25.9249  -11.6474   20.5720 N   0  0  0  0  0  0
  -22.0448  -12.8297   22.0379 N   0  0  0  0  0  0
  -25.4350  -15.1882   20.4098 N   0  0  0  0  0  0
  -31.8047  -14.6663   20.0790 O   0  0  0  0  0  0
  -21.6651   -6.8821   21.4213 O   0  0  0  0  0  0
  -22.3506  -14.5546   20.6622 O   0  0  0  0  0  0
  -24.6155  -31.8681   23.2065 C   0  0  0  0  0  0
  -25.9051  -32.4823   23.8359 C   0  0  1  0  0  0
  -27.2466  -27.4347   20.0864 C   0  0  0  0  0  0
  -25.5909  -33.8615   24.2301 N   0  0  0  0  0  0
  -23.4038  -30.4903   21.5467 C   0  0  2  0  0  0
  -24.8493  -28.9494   20.1158 C   0  0  0  0  0  0
  -22.7422  -29.4677   22.4986 C   0  0  0  0  0  0
  -18.0289  -28.1391   22.8490 C   0  0  0  0  0  0
  -24.1491  -36.7308   23.2633 C   0  0  0  0  0  0
  -25.9320  -30.8294   21.3627 C   0  0  0  0  0  0
  -26.0067  -29.4631   20.7101 C   0  0  0  0  0  0
  -27.2029  -28.7119   20.6935 C   0  0  0  0  0  0
  -26.0610  -26.9246   19.5052 C   0  0  0  0  0  0
  -24.8707  -27.6787   19.5139 C   0  0  0  0  0  0
  -23.6114  -29.8165   20.1634 C   0  0  0  0  0  0
  -25.4116  -36.3106   24.0334 C   0  0  1  0  0  0
  -20.5877  -28.3680   23.1314 C   0  0  2  0  0  0
  -20.6787  -26.9415   22.5415 C   0  0  0  0  0  0
  -19.5774  -26.6401   21.5200 C   0  0  0  0  0  0
  -18.1941  -26.7943   22.1597 C   0  0  0  0  0  0
  -19.1541  -28.8838   23.2900 C   0  0  0  0  0  0
  -18.9483  -30.1440   23.8921 C   0  0  0  0  0  0
  -17.6495  -30.6592   24.0572 C   0  0  0  0  0  0
  -25.9050  -34.9479   23.5120 C   0  0  0  0  0  0
  -16.5373  -29.9108   23.6339 C   0  0  0  0  0  0
  -16.7284  -28.6510   23.0366 C   0  0  0  0  0  0
  -26.4473  -31.6598   25.0696 C   0  0  0  0  0  0
  -25.3728  -31.3720   26.1425 C   0  0  0  0  0  0
  -27.0320  -30.3043   24.6104 C   0  0  0  0  0  0
  -27.6061  -32.4310   25.7461 C   0  0  0  0  0  0
  -27.5588  -37.1807   24.8463 C   0  0  0  0  0  0
  -21.4142  -29.3062   22.3738 N   0  0  0  0  0  0
  -26.4300  -37.3793   23.9408 N   0  0  0  0  0  0
  -24.6686  -31.0774   22.0967 N   0  0  0  0  0  0
  -23.4187  -28.8227   23.3045 O   0  0  0  0  0  0
  -28.4526  -26.7611   20.0972 O   0  0  0  0  0  0
  -26.5609  -34.8924   22.4679 O   0  0  0  0  0  0
  -23.5355  -32.1435   23.7463 O   0  0  0  0  0  0
  -28.3141  -21.5528   21.3067 C   0  0  0  0  0  0
  -30.1702  -19.8296   20.2707 C   0  0  0  0  0  0
  -28.2863  -20.2069   21.7465 C   0  0  0  0  0  0
  -29.2499  -19.3102   21.2092 C   0  0  0  0  0  0
  -29.2495  -21.9628   20.3411 C   0  0  0  0  0  0
  -26.7251  -20.6865   23.8315 C   0  0  0  0  0  0
  -25.8296  -20.3525   22.6590 C   0  0  0  0  0  0
  -27.2266  -19.7741   22.7349 C   0  0  0  0  0  0
  -29.2593  -17.8229   21.6195 C   0  0  0  0  0  0
  -30.2993  -16.8932   20.9445 C   0  0  0  0  0  0
  -28.6316  -25.5271   19.3895 C   0  0  0  0  0  0
  -28.4700  -24.2730   20.2808 C   0  0  0  0  0  0
  -30.1646  -21.1106   19.8410 N   0  0  0  0  0  0
  -30.0155  -15.4649   21.1672 N   0  0  0  0  0  0
  -29.3282  -23.2311   19.7956 O   0  0  0  0  0  0
  -31.4606  -12.4003   19.1278 H   0  0  0  0  0  0
  -30.3064  -11.2934   19.8205 H   0  0  0  0  0  0
  -29.7289  -11.7955   17.4226 H   0  0  0  0  0  0
  -29.6627  -13.5056   17.7853 H   0  0  0  0  0  0
  -27.8188  -11.3188   18.8017 H   0  0  0  0  0  0
  -27.3620  -12.6552   17.7814 H   0  0  0  0  0  0
  -27.6998  -14.2566   19.5784 H   0  0  0  0  0  0
  -28.6616  -11.9525   21.3457 H   0  0  0  0  0  0
  -28.4419  -13.5920   21.8690 H   0  0  0  0  0  0
  -25.2688   -9.5736   22.4730 H   0  0  0  0  0  0
  -23.9980   -7.4651   22.7498 H   0  0  0  0  0  0
  -21.0771   -8.8689   19.8972 H   0  0  0  0  0  0
  -22.3566  -10.9618   19.6148 H   0  0  0  0  0  0
  -21.2008   -7.6113   23.9650 H   0  0  0  0  0  0
  -21.1514   -6.0520   25.9049 H   0  0  0  0  0  0
  -22.0594   -2.7565   23.2867 H   0  0  0  0  0  0
  -22.4041  -12.0013   22.4862 H   0  0  0  0  0  0
  -21.1041  -13.1328   22.2500 H   0  0  0  0  0  0
  -24.6794  -15.8562   20.5118 H   0  0  0  0  0  0
  -26.2945  -15.6112   20.0818 H   0  0  0  0  0  0
  -26.7123  -32.5534   23.1121 H   0  0  0  0  0  0
  -25.0072  -33.9760   25.0460 H   0  0  0  0  0  0
  -22.6922  -31.3061   21.4061 H   0  0  0  0  0  0
  -23.3751  -35.9640   23.3314 H   0  0  0  0  0  0
  -24.3571  -36.8908   22.2041 H   0  0  0  0  0  0
  -23.7240  -37.6521   23.6636 H   0  0  0  0  0  0
  -26.0529  -31.5951   20.5952 H   0  0  0  0  0  0
  -26.8155  -30.8752   21.9882 H   0  0  0  0  0  0
  -28.0987  -29.1162   21.1439 H   0  0  0  0  0  0
  -26.0278  -25.9474   19.0455 H   0  0  0  0  0  0
  -23.9778  -27.2750   19.0555 H   0  0  0  0  0  0
  -23.7131  -30.5831   19.3943 H   0  0  0  0  0  0
  -22.7367  -29.2287   19.8797 H   0  0  0  0  0  0
  -25.1296  -36.1978   25.0829 H   0  0  0  0  0  0
  -20.9946  -28.3245   24.1443 H   0  0  0  0  0  0
  -20.5677  -26.2293   23.3605 H   0  0  0  0  0  0
  -21.6671  -26.7469   22.1226 H   0  0  0  0  0  0
  -19.6941  -25.6309   21.1242 H   0  0  0  0  0  0
  -19.6729  -27.3198   20.6722 H   0  0  0  0  0  0
  -17.4233  -26.6696   21.3983 H   0  0  0  0  0  0
  -18.0339  -26.0068   22.8980 H   0  0  0  0  0  0
  -19.7971  -30.7229   24.2315 H   0  0  0  0  0  0
  -17.5072  -31.6276   24.5188 H   0  0  0  0  0  0
  -15.5387  -30.3037   23.7660 H   0  0  0  0  0  0
  -15.8674  -28.0847   22.7095 H   0  0  0  0  0  0
  -24.5887  -30.7097   25.7740 H   0  0  0  0  0  0
  -24.8923  -32.2890   26.4859 H   0  0  0  0  0  0
  -25.8044  -30.8869   27.0196 H   0  0  0  0  0  0
  -26.2892  -29.6792   24.1141 H   0  0  0  0  0  0
  -27.4075  -29.7288   25.4584 H   0  0  0  0  0  0
  -27.8721  -30.4352   23.9274 H   0  0  0  0  0  0
  -27.2688  -33.3591   26.2085 H   0  0  0  0  0  0
  -28.3850  -32.6902   25.0273 H   0  0  0  0  0  0
  -28.0753  -31.8403   26.5345 H   0  0  0  0  0  0
  -28.2625  -38.0085   24.7522 H   0  0  0  0  0  0
  -28.1066  -36.2636   24.6293 H   0  0  0  0  0  0
  -27.2302  -37.1461   25.8857 H   0  0  0  0  0  0
  -20.9304  -29.8788   21.6957 H   0  0  0  0  0  0
  -26.0203  -38.2882   24.1380 H   0  0  0  0  0  0
  -27.5962  -22.2562   21.6997 H   0  0  0  0  0  0
  -30.9266  -19.2058   19.8188 H   0  0  0  0  0  0
  -26.4650  -20.2306   24.7849 H   0  0  0  0  0  0
  -27.1397  -21.6893   23.8965 H   0  0  0  0  0  0
  -25.6362  -21.1359   21.9283 H   0  0  0  0  0  0
  -24.9937  -19.6860   22.8514 H   0  0  0  0  0  0
  -27.3003  -18.7241   23.0063 H   0  0  0  0  0  0
  -28.2637  -17.4293   21.4122 H   0  0  0  0  0  0
  -29.3947  -17.7656   22.7012 H   0  0  0  0  0  0
  -31.3086  -17.1406   21.2829 H   0  0  0  0  0  0
  -30.2766  -17.0464   19.8644 H   0  0  0  0  0  0
  -28.0396  -25.4512   18.4777 H   0  0  0  0  0  0
  -29.6642  -25.5641   19.0392 H   0  0  0  0  0  0
  -27.4214  -23.9747   20.3029 H   0  0  0  0  0  0
  -28.7696  -24.5089   21.3023 H   0  0  0  0  0  0
  -29.1347  -15.2222   21.5955 H   0  0  0  0  0  0
  1 25  1  0  0  0
  1 30  2  0  0  0
  1 84  1  0  0  0
  2  3  1  0  0  0
  2 25  1  0  0  0
  2 86  1  0  0  0
  2 87  1  0  0  0
  3  4  1  0  0  0
  3 88  1  0  0  0
  3 89  1  0  0  0
  4  5  1  0  0  0
  4 90  1  0  0  0
  4 91  1  0  0  0
  5  6  1  0  0  0
  5 26  1  0  0  0
  5 92  1  0  0  0
  6 25  1  0  0  0
  6 93  1  0  0  0
  6 94  1  0  0  0
  7  8  2  0  0  0
  7 26  1  0  0  0
  7 29  1  0  0  0
  8  9  1  0  0  0
  8 22  1  0  0  0
  9 10  1  0  0  0
  9 27  2  0  0  0
 10 11  2  0  0  0
 10 15  1  0  0  0
 11 12  1  0  0  0
 11 95  1  0  0  0
 12 13  2  0  0  0
 12 96  1  0  0  0
 13 14  1  0  0  0
 13 31  1  0  0  0
 14 15  2  0  0  0
 14 97  1  0  0  0
 15 98  1  0  0  0
 16 17  2  0  0  0
 16 21  1  0  0  0
 16 31  1  0  0  0
 17 18  1  0  0  0
 17 99  1  0  0  0
 18 19  2  0  0  0
 18100  1  0  0  0
 19 20  1  0  0  0
 19 24  1  0  0  0
 20 21  2  0  0  0
 20101  1  0  0  0
 21 23  1  0  0  0
 22 28  1  0  0  0
 22 32  2  0  0  0
 26 27  1  0  0  0
 28102  1  0  0  0
 28103  1  0  0  0
 29104  1  0  0  0
 29105  1  0  0  0
 33 34  1  0  0  0
 33 66  1  0  0  0
 33 70  2  0  0  0
 34 36  1  0  0  0
 34 59  1  0  0  0
 34106  1  0  0  0
 35 44  2  0  0  0
 35 45  1  0  0  0
 35 68  1  0  0  0
 36 56  1  0  0  0
 36107  1  0  0  0
 37 39  1  0  0  0
 37 47  1  0  0  0
 37 66  1  0  0  0
 37108  1  0  0  0
 38 43  2  0  0  0
 38 46  1  0  0  0
 38 47  1  0  0  0
 39 64  1  0  0  0
 39 67  2  0  0  0
 40 52  1  0  0  0
 40 53  2  0  0  0
 40 58  1  0  0  0
 41109  1  0  0  0
 41110  1  0  0  0
 41111  1  0  0  0
 41 48  1  0  0  0
 42 43  1  0  0  0
 42 66  1  0  0  0
 42112  1  0  0  0
 42113  1  0  0  0
 43 44  1  0  0  0
 44114  1  0  0  0
 45 46  2  0  0  0
 45115  1  0  0  0
 46116  1  0  0  0
 47117  1  0  0  0
 47118  1  0  0  0
 48 56  1  0  0  0
 48 65  1  0  0  0
 48119  1  0  0  0
 49 50  1  0  0  0
 49 53  1  0  0  0
 49 64  1  0  0  0
 49120  1  0  0  0
 50 51  1  0  0  0
 50121  1  0  0  0
 50122  1  0  0  0
 51 52  1  0  0  0
 51123  1  0  0  0
 51124  1  0  0  0
 52125  1  0  0  0
 52126  1  0  0  0
 53 54  1  0  0  0
 54 55  2  0  0  0
 54127  1  0  0  0
 55 57  1  0  0  0
 55128  1  0  0  0
 56 69  2  0  0  0
 57 58  2  0  0  0
 57129  1  0  0  0
 58130  1  0  0  0
 59 60  1  0  0  0
 59 61  1  0  0  0
 59 62  1  0  0  0
 60131  1  0  0  0
 60132  1  0  0  0
 60133  1  0  0  0
 61134  1  0  0  0
 61135  1  0  0  0
 61136  1  0  0  0
 62137  1  0  0  0
 62138  1  0  0  0
 62139  1  0  0  0
 63 65  1  0  0  0
 63140  1  0  0  0
 63141  1  0  0  0
 63142  1  0  0  0
 64143  1  0  0  0
 65144  1  0  0  0
 68 81  1  0  0  0
 71 73  2  0  0  0
 71 75  1  0  0  0
 71145  1  0  0  0
 72 74  2  0  0  0
 72 83  1  0  0  0
 72146  1  0  0  0
 73 74  1  0  0  0
 73 78  1  0  0  0
 74 79  1  0  0  0
 75 83  2  0  0  0
 75 85  1  0  0  0
 76 77  1  0  0  0
 76 78  1  0  0  0
 76147  1  0  0  0
 76148  1  0  0  0
 77 78  1  0  0  0
 77149  1  0  0  0
 77150  1  0  0  0
 78151  1  0  0  0
 79 80  1  0  0  0
 79152  1  0  0  0
 79153  1  0  0  0
 80 84  1  0  0  0
 80154  1  0  0  0
 80155  1  0  0  0
 81 82  1  0  0  0
 81156  1  0  0  0
 81157  1  0  0  0
 82 85  1  0  0  0
 82158  1  0  0  0
 82159  1  0  0  0
 84160  1  0  0  0
M  ISO  4   1 100  68 101  81 101  84 100
M  END
> <chiral flag>
0

> <version>
0

> <s_m_source_file>
/data/baiqing/PycharmProjects/Reinvent-master-3.2/result/LINK_invent/BTK/process_docking_weight1_custom_sum_contain_oxygen_bond_distance_aromatic_linkinvent_7_9_3/rearranged_h_0147.sdf

> <i_m_source_file_index>
21

> <r_mmod_Potential_Energy-OPLS-2005>
-274.117614746094

> <r_mmod_Stretch_Energy-OPLS-2005>
38.2976264953613

> <r_mmod_Bend_Energy-OPLS-2005>
114.505432128906

> <r_mmod_Torsional_Energy-OPLS-2005>
220.943267822266

> <r_mmod_Improper_Torsional_Energy-OPLS-2005>
4.39785480499268

> <r_mmod_Van_der_Waal_Energy-OPLS-2005>
164.304489135742

> <r_mmod_Electrostatic_Energy-OPLS-2005>
-597.394348144531

> <r_mmod_Solvation_Energy-OPLS-2005>
-231.144943237305

> <b_mmod_Minimization_Converged-OPLS-2005>
0

> <r_mmod_RMS_Derivative-OPLS-2005>
3.00922727584839

$$$$
21
                    3D
 Structure written by MMmdl.
172181  0  0  1  0            999 V2000
  -30.7088  -14.5853   20.4934 C   0  0  0  0  0  0
  -30.4153  -12.3624   19.4488 C   0  0  0  0  0  0
  -29.5020  -12.5072   18.2159 C   0  0  0  0  0  0
  -28.0236  -12.3624   18.6262 C   0  0  0  0  0  0
  -27.6519  -13.2312   19.8592 C   0  0  2  0  0  0
  -28.6978  -13.1156   20.9884 C   0  0  0  0  0  0
  -25.2567  -13.8200   20.5718 C   0  0  0  0  0  0
  -24.1836  -13.0450   20.9189 C   0  0  0  0  0  0
  -24.6414  -11.6921   20.8716 C   0  0  0  0  0  0
  -23.9078  -10.4300   21.0394 C   0  0  0  0  0  0
  -24.3621   -9.4220   21.9176 C   0  0  0  0  0  0
  -23.6303   -8.2247   22.0751 C   0  0  0  0  0  0
  -22.4277   -8.0289   21.3549 C   0  0  0  0  0  0
  -21.9919   -9.0262   20.4648 C   0  0  0  0  0  0
  -22.7249  -10.2142   20.3051 C   0  0  0  0  0  0
  -21.6859   -6.0738   22.5278 C   0  0  0  0  0  0
  -21.4009   -6.5637   23.8212 C   0  0  0  0  0  0
  -21.3656   -5.6788   24.9174 C   0  0  0  0  0  0
  -21.6048   -4.3054   24.7220 C   0  0  0  0  0  0
  -21.8816   -3.8153   23.4337 C   0  0  0  0  0  0
  -21.9194   -4.6969   22.3394 C   0  0  0  0  0  0
  -22.7857  -13.5235   21.1847 C   0  0  0  0  0  0
  -22.1672   -4.2157   21.0972 F   0  0  0  0  0  0
  -21.5625   -3.4532   25.7733 F   0  0  0  0  0  0
  -30.0133  -13.4092   20.4073 N   0  0  0  0  0  0
  -26.2999  -12.9410   20.3323 N   0  0  0  0  0  0
  -25.9344  -11.6544   20.5719 N   0  0  0  0  0  0
  -22.0487  -12.8229   22.0397 N   0  0  0  0  0  0
  -25.4310  -15.1919   20.4170 N   0  0  0  0  0  0
  -31.8934  -14.6456   20.1464 O   0  0  0  0  0  0
  -21.6639   -6.8885   21.4244 O   0  0  0  0  0  0
  -22.3542  -14.5533   20.6689 O   0  0  0  0  0  0
  -24.6253  -31.8627   23.2070 C   0  0  0  0  0  0
  -25.9117  -32.4785   23.8372 C   0  0  1  0  0  0
  -27.2169  -27.3368   20.1007 C   0  0  0  0  0  0
  -25.5956  -33.8591   24.2308 N   0  0  0  0  0  0
  -23.4169  -30.4910   21.5505 C   0  0  2  0  0  0
  -24.8605  -28.9589   20.1088 C   0  0  0  0  0  0
  -22.7472  -29.4644   22.4950 C   0  0  0  0  0  0
  -18.0275  -28.1366   22.8487 C   0  0  0  0  0  0
  -24.1492  -36.7278   23.2627 C   0  0  0  0  0  0
  -25.9594  -30.7983   21.3782 C   0  0  0  0  0  0
  -26.0314  -29.4309   20.7139 C   0  0  0  0  0  0
  -27.2126  -28.6317   20.7028 C   0  0  0  0  0  0
  -26.0151  -26.9242   19.4700 C   0  0  0  0  0  0
  -24.8535  -27.7100   19.4789 C   0  0  0  0  0  0
  -23.6287  -29.8348   20.1633 C   0  0  0  0  0  0
  -25.4104  -36.3079   24.0337 C   0  0  1  0  0  0
  -20.5882  -28.3673   23.1292 C   0  0  2  0  0  0
  -20.6771  -26.9403   22.5402 C   0  0  0  0  0  0
  -19.5746  -26.6378   21.5201 C   0  0  0  0  0  0
  -18.1924  -26.7913   22.1615 C   0  0  0  0  0  0
  -19.1533  -28.8835   23.2883 C   0  0  0  0  0  0
  -18.9452  -30.1445   23.8882 C   0  0  0  0  0  0
  -17.6454  -30.6584   24.0551 C   0  0  0  0  0  0
  -25.9058  -34.9456   23.5111 C   0  0  0  0  0  0
  -16.5339  -29.9070   23.6336 C   0  0  0  0  0  0
  -16.7269  -28.6486   23.0361 C   0  0  0  0  0  0
  -26.4507  -31.6576   25.0730 C   0  0  0  0  0  0
  -25.3740  -31.3714   26.1450 C   0  0  0  0  0  0
  -27.0342  -30.3000   24.6174 C   0  0  0  0  0  0
  -27.6064  -32.4299   25.7492 C   0  0  0  0  0  0
  -27.5605  -37.1753   24.8430 C   0  0  0  0  0  0
  -21.4187  -29.3039   22.3700 N   0  0  0  0  0  0
  -26.4258  -37.3802   23.9457 N   0  0  0  0  0  0
  -24.6862  -31.0662   22.1011 N   0  0  0  0  0  0
  -23.4209  -28.8163   23.3004 O   0  0  0  0  0  0
  -28.3294  -26.4779   20.1483 O   0  0  0  0  0  0
  -26.5615  -34.8928   22.4669 O   0  0  0  0  0  0
  -23.5428  -32.1411   23.7420 O   0  0  0  0  0  0
  -30.4206  -24.1122   19.5248 C   0  0  0  0  0  0
  -29.1287  -23.9210   20.0799 C   0  0  0  0  0  0
  -28.7905  -22.6045   20.5743 C   0  0  0  0  0  0
  -31.3551  -23.0406   19.5046 C   0  0  0  0  0  0
  -29.7138  -21.4980   20.5337 C   0  0  0  0  0  0
  -31.0148  -21.7618   20.0204 C   0  0  0  0  0  0
  -29.2131  -18.0320   19.7130 C   0  0  0  0  0  0
  -29.7902  -17.9568   22.0703 C   0  0  0  0  0  0
  -29.8679  -16.6279   19.5055 C   0  0  0  0  0  0
  -30.4451  -16.5490   21.8902 C   0  0  0  0  0  0
  -29.9007  -18.8536   20.8180 C   0  0  0  0  0  0
  -30.7908  -25.4716   18.9307 C   0  0  0  0  0  0
  -27.3829  -22.3779   21.1307 C   0  0  0  0  0  0
  -32.7432  -23.2573   18.9024 C   0  0  0  0  0  0
  -32.7595  -20.7570   21.1966 C   0  0  0  0  0  0
  -28.0375  -25.0448   19.9466 C   0  0  0  0  0  0
  -30.0183  -15.7555   20.7075 N   0  0  0  0  0  0
  -29.3063  -20.2081   21.0214 N   0  0  0  0  0  0
  -31.9795  -20.7887   20.0079 O   0  0  0  0  0  0
  -31.4639  -12.4370   19.1545 H   0  0  0  0  0  0
  -30.3042  -11.3737   19.8970 H   0  0  0  0  0  0
  -29.7597  -11.7624   17.4619 H   0  0  0  0  0  0
  -29.6631  -13.4806   17.7482 H   0  0  0  0  0  0
  -27.8461  -11.3097   18.8451 H   0  0  0  0  0  0
  -27.3753  -12.6142   17.7863 H   0  0  0  0  0  0
  -27.6640  -14.2664   19.5157 H   0  0  0  0  0  0
  -28.6913  -12.1147   21.4230 H   0  0  0  0  0  0
  -28.4639  -13.8061   21.8009 H   0  0  0  0  0  0
  -25.2775   -9.5689   22.4736 H   0  0  0  0  0  0
  -24.0026   -7.4631   22.7454 H   0  0  0  0  0  0
  -21.0858   -8.8776   19.8951 H   0  0  0  0  0  0
  -22.3717  -10.9669   19.6138 H   0  0  0  0  0  0
  -21.1998   -7.6144   23.9710 H   0  0  0  0  0  0
  -21.1482   -6.0521   25.9076 H   0  0  0  0  0  0
  -22.0593   -2.7618   23.2821 H   0  0  0  0  0  0
  -22.4093  -11.9882   22.4787 H   0  0  0  0  0  0
  -21.1088  -13.1244   22.2551 H   0  0  0  0  0  0
  -24.6730  -15.8555   20.5328 H   0  0  0  0  0  0
  -26.3010  -15.6282   20.1393 H   0  0  0  0  0  0
  -26.7175  -32.5471   23.1118 H   0  0  0  0  0  0
  -25.0137  -33.9727   25.0478 H   0  0  0  0  0  0
  -22.7093  -31.3118   21.4153 H   0  0  0  0  0  0
  -23.3801  -35.9550   23.3167 H   0  0  0  0  0  0
  -24.3634  -36.9015   22.2068 H   0  0  0  0  0  0
  -23.7168  -37.6415   23.6713 H   0  0  0  0  0  0
  -26.0974  -31.5681   20.6173 H   0  0  0  0  0  0
  -26.8378  -30.8370   22.0112 H   0  0  0  0  0  0
  -28.1086  -28.9913   21.1881 H   0  0  0  0  0  0
  -25.9178  -25.9775   18.9635 H   0  0  0  0  0  0
  -23.9562  -27.3443   18.9991 H   0  0  0  0  0  0
  -23.7424  -30.6135   19.4083 H   0  0  0  0  0  0
  -22.7494  -29.2615   19.8631 H   0  0  0  0  0  0
  -25.1268  -36.1899   25.0824 H   0  0  0  0  0  0
  -20.9975  -28.3224   24.1414 H   0  0  0  0  0  0
  -20.5671  -26.2281   23.3597 H   0  0  0  0  0  0
  -21.6641  -26.7434   22.1199 H   0  0  0  0  0  0
  -19.6910  -25.6287   21.1239 H   0  0  0  0  0  0
  -19.6688  -27.3186   20.6724 H   0  0  0  0  0  0
  -17.4207  -26.6677   21.3998 H   0  0  0  0  0  0
  -18.0312  -26.0046   22.9004 H   0  0  0  0  0  0
  -19.7931  -30.7260   24.2250 H   0  0  0  0  0  0
  -17.5009  -31.6266   24.5142 H   0  0  0  0  0  0
  -15.5335  -30.2957   23.7668 H   0  0  0  0  0  0
  -15.8675  -28.0796   22.7078 H   0  0  0  0  0  0
  -24.5906  -30.7077   25.7777 H   0  0  0  0  0  0
  -24.8944  -32.2883   26.4884 H   0  0  0  0  0  0
  -25.8062  -30.8876   27.0223 H   0  0  0  0  0  0
  -26.2913  -29.6751   24.1209 H   0  0  0  0  0  0
  -27.4054  -29.7253   25.4676 H   0  0  0  0  0  0
  -27.8787  -30.4277   23.9395 H   0  0  0  0  0  0
  -27.2686  -33.3613   26.2051 H   0  0  0  0  0  0
  -28.3884  -32.6829   25.0318 H   0  0  0  0  0  0
  -28.0726  -31.8434   26.5426 H   0  0  0  0  0  0
  -28.2470  -38.0202   24.7712 H   0  0  0  0  0  0
  -28.1253  -36.2756   24.5934 H   0  0  0  0  0  0
  -27.2386  -37.1015   25.8836 H   0  0  0  0  0  0
  -20.9357  -29.8781   21.6938 H   0  0  0  0  0  0
  -26.0130  -38.2842   24.1574 H   0  0  0  0  0  0
  -28.1526  -17.9096   19.9413 H   0  0  0  0  0  0
  -29.2536  -18.5830   18.7709 H   0  0  0  0  0  0
  -30.2650  -18.4550   22.9162 H   0  0  0  0  0  0
  -28.7435  -17.8298   22.3507 H   0  0  0  0  0  0
  -30.8542  -16.7917   19.0667 H   0  0  0  0  0  0
  -29.2969  -16.0871   18.7497 H   0  0  0  0  0  0
  -30.2583  -15.9554   22.7875 H   0  0  0  0  0  0
  -31.5280  -16.6879   21.8460 H   0  0  0  0  0  0
  -30.9534  -18.9100   20.5708 H   0  0  0  0  0  0
  -29.9772  -25.8724   18.3278 H   0  0  0  0  0  0
  -31.6529  -25.4541   18.2695 H   0  0  0  0  0  0
  -31.0048  -26.1783   19.7325 H   0  0  0  0  0  0
  -26.6378  -22.5454   20.3529 H   0  0  0  0  0  0
  -27.1912  -23.0669   21.9530 H   0  0  0  0  0  0
  -27.1992  -21.3835   21.5288 H   0  0  0  0  0  0
  -32.6650  -23.4970   17.8419 H   0  0  0  0  0  0
  -33.3959  -22.3885   18.9687 H   0  0  0  0  0  0
  -33.2526  -24.0773   19.4088 H   0  0  0  0  0  0
  -33.4847  -19.9456   21.1348 H   0  0  0  0  0  0
  -32.1403  -20.5841   22.0779 H   0  0  0  0  0  0
  -33.3133  -21.6859   21.3370 H   0  0  0  0  0  0
  -27.1913  -24.8129   20.5892 H   0  0  0  0  0  0
  -27.7010  -24.9161   18.9168 H   0  0  0  0  0  0
  -28.3927  -20.1939   21.4584 H   0  0  0  0  0  0
  1 25  1  0  0  0
  1 30  2  0  0  0
  1 87  1  0  0  0
  2  3  1  0  0  0
  2 25  1  0  0  0
  2 90  1  0  0  0
  2 91  1  0  0  0
  3  4  1  0  0  0
  3 92  1  0  0  0
  3 93  1  0  0  0
  4  5  1  0  0  0
  4 94  1  0  0  0
  4 95  1  0  0  0
  5  6  1  0  0  0
  5 26  1  0  0  0
  5 96  1  0  0  0
  6 25  1  0  0  0
  6 97  1  0  0  0
  6 98  1  0  0  0
  7  8  2  0  0  0
  7 26  1  0  0  0
  7 29  1  0  0  0
  8  9  1  0  0  0
  8 22  1  0  0  0
  9 10  1  0  0  0
  9 27  2  0  0  0
 10 11  2  0  0  0
 10 15  1  0  0  0
 11 12  1  0  0  0
 11 99  1  0  0  0
 12 13  2  0  0  0
 12100  1  0  0  0
 13 14  1  0  0  0
 13 31  1  0  0  0
 14 15  2  0  0  0
 14101  1  0  0  0
 15102  1  0  0  0
 16 17  2  0  0  0
 16 21  1  0  0  0
 16 31  1  0  0  0
 17 18  1  0  0  0
 17103  1  0  0  0
 18 19  2  0  0  0
 18104  1  0  0  0
 19 20  1  0  0  0
 19 24  1  0  0  0
 20 21  2  0  0  0
 20105  1  0  0  0
 21 23  1  0  0  0
 22 28  1  0  0  0
 22 32  2  0  0  0
 26 27  1  0  0  0
 28106  1  0  0  0
 28107  1  0  0  0
 29108  1  0  0  0
 29109  1  0  0  0
 33 34  1  0  0  0
 33 66  1  0  0  0
 33 70  2  0  0  0
 34 36  1  0  0  0
 34 59  1  0  0  0
 34110  1  0  0  0
 35 44  2  0  0  0
 35 45  1  0  0  0
 35 68  1  0  0  0
 36 56  1  0  0  0
 36111  1  0  0  0
 37 39  1  0  0  0
 37 47  1  0  0  0
 37 66  1  0  0  0
 37112  1  0  0  0
 38 43  2  0  0  0
 38 46  1  0  0  0
 38 47  1  0  0  0
 39 64  1  0  0  0
 39 67  2  0  0  0
 40 52  1  0  0  0
 40 53  2  0  0  0
 40 58  1  0  0  0
 41113  1  0  0  0
 41114  1  0  0  0
 41115  1  0  0  0
 41 48  1  0  0  0
 42 43  1  0  0  0
 42 66  1  0  0  0
 42116  1  0  0  0
 42117  1  0  0  0
 43 44  1  0  0  0
 44118  1  0  0  0
 45 46  2  0  0  0
 45119  1  0  0  0
 46120  1  0  0  0
 47121  1  0  0  0
 47122  1  0  0  0
 48 56  1  0  0  0
 48 65  1  0  0  0
 48123  1  0  0  0
 49 50  1  0  0  0
 49 53  1  0  0  0
 49 64  1  0  0  0
 49124  1  0  0  0
 50 51  1  0  0  0
 50125  1  0  0  0
 50126  1  0  0  0
 51 52  1  0  0  0
 51127  1  0  0  0
 51128  1  0  0  0
 52129  1  0  0  0
 52130  1  0  0  0
 53 54  1  0  0  0
 54 55  2  0  0  0
 54131  1  0  0  0
 55 57  1  0  0  0
 55132  1  0  0  0
 56 69  2  0  0  0
 57 58  2  0  0  0
 57133  1  0  0  0
 58134  1  0  0  0
 59 60  1  0  0  0
 59 61  1  0  0  0
 59 62  1  0  0  0
 60135  1  0  0  0
 60136  1  0  0  0
 60137  1  0  0  0
 61138  1  0  0  0
 61139  1  0  0  0
 61140  1  0  0  0
 62141  1  0  0  0
 62142  1  0  0  0
 62143  1  0  0  0
 63 65  1  0  0  0
 63144  1  0  0  0
 63145  1  0  0  0
 63146  1  0  0  0
 64147  1  0  0  0
 65148  1  0  0  0
 68 86  1  0  0  0
 71 72  2  0  0  0
 71 74  1  0  0  0
 71 82  1  0  0  0
 72 73  1  0  0  0
 72 86  1  0  0  0
 73 75  2  0  0  0
 73 83  1  0  0  0
 74 76  2  0  0  0
 74 84  1  0  0  0
 75 76  1  0  0  0
 75 88  1  0  0  0
 76 89  1  0  0  0
 77 79  1  0  0  0
 77 81  1  0  0  0
 77149  1  0  0  0
 77150  1  0  0  0
 78 80  1  0  0  0
 78 81  1  0  0  0
 78151  1  0  0  0
 78152  1  0  0  0
 79 87  1  0  0  0
 79153  1  0  0  0
 79154  1  0  0  0
 80 87  1  0  0  0
 80155  1  0  0  0
 80156  1  0  0  0
 81 88  1  0  0  0
 81157  1  0  0  0
 82158  1  0  0  0
 82159  1  0  0  0
 82160  1  0  0  0
 83161  1  0  0  0
 83162  1  0  0  0
 83163  1  0  0  0
 84164  1  0  0  0
 84165  1  0  0  0
 84166  1  0  0  0
 85 89  1  0  0  0
 85167  1  0  0  0
 85168  1  0  0  0
 85169  1  0  0  0
 86170  1  0  0  0
 86171  1  0  0  0
 88172  1  0  0  0
M  ISO  4   1 100  68 101  86 101  87 100
M  END
> <chiral flag>
0

> <version>
0

> <s_m_source_file>
/data/baiqing/PycharmProjects/Reinvent-master-3.2/result/LINK_invent/BTK/process_docking_weight1_custom_sum_contain_oxygen_bond_distance_aromatic_linkinvent_7_9_3/rearranged_h_0147.sdf

> <i_m_source_file_index>
22

> <r_mmod_Potential_Energy-OPLS-2005>
303.529144287109

> <r_mmod_Stretch_Energy-OPLS-2005>
79.1985321044922

> <r_mmod_Bend_Energy-OPLS-2005>
169.624710083008

> <r_mmod_Torsional_Energy-OPLS-2005>
355.311462402344

> <r_mmod_Improper_Torsional_Energy-OPLS-2005>
11.927077293396

> <r_mmod_Van_der_Waal_Energy-OPLS-2005>
180.488632202148

> <r_mmod_Electrostatic_Energy-OPLS-2005>
-336.745574951172

> <r_mmod_Solvation_Energy-OPLS-2005>
-198.89973449707

> <b_mmod_Minimization_Converged-OPLS-2005>
0

> <r_mmod_RMS_Derivative-OPLS-2005>
2.11547517776489

$$$$
22
                    3D
 Structure written by MMmdl.
170179  0  0  1  0            999 V2000
  -30.7852  -14.3684   20.7454 C   0  0  0  0  0  0
  -30.4104  -12.3148   19.4139 C   0  0  0  0  0  0
  -29.4806  -12.5242   18.2051 C   0  0  0  0  0  0
  -28.0080  -12.3640   18.6217 C   0  0  0  0  0  0
  -27.6551  -13.2083   19.8704 C   0  0  2  0  0  0
  -28.6868  -12.9860   20.9995 C   0  0  0  0  0  0
  -25.2466  -13.8171   20.5539 C   0  0  0  0  0  0
  -24.1761  -13.0443   20.9101 C   0  0  0  0  0  0
  -24.6357  -11.6900   20.8723 C   0  0  0  0  0  0
  -23.9064  -10.4278   21.0447 C   0  0  0  0  0  0
  -24.3608   -9.4180   21.9221 C   0  0  0  0  0  0
  -23.6285   -8.2211   22.0791 C   0  0  0  0  0  0
  -22.4265   -8.0259   21.3570 C   0  0  0  0  0  0
  -21.9887   -9.0232   20.4685 C   0  0  0  0  0  0
  -22.7225  -10.2113   20.3119 C   0  0  0  0  0  0
  -21.6829   -6.0750   22.5297 C   0  0  0  0  0  0
  -21.3984   -6.5666   23.8228 C   0  0  0  0  0  0
  -21.3636   -5.6823   24.9187 C   0  0  0  0  0  0
  -21.6009   -4.3084   24.7225 C   0  0  0  0  0  0
  -21.8808   -3.8177   23.4350 C   0  0  0  0  0  0
  -21.9170   -4.6985   22.3404 C   0  0  0  0  0  0
  -22.7768  -13.5196   21.1820 C   0  0  0  0  0  0
  -22.1668   -4.2170   21.0989 F   0  0  0  0  0  0
  -21.5585   -3.4571   25.7731 F   0  0  0  0  0  0
  -30.0352  -13.2659   20.4736 N   0  0  0  0  0  0
  -26.2950  -12.9378   20.3285 N   0  0  0  0  0  0
  -25.9274  -11.6536   20.5757 N   0  0  0  0  0  0
  -22.0468  -12.8239   22.0442 N   0  0  0  0  0  0
  -25.4055  -15.1904   20.3820 N   0  0  0  0  0  0
  -31.7909  -14.6773   20.0998 O   0  0  0  0  0  0
  -21.6624   -6.8874   21.4258 O   0  0  0  0  0  0
  -22.3409  -14.5478   20.6673 O   0  0  0  0  0  0
  -24.6168  -31.8706   23.2058 C   0  0  0  0  0  0
  -25.9050  -32.4833   23.8363 C   0  0  1  0  0  0
  -27.2259  -27.4286   20.0912 C   0  0  0  0  0  0
  -25.5915  -33.8621   24.2315 N   0  0  0  0  0  0
  -23.3985  -30.4957   21.5475 C   0  0  2  0  0  0
  -24.8431  -28.9641   20.1172 C   0  0  0  0  0  0
  -22.7399  -29.4691   22.4976 C   0  0  0  0  0  0
  -18.0276  -28.1380   22.8501 C   0  0  0  0  0  0
  -24.1508  -36.7320   23.2642 C   0  0  0  0  0  0
  -25.9257  -30.8458   21.3451 C   0  0  0  0  0  0
  -26.0053  -29.4741   20.7047 C   0  0  0  0  0  0
  -27.1971  -28.7128   20.6888 C   0  0  0  0  0  0
  -26.0320  -26.9352   19.5065 C   0  0  0  0  0  0
  -24.8500  -27.6951   19.5216 C   0  0  0  0  0  0
  -23.6035  -29.8254   20.1660 C   0  0  0  0  0  0
  -25.4118  -36.3120   24.0342 C   0  0  1  0  0  0
  -20.5876  -28.3662   23.1349 C   0  0  2  0  0  0
  -20.6768  -26.9380   22.5482 C   0  0  0  0  0  0
  -19.5766  -26.6403   21.5255 C   0  0  0  0  0  0
  -18.1940  -26.7907   22.1659 C   0  0  0  0  0  0
  -19.1529  -28.8830   23.2930 C   0  0  0  0  0  0
  -18.9461  -30.1422   23.8954 C   0  0  0  0  0  0
  -17.6466  -30.6579   24.0618 C   0  0  0  0  0  0
  -25.9036  -34.9476   23.5133 C   0  0  0  0  0  0
  -16.5360  -29.9106   23.6330 C   0  0  0  0  0  0
  -16.7266  -28.6537   23.0320 C   0  0  0  0  0  0
  -26.4471  -31.6581   25.0656 C   0  0  0  0  0  0
  -25.3698  -31.3675   26.1368 C   0  0  0  0  0  0
  -27.0321  -30.3056   24.5939 C   0  0  0  0  0  0
  -27.6083  -32.4267   25.7397 C   0  0  0  0  0  0
  -27.5585  -37.1807   24.8462 C   0  0  0  0  0  0
  -21.4126  -29.3029   22.3709 N   0  0  0  0  0  0
  -26.4297  -37.3797   23.9403 N   0  0  0  0  0  0
  -24.6661  -31.0823   22.0933 N   0  0  0  0  0  0
  -23.4180  -28.8248   23.3016 O   0  0  0  0  0  0
  -28.4183  -26.7255   20.0914 O   0  0  0  0  0  0
  -26.5615  -34.8937   22.4704 O   0  0  0  0  0  0
  -23.5366  -32.1421   23.7476 O   0  0  0  0  0  0
  -29.9876  -17.3286   21.3100 C   0  0  0  0  0  0
  -28.6372  -16.1987   22.9572 C   0  0  0  0  0  0
  -28.2200  -18.6079   22.4856 C   0  0  0  0  0  0
  -29.3093  -18.5465   21.5575 C   0  0  0  0  0  0
  -29.6845  -16.1539   22.0184 C   0  0  0  0  0  0
  -27.8961  -17.3873   23.1536 C   0  0  0  0  0  0
  -27.3137  -19.8186   22.8409 C   0  0  2  0  0  0
  -26.3568  -20.2369   21.7241 C   0  0  2  0  0  0
  -27.1338  -21.3036   22.4325 C   0  0  2  0  0  0
  -29.8513  -19.7407   20.8026 C   0  0  0  0  0  0
  -24.8583  -20.1401   21.9227 C   0  0  0  0  0  0
  -25.6342  -16.9130   23.3941 C   0  0  0  0  0  0
  -28.2751  -24.4087   20.9788 C   0  0  0  0  0  0
  -27.8951  -22.9398   20.6421 C   0  0  0  0  0  0
  -28.4455  -25.3302   19.7471 C   0  0  0  0  0  0
  -30.5215  -15.0066   21.8972 N   0  0  0  0  0  0
  -28.2427  -21.9867   21.7320 N   0  3  0  0  0  0
  -26.8392  -17.3327   24.0239 O   0  0  0  0  0  0
  -31.4498  -12.4390   19.1067 H   0  0  0  0  0  0
  -30.3328  -11.2901   19.7867 H   0  0  0  0  0  0
  -29.7220  -11.8137   17.4149 H   0  0  0  0  0  0
  -29.6433  -13.5138   17.7805 H   0  0  0  0  0  0
  -27.8394  -11.3054   18.8255 H   0  0  0  0  0  0
  -27.3467  -12.6231   17.7952 H   0  0  0  0  0  0
  -27.7024  -14.2551   19.5675 H   0  0  0  0  0  0
  -28.6470  -11.9608   21.3663 H   0  0  0  0  0  0
  -28.4211  -13.6062   21.8531 H   0  0  0  0  0  0
  -25.2772   -9.5567   22.4815 H   0  0  0  0  0  0
  -23.9962   -7.4583   22.7502 H   0  0  0  0  0  0
  -21.0821   -8.8720   19.9014 H   0  0  0  0  0  0
  -22.3700  -10.9634   19.6230 H   0  0  0  0  0  0
  -21.2014   -7.6189   23.9705 H   0  0  0  0  0  0
  -21.1474   -6.0597   25.9076 H   0  0  0  0  0  0
  -22.0617   -2.7650   23.2853 H   0  0  0  0  0  0
  -22.4134  -11.9896   22.4803 H   0  0  0  0  0  0
  -21.1122  -13.1296   22.2768 H   0  0  0  0  0  0
  -24.6070  -15.8127   20.4160 H   0  0  0  0  0  0
  -26.2413  -15.6395   20.0310 H   0  0  0  0  0  0
  -26.7119  -32.5560   23.1144 H   0  0  0  0  0  0
  -25.0028  -33.9772   25.0431 H   0  0  0  0  0  0
  -22.6870  -31.3137   21.4097 H   0  0  0  0  0  0
  -23.3769  -35.9661   23.3320 H   0  0  0  0  0  0
  -24.3600  -36.8902   22.2054 H   0  0  0  0  0  0
  -23.7260  -37.6524   23.6646 H   0  0  0  0  0  0
  -26.0045  -31.6002   20.5613 H   0  0  0  0  0  0
  -26.8299  -30.9311   21.9348 H   0  0  0  0  0  0
  -28.0952  -29.1108   21.1371 H   0  0  0  0  0  0
  -25.9625  -25.9750   19.0229 H   0  0  0  0  0  0
  -23.9468  -27.2962   19.0819 H   0  0  0  0  0  0
  -23.7001  -30.5973   19.4011 H   0  0  0  0  0  0
  -22.7293  -29.2363   19.8796 H   0  0  0  0  0  0
  -25.1301  -36.1992   25.0833 H   0  0  0  0  0  0
  -20.9978  -28.3254   24.1461 H   0  0  0  0  0  0
  -21.6653  -26.7424   22.1299 H   0  0  0  0  0  0
  -20.5644  -26.2270   23.3691 H   0  0  0  0  0  0
  -19.6953  -25.6340   21.1235 H   0  0  0  0  0  0
  -19.6690  -27.3259   20.6835 H   0  0  0  0  0  0
  -17.4197  -26.6585   21.4101 H   0  0  0  0  0  0
  -18.0389  -26.0070   22.9094 H   0  0  0  0  0  0
  -19.7934  -30.7210   24.2371 H   0  0  0  0  0  0
  -17.4988  -31.6229   24.5268 H   0  0  0  0  0  0
  -15.5350  -30.3003   23.7630 H   0  0  0  0  0  0
  -15.8638  -28.0922   22.6986 H   0  0  0  0  0  0
  -24.5880  -30.7035   25.7647 H   0  0  0  0  0  0
  -24.8858  -32.2830   26.4785 H   0  0  0  0  0  0
  -25.7969  -30.8810   27.0140 H   0  0  0  0  0  0
  -26.2851  -29.6774   24.1059 H   0  0  0  0  0  0
  -27.4271  -29.7293   25.4321 H   0  0  0  0  0  0
  -27.8590  -30.4459   23.8960 H   0  0  0  0  0  0
  -27.2763  -33.3575   26.2013 H   0  0  0  0  0  0
  -28.3857  -32.6799   25.0169 H   0  0  0  0  0  0
  -28.0809  -31.8341   26.5236 H   0  0  0  0  0  0
  -28.2624  -38.0089   24.7516 H   0  0  0  0  0  0
  -28.1055  -36.2613   24.6294 H   0  0  0  0  0  0
  -27.2298  -37.1479   25.8865 H   0  0  0  0  0  0
  -20.9248  -29.8624   21.6861 H   0  0  0  0  0  0
  -26.0201  -38.2887   24.1370 H   0  0  0  0  0  0
  -30.7927  -17.3042   20.5886 H   0  0  0  0  0  0
  -28.3870  -15.3301   23.5470 H   0  0  0  0  0  0
  -26.9183  -19.6676   23.8444 H   0  0  0  0  0  0
  -26.6674  -20.0281   20.7039 H   0  0  0  0  0  0
  -26.5665  -21.9698   23.0788 H   0  0  0  0  0  0
  -30.7212  -19.4777   20.1988 H   0  0  0  0  0  0
  -30.2198  -20.4926   21.5015 H   0  0  0  0  0  0
  -29.1019  -20.1332   20.1189 H   0  0  0  0  0  0
  -24.4958  -19.1925   21.5243 H   0  0  0  0  0  0
  -24.3512  -20.9504   21.3972 H   0  0  0  0  0  0
  -24.5964  -20.2072   22.9804 H   0  0  0  0  0  0
  -24.7818  -17.4229   23.8431 H   0  0  0  0  0  0
  -25.5052  -15.8383   23.5233 H   0  0  0  0  0  0
  -25.6201  -17.1293   22.3221 H   0  0  0  0  0  0
  -29.2239  -24.4262   21.5141 H   0  0  0  0  0  0
  -27.5255  -24.8157   21.6573 H   0  0  0  0  0  0
  -28.4600  -22.6299   19.7619 H   0  0  0  0  0  0
  -26.8436  -22.8653   20.3635 H   0  0  0  0  0  0
  -29.4313  -25.1407   19.3215 H   0  0  0  0  0  0
  -27.7629  -25.0630   18.9458 H   0  0  0  0  0  0
  -31.4258  -15.2215   22.2929 H   0  0  0  0  0  0
  -28.8611  -21.2806   21.3694 H   0  0  0  0  0  0
  -28.7586  -22.5010   22.4282 H   0  0  0  0  0  0
  1 25  1  0  0  0
  1 30  2  0  0  0
  1 86  1  0  0  0
  2  3  1  0  0  0
  2 25  1  0  0  0
  2 89  1  0  0  0
  2 90  1  0  0  0
  3  4  1  0  0  0
  3 91  1  0  0  0
  3 92  1  0  0  0
  4  5  1  0  0  0
  4 93  1  0  0  0
  4 94  1  0  0  0
  5  6  1  0  0  0
  5 26  1  0  0  0
  5 95  1  0  0  0
  6 25  1  0  0  0
  6 96  1  0  0  0
  6 97  1  0  0  0
  7  8  2  0  0  0
  7 26  1  0  0  0
  7 29  1  0  0  0
  8  9  1  0  0  0
  8 22  1  0  0  0
  9 10  1  0  0  0
  9 27  2  0  0  0
 10 11  2  0  0  0
 10 15  1  0  0  0
 11 12  1  0  0  0
 11 98  1  0  0  0
 12 13  2  0  0  0
 12 99  1  0  0  0
 13 14  1  0  0  0
 13 31  1  0  0  0
 14 15  2  0  0  0
 14100  1  0  0  0
 15101  1  0  0  0
 16 17  2  0  0  0
 16 21  1  0  0  0
 16 31  1  0  0  0
 17 18  1  0  0  0
 17102  1  0  0  0
 18 19  2  0  0  0
 18103  1  0  0  0
 19 20  1  0  0  0
 19 24  1  0  0  0
 20 21  2  0  0  0
 20104  1  0  0  0
 21 23  1  0  0  0
 22 28  1  0  0  0
 22 32  2  0  0  0
 26 27  1  0  0  0
 28105  1  0  0  0
 28106  1  0  0  0
 29107  1  0  0  0
 29108  1  0  0  0
 33 34  1  0  0  0
 33 66  1  0  0  0
 33 70  2  0  0  0
 34 36  1  0  0  0
 34 59  1  0  0  0
 34109  1  0  0  0
 35 44  2  0  0  0
 35 45  1  0  0  0
 35 68  1  0  0  0
 36 56  1  0  0  0
 36110  1  0  0  0
 37 39  1  0  0  0
 37 47  1  0  0  0
 37 66  1  0  0  0
 37111  1  0  0  0
 38 43  2  0  0  0
 38 46  1  0  0  0
 38 47  1  0  0  0
 39 64  1  0  0  0
 39 67  2  0  0  0
 40 52  1  0  0  0
 40 53  2  0  0  0
 40 58  1  0  0  0
 41112  1  0  0  0
 41113  1  0  0  0
 41114  1  0  0  0
 41 48  1  0  0  0
 42 43  1  0  0  0
 42 66  1  0  0  0
 42115  1  0  0  0
 42116  1  0  0  0
 43 44  1  0  0  0
 44117  1  0  0  0
 45 46  2  0  0  0
 45118  1  0  0  0
 46119  1  0  0  0
 47120  1  0  0  0
 47121  1  0  0  0
 48 56  1  0  0  0
 48 65  1  0  0  0
 48122  1  0  0  0
 49 50  1  0  0  0
 49 53  1  0  0  0
 49 64  1  0  0  0
 49123  1  0  0  0
 50 51  1  0  0  0
 50124  1  0  0  0
 50125  1  0  0  0
 51 52  1  0  0  0
 51126  1  0  0  0
 51127  1  0  0  0
 52128  1  0  0  0
 52129  1  0  0  0
 53 54  1  0  0  0
 54 55  2  0  0  0
 54130  1  0  0  0
 55 57  1  0  0  0
 55131  1  0  0  0
 56 69  2  0  0  0
 57 58  2  0  0  0
 57132  1  0  0  0
 58133  1  0  0  0
 59 60  1  0  0  0
 59 61  1  0  0  0
 59 62  1  0  0  0
 60134  1  0  0  0
 60135  1  0  0  0
 60136  1  0  0  0
 61137  1  0  0  0
 61138  1  0  0  0
 61139  1  0  0  0
 62140  1  0  0  0
 62141  1  0  0  0
 62142  1  0  0  0
 63 65  1  0  0  0
 63143  1  0  0  0
 63144  1  0  0  0
 63145  1  0  0  0
 64146  1  0  0  0
 65147  1  0  0  0
 68 85  1  0  0  0
 71 74  2  0  0  0
 71 75  1  0  0  0
 71148  1  0  0  0
 72 75  2  0  0  0
 72 76  1  0  0  0
 72149  1  0  0  0
 73 74  1  0  0  0
 73 76  2  0  0  0
 73 77  1  0  0  0
 74 80  1  0  0  0
 75 86  1  0  0  0
 76 88  1  0  0  0
 77 78  1  0  0  0
 77 79  1  0  0  0
 77150  1  0  0  0
 78 79  1  0  0  0
 78 81  1  0  0  0
 78151  1  0  0  0
 79 87  1  0  0  0
 79152  1  0  0  0
 80153  1  0  0  0
 80154  1  0  0  0
 80155  1  0  0  0
 81156  1  0  0  0
 81157  1  0  0  0
 81158  1  0  0  0
 82 88  1  0  0  0
 82159  1  0  0  0
 82160  1  0  0  0
 82161  1  0  0  0
 83 84  1  0  0  0
 83 85  1  0  0  0
 83162  1  0  0  0
 83163  1  0  0  0
 84 87  1  0  0  0
 84164  1  0  0  0
 84165  1  0  0  0
 85166  1  0  0  0
 85167  1  0  0  0
 86168  1  0  0  0
 87169  1  0  0  0
 87170  1  0  0  0
M  CHG  1  87   1
M  ISO  4   1 100  68 101  85 101  86 100
M  END
> <chiral flag>
0

> <version>
0

> <s_m_source_file>
/data/baiqing/PycharmProjects/Reinvent-master-3.2/result/LINK_invent/BTK/process_docking_weight1_custom_sum_contain_oxygen_bond_distance_aromatic_linkinvent_7_9_3/rearranged_h_0147.sdf

> <i_m_source_file_index>
23

> <r_mmod_Potential_Energy-OPLS-2005>
-17.2427654266357

> <r_mmod_Stretch_Energy-OPLS-2005>
46.0389633178711

> <r_mmod_Bend_Energy-OPLS-2005>
180.178894042969

> <r_mmod_Torsional_Energy-OPLS-2005>
366.569946289062

> <r_mmod_Improper_Torsional_Energy-OPLS-2005>
10.797384262085

> <r_mmod_Van_der_Waal_Energy-OPLS-2005>
145.846939086914

> <r_mmod_Electrostatic_Energy-OPLS-2005>
-311.057342529297

> <r_mmod_Solvation_Energy-OPLS-2005>
-466.025085449219

> <b_mmod_Minimization_Converged-OPLS-2005>
0

> <r_mmod_RMS_Derivative-OPLS-2005>
6.33990621566772

$$$$
23
                    3D
 Structure written by MMmdl.
166175  0  0  1  0            999 V2000
  -30.7654  -14.4877   20.6728 C   0  0  0  0  0  0
  -30.4205  -12.3512   19.4434 C   0  0  0  0  0  0
  -29.4901  -12.5139   18.2275 C   0  0  0  0  0  0
  -28.0170  -12.3659   18.6386 C   0  0  0  0  0  0
  -27.6633  -13.2197   19.8825 C   0  0  2  0  0  0
  -28.7025  -13.0505   21.0141 C   0  0  0  0  0  0
  -25.2549  -13.8169   20.5700 C   0  0  0  0  0  0
  -24.1821  -13.0443   20.9159 C   0  0  0  0  0  0
  -24.6392  -11.6929   20.8723 C   0  0  0  0  0  0
  -23.9076  -10.4307   21.0396 C   0  0  0  0  0  0
  -24.3640   -9.4193   21.9163 C   0  0  0  0  0  0
  -23.6321   -8.2227   22.0720 C   0  0  0  0  0  0
  -22.4273   -8.0304   21.3536 C   0  0  0  0  0  0
  -21.9895   -9.0283   20.4657 C   0  0  0  0  0  0
  -22.7220  -10.2157   20.3078 C   0  0  0  0  0  0
  -21.6805   -6.0778   22.5305 C   0  0  0  0  0  0
  -21.3996   -6.5663   23.8259 C   0  0  0  0  0  0
  -21.3663   -5.6783   24.9188 C   0  0  0  0  0  0
  -21.6040   -4.3046   24.7210 C   0  0  0  0  0  0
  -21.8787   -3.8180   23.4314 C   0  0  0  0  0  0
  -21.9169   -4.7019   22.3402 C   0  0  0  0  0  0
  -22.7840  -13.5251   21.1794 C   0  0  0  0  0  0
  -22.1650   -4.2230   21.0961 F   0  0  0  0  0  0
  -21.5630   -3.4513   25.7708 F   0  0  0  0  0  0
  -30.0451  -13.3412   20.4745 N   0  0  0  0  0  0
  -26.3043  -12.9403   20.3412 N   0  0  0  0  0  0
  -25.9324  -11.6551   20.5794 N   0  0  0  0  0  0
  -22.0409  -12.8248   22.0276 N   0  0  0  0  0  0
  -25.4172  -15.1889   20.4172 N   0  0  0  0  0  0
  -31.7358  -14.7776   19.9637 O   0  0  0  0  0  0
  -21.6600   -6.8910   21.4254 O   0  0  0  0  0  0
  -22.3622  -14.5624   20.6668 O   0  0  0  0  0  0
  -24.6247  -31.8593   23.2003 C   0  0  0  0  0  0
  -25.9088  -32.4783   23.8349 C   0  0  1  0  0  0
  -27.2385  -27.3211   20.1460 C   0  0  0  0  0  0
  -25.5905  -33.8582   24.2264 N   0  0  0  0  0  0
  -23.4170  -30.4792   21.5427 C   0  0  2  0  0  0
  -24.8700  -28.9301   20.1088 C   0  0  0  0  0  0
  -22.7468  -29.4606   22.4925 C   0  0  0  0  0  0
  -18.0267  -28.1389   22.8491 C   0  0  0  0  0  0
  -24.1474  -36.7297   23.2638 C   0  0  0  0  0  0
  -25.9536  -30.7924   21.3674 C   0  0  0  0  0  0
  -26.0341  -29.4174   20.7166 C   0  0  0  0  0  0
  -27.2166  -28.6275   20.7231 C   0  0  0  0  0  0
  -26.0586  -26.8853   19.4977 C   0  0  0  0  0  0
  -24.8860  -27.6718   19.4843 C   0  0  0  0  0  0
  -23.6343  -29.8078   20.1593 C   0  0  0  0  0  0
  -25.4094  -36.3084   24.0328 C   0  0  1  0  0  0
  -20.5883  -28.3673   23.1292 C   0  0  2  0  0  0
  -20.6764  -26.9406   22.5408 C   0  0  0  0  0  0
  -19.5747  -26.6384   21.5206 C   0  0  0  0  0  0
  -18.1923  -26.7932   22.1621 C   0  0  0  0  0  0
  -19.1529  -28.8842   23.2882 C   0  0  0  0  0  0
  -18.9454  -30.1454   23.8890 C   0  0  0  0  0  0
  -17.6459  -30.6596   24.0566 C   0  0  0  0  0  0
  -25.9035  -34.9459   23.5082 C   0  0  0  0  0  0
  -16.5348  -29.9095   23.6353 C   0  0  0  0  0  0
  -16.7253  -28.6509   23.0370 C   0  0  0  0  0  0
  -26.4477  -31.6601   25.0721 C   0  0  0  0  0  0
  -25.3718  -31.3762   26.1461 C   0  0  0  0  0  0
  -27.0301  -30.3032   24.6144 C   0  0  0  0  0  0
  -27.6019  -32.4353   25.7497 C   0  0  0  0  0  0
  -27.5575  -37.1803   24.8465 C   0  0  0  0  0  0
  -21.4187  -29.3025   22.3686 N   0  0  0  0  0  0
  -26.4262  -37.3793   23.9431 N   0  0  0  0  0  0
  -24.6831  -31.0616   22.0940 N   0  0  0  0  0  0
  -23.4173  -28.8157   23.3020 O   0  0  0  0  0  0
  -28.3774  -26.5061   20.2353 O   0  0  0  0  0  0
  -26.5625  -34.8935   22.4668 O   0  0  0  0  0  0
  -23.5426  -32.1361   23.7350 O   0  0  0  0  0  0
  -27.5608  -20.6028   22.4684 C   0  0  0  0  0  0
  -28.1481  -19.3207   22.3927 C   0  0  0  0  0  0
  -29.3918  -19.1501   21.6943 C   0  0  0  0  0  0
  -29.9296  -20.3881   21.1608 C   0  0  0  0  0  0
  -29.2174  -21.6366   21.2565 C   0  0  0  0  0  0
  -30.8079  -15.3242   24.2144 C   0  0  0  0  0  0
  -30.0198  -16.5341   23.7270 C   0  0  0  0  0  0
  -31.4394  -14.7328   22.9672 C   0  0  0  0  0  0
  -29.8143  -16.3874   22.1978 C   0  0  1  0  0  0
  -27.3496  -18.2539   23.1351 C   0  0  0  0  0  0
  -31.2994  -20.4247   20.4887 C   0  0  0  0  0  0
  -30.1485  -17.7594   21.4434 C   0  0  0  0  0  0
  -28.2751  -25.0304   20.1327 C   0  0  0  0  0  0
  -29.2336  -24.1666   21.0629 C   0  0  0  0  0  0
  -28.0514  -21.7174   21.9068 N   0  0  0  0  0  0
  -30.5875  -15.1419   21.8533 N   0  0  0  0  0  0
  -29.6564  -22.8193   20.6317 O   0  0  0  0  0  0
  -31.4659  -12.4459   19.1323 H   0  0  0  0  0  0
  -30.3288  -11.3462   19.8615 H   0  0  0  0  0  0
  -29.7341  -11.7751   17.4639 H   0  0  0  0  0  0
  -29.6386  -13.4915   17.7710 H   0  0  0  0  0  0
  -27.8208  -11.3097   18.8347 H   0  0  0  0  0  0
  -27.3789  -12.6485   17.8010 H   0  0  0  0  0  0
  -27.6941  -14.2601   19.5612 H   0  0  0  0  0  0
  -28.6763  -12.0385   21.4177 H   0  0  0  0  0  0
  -28.4408  -13.7047   21.8456 H   0  0  0  0  0  0
  -25.2793   -9.5621   22.4707 H   0  0  0  0  0  0
  -24.0043   -7.4617   22.7398 H   0  0  0  0  0  0
  -21.0811   -8.8783   19.9019 H   0  0  0  0  0  0
  -22.3686  -10.9680   19.6211 H   0  0  0  0  0  0
  -21.1998   -7.6180   23.9774 H   0  0  0  0  0  0
  -21.1507   -6.0517   25.9097 H   0  0  0  0  0  0
  -22.0546   -2.7664   23.2781 H   0  0  0  0  0  0
  -22.3962  -11.9864   22.4622 H   0  0  0  0  0  0
  -21.0989  -13.1240   22.2359 H   0  0  0  0  0  0
  -24.6307  -15.8187   20.5379 H   0  0  0  0  0  0
  -26.2559  -15.6544   20.0978 H   0  0  0  0  0  0
  -26.7162  -32.5452   23.1111 H   0  0  0  0  0  0
  -25.0087  -33.9729   25.0436 H   0  0  0  0  0  0
  -22.7084  -31.2965   21.3991 H   0  0  0  0  0  0
  -23.3736  -35.9639   23.3293 H   0  0  0  0  0  0
  -24.3563  -36.8919   22.2060 H   0  0  0  0  0  0
  -23.7215  -37.6493   23.6655 H   0  0  0  0  0  0
  -26.0745  -31.5456   20.5876 H   0  0  0  0  0  0
  -26.8376  -30.8532   21.9892 H   0  0  0  0  0  0
  -28.1048  -29.0028   21.2144 H   0  0  0  0  0  0
  -26.0259  -25.9249   19.0035 H   0  0  0  0  0  0
  -23.9952  -27.2977   18.9978 H   0  0  0  0  0  0
  -23.7480  -30.5784   19.3962 H   0  0  0  0  0  0
  -22.7566  -29.2298   19.8644 H   0  0  0  0  0  0
  -25.1282  -36.1944   25.0823 H   0  0  0  0  0  0
  -20.9954  -28.3241   24.1425 H   0  0  0  0  0  0
  -20.5668  -26.2292   23.3595 H   0  0  0  0  0  0
  -21.6639  -26.7453   22.1225 H   0  0  0  0  0  0
  -19.6906  -25.6285   21.1247 H   0  0  0  0  0  0
  -19.6696  -27.3191   20.6730 H   0  0  0  0  0  0
  -17.4213  -26.6685   21.4011 H   0  0  0  0  0  0
  -18.0327  -26.0060   22.9004 H   0  0  0  0  0  0
  -19.7929  -30.7281   24.2254 H   0  0  0  0  0  0
  -17.5017  -31.6279   24.5169 H   0  0  0  0  0  0
  -15.5353  -30.3007   23.7655 H   0  0  0  0  0  0
  -15.8653  -28.0816   22.7101 H   0  0  0  0  0  0
  -24.5884  -30.7104   25.7822 H   0  0  0  0  0  0
  -24.8916  -32.2946   26.4865 H   0  0  0  0  0  0
  -25.8060  -30.8980   27.0246 H   0  0  0  0  0  0
  -26.2864  -29.6821   24.1134 H   0  0  0  0  0  0
  -27.3981  -29.7259   25.4628 H   0  0  0  0  0  0
  -27.8740  -30.4340   23.9362 H   0  0  0  0  0  0
  -27.2599  -33.3652   26.2059 H   0  0  0  0  0  0
  -28.3835  -32.6914   25.0332 H   0  0  0  0  0  0
  -28.0675  -31.8495   26.5433 H   0  0  0  0  0  0
  -28.2594  -38.0104   24.7539 H   0  0  0  0  0  0
  -28.1061  -36.2638   24.6241 H   0  0  0  0  0  0
  -27.2310  -37.1413   25.8871 H   0  0  0  0  0  0
  -20.9345  -29.8742   21.6894 H   0  0  0  0  0  0
  -26.0141  -38.2866   24.1442 H   0  0  0  0  0  0
  -26.6268  -20.7413   22.9961 H   0  0  0  0  0  0
  -30.1329  -14.5933   24.6665 H   0  0  0  0  0  0
  -31.5524  -15.5953   24.9632 H   0  0  0  0  0  0
  -30.5872  -17.4346   23.9622 H   0  0  0  0  0  0
  -29.0855  -16.5873   24.2763 H   0  0  0  0  0  0
  -31.5281  -13.6461   23.0437 H   0  0  0  0  0  0
  -32.4481  -15.1188   22.8173 H   0  0  0  0  0  0
  -28.7963  -16.0863   21.9669 H   0  0  0  0  0  0
  -26.2968  -18.5424   23.1758 H   0  0  0  0  0  0
  -27.6670  -18.1947   24.1748 H   0  0  0  0  0  0
  -27.3357  -17.2656   22.6992 H   0  0  0  0  0  0
  -31.2273  -20.1023   19.4507 H   0  0  0  0  0  0
  -32.0315  -19.8008   21.0041 H   0  0  0  0  0  0
  -31.7192  -21.4337   20.5028 H   0  0  0  0  0  0
  -31.2083  -17.9324   21.6353 H   0  0  0  0  0  0
  -30.0878  -17.5744   20.3698 H   0  0  0  0  0  0
  -27.2613  -24.6837   20.3375 H   0  0  0  0  0  0
  -28.4792  -24.7790   19.0901 H   0  0  0  0  0  0
  -28.8552  -24.1565   22.0852 H   0  0  0  0  0  0
  -30.1699  -24.7224   21.1365 H   0  0  0  0  0  0
  1 25  1  0  0  0
  1 30  2  0  0  0
  1 86  1  0  0  0
  2  3  1  0  0  0
  2 25  1  0  0  0
  2 88  1  0  0  0
  2 89  1  0  0  0
  3  4  1  0  0  0
  3 90  1  0  0  0
  3 91  1  0  0  0
  4  5  1  0  0  0
  4 92  1  0  0  0
  4 93  1  0  0  0
  5  6  1  0  0  0
  5 26  1  0  0  0
  5 94  1  0  0  0
  6 25  1  0  0  0
  6 95  1  0  0  0
  6 96  1  0  0  0
  7  8  2  0  0  0
  7 26  1  0  0  0
  7 29  1  0  0  0
  8  9  1  0  0  0
  8 22  1  0  0  0
  9 10  1  0  0  0
  9 27  2  0  0  0
 10 11  2  0  0  0
 10 15  1  0  0  0
 11 12  1  0  0  0
 11 97  1  0  0  0
 12 13  2  0  0  0
 12 98  1  0  0  0
 13 14  1  0  0  0
 13 31  1  0  0  0
 14 15  2  0  0  0
 14 99  1  0  0  0
 15100  1  0  0  0
 16 17  2  0  0  0
 16 21  1  0  0  0
 16 31  1  0  0  0
 17 18  1  0  0  0
 17101  1  0  0  0
 18 19  2  0  0  0
 18102  1  0  0  0
 19 20  1  0  0  0
 19 24  1  0  0  0
 20 21  2  0  0  0
 20103  1  0  0  0
 21 23  1  0  0  0
 22 28  1  0  0  0
 22 32  2  0  0  0
 26 27  1  0  0  0
 28104  1  0  0  0
 28105  1  0  0  0
 29106  1  0  0  0
 29107  1  0  0  0
 33 34  1  0  0  0
 33 66  1  0  0  0
 33 70  2  0  0  0
 34 36  1  0  0  0
 34 59  1  0  0  0
 34108  1  0  0  0
 35 44  2  0  0  0
 35 45  1  0  0  0
 35 68  1  0  0  0
 36 56  1  0  0  0
 36109  1  0  0  0
 37 39  1  0  0  0
 37 47  1  0  0  0
 37 66  1  0  0  0
 37110  1  0  0  0
 38 43  2  0  0  0
 38 46  1  0  0  0
 38 47  1  0  0  0
 39 64  1  0  0  0
 39 67  2  0  0  0
 40 52  1  0  0  0
 40 53  2  0  0  0
 40 58  1  0  0  0
 41111  1  0  0  0
 41112  1  0  0  0
 41113  1  0  0  0
 41 48  1  0  0  0
 42 43  1  0  0  0
 42 66  1  0  0  0
 42114  1  0  0  0
 42115  1  0  0  0
 43 44  1  0  0  0
 44116  1  0  0  0
 45 46  2  0  0  0
 45117  1  0  0  0
 46118  1  0  0  0
 47119  1  0  0  0
 47120  1  0  0  0
 48 56  1  0  0  0
 48 65  1  0  0  0
 48121  1  0  0  0
 49 50  1  0  0  0
 49 53  1  0  0  0
 49 64  1  0  0  0
 49122  1  0  0  0
 50 51  1  0  0  0
 50123  1  0  0  0
 50124  1  0  0  0
 51 52  1  0  0  0
 51125  1  0  0  0
 51126  1  0  0  0
 52127  1  0  0  0
 52128  1  0  0  0
 53 54  1  0  0  0
 54 55  2  0  0  0
 54129  1  0  0  0
 55 57  1  0  0  0
 55130  1  0  0  0
 56 69  2  0  0  0
 57 58  2  0  0  0
 57131  1  0  0  0
 58132  1  0  0  0
 59 60  1  0  0  0
 59 61  1  0  0  0
 59 62  1  0  0  0
 60133  1  0  0  0
 60134  1  0  0  0
 60135  1  0  0  0
 61136  1  0  0  0
 61137  1  0  0  0
 61138  1  0  0  0
 62139  1  0  0  0
 62140  1  0  0  0
 62141  1  0  0  0
 63 65  1  0  0  0
 63142  1  0  0  0
 63143  1  0  0  0
 63144  1  0  0  0
 64145  1  0  0  0
 65146  1  0  0  0
 68 83  1  0  0  0
 71 72  2  0  0  0
 71 85  1  0  0  0
 71147  1  0  0  0
 72 73  1  0  0  0
 72 80  1  0  0  0
 73 74  2  0  0  0
 73 82  1  0  0  0
 74 75  1  0  0  0
 74 81  1  0  0  0
 75 85  2  0  0  0
 75 87  1  0  0  0
 76 77  1  0  0  0
 76 78  1  0  0  0
 76148  1  0  0  0
 76149  1  0  0  0
 77 79  1  0  0  0
 77150  1  0  0  0
 77151  1  0  0  0
 78 86  1  0  0  0
 78152  1  0  0  0
 78153  1  0  0  0
 79 82  1  0  0  0
 79 86  1  0  0  0
 79154  1  0  0  0
 80155  1  0  0  0
 80156  1  0  0  0
 80157  1  0  0  0
 81158  1  0  0  0
 81159  1  0  0  0
 81160  1  0  0  0
 82161  1  0  0  0
 82162  1  0  0  0
 83 84  1  0  0  0
 83163  1  0  0  0
 83164  1  0  0  0
 84 87  1  0  0  0
 84165  1  0  0  0
 84166  1  0  0  0
M  ISO  4   1 100  68 101  83 101  86 100
M  END
> <chiral flag>
0

> <version>
0

> <s_m_source_file>
/data/baiqing/PycharmProjects/Reinvent-master-3.2/result/LINK_invent/BTK/process_docking_weight1_custom_sum_contain_oxygen_bond_distance_aromatic_linkinvent_7_9_3/rearranged_h_0147.sdf

> <i_m_source_file_index>
24

> <r_mmod_Potential_Energy-OPLS-2005>
179.392059326172

> <r_mmod_Stretch_Energy-OPLS-2005>
94.1571578979492

> <r_mmod_Bend_Energy-OPLS-2005>
196.767669677734

> <r_mmod_Torsional_Energy-OPLS-2005>
359.770874023438

> <r_mmod_Improper_Torsional_Energy-OPLS-2005>
7.71678352355957

> <r_mmod_Van_der_Waal_Energy-OPLS-2005>
149.309097290039

> <r_mmod_Electrostatic_Energy-OPLS-2005>
-460.265869140625

> <r_mmod_Solvation_Energy-OPLS-2005>
-201.139755249023

> <b_mmod_Minimization_Converged-OPLS-2005>
0

> <r_mmod_RMS_Derivative-OPLS-2005>
5.88374757766724

$$$$
24
                    3D
 Structure written by MMmdl.
157166  0  0  1  0            999 V2000
  -30.5566  -15.0716   20.4227 C   0  0  0  0  0  0
  -30.4198  -12.6815   19.5159 C   0  0  0  0  0  0
  -29.5230  -12.5726   18.2632 C   0  0  0  0  0  0
  -28.0599  -12.3354   18.6797 C   0  0  0  0  0  0
  -27.6191  -13.2733   19.8338 C   0  0  2  0  0  0
  -28.6562  -13.3803   20.9705 C   0  0  0  0  0  0
  -25.2415  -13.8284   20.5759 C   0  0  0  0  0  0
  -24.1744  -13.0478   20.9216 C   0  0  0  0  0  0
  -24.6379  -11.6969   20.8748 C   0  0  0  0  0  0
  -23.9058  -10.4319   21.0419 C   0  0  0  0  0  0
  -24.3603   -9.4237   21.9200 C   0  0  0  0  0  0
  -23.6281   -8.2270   22.0778 C   0  0  0  0  0  0
  -22.4259   -8.0300   21.3554 C   0  0  0  0  0  0
  -21.9882   -9.0277   20.4665 C   0  0  0  0  0  0
  -22.7217  -10.2153   20.3065 C   0  0  0  0  0  0
  -21.6851   -6.0726   22.5276 C   0  0  0  0  0  0
  -21.4030   -6.5622   23.8208 C   0  0  0  0  0  0
  -21.3668   -5.6776   24.9164 C   0  0  0  0  0  0
  -21.6039   -4.3040   24.7216 C   0  0  0  0  0  0
  -21.8811   -3.8130   23.4343 C   0  0  0  0  0  0
  -21.9201   -4.6956   22.3396 C   0  0  0  0  0  0
  -22.7755  -13.5254   21.1863 C   0  0  0  0  0  0
  -22.1668   -4.2149   21.0980 F   0  0  0  0  0  0
  -21.5629   -3.4519   25.7732 F   0  0  0  0  0  0
  -29.9088  -13.8243   20.3464 N   0  0  0  0  0  0
  -26.2847  -12.9543   20.3232 N   0  0  0  0  0  0
  -25.9314  -11.6654   20.5687 N   0  0  0  0  0  0
  -22.0370  -12.8248   22.0393 N   0  0  0  0  0  0
  -25.4135  -15.2017   20.4271 N   0  0  0  0  0  0
  -31.7704  -15.0086   20.1771 O   0  0  0  0  0  0
  -21.6638   -6.8879   21.4245 O   0  0  0  0  0  0
  -22.3449  -14.5574   20.6728 O   0  0  0  0  0  0
  -24.6505  -31.8343   23.1796 C   0  0  0  0  0  0
  -25.9228  -32.4622   23.8220 C   0  0  1  0  0  0
  -27.2138  -27.0297   20.2105 C   0  0  0  0  0  0
  -25.5922  -33.8437   24.2117 N   0  0  0  0  0  0
  -23.4580  -30.4487   21.5255 C   0  0  2  0  0  0
  -24.9096  -28.8473   20.1157 C   0  0  0  0  0  0
  -22.7594  -29.4481   22.4812 C   0  0  0  0  0  0
  -18.0318  -28.1397   22.8497 C   0  0  0  0  0  0
  -24.1491  -36.7251   23.2647 C   0  0  0  0  0  0
  -26.0165  -30.6748   21.3916 C   0  0  0  0  0  0
  -26.0844  -29.2711   20.7505 C   0  0  0  0  0  0
  -27.2329  -28.3805   20.7769 C   0  0  0  0  0  0
  -26.0171  -26.7269   19.5263 C   0  0  0  0  0  0
  -24.8956  -27.5929   19.4850 C   0  0  0  0  0  0
  -23.6913  -29.7662   20.1480 C   0  0  0  0  0  0
  -25.4115  -36.2993   24.0314 C   0  0  1  0  0  0
  -20.5944  -28.3720   23.1241 C   0  0  2  0  0  0
  -20.6781  -26.9403   22.5437 C   0  0  0  0  0  0
  -19.5738  -26.6377   21.5245 C   0  0  0  0  0  0
  -18.1930  -26.7939   22.1653 C   0  0  0  0  0  0
  -19.1583  -28.8878   23.2861 C   0  0  0  0  0  0
  -18.9488  -30.1488   23.8848 C   0  0  0  0  0  0
  -17.6473  -30.6582   24.0592 C   0  0  0  0  0  0
  -25.9064  -34.9363   23.5032 C   0  0  0  0  0  0
  -16.5373  -29.9073   23.6362 C   0  0  0  0  0  0
  -16.7304  -28.6518   23.0348 C   0  0  0  0  0  0
  -26.4482  -31.6539   25.0717 C   0  0  0  0  0  0
  -25.3633  -31.3808   26.1416 C   0  0  0  0  0  0
  -27.0341  -30.2906   24.6378 C   0  0  0  0  0  0
  -27.5996  -32.4323   25.7510 C   0  0  0  0  0  0
  -27.5567  -37.1788   24.8458 C   0  0  0  0  0  0
  -21.4270  -29.3028   22.3576 N   0  0  0  0  0  0
  -26.4274  -37.3723   23.9392 N   0  0  0  0  0  0
  -24.7282  -31.0134   22.0848 N   0  0  0  0  0  0
  -23.4224  -28.8033   23.2959 O   0  0  0  0  0  0
  -28.2903  -26.0420   20.2305 O   0  0  0  0  0  0
  -26.5705  -34.8888   22.4636 O   0  0  0  0  0  0
  -23.5606  -32.1247   23.6974 O   0  0  0  0  0  0
  -28.0581  -23.7295   21.5148 C   0  0  0  0  0  0
  -29.0769  -22.3882   19.4000 C   0  0  0  0  0  0
  -28.8776  -21.4888   20.5186 C   0  0  0  0  0  0
  -28.3433  -22.2845   21.6056 C   0  0  0  0  0  0
  -28.2816  -24.5392   20.3430 C   0  0  0  0  0  0
  -28.4961  -18.6523   21.2106 C   0  0  0  0  0  0
  -29.9557  -19.0352   19.4115 C   0  0  0  0  0  0
  -29.1121  -17.1260   21.4218 C   0  0  0  0  0  0
  -30.6203  -17.5502   19.6436 C   0  0  0  0  0  0
  -29.3880  -19.8622   20.6410 C   0  0  0  0  0  0
  -28.4363  -22.2207   24.0117 C   0  0  0  0  0  0
  -28.8235  -23.7754   19.3246 N   0  0  0  0  0  0
  -29.9180  -16.3913   20.3554 N   0  0  0  0  0  0
  -28.1262  -21.5818   22.7744 O   0  0  0  0  0  0
  -31.4574  -12.8195   19.2096 H   0  0  0  0  0  0
  -30.4022  -11.7489   20.0810 H   0  0  0  0  0  0
  -29.8699  -11.7765   17.6029 H   0  0  0  0  0  0
  -29.5937  -13.5008   17.6930 H   0  0  0  0  0  0
  -27.9595  -11.2962   18.9945 H   0  0  0  0  0  0
  -27.4015  -12.4640   17.8194 H   0  0  0  0  0  0
  -27.5602  -14.2636   19.3831 H   0  0  0  0  0  0
  -28.7785  -12.4354   21.5014 H   0  0  0  0  0  0
  -28.3323  -14.1123   21.7095 H   0  0  0  0  0  0
  -25.2756   -9.5729   22.4773 H   0  0  0  0  0  0
  -24.0003   -7.4655   22.7495 H   0  0  0  0  0  0
  -21.0809   -8.8786   19.8963 H   0  0  0  0  0  0
  -22.3677  -10.9687   19.6171 H   0  0  0  0  0  0
  -21.2028   -7.6128   23.9696 H   0  0  0  0  0  0
  -21.1503   -6.0513   25.9063 H   0  0  0  0  0  0
  -22.0587   -2.7601   23.2829 H   0  0  0  0  0  0
  -22.3959  -11.9928   22.4839 H   0  0  0  0  0  0
  -21.1027  -13.1384   22.2629 H   0  0  0  0  0  0
  -24.6526  -15.8607   20.5530 H   0  0  0  0  0  0
  -26.2727  -15.6388   20.1178 H   0  0  0  0  0  0
  -26.7304  -32.5211   23.0955 H   0  0  0  0  0  0
  -24.9958  -33.9526   25.0199 H   0  0  0  0  0  0
  -22.7656  -31.2776   21.3644 H   0  0  0  0  0  0
  -23.3719  -35.9622   23.3314 H   0  0  0  0  0  0
  -24.3568  -36.8889   22.2060 H   0  0  0  0  0  0
  -23.7306  -37.6470   23.6691 H   0  0  0  0  0  0
  -26.1824  -31.4111   20.6060 H   0  0  0  0  0  0
  -26.8833  -30.7372   22.0359 H   0  0  0  0  0  0
  -28.1265  -28.7020   21.2905 H   0  0  0  0  0  0
  -25.9277  -25.7643   19.0439 H   0  0  0  0  0  0
  -24.0031  -27.2642   18.9744 H   0  0  0  0  0  0
  -23.8385  -30.5353   19.3892 H   0  0  0  0  0  0
  -22.8029  -29.2165   19.8358 H   0  0  0  0  0  0
  -25.1317  -36.1792   25.0814 H   0  0  0  0  0  0
  -21.0081  -28.3302   24.1351 H   0  0  0  0  0  0
  -20.5670  -26.2310   23.3649 H   0  0  0  0  0  0
  -21.6642  -26.7370   22.1236 H   0  0  0  0  0  0
  -19.6871  -25.6279   21.1290 H   0  0  0  0  0  0
  -19.6681  -27.3180   20.6761 H   0  0  0  0  0  0
  -17.4214  -26.6735   21.4049 H   0  0  0  0  0  0
  -18.0299  -26.0082   22.9042 H   0  0  0  0  0  0
  -19.7951  -30.7365   24.2170 H   0  0  0  0  0  0
  -17.5008  -31.6259   24.5191 H   0  0  0  0  0  0
  -15.5368  -30.2952   23.7668 H   0  0  0  0  0  0
  -15.8722  -28.0826   22.7030 H   0  0  0  0  0  0
  -24.5773  -30.7185   25.7764 H   0  0  0  0  0  0
  -24.8869  -32.3035   26.4738 H   0  0  0  0  0  0
  -25.7895  -30.9048   27.0262 H   0  0  0  0  0  0
  -26.2972  -29.6616   24.1367 H   0  0  0  0  0  0
  -27.3863  -29.7230   25.5004 H   0  0  0  0  0  0
  -27.8927  -30.4074   23.9760 H   0  0  0  0  0  0
  -27.2541  -33.3615   26.2048 H   0  0  0  0  0  0
  -28.3823  -32.6897   25.0365 H   0  0  0  0  0  0
  -28.0633  -31.8481   26.5473 H   0  0  0  0  0  0
  -28.2591  -38.0072   24.7462 H   0  0  0  0  0  0
  -28.1058  -36.2609   24.6314 H   0  0  0  0  0  0
  -27.2306  -37.1491   25.8870 H   0  0  0  0  0  0
  -20.9465  -29.8744   21.6771 H   0  0  0  0  0  0
  -26.0120  -38.2802   24.1343 H   0  0  0  0  0  0
  -27.6880  -24.2475   22.3863 H   0  0  0  0  0  0
  -29.5303  -21.9837   18.5054 H   0  0  0  0  0  0
  -28.0929  -18.9692   22.1738 H   0  0  0  0  0  0
  -27.6213  -18.5629   20.5660 H   0  0  0  0  0  0
  -29.1577  -18.9427   18.6758 H   0  0  0  0  0  0
  -30.7160  -19.6520   18.9261 H   0  0  0  0  0  0
  -28.2916  -16.4724   21.7144 H   0  0  0  0  0  0
  -29.7608  -17.1618   22.2979 H   0  0  0  0  0  0
  -31.5628  -17.7028   20.1704 H   0  0  0  0  0  0
  -30.9086  -17.1737   18.6599 H   0  0  0  0  0  0
  -30.2215  -19.9494   21.3387 H   0  0  0  0  0  0
  -28.3036  -21.5059   24.8270 H   0  0  0  0  0  0
  -27.7842  -23.0671   24.2317 H   0  0  0  0  0  0
  -29.4787  -22.5488   24.0375 H   0  0  0  0  0  0
  1 25  1  0  0  0
  1 30  2  0  0  0
  1 83  1  0  0  0
  2  3  1  0  0  0
  2 25  1  0  0  0
  2 85  1  0  0  0
  2 86  1  0  0  0
  3  4  1  0  0  0
  3 87  1  0  0  0
  3 88  1  0  0  0
  4  5  1  0  0  0
  4 89  1  0  0  0
  4 90  1  0  0  0
  5  6  1  0  0  0
  5 26  1  0  0  0
  5 91  1  0  0  0
  6 25  1  0  0  0
  6 92  1  0  0  0
  6 93  1  0  0  0
  7  8  2  0  0  0
  7 26  1  0  0  0
  7 29  1  0  0  0
  8  9  1  0  0  0
  8 22  1  0  0  0
  9 10  1  0  0  0
  9 27  2  0  0  0
 10 11  2  0  0  0
 10 15  1  0  0  0
 11 12  1  0  0  0
 11 94  1  0  0  0
 12 13  2  0  0  0
 12 95  1  0  0  0
 13 14  1  0  0  0
 13 31  1  0  0  0
 14 15  2  0  0  0
 14 96  1  0  0  0
 15 97  1  0  0  0
 16 17  2  0  0  0
 16 21  1  0  0  0
 16 31  1  0  0  0
 17 18  1  0  0  0
 17 98  1  0  0  0
 18 19  2  0  0  0
 18 99  1  0  0  0
 19 20  1  0  0  0
 19 24  1  0  0  0
 20 21  2  0  0  0
 20100  1  0  0  0
 21 23  1  0  0  0
 22 28  1  0  0  0
 22 32  2  0  0  0
 26 27  1  0  0  0
 28101  1  0  0  0
 28102  1  0  0  0
 29103  1  0  0  0
 29104  1  0  0  0
 33 34  1  0  0  0
 33 66  1  0  0  0
 33 70  2  0  0  0
 34 36  1  0  0  0
 34 59  1  0  0  0
 34105  1  0  0  0
 35 44  2  0  0  0
 35 45  1  0  0  0
 35 68  1  0  0  0
 36 56  1  0  0  0
 36106  1  0  0  0
 37 39  1  0  0  0
 37 47  1  0  0  0
 37 66  1  0  0  0
 37107  1  0  0  0
 38 43  2  0  0  0
 38 46  1  0  0  0
 38 47  1  0  0  0
 39 64  1  0  0  0
 39 67  2  0  0  0
 40 52  1  0  0  0
 40 53  2  0  0  0
 40 58  1  0  0  0
 41108  1  0  0  0
 41109  1  0  0  0
 41110  1  0  0  0
 41 48  1  0  0  0
 42 43  1  0  0  0
 42 66  1  0  0  0
 42111  1  0  0  0
 42112  1  0  0  0
 43 44  1  0  0  0
 44113  1  0  0  0
 45 46  2  0  0  0
 45114  1  0  0  0
 46115  1  0  0  0
 47116  1  0  0  0
 47117  1  0  0  0
 48 56  1  0  0  0
 48 65  1  0  0  0
 48118  1  0  0  0
 49 50  1  0  0  0
 49 53  1  0  0  0
 49 64  1  0  0  0
 49119  1  0  0  0
 50 51  1  0  0  0
 50120  1  0  0  0
 50121  1  0  0  0
 51 52  1  0  0  0
 51122  1  0  0  0
 51123  1  0  0  0
 52124  1  0  0  0
 52125  1  0  0  0
 53 54  1  0  0  0
 54 55  2  0  0  0
 54126  1  0  0  0
 55 57  1  0  0  0
 55127  1  0  0  0
 56 69  2  0  0  0
 57 58  2  0  0  0
 57128  1  0  0  0
 58129  1  0  0  0
 59 60  1  0  0  0
 59 61  1  0  0  0
 59 62  1  0  0  0
 60130  1  0  0  0
 60131  1  0  0  0
 60132  1  0  0  0
 61133  1  0  0  0
 61134  1  0  0  0
 61135  1  0  0  0
 62136  1  0  0  0
 62137  1  0  0  0
 62138  1  0  0  0
 63 65  1  0  0  0
 63139  1  0  0  0
 63140  1  0  0  0
 63141  1  0  0  0
 64142  1  0  0  0
 65143  1  0  0  0
 68 75  1  0  0  0
 71 74  2  0  0  0
 71 75  1  0  0  0
 71144  1  0  0  0
 72 73  2  0  0  0
 72 82  1  0  0  0
 72145  1  0  0  0
 73 74  1  0  0  0
 73 80  1  0  0  0
 74 84  1  0  0  0
 75 82  2  0  0  0
 76 78  1  0  0  0
 76 80  1  0  0  0
 76146  1  0  0  0
 76147  1  0  0  0
 77 79  1  0  0  0
 77 80  1  0  0  0
 77148  1  0  0  0
 77149  1  0  0  0
 78 83  1  0  0  0
 78150  1  0  0  0
 78151  1  0  0  0
 79 83  1  0  0  0
 79152  1  0  0  0
 79153  1  0  0  0
 80154  1  0  0  0
 81 84  1  0  0  0
 81155  1  0  0  0
 81156  1  0  0  0
 81157  1  0  0  0
M  ISO  4   1 100  68 101  75 101  83 100
M  END
> <chiral flag>
0

> <version>
0

> <s_m_source_file>
/data/baiqing/PycharmProjects/Reinvent-master-3.2/result/LINK_invent/BTK/process_docking_weight1_custom_sum_contain_oxygen_bond_distance_aromatic_linkinvent_7_9_3/rearranged_h_0147.sdf

> <i_m_source_file_index>
25

> <r_mmod_Potential_Energy-OPLS-2005>
794.890563964844

> <r_mmod_Stretch_Energy-OPLS-2005>
308.517242431641

> <r_mmod_Bend_Energy-OPLS-2005>
364.857269287109

> <r_mmod_Torsional_Energy-OPLS-2005>
335.174102783203

> <r_mmod_Improper_Torsional_Energy-OPLS-2005>
17.9225101470947

> <r_mmod_Van_der_Waal_Energy-OPLS-2005>
132.165817260742

> <r_mmod_Electrostatic_Energy-OPLS-2005>
-436.161285400391

> <r_mmod_Solvation_Energy-OPLS-2005>
-209.217697143555

> <b_mmod_Minimization_Converged-OPLS-2005>
0

> <r_mmod_RMS_Derivative-OPLS-2005>
4.3510365486145

$$$$
25
                    3D
 Structure written by MMmdl.
175184  0  0  1  0            999 V2000
  -30.7288  -14.4300   20.6407 C   0  0  0  0  0  0
  -30.4247  -12.3088   19.4065 C   0  0  0  0  0  0
  -29.4913  -12.5033   18.1951 C   0  0  0  0  0  0
  -28.0136  -12.3405   18.6055 C   0  0  0  0  0  0
  -27.6546  -13.1806   19.8546 C   0  0  2  0  0  0
  -28.6954  -12.9615   20.9806 C   0  0  0  0  0  0
  -25.2574  -13.8089   20.5590 C   0  0  0  0  0  0
  -24.1833  -13.0405   20.9181 C   0  0  0  0  0  0
  -24.6364  -11.6866   20.8748 C   0  0  0  0  0  0
  -23.9031  -10.4270   21.0432 C   0  0  0  0  0  0
  -24.3588   -9.4182   21.9202 C   0  0  0  0  0  0
  -23.6274   -8.2210   22.0752 C   0  0  0  0  0  0
  -22.4257   -8.0252   21.3539 C   0  0  0  0  0  0
  -21.9890   -9.0231   20.4651 C   0  0  0  0  0  0
  -22.7212  -10.2117   20.3074 C   0  0  0  0  0  0
  -21.6835   -6.0727   22.5279 C   0  0  0  0  0  0
  -21.3991   -6.5631   23.8211 C   0  0  0  0  0  0
  -21.3665   -5.6783   24.9176 C   0  0  0  0  0  0
  -21.6048   -4.3043   24.7222 C   0  0  0  0  0  0
  -21.8813   -3.8137   23.4336 C   0  0  0  0  0  0
  -21.9183   -4.6959   22.3397 C   0  0  0  0  0  0
  -22.7868  -13.5237   21.1845 C   0  0  0  0  0  0
  -22.1661   -4.2152   21.0974 F   0  0  0  0  0  0
  -21.5649   -3.4532   25.7738 F   0  0  0  0  0  0
  -30.0289  -13.2781   20.4409 N   0  0  0  0  0  0
  -26.2963  -12.9207   20.3214 N   0  0  0  0  0  0
  -25.9256  -11.6403   20.5699 N   0  0  0  0  0  0
  -22.0482  -12.8267   22.0403 N   0  0  0  0  0  0
  -25.4278  -15.1801   20.3885 N   0  0  0  0  0  0
  -31.8366  -14.6318   20.1338 O   0  0  0  0  0  0
  -21.6607   -6.8861   21.4237 O   0  0  0  0  0  0
  -22.3586  -14.5552   20.6685 O   0  0  0  0  0  0
  -24.6118  -31.8704   23.2126 C   0  0  0  0  0  0
  -25.9009  -32.4843   23.8427 C   0  0  1  0  0  0
  -27.2439  -27.4514   20.0850 C   0  0  0  0  0  0
  -25.5866  -33.8643   24.2349 N   0  0  0  0  0  0
  -23.3992  -30.4930   21.5532 C   0  0  2  0  0  0
  -24.8474  -28.9625   20.1167 C   0  0  0  0  0  0
  -22.7403  -29.4662   22.5011 C   0  0  0  0  0  0
  -18.0265  -28.1349   22.8505 C   0  0  0  0  0  0
  -24.1482  -36.7327   23.2643 C   0  0  0  0  0  0
  -25.9297  -30.8370   21.3686 C   0  0  0  0  0  0
  -26.0058  -29.4745   20.7110 C   0  0  0  0  0  0
  -27.2030  -28.7260   20.6924 C   0  0  0  0  0  0
  -26.0597  -26.9500   19.4906 C   0  0  0  0  0  0
  -24.8682  -27.6985   19.5064 C   0  0  0  0  0  0
  -23.6087  -29.8270   20.1680 C   0  0  0  0  0  0
  -25.4097  -36.3135   24.0356 C   0  0  1  0  0  0
  -20.5855  -28.3638   23.1334 C   0  0  2  0  0  0
  -20.6751  -26.9371   22.5429 C   0  0  0  0  0  0
  -19.5732  -26.6366   21.5215 C   0  0  0  0  0  0
  -18.1903  -26.7899   22.1626 C   0  0  0  0  0  0
  -19.1508  -28.8814   23.2914 C   0  0  0  0  0  0
  -18.9442  -30.1420   23.8915 C   0  0  0  0  0  0
  -17.6447  -30.6569   24.0557 C   0  0  0  0  0  0
  -25.9026  -34.9495   23.5157 C   0  0  0  0  0  0
  -16.5334  -29.9073   23.6325 C   0  0  0  0  0  0
  -16.7247  -28.6479   23.0357 C   0  0  0  0  0  0
  -26.4460  -31.6616   25.0740 C   0  0  0  0  0  0
  -25.3750  -31.3719   26.1506 C   0  0  0  0  0  0
  -27.0274  -30.3048   24.6119 C   0  0  0  0  0  0
  -27.6036  -32.4363   25.7479 C   0  0  0  0  0  0
  -27.5589  -37.1803   24.8459 C   0  0  0  0  0  0
  -21.4127  -29.3018   22.3759 N   0  0  0  0  0  0
  -26.4290  -37.3812   23.9418 N   0  0  0  0  0  0
  -24.6639  -31.0812   22.1027 N   0  0  0  0  0  0
  -23.4196  -28.8212   23.3030 O   0  0  0  0  0  0
  -28.4441  -26.7635   20.1070 O   0  0  0  0  0  0
  -26.5607  -34.8944   22.4729 O   0  0  0  0  0  0
  -23.5314  -32.1467   23.7517 O   0  0  0  0  0  0
  -28.3857  -20.8682   20.6828 C   0  0  0  0  0  0
  -30.5536  -21.9592   19.2900 C   0  0  0  0  0  0
  -28.1480  -21.6461   19.5283 C   0  0  0  0  0  0
  -30.7910  -21.1503   20.4216 C   0  0  0  0  0  0
  -29.6976  -20.5755   21.1158 C   0  0  0  0  0  0
  -29.2466  -22.1878   18.8121 C   0  0  0  0  0  0
  -29.0446  -16.1581   20.8486 C   0  0  0  0  0  0
  -30.9495  -15.9442   22.5405 C   0  0  0  0  0  0
  -28.8548  -17.6136   21.3165 C   0  0  0  0  0  0
  -30.5500  -17.3580   23.0105 C   0  0  0  0  0  0
  -26.7091  -21.8430   19.0778 C   0  0  0  0  0  0
  -32.2279  -20.9093   20.8507 C   0  0  0  0  0  0
  -29.8968  -19.6367   22.3111 C   0  0  0  0  0  0
  -29.0839  -22.9179   17.4755 C   0  0  0  0  0  0
  -28.7641  -25.3358   18.1612 C   0  0  0  0  0  0
  -28.4912  -25.4003   19.6767 C   0  0  0  0  0  0
  -30.1516  -15.3688   21.4355 N   0  0  0  0  0  0
  -30.0710  -18.2126   21.9038 N   0  3  0  0  0  0
  -28.2239  -24.1178   17.5066 N   0  3  0  0  0  0
  -31.4666  -12.4245   19.1008 H   0  0  0  0  0  0
  -30.3450  -11.2931   19.7965 H   0  0  0  0  0  0
  -29.7433  -11.7918   17.4076 H   0  0  0  0  0  0
  -29.6479  -13.4956   17.7690 H   0  0  0  0  0  0
  -27.8289  -11.2841   18.8031 H   0  0  0  0  0  0
  -27.3641  -12.6126   17.7731 H   0  0  0  0  0  0
  -27.6883  -14.2135   19.5162 H   0  0  0  0  0  0
  -28.6771  -11.9206   21.3092 H   0  0  0  0  0  0
  -28.4458  -13.5417   21.8700 H   0  0  0  0  0  0
  -25.2741   -9.5665   22.4760 H   0  0  0  0  0  0
  -23.9993   -7.4595   22.7458 H   0  0  0  0  0  0
  -21.0821   -8.8749   19.8962 H   0  0  0  0  0  0
  -22.3673  -10.9649   19.6170 H   0  0  0  0  0  0
  -21.1963   -7.6137   23.9718 H   0  0  0  0  0  0
  -21.1512   -6.0512   25.9088 H   0  0  0  0  0  0
  -22.0596   -2.7604   23.2820 H   0  0  0  0  0  0
  -22.4072  -11.9926   22.4806 H   0  0  0  0  0  0
  -21.1108  -13.1331   22.2597 H   0  0  0  0  0  0
  -24.6378  -15.8135   20.4425 H   0  0  0  0  0  0
  -26.2305  -15.5893   19.9299 H   0  0  0  0  0  0
  -26.7073  -32.5569   23.1187 H   0  0  0  0  0  0
  -24.9977  -33.9820   25.0463 H   0  0  0  0  0  0
  -22.6847  -31.3076   21.4150 H   0  0  0  0  0  0
  -23.3761  -35.9641   23.3309 H   0  0  0  0  0  0
  -24.3580  -36.8932   22.2051 H   0  0  0  0  0  0
  -23.7218  -37.6529   23.6651 H   0  0  0  0  0  0
  -26.0528  -31.6087   20.6076 H   0  0  0  0  0  0
  -26.8151  -30.8829   21.9915 H   0  0  0  0  0  0
  -28.0978  -29.1234   21.1520 H   0  0  0  0  0  0
  -26.0231  -25.9896   19.0008 H   0  0  0  0  0  0
  -23.9762  -27.2974   19.0447 H   0  0  0  0  0  0
  -23.7149  -30.6035   19.4086 H   0  0  0  0  0  0
  -22.7353  -29.2419   19.8724 H   0  0  0  0  0  0
  -25.1267  -36.2014   25.0847 H   0  0  0  0  0  0
  -20.9930  -28.3191   24.1463 H   0  0  0  0  0  0
  -20.5639  -26.2232   23.3609 H   0  0  0  0  0  0
  -21.6625  -26.7412   22.1218 H   0  0  0  0  0  0
  -19.6887  -25.6284   21.1223 H   0  0  0  0  0  0
  -19.6673  -27.3210   20.6764 H   0  0  0  0  0  0
  -17.4176  -26.6666   21.4016 H   0  0  0  0  0  0
  -18.0292  -26.0033   22.9015 H   0  0  0  0  0  0
  -19.7922  -30.7222   24.2300 H   0  0  0  0  0  0
  -17.5007  -31.6262   24.5146 H   0  0  0  0  0  0
  -15.5336  -30.2981   23.7628 H   0  0  0  0  0  0
  -15.8645  -28.0799   22.7068 H   0  0  0  0  0  0
  -24.5892  -30.7096   25.7858 H   0  0  0  0  0  0
  -24.8981  -32.2878   26.5016 H   0  0  0  0  0  0
  -25.8125  -30.8850   27.0232 H   0  0  0  0  0  0
  -26.2797  -29.6817   24.1198 H   0  0  0  0  0  0
  -27.4049  -29.7278   25.4576 H   0  0  0  0  0  0
  -27.8647  -30.4339   23.9255 H   0  0  0  0  0  0
  -27.2624  -33.3639   26.2087 H   0  0  0  0  0  0
  -28.3793  -32.6977   25.0273 H   0  0  0  0  0  0
  -28.0769  -31.8503   26.5363 H   0  0  0  0  0  0
  -28.2593  -38.0118   24.7548 H   0  0  0  0  0  0
  -28.1106  -36.2659   24.6227 H   0  0  0  0  0  0
  -27.2331  -37.1377   25.8869 H   0  0  0  0  0  0
  -20.9275  -29.8756   21.7005 H   0  0  0  0  0  0
  -26.0202  -38.2898   24.1445 H   0  0  0  0  0  0
  -27.5459  -20.4513   21.2217 H   0  0  0  0  0  0
  -31.3986  -22.3712   18.7522 H   0  0  0  0  0  0
  -29.1451  -16.1681   19.7595 H   0  0  0  0  0  0
  -28.1077  -15.6530   21.0640 H   0  0  0  0  0  0
  -30.8957  -15.2610   23.3907 H   0  0  0  0  0  0
  -32.0051  -15.9728   22.2647 H   0  0  0  0  0  0
  -28.0534  -17.6495   22.0580 H   0  0  0  0  0  0
  -28.4971  -18.1961   20.4684 H   0  0  0  0  0  0
  -31.4031  -17.8219   23.5082 H   0  0  0  0  0  0
  -29.7673  -17.2869   23.7688 H   0  0  0  0  0  0
  -26.0310  -21.1847   19.6219 H   0  0  0  0  0  0
  -26.5890  -21.6175   18.0182 H   0  0  0  0  0  0
  -26.3765  -22.8637   19.2643 H   0  0  0  0  0  0
  -32.9323  -21.3288   20.1319 H   0  0  0  0  0  0
  -32.4439  -19.8446   20.9291 H   0  0  0  0  0  0
  -32.4267  -21.3782   21.8148 H   0  0  0  0  0  0
  -29.0499  -19.7267   22.9940 H   0  0  0  0  0  0
  -30.7631  -19.9693   22.8846 H   0  0  0  0  0  0
  -28.6558  -22.2103   16.7648 H   0  0  0  0  0  0
  -30.0603  -23.1850   17.0682 H   0  0  0  0  0  0
  -29.8287  -25.4572   17.9539 H   0  0  0  0  0  0
  -28.2728  -26.1826   17.6814 H   0  0  0  0  0  0
  -29.2988  -24.8998   20.2119 H   0  0  0  0  0  0
  -27.5904  -24.8623   19.9695 H   0  0  0  0  0  0
  -30.7850  -18.2083   21.1915 H   0  0  0  0  0  0
  -27.3207  -23.8726   17.8792 H   0  0  0  0  0  0
  -28.0805  -24.3570   16.5373 H   0  0  0  0  0  0
  1 25  1  0  0  0
  1 30  2  0  0  0
  1 87  1  0  0  0
  2  3  1  0  0  0
  2 25  1  0  0  0
  2 90  1  0  0  0
  2 91  1  0  0  0
  3  4  1  0  0  0
  3 92  1  0  0  0
  3 93  1  0  0  0
  4  5  1  0  0  0
  4 94  1  0  0  0
  4 95  1  0  0  0
  5  6  1  0  0  0
  5 26  1  0  0  0
  5 96  1  0  0  0
  6 25  1  0  0  0
  6 97  1  0  0  0
  6 98  1  0  0  0
  7  8  2  0  0  0
  7 26  1  0  0  0
  7 29  1  0  0  0
  8  9  1  0  0  0
  8 22  1  0  0  0
  9 10  1  0  0  0
  9 27  2  0  0  0
 10 11  2  0  0  0
 10 15  1  0  0  0
 11 12  1  0  0  0
 11 99  1  0  0  0
 12 13  2  0  0  0
 12100  1  0  0  0
 13 14  1  0  0  0
 13 31  1  0  0  0
 14 15  2  0  0  0
 14101  1  0  0  0
 15102  1  0  0  0
 16 17  2  0  0  0
 16 21  1  0  0  0
 16 31  1  0  0  0
 17 18  1  0  0  0
 17103  1  0  0  0
 18 19  2  0  0  0
 18104  1  0  0  0
 19 20  1  0  0  0
 19 24  1  0  0  0
 20 21  2  0  0  0
 20105  1  0  0  0
 21 23  1  0  0  0
 22 28  1  0  0  0
 22 32  2  0  0  0
 26 27  1  0  0  0
 28106  1  0  0  0
 28107  1  0  0  0
 29108  1  0  0  0
 29109  1  0  0  0
 33 34  1  0  0  0
 33 66  1  0  0  0
 33 70  2  0  0  0
 34 36  1  0  0  0
 34 59  1  0  0  0
 34110  1  0  0  0
 35 44  2  0  0  0
 35 45  1  0  0  0
 35 68  1  0  0  0
 36 56  1  0  0  0
 36111  1  0  0  0
 37 39  1  0  0  0
 37 47  1  0  0  0
 37 66  1  0  0  0
 37112  1  0  0  0
 38 43  2  0  0  0
 38 46  1  0  0  0
 38 47  1  0  0  0
 39 64  1  0  0  0
 39 67  2  0  0  0
 40 52  1  0  0  0
 40 53  2  0  0  0
 40 58  1  0  0  0
 41113  1  0  0  0
 41114  1  0  0  0
 41115  1  0  0  0
 41 48  1  0  0  0
 42 43  1  0  0  0
 42 66  1  0  0  0
 42116  1  0  0  0
 42117  1  0  0  0
 43 44  1  0  0  0
 44118  1  0  0  0
 45 46  2  0  0  0
 45119  1  0  0  0
 46120  1  0  0  0
 47121  1  0  0  0
 47122  1  0  0  0
 48 56  1  0  0  0
 48 65  1  0  0  0
 48123  1  0  0  0
 49 50  1  0  0  0
 49 53  1  0  0  0
 49 64  1  0  0  0
 49124  1  0  0  0
 50 51  1  0  0  0
 50125  1  0  0  0
 50126  1  0  0  0
 51 52  1  0  0  0
 51127  1  0  0  0
 51128  1  0  0  0
 52129  1  0  0  0
 52130  1  0  0  0
 53 54  1  0  0  0
 54 55  2  0  0  0
 54131  1  0  0  0
 55 57  1  0  0  0
 55132  1  0  0  0
 56 69  2  0  0  0
 57 58  2  0  0  0
 57133  1  0  0  0
 58134  1  0  0  0
 59 60  1  0  0  0
 59 61  1  0  0  0
 59 62  1  0  0  0
 60135  1  0  0  0
 60136  1  0  0  0
 60137  1  0  0  0
 61138  1  0  0  0
 61139  1  0  0  0
 61140  1  0  0  0
 62141  1  0  0  0
 62142  1  0  0  0
 62143  1  0  0  0
 63 65  1  0  0  0
 63144  1  0  0  0
 63145  1  0  0  0
 63146  1  0  0  0
 64147  1  0  0  0
 65148  1  0  0  0
 68 86  1  0  0  0
 71 73  2  0  0  0
 71 75  1  0  0  0
 71149  1  0  0  0
 72 74  1  0  0  0
 72 76  2  0  0  0
 72150  1  0  0  0
 73 76  1  0  0  0
 73 81  1  0  0  0
 74 75  2  0  0  0
 74 82  1  0  0  0
 75 83  1  0  0  0
 76 84  1  0  0  0
 77 79  1  0  0  0
 77 87  1  0  0  0
 77151  1  0  0  0
 77152  1  0  0  0
 78 80  1  0  0  0
 78 87  1  0  0  0
 78153  1  0  0  0
 78154  1  0  0  0
 79 88  1  0  0  0
 79155  1  0  0  0
 79156  1  0  0  0
 80 88  1  0  0  0
 80157  1  0  0  0
 80158  1  0  0  0
 81159  1  0  0  0
 81160  1  0  0  0
 81161  1  0  0  0
 82162  1  0  0  0
 82163  1  0  0  0
 82164  1  0  0  0
 83165  1  0  0  0
 83166  1  0  0  0
 83 88  1  0  0  0
 84 89  1  0  0  0
 84167  1  0  0  0
 84168  1  0  0  0
 85 86  1  0  0  0
 85 89  1  0  0  0
 85169  1  0  0  0
 85170  1  0  0  0
 86171  1  0  0  0
 86172  1  0  0  0
 88173  1  0  0  0
 89174  1  0  0  0
 89175  1  0  0  0
M  CHG  2  88   1  89   1
M  ISO  4   1 100  68 101  86 101  87 100
M  END
> <chiral flag>
0

> <version>
0

> <s_m_source_file>
/data/baiqing/PycharmProjects/Reinvent-master-3.2/result/LINK_invent/BTK/process_docking_weight1_custom_sum_contain_oxygen_bond_distance_aromatic_linkinvent_7_9_3/rearranged_h_0147.sdf

> <i_m_source_file_index>
26

> <r_mmod_Potential_Energy-OPLS-2005>
-130.426864624023

> <r_mmod_Stretch_Energy-OPLS-2005>
39.8999214172363

> <r_mmod_Bend_Energy-OPLS-2005>
119.106506347656

> <r_mmod_Torsional_Energy-OPLS-2005>
370.371398925781

> <r_mmod_Improper_Torsional_Energy-OPLS-2005>
4.43788146972656

> <r_mmod_Van_der_Waal_Energy-OPLS-2005>
161.317199707031

> <r_mmod_Electrostatic_Energy-OPLS-2005>
7.536705493927

> <r_mmod_Solvation_Energy-OPLS-2005>
-844.409729003906

> <b_mmod_Minimization_Converged-OPLS-2005>
0

> <r_mmod_RMS_Derivative-OPLS-2005>
2.55128979682922

$$$$
26
                    3D
 Structure written by MMmdl.
166175  0  0  1  0            999 V2000
  -30.5234  -14.9699   20.4331 C   0  0  0  0  0  0
  -30.4426  -12.6070   19.5002 C   0  0  0  0  0  0
  -29.5246  -12.5336   18.2578 C   0  0  0  0  0  0
  -28.0562  -12.3172   18.6724 C   0  0  0  0  0  0
  -27.6259  -13.2478   19.8369 C   0  0  2  0  0  0
  -28.6661  -13.2806   20.9749 C   0  0  0  0  0  0
  -25.2444  -13.8212   20.5703 C   0  0  0  0  0  0
  -24.1765  -13.0437   20.9233 C   0  0  0  0  0  0
  -24.6386  -11.6925   20.8749 C   0  0  0  0  0  0
  -23.9081  -10.4292   21.0398 C   0  0  0  0  0  0
  -24.3624   -9.4201   21.9174 C   0  0  0  0  0  0
  -23.6295   -8.2234   22.0747 C   0  0  0  0  0  0
  -22.4270   -8.0279   21.3546 C   0  0  0  0  0  0
  -21.9910   -9.0253   20.4639 C   0  0  0  0  0  0
  -22.7248  -10.2127   20.3051 C   0  0  0  0  0  0
  -21.6860   -6.0729   22.5270 C   0  0  0  0  0  0
  -21.4018   -6.5631   23.8200 C   0  0  0  0  0  0
  -21.3665   -5.6788   24.9168 C   0  0  0  0  0  0
  -21.6047   -4.3051   24.7212 C   0  0  0  0  0  0
  -21.8822   -3.8137   23.4335 C   0  0  0  0  0  0
  -21.9194   -4.6956   22.3392 C   0  0  0  0  0  0
  -22.7775  -13.5195   21.1880 C   0  0  0  0  0  0
  -22.1662   -4.2141   21.0966 F   0  0  0  0  0  0
  -21.5636   -3.4537   25.7734 F   0  0  0  0  0  0
  -29.9370  -13.7057   20.3742 N   0  0  0  0  0  0
  -26.2856  -12.9436   20.3219 N   0  0  0  0  0  0
  -25.9314  -11.6571   20.5716 N   0  0  0  0  0  0
  -22.0427  -12.8195   22.0435 N   0  0  0  0  0  0
  -25.4120  -15.1939   20.4121 N   0  0  0  0  0  0
  -31.7322  -15.0382   20.1859 O   0  0  0  0  0  0
  -21.6645   -6.8871   21.4234 O   0  0  0  0  0  0
  -22.3461  -14.5497   20.6722 O   0  0  0  0  0  0
  -24.6454  -31.8422   23.1860 C   0  0  0  0  0  0
  -25.9216  -32.4677   23.8266 C   0  0  1  0  0  0
  -27.2204  -27.1202   20.1522 C   0  0  0  0  0  0
  -25.5953  -33.8484   24.2179 N   0  0  0  0  0  0
  -23.4507  -30.4594   21.5318 C   0  0  2  0  0  0
  -24.9014  -28.8836   20.1085 C   0  0  0  0  0  0
  -22.7581  -29.4531   22.4849 C   0  0  0  0  0  0
  -18.0303  -28.1397   22.8478 C   0  0  0  0  0  0
  -24.1495  -36.7249   23.2646 C   0  0  0  0  0  0
  -26.0079  -30.7099   21.3883 C   0  0  0  0  0  0
  -26.0790  -29.3207   20.7271 C   0  0  0  0  0  0
  -27.2397  -28.4555   20.7304 C   0  0  0  0  0  0
  -26.0187  -26.7911   19.4876 C   0  0  0  0  0  0
  -24.8849  -27.6340   19.4712 C   0  0  0  0  0  0
  -23.6781  -29.7867   20.1524 C   0  0  0  0  0  0
  -25.4126  -36.3026   24.0318 C   0  0  1  0  0  0
  -20.5918  -28.3724   23.1229 C   0  0  2  0  0  0
  -20.6783  -26.9422   22.5402 C   0  0  0  0  0  0
  -19.5758  -26.6380   21.5208 C   0  0  0  0  0  0
  -18.1943  -26.7936   22.1623 C   0  0  0  0  0  0
  -19.1561  -28.8879   23.2846 C   0  0  0  0  0  0
  -18.9477  -30.1475   23.8870 C   0  0  0  0  0  0
  -17.6473  -30.6589   24.0562 C   0  0  0  0  0  0
  -25.9078  -34.9398   23.5056 C   0  0  0  0  0  0
  -16.5365  -29.9083   23.6336 C   0  0  0  0  0  0
  -16.7287  -28.6502   23.0356 C   0  0  0  0  0  0
  -26.4526  -31.6547   25.0713 C   0  0  0  0  0  0
  -25.3705  -31.3740   26.1403 C   0  0  0  0  0  0
  -27.0396  -30.2944   24.6307 C   0  0  0  0  0  0
  -27.6055  -32.4319   25.7488 C   0  0  0  0  0  0
  -27.5574  -37.1785   24.8464 C   0  0  0  0  0  0
  -21.4268  -29.3048   22.3605 N   0  0  0  0  0  0
  -26.4290  -37.3736   23.9403 N   0  0  0  0  0  0
  -24.7214  -31.0258   22.0905 N   0  0  0  0  0  0
  -23.4209  -28.8087   23.3014 O   0  0  0  0  0  0
  -28.2639  -26.1213   20.2413 O   0  0  0  0  0  0
  -26.5667  -34.8898   22.4640 O   0  0  0  0  0  0
  -23.5566  -32.1308   23.7064 O   0  0  0  0  0  0
  -30.3866  -20.9100   21.5590 C   0  0  0  0  0  0
  -28.6136  -21.8513   20.2068 C   0  0  0  0  0  0
  -30.6587  -22.2368   21.9615 C   0  0  0  0  0  0
  -29.9680  -23.3792   21.5092 C   0  0  0  0  0  0
  -29.3442  -20.6202   20.6590 C   0  0  0  0  0  0
  -28.8812  -23.2785   20.5865 C   0  0  0  0  0  0
  -31.7333  -22.5697   22.9557 C   0  0  0  0  0  0
  -31.6833  -24.0957   23.0892 C   0  0  0  0  0  0
  -30.5786  -24.6384   22.1335 C   0  0  0  0  0  0
  -31.2625  -25.4965   21.0488 C   0  0  0  0  0  0
  -29.5828  -25.4439   22.9994 C   0  0  0  0  0  0
  -27.9781  -24.5897   20.0871 C   0  0  0  0  0  0
  -30.0782  -17.7048   20.7071 C   0  0  0  0  0  0
  -29.0472  -19.0093   20.3325 C   0  0  2  0  0  0
  -29.7350  -16.1528   20.5736 N   0  0  0  0  0  0
  -28.6383  -18.8705   18.9309 N   0  3  0  0  0  0
  -31.4750  -12.7735   19.1890 H   0  0  0  0  0  0
  -30.4454  -11.6578   20.0382 H   0  0  0  0  0  0
  -29.8502  -11.7322   17.5928 H   0  0  0  0  0  0
  -29.6097  -13.4599   17.6883 H   0  0  0  0  0  0
  -27.9498  -11.2759   18.9767 H   0  0  0  0  0  0
  -27.3978  -12.4510   17.8133 H   0  0  0  0  0  0
  -27.5861  -14.2491   19.4084 H   0  0  0  0  0  0
  -28.7614  -12.3034   21.4512 H   0  0  0  0  0  0
  -28.3582  -13.9773   21.7565 H   0  0  0  0  0  0
  -25.2770   -9.5683   22.4751 H   0  0  0  0  0  0
  -24.0013   -7.4634   22.7469 H   0  0  0  0  0  0
  -21.0847   -8.8768   19.8942 H   0  0  0  0  0  0
  -22.3708  -10.9667   19.6161 H   0  0  0  0  0  0
  -21.2006   -7.6144   23.9703 H   0  0  0  0  0  0
  -21.1492   -6.0514   25.9074 H   0  0  0  0  0  0
  -22.0596   -2.7602   23.2829 H   0  0  0  0  0  0
  -22.4049  -11.9880   22.4868 H   0  0  0  0  0  0
  -21.1030  -13.1193   22.2615 H   0  0  0  0  0  0
  -24.6397  -15.8426   20.5220 H   0  0  0  0  0  0
  -26.2462  -15.6285   20.0421 H   0  0  0  0  0  0
  -26.7279  -32.5276   23.0987 H   0  0  0  0  0  0
  -25.0063  -33.9597   25.0305 H   0  0  0  0  0  0
  -22.7543  -31.2854   21.3751 H   0  0  0  0  0  0
  -23.3755  -35.9582   23.3303 H   0  0  0  0  0  0
  -24.3579  -36.8885   22.2061 H   0  0  0  0  0  0
  -23.7252  -37.6445   23.6685 H   0  0  0  0  0  0
  -26.1683  -31.4657   20.6187 H   0  0  0  0  0  0
  -26.8757  -30.7585   22.0342 H   0  0  0  0  0  0
  -28.1347  -28.7848   21.2391 H   0  0  0  0  0  0
  -25.9235  -25.8354   18.9943 H   0  0  0  0  0  0
  -23.9871  -27.2966   18.9720 H   0  0  0  0  0  0
  -23.8155  -30.5603   19.3966 H   0  0  0  0  0  0
  -22.7935  -29.2284   19.8411 H   0  0  0  0  0  0
  -25.1316  -36.1854   25.0809 H   0  0  0  0  0  0
  -21.0005  -28.3313   24.1356 H   0  0  0  0  0  0
  -20.5673  -26.2337   23.3627 H   0  0  0  0  0  0
  -21.6651  -26.7428   22.1204 H   0  0  0  0  0  0
  -19.6923  -25.6285   21.1257 H   0  0  0  0  0  0
  -19.6696  -27.3172   20.6726 H   0  0  0  0  0  0
  -17.4213  -26.6679   21.4028 H   0  0  0  0  0  0
  -18.0345  -26.0083   22.9025 H   0  0  0  0  0  0
  -19.7953  -30.7299   24.2227 H   0  0  0  0  0  0
  -17.5025  -31.6267   24.5167 H   0  0  0  0  0  0
  -15.5365  -30.2975   23.7670 H   0  0  0  0  0  0
  -15.8692  -28.0809   22.7084 H   0  0  0  0  0  0
  -24.5888  -30.7083   25.7716 H   0  0  0  0  0  0
  -24.8886  -32.2921   26.4777 H   0  0  0  0  0  0
  -25.7987  -30.8943   27.0214 H   0  0  0  0  0  0
  -26.3024  -29.6657   24.1305 H   0  0  0  0  0  0
  -27.3987  -29.7248   25.4885 H   0  0  0  0  0  0
  -27.8935  -30.4160   23.9642 H   0  0  0  0  0  0
  -27.2647  -33.3638   26.2004 H   0  0  0  0  0  0
  -28.3890  -32.6852   25.0335 H   0  0  0  0  0  0
  -28.0696  -31.8494   26.5452 H   0  0  0  0  0  0
  -28.2588  -38.0087   24.7507 H   0  0  0  0  0  0
  -28.1081  -36.2616   24.6301 H   0  0  0  0  0  0
  -27.2295  -37.1437   25.8870 H   0  0  0  0  0  0
  -20.9485  -29.8761   21.6777 H   0  0  0  0  0  0
  -26.0157  -38.2807   24.1398 H   0  0  0  0  0  0
  -30.9784  -20.1079   21.9781 H   0  0  0  0  0  0
  -27.7828  -21.7013   19.5328 H   0  0  0  0  0  0
  -32.7048  -22.2255   22.6013 H   0  0  0  0  0  0
  -31.5277  -22.0863   23.9129 H   0  0  0  0  0  0
  -32.6636  -24.5242   22.8741 H   0  0  0  0  0  0
  -31.4789  -24.3497   24.1309 H   0  0  0  0  0  0
  -32.0982  -24.9614   20.5962 H   0  0  0  0  0  0
  -31.6593  -26.4229   21.4636 H   0  0  0  0  0  0
  -30.5995  -25.7619   20.2305 H   0  0  0  0  0  0
  -29.1815  -24.8316   23.8066 H   0  0  0  0  0  0
  -28.7280  -25.8324   22.4631 H   0  0  0  0  0  0
  -30.0769  -26.3006   23.4602 H   0  0  0  0  0  0
  -27.0040  -24.4190   20.5457 H   0  0  0  0  0  0
  -27.8227  -24.4325   19.0194 H   0  0  0  0  0  0
  -30.3584  -17.8296   21.7534 H   0  0  0  0  0  0
  -31.0070  -17.8611   20.1585 H   0  0  0  0  0  0
  -28.1444  -18.8135   20.9127 H   0  0  0  0  0  0
  -28.7564  -15.9447   20.7031 H   0  0  0  0  0  0
  -29.3994  -19.1123   18.3234 H   0  0  0  0  0  0
  -27.8578  -19.4673   18.7311 H   0  0  0  0  0  0
  -28.3688  -17.9224   18.7450 H   0  0  0  0  0  0
  1 25  1  0  0  0
  1 30  2  0  0  0
  1 85  1  0  0  0
  2  3  1  0  0  0
  2 25  1  0  0  0
  2 87  1  0  0  0
  2 88  1  0  0  0
  3  4  1  0  0  0
  3 89  1  0  0  0
  3 90  1  0  0  0
  4  5  1  0  0  0
  4 91  1  0  0  0
  4 92  1  0  0  0
  5  6  1  0  0  0
  5 26  1  0  0  0
  5 93  1  0  0  0
  6 25  1  0  0  0
  6 94  1  0  0  0
  6 95  1  0  0  0
  7  8  2  0  0  0
  7 26  1  0  0  0
  7 29  1  0  0  0
  8  9  1  0  0  0
  8 22  1  0  0  0
  9 10  1  0  0  0
  9 27  2  0  0  0
 10 11  2  0  0  0
 10 15  1  0  0  0
 11 12  1  0  0  0
 11 96  1  0  0  0
 12 13  2  0  0  0
 12 97  1  0  0  0
 13 14  1  0  0  0
 13 31  1  0  0  0
 14 15  2  0  0  0
 14 98  1  0  0  0
 15 99  1  0  0  0
 16 17  2  0  0  0
 16 21  1  0  0  0
 16 31  1  0  0  0
 17 18  1  0  0  0
 17100  1  0  0  0
 18 19  2  0  0  0
 18101  1  0  0  0
 19 20  1  0  0  0
 19 24  1  0  0  0
 20 21  2  0  0  0
 20102  1  0  0  0
 21 23  1  0  0  0
 22 28  1  0  0  0
 22 32  2  0  0  0
 26 27  1  0  0  0
 28103  1  0  0  0
 28104  1  0  0  0
 29105  1  0  0  0
 29106  1  0  0  0
 33 34  1  0  0  0
 33 66  1  0  0  0
 33 70  2  0  0  0
 34 36  1  0  0  0
 34 59  1  0  0  0
 34107  1  0  0  0
 35 44  2  0  0  0
 35 45  1  0  0  0
 35 68  1  0  0  0
 36 56  1  0  0  0
 36108  1  0  0  0
 37 39  1  0  0  0
 37 47  1  0  0  0
 37 66  1  0  0  0
 37109  1  0  0  0
 38 43  2  0  0  0
 38 46  1  0  0  0
 38 47  1  0  0  0
 39 64  1  0  0  0
 39 67  2  0  0  0
 40 52  1  0  0  0
 40 53  2  0  0  0
 40 58  1  0  0  0
 41110  1  0  0  0
 41111  1  0  0  0
 41112  1  0  0  0
 41 48  1  0  0  0
 42 43  1  0  0  0
 42 66  1  0  0  0
 42113  1  0  0  0
 42114  1  0  0  0
 43 44  1  0  0  0
 44115  1  0  0  0
 45 46  2  0  0  0
 45116  1  0  0  0
 46117  1  0  0  0
 47118  1  0  0  0
 47119  1  0  0  0
 48 56  1  0  0  0
 48 65  1  0  0  0
 48120  1  0  0  0
 49 50  1  0  0  0
 49 53  1  0  0  0
 49 64  1  0  0  0
 49121  1  0  0  0
 50 51  1  0  0  0
 50122  1  0  0  0
 50123  1  0  0  0
 51 52  1  0  0  0
 51124  1  0  0  0
 51125  1  0  0  0
 52126  1  0  0  0
 52127  1  0  0  0
 53 54  1  0  0  0
 54 55  2  0  0  0
 54128  1  0  0  0
 55 57  1  0  0  0
 55129  1  0  0  0
 56 69  2  0  0  0
 57 58  2  0  0  0
 57130  1  0  0  0
 58131  1  0  0  0
 59 60  1  0  0  0
 59 61  1  0  0  0
 59 62  1  0  0  0
 60132  1  0  0  0
 60133  1  0  0  0
 60134  1  0  0  0
 61135  1  0  0  0
 61136  1  0  0  0
 61137  1  0  0  0
 62138  1  0  0  0
 62139  1  0  0  0
 62140  1  0  0  0
 63 65  1  0  0  0
 63141  1  0  0  0
 63142  1  0  0  0
 63143  1  0  0  0
 64144  1  0  0  0
 65145  1  0  0  0
 68 82  1  0  0  0
 71 73  2  0  0  0
 71 75  1  0  0  0
 71146  1  0  0  0
 72 75  2  0  0  0
 72 76  1  0  0  0
 72147  1  0  0  0
 73 74  1  0  0  0
 73 77  1  0  0  0
 74 76  2  0  0  0
 74 79  1  0  0  0
 75 84  1  0  0  0
 76 82  1  0  0  0
 77 78  1  0  0  0
 77148  1  0  0  0
 77149  1  0  0  0
 78 79  1  0  0  0
 78150  1  0  0  0
 78151  1  0  0  0
 79 80  1  0  0  0
 79 81  1  0  0  0
 80152  1  0  0  0
 80153  1  0  0  0
 80154  1  0  0  0
 81155  1  0  0  0
 81156  1  0  0  0
 81157  1  0  0  0
 82158  1  0  0  0
 82159  1  0  0  0
 83 84  1  0  0  0
 83 85  1  0  0  0
 83160  1  0  0  0
 83161  1  0  0  0
 84 86  1  0  0  0
 84162  1  0  0  0
 85163  1  0  0  0
 86164  1  0  0  0
 86165  1  0  0  0
 86166  1  0  0  0
M  CHG  1  86   1
M  ISO  4   1 100  68 101  82 101  85 100
M  END
> <chiral flag>
0

> <version>
0

> <s_m_source_file>
/data/baiqing/PycharmProjects/Reinvent-master-3.2/result/LINK_invent/BTK/process_docking_weight1_custom_sum_contain_oxygen_bond_distance_aromatic_linkinvent_7_9_3/rearranged_h_0147.sdf

> <i_m_source_file_index>
27

> <r_mmod_Potential_Energy-OPLS-2005>
248.542144775391

> <r_mmod_Stretch_Energy-OPLS-2005>
291.736145019531

> <r_mmod_Bend_Energy-OPLS-2005>
291.892547607422

> <r_mmod_Torsional_Energy-OPLS-2005>
267.337921142578

> <r_mmod_Improper_Torsional_Energy-OPLS-2005>
4.62722539901733

> <r_mmod_Van_der_Waal_Energy-OPLS-2005>
128.745391845703

> <r_mmod_Electrostatic_Energy-OPLS-2005>
-416.721282958984

> <r_mmod_Solvation_Energy-OPLS-2005>
-529.330444335938

> <b_mmod_Minimization_Converged-OPLS-2005>
0

> <r_mmod_RMS_Derivative-OPLS-2005>
2.02780485153198

$$$$
27
                    3D
 Structure written by MMmdl.
162171  0  0  1  0            999 V2000
  -30.5177  -14.7762   20.4457 C   0  0  0  0  0  0
  -30.4433  -12.4412   19.5162 C   0  0  0  0  0  0
  -29.5469  -12.4597   18.2597 C   0  0  0  0  0  0
  -28.0426  -12.3739   18.6249 C   0  0  0  0  0  0
  -27.6411  -13.2083   19.8864 C   0  0  2  0  0  0
  -28.6847  -13.1198   21.0085 C   0  0  0  0  0  0
  -25.2591  -13.8063   20.5985 C   0  0  0  0  0  0
  -24.1783  -13.0278   20.9239 C   0  0  0  0  0  0
  -24.6366  -11.6805   20.8724 C   0  0  0  0  0  0
  -23.8969  -10.4228   21.0345 C   0  0  0  0  0  0
  -24.3524   -9.4183   21.9153 C   0  0  0  0  0  0
  -23.6246   -8.2191   22.0749 C   0  0  0  0  0  0
  -22.4248   -8.0199   21.3528 C   0  0  0  0  0  0
  -21.9842   -9.0143   20.4663 C   0  0  0  0  0  0
  -22.7120  -10.2043   20.3040 C   0  0  0  0  0  0
  -21.6865   -6.0624   22.5282 C   0  0  0  0  0  0
  -21.4041   -6.5560   23.8194 C   0  0  0  0  0  0
  -21.3711   -5.6738   24.9189 C   0  0  0  0  0  0
  -21.6075   -4.2988   24.7262 C   0  0  0  0  0  0
  -21.8852   -3.8035   23.4413 C   0  0  0  0  0  0
  -21.9212   -4.6842   22.3444 C   0  0  0  0  0  0
  -22.7857  -13.5200   21.1795 C   0  0  0  0  0  0
  -22.1643   -4.2023   21.1003 F   0  0  0  0  0  0
  -21.5680   -3.4508   25.7787 F   0  0  0  0  0  0
  -29.9546  -13.5157   20.4092 N   0  0  0  0  0  0
  -26.2949  -12.9206   20.3521 N   0  0  0  0  0  0
  -25.9303  -11.6349   20.5776 N   0  0  0  0  0  0
  -22.0387  -12.8233   22.0358 N   0  0  0  0  0  0
  -25.4219  -15.1820   20.4754 N   0  0  0  0  0  0
  -31.7424  -14.8778   20.3108 O   0  0  0  0  0  0
  -21.6632   -6.8762   21.4245 O   0  0  0  0  0  0
  -22.3595  -14.5488   20.6635 O   0  0  0  0  0  0
  -24.6334  -31.8561   23.1873 C   0  0  0  0  0  0
  -25.9160  -32.4706   23.8220 C   0  0  1  0  0  0
  -27.2053  -27.2419   20.1809 C   0  0  0  0  0  0
  -25.5942  -33.8481   24.2163 N   0  0  0  0  0  0
  -23.4301  -30.4804   21.5305 C   0  0  2  0  0  0
  -24.8726  -28.9132   20.1169 C   0  0  0  0  0  0
  -22.7471  -29.4699   22.4845 C   0  0  0  0  0  0
  -18.0333  -28.1468   22.8475 C   0  0  0  0  0  0
  -24.1523  -36.7224   23.2643 C   0  0  0  0  0  0
  -25.9783  -30.7604   21.3800 C   0  0  0  0  0  0
  -26.0453  -29.3841   20.7249 C   0  0  0  0  0  0
  -27.2128  -28.5581   20.7439 C   0  0  0  0  0  0
  -26.0148  -26.8344   19.5434 C   0  0  0  0  0  0
  -24.8634  -27.6416   19.5160 C   0  0  0  0  0  0
  -23.6501  -29.8072   20.1514 C   0  0  0  0  0  0
  -25.4152  -36.2976   24.0307 C   0  0  1  0  0  0
  -20.5926  -28.3817   23.1250 C   0  0  2  0  0  0
  -20.6870  -26.9524   22.5452 C   0  0  0  0  0  0
  -19.5831  -26.6411   21.5266 C   0  0  0  0  0  0
  -18.1988  -26.7996   22.1624 C   0  0  0  0  0  0
  -19.1579  -28.8952   23.2859 C   0  0  0  0  0  0
  -18.9498  -30.1540   23.8869 C   0  0  0  0  0  0
  -17.6509  -30.6653   24.0593 C   0  0  0  0  0  0
  -25.9104  -34.9392   23.5025 C   0  0  0  0  0  0
  -16.5410  -29.9157   23.6365 C   0  0  0  0  0  0
  -16.7312  -28.6609   23.0310 C   0  0  0  0  0  0
  -26.4489  -31.6536   25.0627 C   0  0  0  0  0  0
  -25.3694  -31.3753   26.1329 C   0  0  0  0  0  0
  -27.0403  -30.2920   24.6233 C   0  0  0  0  0  0
  -27.6028  -32.4312   25.7455 C   0  0  0  0  0  0
  -27.5579  -37.1776   24.8444 C   0  0  0  0  0  0
  -21.4203  -29.3092   22.3543 N   0  0  0  0  0  0
  -26.4276  -37.3708   23.9389 N   0  0  0  0  0  0
  -24.6963  -31.0557   22.0862 N   0  0  0  0  0  0
  -23.4144  -28.8318   23.3037 O   0  0  0  0  0  0
  -28.2804  -26.3320   20.2337 O   0  0  0  0  0  0
  -26.5673  -34.8907   22.4616 O   0  0  0  0  0  0
  -23.5483  -32.1407   23.7181 O   0  0  0  0  0  0
  -29.3081  -18.4587   20.3393 C   0  0  0  0  0  0
  -28.4264  -19.2890   22.4006 C   0  0  0  0  0  0
  -28.8367  -19.6035   21.0952 C   0  0  0  0  0  0
  -29.3706  -17.0922   20.8390 C   0  0  0  0  0  0
  -29.0768  -17.0405   22.2215 C   0  0  0  0  0  0
  -28.6161  -15.6006   17.6267 C   0  0  0  0  0  0
  -28.9624  -17.0308   17.7436 C   0  0  0  0  0  0
  -29.7587  -16.0222   18.5697 C   0  0  0  0  0  0
  -30.6185  -16.4302   23.7965 C   0  0  0  0  0  0
  -28.4484  -23.5496   20.3355 C   0  0  0  0  0  0
  -28.5854  -22.2574   21.3011 C   0  0  0  0  0  0
  -28.0740  -25.0123   20.9394 C   0  0  0  0  0  0
  -28.5606  -18.0614   22.9487 N   0  0  0  0  0  0
  -28.6628  -20.9362   20.5502 N   0  0  0  0  0  0
  -29.7106  -15.8569   20.0302 N   0  0  0  0  0  0
  -29.5190  -16.0012   22.9893 O   0  0  0  0  0  0
  -31.4958  -12.5651   19.2552 H   0  0  0  0  0  0
  -30.3822  -11.4643   20.0010 H   0  0  0  0  0  0
  -29.8153  -11.6531   17.5806 H   0  0  0  0  0  0
  -29.7686  -13.3579   17.6949 H   0  0  0  0  0  0
  -27.8150  -11.3222   18.7873 H   0  0  0  0  0  0
  -27.4325  -12.6701   17.7706 H   0  0  0  0  0  0
  -27.6190  -14.2514   19.6124 H   0  0  0  0  0  0
  -28.7456  -12.1029   21.4074 H   0  0  0  0  0  0
  -28.4327  -13.7713   21.8462 H   0  0  0  0  0  0
  -25.2626   -9.5710   22.4776 H   0  0  0  0  0  0
  -23.9979   -7.4614   22.7511 H   0  0  0  0  0  0
  -21.0728   -8.8611   19.9014 H   0  0  0  0  0  0
  -22.3477  -10.9552   19.6191 H   0  0  0  0  0  0
  -21.2017   -7.6058   23.9675 H   0  0  0  0  0  0
  -21.1511   -6.0462   25.9082 H   0  0  0  0  0  0
  -22.0596   -2.7509   23.2927 H   0  0  0  0  0  0
  -22.3889  -11.9891   22.4809 H   0  0  0  0  0  0
  -21.1038  -13.1415   22.2467 H   0  0  0  0  0  0
  -24.6383  -15.8082   20.6146 H   0  0  0  0  0  0
  -26.2801  -15.6667   20.2408 H   0  0  0  0  0  0
  -26.7252  -32.5332   23.0988 H   0  0  0  0  0  0
  -25.0026  -33.9581   25.0248 H   0  0  0  0  0  0
  -22.7311  -31.3045   21.3744 H   0  0  0  0  0  0
  -23.3745  -35.9576   23.3263 H   0  0  0  0  0  0
  -24.3614  -36.8862   22.2049 H   0  0  0  0  0  0
  -23.7305  -37.6431   23.6709 H   0  0  0  0  0  0
  -26.1422  -31.5276   20.6248 H   0  0  0  0  0  0
  -26.8405  -30.7862   22.0315 H   0  0  0  0  0  0
  -28.1048  -28.9072   21.2457 H   0  0  0  0  0  0
  -25.9581  -25.8508   19.0961 H   0  0  0  0  0  0
  -23.9532  -27.2549   19.0720 H   0  0  0  0  0  0
  -23.7935  -30.5716   19.3870 H   0  0  0  0  0  0
  -22.7683  -29.2469   19.8416 H   0  0  0  0  0  0
  -25.1371  -36.1759   25.0788 H   0  0  0  0  0  0
  -21.0055  -28.3432   24.1341 H   0  0  0  0  0  0
  -20.5832  -26.2426   23.3658 H   0  0  0  0  0  0
  -21.6738  -26.7612   22.1186 H   0  0  0  0  0  0
  -19.6979  -25.6282   21.1336 H   0  0  0  0  0  0
  -19.6744  -27.3199   20.6752 H   0  0  0  0  0  0
  -17.4292  -26.6749   21.3989 H   0  0  0  0  0  0
  -18.0345  -26.0192   22.9066 H   0  0  0  0  0  0
  -19.7997  -30.7377   24.2162 H   0  0  0  0  0  0
  -17.5092  -31.6282   24.5247 H   0  0  0  0  0  0
  -15.5405  -30.3047   23.7717 H   0  0  0  0  0  0
  -15.8720  -28.0932   22.6960 H   0  0  0  0  0  0
  -24.5773  -30.7239   25.7582 H   0  0  0  0  0  0
  -24.9040  -32.3014   26.4759 H   0  0  0  0  0  0
  -25.7959  -30.8824   27.0084 H   0  0  0  0  0  0
  -26.3064  -29.6569   24.1252 H   0  0  0  0  0  0
  -27.4005  -29.7250   25.4829 H   0  0  0  0  0  0
  -27.8958  -30.4075   23.9564 H   0  0  0  0  0  0
  -27.2539  -33.3554   26.2085 H   0  0  0  0  0  0
  -28.3851  -32.6965   25.0328 H   0  0  0  0  0  0
  -28.0704  -31.8411   26.5352 H   0  0  0  0  0  0
  -28.2595  -38.0080   24.7532 H   0  0  0  0  0  0
  -28.1108  -36.2630   24.6271 H   0  0  0  0  0  0
  -27.2324  -37.1423   25.8852 H   0  0  0  0  0  0
  -20.9397  -29.8643   21.6601 H   0  0  0  0  0  0
  -26.0105  -38.2747   24.1401 H   0  0  0  0  0  0
  -29.6504  -18.6663   19.3467 H   0  0  0  0  0  0
  -27.9953  -20.0505   23.0300 H   0  0  0  0  0  0
  -28.8740  -15.1212   16.6810 H   0  0  0  0  0  0
  -27.5990  -15.3929   17.9462 H   0  0  0  0  0  0
  -29.4848  -17.4814   16.8994 H   0  0  0  0  0  0
  -28.1473  -17.6302   18.1514 H   0  0  0  0  0  0
  -30.7478  -15.8510   18.1416 H   0  0  0  0  0  0
  -30.3171  -17.1561   24.5563 H   0  0  0  0  0  0
  -31.3749  -16.9103   23.1681 H   0  0  0  0  0  0
  -31.0895  -15.5949   24.3117 H   0  0  0  0  0  0
  -27.6285  -23.2872   19.6672 H   0  0  0  0  0  0
  -29.3305  -23.5980   19.6930 H   0  0  0  0  0  0
  -27.7068  -22.2392   21.9636 H   0  0  0  0  0  0
  -29.4460  -22.4039   21.9747 H   0  0  0  0  0  0
  -28.5848  -25.1053   21.9016 H   0  0  0  0  0  0
  -27.0215  -24.9211   21.1999 H   0  0  0  0  0  0
  -27.8414  -20.8792   19.9378 H   0  0  0  0  0  0
  1 25  1  0  0  0
  1 30  2  0  0  0
  1 85  1  0  0  0
  2  3  1  0  0  0
  2 25  1  0  0  0
  2 87  1  0  0  0
  2 88  1  0  0  0
  3  4  1  0  0  0
  3 89  1  0  0  0
  3 90  1  0  0  0
  4  5  1  0  0  0
  4 91  1  0  0  0
  4 92  1  0  0  0
  5  6  1  0  0  0
  5 26  1  0  0  0
  5 93  1  0  0  0
  6 25  1  0  0  0
  6 94  1  0  0  0
  6 95  1  0  0  0
  7  8  2  0  0  0
  7 26  1  0  0  0
  7 29  1  0  0  0
  8  9  1  0  0  0
  8 22  1  0  0  0
  9 10  1  0  0  0
  9 27  2  0  0  0
 10 11  2  0  0  0
 10 15  1  0  0  0
 11 12  1  0  0  0
 11 96  1  0  0  0
 12 13  2  0  0  0
 12 97  1  0  0  0
 13 14  1  0  0  0
 13 31  1  0  0  0
 14 15  2  0  0  0
 14 98  1  0  0  0
 15 99  1  0  0  0
 16 17  2  0  0  0
 16 21  1  0  0  0
 16 31  1  0  0  0
 17 18  1  0  0  0
 17100  1  0  0  0
 18 19  2  0  0  0
 18101  1  0  0  0
 19 20  1  0  0  0
 19 24  1  0  0  0
 20 21  2  0  0  0
 20102  1  0  0  0
 21 23  1  0  0  0
 22 28  1  0  0  0
 22 32  2  0  0  0
 26 27  1  0  0  0
 28103  1  0  0  0
 28104  1  0  0  0
 29105  1  0  0  0
 29106  1  0  0  0
 33 34  1  0  0  0
 33 66  1  0  0  0
 33 70  2  0  0  0
 34 36  1  0  0  0
 34 59  1  0  0  0
 34107  1  0  0  0
 35 44  2  0  0  0
 35 45  1  0  0  0
 35 68  1  0  0  0
 36 56  1  0  0  0
 36108  1  0  0  0
 37 39  1  0  0  0
 37 47  1  0  0  0
 37 66  1  0  0  0
 37109  1  0  0  0
 38 43  2  0  0  0
 38 46  1  0  0  0
 38 47  1  0  0  0
 39 64  1  0  0  0
 39 67  2  0  0  0
 40 52  1  0  0  0
 40 53  2  0  0  0
 40 58  1  0  0  0
 41110  1  0  0  0
 41111  1  0  0  0
 41112  1  0  0  0
 41 48  1  0  0  0
 42 43  1  0  0  0
 42 66  1  0  0  0
 42113  1  0  0  0
 42114  1  0  0  0
 43 44  1  0  0  0
 44115  1  0  0  0
 45 46  2  0  0  0
 45116  1  0  0  0
 46117  1  0  0  0
 47118  1  0  0  0
 47119  1  0  0  0
 48 56  1  0  0  0
 48 65  1  0  0  0
 48120  1  0  0  0
 49 50  1  0  0  0
 49 53  1  0  0  0
 49 64  1  0  0  0
 49121  1  0  0  0
 50 51  1  0  0  0
 50122  1  0  0  0
 50123  1  0  0  0
 51 52  1  0  0  0
 51124  1  0  0  0
 51125  1  0  0  0
 52126  1  0  0  0
 52127  1  0  0  0
 53 54  1  0  0  0
 54 55  2  0  0  0
 54128  1  0  0  0
 55 57  1  0  0  0
 55129  1  0  0  0
 56 69  2  0  0  0
 57 58  2  0  0  0
 57130  1  0  0  0
 58131  1  0  0  0
 59 60  1  0  0  0
 59 61  1  0  0  0
 59 62  1  0  0  0
 60132  1  0  0  0
 60133  1  0  0  0
 60134  1  0  0  0
 61135  1  0  0  0
 61136  1  0  0  0
 61137  1  0  0  0
 62138  1  0  0  0
 62139  1  0  0  0
 62140  1  0  0  0
 63 65  1  0  0  0
 63141  1  0  0  0
 63142  1  0  0  0
 63143  1  0  0  0
 64144  1  0  0  0
 65145  1  0  0  0
 68 82  1  0  0  0
 71 73  2  0  0  0
 71 74  1  0  0  0
 71146  1  0  0  0
 72 73  1  0  0  0
 72 83  2  0  0  0
 72147  1  0  0  0
 73 84  1  0  0  0
 74 75  2  0  0  0
 74 85  1  0  0  0
 75 83  1  0  0  0
 75 86  1  0  0  0
 76 77  1  0  0  0
 76 78  1  0  0  0
 76148  1  0  0  0
 76149  1  0  0  0
 77 78  1  0  0  0
 77150  1  0  0  0
 77151  1  0  0  0
 78 85  1  0  0  0
 78152  1  0  0  0
 79 86  1  0  0  0
 79153  1  0  0  0
 79154  1  0  0  0
 79155  1  0  0  0
 80 81  1  0  0  0
 80 82  1  0  0  0
 80156  1  0  0  0
 80157  1  0  0  0
 81 84  1  0  0  0
 81158  1  0  0  0
 81159  1  0  0  0
 82160  1  0  0  0
 82161  1  0  0  0
 84162  1  0  0  0
M  ISO  4   1 100  68 101  82 101  85 100
M  END
> <chiral flag>
0

> <version>
0

> <s_m_source_file>
/data/baiqing/PycharmProjects/Reinvent-master-3.2/result/LINK_invent/BTK/process_docking_weight1_custom_sum_contain_oxygen_bond_distance_aromatic_linkinvent_7_9_3/rearranged_h_0147.sdf

> <i_m_source_file_index>
28

> <r_mmod_Potential_Energy-OPLS-2005>
424.830169677734

> <r_mmod_Stretch_Energy-OPLS-2005>
140.272171020508

> <r_mmod_Bend_Energy-OPLS-2005>
213.101379394531

> <r_mmod_Torsional_Energy-OPLS-2005>
429.487060546875

> <r_mmod_Improper_Torsional_Energy-OPLS-2005>
29.4855842590332

> <r_mmod_Van_der_Waal_Energy-OPLS-2005>
157.807144165039

> <r_mmod_Electrostatic_Energy-OPLS-2005>
-445.214691162109

> <r_mmod_Solvation_Energy-OPLS-2005>
-209.527328491211

> <b_mmod_Minimization_Converged-OPLS-2005>
0

> <r_mmod_RMS_Derivative-OPLS-2005>
13.6292715072632

$$$$
28
                    3D
 Structure written by MMmdl.
173182  0  0  1  0            999 V2000
  -30.6839  -14.4496   20.6491 C   0  0  0  0  0  0
  -30.4415  -12.3254   19.4003 C   0  0  0  0  0  0
  -29.4969  -12.5381   18.1953 C   0  0  0  0  0  0
  -28.0097  -12.4119   18.5950 C   0  0  0  0  0  0
  -27.6667  -13.2005   19.8865 C   0  0  2  0  0  0
  -28.7085  -12.8643   20.9733 C   0  0  0  0  0  0
  -25.2571  -13.8153   20.5669 C   0  0  0  0  0  0
  -24.1822  -13.0425   20.9161 C   0  0  0  0  0  0
  -24.6397  -11.6894   20.8733 C   0  0  0  0  0  0
  -23.9065  -10.4293   21.0399 C   0  0  0  0  0  0
  -24.3640   -9.4221   21.9190 C   0  0  0  0  0  0
  -23.6327   -8.2247   22.0766 C   0  0  0  0  0  0
  -22.4305   -8.0290   21.3564 C   0  0  0  0  0  0
  -21.9919   -9.0251   20.4654 C   0  0  0  0  0  0
  -22.7224  -10.2139   20.3056 C   0  0  0  0  0  0
  -21.6854   -6.0761   22.5299 C   0  0  0  0  0  0
  -21.4028   -6.5666   23.8231 C   0  0  0  0  0  0
  -21.3638   -5.6824   24.9193 C   0  0  0  0  0  0
  -21.6048   -4.3087   24.7241 C   0  0  0  0  0  0
  -21.8832   -3.8168   23.4364 C   0  0  0  0  0  0
  -21.9200   -4.6981   22.3415 C   0  0  0  0  0  0
  -22.7822  -13.5182   21.1841 C   0  0  0  0  0  0
  -22.1661   -4.2161   21.0988 F   0  0  0  0  0  0
  -21.5616   -3.4573   25.7757 F   0  0  0  0  0  0
  -30.0315  -13.2625   20.4653 N   0  0  0  0  0  0
  -26.3039  -12.9322   20.3411 N   0  0  0  0  0  0
  -25.9307  -11.6488   20.5744 N   0  0  0  0  0  0
  -22.0495  -12.8167   22.0426 N   0  0  0  0  0  0
  -25.4269  -15.1882   20.4080 N   0  0  0  0  0  0
  -31.7835  -14.6611   20.1197 O   0  0  0  0  0  0
  -21.6664   -6.8891   21.4253 O   0  0  0  0  0  0
  -22.3443  -14.5470   20.6682 O   0  0  0  0  0  0
  -24.6121  -31.8709   23.2127 C   0  0  0  0  0  0
  -25.9023  -32.4842   23.8420 C   0  0  1  0  0  0
  -27.2286  -27.4425   20.0778 C   0  0  0  0  0  0
  -25.5878  -33.8637   24.2348 N   0  0  0  0  0  0
  -23.3980  -30.4981   21.5537 C   0  0  2  0  0  0
  -24.8401  -28.9676   20.1144 C   0  0  0  0  0  0
  -22.7393  -29.4679   22.4995 C   0  0  0  0  0  0
  -18.0271  -28.1357   22.8500 C   0  0  0  0  0  0
  -24.1483  -36.7322   23.2637 C   0  0  0  0  0  0
  -25.9287  -30.8370   21.3664 C   0  0  0  0  0  0
  -25.9999  -29.4729   20.7108 C   0  0  0  0  0  0
  -27.1909  -28.7119   20.6993 C   0  0  0  0  0  0
  -26.0408  -26.9515   19.4805 C   0  0  0  0  0  0
  -24.8536  -27.7036   19.5041 C   0  0  0  0  0  0
  -23.6033  -29.8345   20.1668 C   0  0  0  0  0  0
  -25.4103  -36.3129   24.0347 C   0  0  1  0  0  0
  -20.5866  -28.3649   23.1314 C   0  0  2  0  0  0
  -20.6759  -26.9387   22.5409 C   0  0  0  0  0  0
  -19.5732  -26.6376   21.5203 C   0  0  0  0  0  0
  -18.1916  -26.7909   22.1621 C   0  0  0  0  0  0
  -19.1526  -28.8821   23.2904 C   0  0  0  0  0  0
  -18.9455  -30.1433   23.8906 C   0  0  0  0  0  0
  -17.6457  -30.6569   24.0570 C   0  0  0  0  0  0
  -25.9041  -34.9490   23.5154 C   0  0  0  0  0  0
  -16.5348  -29.9077   23.6319 C   0  0  0  0  0  0
  -16.7263  -28.6493   23.0338 C   0  0  0  0  0  0
  -26.4452  -31.6602   25.0737 C   0  0  0  0  0  0
  -25.3722  -31.3700   26.1486 C   0  0  0  0  0  0
  -27.0280  -30.3045   24.6095 C   0  0  0  0  0  0
  -27.6025  -32.4319   25.7497 C   0  0  0  0  0  0
  -27.5584  -37.1810   24.8459 C   0  0  0  0  0  0
  -21.4125  -29.3034   22.3726 N   0  0  0  0  0  0
  -26.4291  -37.3806   23.9410 N   0  0  0  0  0  0
  -24.6646  -31.0830   22.1020 N   0  0  0  0  0  0
  -23.4181  -28.8229   23.3031 O   0  0  0  0  0  0
  -28.4240  -26.7498   20.1116 O   0  0  0  0  0  0
  -26.5597  -34.8929   22.4711 O   0  0  0  0  0  0
  -23.5315  -32.1465   23.7526 O   0  0  0  0  0  0
  -30.5531  -22.3003   21.5243 C   0  0  0  0  0  0
  -28.3769  -22.0239   22.5425 C   0  0  0  0  0  0
  -31.0144  -21.1349   22.1734 C   0  0  0  0  0  0
  -28.8154  -20.8536   23.2006 C   0  0  0  0  0  0
  -30.1346  -20.3627   22.9850 C   0  0  0  0  0  0
  -29.2241  -22.7494   21.6852 C   0  0  0  0  0  0
  -29.3636  -16.9336   23.1520 C   0  0  0  0  0  0
  -30.8905  -17.8235   21.3689 C   0  0  0  0  0  0
  -29.3372  -15.5337   22.4849 C   0  0  0  0  0  0
  -30.0559  -16.8280   20.5288 C   0  0  0  0  0  0
  -30.6746  -17.7200   22.9131 C   0  0  0  0  0  0
  -32.4823  -20.7815   21.9819 C   0  0  0  0  0  0
  -27.8467  -20.1920   24.1712 C   0  0  0  0  0  0
  -31.8399  -16.9105   23.5302 C   0  0  0  0  0  0
  -30.6302  -19.0903   23.6968 C   0  0  0  0  0  0
  -28.6111  -25.5558   19.3422 C   0  0  0  0  0  0
  -29.4973  -24.5614   20.1068 C   0  0  0  0  0  0
  -29.9544  -15.4940   21.1416 N   0  0  0  0  0  0
  -28.7007  -23.8681   21.0696 O   0  0  0  0  0  0
  -31.4773  -12.4698   19.0871 H   0  0  0  0  0  0
  -30.3902  -11.2963   19.7575 H   0  0  0  0  0  0
  -29.7357  -11.8283   17.4012 H   0  0  0  0  0  0
  -29.6634  -13.5324   17.7757 H   0  0  0  0  0  0
  -27.7842  -11.3552   18.7369 H   0  0  0  0  0  0
  -27.3764  -12.7498   17.7740 H   0  0  0  0  0  0
  -27.7359  -14.2626   19.6508 H   0  0  0  0  0  0
  -28.7020  -11.7871   21.1390 H   0  0  0  0  0  0
  -28.4524  -13.2537   21.9490 H   0  0  0  0  0  0
  -25.2811   -9.5711   22.4731 H   0  0  0  0  0  0
  -24.0074   -7.4647   22.7475 H   0  0  0  0  0  0
  -21.0862   -8.8745   19.8936 H   0  0  0  0  0  0
  -22.3699  -10.9681   19.6151 H   0  0  0  0  0  0
  -21.2031   -7.6190   23.9717 H   0  0  0  0  0  0
  -21.1430   -6.0579   25.9098 H   0  0  0  0  0  0
  -22.0627   -2.7631   23.2877 H   0  0  0  0  0  0
  -22.4162  -11.9862   22.4843 H   0  0  0  0  0  0
  -21.1083  -13.1111   22.2594 H   0  0  0  0  0  0
  -24.6620  -15.8471   20.5094 H   0  0  0  0  0  0
  -26.2941  -15.6290   20.1308 H   0  0  0  0  0  0
  -26.7097  -32.5561   23.1183 H   0  0  0  0  0  0
  -25.0013  -33.9811   25.0479 H   0  0  0  0  0  0
  -22.6860  -31.3154   21.4185 H   0  0  0  0  0  0
  -23.3755  -35.9641   23.3293 H   0  0  0  0  0  0
  -24.3589  -36.8943   22.2055 H   0  0  0  0  0  0
  -23.7218  -37.6515   23.6656 H   0  0  0  0  0  0
  -26.0457  -31.6057   20.6017 H   0  0  0  0  0  0
  -26.8151  -30.8849   21.9880 H   0  0  0  0  0  0
  -28.0865  -29.0988   21.1644 H   0  0  0  0  0  0
  -25.9741  -25.9911   18.9973 H   0  0  0  0  0  0
  -23.9574  -27.3080   19.0476 H   0  0  0  0  0  0
  -23.7073  -30.6115   19.4081 H   0  0  0  0  0  0
  -22.7264  -29.2542   19.8743 H   0  0  0  0  0  0
  -25.1268  -36.2006   25.0840 H   0  0  0  0  0  0
  -20.9968  -28.3213   24.1425 H   0  0  0  0  0  0
  -20.5646  -26.2259   23.3598 H   0  0  0  0  0  0
  -21.6633  -26.7411   22.1212 H   0  0  0  0  0  0
  -19.6893  -25.6293   21.1213 H   0  0  0  0  0  0
  -19.6666  -27.3201   20.6753 H   0  0  0  0  0  0
  -17.4184  -26.6660   21.4030 H   0  0  0  0  0  0
  -18.0318  -26.0040   22.9012 H   0  0  0  0  0  0
  -19.7937  -30.7242   24.2274 H   0  0  0  0  0  0
  -17.5017  -31.6249   24.5168 H   0  0  0  0  0  0
  -15.5349  -30.2984   23.7624 H   0  0  0  0  0  0
  -15.8668  -28.0817   22.7034 H   0  0  0  0  0  0
  -24.5886  -30.7055   25.7823 H   0  0  0  0  0  0
  -24.8923  -32.2856   26.4950 H   0  0  0  0  0  0
  -25.8078  -30.8857   27.0233 H   0  0  0  0  0  0
  -26.2830  -29.6827   24.1119 H   0  0  0  0  0  0
  -27.4023  -29.7255   25.4546 H   0  0  0  0  0  0
  -27.8675  -30.4369   23.9268 H   0  0  0  0  0  0
  -27.2631  -33.3601   26.2103 H   0  0  0  0  0  0
  -28.3811  -32.6906   25.0311 H   0  0  0  0  0  0
  -28.0710  -31.8427   26.5388 H   0  0  0  0  0  0
  -28.2587  -38.0131   24.7545 H   0  0  0  0  0  0
  -28.1110  -36.2658   24.6239 H   0  0  0  0  0  0
  -27.2315  -37.1402   25.8870 H   0  0  0  0  0  0
  -20.9262  -29.8796   21.6996 H   0  0  0  0  0  0
  -26.0195  -38.2884   24.1421 H   0  0  0  0  0  0
  -31.2488  -22.8517   20.9090 H   0  0  0  0  0  0
  -27.3704  -22.3870   22.7043 H   0  0  0  0  0  0
  -29.1469  -16.8321   24.2155 H   0  0  0  0  0  0
  -28.5359  -17.5142   22.7426 H   0  0  0  0  0  0
  -30.6415  -18.8105   20.9867 H   0  0  0  0  0  0
  -31.9450  -17.6860   21.1266 H   0  0  0  0  0  0
  -28.2866  -15.2574   22.4145 H   0  0  0  0  0  0
  -29.8210  -14.8043   23.1353 H   0  0  0  0  0  0
  -30.4436  -16.7840   19.5082 H   0  0  0  0  0  0
  -29.0402  -17.2162   20.4213 H   0  0  0  0  0  0
  -33.0977  -21.3427   22.6876 H   0  0  0  0  0  0
  -32.7977  -21.0503   20.9716 H   0  0  0  0  0  0
  -32.7030  -19.7233   22.1117 H   0  0  0  0  0  0
  -26.8716  -20.6790   24.1505 H   0  0  0  0  0  0
  -28.2183  -20.2659   25.1925 H   0  0  0  0  0  0
  -27.6884  -19.1422   23.9377 H   0  0  0  0  0  0
  -31.9547  -15.9236   23.0812 H   0  0  0  0  0  0
  -31.6952  -16.7654   24.6013 H   0  0  0  0  0  0
  -32.7919  -17.4238   23.3972 H   0  0  0  0  0  0
  -30.0994  -18.9575   24.6386 H   0  0  0  0  0  0
  -31.6354  -19.3297   24.0434 H   0  0  0  0  0  0
  -27.7164  -25.0178   19.0459 H   0  0  0  0  0  0
  -29.1121  -25.8528   18.4201 H   0  0  0  0  0  0
  -30.3337  -25.0735   20.5837 H   0  0  0  0  0  0
  -29.9055  -23.8530   19.3827 H   0  0  0  0  0  0
  1 25  1  0  0  0
  1 30  2  0  0  0
  1 88  1  0  0  0
  2  3  1  0  0  0
  2 25  1  0  0  0
  2 90  1  0  0  0
  2 91  1  0  0  0
  3  4  1  0  0  0
  3 92  1  0  0  0
  3 93  1  0  0  0
  4  5  1  0  0  0
  4 94  1  0  0  0
  4 95  1  0  0  0
  5  6  1  0  0  0
  5 26  1  0  0  0
  5 96  1  0  0  0
  6 25  1  0  0  0
  6 97  1  0  0  0
  6 98  1  0  0  0
  7  8  2  0  0  0
  7 26  1  0  0  0
  7 29  1  0  0  0
  8  9  1  0  0  0
  8 22  1  0  0  0
  9 10  1  0  0  0
  9 27  2  0  0  0
 10 11  2  0  0  0
 10 15  1  0  0  0
 11 12  1  0  0  0
 11 99  1  0  0  0
 12 13  2  0  0  0
 12100  1  0  0  0
 13 14  1  0  0  0
 13 31  1  0  0  0
 14 15  2  0  0  0
 14101  1  0  0  0
 15102  1  0  0  0
 16 17  2  0  0  0
 16 21  1  0  0  0
 16 31  1  0  0  0
 17 18  1  0  0  0
 17103  1  0  0  0
 18 19  2  0  0  0
 18104  1  0  0  0
 19 20  1  0  0  0
 19 24  1  0  0  0
 20 21  2  0  0  0
 20105  1  0  0  0
 21 23  1  0  0  0
 22 28  1  0  0  0
 22 32  2  0  0  0
 26 27  1  0  0  0
 28106  1  0  0  0
 28107  1  0  0  0
 29108  1  0  0  0
 29109  1  0  0  0
 33 34  1  0  0  0
 33 66  1  0  0  0
 33 70  2  0  0  0
 34 36  1  0  0  0
 34 59  1  0  0  0
 34110  1  0  0  0
 35 44  2  0  0  0
 35 45  1  0  0  0
 35 68  1  0  0  0
 36 56  1  0  0  0
 36111  1  0  0  0
 37 39  1  0  0  0
 37 47  1  0  0  0
 37 66  1  0  0  0
 37112  1  0  0  0
 38 43  2  0  0  0
 38 46  1  0  0  0
 38 47  1  0  0  0
 39 64  1  0  0  0
 39 67  2  0  0  0
 40 52  1  0  0  0
 40 53  2  0  0  0
 40 58  1  0  0  0
 41113  1  0  0  0
 41114  1  0  0  0
 41115  1  0  0  0
 41 48  1  0  0  0
 42 43  1  0  0  0
 42 66  1  0  0  0
 42116  1  0  0  0
 42117  1  0  0  0
 43 44  1  0  0  0
 44118  1  0  0  0
 45 46  2  0  0  0
 45119  1  0  0  0
 46120  1  0  0  0
 47121  1  0  0  0
 47122  1  0  0  0
 48 56  1  0  0  0
 48 65  1  0  0  0
 48123  1  0  0  0
 49 50  1  0  0  0
 49 53  1  0  0  0
 49 64  1  0  0  0
 49124  1  0  0  0
 50 51  1  0  0  0
 50125  1  0  0  0
 50126  1  0  0  0
 51 52  1  0  0  0
 51127  1  0  0  0
 51128  1  0  0  0
 52129  1  0  0  0
 52130  1  0  0  0
 53 54  1  0  0  0
 54 55  2  0  0  0
 54131  1  0  0  0
 55 57  1  0  0  0
 55132  1  0  0  0
 56 69  2  0  0  0
 57 58  2  0  0  0
 57133  1  0  0  0
 58134  1  0  0  0
 59 60  1  0  0  0
 59 61  1  0  0  0
 59 62  1  0  0  0
 60135  1  0  0  0
 60136  1  0  0  0
 60137  1  0  0  0
 61138  1  0  0  0
 61139  1  0  0  0
 61140  1  0  0  0
 62141  1  0  0  0
 62142  1  0  0  0
 62143  1  0  0  0
 63 65  1  0  0  0
 63144  1  0  0  0
 63145  1  0  0  0
 63146  1  0  0  0
 64147  1  0  0  0
 65148  1  0  0  0
 68 86  1  0  0  0
 71 73  2  0  0  0
 71 76  1  0  0  0
 71149  1  0  0  0
 72 74  1  0  0  0
 72 76  2  0  0  0
 72150  1  0  0  0
 73 75  1  0  0  0
 73 82  1  0  0  0
 74 75  2  0  0  0
 74 83  1  0  0  0
 75 85  1  0  0  0
 76 89  1  0  0  0
 77 79  1  0  0  0
 77 81  1  0  0  0
 77151  1  0  0  0
 77152  1  0  0  0
 78 80  1  0  0  0
 78 81  1  0  0  0
 78153  1  0  0  0
 78154  1  0  0  0
 79 88  1  0  0  0
 79155  1  0  0  0
 79156  1  0  0  0
 80 88  1  0  0  0
 80157  1  0  0  0
 80158  1  0  0  0
 81 84  1  0  0  0
 81 85  1  0  0  0
 82159  1  0  0  0
 82160  1  0  0  0
 82161  1  0  0  0
 83162  1  0  0  0
 83163  1  0  0  0
 83164  1  0  0  0
 84165  1  0  0  0
 84166  1  0  0  0
 84167  1  0  0  0
 85168  1  0  0  0
 85169  1  0  0  0
 86 87  1  0  0  0
 86170  1  0  0  0
 86171  1  0  0  0
 87 89  1  0  0  0
 87172  1  0  0  0
 87173  1  0  0  0
M  ISO  4   1 100  68 101  86 101  88 100
M  END
> <chiral flag>
0

> <version>
0

> <s_m_source_file>
/data/baiqing/PycharmProjects/Reinvent-master-3.2/result/LINK_invent/BTK/process_docking_weight1_custom_sum_contain_oxygen_bond_distance_aromatic_linkinvent_7_9_3/rearranged_h_0147.sdf

> <i_m_source_file_index>
29

> <r_mmod_Potential_Energy-OPLS-2005>
228.556381225586

> <r_mmod_Stretch_Energy-OPLS-2005>
47.7186126708984

> <r_mmod_Bend_Energy-OPLS-2005>
143.613235473633

> <r_mmod_Torsional_Energy-OPLS-2005>
313.899780273438

> <r_mmod_Improper_Torsional_Energy-OPLS-2005>
9.4181957244873

> <r_mmod_Van_der_Waal_Energy-OPLS-2005>
186.576721191406

> <r_mmod_Electrostatic_Energy-OPLS-2005>
-289.647735595703

> <r_mmod_Solvation_Energy-OPLS-2005>
-195.388916015625

> <b_mmod_Minimization_Converged-OPLS-2005>
0

> <r_mmod_RMS_Derivative-OPLS-2005>
3.40393900871277

$$$$
29
                    3D
 Structure written by MMmdl.
167175  0  0  1  0            999 V2000
  -30.7317  -14.4805   20.5316 C   0  0  0  0  0  0
  -30.4148  -12.3006   19.4382 C   0  0  0  0  0  0
  -29.5014  -12.5006   18.2137 C   0  0  0  0  0  0
  -28.0191  -12.3735   18.6183 C   0  0  0  0  0  0
  -27.6623  -13.2185   19.8717 C   0  0  2  0  0  0
  -28.7063  -13.0359   20.9978 C   0  0  0  0  0  0
  -25.2580  -13.8198   20.5662 C   0  0  0  0  0  0
  -24.1843  -13.0458   20.9169 C   0  0  0  0  0  0
  -24.6402  -11.6931   20.8729 C   0  0  0  0  0  0
  -23.9063  -10.4313   21.0385 C   0  0  0  0  0  0
  -24.3609   -9.4226   21.9167 C   0  0  0  0  0  0
  -23.6294   -8.2253   22.0744 C   0  0  0  0  0  0
  -22.4274   -8.0284   21.3533 C   0  0  0  0  0  0
  -21.9904   -9.0254   20.4635 C   0  0  0  0  0  0
  -22.7227  -10.2139   20.3039 C   0  0  0  0  0  0
  -21.6863   -6.0735   22.5282 C   0  0  0  0  0  0
  -21.4017   -6.5631   23.8218 C   0  0  0  0  0  0
  -21.3664   -5.6775   24.9168 C   0  0  0  0  0  0
  -21.6055   -4.3040   24.7210 C   0  0  0  0  0  0
  -21.8825   -3.8141   23.4325 C   0  0  0  0  0  0
  -21.9196   -4.6961   22.3388 C   0  0  0  0  0  0
  -22.7864  -13.5250   21.1831 C   0  0  0  0  0  0
  -22.1670   -4.2151   21.0960 F   0  0  0  0  0  0
  -21.5628   -3.4523   25.7722 F   0  0  0  0  0  0
  -30.0384  -13.3119   20.4387 N   0  0  0  0  0  0
  -26.3038  -12.9389   20.3369 N   0  0  0  0  0  0
  -25.9336  -11.6535   20.5779 N   0  0  0  0  0  0
  -22.0490  -12.8268   22.0404 N   0  0  0  0  0  0
  -25.4250  -15.1928   20.4051 N   0  0  0  0  0  0
  -31.8812  -14.6052   20.1081 O   0  0  0  0  0  0
  -21.6630   -6.8883   21.4253 O   0  0  0  0  0  0
  -22.3557  -14.5549   20.6669 O   0  0  0  0  0  0
  -24.6129  -31.8690   23.2126 C   0  0  0  0  0  0
  -25.9029  -32.4831   23.8417 C   0  0  1  0  0  0
  -27.2551  -27.4446   20.1023 C   0  0  0  0  0  0
  -25.5889  -33.8630   24.2350 N   0  0  0  0  0  0
  -23.4023  -30.4910   21.5518 C   0  0  2  0  0  0
  -24.8569  -28.9544   20.1231 C   0  0  0  0  0  0
  -22.7396  -29.4666   22.4999 C   0  0  0  0  0  0
  -18.0272  -28.1371   22.8491 C   0  0  0  0  0  0
  -24.1485  -36.7326   23.2641 C   0  0  0  0  0  0
  -25.9303  -30.8341   21.3698 C   0  0  0  0  0  0
  -26.0124  -29.4652   20.7276 C   0  0  0  0  0  0
  -27.2127  -28.7153   20.7302 C   0  0  0  0  0  0
  -26.0809  -26.9512   19.4961 C   0  0  0  0  0  0
  -24.8832  -27.6906   19.5085 C   0  0  0  0  0  0
  -23.6150  -29.8189   20.1682 C   0  0  0  0  0  0
  -25.4104  -36.3120   24.0344 C   0  0  1  0  0  0
  -20.5856  -28.3663   23.1314 C   0  0  2  0  0  0
  -20.6759  -26.9401   22.5417 C   0  0  0  0  0  0
  -19.5743  -26.6376   21.5210 C   0  0  0  0  0  0
  -18.1921  -26.7923   22.1619 C   0  0  0  0  0  0
  -19.1517  -28.8837   23.2896 C   0  0  0  0  0  0
  -18.9445  -30.1441   23.8907 C   0  0  0  0  0  0
  -17.6447  -30.6584   24.0559 C   0  0  0  0  0  0
  -25.9029  -34.9483   23.5147 C   0  0  0  0  0  0
  -16.5339  -29.9080   23.6327 C   0  0  0  0  0  0
  -16.7263  -28.6493   23.0356 C   0  0  0  0  0  0
  -26.4467  -31.6604   25.0738 C   0  0  0  0  0  0
  -25.3745  -31.3688   26.1492 C   0  0  0  0  0  0
  -27.0311  -30.3054   24.6113 C   0  0  0  0  0  0
  -27.6060  -32.4308   25.7480 C   0  0  0  0  0  0
  -27.5587  -37.1810   24.8463 C   0  0  0  0  0  0
  -21.4130  -29.3027   22.3725 N   0  0  0  0  0  0
  -26.4293  -37.3802   23.9413 N   0  0  0  0  0  0
  -24.6663  -31.0792   22.1032 N   0  0  0  0  0  0
  -23.4165  -28.8215   23.3050 O   0  0  0  0  0  0
  -28.3644  -26.6281   20.0047 O   0  0  0  0  0  0
  -26.5585  -34.8924   22.4704 O   0  0  0  0  0  0
  -23.5323  -32.1439   23.7521 O   0  0  0  0  0  0
  -31.0332  -21.6899   21.2446 C   0  0  0  0  0  0
  -28.8797  -21.4892   20.1681 C   0  0  0  0  0  0
  -31.0260  -20.3005   21.5319 C   0  0  0  0  0  0
  -29.9139  -19.4931   21.1606 C   0  0  0  0  0  0
  -29.9500  -22.3071   20.5734 C   0  0  0  0  0  0
  -28.8430  -20.0982   20.4534 C   0  0  0  0  0  0
  -32.2300  -19.7115   22.2472 C   0  0  0  0  0  0
  -30.0124  -17.2528   19.0846 C   0  0  0  0  0  0
  -26.8711  -19.7922   19.1163 C   0  0  0  0  0  0
  -29.8169  -17.9975   21.5525 C   0  0  0  0  0  0
  -30.6972  -26.0036   20.2780 C   0  0  0  0  0  0
  -29.5199  -26.8629   20.7998 C   0  0  0  0  0  0
  -30.8424  -24.5533   20.8056 C   0  0  0  0  0  0
  -30.4024  -16.9629   20.5490 C   0  0  1  0  0  0
  -30.0234  -15.5709   20.8875 N   0  0  0  0  0  0
  -27.7869  -19.2925   20.0829 O   0  0  0  0  0  0
  -29.8592  -23.6606   20.2780 O   0  0  0  0  0  0
  -31.4637  -12.3678   19.1430 H   0  0  0  0  0  0
  -30.2841  -11.2996   19.8538 H   0  0  0  0  0  0
  -29.7420  -11.7687   17.4410 H   0  0  0  0  0  0
  -29.6875  -13.4818   17.7745 H   0  0  0  0  0  0
  -27.8208  -11.3203   18.8129 H   0  0  0  0  0  0
  -27.3736  -12.6513   17.7828 H   0  0  0  0  0  0
  -27.6962  -14.2634   19.5607 H   0  0  0  0  0  0
  -28.6776  -12.0179   21.3886 H   0  0  0  0  0  0
  -28.4788  -13.6854   21.8434 H   0  0  0  0  0  0
  -25.2742   -9.5713   22.4748 H   0  0  0  0  0  0
  -24.0002   -7.4661   22.7476 H   0  0  0  0  0  0
  -21.0831   -8.8768   19.8962 H   0  0  0  0  0  0
  -22.3669  -10.9667   19.6150 H   0  0  0  0  0  0
  -21.2006   -7.6140   23.9716 H   0  0  0  0  0  0
  -21.1492   -6.0496   25.9075 H   0  0  0  0  0  0
  -22.0595   -2.7604   23.2810 H   0  0  0  0  0  0
  -22.4069  -11.9927   22.4834 H   0  0  0  0  0  0
  -21.1109  -13.1340   22.2561 H   0  0  0  0  0  0
  -24.6518  -15.8404   20.5122 H   0  0  0  0  0  0
  -26.2725  -15.6436   20.0851 H   0  0  0  0  0  0
  -26.7103  -32.5566   23.1193 H   0  0  0  0  0  0
  -25.0048  -33.9800   25.0498 H   0  0  0  0  0  0
  -22.6911  -31.3074   21.4092 H   0  0  0  0  0  0
  -23.3745  -35.9663   23.3303 H   0  0  0  0  0  0
  -24.3587  -36.8937   22.2055 H   0  0  0  0  0  0
  -23.7230  -37.6532   23.6646 H   0  0  0  0  0  0
  -26.0399  -31.5937   20.5936 H   0  0  0  0  0  0
  -26.8195  -30.8980   21.9853 H   0  0  0  0  0  0
  -28.0871  -29.1273   21.2105 H   0  0  0  0  0  0
  -26.0965  -25.9838   19.0142 H   0  0  0  0  0  0
  -23.9973  -27.2881   19.0369 H   0  0  0  0  0  0
  -23.7223  -30.5902   19.4051 H   0  0  0  0  0  0
  -22.7420  -29.2338   19.8727 H   0  0  0  0  0  0
  -25.1276  -36.1999   25.0837 H   0  0  0  0  0  0
  -20.9961  -28.3238   24.1427 H   0  0  0  0  0  0
  -20.5666  -26.2275   23.3601 H   0  0  0  0  0  0
  -21.6631  -26.7442   22.1211 H   0  0  0  0  0  0
  -19.6902  -25.6288   21.1233 H   0  0  0  0  0  0
  -19.6687  -27.3188   20.6740 H   0  0  0  0  0  0
  -17.4195  -26.6692   21.4008 H   0  0  0  0  0  0
  -18.0308  -26.0052   22.9001 H   0  0  0  0  0  0
  -19.7924  -30.7245   24.2292 H   0  0  0  0  0  0
  -17.5007  -31.6267   24.5159 H   0  0  0  0  0  0
  -15.5343  -30.2982   23.7647 H   0  0  0  0  0  0
  -15.8662  -28.0811   22.7071 H   0  0  0  0  0  0
  -24.5924  -30.7037   25.7815 H   0  0  0  0  0  0
  -24.8936  -32.2836   26.4966 H   0  0  0  0  0  0
  -25.8112  -30.8831   27.0235 H   0  0  0  0  0  0
  -26.2858  -29.6791   24.1201 H   0  0  0  0  0  0
  -27.4119  -29.7306   25.4569 H   0  0  0  0  0  0
  -27.8669  -30.4370   23.9239 H   0  0  0  0  0  0
  -27.2708  -33.3598   26.2098 H   0  0  0  0  0  0
  -28.3839  -32.6886   25.0284 H   0  0  0  0  0  0
  -28.0770  -31.8417   26.5356 H   0  0  0  0  0  0
  -28.2597  -38.0117   24.7528 H   0  0  0  0  0  0
  -28.1093  -36.2650   24.6259 H   0  0  0  0  0  0
  -27.2319  -37.1425   25.8871 H   0  0  0  0  0  0
  -20.9307  -29.8707   21.6905 H   0  0  0  0  0  0
  -26.0193  -38.2888   24.1421 H   0  0  0  0  0  0
  -31.8879  -22.2736   21.5543 H   0  0  0  0  0  0
  -28.0661  -21.9722   19.6491 H   0  0  0  0  0  0
  -32.9600  -20.4827   22.4983 H   0  0  0  0  0  0
  -32.7321  -18.9795   21.6149 H   0  0  0  0  0  0
  -31.9403  -19.2265   23.1787 H   0  0  0  0  0  0
  -30.3506  -18.2388   18.7663 H   0  0  0  0  0  0
  -28.9332  -17.2068   18.9407 H   0  0  0  0  0  0
  -30.4626  -16.5334   18.3999 H   0  0  0  0  0  0
  -26.2069  -18.9886   18.8006 H   0  0  0  0  0  0
  -27.3889  -20.1552   18.2266 H   0  0  0  0  0  0
  -26.2540  -20.5920   19.5259 H   0  0  0  0  0  0
  -28.7674  -17.7623   21.7266 H   0  0  0  0  0  0
  -30.2812  -17.8513   22.5267 H   0  0  0  0  0  0
  -31.6110  -26.5240   20.5676 H   0  0  0  0  0  0
  -30.7022  -26.0067   19.1865 H   0  0  0  0  0  0
  -29.8164  -27.9096   20.7205 H   0  0  0  0  0  0
  -29.3178  -26.6592   21.8526 H   0  0  0  0  0  0
  -30.8199  -24.5429   21.8970 H   0  0  0  0  0  0
  -31.8310  -24.2050   20.5014 H   0  0  0  0  0  0
  -31.4884  -17.0584   20.6143 H   0  0  0  0  0  0
  -29.0829  -15.4092   21.2158 H   0  0  0  0  0  0
  1 25  1  0  0  0
  1 30  2  0  0  0
  1 85  1  0  0  0
  2  3  1  0  0  0
  2 25  1  0  0  0
  2 88  1  0  0  0
  2 89  1  0  0  0
  3  4  1  0  0  0
  3 90  1  0  0  0
  3 91  1  0  0  0
  4  5  1  0  0  0
  4 92  1  0  0  0
  4 93  1  0  0  0
  5  6  1  0  0  0
  5 26  1  0  0  0
  5 94  1  0  0  0
  6 25  1  0  0  0
  6 95  1  0  0  0
  6 96  1  0  0  0
  7  8  2  0  0  0
  7 26  1  0  0  0
  7 29  1  0  0  0
  8  9  1  0  0  0
  8 22  1  0  0  0
  9 10  1  0  0  0
  9 27  2  0  0  0
 10 11  2  0  0  0
 10 15  1  0  0  0
 11 12  1  0  0  0
 11 97  1  0  0  0
 12 13  2  0  0  0
 12 98  1  0  0  0
 13 14  1  0  0  0
 13 31  1  0  0  0
 14 15  2  0  0  0
 14 99  1  0  0  0
 15100  1  0  0  0
 16 17  2  0  0  0
 16 21  1  0  0  0
 16 31  1  0  0  0
 17 18  1  0  0  0
 17101  1  0  0  0
 18 19  2  0  0  0
 18102  1  0  0  0
 19 20  1  0  0  0
 19 24  1  0  0  0
 20 21  2  0  0  0
 20103  1  0  0  0
 21 23  1  0  0  0
 22 28  1  0  0  0
 22 32  2  0  0  0
 26 27  1  0  0  0
 28104  1  0  0  0
 28105  1  0  0  0
 29106  1  0  0  0
 29107  1  0  0  0
 33 34  1  0  0  0
 33 66  1  0  0  0
 33 70  2  0  0  0
 34 36  1  0  0  0
 34 59  1  0  0  0
 34108  1  0  0  0
 35 44  2  0  0  0
 35 45  1  0  0  0
 35 68  1  0  0  0
 36 56  1  0  0  0
 36109  1  0  0  0
 37 39  1  0  0  0
 37 47  1  0  0  0
 37 66  1  0  0  0
 37110  1  0  0  0
 38 43  2  0  0  0
 38 46  1  0  0  0
 38 47  1  0  0  0
 39 64  1  0  0  0
 39 67  2  0  0  0
 40 52  1  0  0  0
 40 53  2  0  0  0
 40 58  1  0  0  0
 41111  1  0  0  0
 41112  1  0  0  0
 41113  1  0  0  0
 41 48  1  0  0  0
 42 43  1  0  0  0
 42 66  1  0  0  0
 42114  1  0  0  0
 42115  1  0  0  0
 43 44  1  0  0  0
 44116  1  0  0  0
 45 46  2  0  0  0
 45117  1  0  0  0
 46118  1  0  0  0
 47119  1  0  0  0
 47120  1  0  0  0
 48 56  1  0  0  0
 48 65  1  0  0  0
 48121  1  0  0  0
 49 50  1  0  0  0
 49 53  1  0  0  0
 49 64  1  0  0  0
 49122  1  0  0  0
 50 51  1  0  0  0
 50123  1  0  0  0
 50124  1  0  0  0
 51 52  1  0  0  0
 51125  1  0  0  0
 51126  1  0  0  0
 52127  1  0  0  0
 52128  1  0  0  0
 53 54  1  0  0  0
 54 55  2  0  0  0
 54129  1  0  0  0
 55 57  1  0  0  0
 55130  1  0  0  0
 56 69  2  0  0  0
 57 58  2  0  0  0
 57131  1  0  0  0
 58132  1  0  0  0
 59 60  1  0  0  0
 59 61  1  0  0  0
 59 62  1  0  0  0
 60133  1  0  0  0
 60134  1  0  0  0
 60135  1  0  0  0
 61136  1  0  0  0
 61137  1  0  0  0
 61138  1  0  0  0
 62139  1  0  0  0
 62140  1  0  0  0
 62141  1  0  0  0
 63 65  1  0  0  0
 63142  1  0  0  0
 63143  1  0  0  0
 63144  1  0  0  0
 64145  1  0  0  0
 65146  1  0  0  0
 68 82  1  0  0  0
 71 73  2  0  0  0
 71 75  1  0  0  0
 71147  1  0  0  0
 72 75  2  0  0  0
 72 76  1  0  0  0
 72148  1  0  0  0
 73 74  1  0  0  0
 73 77  1  0  0  0
 74 76  2  0  0  0
 74 80  1  0  0  0
 75 87  1  0  0  0
 76 86  1  0  0  0
 77149  1  0  0  0
 77150  1  0  0  0
 77151  1  0  0  0
 78152  1  0  0  0
 78153  1  0  0  0
 78154  1  0  0  0
 78 84  1  0  0  0
 79 86  1  0  0  0
 79155  1  0  0  0
 79156  1  0  0  0
 79157  1  0  0  0
 80 84  1  0  0  0
 80158  1  0  0  0
 80159  1  0  0  0
 81 82  1  0  0  0
 81 83  1  0  0  0
 81160  1  0  0  0
 81161  1  0  0  0
 82162  1  0  0  0
 82163  1  0  0  0
 83 87  1  0  0  0
 83164  1  0  0  0
 83165  1  0  0  0
 84 85  1  0  0  0
 84166  1  0  0  0
 85167  1  0  0  0
M  ISO  4   1 100  68 101  82 101  85 100
M  END
> <chiral flag>
0

> <version>
0

> <s_m_source_file>
/data/baiqing/PycharmProjects/Reinvent-master-3.2/result/LINK_invent/BTK/process_docking_weight1_custom_sum_contain_oxygen_bond_distance_aromatic_linkinvent_7_9_3/rearranged_h_0147.sdf

> <i_m_source_file_index>
30

> <r_mmod_Potential_Energy-OPLS-2005>
-49.139045715332

> <r_mmod_Stretch_Energy-OPLS-2005>
42.2253341674805

> <r_mmod_Bend_Energy-OPLS-2005>
124.82266998291

> <r_mmod_Torsional_Energy-OPLS-2005>
203.841690063477

> <r_mmod_Improper_Torsional_Energy-OPLS-2005>
5.9766092300415

> <r_mmod_Van_der_Waal_Energy-OPLS-2005>
157.073547363281

> <r_mmod_Electrostatic_Energy-OPLS-2005>
-382.423553466797

> <r_mmod_Solvation_Energy-OPLS-2005>
-215.824081420898

> <b_mmod_Minimization_Converged-OPLS-2005>
0

> <r_mmod_RMS_Derivative-OPLS-2005>
2.63267993927002

$$$$
30
                    3D
 Structure written by MMmdl.
160169  0  0  1  0            999 V2000
  -30.5671  -14.8226   20.4525 C   0  0  0  0  0  0
  -30.4419  -12.5015   19.4966 C   0  0  0  0  0  0
  -29.5278  -12.5408   18.2499 C   0  0  0  0  0  0
  -28.0498  -12.3550   18.6526 C   0  0  0  0  0  0
  -27.6418  -13.2441   19.8577 C   0  0  2  0  0  0
  -28.6827  -13.1907   20.9991 C   0  0  0  0  0  0
  -25.2471  -13.8221   20.5727 C   0  0  0  0  0  0
  -24.1787  -13.0444   20.9236 C   0  0  0  0  0  0
  -24.6411  -11.6924   20.8769 C   0  0  0  0  0  0
  -23.9097  -10.4299   21.0423 C   0  0  0  0  0  0
  -24.3628   -9.4205   21.9210 C   0  0  0  0  0  0
  -23.6287   -8.2236   22.0778 C   0  0  0  0  0  0
  -22.4278   -8.0284   21.3552 C   0  0  0  0  0  0
  -21.9906   -9.0275   20.4670 C   0  0  0  0  0  0
  -22.7248  -10.2168   20.3084 C   0  0  0  0  0  0
  -21.6851   -6.0743   22.5284 C   0  0  0  0  0  0
  -21.4016   -6.5638   23.8229 C   0  0  0  0  0  0
  -21.3666   -5.6789   24.9182 C   0  0  0  0  0  0
  -21.6042   -4.3047   24.7237 C   0  0  0  0  0  0
  -21.8801   -3.8149   23.4350 C   0  0  0  0  0  0
  -21.9182   -4.6961   22.3410 C   0  0  0  0  0  0
  -22.7791  -13.5225   21.1854 C   0  0  0  0  0  0
  -22.1647   -4.2150   21.0987 F   0  0  0  0  0  0
  -21.5619   -3.4530   25.7746 F   0  0  0  0  0  0
  -29.9796  -13.5678   20.4218 N   0  0  0  0  0  0
  -26.2924  -12.9461   20.3293 N   0  0  0  0  0  0
  -25.9336  -11.6577   20.5725 N   0  0  0  0  0  0
  -22.0404  -12.8260   22.0413 N   0  0  0  0  0  0
  -25.4081  -15.1956   20.4145 N   0  0  0  0  0  0
  -31.7428  -14.9374   20.0970 O   0  0  0  0  0  0
  -21.6625   -6.8882   21.4262 O   0  0  0  0  0  0
  -22.3470  -14.5517   20.6660 O   0  0  0  0  0  0
  -24.6325  -31.8486   23.1934 C   0  0  0  0  0  0
  -25.9131  -32.4718   23.8305 C   0  0  1  0  0  0
  -27.2346  -27.2239   20.1320 C   0  0  0  0  0  0
  -25.5892  -33.8527   24.2214 N   0  0  0  0  0  0
  -23.4342  -30.4676   21.5334 C   0  0  2  0  0  0
  -24.8865  -28.9037   20.1036 C   0  0  0  0  0  0
  -22.7521  -29.4554   22.4857 C   0  0  0  0  0  0
  -18.0298  -28.1395   22.8478 C   0  0  0  0  0  0
  -24.1472  -36.7268   23.2643 C   0  0  0  0  0  0
  -25.9811  -30.7461   21.3819 C   0  0  0  0  0  0
  -26.0531  -29.3651   20.7241 C   0  0  0  0  0  0
  -27.2228  -28.5352   20.7287 C   0  0  0  0  0  0
  -26.0437  -26.8314   19.4823 C   0  0  0  0  0  0
  -24.8909  -27.6487   19.4718 C   0  0  0  0  0  0
  -23.6571  -29.7957   20.1510 C   0  0  0  0  0  0
  -25.4099  -36.3053   24.0321 C   0  0  1  0  0  0
  -20.5907  -28.3702   23.1245 C   0  0  2  0  0  0
  -20.6770  -26.9400   22.5413 C   0  0  0  0  0  0
  -19.5751  -26.6373   21.5205 C   0  0  0  0  0  0
  -18.1939  -26.7932   22.1625 C   0  0  0  0  0  0
  -19.1553  -28.8870   23.2864 C   0  0  0  0  0  0
  -18.9472  -30.1460   23.8888 C   0  0  0  0  0  0
  -17.6469  -30.6586   24.0563 C   0  0  0  0  0  0
  -25.9040  -34.9420   23.5074 C   0  0  0  0  0  0
  -16.5367  -29.9079   23.6325 C   0  0  0  0  0  0
  -16.7282  -28.6509   23.0342 C   0  0  0  0  0  0
  -26.4488  -31.6583   25.0723 C   0  0  0  0  0  0
  -25.3699  -31.3766   26.1439 C   0  0  0  0  0  0
  -27.0326  -30.2987   24.6248 C   0  0  0  0  0  0
  -27.6021  -32.4355   25.7493 C   0  0  0  0  0  0
  -27.5573  -37.1780   24.8454 C   0  0  0  0  0  0
  -21.4223  -29.3029   22.3612 N   0  0  0  0  0  0
  -26.4274  -37.3760   23.9411 N   0  0  0  0  0  0
  -24.7016  -31.0422   22.0917 N   0  0  0  0  0  0
  -23.4198  -28.8086   23.2969 O   0  0  0  0  0  0
  -28.3428  -26.3393   20.2465 O   0  0  0  0  0  0
  -26.5648  -34.8918   22.4667 O   0  0  0  0  0  0
  -23.5462  -32.1323   23.7195 O   0  0  0  0  0  0
  -28.8700  -18.0436   19.3583 C   0  0  0  0  0  0
  -27.6578  -22.5256   19.2497 C   0  0  0  0  0  0
  -28.9508  -19.5966   18.9973 C   0  0  0  0  0  0
  -29.9650  -20.0763   21.1114 C   0  0  0  0  0  0
  -28.3689  -23.4781   20.1761 C   0  0  1  0  0  0
  -29.8454  -18.5169   21.5285 C   0  0  1  0  0  0
  -29.9442  -17.4639   20.3455 C   0  0  1  0  0  0
  -29.0539  -22.0823   19.6281 C   0  0  1  0  0  0
  -30.8406  -18.1862   22.6535 C   0  0  0  0  0  0
  -28.4999  -24.9909   19.5674 C   0  0  0  0  0  0
  -29.7607  -15.9477   20.6679 N   0  0  0  0  0  0
  -28.9399  -20.5969   20.1344 N   0  3  1  0  0  0
  -31.4871  -12.6320   19.2075 H   0  0  0  0  0  0
  -30.3942  -11.5271   19.9844 H   0  0  0  0  0  0
  -29.8222  -11.7736   17.5316 H   0  0  0  0  0  0
  -29.6563  -13.4972   17.7390 H   0  0  0  0  0  0
  -27.9078  -11.3057   18.9085 H   0  0  0  0  0  0
  -27.4013  -12.5539   17.8000 H   0  0  0  0  0  0
  -27.6303  -14.2674   19.4818 H   0  0  0  0  0  0
  -28.7301  -12.1950   21.4388 H   0  0  0  0  0  0
  -28.4079  -13.8686   21.8096 H   0  0  0  0  0  0
  -25.2788   -9.5657   22.4769 H   0  0  0  0  0  0
  -24.0015   -7.4613   22.7473 H   0  0  0  0  0  0
  -21.0834   -8.8803   19.8978 H   0  0  0  0  0  0
  -22.3726  -10.9694   19.6172 H   0  0  0  0  0  0
  -21.2030   -7.6153   23.9728 H   0  0  0  0  0  0
  -21.1495   -6.0520   25.9079 H   0  0  0  0  0  0
  -22.0579   -2.7616   23.2845 H   0  0  0  0  0  0
  -22.4002  -12.0002   22.4943 H   0  0  0  0  0  0
  -21.1013  -13.1322   22.2533 H   0  0  0  0  0  0
  -24.6221  -15.8318   20.4998 H   0  0  0  0  0  0
  -26.2418  -15.6460   20.0583 H   0  0  0  0  0  0
  -26.7181  -32.5348   23.1029 H   0  0  0  0  0  0
  -24.9992  -33.9657   25.0329 H   0  0  0  0  0  0
  -22.7315  -31.2900   21.3827 H   0  0  0  0  0  0
  -23.3751  -35.9584   23.3290 H   0  0  0  0  0  0
  -24.3564  -36.8921   22.2063 H   0  0  0  0  0  0
  -23.7213  -37.6447   23.6696 H   0  0  0  0  0  0
  -26.1296  -31.5023   20.6108 H   0  0  0  0  0  0
  -26.8559  -30.7950   22.0192 H   0  0  0  0  0  0
  -28.1121  -28.8806   21.2365 H   0  0  0  0  0  0
  -25.9724  -25.8639   19.0099 H   0  0  0  0  0  0
  -23.9975  -27.2897   18.9798 H   0  0  0  0  0  0
  -23.7849  -30.5715   19.3943 H   0  0  0  0  0  0
  -22.7753  -29.2299   19.8441 H   0  0  0  0  0  0
  -25.1288  -36.1890   25.0814 H   0  0  0  0  0  0
  -21.0017  -28.3298   24.1355 H   0  0  0  0  0  0
  -20.5637  -26.2307   23.3624 H   0  0  0  0  0  0
  -21.6641  -26.7380   22.1226 H   0  0  0  0  0  0
  -19.6897  -25.6274   21.1250 H   0  0  0  0  0  0
  -19.6700  -27.3170   20.6723 H   0  0  0  0  0  0
  -17.4190  -26.6673   21.4037 H   0  0  0  0  0  0
  -18.0346  -26.0088   22.9036 H   0  0  0  0  0  0
  -19.7951  -30.7288   24.2249 H   0  0  0  0  0  0
  -17.5020  -31.6260   24.5171 H   0  0  0  0  0  0
  -15.5362  -30.2975   23.7652 H   0  0  0  0  0  0
  -15.8692  -28.0818   22.7047 H   0  0  0  0  0  0
  -24.5814  -30.7191   25.7768 H   0  0  0  0  0  0
  -24.8947  -32.2945   26.4904 H   0  0  0  0  0  0
  -25.7985  -30.8890   27.0203 H   0  0  0  0  0  0
  -26.2906  -29.6748   24.1241 H   0  0  0  0  0  0
  -27.3944  -29.7258   25.4801 H   0  0  0  0  0  0
  -27.8829  -30.4251   23.9541 H   0  0  0  0  0  0
  -27.2600  -33.3659   26.2054 H   0  0  0  0  0  0
  -28.3824  -32.6932   25.0317 H   0  0  0  0  0  0
  -28.0700  -31.8499   26.5420 H   0  0  0  0  0  0
  -28.2565  -38.0100   24.7525 H   0  0  0  0  0  0
  -28.1094  -36.2631   24.6245 H   0  0  0  0  0  0
  -27.2307  -37.1397   25.8861 H   0  0  0  0  0  0
  -20.9400  -29.8742   21.6816 H   0  0  0  0  0  0
  -26.0148  -38.2824   24.1447 H   0  0  0  0  0  0
  -28.9269  -17.4779   18.4262 H   0  0  0  0  0  0
  -27.8762  -17.8381   19.7574 H   0  0  0  0  0  0
  -27.5176  -22.8186   18.2104 H   0  0  0  0  0  0
  -26.7954  -22.0186   19.6814 H   0  0  0  0  0  0
  -28.1275  -19.8363   18.3253 H   0  0  0  0  0  0
  -29.8577  -19.7621   18.4120 H   0  0  0  0  0  0
  -30.9538  -20.2533   20.6908 H   0  0  0  0  0  0
  -29.9037  -20.7015   22.0042 H   0  0  0  0  0  0
  -28.1025  -23.4611   21.2300 H   0  0  0  0  0  0
  -28.8552  -18.4029   21.9725 H   0  0  0  0  0  0
  -30.9272  -17.5665   19.8863 H   0  0  0  0  0  0
  -29.8420  -22.1861   18.8826 H   0  0  0  0  0  0
  -31.8735  -18.2195   22.3056 H   0  0  0  0  0  0
  -30.6644  -17.1935   23.0663 H   0  0  0  0  0  0
  -30.7481  -18.8996   23.4757 H   0  0  0  0  0  0
  -27.9530  -25.0290   18.6288 H   0  0  0  0  0  0
  -29.5352  -25.0352   19.2295 H   0  0  0  0  0  0
  -28.8377  -15.7051   20.9965 H   0  0  0  0  0  0
  -28.0464  -20.5161   20.5948 H   0  0  0  0  0  0
  1 25  1  0  0  0
  1 30  2  0  0  0
  1 81  1  0  0  0
  2  3  1  0  0  0
  2 25  1  0  0  0
  2 83  1  0  0  0
  2 84  1  0  0  0
  3  4  1  0  0  0
  3 85  1  0  0  0
  3 86  1  0  0  0
  4  5  1  0  0  0
  4 87  1  0  0  0
  4 88  1  0  0  0
  5  6  1  0  0  0
  5 26  1  0  0  0
  5 89  1  0  0  0
  6 25  1  0  0  0
  6 90  1  0  0  0
  6 91  1  0  0  0
  7  8  2  0  0  0
  7 26  1  0  0  0
  7 29  1  0  0  0
  8  9  1  0  0  0
  8 22  1  0  0  0
  9 10  1  0  0  0
  9 27  2  0  0  0
 10 11  2  0  0  0
 10 15  1  0  0  0
 11 12  1  0  0  0
 11 92  1  0  0  0
 12 13  2  0  0  0
 12 93  1  0  0  0
 13 14  1  0  0  0
 13 31  1  0  0  0
 14 15  2  0  0  0
 14 94  1  0  0  0
 15 95  1  0  0  0
 16 17  2  0  0  0
 16 21  1  0  0  0
 16 31  1  0  0  0
 17 18  1  0  0  0
 17 96  1  0  0  0
 18 19  2  0  0  0
 18 97  1  0  0  0
 19 20  1  0  0  0
 19 24  1  0  0  0
 20 21  2  0  0  0
 20 98  1  0  0  0
 21 23  1  0  0  0
 22 28  1  0  0  0
 22 32  2  0  0  0
 26 27  1  0  0  0
 28 99  1  0  0  0
 28100  1  0  0  0
 29101  1  0  0  0
 29102  1  0  0  0
 33 34  1  0  0  0
 33 66  1  0  0  0
 33 70  2  0  0  0
 34 36  1  0  0  0
 34 59  1  0  0  0
 34103  1  0  0  0
 35 44  2  0  0  0
 35 45  1  0  0  0
 35 68  1  0  0  0
 36 56  1  0  0  0
 36104  1  0  0  0
 37 39  1  0  0  0
 37 47  1  0  0  0
 37 66  1  0  0  0
 37105  1  0  0  0
 38 43  2  0  0  0
 38 46  1  0  0  0
 38 47  1  0  0  0
 39 64  1  0  0  0
 39 67  2  0  0  0
 40 52  1  0  0  0
 40 53  2  0  0  0
 40 58  1  0  0  0
 41106  1  0  0  0
 41107  1  0  0  0
 41108  1  0  0  0
 41 48  1  0  0  0
 42 43  1  0  0  0
 42 66  1  0  0  0
 42109  1  0  0  0
 42110  1  0  0  0
 43 44  1  0  0  0
 44111  1  0  0  0
 45 46  2  0  0  0
 45112  1  0  0  0
 46113  1  0  0  0
 47114  1  0  0  0
 47115  1  0  0  0
 48 56  1  0  0  0
 48 65  1  0  0  0
 48116  1  0  0  0
 49 50  1  0  0  0
 49 53  1  0  0  0
 49 64  1  0  0  0
 49117  1  0  0  0
 50 51  1  0  0  0
 50118  1  0  0  0
 50119  1  0  0  0
 51 52  1  0  0  0
 51120  1  0  0  0
 51121  1  0  0  0
 52122  1  0  0  0
 52123  1  0  0  0
 53 54  1  0  0  0
 54 55  2  0  0  0
 54124  1  0  0  0
 55 57  1  0  0  0
 55125  1  0  0  0
 56 69  2  0  0  0
 57 58  2  0  0  0
 57126  1  0  0  0
 58127  1  0  0  0
 59 60  1  0  0  0
 59 61  1  0  0  0
 59 62  1  0  0  0
 60128  1  0  0  0
 60129  1  0  0  0
 60130  1  0  0  0
 61131  1  0  0  0
 61132  1  0  0  0
 61133  1  0  0  0
 62134  1  0  0  0
 62135  1  0  0  0
 62136  1  0  0  0
 63 65  1  0  0  0
 63137  1  0  0  0
 63138  1  0  0  0
 63139  1  0  0  0
 64140  1  0  0  0
 65141  1  0  0  0
 68 80  1  0  0  0
 71 73  1  0  0  0
 71 77  1  0  0  0
 71142  1  0  0  0
 71143  1  0  0  0
 72 75  1  0  0  0
 72144  1  0  0  0
 72145  1  0  0  0
 72 78  1  0  0  0
 73146  1  0  0  0
 73147  1  0  0  0
 73 82  1  0  0  0
 74 76  1  0  0  0
 74 82  1  0  0  0
 74148  1  0  0  0
 74149  1  0  0  0
 75 78  1  0  0  0
 75 80  1  0  0  0
 75150  1  0  0  0
 76 77  1  0  0  0
 76 79  1  0  0  0
 76151  1  0  0  0
 77 81  1  0  0  0
 77152  1  0  0  0
 78 82  1  0  0  0
 78153  1  0  0  0
 79154  1  0  0  0
 79155  1  0  0  0
 79156  1  0  0  0
 80157  1  0  0  0
 80158  1  0  0  0
 81159  1  0  0  0
 82160  1  0  0  0
M  CHG  1  82   1
M  ISO  4   1 100  68 101  80 101  81 100
M  END
> <chiral flag>
0

> <version>
0

> <s_m_source_file>
/data/baiqing/PycharmProjects/Reinvent-master-3.2/result/LINK_invent/BTK/process_docking_weight1_custom_sum_contain_oxygen_bond_distance_aromatic_linkinvent_7_9_3/rearranged_h_0147.sdf

> <i_m_source_file_index>
31

> <r_mmod_Potential_Energy-OPLS-2005>
251.721954345703

> <r_mmod_Stretch_Energy-OPLS-2005>
171.570739746094

> <r_mmod_Bend_Energy-OPLS-2005>
261.058135986328

> <r_mmod_Torsional_Energy-OPLS-2005>
280.809661865234

> <r_mmod_Improper_Torsional_Energy-OPLS-2005>
5.47744083404541

> <r_mmod_Van_der_Waal_Energy-OPLS-2005>
114.683403015137

> <r_mmod_Electrostatic_Energy-OPLS-2005>
-234.750091552734

> <r_mmod_Solvation_Energy-OPLS-2005>
-462.889739990234

> <b_mmod_Minimization_Converged-OPLS-2005>
0

> <r_mmod_RMS_Derivative-OPLS-2005>
3.7541778087616

$$$$
31
                    3D
 Structure written by MMmdl.
167176  0  0  1  0            999 V2000
  -30.7003  -14.6712   20.4153 C   0  0  0  0  0  0
  -30.4139  -12.4084   19.4478 C   0  0  0  0  0  0
  -29.4981  -12.4860   18.2120 C   0  0  0  0  0  0
  -28.0201  -12.3410   18.6254 C   0  0  0  0  0  0
  -27.6367  -13.2396   19.8343 C   0  0  2  0  0  0
  -28.6940  -13.2013   20.9581 C   0  0  0  0  0  0
  -25.2503  -13.8210   20.5762 C   0  0  0  0  0  0
  -24.1804  -13.0445   20.9265 C   0  0  0  0  0  0
  -24.6413  -11.6937   20.8772 C   0  0  0  0  0  0
  -23.9112  -10.4299   21.0405 C   0  0  0  0  0  0
  -24.3666   -9.4216   21.9176 C   0  0  0  0  0  0
  -23.6342   -8.2236   22.0730 C   0  0  0  0  0  0
  -22.4311   -8.0286   21.3533 C   0  0  0  0  0  0
  -21.9956   -9.0260   20.4612 C   0  0  0  0  0  0
  -22.7294  -10.2137   20.3040 C   0  0  0  0  0  0
  -21.6843   -6.0763   22.5296 C   0  0  0  0  0  0
  -21.3996   -6.5660   23.8237 C   0  0  0  0  0  0
  -21.3681   -5.6802   24.9190 C   0  0  0  0  0  0
  -21.6058   -4.3067   24.7220 C   0  0  0  0  0  0
  -21.8817   -3.8165   23.4329 C   0  0  0  0  0  0
  -21.9191   -4.6995   22.3398 C   0  0  0  0  0  0
  -22.7822  -13.5208   21.1910 C   0  0  0  0  0  0
  -22.1649   -4.2202   21.0970 F   0  0  0  0  0  0
  -21.5655   -3.4531   25.7714 F   0  0  0  0  0  0
  -29.9908  -13.5010   20.3459 N   0  0  0  0  0  0
  -26.2931  -12.9452   20.3283 N   0  0  0  0  0  0
  -25.9352  -11.6601   20.5807 N   0  0  0  0  0  0
  -22.0431  -12.8194   22.0424 N   0  0  0  0  0  0
  -25.4146  -15.1936   20.4236 N   0  0  0  0  0  0
  -31.9258  -14.6302   20.2803 O   0  0  0  0  0  0
  -21.6654   -6.8897   21.4246 O   0  0  0  0  0  0
  -22.3522  -14.5518   20.6759 O   0  0  0  0  0  0
  -24.6261  -31.8639   23.2100 C   0  0  0  0  0  0
  -25.9127  -32.4807   23.8407 C   0  0  1  0  0  0
  -27.2067  -27.3159   20.1100 C   0  0  0  0  0  0
  -25.5957  -33.8607   24.2358 N   0  0  0  0  0  0
  -23.4189  -30.4912   21.5545 C   0  0  2  0  0  0
  -24.8641  -28.9620   20.1045 C   0  0  0  0  0  0
  -22.7477  -29.4644   22.4976 C   0  0  0  0  0  0
  -18.0303  -28.1343   22.8504 C   0  0  0  0  0  0
  -24.1490  -36.7281   23.2634 C   0  0  0  0  0  0
  -25.9610  -30.7931   21.3851 C   0  0  0  0  0  0
  -26.0333  -29.4216   20.7231 C   0  0  0  0  0  0
  -27.2072  -28.6076   20.7258 C   0  0  0  0  0  0
  -26.0230  -26.9394   19.4284 C   0  0  0  0  0  0
  -24.8629  -27.7289   19.4440 C   0  0  0  0  0  0
  -23.6306  -29.8392   20.1646 C   0  0  0  0  0  0
  -25.4118  -36.3116   24.0347 C   0  0  1  0  0  0
  -20.5898  -28.3672   23.1295 C   0  0  2  0  0  0
  -20.6807  -26.9400   22.5407 C   0  0  0  0  0  0
  -19.5779  -26.6374   21.5212 C   0  0  0  0  0  0
  -18.1954  -26.7909   22.1606 C   0  0  0  0  0  0
  -19.1543  -28.8832   23.2899 C   0  0  0  0  0  0
  -18.9452  -30.1436   23.8904 C   0  0  0  0  0  0
  -17.6441  -30.6565   24.0546 C   0  0  0  0  0  0
  -25.9052  -34.9471   23.5146 C   0  0  0  0  0  0
  -16.5346  -29.9036   23.6322 C   0  0  0  0  0  0
  -16.7278  -28.6441   23.0380 C   0  0  0  0  0  0
  -26.4523  -31.6580   25.0745 C   0  0  0  0  0  0
  -25.3765  -31.3638   26.1461 C   0  0  0  0  0  0
  -27.0373  -30.3040   24.6125 C   0  0  0  0  0  0
  -27.6115  -32.4276   25.7504 C   0  0  0  0  0  0
  -27.5592  -37.1808   24.8478 C   0  0  0  0  0  0
  -21.4198  -29.3033   22.3689 N   0  0  0  0  0  0
  -26.4308  -37.3807   23.9416 N   0  0  0  0  0  0
  -24.6875  -31.0652   22.1063 N   0  0  0  0  0  0
  -23.4208  -28.8184   23.3053 O   0  0  0  0  0  0
  -28.2851  -26.4137   20.1927 O   0  0  0  0  0  0
  -26.5575  -34.8913   22.4693 O   0  0  0  0  0  0
  -23.5426  -32.1446   23.7418 O   0  0  0  0  0  0
  -29.6417  -20.7449   20.9547 C   0  0  0  0  0  0
  -27.9130  -20.1713   19.4031 C   0  0  0  0  0  0
  -29.9088  -19.3504   21.1856 C   0  0  0  0  0  0
  -28.1350  -18.7882   19.6214 C   0  0  0  0  0  0
  -29.1364  -18.3267   20.5291 C   0  0  0  0  0  0
  -28.6330  -21.1904   20.0656 C   0  0  0  0  0  0
  -30.8370  -19.3869   23.6218 C   0  0  0  0  0  0
  -31.9744  -19.9455   22.8035 C   0  0  0  0  0  0
  -30.9901  -18.9728   22.1754 C   0  0  0  0  0  0
  -27.2018  -17.8334   18.8929 C   0  0  0  0  0  0
  -31.7037  -17.3644   18.7654 C   0  0  0  0  0  0
  -29.2856  -16.7786   20.8667 C   0  0  0  0  0  0
  -30.5061  -16.3906   18.6861 C   0  0  0  0  0  0
  -27.9742  -24.9850   19.9064 C   0  0  0  0  0  0
  -28.8318  -23.7265   20.3728 C   0  0  0  0  0  0
  -30.0676  -15.8293   19.9902 N   0  0  0  0  0  0
  -28.2633  -22.5170   19.7782 O   0  0  0  0  0  0
  -31.4603  -12.4899   19.1473 H   0  0  0  0  0  0
  -30.3180  -11.4424   19.9452 H   0  0  0  0  0  0
  -29.7636  -11.7119   17.4942 H   0  0  0  0  0  0
  -29.6446  -13.4383   17.7005 H   0  0  0  0  0  0
  -27.8467  -11.2896   18.8595 H   0  0  0  0  0  0
  -27.3744  -12.5703   17.7754 H   0  0  0  0  0  0
  -27.6198  -14.2582   19.4486 H   0  0  0  0  0  0
  -28.7171  -12.2248   21.4433 H   0  0  0  0  0  0
  -28.4577  -13.9318   21.7325 H   0  0  0  0  0  0
  -25.2793   -9.5729   22.4767 H   0  0  0  0  0  0
  -24.0074   -7.4646   22.7439 H   0  0  0  0  0  0
  -21.0905   -8.8779   19.8898 H   0  0  0  0  0  0
  -22.3745  -10.9695   19.6170 H   0  0  0  0  0  0
  -21.1942   -7.6158   23.9777 H   0  0  0  0  0  0
  -21.1516   -6.0500   25.9120 H   0  0  0  0  0  0
  -22.0561   -2.7630   23.2807 H   0  0  0  0  0  0
  -22.4036  -11.9911   22.4902 H   0  0  0  0  0  0
  -21.1017  -13.1185   22.2544 H   0  0  0  0  0  0
  -24.6428  -15.8406   20.5417 H   0  0  0  0  0  0
  -26.2682  -15.6405   20.1214 H   0  0  0  0  0  0
  -26.7190  -32.5504   23.1150 H   0  0  0  0  0  0
  -25.0242  -33.9758   25.0597 H   0  0  0  0  0  0
  -22.7134  -31.3138   21.4220 H   0  0  0  0  0  0
  -23.3789  -35.9578   23.3296 H   0  0  0  0  0  0
  -24.3596  -36.8886   22.2051 H   0  0  0  0  0  0
  -23.7172  -37.6458   23.6638 H   0  0  0  0  0  0
  -26.0965  -31.5625   20.6231 H   0  0  0  0  0  0
  -26.8387  -30.8387   22.0166 H   0  0  0  0  0  0
  -28.0952  -28.9489   21.2410 H   0  0  0  0  0  0
  -25.9486  -26.0150   18.8780 H   0  0  0  0  0  0
  -23.9773  -27.3872   18.9271 H   0  0  0  0  0  0
  -23.7390  -30.6247   19.4151 H   0  0  0  0  0  0
  -22.7504  -29.2678   19.8632 H   0  0  0  0  0  0
  -25.1295  -36.1998   25.0840 H   0  0  0  0  0  0
  -20.9986  -28.3228   24.1417 H   0  0  0  0  0  0
  -20.5754  -26.2260   23.3592 H   0  0  0  0  0  0
  -21.6669  -26.7471   22.1156 H   0  0  0  0  0  0
  -19.6945  -25.6294   21.1225 H   0  0  0  0  0  0
  -19.6716  -27.3195   20.6758 H   0  0  0  0  0  0
  -17.4243  -26.6707   21.3976 H   0  0  0  0  0  0
  -18.0319  -26.0010   22.8953 H   0  0  0  0  0  0
  -19.7931  -30.7261   24.2273 H   0  0  0  0  0  0
  -17.4989  -31.6251   24.5128 H   0  0  0  0  0  0
  -15.5342  -30.2918   23.7652 H   0  0  0  0  0  0
  -15.8688  -28.0723   22.7128 H   0  0  0  0  0  0
  -24.5998  -30.6933   25.7762 H   0  0  0  0  0  0
  -24.8871  -32.2747   26.4919 H   0  0  0  0  0  0
  -25.8097  -30.8801   27.0226 H   0  0  0  0  0  0
  -26.2921  -29.6772   24.1207 H   0  0  0  0  0  0
  -27.4213  -29.7295   25.4565 H   0  0  0  0  0  0
  -27.8739  -30.4406   23.9266 H   0  0  0  0  0  0
  -27.2810  -33.3621   26.2057 H   0  0  0  0  0  0
  -28.3940  -32.6739   25.0310 H   0  0  0  0  0  0
  -28.0767  -31.8384   26.5424 H   0  0  0  0  0  0
  -28.2619  -38.0101   24.7556 H   0  0  0  0  0  0
  -28.1077  -36.2636   24.6290 H   0  0  0  0  0  0
  -27.2300  -37.1421   25.8876 H   0  0  0  0  0  0
  -20.9375  -29.8719   21.6869 H   0  0  0  0  0  0
  -26.0203  -38.2898   24.1395 H   0  0  0  0  0  0
  -30.2002  -21.4990   21.4860 H   0  0  0  0  0  0
  -27.1327  -20.4708   18.7173 H   0  0  0  0  0  0
  -30.0270  -20.0745   23.8713 H   0  0  0  0  0  0
  -31.0953  -18.6718   24.3994 H   0  0  0  0  0  0
  -32.9665  -19.5680   23.0461 H   0  0  0  0  0  0
  -31.9499  -21.0027   22.5523 H   0  0  0  0  0  0
  -31.4332  -18.0065   21.9375 H   0  0  0  0  0  0
  -26.9334  -18.2325   17.9154 H   0  0  0  0  0  0
  -26.2805  -17.7180   19.4619 H   0  0  0  0  0  0
  -27.6223  -16.8452   18.7224 H   0  0  0  0  0  0
  -32.0952  -17.5787   17.7708 H   0  0  0  0  0  0
  -32.5256  -16.9634   19.3556 H   0  0  0  0  0  0
  -31.4257  -18.3245   19.1975 H   0  0  0  0  0  0
  -28.2804  -16.3646   20.9279 H   0  0  0  0  0  0
  -29.6571  -16.6806   21.8841 H   0  0  0  0  0  0
  -30.7749  -15.5653   18.0222 H   0  0  0  0  0  0
  -29.6881  -16.8860   18.1679 H   0  0  0  0  0  0
  -26.9880  -24.7667   20.3188 H   0  0  0  0  0  0
  -27.8827  -24.9083   18.8212 H   0  0  0  0  0  0
  -28.8172  -23.6439   21.4602 H   0  0  0  0  0  0
  -29.8705  -23.8252   20.0592 H   0  0  0  0  0  0
  1 25  1  0  0  0
  1 30  2  0  0  0
  1 86  1  0  0  0
  2  3  1  0  0  0
  2 25  1  0  0  0
  2 88  1  0  0  0
  2 89  1  0  0  0
  3  4  1  0  0  0
  3 90  1  0  0  0
  3 91  1  0  0  0
  4  5  1  0  0  0
  4 92  1  0  0  0
  4 93  1  0  0  0
  5  6  1  0  0  0
  5 26  1  0  0  0
  5 94  1  0  0  0
  6 25  1  0  0  0
  6 95  1  0  0  0
  6 96  1  0  0  0
  7  8  2  0  0  0
  7 26  1  0  0  0
  7 29  1  0  0  0
  8  9  1  0  0  0
  8 22  1  0  0  0
  9 10  1  0  0  0
  9 27  2  0  0  0
 10 11  2  0  0  0
 10 15  1  0  0  0
 11 12  1  0  0  0
 11 97  1  0  0  0
 12 13  2  0  0  0
 12 98  1  0  0  0
 13 14  1  0  0  0
 13 31  1  0  0  0
 14 15  2  0  0  0
 14 99  1  0  0  0
 15100  1  0  0  0
 16 17  2  0  0  0
 16 21  1  0  0  0
 16 31  1  0  0  0
 17 18  1  0  0  0
 17101  1  0  0  0
 18 19  2  0  0  0
 18102  1  0  0  0
 19 20  1  0  0  0
 19 24  1  0  0  0
 20 21  2  0  0  0
 20103  1  0  0  0
 21 23  1  0  0  0
 22 28  1  0  0  0
 22 32  2  0  0  0
 26 27  1  0  0  0
 28104  1  0  0  0
 28105  1  0  0  0
 29106  1  0  0  0
 29107  1  0  0  0
 33 34  1  0  0  0
 33 66  1  0  0  0
 33 70  2  0  0  0
 34 36  1  0  0  0
 34 59  1  0  0  0
 34108  1  0  0  0
 35 44  2  0  0  0
 35 45  1  0  0  0
 35 68  1  0  0  0
 36 56  1  0  0  0
 36109  1  0  0  0
 37 39  1  0  0  0
 37 47  1  0  0  0
 37 66  1  0  0  0
 37110  1  0  0  0
 38 43  2  0  0  0
 38 46  1  0  0  0
 38 47  1  0  0  0
 39 64  1  0  0  0
 39 67  2  0  0  0
 40 52  1  0  0  0
 40 53  2  0  0  0
 40 58  1  0  0  0
 41111  1  0  0  0
 41112  1  0  0  0
 41113  1  0  0  0
 41 48  1  0  0  0
 42 43  1  0  0  0
 42 66  1  0  0  0
 42114  1  0  0  0
 42115  1  0  0  0
 43 44  1  0  0  0
 44116  1  0  0  0
 45 46  2  0  0  0
 45117  1  0  0  0
 46118  1  0  0  0
 47119  1  0  0  0
 47120  1  0  0  0
 48 56  1  0  0  0
 48 65  1  0  0  0
 48121  1  0  0  0
 49 50  1  0  0  0
 49 53  1  0  0  0
 49 64  1  0  0  0
 49122  1  0  0  0
 50 51  1  0  0  0
 50123  1  0  0  0
 50124  1  0  0  0
 51 52  1  0  0  0
 51125  1  0  0  0
 51126  1  0  0  0
 52127  1  0  0  0
 52128  1  0  0  0
 53 54  1  0  0  0
 54 55  2  0  0  0
 54129  1  0  0  0
 55 57  1  0  0  0
 55130  1  0  0  0
 56 69  2  0  0  0
 57 58  2  0  0  0
 57131  1  0  0  0
 58132  1  0  0  0
 59 60  1  0  0  0
 59 61  1  0  0  0
 59 62  1  0  0  0
 60133  1  0  0  0
 60134  1  0  0  0
 60135  1  0  0  0
 61136  1  0  0  0
 61137  1  0  0  0
 61138  1  0  0  0
 62139  1  0  0  0
 62140  1  0  0  0
 62141  1  0  0  0
 63 65  1  0  0  0
 63142  1  0  0  0
 63143  1  0  0  0
 63144  1  0  0  0
 64145  1  0  0  0
 65146  1  0  0  0
 68 84  1  0  0  0
 71 73  2  0  0  0
 71 76  1  0  0  0
 71147  1  0  0  0
 72 74  1  0  0  0
 72 76  2  0  0  0
 72148  1  0  0  0
 73 75  1  0  0  0
 73 79  1  0  0  0
 74 75  2  0  0  0
 74 80  1  0  0  0
 75 82  1  0  0  0
 76 87  1  0  0  0
 77 78  1  0  0  0
 77 79  1  0  0  0
 77149  1  0  0  0
 77150  1  0  0  0
 78 79  1  0  0  0
 78151  1  0  0  0
 78152  1  0  0  0
 79153  1  0  0  0
 80154  1  0  0  0
 80155  1  0  0  0
 80156  1  0  0  0
 81 83  1  0  0  0
 81157  1  0  0  0
 81158  1  0  0  0
 81159  1  0  0  0
 82 86  1  0  0  0
 82160  1  0  0  0
 82161  1  0  0  0
 83 86  1  0  0  0
 83162  1  0  0  0
 83163  1  0  0  0
 84 85  1  0  0  0
 84164  1  0  0  0
 84165  1  0  0  0
 85 87  1  0  0  0
 85166  1  0  0  0
 85167  1  0  0  0
M  ISO  4   1 100  68 101  84 101  86 100
M  END
> <chiral flag>
0

> <version>
0

> <s_m_source_file>
/data/baiqing/PycharmProjects/Reinvent-master-3.2/result/LINK_invent/BTK/process_docking_weight1_custom_sum_contain_oxygen_bond_distance_aromatic_linkinvent_7_9_3/rearranged_h_0147.sdf

> <i_m_source_file_index>
32

> <r_mmod_Potential_Energy-OPLS-2005>
349.956420898438

> <r_mmod_Stretch_Energy-OPLS-2005>
90.0387268066406

> <r_mmod_Bend_Energy-OPLS-2005>
177.681457519531

> <r_mmod_Torsional_Energy-OPLS-2005>
324.090026855469

> <r_mmod_Improper_Torsional_Energy-OPLS-2005>
24.6663455963135

> <r_mmod_Van_der_Waal_Energy-OPLS-2005>
148.994003295898

> <r_mmod_Electrostatic_Energy-OPLS-2005>
-298.133026123047

> <r_mmod_Solvation_Energy-OPLS-2005>
-192.910461425781

> <b_mmod_Minimization_Converged-OPLS-2005>
0

> <r_mmod_RMS_Derivative-OPLS-2005>
3.83319759368896

$$$$
32
                    3D
 Structure written by MMmdl.
168178  0  0  1  0            999 V2000
  -30.7357  -14.5668   20.5193 C   0  0  0  0  0  0
  -30.3898  -12.3674   19.4406 C   0  0  0  0  0  0
  -29.4736  -12.5145   18.2105 C   0  0  0  0  0  0
  -28.0016  -12.3674   18.6267 C   0  0  0  0  0  0
  -27.6382  -13.2350   19.8609 C   0  0  2  0  0  0
  -28.6881  -13.1192   20.9890 C   0  0  0  0  0  0
  -25.2459  -13.8221   20.5749 C   0  0  0  0  0  0
  -24.1761  -13.0431   20.9222 C   0  0  0  0  0  0
  -24.6369  -11.6922   20.8741 C   0  0  0  0  0  0
  -23.9046  -10.4276   21.0379 C   0  0  0  0  0  0
  -24.3607   -9.4200   21.9161 C   0  0  0  0  0  0
  -23.6282   -8.2227   22.0736 C   0  0  0  0  0  0
  -22.4258   -8.0252   21.3529 C   0  0  0  0  0  0
  -21.9892   -9.0214   20.4622 C   0  0  0  0  0  0
  -22.7216  -10.2112   20.3034 C   0  0  0  0  0  0
  -21.6840   -6.0710   22.5280 C   0  0  0  0  0  0
  -21.3988   -6.5614   23.8210 C   0  0  0  0  0  0
  -21.3681   -5.6779   24.9178 C   0  0  0  0  0  0
  -21.6063   -4.3042   24.7235 C   0  0  0  0  0  0
  -21.8813   -3.8125   23.4355 C   0  0  0  0  0  0
  -21.9182   -4.6936   22.3403 C   0  0  0  0  0  0
  -22.7796  -13.5207   21.1880 C   0  0  0  0  0  0
  -22.1652   -4.2130   21.0977 F   0  0  0  0  0  0
  -21.5664   -3.4527   25.7746 F   0  0  0  0  0  0
  -30.0040  -13.4149   20.4138 N   0  0  0  0  0  0
  -26.2887  -12.9452   20.3356 N   0  0  0  0  0  0
  -25.9292  -11.6582   20.5782 N   0  0  0  0  0  0
  -22.0447  -12.8174   22.0459 N   0  0  0  0  0  0
  -25.4118  -15.1941   20.4196 N   0  0  0  0  0  0
  -31.8792  -14.6278   20.0739 O   0  0  0  0  0  0
  -21.6621   -6.8860   21.4244 O   0  0  0  0  0  0
  -22.3448  -14.5473   20.6708 O   0  0  0  0  0  0
  -24.6145  -31.8631   23.2034 C   0  0  0  0  0  0
  -25.8971  -32.4818   23.8391 C   0  0  1  0  0  0
  -27.2336  -27.3180   20.1637 C   0  0  0  0  0  0
  -25.5826  -33.8605   24.2344 N   0  0  0  0  0  0
  -23.4118  -30.4739   21.5471 C   0  0  2  0  0  0
  -24.8679  -28.9157   20.1338 C   0  0  0  0  0  0
  -22.7436  -29.4564   22.5030 C   0  0  0  0  0  0
  -18.0248  -28.1522   22.8517 C   0  0  0  0  0  0
  -24.1458  -36.7297   23.2663 C   0  0  0  0  0  0
  -25.9485  -30.7925   21.3708 C   0  0  0  0  0  0
  -26.0321  -29.4095   20.7368 C   0  0  0  0  0  0
  -27.2164  -28.6204   20.7486 C   0  0  0  0  0  0
  -26.0550  -26.8646   19.5410 C   0  0  0  0  0  0
  -24.8779  -27.6452   19.5317 C   0  0  0  0  0  0
  -23.6312  -29.7906   20.1710 C   0  0  0  0  0  0
  -25.4089  -36.3113   24.0368 C   0  0  1  0  0  0
  -20.5839  -28.3729   23.1582 C   0  0  2  0  0  0
  -20.6549  -26.9298   22.6201 C   0  0  0  0  0  0
  -19.6021  -26.6533   21.5457 C   0  0  0  0  0  0
  -18.1974  -26.8200   22.1363 C   0  0  0  0  0  0
  -19.1493  -28.8888   23.3082 C   0  0  0  0  0  0
  -18.9479  -30.1509   23.9070 C   0  0  0  0  0  0
  -17.6527  -30.6750   24.0564 C   0  0  0  0  0  0
  -25.9017  -34.9472   23.5178 C   0  0  0  0  0  0
  -16.5413  -29.9252   23.6413 C   0  0  0  0  0  0
  -16.7237  -28.6675   23.0411 C   0  0  0  0  0  0
  -26.4425  -31.6605   25.0699 C   0  0  0  0  0  0
  -25.3701  -31.3655   26.1438 C   0  0  0  0  0  0
  -27.0238  -30.3045   24.6084 C   0  0  0  0  0  0
  -27.6042  -32.4270   25.7424 C   0  0  0  0  0  0
  -27.5559  -37.1813   24.8479 C   0  0  0  0  0  0
  -21.4136  -29.3007   22.3852 N   0  0  0  0  0  0
  -26.4284  -37.3786   23.9403 N   0  0  0  0  0  0
  -24.6777  -31.0601   22.0991 N   0  0  0  0  0  0
  -23.4205  -28.8028   23.2998 O   0  0  0  0  0  0
  -28.3669  -26.4997   20.1378 O   0  0  0  0  0  0
  -26.5599  -34.8913   22.4753 O   0  0  0  0  0  0
  -23.5318  -32.1388   23.7397 O   0  0  0  0  0  0
  -25.9798  -19.1359   19.1627 C   0  0  0  0  0  0
  -26.7172  -20.9937   20.5214 C   0  0  0  0  0  0
  -27.2580  -18.5442   19.2376 C   0  0  0  0  0  0
  -28.2279  -19.0826   20.1454 C   0  0  0  0  0  0
  -25.6782  -20.3004   19.8871 C   0  0  0  0  0  0
  -28.0259  -20.4522   20.5942 C   0  0  0  0  0  0
  -28.3525  -17.5191   17.0505 C   0  0  0  0  0  0
  -26.8691  -17.2940   16.9531 C   0  0  0  0  0  0
  -29.1802  -17.6418   22.0773 C   0  0  0  0  0  0
  -27.5285  -17.3666   18.3201 C   0  0  0  0  0  0
  -29.3420  -18.1346   20.6636 C   0  0  1  0  0  0
  -29.1965  -16.5826   21.0016 C   0  0  1  0  0  0
  -24.2554  -20.8181   19.9488 C   0  0  0  0  0  0
  -28.5558  -23.8487   20.4488 C   0  0  0  0  0  0
  -28.4211  -25.3276   21.0369 C   0  0  0  0  0  0
  -28.8411  -22.6702   21.4948 C   0  0  0  0  0  0
  -30.3089  -15.6581   21.2063 N   0  0  0  0  0  0
  -29.0598  -21.2708   21.0661 O   0  0  0  0  0  0
  -31.4339  -12.4391   19.1326 H   0  0  0  0  0  0
  -30.2847  -11.3769   19.8849 H   0  0  0  0  0  0
  -29.7242  -11.7663   17.4588 H   0  0  0  0  0  0
  -29.6334  -13.4890   17.7414 H   0  0  0  0  0  0
  -27.8278  -11.3155   18.8508 H   0  0  0  0  0  0
  -27.3448  -12.6149   17.7928 H   0  0  0  0  0  0
  -27.6436  -14.2634   19.5125 H   0  0  0  0  0  0
  -28.6845  -12.1093   21.4002 H   0  0  0  0  0  0
  -28.4531  -13.7885   21.8161 H   0  0  0  0  0  0
  -25.2750   -9.5683   22.4747 H   0  0  0  0  0  0
  -23.9993   -7.4612   22.7446 H   0  0  0  0  0  0
  -21.0831   -8.8707   19.8915 H   0  0  0  0  0  0
  -22.3638  -10.9641   19.6146 H   0  0  0  0  0  0
  -21.1936   -7.6116   23.9711 H   0  0  0  0  0  0
  -21.1540   -6.0504   25.9097 H   0  0  0  0  0  0
  -22.0576   -2.7581   23.2852 H   0  0  0  0  0  0
  -22.4040  -11.9837   22.4885 H   0  0  0  0  0  0
  -21.1066  -13.1196   22.2628 H   0  0  0  0  0  0
  -24.6505  -15.8525   20.5463 H   0  0  0  0  0  0
  -26.2636  -15.6432   20.1127 H   0  0  0  0  0  0
  -26.6972  -32.5559   23.1109 H   0  0  0  0  0  0
  -24.9930  -33.9773   25.0456 H   0  0  0  0  0  0
  -22.7081  -31.2940   21.3921 H   0  0  0  0  0  0
  -23.3721  -35.9618   23.3321 H   0  0  0  0  0  0
  -24.3568  -36.8890   22.2079 H   0  0  0  0  0  0
  -23.7185  -37.6507   23.6633 H   0  0  0  0  0  0
  -26.0471  -31.5415   20.5863 H   0  0  0  0  0  0
  -26.8419  -30.8752   21.9766 H   0  0  0  0  0  0
  -28.1069  -28.9946   21.2337 H   0  0  0  0  0  0
  -26.0440  -25.8898   19.0749 H   0  0  0  0  0  0
  -23.9808  -27.2491   19.0773 H   0  0  0  0  0  0
  -23.7529  -30.5532   19.4003 H   0  0  0  0  0  0
  -22.7516  -29.2141   19.8741 H   0  0  0  0  0  0
  -25.1246  -36.2024   25.0858 H   0  0  0  0  0  0
  -20.9939  -28.3574   24.1683 H   0  0  0  0  0  0
  -20.4393  -26.2644   23.4627 H   0  0  0  0  0  0
  -21.6573  -26.6633   22.2809 H   0  0  0  0  0  0
  -19.7598  -27.3597   20.7317 H   0  0  0  0  0  0
  -19.7242  -25.6528   21.1339 H   0  0  0  0  0  0
  -17.4538  -26.7377   21.3385 H   0  0  0  0  0  0
  -17.9900  -26.0077   22.8356 H   0  0  0  0  0  0
  -19.7971  -30.7258   24.2498 H   0  0  0  0  0  0
  -17.5160  -31.6447   24.5088 H   0  0  0  0  0  0
  -15.5470  -30.3291   23.7794 H   0  0  0  0  0  0
  -15.8564  -28.1109   22.7119 H   0  0  0  0  0  0
  -24.5811  -30.7119   25.7723 H   0  0  0  0  0  0
  -24.8877  -32.2775   26.4943 H   0  0  0  0  0  0
  -25.8033  -30.8664   27.0126 H   0  0  0  0  0  0
  -26.2792  -29.6707   24.1218 H   0  0  0  0  0  0
  -27.4081  -29.7344   25.4540 H   0  0  0  0  0  0
  -27.8626  -30.4322   23.9243 H   0  0  0  0  0  0
  -27.2767  -33.3629   26.1954 H   0  0  0  0  0  0
  -28.3856  -32.6727   25.0217 H   0  0  0  0  0  0
  -28.0749  -31.8357   26.5314 H   0  0  0  0  0  0
  -28.2629  -38.0073   24.7528 H   0  0  0  0  0  0
  -28.1025  -36.2621   24.6311 H   0  0  0  0  0  0
  -27.2290  -37.1448   25.8894 H   0  0  0  0  0  0
  -20.9222  -29.9092   21.7453 H   0  0  0  0  0  0
  -26.0200  -38.2871   24.1399 H   0  0  0  0  0  0
  -25.2101  -18.6827   18.5601 H   0  0  0  0  0  0
  -26.4797  -21.9449   20.9746 H   0  0  0  0  0  0
  -28.7051  -18.5039   16.7547 H   0  0  0  0  0  0
  -28.9612  -16.6885   16.6934 H   0  0  0  0  0  0
  -26.5405  -16.3246   16.5903 H   0  0  0  0  0  0
  -26.2806  -18.1329   16.5936 H   0  0  0  0  0  0
  -28.2221  -17.8029   22.5758 H   0  0  0  0  0  0
  -30.0506  -17.7261   22.7253 H   0  0  0  0  0  0
  -27.5914  -16.4281   18.8565 H   0  0  0  0  0  0
  -30.3254  -18.4964   20.3689 H   0  0  0  0  0  0
  -28.2279  -16.1072   20.8620 H   0  0  0  0  0  0
  -23.8958  -21.1021   18.9576 H   0  0  0  0  0  0
  -24.1722  -21.6867   20.6040 H   0  0  0  0  0  0
  -23.5909  -20.0486   20.3482 H   0  0  0  0  0  0
  -29.3630  -23.8421   19.7168 H   0  0  0  0  0  0
  -27.6439  -23.6173   19.9039 H   0  0  0  0  0  0
  -29.3143  -25.4931   21.6393 H   0  0  0  0  0  0
  -27.5995  -25.3716   21.7537 H   0  0  0  0  0  0
  -28.1008  -22.6890   22.2919 H   0  0  0  0  0  0
  -29.7599  -22.9418   22.0157 H   0  0  0  0  0  0
  -31.1252  -16.1713   21.4999 H   0  0  0  0  0  0
  1 25  1  0  0  0
  1 30  2  0  0  0
  1 87  1  0  0  0
  2  3  1  0  0  0
  2 25  1  0  0  0
  2 89  1  0  0  0
  2 90  1  0  0  0
  3  4  1  0  0  0
  3 91  1  0  0  0
  3 92  1  0  0  0
  4  5  1  0  0  0
  4 93  1  0  0  0
  4 94  1  0  0  0
  5  6  1  0  0  0
  5 26  1  0  0  0
  5 95  1  0  0  0
  6 25  1  0  0  0
  6 96  1  0  0  0
  6 97  1  0  0  0
  7  8  2  0  0  0
  7 26  1  0  0  0
  7 29  1  0  0  0
  8  9  1  0  0  0
  8 22  1  0  0  0
  9 10  1  0  0  0
  9 27  2  0  0  0
 10 11  2  0  0  0
 10 15  1  0  0  0
 11 12  1  0  0  0
 11 98  1  0  0  0
 12 13  2  0  0  0
 12 99  1  0  0  0
 13 14  1  0  0  0
 13 31  1  0  0  0
 14 15  2  0  0  0
 14100  1  0  0  0
 15101  1  0  0  0
 16 17  2  0  0  0
 16 21  1  0  0  0
 16 31  1  0  0  0
 17 18  1  0  0  0
 17102  1  0  0  0
 18 19  2  0  0  0
 18103  1  0  0  0
 19 20  1  0  0  0
 19 24  1  0  0  0
 20 21  2  0  0  0
 20104  1  0  0  0
 21 23  1  0  0  0
 22 28  1  0  0  0
 22 32  2  0  0  0
 26 27  1  0  0  0
 28105  1  0  0  0
 28106  1  0  0  0
 29107  1  0  0  0
 29108  1  0  0  0
 33 34  1  0  0  0
 33 66  1  0  0  0
 33 70  2  0  0  0
 34 36  1  0  0  0
 34 59  1  0  0  0
 34109  1  0  0  0
 35 44  2  0  0  0
 35 45  1  0  0  0
 35 68  1  0  0  0
 36 56  1  0  0  0
 36110  1  0  0  0
 37 39  1  0  0  0
 37 47  1  0  0  0
 37 66  1  0  0  0
 37111  1  0  0  0
 38 43  2  0  0  0
 38 46  1  0  0  0
 38 47  1  0  0  0
 39 64  1  0  0  0
 39 67  2  0  0  0
 40 52  1  0  0  0
 40 53  2  0  0  0
 40 58  1  0  0  0
 41112  1  0  0  0
 41113  1  0  0  0
 41114  1  0  0  0
 41 48  1  0  0  0
 42 43  1  0  0  0
 42 66  1  0  0  0
 42115  1  0  0  0
 42116  1  0  0  0
 43 44  1  0  0  0
 44117  1  0  0  0
 45 46  2  0  0  0
 45118  1  0  0  0
 46119  1  0  0  0
 47120  1  0  0  0
 47121  1  0  0  0
 48 56  1  0  0  0
 48 65  1  0  0  0
 48122  1  0  0  0
 49 50  1  0  0  0
 49 53  1  0  0  0
 49 64  1  0  0  0
 49123  1  0  0  0
 50 51  1  0  0  0
 50124  1  0  0  0
 50125  1  0  0  0
 51 52  1  0  0  0
 51126  1  0  0  0
 51127  1  0  0  0
 52128  1  0  0  0
 52129  1  0  0  0
 53 54  1  0  0  0
 54 55  2  0  0  0
 54130  1  0  0  0
 55 57  1  0  0  0
 55131  1  0  0  0
 56 69  2  0  0  0
 57 58  2  0  0  0
 57132  1  0  0  0
 58133  1  0  0  0
 59 60  1  0  0  0
 59 61  1  0  0  0
 59 62  1  0  0  0
 60134  1  0  0  0
 60135  1  0  0  0
 60136  1  0  0  0
 61137  1  0  0  0
 61138  1  0  0  0
 61139  1  0  0  0
 62140  1  0  0  0
 62141  1  0  0  0
 62142  1  0  0  0
 63 65  1  0  0  0
 63143  1  0  0  0
 63144  1  0  0  0
 63145  1  0  0  0
 64146  1  0  0  0
 65147  1  0  0  0
 68 85  1  0  0  0
 71 73  2  0  0  0
 71 75  1  0  0  0
 71148  1  0  0  0
 72 75  2  0  0  0
 72 76  1  0  0  0
 72149  1  0  0  0
 73 74  1  0  0  0
 73 80  1  0  0  0
 74 76  2  0  0  0
 74 81  1  0  0  0
 75 83  1  0  0  0
 76 88  1  0  0  0
 77 78  1  0  0  0
 77 80  1  0  0  0
 77150  1  0  0  0
 77151  1  0  0  0
 78 80  1  0  0  0
 78152  1  0  0  0
 78153  1  0  0  0
 79 81  1  0  0  0
 79 82  1  0  0  0
 79154  1  0  0  0
 79155  1  0  0  0
 80156  1  0  0  0
 81 82  1  0  0  0
 81157  1  0  0  0
 82 87  1  0  0  0
 82158  1  0  0  0
 83159  1  0  0  0
 83160  1  0  0  0
 83161  1  0  0  0
 84 85  1  0  0  0
 84 86  1  0  0  0
 84162  1  0  0  0
 84163  1  0  0  0
 85164  1  0  0  0
 85165  1  0  0  0
 86 88  1  0  0  0
 86166  1  0  0  0
 86167  1  0  0  0
 87168  1  0  0  0
M  ISO  4   1 100  68 101  85 101  87 100
M  END
> <chiral flag>
0

> <version>
0

> <s_m_source_file>
/data/baiqing/PycharmProjects/Reinvent-master-3.2/result/LINK_invent/BTK/process_docking_weight1_custom_sum_contain_oxygen_bond_distance_aromatic_linkinvent_7_9_3/rearranged_h_0147.sdf

> <i_m_source_file_index>
33

> <r_mmod_Potential_Energy-OPLS-2005>
255.640747070312

> <r_mmod_Stretch_Energy-OPLS-2005>
88.1966857910156

> <r_mmod_Bend_Energy-OPLS-2005>
191.707702636719

> <r_mmod_Torsional_Energy-OPLS-2005>
405.914855957031

> <r_mmod_Improper_Torsional_Energy-OPLS-2005>
6.19610214233398

> <r_mmod_Van_der_Waal_Energy-OPLS-2005>
124.801643371582

> <r_mmod_Electrostatic_Energy-OPLS-2005>
-403.044372558594

> <r_mmod_Solvation_Energy-OPLS-2005>
-199.626098632812

> <b_mmod_Minimization_Converged-OPLS-2005>
0

> <r_mmod_RMS_Derivative-OPLS-2005>
8.0690450668335

$$$$
33
                    3D
 Structure written by MMmdl.
175185  0  0  1  0            999 V2000
  -30.6720  -14.4120   20.5058 C   0  0  0  0  0  0
  -30.4213  -12.2471   19.3947 C   0  0  0  0  0  0
  -29.4849  -12.4573   18.1865 C   0  0  0  0  0  0
  -28.0051  -12.3388   18.6113 C   0  0  0  0  0  0
  -27.6553  -13.1723   19.8729 C   0  0  2  0  0  0
  -28.7039  -12.9360   20.9849 C   0  0  0  0  0  0
  -25.2533  -13.7992   20.5813 C   0  0  0  0  0  0
  -24.1745  -13.0315   20.9178 C   0  0  0  0  0  0
  -24.6286  -11.6805   20.8726 C   0  0  0  0  0  0
  -23.8965  -10.4232   21.0419 C   0  0  0  0  0  0
  -24.3539   -9.4159   21.9181 C   0  0  0  0  0  0
  -23.6227   -8.2197   22.0749 C   0  0  0  0  0  0
  -22.4208   -8.0235   21.3543 C   0  0  0  0  0  0
  -21.9819   -9.0224   20.4662 C   0  0  0  0  0  0
  -22.7150  -10.2096   20.3065 C   0  0  0  0  0  0
  -21.6850   -6.0692   22.5278 C   0  0  0  0  0  0
  -21.4015   -6.5600   23.8212 C   0  0  0  0  0  0
  -21.3661   -5.6746   24.9174 C   0  0  0  0  0  0
  -21.6048   -4.3003   24.7242 C   0  0  0  0  0  0
  -21.8818   -3.8102   23.4355 C   0  0  0  0  0  0
  -21.9208   -4.6919   22.3406 C   0  0  0  0  0  0
  -22.7806  -13.5218   21.1888 C   0  0  0  0  0  0
  -22.1672   -4.2107   21.0978 F   0  0  0  0  0  0
  -21.5655   -3.4484   25.7763 F   0  0  0  0  0  0
  -30.0353  -13.2194   20.4209 N   0  0  0  0  0  0
  -26.2948  -12.9143   20.3397 N   0  0  0  0  0  0
  -25.9194  -11.6317   20.5694 N   0  0  0  0  0  0
  -22.0418  -12.8270   22.0439 N   0  0  0  0  0  0
  -25.4131  -15.1714   20.4583 N   0  0  0  0  0  0
  -31.8391  -14.6042   20.1411 O   0  0  0  0  0  0
  -21.6601   -6.8823   21.4233 O   0  0  0  0  0  0
  -22.3544  -14.5563   20.6754 O   0  0  0  0  0  0
  -24.6098  -31.8704   23.2150 C   0  0  0  0  0  0
  -25.9000  -32.4840   23.8449 C   0  0  1  0  0  0
  -27.2393  -27.4769   20.0359 C   0  0  0  0  0  0
  -25.5865  -33.8641   24.2362 N   0  0  0  0  0  0
  -23.3956  -30.4923   21.5608 C   0  0  2  0  0  0
  -24.8389  -28.9587   20.1265 C   0  0  0  0  0  0
  -22.7378  -29.4660   22.5093 C   0  0  0  0  0  0
  -18.0237  -28.1348   22.8477 C   0  0  0  0  0  0
  -24.1491  -36.7330   23.2646 C   0  0  0  0  0  0
  -25.9249  -30.8356   21.3740 C   0  0  0  0  0  0
  -26.0012  -29.4750   20.7144 C   0  0  0  0  0  0
  -27.2018  -28.7321   20.6796 C   0  0  0  0  0  0
  -26.0492  -26.9541   19.4806 C   0  0  0  0  0  0
  -24.8533  -27.6914   19.5202 C   0  0  0  0  0  0
  -23.6010  -29.8233   20.1774 C   0  0  0  0  0  0
  -25.4111  -36.3136   24.0351 C   0  0  1  0  0  0
  -20.5828  -28.3627   23.1333 C   0  0  2  0  0  0
  -20.6733  -26.9382   22.5429 C   0  0  0  0  0  0
  -19.5735  -26.6370   21.5183 C   0  0  0  0  0  0
  -18.1890  -26.7911   22.1571 C   0  0  0  0  0  0
  -19.1491  -28.8804   23.2895 C   0  0  0  0  0  0
  -18.9435  -30.1408   23.8914 C   0  0  0  0  0  0
  -17.6453  -30.6575   24.0549 C   0  0  0  0  0  0
  -25.9020  -34.9485   23.5169 C   0  0  0  0  0  0
  -16.5337  -29.9066   23.6333 C   0  0  0  0  0  0
  -16.7238  -28.6473   23.0362 C   0  0  0  0  0  0
  -26.4476  -31.6613   25.0761 C   0  0  0  0  0  0
  -25.3771  -31.3693   26.1535 C   0  0  0  0  0  0
  -27.0322  -30.3058   24.6142 C   0  0  0  0  0  0
  -27.6093  -32.4345   25.7460 C   0  0  0  0  0  0
  -27.5593  -37.1813   24.8462 C   0  0  0  0  0  0
  -21.4109  -29.2987   22.3763 N   0  0  0  0  0  0
  -26.4299  -37.3809   23.9422 N   0  0  0  0  0  0
  -24.6620  -31.0805   22.1080 N   0  0  0  0  0  0
  -23.4157  -28.8222   23.3150 O   0  0  0  0  0  0
  -28.4224  -26.7822   19.9665 O   0  0  0  0  0  0
  -26.5591  -34.8918   22.4727 O   0  0  0  0  0  0
  -23.5299  -32.1490   23.7506 O   0  0  0  0  0  0
  -27.6837  -21.6400   18.9012 C   0  0  0  0  0  0
  -27.8092  -20.3650   19.4726 C   0  0  0  0  0  0
  -29.9715  -22.1540   19.5519 C   0  0  0  0  0  0
  -30.1076  -20.8761   20.1391 C   0  0  0  0  0  0
  -28.7390  -22.5684   18.9857 C   0  0  0  0  0  0
  -29.0001  -19.9951   20.1438 C   0  0  0  0  0  0
  -31.2807  -21.4860   23.1979 C   0  0  0  0  0  0
  -32.6878  -20.9594   23.0351 C   0  0  0  0  0  0
  -28.2469  -17.0403   19.4955 C   0  0  0  0  0  0
  -28.4422  -16.9167   22.0173 C   0  0  0  0  0  0
  -29.5587  -16.2396   19.3984 C   0  0  0  0  0  0
  -29.8043  -16.2231   21.8500 C   0  0  0  0  0  0
  -31.9161  -21.4432   21.8279 C   0  0  0  0  0  0
  -28.1425  -17.8207   20.8133 C   0  0  0  0  0  0
  -32.5335  -20.1886   19.7306 C   0  0  0  0  0  0
  -28.7791  -26.2436   18.6851 C   0  0  0  0  0  0
  -29.4245  -24.8626   18.8547 C   0  0  0  0  0  0
  -31.4413  -20.4530   20.7751 C   0  0  2  0  0  0
  -29.8203  -15.4463   20.6118 N   0  0  0  0  0  0
  -29.1499  -18.8164   20.8330 O   0  0  0  0  0  0
  -28.4865  -23.8411   18.5255 O   0  0  0  0  0  0
  -31.4642  -12.3563   19.0882 H   0  0  0  0  0  0
  -30.3251  -11.2295   19.7776 H   0  0  0  0  0  0
  -29.7066  -11.7168   17.4181 H   0  0  0  0  0  0
  -29.6720  -13.4279   17.7289 H   0  0  0  0  0  0
  -27.8096  -11.2848   18.8084 H   0  0  0  0  0  0
  -27.3543  -12.6109   17.7791 H   0  0  0  0  0  0
  -27.6923  -14.2144   19.5734 H   0  0  0  0  0  0
  -28.6665  -11.9029   21.3365 H   0  0  0  0  0  0
  -28.4913  -13.5538   21.8550 H   0  0  0  0  0  0
  -25.2694   -9.5671   22.4724 H   0  0  0  0  0  0
  -23.9973   -7.4589   22.7444 H   0  0  0  0  0  0
  -21.0748   -8.8736   19.8978 H   0  0  0  0  0  0
  -22.3593  -10.9626   19.6161 H   0  0  0  0  0  0
  -21.1964   -7.6100   23.9697 H   0  0  0  0  0  0
  -21.1507   -6.0477   25.9076 H   0  0  0  0  0  0
  -22.0598   -2.7561   23.2867 H   0  0  0  0  0  0
  -22.3974  -11.9925   22.4871 H   0  0  0  0  0  0
  -21.1072  -13.1413   22.2689 H   0  0  0  0  0  0
  -24.6441  -15.8066   20.6416 H   0  0  0  0  0  0
  -26.2966  -15.6399   20.3228 H   0  0  0  0  0  0
  -26.7049  -32.5564   23.1196 H   0  0  0  0  0  0
  -24.9979  -33.9827   25.0482 H   0  0  0  0  0  0
  -22.6833  -31.3087   21.4235 H   0  0  0  0  0  0
  -23.3753  -35.9662   23.3330 H   0  0  0  0  0  0
  -24.3586  -36.8918   22.2061 H   0  0  0  0  0  0
  -23.7233  -37.6532   23.6650 H   0  0  0  0  0  0
  -26.0421  -31.6102   20.6152 H   0  0  0  0  0  0
  -26.8097  -30.8793   21.9962 H   0  0  0  0  0  0
  -28.1060  -29.1309   21.1174 H   0  0  0  0  0  0
  -26.0358  -25.9823   19.0095 H   0  0  0  0  0  0
  -23.9560  -27.2803   19.0761 H   0  0  0  0  0  0
  -23.7063  -30.5961   19.4159 H   0  0  0  0  0  0
  -22.7284  -29.2373   19.8843 H   0  0  0  0  0  0
  -25.1280  -36.2026   25.0850 H   0  0  0  0  0  0
  -20.9877  -28.3192   24.1466 H   0  0  0  0  0  0
  -20.5601  -26.2246   23.3613 H   0  0  0  0  0  0
  -21.6625  -26.7433   22.1269 H   0  0  0  0  0  0
  -19.6916  -25.6263   21.1232 H   0  0  0  0  0  0
  -19.6697  -27.3178   20.6722 H   0  0  0  0  0  0
  -17.4193  -26.6662   21.3943 H   0  0  0  0  0  0
  -18.0299  -26.0015   22.8949 H   0  0  0  0  0  0
  -19.7920  -30.7166   24.2345 H   0  0  0  0  0  0
  -17.5023  -31.6273   24.5119 H   0  0  0  0  0  0
  -15.5341  -30.2978   23.7644 H   0  0  0  0  0  0
  -15.8624  -28.0775   22.7128 H   0  0  0  0  0  0
  -24.5903  -30.7104   25.7848 H   0  0  0  0  0  0
  -24.9018  -32.2840   26.5094 H   0  0  0  0  0  0
  -25.8137  -30.8760   27.0228 H   0  0  0  0  0  0
  -26.2848  -29.6764   24.1299 H   0  0  0  0  0  0
  -27.4199  -29.7350   25.4589 H   0  0  0  0  0  0
  -27.8651  -30.4387   23.9230 H   0  0  0  0  0  0
  -27.2750  -33.3611   26.2144 H   0  0  0  0  0  0
  -28.3789  -32.6974   25.0187 H   0  0  0  0  0  0
  -28.0917  -31.8439   26.5256 H   0  0  0  0  0  0
  -28.2617  -38.0103   24.7507 H   0  0  0  0  0  0
  -28.1077  -36.2638   24.6278 H   0  0  0  0  0  0
  -27.2331  -37.1460   25.8866 H   0  0  0  0  0  0
  -20.9295  -29.8670   21.6922 H   0  0  0  0  0  0
  -26.0206  -38.2894   24.1408 H   0  0  0  0  0  0
  -26.7542  -21.9177   18.4241 H   0  0  0  0  0  0
  -26.9604  -19.7020   19.4029 H   0  0  0  0  0  0
  -30.8238  -22.8152   19.5721 H   0  0  0  0  0  0
  -31.1657  -22.4609   23.6679 H   0  0  0  0  0  0
  -30.4828  -20.7719   23.4006 H   0  0  0  0  0  0
  -32.8461  -19.8870   23.1371 H   0  0  0  0  0  0
  -33.5026  -21.5844   23.3986 H   0  0  0  0  0  0
  -27.4008  -16.3698   19.4016 H   0  0  0  0  0  0
  -28.1646  -17.7109   18.6412 H   0  0  0  0  0  0
  -28.4322  -17.5133   22.9305 H   0  0  0  0  0  0
  -27.6554  -16.1696   22.1341 H   0  0  0  0  0  0
  -30.3976  -16.9084   19.2015 H   0  0  0  0  0  0
  -29.4845  -15.5767   18.5318 H   0  0  0  0  0  0
  -29.9995  -15.5850   22.7122 H   0  0  0  0  0  0
  -30.6125  -16.9574   21.8140 H   0  0  0  0  0  0
  -32.2253  -22.4064   21.4247 H   0  0  0  0  0  0
  -27.1484  -18.2489   20.9510 H   0  0  0  0  0  0
  -32.2019  -19.4649   18.9843 H   0  0  0  0  0  0
  -33.4253  -19.7774   20.2071 H   0  0  0  0  0  0
  -32.8262  -21.0996   19.2101 H   0  0  0  0  0  0
  -27.9646  -26.1841   17.9624 H   0  0  0  0  0  0
  -29.5074  -26.9167   18.2334 H   0  0  0  0  0  0
  -29.7801  -24.7709   19.8810 H   0  0  0  0  0  0
  -30.2819  -24.7689   18.1867 H   0  0  0  0  0  0
  -31.3020  -19.5036   21.2929 H   0  0  0  0  0  0
  1 25  1  0  0  0
  1 30  2  0  0  0
  1 89  1  0  0  0
  2  3  1  0  0  0
  2 25  1  0  0  0
  2 92  1  0  0  0
  2 93  1  0  0  0
  3  4  1  0  0  0
  3 94  1  0  0  0
  3 95  1  0  0  0
  4  5  1  0  0  0
  4 96  1  0  0  0
  4 97  1  0  0  0
  5  6  1  0  0  0
  5 26  1  0  0  0
  5 98  1  0  0  0
  6 25  1  0  0  0
  6 99  1  0  0  0
  6100  1  0  0  0
  7  8  2  0  0  0
  7 26  1  0  0  0
  7 29  1  0  0  0
  8  9  1  0  0  0
  8 22  1  0  0  0
  9 10  1  0  0  0
  9 27  2  0  0  0
 10 11  2  0  0  0
 10 15  1  0  0  0
 11 12  1  0  0  0
 11101  1  0  0  0
 12 13  2  0  0  0
 12102  1  0  0  0
 13 14  1  0  0  0
 13 31  1  0  0  0
 14 15  2  0  0  0
 14103  1  0  0  0
 15104  1  0  0  0
 16 17  2  0  0  0
 16 21  1  0  0  0
 16 31  1  0  0  0
 17 18  1  0  0  0
 17105  1  0  0  0
 18 19  2  0  0  0
 18106  1  0  0  0
 19 20  1  0  0  0
 19 24  1  0  0  0
 20 21  2  0  0  0
 20107  1  0  0  0
 21 23  1  0  0  0
 22 28  1  0  0  0
 22 32  2  0  0  0
 26 27  1  0  0  0
 28108  1  0  0  0
 28109  1  0  0  0
 29110  1  0  0  0
 29111  1  0  0  0
 33 34  1  0  0  0
 33 66  1  0  0  0
 33 70  2  0  0  0
 34 36  1  0  0  0
 34 59  1  0  0  0
 34112  1  0  0  0
 35 44  2  0  0  0
 35 45  1  0  0  0
 35 68  1  0  0  0
 36 56  1  0  0  0
 36113  1  0  0  0
 37 39  1  0  0  0
 37 47  1  0  0  0
 37 66  1  0  0  0
 37114  1  0  0  0
 38 43  2  0  0  0
 38 46  1  0  0  0
 38 47  1  0  0  0
 39 64  1  0  0  0
 39 67  2  0  0  0
 40 52  1  0  0  0
 40 53  2  0  0  0
 40 58  1  0  0  0
 41115  1  0  0  0
 41116  1  0  0  0
 41117  1  0  0  0
 41 48  1  0  0  0
 42 43  1  0  0  0
 42 66  1  0  0  0
 42118  1  0  0  0
 42119  1  0  0  0
 43 44  1  0  0  0
 44120  1  0  0  0
 45 46  2  0  0  0
 45121  1  0  0  0
 46122  1  0  0  0
 47123  1  0  0  0
 47124  1  0  0  0
 48 56  1  0  0  0
 48 65  1  0  0  0
 48125  1  0  0  0
 49 50  1  0  0  0
 49 53  1  0  0  0
 49 64  1  0  0  0
 49126  1  0  0  0
 50 51  1  0  0  0
 50127  1  0  0  0
 50128  1  0  0  0
 51 52  1  0  0  0
 51129  1  0  0  0
 51130  1  0  0  0
 52131  1  0  0  0
 52132  1  0  0  0
 53 54  1  0  0  0
 54 55  2  0  0  0
 54133  1  0  0  0
 55 57  1  0  0  0
 55134  1  0  0  0
 56 69  2  0  0  0
 57 58  2  0  0  0
 57135  1  0  0  0
 58136  1  0  0  0
 59 60  1  0  0  0
 59 61  1  0  0  0
 59 62  1  0  0  0
 60137  1  0  0  0
 60138  1  0  0  0
 60139  1  0  0  0
 61140  1  0  0  0
 61141  1  0  0  0
 61142  1  0  0  0
 62143  1  0  0  0
 62144  1  0  0  0
 62145  1  0  0  0
 63 65  1  0  0  0
 63146  1  0  0  0
 63147  1  0  0  0
 63148  1  0  0  0
 64149  1  0  0  0
 65150  1  0  0  0
 68 86  1  0  0  0
 71 72  2  0  0  0
 71 75  1  0  0  0
 71151  1  0  0  0
 72 76  1  0  0  0
 72152  1  0  0  0
 73 74  1  0  0  0
 73 75  2  0  0  0
 73153  1  0  0  0
 74 76  2  0  0  0
 74 88  1  0  0  0
 75 91  1  0  0  0
 76 90  1  0  0  0
 77 78  1  0  0  0
 77154  1  0  0  0
 77155  1  0  0  0
 77 83  1  0  0  0
 78 83  1  0  0  0
 78156  1  0  0  0
 78157  1  0  0  0
 79 81  1  0  0  0
 79 84  1  0  0  0
 79158  1  0  0  0
 79159  1  0  0  0
 80 82  1  0  0  0
 80 84  1  0  0  0
 80160  1  0  0  0
 80161  1  0  0  0
 81 89  1  0  0  0
 81162  1  0  0  0
 81163  1  0  0  0
 82 89  1  0  0  0
 82164  1  0  0  0
 82165  1  0  0  0
 83 88  1  0  0  0
 83166  1  0  0  0
 84 90  1  0  0  0
 84167  1  0  0  0
 85168  1  0  0  0
 85169  1  0  0  0
 85170  1  0  0  0
 85 88  1  0  0  0
 86 87  1  0  0  0
 86171  1  0  0  0
 86172  1  0  0  0
 87 91  1  0  0  0
 87173  1  0  0  0
 87174  1  0  0  0
 88175  1  0  0  0
M  ISO  4   1 100  68 101  86 101  89 100
M  END
> <chiral flag>
0

> <version>
0

> <s_m_source_file>
/data/baiqing/PycharmProjects/Reinvent-master-3.2/result/LINK_invent/BTK/process_docking_weight1_custom_sum_contain_oxygen_bond_distance_aromatic_linkinvent_7_9_3/rearranged_h_0147.sdf

> <i_m_source_file_index>
34

> <r_mmod_Potential_Energy-OPLS-2005>
224.946395874023

> <r_mmod_Stretch_Energy-OPLS-2005>
34.3071212768555

> <r_mmod_Bend_Energy-OPLS-2005>
110.51439666748

> <r_mmod_Torsional_Energy-OPLS-2005>
387.931213378906

> <r_mmod_Improper_Torsional_Energy-OPLS-2005>
14.6342658996582

> <r_mmod_Van_der_Waal_Energy-OPLS-2005>
162.778381347656

> <r_mmod_Electrostatic_Energy-OPLS-2005>
-304.717102050781

> <r_mmod_Solvation_Energy-OPLS-2005>
-195.24885559082

> <b_mmod_Minimization_Converged-OPLS-2005>
0

> <r_mmod_RMS_Derivative-OPLS-2005>
4.93815994262695

$$$$
34
                    3D
 Structure written by MMmdl.
161170  0  0  1  0            999 V2000
  -30.6895  -14.7023   20.4711 C   0  0  0  0  0  0
  -30.4107  -12.4392   19.4624 C   0  0  0  0  0  0
  -29.4953  -12.5004   18.2241 C   0  0  0  0  0  0
  -28.0216  -12.3402   18.6415 C   0  0  0  0  0  0
  -27.6364  -13.2394   19.8487 C   0  0  2  0  0  0
  -28.6880  -13.1772   20.9759 C   0  0  0  0  0  0
  -25.2490  -13.8220   20.5726 C   0  0  0  0  0  0
  -24.1782  -13.0450   20.9208 C   0  0  0  0  0  0
  -24.6385  -11.6932   20.8754 C   0  0  0  0  0  0
  -23.9069  -10.4296   21.0410 C   0  0  0  0  0  0
  -24.3614   -9.4208   21.9184 C   0  0  0  0  0  0
  -23.6291   -8.2240   22.0749 C   0  0  0  0  0  0
  -22.4273   -8.0280   21.3546 C   0  0  0  0  0  0
  -21.9903   -9.0258   20.4648 C   0  0  0  0  0  0
  -22.7235  -10.2134   20.3061 C   0  0  0  0  0  0
  -21.6851   -6.0732   22.5279 C   0  0  0  0  0  0
  -21.4012   -6.5637   23.8213 C   0  0  0  0  0  0
  -21.3661   -5.6792   24.9177 C   0  0  0  0  0  0
  -21.6041   -4.3053   24.7228 C   0  0  0  0  0  0
  -21.8818   -3.8142   23.4349 C   0  0  0  0  0  0
  -21.9190   -4.6958   22.3403 C   0  0  0  0  0  0
  -22.7804  -13.5227   21.1865 C   0  0  0  0  0  0
  -22.1660   -4.2143   21.0982 F   0  0  0  0  0  0
  -21.5629   -3.4538   25.7740 F   0  0  0  0  0  0
  -29.9764  -13.5278   20.3708 N   0  0  0  0  0  0
  -26.2921  -12.9439   20.3315 N   0  0  0  0  0  0
  -25.9321  -11.6576   20.5771 N   0  0  0  0  0  0
  -22.0460  -12.8233   22.0436 N   0  0  0  0  0  0
  -25.4199  -15.1943   20.4166 N   0  0  0  0  0  0
  -31.8988  -14.6565   20.2216 O   0  0  0  0  0  0
  -21.6637   -6.8874   21.4240 O   0  0  0  0  0  0
  -22.3490  -14.5532   20.6708 O   0  0  0  0  0  0
  -24.6328  -31.8589   23.2050 C   0  0  0  0  0  0
  -25.9161  -32.4767   23.8378 C   0  0  1  0  0  0
  -27.1946  -27.2604   20.1117 C   0  0  0  0  0  0
  -25.5966  -33.8573   24.2287 N   0  0  0  0  0  0
  -23.4275  -30.4898   21.5498 C   0  0  2  0  0  0
  -24.8689  -28.9567   20.1062 C   0  0  0  0  0  0
  -22.7513  -29.4624   22.4909 C   0  0  0  0  0  0
  -18.0297  -28.1385   22.8476 C   0  0  0  0  0  0
  -24.1490  -36.7289   23.2635 C   0  0  0  0  0  0
  -25.9794  -30.7688   21.3914 C   0  0  0  0  0  0
  -26.0465  -29.3977   20.7237 C   0  0  0  0  0  0
  -27.2132  -28.5620   20.7221 C   0  0  0  0  0  0
  -25.9910  -26.9163   19.4419 C   0  0  0  0  0  0
  -24.8469  -27.7230   19.4549 C   0  0  0  0  0  0
  -23.6445  -29.8446   20.1604 C   0  0  0  0  0  0
  -25.4114  -36.3074   24.0324 C   0  0  1  0  0  0
  -20.5902  -28.3698   23.1257 C   0  0  2  0  0  0
  -20.6786  -26.9413   22.5405 C   0  0  0  0  0  0
  -19.5765  -26.6377   21.5209 C   0  0  0  0  0  0
  -18.1942  -26.7927   22.1616 C   0  0  0  0  0  0
  -19.1550  -28.8859   23.2861 C   0  0  0  0  0  0
  -18.9468  -30.1458   23.8882 C   0  0  0  0  0  0
  -17.6465  -30.6582   24.0560 C   0  0  0  0  0  0
  -25.9060  -34.9443   23.5096 C   0  0  0  0  0  0
  -16.5356  -29.9077   23.6334 C   0  0  0  0  0  0
  -16.7282  -28.6499   23.0345 C   0  0  0  0  0  0
  -26.4495  -31.6586   25.0774 C   0  0  0  0  0  0
  -25.3693  -31.3784   26.1478 C   0  0  0  0  0  0
  -27.0320  -30.2973   24.6306 C   0  0  0  0  0  0
  -27.6052  -32.4313   25.7556 C   0  0  0  0  0  0
  -27.5577  -37.1805   24.8454 C   0  0  0  0  0  0
  -21.4222  -29.3045   22.3648 N   0  0  0  0  0  0
  -26.4287  -37.3771   23.9403 N   0  0  0  0  0  0
  -24.6991  -31.0557   22.1041 N   0  0  0  0  0  0
  -23.4216  -28.8139   23.2984 O   0  0  0  0  0  0
  -28.2429  -26.3021   20.1935 O   0  0  0  0  0  0
  -26.5619  -34.8911   22.4656 O   0  0  0  0  0  0
  -23.5474  -32.1420   23.7334 O   0  0  0  0  0  0
  -29.2815  -21.3213   19.1928 C   0  0  0  0  0  0
  -28.9414  -22.7003   19.0504 C   0  0  0  0  0  0
  -28.7028  -22.8965   21.4207 C   0  0  0  0  0  0
  -29.3303  -20.6616   20.4526 C   0  0  0  0  0  0
  -28.6124  -23.5355   20.1524 C   0  0  0  0  0  0
  -29.0650  -21.5042   21.5798 C   0  0  0  0  0  0
  -28.7661  -18.1084   21.2466 C   0  0  0  0  0  0
  -30.1412  -18.3819   19.2972 C   0  0  0  0  0  0
  -29.3033  -16.6221   21.4667 C   0  0  0  0  0  0
  -30.7774  -16.9683   19.5251 C   0  0  0  0  0  0
  -29.7585  -19.1247   20.5978 C   0  0  0  0  0  0
  -28.9829  -21.6921   23.9814 C   0  0  0  0  0  0
  -27.8221  -24.8888   19.9003 C   0  0  0  0  0  0
  -30.0579  -15.9515   20.3613 N   0  0  0  0  0  0
  -29.1600  -20.8980   22.8150 O   0  0  0  0  0  0
  -31.4546  -12.5253   19.1562 H   0  0  0  0  0  0
  -30.3289  -11.4696   19.9563 H   0  0  0  0  0  0
  -29.7693  -11.7219   17.5112 H   0  0  0  0  0  0
  -29.6309  -13.4530   17.7092 H   0  0  0  0  0  0
  -27.8680  -11.2917   18.8986 H   0  0  0  0  0  0
  -27.3639  -12.5427   17.7955 H   0  0  0  0  0  0
  -27.6287  -14.2618   19.4712 H   0  0  0  0  0  0
  -28.7272  -12.1785   21.4125 H   0  0  0  0  0  0
  -28.4336  -13.8475   21.7952 H   0  0  0  0  0  0
  -25.2757   -9.5685   22.4769 H   0  0  0  0  0  0
  -24.0000   -7.4626   22.7466 H   0  0  0  0  0  0
  -21.0831   -8.8781   19.8965 H   0  0  0  0  0  0
  -22.3691  -10.9676   19.6177 H   0  0  0  0  0  0
  -21.2009   -7.6146   23.9718 H   0  0  0  0  0  0
  -21.1486   -6.0521   25.9081 H   0  0  0  0  0  0
  -22.0596   -2.7606   23.2849 H   0  0  0  0  0  0
  -22.4072  -11.9891   22.4827 H   0  0  0  0  0  0
  -21.1085  -13.1267   22.2663 H   0  0  0  0  0  0
  -24.6569  -15.8519   20.5321 H   0  0  0  0  0  0
  -26.2815  -15.6341   20.1187 H   0  0  0  0  0  0
  -26.7237  -32.5400   23.1129 H   0  0  0  0  0  0
  -25.0111  -33.9721   25.0429 H   0  0  0  0  0  0
  -22.7236  -31.3134   21.4138 H   0  0  0  0  0  0
  -23.3747  -35.9627   23.3301 H   0  0  0  0  0  0
  -24.3583  -36.8908   22.2051 H   0  0  0  0  0  0
  -23.7249  -37.6495   23.6655 H   0  0  0  0  0  0
  -26.1283  -31.5337   20.6279 H   0  0  0  0  0  0
  -26.8533  -30.8049   22.0299 H   0  0  0  0  0  0
  -28.1058  -28.8883   21.2377 H   0  0  0  0  0  0
  -25.8588  -25.9904   18.9063 H   0  0  0  0  0  0
  -23.9500  -27.3842   18.9546 H   0  0  0  0  0  0
  -23.7751  -30.6308   19.4160 H   0  0  0  0  0  0
  -22.7599  -29.2874   19.8462 H   0  0  0  0  0  0
  -25.1295  -36.1924   25.0816 H   0  0  0  0  0  0
  -20.9991  -28.3271   24.1379 H   0  0  0  0  0  0
  -20.5679  -26.2309   23.3612 H   0  0  0  0  0  0
  -21.6653  -26.7434   22.1203 H   0  0  0  0  0  0
  -19.6926  -25.6284   21.1251 H   0  0  0  0  0  0
  -19.6710  -27.3174   20.6731 H   0  0  0  0  0  0
  -17.4217  -26.6672   21.4013 H   0  0  0  0  0  0
  -18.0338  -26.0073   22.9016 H   0  0  0  0  0  0
  -19.7943  -30.7275   24.2245 H   0  0  0  0  0  0
  -17.5019  -31.6260   24.5166 H   0  0  0  0  0  0
  -15.5353  -30.2964   23.7680 H   0  0  0  0  0  0
  -15.8686  -28.0819   22.7051 H   0  0  0  0  0  0
  -24.5882  -30.7111   25.7820 H   0  0  0  0  0  0
  -24.8869  -32.2975   26.4823 H   0  0  0  0  0  0
  -25.7977  -30.9028   27.0310 H   0  0  0  0  0  0
  -26.2918  -29.6741   24.1275 H   0  0  0  0  0  0
  -27.3880  -29.7226   25.4867 H   0  0  0  0  0  0
  -27.8858  -30.4195   23.9642 H   0  0  0  0  0  0
  -27.2661  -33.3611   26.2141 H   0  0  0  0  0  0
  -28.3878  -32.6872   25.0401 H   0  0  0  0  0  0
  -28.0705  -31.8434   26.5479 H   0  0  0  0  0  0
  -28.2587  -38.0107   24.7488 H   0  0  0  0  0  0
  -28.1080  -36.2635   24.6285 H   0  0  0  0  0  0
  -27.2305  -37.1462   25.8861 H   0  0  0  0  0  0
  -20.9400  -29.8791   21.6880 H   0  0  0  0  0  0
  -26.0162  -38.2848   24.1390 H   0  0  0  0  0  0
  -29.4895  -20.7657   18.2905 H   0  0  0  0  0  0
  -28.8586  -23.1004   18.0491 H   0  0  0  0  0  0
  -28.4204  -23.4898   22.2778 H   0  0  0  0  0  0
  -28.4372  -18.4940   22.2115 H   0  0  0  0  0  0
  -27.8627  -18.0678   20.6365 H   0  0  0  0  0  0
  -29.2686  -18.2901   18.6482 H   0  0  0  0  0  0
  -30.8657  -18.9795   18.7427 H   0  0  0  0  0  0
  -28.4488  -16.0055   21.7395 H   0  0  0  0  0  0
  -29.9566  -16.6243   22.3405 H   0  0  0  0  0  0
  -31.7591  -17.1393   19.9709 H   0  0  0  0  0  0
  -30.9708  -16.5285   18.5448 H   0  0  0  0  0  0
  -30.6475  -19.1516   21.2293 H   0  0  0  0  0  0
  -29.1457  -21.0742   24.8643 H   0  0  0  0  0  0
  -27.9700  -22.0921   24.0446 H   0  0  0  0  0  0
  -29.6993  -22.5138   24.0204 H   0  0  0  0  0  0
  -26.8840  -24.7102   20.4298 H   0  0  0  0  0  0
  -27.5947  -24.8573   18.8346 H   0  0  0  0  0  0
  1 25  1  0  0  0
  1 30  2  0  0  0
  1 84  1  0  0  0
  2  3  1  0  0  0
  2 25  1  0  0  0
  2 86  1  0  0  0
  2 87  1  0  0  0
  3  4  1  0  0  0
  3 88  1  0  0  0
  3 89  1  0  0  0
  4  5  1  0  0  0
  4 90  1  0  0  0
  4 91  1  0  0  0
  5  6  1  0  0  0
  5 26  1  0  0  0
  5 92  1  0  0  0
  6 25  1  0  0  0
  6 93  1  0  0  0
  6 94  1  0  0  0
  7  8  2  0  0  0
  7 26  1  0  0  0
  7 29  1  0  0  0
  8  9  1  0  0  0
  8 22  1  0  0  0
  9 10  1  0  0  0
  9 27  2  0  0  0
 10 11  2  0  0  0
 10 15  1  0  0  0
 11 12  1  0  0  0
 11 95  1  0  0  0
 12 13  2  0  0  0
 12 96  1  0  0  0
 13 14  1  0  0  0
 13 31  1  0  0  0
 14 15  2  0  0  0
 14 97  1  0  0  0
 15 98  1  0  0  0
 16 17  2  0  0  0
 16 21  1  0  0  0
 16 31  1  0  0  0
 17 18  1  0  0  0
 17 99  1  0  0  0
 18 19  2  0  0  0
 18100  1  0  0  0
 19 20  1  0  0  0
 19 24  1  0  0  0
 20 21  2  0  0  0
 20101  1  0  0  0
 21 23  1  0  0  0
 22 28  1  0  0  0
 22 32  2  0  0  0
 26 27  1  0  0  0
 28102  1  0  0  0
 28103  1  0  0  0
 29104  1  0  0  0
 29105  1  0  0  0
 33 34  1  0  0  0
 33 66  1  0  0  0
 33 70  2  0  0  0
 34 36  1  0  0  0
 34 59  1  0  0  0
 34106  1  0  0  0
 35 44  2  0  0  0
 35 45  1  0  0  0
 35 68  1  0  0  0
 36 56  1  0  0  0
 36107  1  0  0  0
 37 39  1  0  0  0
 37 47  1  0  0  0
 37 66  1  0  0  0
 37108  1  0  0  0
 38 43  2  0  0  0
 38 46  1  0  0  0
 38 47  1  0  0  0
 39 64  1  0  0  0
 39 67  2  0  0  0
 40 52  1  0  0  0
 40 53  2  0  0  0
 40 58  1  0  0  0
 41109  1  0  0  0
 41110  1  0  0  0
 41111  1  0  0  0
 41 48  1  0  0  0
 42 43  1  0  0  0
 42 66  1  0  0  0
 42112  1  0  0  0
 42113  1  0  0  0
 43 44  1  0  0  0
 44114  1  0  0  0
 45 46  2  0  0  0
 45115  1  0  0  0
 46116  1  0  0  0
 47117  1  0  0  0
 47118  1  0  0  0
 48 56  1  0  0  0
 48 65  1  0  0  0
 48119  1  0  0  0
 49 50  1  0  0  0
 49 53  1  0  0  0
 49 64  1  0  0  0
 49120  1  0  0  0
 50 51  1  0  0  0
 50121  1  0  0  0
 50122  1  0  0  0
 51 52  1  0  0  0
 51123  1  0  0  0
 51124  1  0  0  0
 52125  1  0  0  0
 52126  1  0  0  0
 53 54  1  0  0  0
 54 55  2  0  0  0
 54127  1  0  0  0
 55 57  1  0  0  0
 55128  1  0  0  0
 56 69  2  0  0  0
 57 58  2  0  0  0
 57129  1  0  0  0
 58130  1  0  0  0
 59 60  1  0  0  0
 59 61  1  0  0  0
 59 62  1  0  0  0
 60131  1  0  0  0
 60132  1  0  0  0
 60133  1  0  0  0
 61134  1  0  0  0
 61135  1  0  0  0
 61136  1  0  0  0
 62137  1  0  0  0
 62138  1  0  0  0
 62139  1  0  0  0
 63 65  1  0  0  0
 63140  1  0  0  0
 63141  1  0  0  0
 63142  1  0  0  0
 64143  1  0  0  0
 65144  1  0  0  0
 68 83  1  0  0  0
 71 72  2  0  0  0
 71 74  1  0  0  0
 71145  1  0  0  0
 72 75  1  0  0  0
 72146  1  0  0  0
 73 75  2  0  0  0
 73 76  1  0  0  0
 73147  1  0  0  0
 74 76  2  0  0  0
 74 81  1  0  0  0
 75 83  1  0  0  0
 76 85  1  0  0  0
 77 79  1  0  0  0
 77 81  1  0  0  0
 77148  1  0  0  0
 77149  1  0  0  0
 78 80  1  0  0  0
 78 81  1  0  0  0
 78150  1  0  0  0
 78151  1  0  0  0
 79 84  1  0  0  0
 79152  1  0  0  0
 79153  1  0  0  0
 80 84  1  0  0  0
 80154  1  0  0  0
 80155  1  0  0  0
 81156  1  0  0  0
 82 85  1  0  0  0
 82157  1  0  0  0
 82158  1  0  0  0
 82159  1  0  0  0
 83160  1  0  0  0
 83161  1  0  0  0
M  ISO  4   1 100  68 101  83 101  84 100
M  END
> <chiral flag>
0

> <version>
0

> <s_m_source_file>
/data/baiqing/PycharmProjects/Reinvent-master-3.2/result/LINK_invent/BTK/process_docking_weight1_custom_sum_contain_oxygen_bond_distance_aromatic_linkinvent_7_9_3/rearranged_h_0147.sdf

> <i_m_source_file_index>
35

> <r_mmod_Potential_Energy-OPLS-2005>
447.638488769531

> <r_mmod_Stretch_Energy-OPLS-2005>
111.949066162109

> <r_mmod_Bend_Energy-OPLS-2005>
207.418151855469

> <r_mmod_Torsional_Energy-OPLS-2005>
328.127105712891

> <r_mmod_Improper_Torsional_Energy-OPLS-2005>
21.6979637145996

> <r_mmod_Van_der_Waal_Energy-OPLS-2005>
170.141845703125

> <r_mmod_Electrostatic_Energy-OPLS-2005>
-283.968322753906

> <r_mmod_Solvation_Energy-OPLS-2005>
-197.682281494141

> <b_mmod_Minimization_Converged-OPLS-2005>
0

> <r_mmod_RMS_Derivative-OPLS-2005>
1.12501430511475

$$$$
35
                    3D
 Structure written by MMmdl.
158167  0  0  1  0            999 V2000
  -30.6996  -14.4774   20.5872 C   0  0  0  0  0  0
  -30.4230  -12.3186   19.4188 C   0  0  0  0  0  0
  -29.4921  -12.5078   18.2034 C   0  0  0  0  0  0
  -28.0143  -12.3664   18.6171 C   0  0  0  0  0  0
  -27.6604  -13.2060   19.8736 C   0  0  2  0  0  0
  -28.7019  -12.9885   20.9941 C   0  0  0  0  0  0
  -25.2596  -13.8157   20.5693 C   0  0  0  0  0  0
  -24.1837  -13.0439   20.9171 C   0  0  0  0  0  0
  -24.6382  -11.6902   20.8739 C   0  0  0  0  0  0
  -23.9047  -10.4293   21.0409 C   0  0  0  0  0  0
  -24.3601   -9.4209   21.9185 C   0  0  0  0  0  0
  -23.6278   -8.2245   22.0755 C   0  0  0  0  0  0
  -22.4264   -8.0276   21.3537 C   0  0  0  0  0  0
  -21.9894   -9.0255   20.4643 C   0  0  0  0  0  0
  -22.7223  -10.2135   20.3058 C   0  0  0  0  0  0
  -21.6854   -6.0729   22.5280 C   0  0  0  0  0  0
  -21.4016   -6.5633   23.8212 C   0  0  0  0  0  0
  -21.3662   -5.6785   24.9172 C   0  0  0  0  0  0
  -21.6048   -4.3050   24.7225 C   0  0  0  0  0  0
  -21.8822   -3.8141   23.4348 C   0  0  0  0  0  0
  -21.9193   -4.6957   22.3401 C   0  0  0  0  0  0
  -22.7867  -13.5253   21.1832 C   0  0  0  0  0  0
  -22.1664   -4.2143   21.0979 F   0  0  0  0  0  0
  -21.5631   -3.4535   25.7737 F   0  0  0  0  0  0
  -30.0297  -13.3022   20.4406 N   0  0  0  0  0  0
  -26.3015  -12.9319   20.3355 N   0  0  0  0  0  0
  -25.9304  -11.6481   20.5749 N   0  0  0  0  0  0
  -22.0492  -12.8258   22.0386 N   0  0  0  0  0  0
  -25.4346  -15.1877   20.4139 N   0  0  0  0  0  0
  -31.8169  -14.6732   20.1032 O   0  0  0  0  0  0
  -21.6639   -6.8870   21.4234 O   0  0  0  0  0  0
  -22.3564  -14.5565   20.6672 O   0  0  0  0  0  0
  -24.6196  -31.8665   23.2082 C   0  0  0  0  0  0
  -25.9076  -32.4819   23.8385 C   0  0  1  0  0  0
  -27.2235  -27.3968   20.1019 C   0  0  0  0  0  0
  -25.5914  -33.8614   24.2325 N   0  0  0  0  0  0
  -23.4079  -30.4925   21.5503 C   0  0  2  0  0  0
  -24.8529  -28.9613   20.1079 C   0  0  0  0  0  0
  -22.7444  -29.4662   22.4979 C   0  0  0  0  0  0
  -18.0285  -28.1370   22.8485 C   0  0  0  0  0  0
  -24.1489  -36.7313   23.2637 C   0  0  0  0  0  0
  -25.9414  -30.8228   21.3652 C   0  0  0  0  0  0
  -26.0180  -29.4564   20.7086 C   0  0  0  0  0  0
  -27.2076  -28.6825   20.7009 C   0  0  0  0  0  0
  -26.0429  -26.9443   19.4656 C   0  0  0  0  0  0
  -24.8635  -27.7072   19.4789 C   0  0  0  0  0  0
  -23.6169  -29.8303   20.1631 C   0  0  0  0  0  0
  -25.4107  -36.3112   24.0342 C   0  0  1  0  0  0
  -20.5879  -28.3678   23.1308 C   0  0  2  0  0  0
  -20.6785  -26.9416   22.5410 C   0  0  0  0  0  0
  -19.5762  -26.6391   21.5214 C   0  0  0  0  0  0
  -18.1937  -26.7920   22.1609 C   0  0  0  0  0  0
  -19.1534  -28.8829   23.2898 C   0  0  0  0  0  0
  -18.9452  -30.1424   23.8924 C   0  0  0  0  0  0
  -17.6458  -30.6567   24.0571 C   0  0  0  0  0  0
  -25.9034  -34.9476   23.5131 C   0  0  0  0  0  0
  -16.5348  -29.9079   23.6316 C   0  0  0  0  0  0
  -16.7273  -28.6496   23.0330 C   0  0  0  0  0  0
  -26.4476  -31.6591   25.0717 C   0  0  0  0  0  0
  -25.3729  -31.3712   26.1459 C   0  0  0  0  0  0
  -27.0299  -30.3029   24.6089 C   0  0  0  0  0  0
  -27.6055  -32.4300   25.7477 C   0  0  0  0  0  0
  -27.5579  -37.1814   24.8464 C   0  0  0  0  0  0
  -21.4167  -29.3052   22.3720 N   0  0  0  0  0  0
  -26.4294  -37.3795   23.9409 N   0  0  0  0  0  0
  -24.6750  -31.0744   22.0998 N   0  0  0  0  0  0
  -23.4200  -28.8194   23.3026 O   0  0  0  0  0  0
  -28.3480  -26.5835   20.1689 O   0  0  0  0  0  0
  -26.5597  -34.8931   22.4693 O   0  0  0  0  0  0
  -23.5381  -32.1432   23.7460 O   0  0  0  0  0  0
  -27.9773  -22.6750   22.1195 C   0  0  0  0  0  0
  -27.7447  -21.4551   22.7772 C   0  0  0  0  0  0
  -29.6182  -21.5823   20.7125 C   0  0  0  0  0  0
  -28.9218  -22.7685   21.0776 C   0  0  0  0  0  0
  -28.4607  -20.2900   22.4324 C   0  0  0  0  0  0
  -29.4000  -20.3328   21.3629 C   0  0  0  0  0  0
  -28.5825  -24.4139   19.0398 C   0  0  0  0  0  0
  -29.1709  -24.1176   20.4041 C   0  0  1  0  0  0
  -28.0586  -25.1614   20.2422 C   0  0  1  0  0  0
  -28.2290  -19.0592   23.2936 C   0  0  0  0  0  0
  -30.5018  -16.8462   21.4374 C   0  0  0  0  0  0
  -29.6487  -17.9510   20.7488 C   0  0  0  0  0  0
  -30.0240  -15.4685   21.1995 N   0  0  0  0  0  0
  -30.2031  -19.2615   20.9863 O   0  0  0  0  0  0
  -31.4665  -12.4247   19.1155 H   0  0  0  0  0  0
  -30.3295  -11.3086   19.8200 H   0  0  0  0  0  0
  -29.7319  -11.7802   17.4274 H   0  0  0  0  0  0
  -29.6587  -13.4926   17.7624 H   0  0  0  0  0  0
  -27.8264  -11.3107   18.8129 H   0  0  0  0  0  0
  -27.3627  -12.6402   17.7866 H   0  0  0  0  0  0
  -27.7040  -14.2535   19.5759 H   0  0  0  0  0  0
  -28.6856  -11.9519   21.3359 H   0  0  0  0  0  0
  -28.4595  -13.5866   21.8728 H   0  0  0  0  0  0
  -25.2745   -9.5700   22.4747 H   0  0  0  0  0  0
  -23.9995   -7.4648   22.7478 H   0  0  0  0  0  0
  -21.0824   -8.8774   19.8954 H   0  0  0  0  0  0
  -22.3677  -10.9672   19.6168 H   0  0  0  0  0  0
  -21.2008   -7.6143   23.9712 H   0  0  0  0  0  0
  -21.1483   -6.0515   25.9073 H   0  0  0  0  0  0
  -22.0595   -2.7602   23.2851 H   0  0  0  0  0  0
  -22.4094  -11.9918   22.4795 H   0  0  0  0  0  0
  -21.1113  -13.1310   22.2573 H   0  0  0  0  0  0
  -24.6718  -15.8465   20.5251 H   0  0  0  0  0  0
  -26.2898  -15.6229   20.0917 H   0  0  0  0  0  0
  -26.7152  -32.5525   23.1150 H   0  0  0  0  0  0
  -25.0071  -33.9758   25.0477 H   0  0  0  0  0  0
  -22.6979  -31.3103   21.4126 H   0  0  0  0  0  0
  -23.3747  -35.9649   23.3311 H   0  0  0  0  0  0
  -24.3583  -36.8908   22.2048 H   0  0  0  0  0  0
  -23.7239  -37.6524   23.6634 H   0  0  0  0  0  0
  -26.0564  -31.5870   20.5951 H   0  0  0  0  0  0
  -26.8291  -30.8766   21.9835 H   0  0  0  0  0  0
  -28.1014  -29.0529   21.1844 H   0  0  0  0  0  0
  -26.0119  -25.9900   18.9593 H   0  0  0  0  0  0
  -23.9727  -27.3251   18.9976 H   0  0  0  0  0  0
  -23.7254  -30.6063   19.4046 H   0  0  0  0  0  0
  -22.7400  -29.2508   19.8691 H   0  0  0  0  0  0
  -25.1286  -36.1983   25.0836 H   0  0  0  0  0  0
  -20.9950  -28.3240   24.1433 H   0  0  0  0  0  0
  -20.5710  -26.2283   23.3592 H   0  0  0  0  0  0
  -21.6658  -26.7475   22.1195 H   0  0  0  0  0  0
  -19.6947  -25.6319   21.1208 H   0  0  0  0  0  0
  -19.6697  -27.3230   20.6767 H   0  0  0  0  0  0
  -17.4230  -26.6671   21.3991 H   0  0  0  0  0  0
  -18.0314  -26.0047   22.8985 H   0  0  0  0  0  0
  -19.7925  -30.7221   24.2335 H   0  0  0  0  0  0
  -17.5014  -31.6239   24.5192 H   0  0  0  0  0  0
  -15.5347  -30.2990   23.7615 H   0  0  0  0  0  0
  -15.8675  -28.0819   22.7026 H   0  0  0  0  0  0
  -24.5912  -30.7041   25.7803 H   0  0  0  0  0  0
  -24.8905  -32.2870   26.4888 H   0  0  0  0  0  0
  -25.8074  -30.8903   27.0232 H   0  0  0  0  0  0
  -26.2845  -29.6801   24.1127 H   0  0  0  0  0  0
  -27.4053  -29.7252   25.4547 H   0  0  0  0  0  0
  -27.8687  -30.4349   23.9249 H   0  0  0  0  0  0
  -27.2685  -33.3598   26.2073 H   0  0  0  0  0  0
  -28.3851  -32.6859   25.0290 H   0  0  0  0  0  0
  -28.0728  -31.8403   26.5374 H   0  0  0  0  0  0
  -28.2617  -38.0096   24.7507 H   0  0  0  0  0  0
  -28.1056  -36.2630   24.6300 H   0  0  0  0  0  0
  -27.2293  -37.1476   25.8867 H   0  0  0  0  0  0
  -20.9329  -29.8801   21.6967 H   0  0  0  0  0  0
  -26.0190  -38.2879   24.1398 H   0  0  0  0  0  0
  -27.4286  -23.5483   22.4432 H   0  0  0  0  0  0
  -27.0281  -21.4286   23.5866 H   0  0  0  0  0  0
  -30.3544  -21.6350   19.9218 H   0  0  0  0  0  0
  -27.9224  -23.6740   18.5936 H   0  0  0  0  0  0
  -29.2013  -24.9683   18.3371 H   0  0  0  0  0  0
  -30.1746  -24.4801   20.6180 H   0  0  0  0  0  0
  -27.0862  -24.9054   20.6603 H   0  0  0  0  0  0
  -27.5023  -18.3871   22.8374 H   0  0  0  0  0  0
  -27.8377  -19.3357   24.2730 H   0  0  0  0  0  0
  -29.1586  -18.5226   23.4718 H   0  0  0  0  0  0
  -30.5166  -17.0057   22.5150 H   0  0  0  0  0  0
  -31.5393  -16.9551   21.1180 H   0  0  0  0  0  0
  -28.5987  -17.8694   21.0190 H   0  0  0  0  0  0
  -29.6740  -17.7851   19.6715 H   0  0  0  0  0  0
  -29.1034  -15.2364   21.5426 H   0  0  0  0  0  0
  1 25  1  0  0  0
  1 30  2  0  0  0
  1 83  1  0  0  0
  2  3  1  0  0  0
  2 25  1  0  0  0
  2 85  1  0  0  0
  2 86  1  0  0  0
  3  4  1  0  0  0
  3 87  1  0  0  0
  3 88  1  0  0  0
  4  5  1  0  0  0
  4 89  1  0  0  0
  4 90  1  0  0  0
  5  6  1  0  0  0
  5 26  1  0  0  0
  5 91  1  0  0  0
  6 25  1  0  0  0
  6 92  1  0  0  0
  6 93  1  0  0  0
  7  8  2  0  0  0
  7 26  1  0  0  0
  7 29  1  0  0  0
  8  9  1  0  0  0
  8 22  1  0  0  0
  9 10  1  0  0  0
  9 27  2  0  0  0
 10 11  2  0  0  0
 10 15  1  0  0  0
 11 12  1  0  0  0
 11 94  1  0  0  0
 12 13  2  0  0  0
 12 95  1  0  0  0
 13 14  1  0  0  0
 13 31  1  0  0  0
 14 15  2  0  0  0
 14 96  1  0  0  0
 15 97  1  0  0  0
 16 17  2  0  0  0
 16 21  1  0  0  0
 16 31  1  0  0  0
 17 18  1  0  0  0
 17 98  1  0  0  0
 18 19  2  0  0  0
 18 99  1  0  0  0
 19 20  1  0  0  0
 19 24  1  0  0  0
 20 21  2  0  0  0
 20100  1  0  0  0
 21 23  1  0  0  0
 22 28  1  0  0  0
 22 32  2  0  0  0
 26 27  1  0  0  0
 28101  1  0  0  0
 28102  1  0  0  0
 29103  1  0  0  0
 29104  1  0  0  0
 33 34  1  0  0  0
 33 66  1  0  0  0
 33 70  2  0  0  0
 34 36  1  0  0  0
 34 59  1  0  0  0
 34105  1  0  0  0
 35 44  2  0  0  0
 35 45  1  0  0  0
 35 68  1  0  0  0
 36 56  1  0  0  0
 36106  1  0  0  0
 37 39  1  0  0  0
 37 47  1  0  0  0
 37 66  1  0  0  0
 37107  1  0  0  0
 38 43  2  0  0  0
 38 46  1  0  0  0
 38 47  1  0  0  0
 39 64  1  0  0  0
 39 67  2  0  0  0
 40 52  1  0  0  0
 40 53  2  0  0  0
 40 58  1  0  0  0
 41108  1  0  0  0
 41109  1  0  0  0
 41110  1  0  0  0
 41 48  1  0  0  0
 42 43  1  0  0  0
 42 66  1  0  0  0
 42111  1  0  0  0
 42112  1  0  0  0
 43 44  1  0  0  0
 44113  1  0  0  0
 45 46  2  0  0  0
 45114  1  0  0  0
 46115  1  0  0  0
 47116  1  0  0  0
 47117  1  0  0  0
 48 56  1  0  0  0
 48 65  1  0  0  0
 48118  1  0  0  0
 49 50  1  0  0  0
 49 53  1  0  0  0
 49 64  1  0  0  0
 49119  1  0  0  0
 50 51  1  0  0  0
 50120  1  0  0  0
 50121  1  0  0  0
 51 52  1  0  0  0
 51122  1  0  0  0
 51123  1  0  0  0
 52124  1  0  0  0
 52125  1  0  0  0
 53 54  1  0  0  0
 54 55  2  0  0  0
 54126  1  0  0  0
 55 57  1  0  0  0
 55127  1  0  0  0
 56 69  2  0  0  0
 57 58  2  0  0  0
 57128  1  0  0  0
 58129  1  0  0  0
 59 60  1  0  0  0
 59 61  1  0  0  0
 59 62  1  0  0  0
 60130  1  0  0  0
 60131  1  0  0  0
 60132  1  0  0  0
 61133  1  0  0  0
 61134  1  0  0  0
 61135  1  0  0  0
 62136  1  0  0  0
 62137  1  0  0  0
 62138  1  0  0  0
 63 65  1  0  0  0
 63139  1  0  0  0
 63140  1  0  0  0
 63141  1  0  0  0
 64142  1  0  0  0
 65143  1  0  0  0
 68 79  1  0  0  0
 71 72  2  0  0  0
 71 74  1  0  0  0
 71144  1  0  0  0
 72 75  1  0  0  0
 72145  1  0  0  0
 73 74  2  0  0  0
 73 76  1  0  0  0
 73146  1  0  0  0
 74 78  1  0  0  0
 75 76  2  0  0  0
 75 80  1  0  0  0
 76 84  1  0  0  0
 77 78  1  0  0  0
 77 79  1  0  0  0
 77147  1  0  0  0
 77148  1  0  0  0
 78 79  1  0  0  0
 78149  1  0  0  0
 79150  1  0  0  0
 80151  1  0  0  0
 80152  1  0  0  0
 80153  1  0  0  0
 81 82  1  0  0  0
 81 83  1  0  0  0
 81154  1  0  0  0
 81155  1  0  0  0
 82 84  1  0  0  0
 82156  1  0  0  0
 82157  1  0  0  0
 83158  1  0  0  0
M  ISO  4   1 100  68 101  79 101  83 100
M  END
> <chiral flag>
0

> <version>
0

> <s_m_source_file>
/data/baiqing/PycharmProjects/Reinvent-master-3.2/result/LINK_invent/BTK/process_docking_weight1_custom_sum_contain_oxygen_bond_distance_aromatic_linkinvent_7_9_3/rearranged_h_0147.sdf

> <i_m_source_file_index>
36

> <r_mmod_Potential_Energy-OPLS-2005>
-55.4542846679688

> <r_mmod_Stretch_Energy-OPLS-2005>
45.1099662780762

> <r_mmod_Bend_Energy-OPLS-2005>
114.112808227539

> <r_mmod_Torsional_Energy-OPLS-2005>
241.948516845703

> <r_mmod_Improper_Torsional_Energy-OPLS-2005>
3.0793182849884

> <r_mmod_Van_der_Waal_Energy-OPLS-2005>
156.920700073242

> <r_mmod_Electrostatic_Energy-OPLS-2005>
-423.037902832031

> <r_mmod_Solvation_Energy-OPLS-2005>
-212.368423461914

> <b_mmod_Minimization_Converged-OPLS-2005>
0

> <r_mmod_RMS_Derivative-OPLS-2005>
1.57771873474121

$$$$
36
                    3D
 Structure written by MMmdl.
169178  0  0  1  0            999 V2000
  -30.7129  -14.4693   20.5616 C   0  0  0  0  0  0
  -30.4752  -12.3081   19.4213 C   0  0  0  0  0  0
  -29.5235  -12.5133   18.2257 C   0  0  0  0  0  0
  -28.0520  -12.3647   18.6593 C   0  0  0  0  0  0
  -27.7075  -13.1879   19.9312 C   0  0  2  0  0  0
  -28.7630  -12.9350   21.0336 C   0  0  0  0  0  0
  -25.2914  -13.8105   20.5754 C   0  0  0  0  0  0
  -24.2064  -13.0455   20.9124 C   0  0  0  0  0  0
  -24.6561  -11.6910   20.8756 C   0  0  0  0  0  0
  -23.9128  -10.4355   21.0379 C   0  0  0  0  0  0
  -24.3639   -9.4281   21.9150 C   0  0  0  0  0  0
  -23.6302   -8.2350   22.0721 C   0  0  0  0  0  0
  -22.4280   -8.0373   21.3524 C   0  0  0  0  0  0
  -21.9931   -9.0367   20.4605 C   0  0  0  0  0  0
  -22.7295  -10.2242   20.3031 C   0  0  0  0  0  0
  -21.6896   -6.0742   22.5255 C   0  0  0  0  0  0
  -21.4044   -6.5625   23.8169 C   0  0  0  0  0  0
  -21.3643   -5.6779   24.9139 C   0  0  0  0  0  0
  -21.6055   -4.3047   24.7211 C   0  0  0  0  0  0
  -21.8859   -3.8135   23.4338 C   0  0  0  0  0  0
  -21.9221   -4.6962   22.3381 C   0  0  0  0  0  0
  -22.8098  -13.5285   21.1737 C   0  0  0  0  0  0
  -22.1711   -4.2134   21.0976 F   0  0  0  0  0  0
  -21.5619   -3.4515   25.7715 F   0  0  0  0  0  0
  -30.0863  -13.2643   20.4678 N   0  0  0  0  0  0
  -26.3354  -12.9219   20.3717 N   0  0  0  0  0  0
  -25.9527  -11.6395   20.6025 N   0  0  0  0  0  0
  -22.0775  -12.8232   22.0310 N   0  0  0  0  0  0
  -25.4861  -15.1739   20.4061 N   0  0  0  0  0  0
  -31.7988  -14.7075   20.0263 O   0  0  0  0  0  0
  -21.6715   -6.8919   21.4206 O   0  0  0  0  0  0
  -22.3737  -14.5577   20.6609 O   0  0  0  0  0  0
  -24.6130  -31.8680   23.2089 C   0  0  0  0  0  0
  -25.9030  -32.4817   23.8383 C   0  0  1  0  0  0
  -27.2341  -27.4462   20.1030 C   0  0  0  0  0  0
  -25.5859  -33.8606   24.2307 N   0  0  0  0  0  0
  -23.3959  -30.4970   21.5485 C   0  0  2  0  0  0
  -24.8478  -28.9624   20.1094 C   0  0  0  0  0  0
  -22.7384  -29.4673   22.4952 C   0  0  0  0  0  0
  -18.0271  -28.1464   22.8559 C   0  0  0  0  0  0
  -24.1519  -36.7335   23.2650 C   0  0  0  0  0  0
  -25.9240  -30.8375   21.3610 C   0  0  0  0  0  0
  -26.0083  -29.4726   20.7087 C   0  0  0  0  0  0
  -27.2071  -28.7255   20.6973 C   0  0  0  0  0  0
  -26.0668  -26.9444   19.4946 C   0  0  0  0  0  0
  -24.8762  -27.6947   19.4939 C   0  0  0  0  0  0
  -23.6066  -29.8248   20.1630 C   0  0  0  0  0  0
  -25.4140  -36.3076   24.0341 C   0  0  1  0  0  0
  -20.5868  -28.3672   23.1276 C   0  0  2  0  0  0
  -20.6774  -26.9417   22.5292 C   0  0  0  0  0  0
  -19.5600  -26.6299   21.5287 C   0  0  0  0  0  0
  -18.1864  -26.7949   22.1864 C   0  0  0  0  0  0
  -19.1570  -28.8865   23.2878 C   0  0  0  0  0  0
  -18.9545  -30.1499   23.8863 C   0  0  0  0  0  0
  -17.6605  -30.6710   24.0514 C   0  0  0  0  0  0
  -25.9050  -34.9462   23.5127 C   0  0  0  0  0  0
  -16.5419  -29.9274   23.6257 C   0  0  0  0  0  0
  -16.7280  -28.6681   23.0359 C   0  0  0  0  0  0
  -26.4479  -31.6524   25.0686 C   0  0  0  0  0  0
  -25.3756  -31.3595   26.1439 C   0  0  0  0  0  0
  -27.0291  -30.2971   24.5995 C   0  0  0  0  0  0
  -27.6065  -32.4234   25.7439 C   0  0  0  0  0  0
  -27.5590  -37.1805   24.8447 C   0  0  0  0  0  0
  -21.4122  -29.3067   22.3688 N   0  0  0  0  0  0
  -26.4307  -37.3763   23.9382 N   0  0  0  0  0  0
  -24.6613  -31.0803   22.0968 N   0  0  0  0  0  0
  -23.4161  -28.8188   23.2963 O   0  0  0  0  0  0
  -28.3840  -26.6850   20.1096 O   0  0  0  0  0  0
  -26.5623  -34.8902   22.4705 O   0  0  0  0  0  0
  -23.5327  -32.1428   23.7507 O   0  0  0  0  0  0
  -27.4763  -20.8543   20.6149 C   0  0  0  0  0  0
  -30.0999  -20.2764   21.0910 C   0  0  0  0  0  0
  -27.7939  -19.5225   20.9653 C   0  0  0  0  0  0
  -29.1572  -19.2312   21.2663 C   0  0  0  0  0  0
  -28.4703  -21.8383   20.5681 C   0  0  0  0  0  0
  -23.0943  -18.5149   19.9268 C   0  0  0  0  0  0
  -23.0637  -19.9342   20.4341 C   0  0  0  0  0  0
  -24.3912  -19.2471   20.2288 C   0  0  0  0  0  0
  -24.6437  -17.9853   22.4625 C   0  0  0  0  0  0
  -26.6835  -18.4603   20.9911 C   0  0  0  0  0  0
  -29.6218  -17.8655   21.8194 C   0  0  0  0  0  0
  -30.1287  -16.8732   20.7483 C   0  0  0  0  0  0
  -28.3001  -25.4815   20.8946 C   0  0  0  0  0  0
  -28.9633  -24.2454   20.2324 C   0  0  0  0  0  0
  -25.2817  -18.9531   21.4403 C   0  0  1  0  0  0
  -29.7728  -21.5533   20.7684 N   0  0  0  0  0  0
  -29.9847  -15.4510   21.1165 N   0  0  0  0  0  0
  -28.0572  -23.1381   20.3150 O   0  0  0  0  0  0
  -31.5144  -12.4366   19.1055 H   0  0  0  0  0  0
  -30.4134  -11.2874   19.8028 H   0  0  0  0  0  0
  -29.7571  -11.8067   17.4291 H   0  0  0  0  0  0
  -29.6820  -13.5071   17.8036 H   0  0  0  0  0  0
  -27.8863  -11.3035   18.8574 H   0  0  0  0  0  0
  -27.3829  -12.6464   17.8491 H   0  0  0  0  0  0
  -27.7751  -14.2457   19.6769 H   0  0  0  0  0  0
  -28.7567  -11.8832   21.3184 H   0  0  0  0  0  0
  -28.5573  -13.4802   21.9563 H   0  0  0  0  0  0
  -25.2815   -9.5784   22.4664 H   0  0  0  0  0  0
  -24.0051   -7.4706   22.7368 H   0  0  0  0  0  0
  -21.0909   -8.8882   19.8835 H   0  0  0  0  0  0
  -22.3751  -10.9771   19.6126 H   0  0  0  0  0  0
  -21.2092   -7.6136   23.9633 H   0  0  0  0  0  0
  -21.1362   -6.0525   25.9000 H   0  0  0  0  0  0
  -22.0648   -2.7588   23.2854 H   0  0  0  0  0  0
  -22.4474  -11.9905   22.4652 H   0  0  0  0  0  0
  -21.1393  -13.1233   22.2564 H   0  0  0  0  0  0
  -24.7445  -15.8591   20.4790 H   0  0  0  0  0  0
  -26.3647  -15.5531   20.0794 H   0  0  0  0  0  0
  -26.7079  -32.5552   23.1112 H   0  0  0  0  0  0
  -24.9861  -33.9713   25.0353 H   0  0  0  0  0  0
  -22.6877  -31.3137   21.4122 H   0  0  0  0  0  0
  -23.3710  -35.9712   23.3310 H   0  0  0  0  0  0
  -24.3602  -36.8960   22.2035 H   0  0  0  0  0  0
  -23.7304  -37.6585   23.6679 H   0  0  0  0  0  0
  -26.0366  -31.6031   20.5898 H   0  0  0  0  0  0
  -26.8114  -30.8902   21.9800 H   0  0  0  0  0  0
  -28.0978  -29.1232   21.1637 H   0  0  0  0  0  0
  -26.0736  -25.9702   19.0249 H   0  0  0  0  0  0
  -23.9909  -27.2928   19.0217 H   0  0  0  0  0  0
  -23.7118  -30.5961   19.4000 H   0  0  0  0  0  0
  -22.7284  -29.2484   19.8706 H   0  0  0  0  0  0
  -25.1302  -36.1960   25.0827 H   0  0  0  0  0  0
  -20.9991  -28.3138   24.1395 H   0  0  0  0  0  0
  -21.6536  -26.7577   22.0793 H   0  0  0  0  0  0
  -20.5983  -26.2296   23.3522 H   0  0  0  0  0  0
  -19.6673  -25.6172   21.1410 H   0  0  0  0  0  0
  -19.6429  -27.3002   20.6725 H   0  0  0  0  0  0
  -17.4006  -26.6631   21.4403 H   0  0  0  0  0  0
  -18.0357  -26.0300   22.9498 H   0  0  0  0  0  0
  -19.8067  -30.7253   24.2216 H   0  0  0  0  0  0
  -17.5226  -31.6434   24.5014 H   0  0  0  0  0  0
  -15.5457  -30.3330   23.7560 H   0  0  0  0  0  0
  -15.8657  -28.1045   22.7083 H   0  0  0  0  0  0
  -24.5953  -30.6927   25.7765 H   0  0  0  0  0  0
  -24.8948  -32.2731   26.4937 H   0  0  0  0  0  0
  -25.8165  -30.8728   27.0143 H   0  0  0  0  0  0
  -26.2786  -29.6720   24.1139 H   0  0  0  0  0  0
  -27.4142  -29.7233   25.4416 H   0  0  0  0  0  0
  -27.8598  -30.4276   23.9059 H   0  0  0  0  0  0
  -27.2677  -33.3502   26.2076 H   0  0  0  0  0  0
  -28.3856  -32.6807   25.0256 H   0  0  0  0  0  0
  -28.0743  -31.8298   26.5286 H   0  0  0  0  0  0
  -28.2606  -38.0103   24.7494 H   0  0  0  0  0  0
  -28.1094  -36.2633   24.6305 H   0  0  0  0  0  0
  -27.2296  -37.1485   25.8845 H   0  0  0  0  0  0
  -20.9281  -29.8952   21.7024 H   0  0  0  0  0  0
  -26.0214  -38.2867   24.1318 H   0  0  0  0  0  0
  -26.4571  -21.1537   20.4132 H   0  0  0  0  0  0
  -31.1543  -20.0984   21.2539 H   0  0  0  0  0  0
  -22.8172  -18.3630   18.8833 H   0  0  0  0  0  0
  -22.7343  -17.7497   20.6150 H   0  0  0  0  0  0
  -22.7605  -20.1077   21.4663 H   0  0  0  0  0  0
  -22.8111  -20.7269   19.7344 H   0  0  0  0  0  0
  -24.9474  -19.5790   19.3486 H   0  0  0  0  0  0
  -23.7169  -18.3828   22.8731 H   0  0  0  0  0  0
  -25.3057  -17.7966   23.3093 H   0  0  0  0  0  0
  -24.4223  -17.0163   22.0141 H   0  0  0  0  0  0
  -26.6228  -17.9954   20.0028 H   0  0  0  0  0  0
  -26.9645  -17.6534   21.6549 H   0  0  0  0  0  0
  -28.8457  -17.4111   22.4278 H   0  0  0  0  0  0
  -30.4236  -18.0566   22.5353 H   0  0  0  0  0  0
  -29.4982  -16.9438   19.8685 H   0  0  0  0  0  0
  -31.1472  -17.1437   20.4517 H   0  0  0  0  0  0
  -28.7650  -25.6739   21.8621 H   0  0  0  0  0  0
  -27.2612  -25.2446   21.1283 H   0  0  0  0  0  0
  -29.9453  -24.0616   20.6681 H   0  0  0  0  0  0
  -29.1189  -24.4544   19.1723 H   0  0  0  0  0  0
  -25.3935  -19.8917   21.9895 H   0  0  0  0  0  0
  -29.0916  -15.1588   21.4816 H   0  0  0  0  0  0
  1 25  1  0  0  0
  1 30  2  0  0  0
  1 87  1  0  0  0
  2  3  1  0  0  0
  2 25  1  0  0  0
  2 89  1  0  0  0
  2 90  1  0  0  0
  3  4  1  0  0  0
  3 91  1  0  0  0
  3 92  1  0  0  0
  4  5  1  0  0  0
  4 93  1  0  0  0
  4 94  1  0  0  0
  5  6  1  0  0  0
  5 26  1  0  0  0
  5 95  1  0  0  0
  6 25  1  0  0  0
  6 96  1  0  0  0
  6 97  1  0  0  0
  7  8  2  0  0  0
  7 26  1  0  0  0
  7 29  1  0  0  0
  8  9  1  0  0  0
  8 22  1  0  0  0
  9 10  1  0  0  0
  9 27  2  0  0  0
 10 11  2  0  0  0
 10 15  1  0  0  0
 11 12  1  0  0  0
 11 98  1  0  0  0
 12 13  2  0  0  0
 12 99  1  0  0  0
 13 14  1  0  0  0
 13 31  1  0  0  0
 14 15  2  0  0  0
 14100  1  0  0  0
 15101  1  0  0  0
 16 17  2  0  0  0
 16 21  1  0  0  0
 16 31  1  0  0  0
 17 18  1  0  0  0
 17102  1  0  0  0
 18 19  2  0  0  0
 18103  1  0  0  0
 19 20  1  0  0  0
 19 24  1  0  0  0
 20 21  2  0  0  0
 20104  1  0  0  0
 21 23  1  0  0  0
 22 28  1  0  0  0
 22 32  2  0  0  0
 26 27  1  0  0  0
 28105  1  0  0  0
 28106  1  0  0  0
 29107  1  0  0  0
 29108  1  0  0  0
 33 34  1  0  0  0
 33 66  1  0  0  0
 33 70  2  0  0  0
 34 36  1  0  0  0
 34 59  1  0  0  0
 34109  1  0  0  0
 35 44  2  0  0  0
 35 45  1  0  0  0
 35 68  1  0  0  0
 36 56  1  0  0  0
 36110  1  0  0  0
 37 39  1  0  0  0
 37 47  1  0  0  0
 37 66  1  0  0  0
 37111  1  0  0  0
 38 43  2  0  0  0
 38 46  1  0  0  0
 38 47  1  0  0  0
 39 64  1  0  0  0
 39 67  2  0  0  0
 40 52  1  0  0  0
 40 53  2  0  0  0
 40 58  1  0  0  0
 41112  1  0  0  0
 41113  1  0  0  0
 41114  1  0  0  0
 41 48  1  0  0  0
 42 43  1  0  0  0
 42 66  1  0  0  0
 42115  1  0  0  0
 42116  1  0  0  0
 43 44  1  0  0  0
 44117  1  0  0  0
 45 46  2  0  0  0
 45118  1  0  0  0
 46119  1  0  0  0
 47120  1  0  0  0
 47121  1  0  0  0
 48 56  1  0  0  0
 48 65  1  0  0  0
 48122  1  0  0  0
 49 50  1  0  0  0
 49 53  1  0  0  0
 49 64  1  0  0  0
 49123  1  0  0  0
 50 51  1  0  0  0
 50124  1  0  0  0
 50125  1  0  0  0
 51 52  1  0  0  0
 51126  1  0  0  0
 51127  1  0  0  0
 52128  1  0  0  0
 52129  1  0  0  0
 53 54  1  0  0  0
 54 55  2  0  0  0
 54130  1  0  0  0
 55 57  1  0  0  0
 55131  1  0  0  0
 56 69  2  0  0  0
 57 58  2  0  0  0
 57132  1  0  0  0
 58133  1  0  0  0
 59 60  1  0  0  0
 59 61  1  0  0  0
 59 62  1  0  0  0
 60134  1  0  0  0
 60135  1  0  0  0
 60136  1  0  0  0
 61137  1  0  0  0
 61138  1  0  0  0
 61139  1  0  0  0
 62140  1  0  0  0
 62141  1  0  0  0
 62142  1  0  0  0
 63 65  1  0  0  0
 63143  1  0  0  0
 63144  1  0  0  0
 63145  1  0  0  0
 64146  1  0  0  0
 65147  1  0  0  0
 68 83  1  0  0  0
 71 73  2  0  0  0
 71 75  1  0  0  0
 71148  1  0  0  0
 72 74  2  0  0  0
 72 86  1  0  0  0
 72149  1  0  0  0
 73 74  1  0  0  0
 73 80  1  0  0  0
 74 81  1  0  0  0
 75 86  2  0  0  0
 75 88  1  0  0  0
 76 77  1  0  0  0
 76150  1  0  0  0
 76151  1  0  0  0
 76 78  1  0  0  0
 77 78  1  0  0  0
 77152  1  0  0  0
 77153  1  0  0  0
 78 85  1  0  0  0
 78154  1  0  0  0
 79155  1  0  0  0
 79156  1  0  0  0
 79157  1  0  0  0
 79 85  1  0  0  0
 80 85  1  0  0  0
 80158  1  0  0  0
 80159  1  0  0  0
 81 82  1  0  0  0
 81160  1  0  0  0
 81161  1  0  0  0
 82 87  1  0  0  0
 82162  1  0  0  0
 82163  1  0  0  0
 83 84  1  0  0  0
 83164  1  0  0  0
 83165  1  0  0  0
 84 88  1  0  0  0
 84166  1  0  0  0
 84167  1  0  0  0
 85168  1  0  0  0
 87169  1  0  0  0
M  ISO  4   1 100  68 101  83 101  87 100
M  END
> <chiral flag>
0

> <version>
0

> <s_m_source_file>
/data/baiqing/PycharmProjects/Reinvent-master-3.2/result/LINK_invent/BTK/process_docking_weight1_custom_sum_contain_oxygen_bond_distance_aromatic_linkinvent_7_9_3/rearranged_h_0147.sdf

> <i_m_source_file_index>
37

> <r_mmod_Potential_Energy-OPLS-2005>
-168.67041015625

> <r_mmod_Stretch_Energy-OPLS-2005>
41.9737129211426

> <r_mmod_Bend_Energy-OPLS-2005>
119.98796081543

> <r_mmod_Torsional_Energy-OPLS-2005>
281.012451171875

> <r_mmod_Improper_Torsional_Energy-OPLS-2005>
6.00787305831909

> <r_mmod_Van_der_Waal_Energy-OPLS-2005>
158.442779541016

> <r_mmod_Electrostatic_Energy-OPLS-2005>
-580.680847167969

> <r_mmod_Solvation_Energy-OPLS-2005>
-210.207244873047

> <b_mmod_Minimization_Converged-OPLS-2005>
0

> <r_mmod_RMS_Derivative-OPLS-2005>
9.81606578826904

$$$$
37
                    3D
 Structure written by MMmdl.
165174  0  0  1  0            999 V2000
  -30.6852  -14.5817   20.5095 C   0  0  0  0  0  0
  -30.4168  -12.3585   19.4559 C   0  0  0  0  0  0
  -29.4998  -12.4947   18.2230 C   0  0  0  0  0  0
  -28.0217  -12.3498   18.6335 C   0  0  0  0  0  0
  -27.6491  -13.2250   19.8617 C   0  0  2  0  0  0
  -28.6920  -13.0973   20.9932 C   0  0  0  0  0  0
  -25.2529  -13.8188   20.5686 C   0  0  0  0  0  0
  -24.1810  -13.0449   20.9203 C   0  0  0  0  0  0
  -24.6393  -11.6921   20.8759 C   0  0  0  0  0  0
  -23.9069  -10.4299   21.0416 C   0  0  0  0  0  0
  -24.3620   -9.4206   21.9185 C   0  0  0  0  0  0
  -23.6301   -8.2238   22.0750 C   0  0  0  0  0  0
  -22.4277   -8.0280   21.3549 C   0  0  0  0  0  0
  -21.9925   -9.0254   20.4647 C   0  0  0  0  0  0
  -22.7251  -10.2134   20.3054 C   0  0  0  0  0  0
  -21.6851   -6.0747   22.5288 C   0  0  0  0  0  0
  -21.4006   -6.5647   23.8222 C   0  0  0  0  0  0
  -21.3661   -5.6796   24.9178 C   0  0  0  0  0  0
  -21.6045   -4.3062   24.7226 C   0  0  0  0  0  0
  -21.8814   -3.8156   23.4349 C   0  0  0  0  0  0
  -21.9189   -4.6976   22.3409 C   0  0  0  0  0  0
  -22.7826  -13.5234   21.1869 C   0  0  0  0  0  0
  -22.1659   -4.2161   21.0989 F   0  0  0  0  0  0
  -21.5640   -3.4547   25.7743 F   0  0  0  0  0  0
  -30.0071  -13.3989   20.4175 N   0  0  0  0  0  0
  -26.2971  -12.9394   20.3332 N   0  0  0  0  0  0
  -25.9325  -11.6542   20.5778 N   0  0  0  0  0  0
  -22.0467  -12.8219   22.0420 N   0  0  0  0  0  0
  -25.4238  -15.1908   20.4087 N   0  0  0  0  0  0
  -31.8680  -14.6612   20.1603 O   0  0  0  0  0  0
  -21.6634   -6.8882   21.4248 O   0  0  0  0  0  0
  -22.3507  -14.5548   20.6733 O   0  0  0  0  0  0
  -24.6208  -31.8622   23.2044 C   0  0  0  0  0  0
  -25.9077  -32.4787   23.8359 C   0  0  1  0  0  0
  -27.2314  -27.3638   20.1035 C   0  0  0  0  0  0
  -25.5905  -33.8587   24.2286 N   0  0  0  0  0  0
  -23.4115  -30.4845   21.5457 C   0  0  2  0  0  0
  -24.8575  -28.9409   20.1097 C   0  0  0  0  0  0
  -22.7438  -29.4637   22.4961 C   0  0  0  0  0  0
  -18.0273  -28.1382   22.8499 C   0  0  0  0  0  0
  -24.1487  -36.7301   23.2642 C   0  0  0  0  0  0
  -25.9463  -30.8057   21.3668 C   0  0  0  0  0  0
  -26.0202  -29.4342   20.7135 C   0  0  0  0  0  0
  -27.2046  -28.6516   20.7094 C   0  0  0  0  0  0
  -26.0427  -26.8999   19.4959 C   0  0  0  0  0  0
  -24.8675  -27.6765   19.4975 C   0  0  0  0  0  0
  -23.6221  -29.8148   20.1608 C   0  0  0  0  0  0
  -25.4110  -36.3087   24.0330 C   0  0  1  0  0  0
  -20.5870  -28.3677   23.1306 C   0  0  2  0  0  0
  -20.6760  -26.9405   22.5420 C   0  0  0  0  0  0
  -19.5737  -26.6387   21.5219 C   0  0  0  0  0  0
  -18.1918  -26.7929   22.1630 C   0  0  0  0  0  0
  -19.1525  -28.8846   23.2903 C   0  0  0  0  0  0
  -18.9451  -30.1453   23.8914 C   0  0  0  0  0  0
  -17.6451  -30.6588   24.0567 C   0  0  0  0  0  0
  -25.9044  -34.9454   23.5108 C   0  0  0  0  0  0
  -16.5342  -29.9088   23.6329 C   0  0  0  0  0  0
  -16.7262  -28.6503   23.0358 C   0  0  0  0  0  0
  -26.4482  -31.6594   25.0717 C   0  0  0  0  0  0
  -25.3735  -31.3708   26.1456 C   0  0  0  0  0  0
  -27.0318  -30.3029   24.6137 C   0  0  0  0  0  0
  -27.6054  -32.4320   25.7474 C   0  0  0  0  0  0
  -27.5575  -37.1805   24.8464 C   0  0  0  0  0  0
  -21.4158  -29.3041   22.3706 N   0  0  0  0  0  0
  -26.4289  -37.3778   23.9408 N   0  0  0  0  0  0
  -24.6781  -31.0667   22.0969 N   0  0  0  0  0  0
  -23.4184  -28.8181   23.3026 O   0  0  0  0  0  0
  -28.3898  -26.5906   20.1594 O   0  0  0  0  0  0
  -26.5618  -34.8913   22.4678 O   0  0  0  0  0  0
  -23.5386  -32.1400   23.7404 O   0  0  0  0  0  0
  -29.3379  -23.4340   20.7899 C   0  0  0  0  0  0
  -27.4712  -23.1113   19.3046 C   0  0  0  0  0  0
  -28.4285  -23.9918   19.8566 C   0  0  0  0  0  0
  -29.2972  -22.0541   21.1588 C   0  0  0  0  0  0
  -27.4188  -21.7356   19.6569 C   0  0  0  0  0  0
  -28.3365  -21.1698   20.5848 C   0  0  0  0  0  0
  -29.1320  -17.9384   19.5825 C   0  0  0  0  0  0
  -28.9764  -17.6700   22.0154 C   0  0  0  0  0  0
  -30.1323  -16.7460   19.5567 C   0  0  0  0  0  0
  -29.9331  -16.4333   21.9382 C   0  0  0  0  0  0
  -29.1891  -18.7312   20.9024 C   0  0  0  0  0  0
  -30.2832  -21.5664   22.2072 C   0  0  0  0  0  0
  -26.3534  -20.8672   19.0057 C   0  0  0  0  0  0
  -28.5816  -25.4368   19.2902 C   0  0  0  0  0  0
  -29.9455  -15.7363   20.6321 N   0  0  0  0  0  0
  -28.1661  -19.8043   20.9623 N   0  0  0  0  0  0
  -31.4635  -12.4446   19.1585 H   0  0  0  0  0  0
  -30.3169  -11.3700   19.9059 H   0  0  0  0  0  0
  -29.7563  -11.7417   17.4773 H   0  0  0  0  0  0
  -29.6571  -13.4638   17.7472 H   0  0  0  0  0  0
  -27.8485  -11.2972   18.8627 H   0  0  0  0  0  0
  -27.3700  -12.5862   17.7914 H   0  0  0  0  0  0
  -27.6653  -14.2598   19.5186 H   0  0  0  0  0  0
  -28.6879  -12.0915   21.4150 H   0  0  0  0  0  0
  -28.4534  -13.7749   21.8138 H   0  0  0  0  0  0
  -25.2766   -9.5687   22.4750 H   0  0  0  0  0  0
  -24.0018   -7.4628   22.7462 H   0  0  0  0  0  0
  -21.0857   -8.8760   19.8958 H   0  0  0  0  0  0
  -22.3706  -10.9660   19.6149 H   0  0  0  0  0  0
  -21.1978   -7.6147   23.9734 H   0  0  0  0  0  0
  -21.1500   -6.0522   25.9085 H   0  0  0  0  0  0
  -22.0594   -2.7620   23.2843 H   0  0  0  0  0  0
  -22.4094  -11.9879   22.4799 H   0  0  0  0  0  0
  -21.1079  -13.1227   22.2639 H   0  0  0  0  0  0
  -24.6600  -15.8486   20.5160 H   0  0  0  0  0  0
  -26.2850  -15.6277   20.1069 H   0  0  0  0  0  0
  -26.7147  -32.5469   23.1115 H   0  0  0  0  0  0
  -25.0043  -33.9741   25.0420 H   0  0  0  0  0  0
  -22.7044  -31.3044   21.4032 H   0  0  0  0  0  0
  -23.3740  -35.9644   23.3309 H   0  0  0  0  0  0
  -24.3581  -36.8916   22.2057 H   0  0  0  0  0  0
  -23.7249  -37.6508   23.6660 H   0  0  0  0  0  0
  -26.0686  -31.5693   20.5967 H   0  0  0  0  0  0
  -26.8314  -30.8591   21.9894 H   0  0  0  0  0  0
  -28.0995  -29.0265   21.1863 H   0  0  0  0  0  0
  -25.9919  -25.9220   19.0409 H   0  0  0  0  0  0
  -23.9713  -27.2890   19.0330 H   0  0  0  0  0  0
  -23.7321  -30.5886   19.4001 H   0  0  0  0  0  0
  -22.7445  -29.2368   19.8653 H   0  0  0  0  0  0
  -25.1294  -36.1942   25.0823 H   0  0  0  0  0  0
  -20.9969  -28.3243   24.1421 H   0  0  0  0  0  0
  -20.5660  -26.2284   23.3611 H   0  0  0  0  0  0
  -21.6631  -26.7439   22.1212 H   0  0  0  0  0  0
  -19.6895  -25.6301   21.1240 H   0  0  0  0  0  0
  -19.6673  -27.3206   20.6755 H   0  0  0  0  0  0
  -17.4188  -26.6688   21.4031 H   0  0  0  0  0  0
  -18.0316  -26.0067   22.9019 H   0  0  0  0  0  0
  -19.7924  -30.7269   24.2289 H   0  0  0  0  0  0
  -17.5000  -31.6268   24.5171 H   0  0  0  0  0  0
  -15.5345  -30.2993   23.7644 H   0  0  0  0  0  0
  -15.8662  -28.0823   22.7072 H   0  0  0  0  0  0
  -24.5905  -30.7063   25.7781 H   0  0  0  0  0  0
  -24.8929  -32.2861   26.4922 H   0  0  0  0  0  0
  -25.8075  -30.8855   27.0208 H   0  0  0  0  0  0
  -26.2869  -29.6782   24.1192 H   0  0  0  0  0  0
  -27.4067  -29.7284   25.4619 H   0  0  0  0  0  0
  -27.8713  -30.4334   23.9304 H   0  0  0  0  0  0
  -27.2684  -33.3621   26.2061 H   0  0  0  0  0  0
  -28.3852  -32.6883   25.0289 H   0  0  0  0  0  0
  -28.0737  -31.8438   26.5378 H   0  0  0  0  0  0
  -28.2602  -38.0096   24.7505 H   0  0  0  0  0  0
  -28.1062  -36.2626   24.6294 H   0  0  0  0  0  0
  -27.2292  -37.1459   25.8868 H   0  0  0  0  0  0
  -20.9322  -29.8759   21.6921 H   0  0  0  0  0  0
  -26.0169  -38.2852   24.1408 H   0  0  0  0  0  0
  -30.0974  -24.0756   21.2148 H   0  0  0  0  0  0
  -26.7802  -23.4945   18.5671 H   0  0  0  0  0  0
  -28.1232  -17.5565   19.4187 H   0  0  0  0  0  0
  -29.3447  -18.6063   18.7464 H   0  0  0  0  0  0
  -29.0913  -18.1450   22.9912 H   0  0  0  0  0  0
  -27.9471  -17.3087   21.9797 H   0  0  0  0  0  0
  -31.1487  -17.1421   19.6165 H   0  0  0  0  0  0
  -30.0571  -16.2536   18.5852 H   0  0  0  0  0  0
  -29.6612  -15.7247   22.7221 H   0  0  0  0  0  0
  -30.9496  -16.7561   22.1697 H   0  0  0  0  0  0
  -30.1834  -19.1636   21.0083 H   0  0  0  0  0  0
  -30.6113  -22.3852   22.8477 H   0  0  0  0  0  0
  -31.1629  -21.1372   21.7276 H   0  0  0  0  0  0
  -29.8347  -20.8110   22.8540 H   0  0  0  0  0  0
  -25.8385  -21.3939   18.2023 H   0  0  0  0  0  0
  -25.6071  -20.5655   19.7405 H   0  0  0  0  0  0
  -26.7993  -19.9704   18.5752 H   0  0  0  0  0  0
  -28.0181  -25.5365   18.3623 H   0  0  0  0  0  0
  -29.6182  -25.5053   18.9600 H   0  0  0  0  0  0
  -27.2406  -19.4558   20.7356 H   0  0  0  0  0  0
  1 25  1  0  0  0
  1 30  2  0  0  0
  1 85  1  0  0  0
  2  3  1  0  0  0
  2 25  1  0  0  0
  2 87  1  0  0  0
  2 88  1  0  0  0
  3  4  1  0  0  0
  3 89  1  0  0  0
  3 90  1  0  0  0
  4  5  1  0  0  0
  4 91  1  0  0  0
  4 92  1  0  0  0
  5  6  1  0  0  0
  5 26  1  0  0  0
  5 93  1  0  0  0
  6 25  1  0  0  0
  6 94  1  0  0  0
  6 95  1  0  0  0
  7  8  2  0  0  0
  7 26  1  0  0  0
  7 29  1  0  0  0
  8  9  1  0  0  0
  8 22  1  0  0  0
  9 10  1  0  0  0
  9 27  2  0  0  0
 10 11  2  0  0  0
 10 15  1  0  0  0
 11 12  1  0  0  0
 11 96  1  0  0  0
 12 13  2  0  0  0
 12 97  1  0  0  0
 13 14  1  0  0  0
 13 31  1  0  0  0
 14 15  2  0  0  0
 14 98  1  0  0  0
 15 99  1  0  0  0
 16 17  2  0  0  0
 16 21  1  0  0  0
 16 31  1  0  0  0
 17 18  1  0  0  0
 17100  1  0  0  0
 18 19  2  0  0  0
 18101  1  0  0  0
 19 20  1  0  0  0
 19 24  1  0  0  0
 20 21  2  0  0  0
 20102  1  0  0  0
 21 23  1  0  0  0
 22 28  1  0  0  0
 22 32  2  0  0  0
 26 27  1  0  0  0
 28103  1  0  0  0
 28104  1  0  0  0
 29105  1  0  0  0
 29106  1  0  0  0
 33 34  1  0  0  0
 33 66  1  0  0  0
 33 70  2  0  0  0
 34 36  1  0  0  0
 34 59  1  0  0  0
 34107  1  0  0  0
 35 44  2  0  0  0
 35 45  1  0  0  0
 35 68  1  0  0  0
 36 56  1  0  0  0
 36108  1  0  0  0
 37 39  1  0  0  0
 37 47  1  0  0  0
 37 66  1  0  0  0
 37109  1  0  0  0
 38 43  2  0  0  0
 38 46  1  0  0  0
 38 47  1  0  0  0
 39 64  1  0  0  0
 39 67  2  0  0  0
 40 52  1  0  0  0
 40 53  2  0  0  0
 40 58  1  0  0  0
 41110  1  0  0  0
 41111  1  0  0  0
 41112  1  0  0  0
 41 48  1  0  0  0
 42 43  1  0  0  0
 42 66  1  0  0  0
 42113  1  0  0  0
 42114  1  0  0  0
 43 44  1  0  0  0
 44115  1  0  0  0
 45 46  2  0  0  0
 45116  1  0  0  0
 46117  1  0  0  0
 47118  1  0  0  0
 47119  1  0  0  0
 48 56  1  0  0  0
 48 65  1  0  0  0
 48120  1  0  0  0
 49 50  1  0  0  0
 49 53  1  0  0  0
 49 64  1  0  0  0
 49121  1  0  0  0
 50 51  1  0  0  0
 50122  1  0  0  0
 50123  1  0  0  0
 51 52  1  0  0  0
 51124  1  0  0  0
 51125  1  0  0  0
 52126  1  0  0  0
 52127  1  0  0  0
 53 54  1  0  0  0
 54 55  2  0  0  0
 54128  1  0  0  0
 55 57  1  0  0  0
 55129  1  0  0  0
 56 69  2  0  0  0
 57 58  2  0  0  0
 57130  1  0  0  0
 58131  1  0  0  0
 59 60  1  0  0  0
 59 61  1  0  0  0
 59 62  1  0  0  0
 60132  1  0  0  0
 60133  1  0  0  0
 60134  1  0  0  0
 61135  1  0  0  0
 61136  1  0  0  0
 61137  1  0  0  0
 62138  1  0  0  0
 62139  1  0  0  0
 62140  1  0  0  0
 63 65  1  0  0  0
 63141  1  0  0  0
 63142  1  0  0  0
 63143  1  0  0  0
 64144  1  0  0  0
 65145  1  0  0  0
 68 84  1  0  0  0
 71 73  2  0  0  0
 71 74  1  0  0  0
 71146  1  0  0  0
 72 73  1  0  0  0
 72 75  2  0  0  0
 72147  1  0  0  0
 73 84  1  0  0  0
 74 76  2  0  0  0
 74 82  1  0  0  0
 75 76  1  0  0  0
 75 83  1  0  0  0
 76 86  1  0  0  0
 77 79  1  0  0  0
 77 81  1  0  0  0
 77148  1  0  0  0
 77149  1  0  0  0
 78 80  1  0  0  0
 78 81  1  0  0  0
 78150  1  0  0  0
 78151  1  0  0  0
 79 85  1  0  0  0
 79152  1  0  0  0
 79153  1  0  0  0
 80 85  1  0  0  0
 80154  1  0  0  0
 80155  1  0  0  0
 81 86  1  0  0  0
 81156  1  0  0  0
 82157  1  0  0  0
 82158  1  0  0  0
 82159  1  0  0  0
 83160  1  0  0  0
 83161  1  0  0  0
 83162  1  0  0  0
 84163  1  0  0  0
 84164  1  0  0  0
 86165  1  0  0  0
M  ISO  4   1 100  68 101  84 101  85 100
M  END
> <chiral flag>
0

> <version>
0

> <s_m_source_file>
/data/baiqing/PycharmProjects/Reinvent-master-3.2/result/LINK_invent/BTK/process_docking_weight1_custom_sum_contain_oxygen_bond_distance_aromatic_linkinvent_7_9_3/rearranged_h_0147.sdf

> <i_m_source_file_index>
38

> <r_mmod_Potential_Energy-OPLS-2005>
186.229919433594

> <r_mmod_Stretch_Energy-OPLS-2005>
60.116397857666

> <r_mmod_Bend_Energy-OPLS-2005>
148.548645019531

> <r_mmod_Torsional_Energy-OPLS-2005>
332.867431640625

> <r_mmod_Improper_Torsional_Energy-OPLS-2005>
18.5239295959473

> <r_mmod_Van_der_Waal_Energy-OPLS-2005>
144.977844238281

> <r_mmod_Electrostatic_Energy-OPLS-2005>
-358.678955078125

> <r_mmod_Solvation_Energy-OPLS-2005>
-193.867126464844

> <b_mmod_Minimization_Converged-OPLS-2005>
0

> <r_mmod_RMS_Derivative-OPLS-2005>
1.33825528621674

$$$$
38
                    3D
 Structure written by MMmdl.
169179  0  0  1  0            999 V2000
  -30.7701  -14.4206   20.6540 C   0  0  0  0  0  0
  -30.4108  -12.3043   19.4343 C   0  0  0  0  0  0
  -29.4926  -12.5263   18.2192 C   0  0  0  0  0  0
  -28.0154  -12.3624   18.6208 C   0  0  0  0  0  0
  -27.6587  -13.1993   19.8755 C   0  0  2  0  0  0
  -28.6971  -12.9889   21.0067 C   0  0  0  0  0  0
  -25.2555  -13.8168   20.5693 C   0  0  0  0  0  0
  -24.1829  -13.0443   20.9210 C   0  0  0  0  0  0
  -24.6399  -11.6915   20.8774 C   0  0  0  0  0  0
  -23.9097  -10.4300   21.0440 C   0  0  0  0  0  0
  -24.3662   -9.4225   21.9219 C   0  0  0  0  0  0
  -23.6344   -8.2257   22.0780 C   0  0  0  0  0  0
  -22.4319   -8.0301   21.3574 C   0  0  0  0  0  0
  -21.9958   -9.0268   20.4647 C   0  0  0  0  0  0
  -22.7285  -10.2147   20.3067 C   0  0  0  0  0  0
  -21.6875   -6.0766   22.5310 C   0  0  0  0  0  0
  -21.4016   -6.5671   23.8245 C   0  0  0  0  0  0
  -21.3632   -5.6807   24.9189 C   0  0  0  0  0  0
  -21.6028   -4.3078   24.7215 C   0  0  0  0  0  0
  -21.8838   -3.8173   23.4341 C   0  0  0  0  0  0
  -21.9214   -4.6993   22.3402 C   0  0  0  0  0  0
  -22.7832  -13.5225   21.1842 C   0  0  0  0  0  0
  -22.1684   -4.2196   21.0971 F   0  0  0  0  0  0
  -21.5603   -3.4542   25.7706 F   0  0  0  0  0  0
  -30.0385  -13.2825   20.4723 N   0  0  0  0  0  0
  -26.2995  -12.9326   20.3352 N   0  0  0  0  0  0
  -25.9309  -11.6496   20.5789 N   0  0  0  0  0  0
  -22.0464  -12.8215   22.0378 N   0  0  0  0  0  0
  -25.4202  -15.1904   20.4071 N   0  0  0  0  0  0
  -31.8353  -14.6008   20.0524 O   0  0  0  0  0  0
  -21.6671   -6.8910   21.4280 O   0  0  0  0  0  0
  -22.3516  -14.5520   20.6665 O   0  0  0  0  0  0
  -24.6049  -31.8712   23.2115 C   0  0  0  0  0  0
  -25.8980  -32.4837   23.8390 C   0  0  1  0  0  0
  -27.2481  -27.4871   20.1074 C   0  0  0  0  0  0
  -25.5883  -33.8634   24.2336 N   0  0  0  0  0  0
  -23.3888  -30.4909   21.5520 C   0  0  2  0  0  0
  -24.8389  -28.9591   20.1201 C   0  0  0  0  0  0
  -22.7341  -29.4658   22.5031 C   0  0  0  0  0  0
  -18.0256  -28.1355   22.8500 C   0  0  0  0  0  0
  -24.1490  -36.7317   23.2635 C   0  0  0  0  0  0
  -25.9061  -30.8603   21.3490 C   0  0  0  0  0  0
  -25.9906  -29.4931   20.7100 C   0  0  0  0  0  0
  -27.1965  -28.7682   20.7008 C   0  0  0  0  0  0
  -26.0865  -26.9642   19.5024 C   0  0  0  0  0  0
  -24.8796  -27.6898   19.5146 C   0  0  0  0  0  0
  -23.5916  -29.8119   20.1693 C   0  0  0  0  0  0
  -25.4109  -36.3118   24.0337 C   0  0  1  0  0  0
  -20.5833  -28.3620   23.1364 C   0  0  2  0  0  0
  -20.6735  -26.9358   22.5445 C   0  0  0  0  0  0
  -19.5733  -26.6367   21.5211 C   0  0  0  0  0  0
  -18.1901  -26.7919   22.1600 C   0  0  0  0  0  0
  -19.1500  -28.8804   23.2924 C   0  0  0  0  0  0
  -18.9426  -30.1429   23.8902 C   0  0  0  0  0  0
  -17.6428  -30.6576   24.0558 C   0  0  0  0  0  0
  -25.9031  -34.9481   23.5126 C   0  0  0  0  0  0
  -16.5320  -29.9074   23.6326 C   0  0  0  0  0  0
  -16.7246  -28.6489   23.0347 C   0  0  0  0  0  0
  -26.4447  -31.6594   25.0692 C   0  0  0  0  0  0
  -25.3728  -31.3653   26.1440 C   0  0  0  0  0  0
  -27.0289  -30.3061   24.5996 C   0  0  0  0  0  0
  -27.6029  -32.4296   25.7472 C   0  0  0  0  0  0
  -27.5585  -37.1811   24.8456 C   0  0  0  0  0  0
  -21.4074  -29.3001   22.3766 N   0  0  0  0  0  0
  -26.4292  -37.3806   23.9410 N   0  0  0  0  0  0
  -24.6513  -31.0875   22.0977 N   0  0  0  0  0  0
  -23.4150  -28.8212   23.3048 O   0  0  0  0  0  0
  -28.3951  -26.7337   20.0422 O   0  0  0  0  0  0
  -26.5590  -34.8923   22.4686 O   0  0  0  0  0  0
  -23.5263  -32.1420   23.7574 O   0  0  0  0  0  0
  -30.1221  -21.3018   22.8915 C   0  0  0  0  0  0
  -29.9491  -22.6705   22.6111 C   0  0  0  0  0  0
  -29.5028  -20.7596   20.6076 C   0  0  0  0  0  0
  -29.3285  -22.1275   20.3134 C   0  0  0  0  0  0
  -29.9519  -20.3366   21.8819 C   0  0  0  0  0  0
  -29.5874  -23.0910   21.3094 C   0  0  0  0  0  0
  -28.9945  -21.7572   17.6928 C   0  0  0  0  0  0
  -29.9147  -22.9346   17.9117 C   0  0  0  0  0  0
  -31.8734  -17.2987   21.6348 C   0  0  0  0  0  0
  -29.5645  -17.3788   20.5383 C   0  0  0  0  0  0
  -31.3767  -16.0453   22.3979 C   0  0  0  0  0  0
  -29.2015  -16.1740   21.4271 C   0  0  0  0  0  0
  -28.8793  -22.5880   18.9534 C   0  0  0  0  0  0
  -30.7308  -18.2012   21.1245 C   0  0  0  0  0  0
  -29.2905  -26.7556   21.1579 C   0  0  0  0  0  0
  -29.2264  -25.4054   21.8798 C   0  0  0  0  0  0
  -30.3734  -15.3031   21.6111 N   0  0  0  0  0  0
  -30.2567  -19.0265   22.1904 O   0  0  0  0  0  0
  -29.5158  -24.4064   20.9151 O   0  0  0  0  0  0
  -31.4579  -12.3790   19.1353 H   0  0  0  0  0  0
  -30.2957  -11.2907   19.8231 H   0  0  0  0  0  0
  -29.7455  -11.8310   17.4192 H   0  0  0  0  0  0
  -29.6533  -13.5300   17.8225 H   0  0  0  0  0  0
  -27.8296  -11.3034   18.8084 H   0  0  0  0  0  0
  -27.3670  -12.6421   17.7891 H   0  0  0  0  0  0
  -27.6963  -14.2362   19.5502 H   0  0  0  0  0  0
  -28.6646  -11.9575   21.3572 H   0  0  0  0  0  0
  -28.4473  -13.5898   21.8810 H   0  0  0  0  0  0
  -25.2822   -9.5694   22.4787 H   0  0  0  0  0  0
  -24.0058   -7.4650   22.7498 H   0  0  0  0  0  0
  -21.0909   -8.8801   19.8932 H   0  0  0  0  0  0
  -22.3795  -10.9699   19.6156 H   0  0  0  0  0  0
  -21.2052   -7.6185   23.9755 H   0  0  0  0  0  0
  -21.1404   -6.0528   25.9087 H   0  0  0  0  0  0
  -22.0646   -2.7645   23.2825 H   0  0  0  0  0  0
  -22.4120  -11.9931   22.4827 H   0  0  0  0  0  0
  -21.1024  -13.1160   22.2459 H   0  0  0  0  0  0
  -24.6467  -15.8337   20.5397 H   0  0  0  0  0  0
  -26.2485  -15.6383   20.0347 H   0  0  0  0  0  0
  -26.7054  -32.5577   23.1170 H   0  0  0  0  0  0
  -25.0090  -33.9812   25.0518 H   0  0  0  0  0  0
  -22.6725  -31.3037   21.4129 H   0  0  0  0  0  0
  -23.3767  -35.9633   23.3276 H   0  0  0  0  0  0
  -24.3583  -36.8967   22.2056 H   0  0  0  0  0  0
  -23.7226  -37.6498   23.6682 H   0  0  0  0  0  0
  -25.9930  -31.6219   20.5738 H   0  0  0  0  0  0
  -26.8021  -30.9289   21.9530 H   0  0  0  0  0  0
  -28.0787  -29.2198   21.1283 H   0  0  0  0  0  0
  -26.1182  -25.9932   19.0267 H   0  0  0  0  0  0
  -23.9947  -27.2721   19.0544 H   0  0  0  0  0  0
  -23.6795  -30.5778   19.3975 H   0  0  0  0  0  0
  -22.7212  -29.2161   19.8883 H   0  0  0  0  0  0
  -25.1273  -36.1985   25.0825 H   0  0  0  0  0  0
  -20.9923  -28.3184   24.1488 H   0  0  0  0  0  0
  -20.5621  -26.2203   23.3609 H   0  0  0  0  0  0
  -21.6623  -26.7414   22.1265 H   0  0  0  0  0  0
  -19.6897  -25.6290   21.1210 H   0  0  0  0  0  0
  -19.6697  -27.3181   20.6742 H   0  0  0  0  0  0
  -17.4190  -26.6713   21.3967 H   0  0  0  0  0  0
  -18.0256  -26.0031   22.8955 H   0  0  0  0  0  0
  -19.7903  -30.7245   24.2263 H   0  0  0  0  0  0
  -17.4990  -31.6258   24.5161 H   0  0  0  0  0  0
  -15.5319  -30.2970   23.7660 H   0  0  0  0  0  0
  -15.8643  -28.0811   22.7054 H   0  0  0  0  0  0
  -24.5953  -30.6928   25.7792 H   0  0  0  0  0  0
  -24.8839  -32.2778   26.4855 H   0  0  0  0  0  0
  -25.8111  -30.8877   27.0212 H   0  0  0  0  0  0
  -26.2813  -29.6820   24.1079 H   0  0  0  0  0  0
  -27.4137  -29.7285   25.4415 H   0  0  0  0  0  0
  -27.8605  -30.4422   23.9076 H   0  0  0  0  0  0
  -27.2649  -33.3572   26.2100 H   0  0  0  0  0  0
  -28.3831  -32.6879   25.0302 H   0  0  0  0  0  0
  -28.0697  -31.8370   26.5350 H   0  0  0  0  0  0
  -28.2598  -38.0120   24.7542 H   0  0  0  0  0  0
  -28.1095  -36.2656   24.6241 H   0  0  0  0  0  0
  -27.2302  -37.1411   25.8858 H   0  0  0  0  0  0
  -20.9192  -29.8713   21.7004 H   0  0  0  0  0  0
  -26.0179  -38.2874   24.1451 H   0  0  0  0  0  0
  -30.4349  -20.9938   23.8800 H   0  0  0  0  0  0
  -30.1470  -23.3761   23.4037 H   0  0  0  0  0  0
  -29.3045  -20.0426   19.8286 H   0  0  0  0  0  0
  -29.4313  -20.7619   17.7483 H   0  0  0  0  0  0
  -28.2306  -21.8879   16.9274 H   0  0  0  0  0  0
  -29.7436  -23.8253   17.3109 H   0  0  0  0  0  0
  -30.9551  -22.7177   18.1437 H   0  0  0  0  0  0
  -32.4612  -16.9791   20.7748 H   0  0  0  0  0  0
  -32.5626  -17.8777   22.2504 H   0  0  0  0  0  0
  -28.6845  -18.0068   20.4028 H   0  0  0  0  0  0
  -29.8415  -17.0339   19.5415 H   0  0  0  0  0  0
  -30.9493  -16.3494   23.3546 H   0  0  0  0  0  0
  -32.2228  -15.3986   22.6425 H   0  0  0  0  0  0
  -28.3570  -15.6572   20.9911 H   0  0  0  0  0  0
  -28.8504  -16.5263   22.3986 H   0  0  0  0  0  0
  -28.0146  -23.2467   19.0370 H   0  0  0  0  0  0
  -31.1690  -18.8229   20.3429 H   0  0  0  0  0  0
  -30.3002  -26.9262   20.7850 H   0  0  0  0  0  0
  -29.0971  -27.5383   21.8882 H   0  0  0  0  0  0
  -28.2352  -25.2420   22.3043 H   0  0  0  0  0  0
  -29.9521  -25.4095   22.6926 H   0  0  0  0  0  0
  1 25  1  0  0  0
  1 30  2  0  0  0
  1 87  1  0  0  0
  2  3  1  0  0  0
  2 25  1  0  0  0
  2 90  1  0  0  0
  2 91  1  0  0  0
  3  4  1  0  0  0
  3 92  1  0  0  0
  3 93  1  0  0  0
  4  5  1  0  0  0
  4 94  1  0  0  0
  4 95  1  0  0  0
  5  6  1  0  0  0
  5 26  1  0  0  0
  5 96  1  0  0  0
  6 25  1  0  0  0
  6 97  1  0  0  0
  6 98  1  0  0  0
  7  8  2  0  0  0
  7 26  1  0  0  0
  7 29  1  0  0  0
  8  9  1  0  0  0
  8 22  1  0  0  0
  9 10  1  0  0  0
  9 27  2  0  0  0
 10 11  2  0  0  0
 10 15  1  0  0  0
 11 12  1  0  0  0
 11 99  1  0  0  0
 12 13  2  0  0  0
 12100  1  0  0  0
 13 14  1  0  0  0
 13 31  1  0  0  0
 14 15  2  0  0  0
 14101  1  0  0  0
 15102  1  0  0  0
 16 17  2  0  0  0
 16 21  1  0  0  0
 16 31  1  0  0  0
 17 18  1  0  0  0
 17103  1  0  0  0
 18 19  2  0  0  0
 18104  1  0  0  0
 19 20  1  0  0  0
 19 24  1  0  0  0
 20 21  2  0  0  0
 20105  1  0  0  0
 21 23  1  0  0  0
 22 28  1  0  0  0
 22 32  2  0  0  0
 26 27  1  0  0  0
 28106  1  0  0  0
 28107  1  0  0  0
 29108  1  0  0  0
 29109  1  0  0  0
 33 34  1  0  0  0
 33 66  1  0  0  0
 33 70  2  0  0  0
 34 36  1  0  0  0
 34 59  1  0  0  0
 34110  1  0  0  0
 35 44  2  0  0  0
 35 45  1  0  0  0
 35 68  1  0  0  0
 36 56  1  0  0  0
 36111  1  0  0  0
 37 39  1  0  0  0
 37 47  1  0  0  0
 37 66  1  0  0  0
 37112  1  0  0  0
 38 43  2  0  0  0
 38 46  1  0  0  0
 38 47  1  0  0  0
 39 64  1  0  0  0
 39 67  2  0  0  0
 40 52  1  0  0  0
 40 53  2  0  0  0
 40 58  1  0  0  0
 41113  1  0  0  0
 41114  1  0  0  0
 41115  1  0  0  0
 41 48  1  0  0  0
 42 43  1  0  0  0
 42 66  1  0  0  0
 42116  1  0  0  0
 42117  1  0  0  0
 43 44  1  0  0  0
 44118  1  0  0  0
 45 46  2  0  0  0
 45119  1  0  0  0
 46120  1  0  0  0
 47121  1  0  0  0
 47122  1  0  0  0
 48 56  1  0  0  0
 48 65  1  0  0  0
 48123  1  0  0  0
 49 50  1  0  0  0
 49 53  1  0  0  0
 49 64  1  0  0  0
 49124  1  0  0  0
 50 51  1  0  0  0
 50125  1  0  0  0
 50126  1  0  0  0
 51 52  1  0  0  0
 51127  1  0  0  0
 51128  1  0  0  0
 52129  1  0  0  0
 52130  1  0  0  0
 53 54  1  0  0  0
 54 55  2  0  0  0
 54131  1  0  0  0
 55 57  1  0  0  0
 55132  1  0  0  0
 56 69  2  0  0  0
 57 58  2  0  0  0
 57133  1  0  0  0
 58134  1  0  0  0
 59 60  1  0  0  0
 59 61  1  0  0  0
 59 62  1  0  0  0
 60135  1  0  0  0
 60136  1  0  0  0
 60137  1  0  0  0
 61138  1  0  0  0
 61139  1  0  0  0
 61140  1  0  0  0
 62141  1  0  0  0
 62142  1  0  0  0
 62143  1  0  0  0
 63 65  1  0  0  0
 63144  1  0  0  0
 63145  1  0  0  0
 63146  1  0  0  0
 64147  1  0  0  0
 65148  1  0  0  0
 68 85  1  0  0  0
 71 72  2  0  0  0
 71 75  1  0  0  0
 71149  1  0  0  0
 72 76  1  0  0  0
 72150  1  0  0  0
 73 74  1  0  0  0
 73 75  2  0  0  0
 73151  1  0  0  0
 74 76  2  0  0  0
 74 83  1  0  0  0
 75 88  1  0  0  0
 76 89  1  0  0  0
 77 78  1  0  0  0
 77 83  1  0  0  0
 77152  1  0  0  0
 77153  1  0  0  0
 78 83  1  0  0  0
 78154  1  0  0  0
 78155  1  0  0  0
 79 81  1  0  0  0
 79 84  1  0  0  0
 79156  1  0  0  0
 79157  1  0  0  0
 80 82  1  0  0  0
 80 84  1  0  0  0
 80158  1  0  0  0
 80159  1  0  0  0
 81 87  1  0  0  0
 81160  1  0  0  0
 81161  1  0  0  0
 82 87  1  0  0  0
 82162  1  0  0  0
 82163  1  0  0  0
 83164  1  0  0  0
 84 88  1  0  0  0
 84165  1  0  0  0
 85 86  1  0  0  0
 85166  1  0  0  0
 85167  1  0  0  0
 86 89  1  0  0  0
 86168  1  0  0  0
 86169  1  0  0  0
M  ISO  4   1 100  68 101  85 101  87 100
M  END
> <chiral flag>
0

> <version>
0

> <s_m_source_file>
/data/baiqing/PycharmProjects/Reinvent-master-3.2/result/LINK_invent/BTK/process_docking_weight1_custom_sum_contain_oxygen_bond_distance_aromatic_linkinvent_7_9_3/rearranged_h_0147.sdf

> <i_m_source_file_index>
39

> <r_mmod_Potential_Energy-OPLS-2005>
193.763900756836

> <r_mmod_Stretch_Energy-OPLS-2005>
37.2222557067871

> <r_mmod_Bend_Energy-OPLS-2005>
120.702301025391

> <r_mmod_Torsional_Energy-OPLS-2005>
349.705749511719

> <r_mmod_Improper_Torsional_Energy-OPLS-2005>
6.27622604370117

> <r_mmod_Van_der_Waal_Energy-OPLS-2005>
172.115707397461

> <r_mmod_Electrostatic_Energy-OPLS-2005>
-293.53369140625

> <r_mmod_Solvation_Energy-OPLS-2005>
-206.375091552734

> <b_mmod_Minimization_Converged-OPLS-2005>
0

> <r_mmod_RMS_Derivative-OPLS-2005>
2.96824312210083

$$$$
39
                    3D
 Structure written by MMmdl.
170179  0  0  1  0            999 V2000
  -30.7186  -14.6197   20.5027 C   0  0  0  0  0  0
  -30.4092  -12.4009   19.4336 C   0  0  0  0  0  0
  -29.4835  -12.5033   18.2069 C   0  0  0  0  0  0
  -28.0101  -12.3507   18.6327 C   0  0  0  0  0  0
  -27.6456  -13.2205   19.8676 C   0  0  2  0  0  0
  -28.7068  -13.0742   20.9837 C   0  0  0  0  0  0
  -25.2509  -13.8172   20.5709 C   0  0  0  0  0  0
  -24.1787  -13.0433   20.9206 C   0  0  0  0  0  0
  -24.6368  -11.6908   20.8777 C   0  0  0  0  0  0
  -23.9042  -10.4292   21.0427 C   0  0  0  0  0  0
  -24.3596   -9.4208   21.9200 C   0  0  0  0  0  0
  -23.6280   -8.2240   22.0757 C   0  0  0  0  0  0
  -22.4266   -8.0279   21.3546 C   0  0  0  0  0  0
  -21.9896   -9.0254   20.4652 C   0  0  0  0  0  0
  -22.7218  -10.2137   20.3068 C   0  0  0  0  0  0
  -21.6849   -6.0731   22.5281 C   0  0  0  0  0  0
  -21.4012   -6.5634   23.8214 C   0  0  0  0  0  0
  -21.3663   -5.6787   24.9178 C   0  0  0  0  0  0
  -21.6046   -4.3051   24.7226 C   0  0  0  0  0  0
  -21.8815   -3.8140   23.4347 C   0  0  0  0  0  0
  -21.9186   -4.6957   22.3405 C   0  0  0  0  0  0
  -22.7817  -13.5243   21.1848 C   0  0  0  0  0  0
  -22.1660   -4.2142   21.0986 F   0  0  0  0  0  0
  -21.5629   -3.4539   25.7739 F   0  0  0  0  0  0
  -29.9882  -13.4596   20.3815 N   0  0  0  0  0  0
  -26.2954  -12.9372   20.3410 N   0  0  0  0  0  0
  -25.9307  -11.6518   20.5830 N   0  0  0  0  0  0
  -22.0443  -12.8264   22.0416 N   0  0  0  0  0  0
  -25.4156  -15.1888   20.4059 N   0  0  0  0  0  0
  -31.9162  -14.5720   20.2093 O   0  0  0  0  0  0
  -21.6630   -6.8878   21.4245 O   0  0  0  0  0  0
  -22.3522  -14.5557   20.6696 O   0  0  0  0  0  0
  -24.6204  -31.8630   23.2069 C   0  0  0  0  0  0
  -25.9075  -32.4795   23.8382 C   0  0  1  0  0  0
  -27.2263  -27.3739   20.1058 C   0  0  0  0  0  0
  -25.5905  -33.8603   24.2309 N   0  0  0  0  0  0
  -23.4121  -30.4863   21.5482 C   0  0  2  0  0  0
  -24.8622  -28.9482   20.1099 C   0  0  0  0  0  0
  -22.7449  -29.4627   22.4959 C   0  0  0  0  0  0
  -18.0271  -28.1359   22.8485 C   0  0  0  0  0  0
  -24.1487  -36.7312   23.2640 C   0  0  0  0  0  0
  -25.9488  -30.8103   21.3706 C   0  0  0  0  0  0
  -26.0277  -29.4423   20.7119 C   0  0  0  0  0  0
  -27.2178  -28.6637   20.7056 C   0  0  0  0  0  0
  -26.0466  -26.9139   19.4898 C   0  0  0  0  0  0
  -24.8699  -27.6869   19.4919 C   0  0  0  0  0  0
  -23.6253  -29.8208   20.1629 C   0  0  0  0  0  0
  -25.4106  -36.3101   24.0331 C   0  0  1  0  0  0
  -20.5868  -28.3663   23.1295 C   0  0  2  0  0  0
  -20.6757  -26.9391   22.5412 C   0  0  0  0  0  0
  -19.5743  -26.6364   21.5206 C   0  0  0  0  0  0
  -18.1921  -26.7907   22.1612 C   0  0  0  0  0  0
  -19.1522  -28.8826   23.2888 C   0  0  0  0  0  0
  -18.9452  -30.1430   23.8899 C   0  0  0  0  0  0
  -17.6456  -30.6575   24.0548 C   0  0  0  0  0  0
  -25.9035  -34.9463   23.5118 C   0  0  0  0  0  0
  -16.5344  -29.9071   23.6320 C   0  0  0  0  0  0
  -16.7261  -28.6481   23.0355 C   0  0  0  0  0  0
  -26.4488  -31.6588   25.0732 C   0  0  0  0  0  0
  -25.3756  -31.3701   26.1485 C   0  0  0  0  0  0
  -27.0316  -30.3014   24.6151 C   0  0  0  0  0  0
  -27.6060  -32.4318   25.7496 C   0  0  0  0  0  0
  -27.5582  -37.1811   24.8464 C   0  0  0  0  0  0
  -21.4164  -29.3031   22.3708 N   0  0  0  0  0  0
  -26.4292  -37.3789   23.9409 N   0  0  0  0  0  0
  -24.6791  -31.0684   22.1000 N   0  0  0  0  0  0
  -23.4203  -28.8174   23.3022 O   0  0  0  0  0  0
  -28.3136  -26.5099   20.1392 O   0  0  0  0  0  0
  -26.5613  -34.8925   22.4693 O   0  0  0  0  0  0
  -23.5384  -32.1408   23.7432 O   0  0  0  0  0  0
  -28.4959  -23.2278   22.2006 C   0  0  0  0  0  0
  -29.0154  -21.8357   19.8521 C   0  0  0  0  0  0
  -28.5211  -23.9841   21.0040 C   0  0  0  0  0  0
  -28.7109  -21.8295   22.2413 C   0  0  0  0  0  0
  -28.7821  -23.2553   19.7985 C   0  0  0  0  0  0
  -28.9657  -21.0906   21.0643 C   0  0  0  0  0  0
  -30.3813  -18.2352   19.6054 C   0  0  0  0  0  0
  -28.1686  -17.5212   20.4997 C   0  0  0  0  0  0
  -30.9986  -17.1029   20.4724 C   0  0  0  0  0  0
  -28.8821  -16.3452   21.2527 C   0  0  0  0  0  0
  -29.0299  -18.7609   20.1232 C   0  0  0  0  0  0
  -28.6523  -21.1131   23.5791 C   0  0  0  0  0  0
  -28.3588  -23.1159   17.2621 C   0  0  0  0  0  0
  -30.2317  -24.5500   18.1888 C   0  0  0  0  0  0
  -28.2141  -25.5131   21.1992 C   0  0  0  0  0  0
  -28.8315  -23.9757   18.4494 C   0  0  0  0  0  0
  -30.1380  -15.8859   20.6069 N   0  0  0  0  0  0
  -29.1690  -19.7064   21.2121 O   0  0  0  0  0  0
  -31.4496  -12.4869   19.1162 H   0  0  0  0  0  0
  -30.3317  -11.4139   19.8916 H   0  0  0  0  0  0
  -29.7419  -11.7388   17.4729 H   0  0  0  0  0  0
  -29.6277  -13.4651   17.7121 H   0  0  0  0  0  0
  -27.8446  -11.2977   18.8637 H   0  0  0  0  0  0
  -27.3487  -12.5816   17.7971 H   0  0  0  0  0  0
  -27.6591  -14.2542   19.5230 H   0  0  0  0  0  0
  -28.7461  -12.0387   21.3253 H   0  0  0  0  0  0
  -28.4819  -13.6342   21.8881 H   0  0  0  0  0  0
  -25.2741   -9.5690   22.4777 H   0  0  0  0  0  0
  -23.9980   -7.4635   22.7483 H   0  0  0  0  0  0
  -21.0817   -8.8786   19.8974 H   0  0  0  0  0  0
  -22.3680  -10.9676   19.6179 H   0  0  0  0  0  0
  -21.2008   -7.6141   23.9722 H   0  0  0  0  0  0
  -21.1494   -6.0516   25.9084 H   0  0  0  0  0  0
  -22.0591   -2.7602   23.2846 H   0  0  0  0  0  0
  -22.4016  -11.9910   22.4804 H   0  0  0  0  0  0
  -21.1088  -13.1356   22.2634 H   0  0  0  0  0  0
  -24.6433  -15.8381   20.5115 H   0  0  0  0  0  0
  -26.2668  -15.6317   20.0888 H   0  0  0  0  0  0
  -26.7153  -32.5486   23.1145 H   0  0  0  0  0  0
  -25.0032  -33.9757   25.0441 H   0  0  0  0  0  0
  -22.7027  -31.3048   21.4080 H   0  0  0  0  0  0
  -23.3738  -35.9659   23.3310 H   0  0  0  0  0  0
  -24.3575  -36.8928   22.2053 H   0  0  0  0  0  0
  -23.7255  -37.6522   23.6659 H   0  0  0  0  0  0
  -26.0716  -31.5780   20.6050 H   0  0  0  0  0  0
  -26.8320  -30.8603   21.9952 H   0  0  0  0  0  0
  -28.1125  -29.0331   21.1872 H   0  0  0  0  0  0
  -26.0304  -25.9370   19.0279 H   0  0  0  0  0  0
  -23.9752  -27.3001   19.0231 H   0  0  0  0  0  0
  -23.7363  -30.5972   19.4058 H   0  0  0  0  0  0
  -22.7473  -29.2448   19.8648 H   0  0  0  0  0  0
  -25.1289  -36.1955   25.0824 H   0  0  0  0  0  0
  -20.9955  -28.3226   24.1417 H   0  0  0  0  0  0
  -20.5630  -26.2279   23.3606 H   0  0  0  0  0  0
  -21.6633  -26.7413   22.1225 H   0  0  0  0  0  0
  -19.6910  -25.6277   21.1232 H   0  0  0  0  0  0
  -19.6682  -27.3168   20.6732 H   0  0  0  0  0  0
  -17.4194  -26.6650   21.4009 H   0  0  0  0  0  0
  -18.0329  -26.0038   22.8997 H   0  0  0  0  0  0
  -19.7933  -30.7234   24.2277 H   0  0  0  0  0  0
  -17.5016  -31.6258   24.5145 H   0  0  0  0  0  0
  -15.5346  -30.2978   23.7644 H   0  0  0  0  0  0
  -15.8655  -28.0796   22.7083 H   0  0  0  0  0  0
  -24.5928  -30.7048   25.7825 H   0  0  0  0  0  0
  -24.8950  -32.2856   26.4944 H   0  0  0  0  0  0
  -25.8119  -30.8864   27.0236 H   0  0  0  0  0  0
  -26.2866  -29.6768   24.1206 H   0  0  0  0  0  0
  -27.4054  -29.7258   25.4629 H   0  0  0  0  0  0
  -27.8727  -30.4290   23.9330 H   0  0  0  0  0  0
  -27.2672  -33.3607   26.2092 H   0  0  0  0  0  0
  -28.3861  -32.6897   25.0324 H   0  0  0  0  0  0
  -28.0748  -31.8437   26.5396 H   0  0  0  0  0  0
  -28.2606  -38.0101   24.7496 H   0  0  0  0  0  0
  -28.1065  -36.2631   24.6296 H   0  0  0  0  0  0
  -27.2301  -37.1474   25.8867 H   0  0  0  0  0  0
  -20.9328  -29.8774   21.6940 H   0  0  0  0  0  0
  -26.0170  -38.2869   24.1398 H   0  0  0  0  0  0
  -28.2925  -23.7449   23.1284 H   0  0  0  0  0  0
  -29.2508  -21.3035   18.9442 H   0  0  0  0  0  0
  -30.2385  -17.8476   18.5959 H   0  0  0  0  0  0
  -31.0842  -19.0629   19.5080 H   0  0  0  0  0  0
  -27.2946  -17.8462   21.0645 H   0  0  0  0  0  0
  -27.7732  -17.1105   19.5698 H   0  0  0  0  0  0
  -31.2181  -17.4873   21.4696 H   0  0  0  0  0  0
  -31.9751  -16.8944   20.0352 H   0  0  0  0  0  0
  -28.1424  -15.5657   21.3588 H   0  0  0  0  0  0
  -29.1162  -16.6611   22.2704 H   0  0  0  0  0  0
  -28.5126  -19.2615   19.3052 H   0  0  0  0  0  0
  -28.4210  -21.7946   24.3978 H   0  0  0  0  0  0
  -29.6092  -20.6388   23.7976 H   0  0  0  0  0  0
  -27.8831  -20.3407   23.5617 H   0  0  0  0  0  0
  -27.3766  -22.6823   17.4556 H   0  0  0  0  0  0
  -29.0490  -22.3045   17.0321 H   0  0  0  0  0  0
  -28.2760  -23.7214   16.3593 H   0  0  0  0  0  0
  -30.5248  -25.2444   18.9769 H   0  0  0  0  0  0
  -30.2656  -25.0939   17.2446 H   0  0  0  0  0  0
  -30.9823  -23.7603   18.1457 H   0  0  0  0  0  0
  -28.8932  -25.8629   21.9786 H   0  0  0  0  0  0
  -27.2237  -25.5548   21.6579 H   0  0  0  0  0  0
  -28.1262  -24.8022   18.4893 H   0  0  0  0  0  0
  1 25  1  0  0  0
  1 30  2  0  0  0
  1 87  1  0  0  0
  2  3  1  0  0  0
  2 25  1  0  0  0
  2 89  1  0  0  0
  2 90  1  0  0  0
  3  4  1  0  0  0
  3 91  1  0  0  0
  3 92  1  0  0  0
  4  5  1  0  0  0
  4 93  1  0  0  0
  4 94  1  0  0  0
  5  6  1  0  0  0
  5 26  1  0  0  0
  5 95  1  0  0  0
  6 25  1  0  0  0
  6 96  1  0  0  0
  6 97  1  0  0  0
  7  8  2  0  0  0
  7 26  1  0  0  0
  7 29  1  0  0  0
  8  9  1  0  0  0
  8 22  1  0  0  0
  9 10  1  0  0  0
  9 27  2  0  0  0
 10 11  2  0  0  0
 10 15  1  0  0  0
 11 12  1  0  0  0
 11 98  1  0  0  0
 12 13  2  0  0  0
 12 99  1  0  0  0
 13 14  1  0  0  0
 13 31  1  0  0  0
 14 15  2  0  0  0
 14100  1  0  0  0
 15101  1  0  0  0
 16 17  2  0  0  0
 16 21  1  0  0  0
 16 31  1  0  0  0
 17 18  1  0  0  0
 17102  1  0  0  0
 18 19  2  0  0  0
 18103  1  0  0  0
 19 20  1  0  0  0
 19 24  1  0  0  0
 20 21  2  0  0  0
 20104  1  0  0  0
 21 23  1  0  0  0
 22 28  1  0  0  0
 22 32  2  0  0  0
 26 27  1  0  0  0
 28105  1  0  0  0
 28106  1  0  0  0
 29107  1  0  0  0
 29108  1  0  0  0
 33 34  1  0  0  0
 33 66  1  0  0  0
 33 70  2  0  0  0
 34 36  1  0  0  0
 34 59  1  0  0  0
 34109  1  0  0  0
 35 44  2  0  0  0
 35 45  1  0  0  0
 35 68  1  0  0  0
 36 56  1  0  0  0
 36110  1  0  0  0
 37 39  1  0  0  0
 37 47  1  0  0  0
 37 66  1  0  0  0
 37111  1  0  0  0
 38 43  2  0  0  0
 38 46  1  0  0  0
 38 47  1  0  0  0
 39 64  1  0  0  0
 39 67  2  0  0  0
 40 52  1  0  0  0
 40 53  2  0  0  0
 40 58  1  0  0  0
 41112  1  0  0  0
 41113  1  0  0  0
 41114  1  0  0  0
 41 48  1  0  0  0
 42 43  1  0  0  0
 42 66  1  0  0  0
 42115  1  0  0  0
 42116  1  0  0  0
 43 44  1  0  0  0
 44117  1  0  0  0
 45 46  2  0  0  0
 45118  1  0  0  0
 46119  1  0  0  0
 47120  1  0  0  0
 47121  1  0  0  0
 48 56  1  0  0  0
 48 65  1  0  0  0
 48122  1  0  0  0
 49 50  1  0  0  0
 49 53  1  0  0  0
 49 64  1  0  0  0
 49123  1  0  0  0
 50 51  1  0  0  0
 50124  1  0  0  0
 50125  1  0  0  0
 51 52  1  0  0  0
 51126  1  0  0  0
 51127  1  0  0  0
 52128  1  0  0  0
 52129  1  0  0  0
 53 54  1  0  0  0
 54 55  2  0  0  0
 54130  1  0  0  0
 55 57  1  0  0  0
 55131  1  0  0  0
 56 69  2  0  0  0
 57 58  2  0  0  0
 57132  1  0  0  0
 58133  1  0  0  0
 59 60  1  0  0  0
 59 61  1  0  0  0
 59 62  1  0  0  0
 60134  1  0  0  0
 60135  1  0  0  0
 60136  1  0  0  0
 61137  1  0  0  0
 61138  1  0  0  0
 61139  1  0  0  0
 62140  1  0  0  0
 62141  1  0  0  0
 62142  1  0  0  0
 63 65  1  0  0  0
 63143  1  0  0  0
 63144  1  0  0  0
 63145  1  0  0  0
 64146  1  0  0  0
 65147  1  0  0  0
 68 85  1  0  0  0
 71 73  2  0  0  0
 71 74  1  0  0  0
 71148  1  0  0  0
 72 75  2  0  0  0
 72 76  1  0  0  0
 72149  1  0  0  0
 73 75  1  0  0  0
 73 85  1  0  0  0
 74 76  2  0  0  0
 74 82  1  0  0  0
 75 86  1  0  0  0
 76 88  1  0  0  0
 77 79  1  0  0  0
 77 81  1  0  0  0
 77150  1  0  0  0
 77151  1  0  0  0
 78 80  1  0  0  0
 78 81  1  0  0  0
 78152  1  0  0  0
 78153  1  0  0  0
 79 87  1  0  0  0
 79154  1  0  0  0
 79155  1  0  0  0
 80 87  1  0  0  0
 80156  1  0  0  0
 80157  1  0  0  0
 81 88  1  0  0  0
 81158  1  0  0  0
 82159  1  0  0  0
 82160  1  0  0  0
 82161  1  0  0  0
 83162  1  0  0  0
 83163  1  0  0  0
 83164  1  0  0  0
 83 86  1  0  0  0
 84 86  1  0  0  0
 84165  1  0  0  0
 84166  1  0  0  0
 84167  1  0  0  0
 85168  1  0  0  0
 85169  1  0  0  0
 86170  1  0  0  0
M  ISO  4   1 100  68 101  85 101  87 100
M  END
> <chiral flag>
0

> <version>
0

> <s_m_source_file>
/data/baiqing/PycharmProjects/Reinvent-master-3.2/result/LINK_invent/BTK/process_docking_weight1_custom_sum_contain_oxygen_bond_distance_aromatic_linkinvent_7_9_3/rearranged_h_0147.sdf

> <i_m_source_file_index>
40

> <r_mmod_Potential_Energy-OPLS-2005>
316.697204589844

> <r_mmod_Stretch_Energy-OPLS-2005>
73.2141723632812

> <r_mmod_Bend_Energy-OPLS-2005>
197.274002075195

> <r_mmod_Torsional_Energy-OPLS-2005>
336.108428955078

> <r_mmod_Improper_Torsional_Energy-OPLS-2005>
9.80828094482422

> <r_mmod_Van_der_Waal_Energy-OPLS-2005>
158.18000793457

> <r_mmod_Electrostatic_Energy-OPLS-2005>
-311.858428955078

> <r_mmod_Solvation_Energy-OPLS-2005>
-190.527374267578

> <b_mmod_Minimization_Converged-OPLS-2005>
0

> <r_mmod_RMS_Derivative-OPLS-2005>
1.56483948230743

$$$$
40
                    3D
 Structure written by MMmdl.
156165  0  0  1  0            999 V2000
  -30.4334  -15.3267   20.3519 C   0  0  0  0  0  0
  -30.4382  -12.8312   19.5746 C   0  0  0  0  0  0
  -29.5592  -12.6080   18.3202 C   0  0  0  0  0  0
  -28.1044  -12.3144   18.7294 C   0  0  0  0  0  0
  -27.6112  -13.2960   19.8260 C   0  0  2  0  0  0
  -28.6346  -13.5157   20.9662 C   0  0  0  0  0  0
  -25.2332  -13.8307   20.5754 C   0  0  0  0  0  0
  -24.1694  -13.0429   20.9263 C   0  0  0  0  0  0
  -24.6411  -11.6967   20.8762 C   0  0  0  0  0  0
  -23.9151  -10.4292   21.0404 C   0  0  0  0  0  0
  -24.3686   -9.4197   21.9180 C   0  0  0  0  0  0
  -23.6314   -8.2248   22.0759 C   0  0  0  0  0  0
  -22.4287   -8.0312   21.3568 C   0  0  0  0  0  0
  -21.9957   -9.0291   20.4669 C   0  0  0  0  0  0
  -22.7322  -10.2157   20.3043 C   0  0  0  0  0  0
  -21.6850   -6.0742   22.5268 C   0  0  0  0  0  0
  -21.4058   -6.5646   23.8224 C   0  0  0  0  0  0
  -21.3673   -5.6799   24.9190 C   0  0  0  0  0  0
  -21.6049   -4.3056   24.7221 C   0  0  0  0  0  0
  -21.8810   -3.8149   23.4333 C   0  0  0  0  0  0
  -21.9191   -4.6965   22.3398 C   0  0  0  0  0  0
  -22.7720  -13.5185   21.1908 C   0  0  0  0  0  0
  -22.1638   -4.2165   21.0961 F   0  0  0  0  0  0
  -21.5605   -3.4543   25.7715 F   0  0  0  0  0  0
  -29.8747  -14.0063   20.3449 N   0  0  0  0  0  0
  -26.2805  -12.9629   20.3234 N   0  0  0  0  0  0
  -25.9361  -11.6724   20.5733 N   0  0  0  0  0  0
  -22.0429  -12.8125   22.0489 N   0  0  0  0  0  0
  -25.3824  -15.2046   20.4173 N   0  0  0  0  0  0
  -31.6578  -15.2860   20.1346 O   0  0  0  0  0  0
  -21.6654   -6.8892   21.4235 O   0  0  0  0  0  0
  -22.3406  -14.5478   20.6751 O   0  0  0  0  0  0
  -24.6712  -31.8195   23.1629 C   0  0  0  0  0  0
  -25.9433  -32.4527   23.8061 C   0  0  1  0  0  0
  -27.2120  -26.8812   20.1723 C   0  0  0  0  0  0
  -25.6078  -33.8350   24.1985 N   0  0  0  0  0  0
  -23.4741  -30.4339   21.5209 C   0  0  2  0  0  0
  -24.9173  -28.8054   20.1155 C   0  0  0  0  0  0
  -22.7622  -29.4495   22.4844 C   0  0  0  0  0  0
  -18.0284  -28.1396   22.8439 C   0  0  0  0  0  0
  -24.1450  -36.7104   23.2644 C   0  0  0  0  0  0
  -26.0454  -30.6117   21.3877 C   0  0  0  0  0  0
  -26.1095  -29.1950   20.7391 C   0  0  0  0  0  0
  -27.2491  -28.2602   20.7334 C   0  0  0  0  0  0
  -25.9836  -26.6469   19.5128 C   0  0  0  0  0  0
  -24.8865  -27.5529   19.4829 C   0  0  0  0  0  0
  -23.7016  -29.7401   20.1513 C   0  0  0  0  0  0
  -25.4100  -36.2876   24.0261 C   0  0  1  0  0  0
  -20.5891  -28.3751   23.1153 C   0  0  2  0  0  0
  -20.6732  -26.9430   22.5393 C   0  0  0  0  0  0
  -19.5762  -26.6393   21.5155 C   0  0  0  0  0  0
  -18.1939  -26.7910   22.1579 C   0  0  0  0  0  0
  -19.1551  -28.8897   23.2765 C   0  0  0  0  0  0
  -18.9496  -30.1453   23.8827 C   0  0  0  0  0  0
  -17.6509  -30.6600   24.0527 C   0  0  0  0  0  0
  -25.9133  -34.9309   23.4928 C   0  0  0  0  0  0
  -16.5375  -29.9084   23.6394 C   0  0  0  0  0  0
  -16.7261  -28.6491   23.0430 C   0  0  0  0  0  0
  -26.4742  -31.6477   25.0586 C   0  0  0  0  0  0
  -25.3926  -31.3729   26.1288 C   0  0  0  0  0  0
  -27.0601  -30.2798   24.6318 C   0  0  0  0  0  0
  -27.6163  -32.4362   25.7471 C   0  0  0  0  0  0
  -27.5505  -37.1663   24.8487 C   0  0  0  0  0  0
  -21.4314  -29.3017   22.3486 N   0  0  0  0  0  0
  -26.4192  -37.3665   23.9464 N   0  0  0  0  0  0
  -24.7531  -30.9829   22.0767 N   0  0  0  0  0  0
  -23.4146  -28.8141   23.3165 O   0  0  0  0  0  0
  -28.2475  -25.7858   20.1540 O   0  0  0  0  0  0
  -26.5768  -34.8882   22.4533 O   0  0  0  0  0  0
  -23.5817  -32.1265   23.6733 O   0  0  0  0  0  0
  -29.4515  -20.9731   20.0441 C   0  0  0  0  0  0
  -30.8186  -20.9597   19.7110 C   0  0  0  0  0  0
  -29.0212  -19.4920   20.2705 C   0  0  0  0  0  0
  -31.6524  -19.8073   19.7307 C   0  0  0  0  0  0
  -29.9373  -18.2202   20.2531 C   0  0  0  0  0  0
  -31.3144  -22.2808   19.1665 C   0  0  0  0  0  0
  -30.0848  -23.1919   18.9482 C   0  0  0  0  0  0
  -28.8445  -22.6152   19.6773 C   0  0  2  0  0  0
  -27.5277  -19.2472   20.4754 C   0  0  0  0  0  0
  -33.1359  -19.9295   19.3769 C   0  0  0  0  0  0
  -28.1611  -24.1299   20.4490 C   0  0  0  0  0  0
  -31.2309  -18.5428   20.0085 N   0  0  0  0  0  0
  -29.6702  -16.6184   20.4211 N   0  0  0  0  0  0
  -31.4756  -12.9927   19.2765 H   0  0  0  0  0  0
  -30.4550  -11.9332   20.1946 H   0  0  0  0  0  0
  -29.9544  -11.8042   17.7023 H   0  0  0  0  0  0
  -29.5980  -13.5100   17.7078 H   0  0  0  0  0  0
  -28.0667  -11.2937   19.1120 H   0  0  0  0  0  0
  -27.4542  -12.3423   17.8525 H   0  0  0  0  0  0
  -27.5174  -14.2546   19.3147 H   0  0  0  0  0  0
  -28.7924  -12.6171   21.5638 H   0  0  0  0  0  0
  -28.2649  -14.2780   21.6520 H   0  0  0  0  0  0
  -25.2834   -9.5637   22.4776 H   0  0  0  0  0  0
  -24.0008   -7.4650   22.7493 H   0  0  0  0  0  0
  -21.0878   -8.8853   19.9001 H   0  0  0  0  0  0
  -22.3801  -10.9707   19.6155 H   0  0  0  0  0  0
  -21.2093   -7.6162   23.9723 H   0  0  0  0  0  0
  -21.1504   -6.0541   25.9111 H   0  0  0  0  0  0
  -22.0567   -2.7595   23.2825 H   0  0  0  0  0  0
  -22.4119  -11.9845   22.4899 H   0  0  0  0  0  0
  -21.1079  -13.1190   22.2776 H   0  0  0  0  0  0
  -24.5774  -15.8187   20.4912 H   0  0  0  0  0  0
  -26.1760  -15.6546   19.9786 H   0  0  0  0  0  0
  -26.7451  -32.5034   23.0722 H   0  0  0  0  0  0
  -25.0081  -33.9470   25.0045 H   0  0  0  0  0  0
  -22.7930  -31.2708   21.3550 H   0  0  0  0  0  0
  -23.3742  -35.9408   23.3292 H   0  0  0  0  0  0
  -24.3456  -36.8807   22.2049 H   0  0  0  0  0  0
  -23.7222  -37.6263   23.6763 H   0  0  0  0  0  0
  -26.2261  -31.3509   20.6061 H   0  0  0  0  0  0
  -26.9073  -30.6678   22.0399 H   0  0  0  0  0  0
  -28.1525  -28.5790   21.2319 H   0  0  0  0  0  0
  -25.8463  -25.6951   19.0151 H   0  0  0  0  0  0
  -23.9826  -27.2539   18.9715 H   0  0  0  0  0  0
  -23.8345  -30.5120   19.3913 H   0  0  0  0  0  0
  -22.8031  -29.1939   19.8483 H   0  0  0  0  0  0
  -25.1312  -36.1530   25.0734 H   0  0  0  0  0  0
  -20.9994  -28.3339   24.1266 H   0  0  0  0  0  0
  -20.5547  -26.2396   23.3632 H   0  0  0  0  0  0
  -21.6619  -26.7367   22.1267 H   0  0  0  0  0  0
  -19.6971  -25.6331   21.1152 H   0  0  0  0  0  0
  -19.6666  -27.3236   20.6695 H   0  0  0  0  0  0
  -17.4190  -26.6622   21.3980 H   0  0  0  0  0  0
  -18.0351  -26.0057   22.8995 H   0  0  0  0  0  0
  -19.7997  -30.7228   24.2209 H   0  0  0  0  0  0
  -17.5107  -31.6314   24.5093 H   0  0  0  0  0  0
  -15.5401  -30.2989   23.7797 H   0  0  0  0  0  0
  -15.8626  -28.0760   22.7298 H   0  0  0  0  0  0
  -24.6168  -30.6999   25.7664 H   0  0  0  0  0  0
  -24.9131  -32.2939   26.4568 H   0  0  0  0  0  0
  -25.8282  -30.9052   27.0133 H   0  0  0  0  0  0
  -26.3264  -29.6530   24.1249 H   0  0  0  0  0  0
  -27.4023  -29.7073   25.4955 H   0  0  0  0  0  0
  -27.9258  -30.3896   23.9784 H   0  0  0  0  0  0
  -27.2636  -33.3744   26.1774 H   0  0  0  0  0  0
  -28.4160  -32.6825   25.0473 H   0  0  0  0  0  0
  -28.0633  -31.8697   26.5660 H   0  0  0  0  0  0
  -28.2535  -37.9950   24.7522 H   0  0  0  0  0  0
  -28.0981  -36.2481   24.6302 H   0  0  0  0  0  0
  -27.2230  -37.1277   25.8900 H   0  0  0  0  0  0
  -20.9627  -29.8448   21.6363 H   0  0  0  0  0  0
  -25.9969  -38.2664   24.1635 H   0  0  0  0  0  0
  -31.8236  -22.1041   18.2148 H   0  0  0  0  0  0
  -32.0498  -22.7241   19.8455 H   0  0  0  0  0  0
  -29.8592  -23.2446   17.8776 H   0  0  0  0  0  0
  -30.3057  -24.2175   19.2654 H   0  0  0  0  0  0
  -28.1060  -22.3901   18.9091 H   0  0  0  0  0  0
  -26.9375  -20.1324   20.2318 H   0  0  0  0  0  0
  -27.1765  -18.4365   19.8359 H   0  0  0  0  0  0
  -27.2994  -18.9718   21.5076 H   0  0  0  0  0  0
  -33.5670  -20.8419   19.7972 H   0  0  0  0  0  0
  -33.2729  -19.9575   18.2914 H   0  0  0  0  0  0
  -33.7267  -19.0948   19.7637 H   0  0  0  0  0  0
  -28.5646  -24.0919   21.4589 H   0  0  0  0  0  0
  -27.1050  -23.9115   20.6000 H   0  0  0  0  0  0
  -28.6950  -16.4430   20.6171 H   0  0  0  0  0  0
  1 25  1  0  0  0
  1 30  2  0  0  0
  1 83  1  0  0  0
  2  3  1  0  0  0
  2 25  1  0  0  0
  2 84  1  0  0  0
  2 85  1  0  0  0
  3  4  1  0  0  0
  3 86  1  0  0  0
  3 87  1  0  0  0
  4  5  1  0  0  0
  4 88  1  0  0  0
  4 89  1  0  0  0
  5  6  1  0  0  0
  5 26  1  0  0  0
  5 90  1  0  0  0
  6 25  1  0  0  0
  6 91  1  0  0  0
  6 92  1  0  0  0
  7  8  2  0  0  0
  7 26  1  0  0  0
  7 29  1  0  0  0
  8  9  1  0  0  0
  8 22  1  0  0  0
  9 10  1  0  0  0
  9 27  2  0  0  0
 10 11  2  0  0  0
 10 15  1  0  0  0
 11 12  1  0  0  0
 11 93  1  0  0  0
 12 13  2  0  0  0
 12 94  1  0  0  0
 13 14  1  0  0  0
 13 31  1  0  0  0
 14 15  2  0  0  0
 14 95  1  0  0  0
 15 96  1  0  0  0
 16 17  2  0  0  0
 16 21  1  0  0  0
 16 31  1  0  0  0
 17 18  1  0  0  0
 17 97  1  0  0  0
 18 19  2  0  0  0
 18 98  1  0  0  0
 19 20  1  0  0  0
 19 24  1  0  0  0
 20 21  2  0  0  0
 20 99  1  0  0  0
 21 23  1  0  0  0
 22 28  1  0  0  0
 22 32  2  0  0  0
 26 27  1  0  0  0
 28100  1  0  0  0
 28101  1  0  0  0
 29102  1  0  0  0
 29103  1  0  0  0
 33 34  1  0  0  0
 33 66  1  0  0  0
 33 70  2  0  0  0
 34 36  1  0  0  0
 34 59  1  0  0  0
 34104  1  0  0  0
 35 44  2  0  0  0
 35 45  1  0  0  0
 35 68  1  0  0  0
 36 56  1  0  0  0
 36105  1  0  0  0
 37 39  1  0  0  0
 37 47  1  0  0  0
 37 66  1  0  0  0
 37106  1  0  0  0
 38 43  2  0  0  0
 38 46  1  0  0  0
 38 47  1  0  0  0
 39 64  1  0  0  0
 39 67  2  0  0  0
 40 52  1  0  0  0
 40 53  2  0  0  0
 40 58  1  0  0  0
 41107  1  0  0  0
 41108  1  0  0  0
 41109  1  0  0  0
 41 48  1  0  0  0
 42 43  1  0  0  0
 42 66  1  0  0  0
 42110  1  0  0  0
 42111  1  0  0  0
 43 44  1  0  0  0
 44112  1  0  0  0
 45 46  2  0  0  0
 45113  1  0  0  0
 46114  1  0  0  0
 47115  1  0  0  0
 47116  1  0  0  0
 48 56  1  0  0  0
 48 65  1  0  0  0
 48117  1  0  0  0
 49 50  1  0  0  0
 49 53  1  0  0  0
 49 64  1  0  0  0
 49118  1  0  0  0
 50 51  1  0  0  0
 50119  1  0  0  0
 50120  1  0  0  0
 51 52  1  0  0  0
 51121  1  0  0  0
 51122  1  0  0  0
 52123  1  0  0  0
 52124  1  0  0  0
 53 54  1  0  0  0
 54 55  2  0  0  0
 54125  1  0  0  0
 55 57  1  0  0  0
 55126  1  0  0  0
 56 69  2  0  0  0
 57 58  2  0  0  0
 57127  1  0  0  0
 58128  1  0  0  0
 59 60  1  0  0  0
 59 61  1  0  0  0
 59 62  1  0  0  0
 60129  1  0  0  0
 60130  1  0  0  0
 60131  1  0  0  0
 61132  1  0  0  0
 61133  1  0  0  0
 61134  1  0  0  0
 62135  1  0  0  0
 62136  1  0  0  0
 62137  1  0  0  0
 63 65  1  0  0  0
 63138  1  0  0  0
 63139  1  0  0  0
 63140  1  0  0  0
 64141  1  0  0  0
 65142  1  0  0  0
 68 81  1  0  0  0
 71 72  1  0  0  0
 71 73  2  0  0  0
 71 78  1  0  0  0
 72 74  2  0  0  0
 72 76  1  0  0  0
 73 75  1  0  0  0
 73 79  1  0  0  0
 74 80  1  0  0  0
 74 82  1  0  0  0
 75 82  2  0  0  0
 75 83  1  0  0  0
 76 77  1  0  0  0
 76143  1  0  0  0
 76144  1  0  0  0
 77 78  1  0  0  0
 77145  1  0  0  0
 77146  1  0  0  0
 78 81  1  0  0  0
 78147  1  0  0  0
 79148  1  0  0  0
 79149  1  0  0  0
 79150  1  0  0  0
 80151  1  0  0  0
 80152  1  0  0  0
 80153  1  0  0  0
 81154  1  0  0  0
 81155  1  0  0  0
 83156  1  0  0  0
M  ISO  4   1 100  68 101  81 101  83 100
M  END
> <chiral flag>
0

> <version>
0

> <s_m_source_file>
/data/baiqing/PycharmProjects/Reinvent-master-3.2/result/LINK_invent/BTK/process_docking_weight1_custom_sum_contain_oxygen_bond_distance_aromatic_linkinvent_7_9_3/rearranged_h_0147.sdf

> <i_m_source_file_index>
41

> <r_mmod_Potential_Energy-OPLS-2005>
1379.56823730469

> <r_mmod_Stretch_Energy-OPLS-2005>
681.811157226562

> <r_mmod_Bend_Energy-OPLS-2005>
551.2763671875

> <r_mmod_Torsional_Energy-OPLS-2005>
255.217681884766

> <r_mmod_Improper_Torsional_Energy-OPLS-2005>
8.83170127868652

> <r_mmod_Van_der_Waal_Energy-OPLS-2005>
121.502090454102

> <r_mmod_Electrostatic_Energy-OPLS-2005>
-502.977966308594

> <r_mmod_Solvation_Energy-OPLS-2005>
-246.929275512695

> <b_mmod_Minimization_Converged-OPLS-2005>
0

> <r_mmod_RMS_Derivative-OPLS-2005>
7.29338550567627

$$$$
41
                    3D
 Structure written by MMmdl.
161170  0  0  1  0            999 V2000
  -30.7086  -14.6470   20.5050 C   0  0  0  0  0  0
  -30.4173  -12.3998   19.4847 C   0  0  0  0  0  0
  -29.5051  -12.5020   18.2446 C   0  0  0  0  0  0
  -28.0295  -12.3457   18.6538 C   0  0  0  0  0  0
  -27.6508  -13.2362   19.8656 C   0  0  2  0  0  0
  -28.6956  -13.1699   21.0044 C   0  0  0  0  0  0
  -25.2555  -13.8224   20.5729 C   0  0  0  0  0  0
  -24.1838  -13.0471   20.9197 C   0  0  0  0  0  0
  -24.6437  -11.6950   20.8775 C   0  0  0  0  0  0
  -23.9119  -10.4314   21.0422 C   0  0  0  0  0  0
  -24.3659   -9.4216   21.9198 C   0  0  0  0  0  0
  -23.6324   -8.2257   22.0762 C   0  0  0  0  0  0
  -22.4304   -8.0305   21.3543 C   0  0  0  0  0  0
  -21.9957   -9.0279   20.4639 C   0  0  0  0  0  0
  -22.7300  -10.2155   20.3056 C   0  0  0  0  0  0
  -21.6856   -6.0762   22.5277 C   0  0  0  0  0  0
  -21.4019   -6.5658   23.8209 C   0  0  0  0  0  0
  -21.3657   -5.6806   24.9163 C   0  0  0  0  0  0
  -21.6041   -4.3066   24.7209 C   0  0  0  0  0  0
  -21.8821   -3.8168   23.4324 C   0  0  0  0  0  0
  -21.9197   -4.6994   22.3390 C   0  0  0  0  0  0
  -22.7846  -13.5225   21.1844 C   0  0  0  0  0  0
  -22.1664   -4.2178   21.0966 F   0  0  0  0  0  0
  -21.5626   -3.4547   25.7717 F   0  0  0  0  0  0
  -30.0134  -13.4659   20.4266 N   0  0  0  0  0  0
  -26.3001  -12.9447   20.3383 N   0  0  0  0  0  0
  -25.9383  -11.6583   20.5849 N   0  0  0  0  0  0
  -22.0514  -12.8187   22.0394 N   0  0  0  0  0  0
  -25.4258  -15.1956   20.4139 N   0  0  0  0  0  0
  -31.8729  -14.7186   20.1117 O   0  0  0  0  0  0
  -21.6653   -6.8913   21.4241 O   0  0  0  0  0  0
  -22.3522  -14.5541   20.6713 O   0  0  0  0  0  0
  -24.6277  -31.8604   23.2100 C   0  0  0  0  0  0
  -25.9132  -32.4770   23.8388 C   0  0  1  0  0  0
  -27.2170  -27.3226   20.0878 C   0  0  0  0  0  0
  -25.5951  -33.8567   24.2308 N   0  0  0  0  0  0
  -23.4193  -30.4942   21.5503 C   0  0  2  0  0  0
  -24.8625  -28.9652   20.1061 C   0  0  0  0  0  0
  -22.7480  -29.4640   22.4905 C   0  0  0  0  0  0
  -18.0281  -28.1413   22.8482 C   0  0  0  0  0  0
  -24.1455  -36.7225   23.2650 C   0  0  0  0  0  0
  -25.9656  -30.7855   21.3923 C   0  0  0  0  0  0
  -26.0332  -29.4178   20.7281 C   0  0  0  0  0  0
  -27.2047  -28.6011   20.7278 C   0  0  0  0  0  0
  -26.0268  -26.9603   19.4005 C   0  0  0  0  0  0
  -24.8625  -27.7381   19.4394 C   0  0  0  0  0  0
  -23.6354  -29.8472   20.1609 C   0  0  0  0  0  0
  -25.4085  -36.3051   24.0340 C   0  0  1  0  0  0
  -20.5898  -28.3695   23.1259 C   0  0  2  0  0  0
  -20.6773  -26.9409   22.5405 C   0  0  0  0  0  0
  -19.5748  -26.6391   21.5217 C   0  0  0  0  0  0
  -18.1918  -26.7962   22.1611 C   0  0  0  0  0  0
  -19.1550  -28.8870   23.2873 C   0  0  0  0  0  0
  -18.9487  -30.1474   23.8891 C   0  0  0  0  0  0
  -17.6492  -30.6607   24.0582 C   0  0  0  0  0  0
  -25.9039  -34.9437   23.5103 C   0  0  0  0  0  0
  -16.5371  -29.9109   23.6375 C   0  0  0  0  0  0
  -16.7274  -28.6538   23.0366 C   0  0  0  0  0  0
  -26.4545  -31.6589   25.0750 C   0  0  0  0  0  0
  -25.3780  -31.3708   26.1476 C   0  0  0  0  0  0
  -27.0429  -30.3023   24.6207 C   0  0  0  0  0  0
  -27.6095  -32.4357   25.7506 C   0  0  0  0  0  0
  -27.5546  -37.1768   24.8498 C   0  0  0  0  0  0
  -21.4197  -29.3054   22.3658 N   0  0  0  0  0  0
  -26.4255  -37.3756   23.9450 N   0  0  0  0  0  0
  -24.6892  -31.0625   22.1056 N   0  0  0  0  0  0
  -23.4198  -28.8151   23.2975 O   0  0  0  0  0  0
  -28.3165  -26.4386   20.1618 O   0  0  0  0  0  0
  -26.5601  -34.8910   22.4662 O   0  0  0  0  0  0
  -23.5432  -32.1401   23.7421 O   0  0  0  0  0  0
  -28.1086  -22.8192   20.7915 C   0  0  0  0  0  0
  -30.6077  -22.0445   19.9315 C   0  0  0  0  0  0
  -28.5374  -21.4775   21.0367 C   0  0  0  0  0  0
  -28.8695  -23.7951   20.0966 C   0  0  0  0  0  0
  -30.1582  -23.3784   19.6788 C   0  0  0  0  0  0
  -29.8197  -21.0428   20.5704 C   0  0  0  0  0  0
  -26.5205  -21.1276   22.7044 C   0  0  0  0  0  0
  -27.6681  -20.3070   23.2371 C   0  0  0  0  0  0
  -27.5679  -20.5759   21.7526 C   0  0  0  0  0  0
  -31.0366  -24.3354   18.8899 C   0  0  0  0  0  0
  -28.1491  -25.0890   19.5752 C   0  0  0  0  0  0
  -30.6073  -17.1944   20.6154 C   0  0  0  0  0  0
  -29.7148  -18.4835   20.9213 C   0  0  0  0  0  0
  -30.0454  -15.8039   20.8236 N   0  0  0  0  0  0
  -30.4084  -19.7553   20.6712 O   0  0  0  0  0  0
  -31.4626  -12.4775   19.1862 H   0  0  0  0  0  0
  -30.3142  -11.4235   19.9620 H   0  0  0  0  0  0
  -29.7729  -11.7380   17.5141 H   0  0  0  0  0  0
  -29.6467  -13.4649   17.7525 H   0  0  0  0  0  0
  -27.8670  -11.2954   18.9017 H   0  0  0  0  0  0
  -27.3741  -12.5662   17.8086 H   0  0  0  0  0  0
  -27.6527  -14.2598   19.4916 H   0  0  0  0  0  0
  -28.7026  -12.1911   21.4882 H   0  0  0  0  0  0
  -28.4444  -13.8929   21.7821 H   0  0  0  0  0  0
  -25.2810   -9.5677   22.4765 H   0  0  0  0  0  0
  -24.0026   -7.4648   22.7482 H   0  0  0  0  0  0
  -21.0897   -8.8818   19.8923 H   0  0  0  0  0  0
  -22.3798  -10.9701   19.6152 H   0  0  0  0  0  0
  -21.2020   -7.6164   23.9713 H   0  0  0  0  0  0
  -21.1468   -6.0533   25.9060 H   0  0  0  0  0  0
  -22.0605   -2.7631   23.2811 H   0  0  0  0  0  0
  -22.4181  -11.9816   22.4684 H   0  0  0  0  0  0
  -21.1134  -13.1163   22.2647 H   0  0  0  0  0  0
  -24.6602  -15.8529   20.5152 H   0  0  0  0  0  0
  -26.2843  -15.6317   20.1024 H   0  0  0  0  0  0
  -26.7167  -32.5448   23.1104 H   0  0  0  0  0  0
  -25.0211  -33.9718   25.0529 H   0  0  0  0  0  0
  -22.7129  -31.3170   21.4144 H   0  0  0  0  0  0
  -23.3747  -35.9537   23.3343 H   0  0  0  0  0  0
  -24.3548  -36.8813   22.2069 H   0  0  0  0  0  0
  -23.7165  -37.6413   23.6644 H   0  0  0  0  0  0
  -26.1133  -31.5512   20.6293 H   0  0  0  0  0  0
  -26.8409  -30.8170   22.0299 H   0  0  0  0  0  0
  -28.0926  -28.9357   21.2460 H   0  0  0  0  0  0
  -25.9341  -26.0699   18.8002 H   0  0  0  0  0  0
  -23.9751  -27.3981   18.9236 H   0  0  0  0  0  0
  -23.7622  -30.6362   19.4174 H   0  0  0  0  0  0
  -22.7523  -29.2881   19.8461 H   0  0  0  0  0  0
  -25.1251  -36.1900   25.0828 H   0  0  0  0  0  0
  -21.0001  -28.3281   24.1381 H   0  0  0  0  0  0
  -20.5704  -26.2292   23.3611 H   0  0  0  0  0  0
  -21.6624  -26.7445   22.1180 H   0  0  0  0  0  0
  -19.6913  -25.6314   21.1228 H   0  0  0  0  0  0
  -19.6700  -27.3227   20.6783 H   0  0  0  0  0  0
  -17.4191  -26.6753   21.3992 H   0  0  0  0  0  0
  -18.0275  -26.0096   22.8997 H   0  0  0  0  0  0
  -19.7975  -30.7295   24.2227 H   0  0  0  0  0  0
  -17.5056  -31.6294   24.5192 H   0  0  0  0  0  0
  -15.5378  -30.3016   23.7721 H   0  0  0  0  0  0
  -15.8665  -28.0866   22.7083 H   0  0  0  0  0  0
  -24.6034  -30.6936   25.7833 H   0  0  0  0  0  0
  -24.8867  -32.2856   26.4807 H   0  0  0  0  0  0
  -25.8135  -30.9004   27.0302 H   0  0  0  0  0  0
  -26.3024  -29.6728   24.1250 H   0  0  0  0  0  0
  -27.4200  -29.7302   25.4701 H   0  0  0  0  0  0
  -27.8837  -30.4332   23.9387 H   0  0  0  0  0  0
  -27.2712  -33.3722   26.1947 H   0  0  0  0  0  0
  -28.3960  -32.6820   25.0352 H   0  0  0  0  0  0
  -28.0671  -31.8554   26.5533 H   0  0  0  0  0  0
  -28.2595  -38.0037   24.7533 H   0  0  0  0  0  0
  -28.1006  -36.2580   24.6325 H   0  0  0  0  0  0
  -27.2275  -37.1415   25.8905 H   0  0  0  0  0  0
  -20.9372  -29.8772   21.6869 H   0  0  0  0  0  0
  -26.0135  -38.2802   24.1542 H   0  0  0  0  0  0
  -27.1095  -23.1042   21.0867 H   0  0  0  0  0  0
  -31.5858  -21.7588   19.5720 H   0  0  0  0  0  0
  -26.5280  -22.1822   22.9779 H   0  0  0  0  0  0
  -25.5340  -20.6691   22.6725 H   0  0  0  0  0  0
  -27.4143  -19.3133   23.6041 H   0  0  0  0  0  0
  -28.4346  -20.8362   23.7997 H   0  0  0  0  0  0
  -27.2303  -19.7735   21.1007 H   0  0  0  0  0  0
  -32.0404  -23.9362   18.7490 H   0  0  0  0  0  0
  -31.1267  -25.2934   19.4053 H   0  0  0  0  0  0
  -30.6126  -24.5209   17.9018 H   0  0  0  0  0  0
  -27.1194  -24.7673   19.6845 H   0  0  0  0  0  0
  -28.3213  -25.1677   18.5021 H   0  0  0  0  0  0
  -31.5294  -17.2685   21.1960 H   0  0  0  0  0  0
  -30.9246  -17.2604   19.5723 H   0  0  0  0  0  0
  -29.4071  -18.4501   21.9663 H   0  0  0  0  0  0
  -28.8199  -18.4444   20.3032 H   0  0  0  0  0  0
  -29.0887  -15.7233   21.1330 H   0  0  0  0  0  0
  1 25  1  0  0  0
  1 30  2  0  0  0
  1 84  1  0  0  0
  2  3  1  0  0  0
  2 25  1  0  0  0
  2 86  1  0  0  0
  2 87  1  0  0  0
  3  4  1  0  0  0
  3 88  1  0  0  0
  3 89  1  0  0  0
  4  5  1  0  0  0
  4 90  1  0  0  0
  4 91  1  0  0  0
  5  6  1  0  0  0
  5 26  1  0  0  0
  5 92  1  0  0  0
  6 25  1  0  0  0
  6 93  1  0  0  0
  6 94  1  0  0  0
  7  8  2  0  0  0
  7 26  1  0  0  0
  7 29  1  0  0  0
  8  9  1  0  0  0
  8 22  1  0  0  0
  9 10  1  0  0  0
  9 27  2  0  0  0
 10 11  2  0  0  0
 10 15  1  0  0  0
 11 12  1  0  0  0
 11 95  1  0  0  0
 12 13  2  0  0  0
 12 96  1  0  0  0
 13 14  1  0  0  0
 13 31  1  0  0  0
 14 15  2  0  0  0
 14 97  1  0  0  0
 15 98  1  0  0  0
 16 17  2  0  0  0
 16 21  1  0  0  0
 16 31  1  0  0  0
 17 18  1  0  0  0
 17 99  1  0  0  0
 18 19  2  0  0  0
 18100  1  0  0  0
 19 20  1  0  0  0
 19 24  1  0  0  0
 20 21  2  0  0  0
 20101  1  0  0  0
 21 23  1  0  0  0
 22 28  1  0  0  0
 22 32  2  0  0  0
 26 27  1  0  0  0
 28102  1  0  0  0
 28103  1  0  0  0
 29104  1  0  0  0
 29105  1  0  0  0
 33 34  1  0  0  0
 33 66  1  0  0  0
 33 70  2  0  0  0
 34 36  1  0  0  0
 34 59  1  0  0  0
 34106  1  0  0  0
 35 44  2  0  0  0
 35 45  1  0  0  0
 35 68  1  0  0  0
 36 56  1  0  0  0
 36107  1  0  0  0
 37 39  1  0  0  0
 37 47  1  0  0  0
 37 66  1  0  0  0
 37108  1  0  0  0
 38 43  2  0  0  0
 38 46  1  0  0  0
 38 47  1  0  0  0
 39 64  1  0  0  0
 39 67  2  0  0  0
 40 52  1  0  0  0
 40 53  2  0  0  0
 40 58  1  0  0  0
 41109  1  0  0  0
 41110  1  0  0  0
 41111  1  0  0  0
 41 48  1  0  0  0
 42 43  1  0  0  0
 42 66  1  0  0  0
 42112  1  0  0  0
 42113  1  0  0  0
 43 44  1  0  0  0
 44114  1  0  0  0
 45 46  2  0  0  0
 45115  1  0  0  0
 46116  1  0  0  0
 47117  1  0  0  0
 47118  1  0  0  0
 48 56  1  0  0  0
 48 65  1  0  0  0
 48119  1  0  0  0
 49 50  1  0  0  0
 49 53  1  0  0  0
 49 64  1  0  0  0
 49120  1  0  0  0
 50 51  1  0  0  0
 50121  1  0  0  0
 50122  1  0  0  0
 51 52  1  0  0  0
 51123  1  0  0  0
 51124  1  0  0  0
 52125  1  0  0  0
 52126  1  0  0  0
 53 54  1  0  0  0
 54 55  2  0  0  0
 54127  1  0  0  0
 55 57  1  0  0  0
 55128  1  0  0  0
 56 69  2  0  0  0
 57 58  2  0  0  0
 57129  1  0  0  0
 58130  1  0  0  0
 59 60  1  0  0  0
 59 61  1  0  0  0
 59 62  1  0  0  0
 60131  1  0  0  0
 60132  1  0  0  0
 60133  1  0  0  0
 61134  1  0  0  0
 61135  1  0  0  0
 61136  1  0  0  0
 62137  1  0  0  0
 62138  1  0  0  0
 62139  1  0  0  0
 63 65  1  0  0  0
 63140  1  0  0  0
 63141  1  0  0  0
 63142  1  0  0  0
 64143  1  0  0  0
 65144  1  0  0  0
 68 81  1  0  0  0
 71 73  2  0  0  0
 71 74  1  0  0  0
 71145  1  0  0  0
 72 75  1  0  0  0
 72 76  2  0  0  0
 72146  1  0  0  0
 73 76  1  0  0  0
 73 79  1  0  0  0
 74 75  2  0  0  0
 74 81  1  0  0  0
 75 80  1  0  0  0
 76 85  1  0  0  0
 77 78  1  0  0  0
 77 79  1  0  0  0
 77147  1  0  0  0
 77148  1  0  0  0
 78 79  1  0  0  0
 78149  1  0  0  0
 78150  1  0  0  0
 79151  1  0  0  0
 80152  1  0  0  0
 80153  1  0  0  0
 80154  1  0  0  0
 81155  1  0  0  0
 81156  1  0  0  0
 82 83  1  0  0  0
 82 84  1  0  0  0
 82157  1  0  0  0
 82158  1  0  0  0
 83 85  1  0  0  0
 83159  1  0  0  0
 83160  1  0  0  0
 84161  1  0  0  0
M  ISO  4   1 100  68 101  81 101  84 100
M  END
> <chiral flag>
0

> <version>
0

> <s_m_source_file>
/data/baiqing/PycharmProjects/Reinvent-master-3.2/result/LINK_invent/BTK/process_docking_weight1_custom_sum_contain_oxygen_bond_distance_aromatic_linkinvent_7_9_3/rearranged_h_0147.sdf

> <i_m_source_file_index>
42

> <r_mmod_Potential_Energy-OPLS-2005>
115.189682006836

> <r_mmod_Stretch_Energy-OPLS-2005>
83.7452850341797

> <r_mmod_Bend_Energy-OPLS-2005>
174.508728027344

> <r_mmod_Torsional_Energy-OPLS-2005>
246.025436401367

> <r_mmod_Improper_Torsional_Energy-OPLS-2005>
6.80399084091187

> <r_mmod_Van_der_Waal_Energy-OPLS-2005>
160.49169921875

> <r_mmod_Electrostatic_Energy-OPLS-2005>
-399.733032226562

> <r_mmod_Solvation_Energy-OPLS-2005>
-214.283355712891

> <b_mmod_Minimization_Converged-OPLS-2005>
0

> <r_mmod_RMS_Derivative-OPLS-2005>
3.59205150604248

$$$$
42
                    3D
 Structure written by MMmdl.
161170  0  0  1  0            999 V2000
  -30.7212  -14.4117   20.5709 C   0  0  0  0  0  0
  -30.4211  -12.2646   19.4123 C   0  0  0  0  0  0
  -29.4980  -12.4999   18.1997 C   0  0  0  0  0  0
  -28.0170  -12.3755   18.6086 C   0  0  0  0  0  0
  -27.6688  -13.2013   19.8753 C   0  0  2  0  0  0
  -28.7075  -12.9518   20.9930 C   0  0  0  0  0  0
  -25.2621  -13.8144   20.5691 C   0  0  0  0  0  0
  -24.1849  -13.0436   20.9126 C   0  0  0  0  0  0
  -24.6384  -11.6897   20.8679 C   0  0  0  0  0  0
  -23.9047  -10.4296   21.0354 C   0  0  0  0  0  0
  -24.3594   -9.4214   21.9138 C   0  0  0  0  0  0
  -23.6267   -8.2256   22.0751 C   0  0  0  0  0  0
  -22.4247   -8.0293   21.3558 C   0  0  0  0  0  0
  -21.9862   -9.0253   20.4658 C   0  0  0  0  0  0
  -22.7204  -10.2131   20.3026 C   0  0  0  0  0  0
  -21.6859   -6.0702   22.5264 C   0  0  0  0  0  0
  -21.4029   -6.5607   23.8196 C   0  0  0  0  0  0
  -21.3664   -5.6770   24.9158 C   0  0  0  0  0  0
  -21.6037   -4.3028   24.7232 C   0  0  0  0  0  0
  -21.8813   -3.8125   23.4351 C   0  0  0  0  0  0
  -21.9199   -4.6926   22.3393 C   0  0  0  0  0  0
  -22.7885  -13.5255   21.1789 C   0  0  0  0  0  0
  -22.1664   -4.2100   21.0973 F   0  0  0  0  0  0
  -21.5623   -3.4527   25.7748 F   0  0  0  0  0  0
  -30.0511  -13.2381   20.4478 N   0  0  0  0  0  0
  -26.3061  -12.9310   20.3366 N   0  0  0  0  0  0
  -25.9303  -11.6468   20.5696 N   0  0  0  0  0  0
  -22.0488  -12.8290   22.0345 N   0  0  0  0  0  0
  -25.4382  -15.1868   20.4205 N   0  0  0  0  0  0
  -31.8333  -14.6085   20.0652 O   0  0  0  0  0  0
  -21.6643   -6.8866   21.4244 O   0  0  0  0  0  0
  -22.3576  -14.5551   20.6627 O   0  0  0  0  0  0
  -24.6090  -31.8713   23.2128 C   0  0  0  0  0  0
  -25.8998  -32.4842   23.8415 C   0  0  1  0  0  0
  -27.2236  -27.4673   20.0997 C   0  0  0  0  0  0
  -25.5843  -33.8638   24.2331 N   0  0  0  0  0  0
  -23.3933  -30.4950   21.5546 C   0  0  2  0  0  0
  -24.8347  -28.9617   20.1159 C   0  0  0  0  0  0
  -22.7376  -29.4666   22.5038 C   0  0  0  0  0  0
  -18.0259  -28.1401   22.8516 C   0  0  0  0  0  0
  -24.1476  -36.7343   23.2646 C   0  0  0  0  0  0
  -25.9144  -30.8515   21.3527 C   0  0  0  0  0  0
  -25.9905  -29.4847   20.7085 C   0  0  0  0  0  0
  -27.1883  -28.7437   20.6956 C   0  0  0  0  0  0
  -26.0492  -26.9379   19.5214 C   0  0  0  0  0  0
  -24.8563  -27.6864   19.5232 C   0  0  0  0  0  0
  -23.5951  -29.8251   20.1688 C   0  0  0  0  0  0
  -25.4084  -36.3123   24.0345 C   0  0  1  0  0  0
  -20.5847  -28.3657   23.1361 C   0  0  2  0  0  0
  -20.6734  -26.9391   22.5452 C   0  0  0  0  0  0
  -19.5715  -26.6406   21.5232 C   0  0  0  0  0  0
  -18.1894  -26.7954   22.1624 C   0  0  0  0  0  0
  -19.1515  -28.8847   23.2943 C   0  0  0  0  0  0
  -18.9440  -30.1458   23.8948 C   0  0  0  0  0  0
  -17.6438  -30.6597   24.0595 C   0  0  0  0  0  0
  -25.9007  -34.9492   23.5143 C   0  0  0  0  0  0
  -16.5333  -29.9107   23.6330 C   0  0  0  0  0  0
  -16.7245  -28.6528   23.0350 C   0  0  0  0  0  0
  -26.4451  -31.6629   25.0735 C   0  0  0  0  0  0
  -25.3765  -31.3739   26.1535 C   0  0  0  0  0  0
  -27.0281  -30.3083   24.6080 C   0  0  0  0  0  0
  -27.6060  -32.4360   25.7422 C   0  0  0  0  0  0
  -27.5582  -37.1805   24.8438 C   0  0  0  0  0  0
  -21.4104  -29.3023   22.3772 N   0  0  0  0  0  0
  -26.4273  -37.3801   23.9415 N   0  0  0  0  0  0
  -24.6579  -31.0858   22.0995 N   0  0  0  0  0  0
  -23.4176  -28.8218   23.3073 O   0  0  0  0  0  0
  -28.4225  -26.8055   20.0775 O   0  0  0  0  0  0
  -26.5603  -34.8943   22.4720 O   0  0  0  0  0  0
  -23.5295  -32.1453   23.7556 O   0  0  0  0  0  0
  -28.9850  -17.4095   21.7189 C   0  0  0  0  0  0
  -27.9065  -20.9307   22.3092 C   0  0  0  0  0  0
  -28.8922  -18.8130   21.6601 C   0  0  0  0  0  0
  -27.8810  -19.5223   22.3503 C   0  0  0  0  0  0
  -29.8528  -19.5382   20.9062 C   0  0  0  0  0  0
  -30.8186  -18.7780   20.2005 C   0  0  0  0  0  0
  -30.0234  -16.7474   21.0468 C   0  0  0  0  0  0
  -28.9251  -21.5670   21.5838 C   0  0  0  0  0  0
  -26.7915  -18.8145   23.1380 C   0  0  0  0  0  0
  -31.8516  -19.4272   19.2828 C   0  0  0  0  0  0
  -29.8083  -25.0436   20.6978 C   0  0  0  0  0  0
  -28.4056  -25.3919   20.1924 C   0  0  0  0  0  0
  -30.0538  -23.5473   20.8435 C   0  0  0  0  0  0
  -29.8529  -20.8868   20.8806 N   0  0  0  0  0  0
  -30.9044  -17.4283   20.2788 N   0  0  0  0  0  0
  -30.0399  -15.3504   21.2382 N   0  0  0  0  0  0
  -28.9999  -22.9395   21.5908 O   0  0  0  0  0  0
  -31.4684  -12.3389   19.1164 H   0  0  0  0  0  0
  -30.2946  -11.2519   19.7955 H   0  0  0  0  0  0
  -29.7246  -11.7830   17.4100 H   0  0  0  0  0  0
  -29.6895  -13.4886   17.7787 H   0  0  0  0  0  0
  -27.8117  -11.3217   18.7934 H   0  0  0  0  0  0
  -27.3725  -12.6729   17.7796 H   0  0  0  0  0  0
  -27.7221  -14.2537   19.5926 H   0  0  0  0  0  0
  -28.6651  -11.9130   21.3180 H   0  0  0  0  0  0
  -28.4655  -13.5371   21.8819 H   0  0  0  0  0  0
  -25.2723   -9.5677   22.4729 H   0  0  0  0  0  0
  -23.9954   -7.4640   22.7474 H   0  0  0  0  0  0
  -21.0774   -8.8763   19.8988 H   0  0  0  0  0  0
  -22.3619  -10.9656   19.6148 H   0  0  0  0  0  0
  -21.2037   -7.6110   23.9680 H   0  0  0  0  0  0
  -21.1486   -6.0506   25.9058 H   0  0  0  0  0  0
  -22.0592   -2.7578   23.2872 H   0  0  0  0  0  0
  -22.4082  -11.9965   22.4773 H   0  0  0  0  0  0
  -21.1127  -13.1389   22.2527 H   0  0  0  0  0  0
  -24.6778  -15.8471   20.5425 H   0  0  0  0  0  0
  -26.3040  -15.6324   20.1459 H   0  0  0  0  0  0
  -26.7072  -32.5568   23.1197 H   0  0  0  0  0  0
  -24.9942  -33.9807   25.0430 H   0  0  0  0  0  0
  -22.6790  -31.3107   21.4208 H   0  0  0  0  0  0
  -23.3718  -35.9700   23.3309 H   0  0  0  0  0  0
  -24.3586  -36.8959   22.2065 H   0  0  0  0  0  0
  -23.7257  -37.6554   23.6664 H   0  0  0  0  0  0
  -26.0108  -31.6125   20.5767 H   0  0  0  0  0  0
  -26.8083  -30.9187   21.9612 H   0  0  0  0  0  0
  -28.0842  -29.1424   21.1514 H   0  0  0  0  0  0
  -26.0481  -25.9597   19.0617 H   0  0  0  0  0  0
  -23.9629  -27.2784   19.0707 H   0  0  0  0  0  0
  -23.6968  -30.5988   19.4066 H   0  0  0  0  0  0
  -22.7179  -29.2432   19.8797 H   0  0  0  0  0  0
  -25.1254  -36.1991   25.0838 H   0  0  0  0  0  0
  -20.9961  -28.3223   24.1476 H   0  0  0  0  0  0
  -20.5627  -26.2252   23.3639 H   0  0  0  0  0  0
  -21.6613  -26.7444   22.1268 H   0  0  0  0  0  0
  -19.6861  -25.6328   21.1241 H   0  0  0  0  0  0
  -19.6652  -27.3242   20.6790 H   0  0  0  0  0  0
  -17.4171  -26.6765   21.4007 H   0  0  0  0  0  0
  -18.0243  -26.0091   22.8998 H   0  0  0  0  0  0
  -19.7918  -30.7285   24.2329 H   0  0  0  0  0  0
  -17.4986  -31.6276   24.5199 H   0  0  0  0  0  0
  -15.5333  -30.3009   23.7641 H   0  0  0  0  0  0
  -15.8656  -28.0855   22.7030 H   0  0  0  0  0  0
  -24.5865  -30.7152   25.7901 H   0  0  0  0  0  0
  -24.9039  -32.2905   26.5080 H   0  0  0  0  0  0
  -25.8156  -30.8841   27.0238 H   0  0  0  0  0  0
  -26.2790  -29.6803   24.1246 H   0  0  0  0  0  0
  -27.4186  -29.7369   25.4510 H   0  0  0  0  0  0
  -27.8562  -30.4421   23.9120 H   0  0  0  0  0  0
  -27.2716  -33.3661   26.2033 H   0  0  0  0  0  0
  -28.3800  -32.6935   25.0179 H   0  0  0  0  0  0
  -28.0824  -31.8492   26.5284 H   0  0  0  0  0  0
  -28.2589  -38.0110   24.7515 H   0  0  0  0  0  0
  -28.1085  -36.2650   24.6196 H   0  0  0  0  0  0
  -27.2346  -37.1438   25.8854 H   0  0  0  0  0  0
  -20.9240  -29.8747   21.7014 H   0  0  0  0  0  0
  -26.0160  -38.2877   24.1421 H   0  0  0  0  0  0
  -28.2790  -16.8476   22.3086 H   0  0  0  0  0  0
  -27.1721  -21.5202   22.8387 H   0  0  0  0  0  0
  -26.0833  -19.5210   23.5645 H   0  0  0  0  0  0
  -27.2316  -18.2434   23.9548 H   0  0  0  0  0  0
  -26.2356  -18.1314   22.4942 H   0  0  0  0  0  0
  -32.8657  -19.2091   19.6203 H   0  0  0  0  0  0
  -31.7517  -20.5118   19.2215 H   0  0  0  0  0  0
  -31.7415  -19.0358   18.2706 H   0  0  0  0  0  0
  -29.9837  -25.5409   21.6527 H   0  0  0  0  0  0
  -30.5508  -25.4411   20.0044 H   0  0  0  0  0  0
  -27.6558  -25.0590   20.9148 H   0  0  0  0  0  0
  -28.1975  -24.9124   19.2342 H   0  0  0  0  0  0
  -31.0051  -23.3807   21.3516 H   0  0  0  0  0  0
  -30.1325  -23.1259   19.8398 H   0  0  0  0  0  0
  -29.2516  -14.9824   21.7418 H   0  0  0  0  0  0
  1 25  1  0  0  0
  1 30  2  0  0  0
  1 86  1  0  0  0
  2  3  1  0  0  0
  2 25  1  0  0  0
  2 88  1  0  0  0
  2 89  1  0  0  0
  3  4  1  0  0  0
  3 90  1  0  0  0
  3 91  1  0  0  0
  4  5  1  0  0  0
  4 92  1  0  0  0
  4 93  1  0  0  0
  5  6  1  0  0  0
  5 26  1  0  0  0
  5 94  1  0  0  0
  6 25  1  0  0  0
  6 95  1  0  0  0
  6 96  1  0  0  0
  7  8  2  0  0  0
  7 26  1  0  0  0
  7 29  1  0  0  0
  8  9  1  0  0  0
  8 22  1  0  0  0
  9 10  1  0  0  0
  9 27  2  0  0  0
 10 11  2  0  0  0
 10 15  1  0  0  0
 11 12  1  0  0  0
 11 97  1  0  0  0
 12 13  2  0  0  0
 12 98  1  0  0  0
 13 14  1  0  0  0
 13 31  1  0  0  0
 14 15  2  0  0  0
 14 99  1  0  0  0
 15100  1  0  0  0
 16 17  2  0  0  0
 16 21  1  0  0  0
 16 31  1  0  0  0
 17 18  1  0  0  0
 17101  1  0  0  0
 18 19  2  0  0  0
 18102  1  0  0  0
 19 20  1  0  0  0
 19 24  1  0  0  0
 20 21  2  0  0  0
 20103  1  0  0  0
 21 23  1  0  0  0
 22 28  1  0  0  0
 22 32  2  0  0  0
 26 27  1  0  0  0
 28104  1  0  0  0
 28105  1  0  0  0
 29106  1  0  0  0
 29107  1  0  0  0
 33 34  1  0  0  0
 33 66  1  0  0  0
 33 70  2  0  0  0
 34 36  1  0  0  0
 34 59  1  0  0  0
 34108  1  0  0  0
 35 44  2  0  0  0
 35 45  1  0  0  0
 35 68  1  0  0  0
 36 56  1  0  0  0
 36109  1  0  0  0
 37 39  1  0  0  0
 37 47  1  0  0  0
 37 66  1  0  0  0
 37110  1  0  0  0
 38 43  2  0  0  0
 38 46  1  0  0  0
 38 47  1  0  0  0
 39 64  1  0  0  0
 39 67  2  0  0  0
 40 52  1  0  0  0
 40 53  2  0  0  0
 40 58  1  0  0  0
 41111  1  0  0  0
 41112  1  0  0  0
 41113  1  0  0  0
 41 48  1  0  0  0
 42 43  1  0  0  0
 42 66  1  0  0  0
 42114  1  0  0  0
 42115  1  0  0  0
 43 44  1  0  0  0
 44116  1  0  0  0
 45 46  2  0  0  0
 45117  1  0  0  0
 46118  1  0  0  0
 47119  1  0  0  0
 47120  1  0  0  0
 48 56  1  0  0  0
 48 65  1  0  0  0
 48121  1  0  0  0
 49 50  1  0  0  0
 49 53  1  0  0  0
 49 64  1  0  0  0
 49122  1  0  0  0
 50 51  1  0  0  0
 50123  1  0  0  0
 50124  1  0  0  0
 51 52  1  0  0  0
 51125  1  0  0  0
 51126  1  0  0  0
 52127  1  0  0  0
 52128  1  0  0  0
 53 54  1  0  0  0
 54 55  2  0  0  0
 54129  1  0  0  0
 55 57  1  0  0  0
 55130  1  0  0  0
 56 69  2  0  0  0
 57 58  2  0  0  0
 57131  1  0  0  0
 58132  1  0  0  0
 59 60  1  0  0  0
 59 61  1  0  0  0
 59 62  1  0  0  0
 60133  1  0  0  0
 60134  1  0  0  0
 60135  1  0  0  0
 61136  1  0  0  0
 61137  1  0  0  0
 61138  1  0  0  0
 62139  1  0  0  0
 62140  1  0  0  0
 62141  1  0  0  0
 63 65  1  0  0  0
 63142  1  0  0  0
 63143  1  0  0  0
 63144  1  0  0  0
 64145  1  0  0  0
 65146  1  0  0  0
 68 82  1  0  0  0
 71 73  2  0  0  0
 71 77  1  0  0  0
 71147  1  0  0  0
 72 74  2  0  0  0
 72 78  1  0  0  0
 72148  1  0  0  0
 73 74  1  0  0  0
 73 75  1  0  0  0
 74 79  1  0  0  0
 75 76  2  0  0  0
 75 84  1  0  0  0
 76 80  1  0  0  0
 76 85  1  0  0  0
 77 85  2  0  0  0
 77 86  1  0  0  0
 78 84  2  0  0  0
 78 87  1  0  0  0
 79149  1  0  0  0
 79150  1  0  0  0
 79151  1  0  0  0
 80152  1  0  0  0
 80153  1  0  0  0
 80154  1  0  0  0
 81 82  1  0  0  0
 81 83  1  0  0  0
 81155  1  0  0  0
 81156  1  0  0  0
 82157  1  0  0  0
 82158  1  0  0  0
 83 87  1  0  0  0
 83159  1  0  0  0
 83160  1  0  0  0
 86161  1  0  0  0
M  ISO  4   1 100  68 101  82 101  86 100
M  END
> <chiral flag>
0

> <version>
0

> <s_m_source_file>
/data/baiqing/PycharmProjects/Reinvent-master-3.2/result/LINK_invent/BTK/process_docking_weight1_custom_sum_contain_oxygen_bond_distance_aromatic_linkinvent_7_9_3/rearranged_h_0147.sdf

> <i_m_source_file_index>
43

> <r_mmod_Potential_Energy-OPLS-2005>
-233.584686279297

> <r_mmod_Stretch_Energy-OPLS-2005>
33.1555633544922

> <r_mmod_Bend_Energy-OPLS-2005>
106.404678344727

> <r_mmod_Torsional_Energy-OPLS-2005>
198.242034912109

> <r_mmod_Improper_Torsional_Energy-OPLS-2005>
3.21091532707214

> <r_mmod_Van_der_Waal_Energy-OPLS-2005>
194.699310302734

> <r_mmod_Electrostatic_Energy-OPLS-2005>
-547.07958984375

> <r_mmod_Solvation_Energy-OPLS-2005>
-231.933456420898

> <b_mmod_Minimization_Converged-OPLS-2005>
0

> <r_mmod_RMS_Derivative-OPLS-2005>
4.72844505310059

$$$$
43
                    3D
 Structure written by MMmdl.
172182  0  0  1  0            999 V2000
  -30.6093  -14.7178   20.4169 C   0  0  0  0  0  0
  -30.4290  -12.4214   19.4731 C   0  0  0  0  0  0
  -29.5044  -12.4874   18.2356 C   0  0  0  0  0  0
  -28.0280  -12.3232   18.6474 C   0  0  0  0  0  0
  -27.6400  -13.2167   19.8556 C   0  0  2  0  0  0
  -28.6898  -13.1463   20.9845 C   0  0  0  0  0  0
  -25.2535  -13.8146   20.5732 C   0  0  0  0  0  0
  -24.1801  -13.0413   20.9212 C   0  0  0  0  0  0
  -24.6372  -11.6889   20.8767 C   0  0  0  0  0  0
  -23.9042  -10.4281   21.0417 C   0  0  0  0  0  0
  -24.3600   -9.4198   21.9188 C   0  0  0  0  0  0
  -23.6285   -8.2233   22.0754 C   0  0  0  0  0  0
  -22.4267   -8.0276   21.3542 C   0  0  0  0  0  0
  -21.9903   -9.0241   20.4638 C   0  0  0  0  0  0
  -22.7227  -10.2122   20.3059 C   0  0  0  0  0  0
  -21.6841   -6.0740   22.5276 C   0  0  0  0  0  0
  -21.3995   -6.5641   23.8208 C   0  0  0  0  0  0
  -21.3657   -5.6797   24.9167 C   0  0  0  0  0  0
  -21.6042   -4.3059   24.7222 C   0  0  0  0  0  0
  -21.8825   -3.8152   23.4344 C   0  0  0  0  0  0
  -21.9193   -4.6969   22.3398 C   0  0  0  0  0  0
  -22.7834  -13.5223   21.1856 C   0  0  0  0  0  0
  -22.1667   -4.2160   21.0974 F   0  0  0  0  0  0
  -21.5634   -3.4537   25.7734 F   0  0  0  0  0  0
  -29.9989  -13.4828   20.4116 N   0  0  0  0  0  0
  -26.2936  -12.9315   20.3343 N   0  0  0  0  0  0
  -25.9297  -11.6477   20.5796 N   0  0  0  0  0  0
  -22.0472  -12.8213   22.0408 N   0  0  0  0  0  0
  -25.4271  -15.1866   20.4176 N   0  0  0  0  0  0
  -31.8064  -14.7915   20.1256 O   0  0  0  0  0  0
  -21.6632   -6.8877   21.4241 O   0  0  0  0  0  0
  -22.3531  -14.5536   20.6707 O   0  0  0  0  0  0
  -24.6317  -31.8528   23.1999 C   0  0  0  0  0  0
  -25.9134  -32.4744   23.8340 C   0  0  1  0  0  0
  -27.2197  -27.2649   20.1296 C   0  0  0  0  0  0
  -25.5929  -33.8544   24.2247 N   0  0  0  0  0  0
  -23.4277  -30.4769   21.5421 C   0  0  2  0  0  0
  -24.8751  -28.9273   20.1066 C   0  0  0  0  0  0
  -22.7504  -29.4585   22.4901 C   0  0  0  0  0  0
  -18.0282  -28.1399   22.8473 C   0  0  0  0  0  0
  -24.1473  -36.7291   23.2630 C   0  0  0  0  0  0
  -25.9733  -30.7657   21.3793 C   0  0  0  0  0  0
  -26.0453  -29.3889   20.7238 C   0  0  0  0  0  0
  -27.2178  -28.5685   20.7269 C   0  0  0  0  0  0
  -26.0307  -26.8788   19.4666 C   0  0  0  0  0  0
  -24.8735  -27.6808   19.4657 C   0  0  0  0  0  0
  -23.6456  -29.8140   20.1566 C   0  0  0  0  0  0
  -25.4098  -36.3056   24.0314 C   0  0  1  0  0  0
  -20.5888  -28.3693   23.1271 C   0  0  2  0  0  0
  -20.6772  -26.9409   22.5400 C   0  0  0  0  0  0
  -19.5745  -26.6388   21.5203 C   0  0  0  0  0  0
  -18.1923  -26.7938   22.1616 C   0  0  0  0  0  0
  -19.1539  -28.8858   23.2865 C   0  0  0  0  0  0
  -18.9462  -30.1466   23.8876 C   0  0  0  0  0  0
  -17.6461  -30.6595   24.0557 C   0  0  0  0  0  0
  -25.9052  -34.9429   23.5083 C   0  0  0  0  0  0
  -16.5347  -29.9097   23.6341 C   0  0  0  0  0  0
  -16.7271  -28.6521   23.0345 C   0  0  0  0  0  0
  -26.4502  -31.6571   25.0736 C   0  0  0  0  0  0
  -25.3724  -31.3715   26.1453 C   0  0  0  0  0  0
  -27.0356  -30.2982   24.6238 C   0  0  0  0  0  0
  -27.6049  -32.4321   25.7520 C   0  0  0  0  0  0
  -27.5572  -37.1787   24.8450 C   0  0  0  0  0  0
  -21.4204  -29.3037   22.3656 N   0  0  0  0  0  0
  -26.4266  -37.3765   23.9422 N   0  0  0  0  0  0
  -24.6965  -31.0502   22.0976 N   0  0  0  0  0  0
  -23.4211  -28.8109   23.2983 O   0  0  0  0  0  0
  -28.3145  -26.3742   20.2140 O   0  0  0  0  0  0
  -26.5627  -34.8901   22.4659 O   0  0  0  0  0  0
  -23.5465  -32.1351   23.7294 O   0  0  0  0  0  0
  -29.6169  -19.9394   20.4620 C   0  0  0  0  0  0
  -28.8591  -21.2694   22.3615 C   0  0  0  0  0  0
  -29.8588  -18.8023   21.3271 C   0  0  0  0  0  0
  -29.6600  -18.9906   22.6984 C   0  0  0  0  0  0
  -29.1282  -20.1873   23.2334 C   0  0  0  0  0  0
  -29.1454  -21.2198   20.9740 C   0  0  0  0  0  0
  -30.1996  -17.8315   23.4984 C   0  0  0  0  0  0
  -31.0968  -17.0800   22.5032 C   0  0  0  0  0  0
  -26.5098  -19.2306   25.0374 C   0  0  0  0  0  0
  -26.7482  -20.0266   26.2968 C   0  0  0  0  0  0
  -30.5730  -17.4028   21.0818 C   0  0  1  0  0  0
  -27.3678  -20.4753   24.9919 C   0  0  0  0  0  0
  -29.6524  -21.5199   25.3348 C   0  0  0  0  0  0
  -29.2884  -16.4789   19.1066 C   0  0  0  0  0  0
  -28.1084  -24.9050   19.9659 C   0  0  0  0  0  0
  -29.0376  -23.7732   20.6418 C   0  0  0  0  0  0
  -28.8606  -20.3478   24.7310 C   0  0  2  0  0  0
  -29.7966  -16.1081   20.5170 C   0  0  1  0  0  0
  -28.9262  -22.3625   20.1527 O   0  0  0  0  0  0
  -31.4708  -12.5310   19.1689 H   0  0  0  0  0  0
  -30.3599  -11.4430   19.9518 H   0  0  0  0  0  0
  -29.7770  -11.7092   17.5213 H   0  0  0  0  0  0
  -29.6405  -13.4378   17.7183 H   0  0  0  0  0  0
  -27.8742  -11.2729   18.9006 H   0  0  0  0  0  0
  -27.3714  -12.5262   17.8003 H   0  0  0  0  0  0
  -27.6220  -14.2364   19.4844 H   0  0  0  0  0  0
  -28.7170  -12.1466   21.4211 H   0  0  0  0  0  0
  -28.4318  -13.8237   21.7990 H   0  0  0  0  0  0
  -25.2740   -9.5679   22.4765 H   0  0  0  0  0  0
  -24.0000   -7.4618   22.7468 H   0  0  0  0  0  0
  -21.0843   -8.8749   19.8933 H   0  0  0  0  0  0
  -22.3680  -10.9663   19.6170 H   0  0  0  0  0  0
  -21.1973   -7.6145   23.9712 H   0  0  0  0  0  0
  -21.1469   -6.0522   25.9073 H   0  0  0  0  0  0
  -22.0607   -2.7619   23.2833 H   0  0  0  0  0  0
  -22.4097  -11.9879   22.4798 H   0  0  0  0  0  0
  -21.1078  -13.1225   22.2583 H   0  0  0  0  0  0
  -24.6630  -15.8440   20.5302 H   0  0  0  0  0  0
  -26.2919  -15.6278   20.1312 H   0  0  0  0  0  0
  -26.7195  -32.5368   23.1076 H   0  0  0  0  0  0
  -25.0045  -33.9673   25.0373 H   0  0  0  0  0  0
  -22.7236  -31.2988   21.3986 H   0  0  0  0  0  0
  -23.3736  -35.9616   23.3246 H   0  0  0  0  0  0
  -24.3570  -36.8991   22.2057 H   0  0  0  0  0  0
  -23.7225  -37.6467   23.6714 H   0  0  0  0  0  0
  -26.1055  -31.5190   20.6012 H   0  0  0  0  0  0
  -26.8546  -30.8195   22.0083 H   0  0  0  0  0  0
  -28.1092  -28.9104   21.2335 H   0  0  0  0  0  0
  -25.9629  -25.9326   18.9520 H   0  0  0  0  0  0
  -23.9828  -27.3262   18.9647 H   0  0  0  0  0  0
  -23.7679  -30.5912   19.4015 H   0  0  0  0  0  0
  -22.7647  -29.2469   19.8511 H   0  0  0  0  0  0
  -25.1267  -36.1877   25.0800 H   0  0  0  0  0  0
  -20.9966  -28.3264   24.1403 H   0  0  0  0  0  0
  -20.5687  -26.2284   23.3596 H   0  0  0  0  0  0
  -21.6640  -26.7444   22.1185 H   0  0  0  0  0  0
  -19.6911  -25.6300   21.1238 H   0  0  0  0  0  0
  -19.6706  -27.3182   20.6724 H   0  0  0  0  0  0
  -17.4194  -26.6664   21.4022 H   0  0  0  0  0  0
  -18.0342  -26.0087   22.9021 H   0  0  0  0  0  0
  -19.7932  -30.7283   24.2252 H   0  0  0  0  0  0
  -17.5016  -31.6278   24.5155 H   0  0  0  0  0  0
  -15.5350  -30.2993   23.7700 H   0  0  0  0  0  0
  -15.8662  -28.0860   22.7062 H   0  0  0  0  0  0
  -24.5912  -30.7045   25.7791 H   0  0  0  0  0  0
  -24.8890  -32.2871   26.4860 H   0  0  0  0  0  0
  -25.8040  -30.8915   27.0243 H   0  0  0  0  0  0
  -26.2954  -29.6716   24.1246 H   0  0  0  0  0  0
  -27.4008  -29.7254   25.4774 H   0  0  0  0  0  0
  -27.8838  -30.4248   23.9511 H   0  0  0  0  0  0
  -27.2678  -33.3673   26.2001 H   0  0  0  0  0  0
  -28.3922  -32.6785   25.0390 H   0  0  0  0  0  0
  -28.0626  -31.8489   26.5521 H   0  0  0  0  0  0
  -28.2512  -38.0153   24.7566 H   0  0  0  0  0  0
  -28.1153  -36.2687   24.6189 H   0  0  0  0  0  0
  -27.2313  -37.1318   25.8854 H   0  0  0  0  0  0
  -20.9397  -29.8798   21.6881 H   0  0  0  0  0  0
  -26.0127  -38.2818   24.1485 H   0  0  0  0  0  0
  -29.8465  -19.8506   19.4097 H   0  0  0  0  0  0
  -28.4259  -22.1553   22.7992 H   0  0  0  0  0  0
  -29.3759  -17.2072   23.8471 H   0  0  0  0  0  0
  -30.7803  -18.1598   24.3609 H   0  0  0  0  0  0
  -31.1994  -16.0218   22.7434 H   0  0  0  0  0  0
  -32.0995  -17.5041   22.5819 H   0  0  0  0  0  0
  -25.5224  -19.2831   24.5823 H   0  0  0  0  0  0
  -27.0137  -18.2698   24.9463 H   0  0  0  0  0  0
  -27.4028  -19.5936   27.0520 H   0  0  0  0  0  0
  -25.9093  -20.6032   26.6808 H   0  0  0  0  0  0
  -31.4302  -17.5853   20.4322 H   0  0  0  0  0  0
  -26.9103  -21.3517   24.5352 H   0  0  0  0  0  0
  -30.7235  -21.3877   25.1775 H   0  0  0  0  0  0
  -29.4892  -21.5879   26.4106 H   0  0  0  0  0  0
  -29.3672  -22.4779   24.9006 H   0  0  0  0  0  0
  -28.4581  -17.1840   19.1583 H   0  0  0  0  0  0
  -28.9546  -15.6176   18.5322 H   0  0  0  0  0  0
  -30.0805  -16.9458   18.5203 H   0  0  0  0  0  0
  -27.0923  -24.6292   20.2478 H   0  0  0  0  0  0
  -28.1650  -24.7730   18.8846 H   0  0  0  0  0  0
  -28.9097  -23.8472   21.7190 H   0  0  0  0  0  0
  -30.0768  -24.0540   20.4680 H   0  0  0  0  0  0
  -29.1920  -19.4524   25.2538 H   0  0  0  0  0  0
  -28.9335  -15.9344   21.1587 H   0  0  0  0  0  0
  1 25  1  0  0  0
  1 30  2  0  0  0
  1 88  1  0  0  0
  2  3  1  0  0  0
  2 25  1  0  0  0
  2 90  1  0  0  0
  2 91  1  0  0  0
  3  4  1  0  0  0
  3 92  1  0  0  0
  3 93  1  0  0  0
  4  5  1  0  0  0
  4 94  1  0  0  0
  4 95  1  0  0  0
  5  6  1  0  0  0
  5 26  1  0  0  0
  5 96  1  0  0  0
  6 25  1  0  0  0
  6 97  1  0  0  0
  6 98  1  0  0  0
  7  8  2  0  0  0
  7 26  1  0  0  0
  7 29  1  0  0  0
  8  9  1  0  0  0
  8 22  1  0  0  0
  9 10  1  0  0  0
  9 27  2  0  0  0
 10 11  2  0  0  0
 10 15  1  0  0  0
 11 12  1  0  0  0
 11 99  1  0  0  0
 12 13  2  0  0  0
 12100  1  0  0  0
 13 14  1  0  0  0
 13 31  1  0  0  0
 14 15  2  0  0  0
 14101  1  0  0  0
 15102  1  0  0  0
 16 17  2  0  0  0
 16 21  1  0  0  0
 16 31  1  0  0  0
 17 18  1  0  0  0
 17103  1  0  0  0
 18 19  2  0  0  0
 18104  1  0  0  0
 19 20  1  0  0  0
 19 24  1  0  0  0
 20 21  2  0  0  0
 20105  1  0  0  0
 21 23  1  0  0  0
 22 28  1  0  0  0
 22 32  2  0  0  0
 26 27  1  0  0  0
 28106  1  0  0  0
 28107  1  0  0  0
 29108  1  0  0  0
 29109  1  0  0  0
 33 34  1  0  0  0
 33 66  1  0  0  0
 33 70  2  0  0  0
 34 36  1  0  0  0
 34 59  1  0  0  0
 34110  1  0  0  0
 35 44  2  0  0  0
 35 45  1  0  0  0
 35 68  1  0  0  0
 36 56  1  0  0  0
 36111  1  0  0  0
 37 39  1  0  0  0
 37 47  1  0  0  0
 37 66  1  0  0  0
 37112  1  0  0  0
 38 43  2  0  0  0
 38 46  1  0  0  0
 38 47  1  0  0  0
 39 64  1  0  0  0
 39 67  2  0  0  0
 40 52  1  0  0  0
 40 53  2  0  0  0
 40 58  1  0  0  0
 41113  1  0  0  0
 41114  1  0  0  0
 41115  1  0  0  0
 41 48  1  0  0  0
 42 43  1  0  0  0
 42 66  1  0  0  0
 42116  1  0  0  0
 42117  1  0  0  0
 43 44  1  0  0  0
 44118  1  0  0  0
 45 46  2  0  0  0
 45119  1  0  0  0
 46120  1  0  0  0
 47121  1  0  0  0
 47122  1  0  0  0
 48 56  1  0  0  0
 48 65  1  0  0  0
 48123  1  0  0  0
 49 50  1  0  0  0
 49 53  1  0  0  0
 49 64  1  0  0  0
 49124  1  0  0  0
 50 51  1  0  0  0
 50125  1  0  0  0
 50126  1  0  0  0
 51 52  1  0  0  0
 51127  1  0  0  0
 51128  1  0  0  0
 52129  1  0  0  0
 52130  1  0  0  0
 53 54  1  0  0  0
 54 55  2  0  0  0
 54131  1  0  0  0
 55 57  1  0  0  0
 55132  1  0  0  0
 56 69  2  0  0  0
 57 58  2  0  0  0
 57133  1  0  0  0
 58134  1  0  0  0
 59 60  1  0  0  0
 59 61  1  0  0  0
 59 62  1  0  0  0
 60135  1  0  0  0
 60136  1  0  0  0
 60137  1  0  0  0
 61138  1  0  0  0
 61139  1  0  0  0
 61140  1  0  0  0
 62141  1  0  0  0
 62142  1  0  0  0
 62143  1  0  0  0
 63 65  1  0  0  0
 63144  1  0  0  0
 63145  1  0  0  0
 63146  1  0  0  0
 64147  1  0  0  0
 65148  1  0  0  0
 68 85  1  0  0  0
 71 73  2  0  0  0
 71 76  1  0  0  0
 71149  1  0  0  0
 72 75  1  0  0  0
 72 76  2  0  0  0
 72150  1  0  0  0
 73 74  1  0  0  0
 73 81  1  0  0  0
 74 75  2  0  0  0
 74 77  1  0  0  0
 75 87  1  0  0  0
 76 89  1  0  0  0
 77 78  1  0  0  0
 77151  1  0  0  0
 77152  1  0  0  0
 78153  1  0  0  0
 78154  1  0  0  0
 78 81  1  0  0  0
 79 80  1  0  0  0
 79155  1  0  0  0
 79156  1  0  0  0
 79 82  1  0  0  0
 80 82  1  0  0  0
 80157  1  0  0  0
 80158  1  0  0  0
 81 88  1  0  0  0
 81159  1  0  0  0
 82 87  1  0  0  0
 82160  1  0  0  0
 83161  1  0  0  0
 83162  1  0  0  0
 83163  1  0  0  0
 83 87  1  0  0  0
 84164  1  0  0  0
 84165  1  0  0  0
 84166  1  0  0  0
 84 88  1  0  0  0
 85 86  1  0  0  0
 85167  1  0  0  0
 85168  1  0  0  0
 86 89  1  0  0  0
 86169  1  0  0  0
 86170  1  0  0  0
 87171  1  0  0  0
 88172  1  0  0  0
M  ISO  4   1 100  68 101  85 101  88 100
M  END
> <chiral flag>
0

> <version>
0

> <s_m_source_file>
/data/baiqing/PycharmProjects/Reinvent-master-3.2/result/LINK_invent/BTK/process_docking_weight1_custom_sum_contain_oxygen_bond_distance_aromatic_linkinvent_7_9_3/rearranged_h_0147.sdf

> <i_m_source_file_index>
44

> <r_mmod_Potential_Energy-OPLS-2005>
286.119567871094

> <r_mmod_Stretch_Energy-OPLS-2005>
120.098739624023

> <r_mmod_Bend_Energy-OPLS-2005>
216.047271728516

> <r_mmod_Torsional_Energy-OPLS-2005>
252.751678466797

> <r_mmod_Improper_Torsional_Energy-OPLS-2005>
7.39737319946289

> <r_mmod_Van_der_Waal_Energy-OPLS-2005>
135.042343139648

> <r_mmod_Electrostatic_Energy-OPLS-2005>
-334.133911132812

> <r_mmod_Solvation_Energy-OPLS-2005>
-191.040466308594

> <b_mmod_Minimization_Converged-OPLS-2005>
0

> <r_mmod_RMS_Derivative-OPLS-2005>
2.22678685188293

$$$$
44
                    3D
 Structure written by MMmdl.
176187  0  0  1  0            999 V2000
  -29.4401  -13.0846   21.5123 C   0  0  0  0  0  0
  -30.6228  -12.5748   19.2596 C   0  0  0  0  0  0
  -29.8314  -12.8478   17.8905 C   0  0  0  0  0  0
  -28.2499  -13.0258   17.9482 C   0  0  0  0  0  0
  -27.8754  -13.3616   19.3625 C   0  0  2  0  0  0
  -28.5346  -12.0661   19.9052 C   0  0  0  0  0  0
  -25.5801  -14.5012   20.0186 C   0  0  0  0  0  0
  -24.4196  -13.8667   20.2544 C   0  0  0  0  0  0
  -25.1764  -12.6451   20.6317 C   0  0  0  0  0  0
  -24.3488  -10.5382   22.4013 C   0  0  0  0  0  0
  -24.7776   -9.1284   22.4985 C   0  0  0  0  0  0
  -24.0532   -7.9313   22.0923 C   0  0  0  0  0  0
  -22.7229   -7.9734   21.5916 C   0  0  0  0  0  0
  -22.1611   -9.2177   21.5996 C   0  0  0  0  0  0
  -22.8776  -10.0691   22.5228 C   0  0  0  0  0  0
  -21.7456   -6.0629   22.5128 C   0  0  0  0  0  0
  -21.4471   -6.5551   23.8083 C   0  0  0  0  0  0
  -21.3449   -5.6666   24.8985 C   0  0  0  0  0  0
  -21.5820   -4.2926   24.7087 C   0  0  0  0  0  0
  -21.8655   -3.7992   23.4212 C   0  0  0  0  0  0
  -21.9296   -4.6814   22.3285 C   0  0  0  0  0  0
  -22.8810  -14.3774   20.4304 C   0  0  0  0  0  0
  -22.1950   -4.2048   21.0895 F   0  0  0  0  0  0
  -21.5216   -3.4444   25.7603 F   0  0  0  0  0  0
  -29.7263  -12.4214   20.4135 N   0  0  0  0  0  0
  -26.5188  -13.5301   19.7360 N   0  0  0  0  0  0
  -25.8533  -12.5309   19.5067 N   0  0  0  0  0  0
  -21.8671  -13.9096   21.2394 N   0  0  0  0  0  0
  -25.9487  -15.7925   19.9150 N   0  0  0  0  0  0
  -30.2857  -14.0602   21.5692 O   0  0  0  0  0  0
  -21.8989   -6.8874   21.4209 O   0  0  0  0  0  0
  -22.5088  -15.3454   19.8454 O   0  0  0  0  0  0
  -24.6653  -31.8227   23.1749 C   0  0  0  0  0  0
  -25.9340  -32.4577   23.8167 C   0  0  1  0  0  0
  -26.8070  -26.6683   20.4460 C   0  0  0  0  0  0
  -25.5992  -33.8405   24.2067 N   0  0  0  0  0  0
  -23.4726  -30.4511   21.5252 C   0  0  2  0  0  0
  -24.8798  -28.8383   20.0893 C   0  0  0  0  0  0
  -22.7670  -29.4437   22.4724 C   0  0  0  0  0  0
  -18.0313  -28.1410   22.8472 C   0  0  0  0  0  0
  -24.1492  -36.7219   23.2641 C   0  0  0  0  0  0
  -26.0445  -30.5571   21.4384 C   0  0  0  0  0  0
  -26.0454  -29.1289   20.8063 C   0  0  0  0  0  0
  -27.0415  -28.0548   20.9520 C   0  0  0  0  0  0
  -25.7553  -26.6181   19.5257 C   0  0  0  0  0  0
  -24.7939  -27.6343   19.3849 C   0  0  0  0  0  0
  -23.7085  -29.8105   20.1296 C   0  0  0  0  0  0
  -25.4139  -36.3000   24.0302 C   0  0  1  0  0  0
  -20.5954  -28.3755   23.1184 C   0  0  2  0  0  0
  -20.6801  -26.9430   22.5415 C   0  0  0  0  0  0
  -19.5758  -26.6367   21.5239 C   0  0  0  0  0  0
  -18.1940  -26.7945   22.1638 C   0  0  0  0  0  0
  -19.1580  -28.8899   23.2816 C   0  0  0  0  0  0
  -18.9476  -30.1495   23.8844 C   0  0  0  0  0  0
  -17.6462  -30.6595   24.0554 C   0  0  0  0  0  0
  -25.9117  -34.9369   23.5023 C   0  0  0  0  0  0
  -16.5357  -29.9075   23.6348 C   0  0  0  0  0  0
  -16.7291  -28.6505   23.0355 C   0  0  0  0  0  0
  -26.4544  -31.6552   25.0725 C   0  0  0  0  0  0
  -25.3614  -31.3822   26.1336 C   0  0  0  0  0  0
  -27.0463  -30.2908   24.6564 C   0  0  0  0  0  0
  -27.6068  -32.4363   25.7480 C   0  0  0  0  0  0
  -27.5599  -37.1765   24.8455 C   0  0  0  0  0  0
  -21.4343  -29.3032   22.3511 N   0  0  0  0  0  0
  -26.4292  -37.3737   23.9424 N   0  0  0  0  0  0
  -24.7524  -30.9789   22.0951 N   0  0  0  0  0  0
  -23.4235  -28.7980   23.2940 O   0  0  0  0  0  0
  -27.3672  -25.3135   20.7939 O   0  0  0  0  0  0
  -26.5728  -34.8903   22.4630 O   0  0  0  0  0  0
  -23.5735  -32.1268   23.6776 O   0  0  0  0  0  0
  -23.1575  -11.7864   20.9331 C   0  0  0  0  0  0
  -25.5438  -12.5391   22.9532 C   0  0  0  0  0  0
  -23.8990  -12.8752   22.5152 C   0  0  0  0  0  0
  -24.3895  -10.5732   20.1409 C   0  0  0  0  0  0
  -26.6769  -11.5900   22.1023 C   0  0  0  0  0  0
  -23.0129  -14.5732   25.5503 C   0  0  0  0  0  0
  -23.9628  -13.4142   25.4927 C   0  0  0  0  0  0
  -25.8543  -20.8029   20.6588 C   0  0  0  0  0  0
  -25.6263  -21.4060   22.8322 C   0  0  0  0  0  0
  -26.7281  -22.2891   20.3741 C   0  0  0  0  0  0
  -26.4287  -22.9178   22.5190 C   0  0  0  0  0  0
  -23.1723  -16.0021   22.9468 C   0  0  0  0  0  0
  -24.2290  -14.6486   24.6356 C   0  0  0  0  0  0
  -25.7670  -19.8973   22.0776 C   0  0  1  0  0  0
  -24.4959  -16.4706   22.3794 C   0  0  2  0  0  0
  -26.5214  -23.8013   21.0899 C   0  0  1  0  0  0
  -24.0117  -14.7369   23.1056 C   0  0  1  0  0  0
  -24.0891   -9.7913   18.8784 C   0  0  0  0  0  0
  -24.7992  -18.3215   22.6591 C   0  0  0  0  0  0
  -26.0678  -10.5142   20.8337 N   0  0  0  0  0  0
  -28.1756  -12.4921   22.2725 N   0  0  0  0  0  0
  -31.3737  -13.3467   19.4360 H   0  0  0  0  0  0
  -31.1832  -11.6439   19.1656 H   0  0  0  0  0  0
  -30.0809  -12.0599   17.1815 H   0  0  0  0  0  0
  -30.2598  -13.7430   17.4477 H   0  0  0  0  0  0
  -27.7329  -12.1442   17.5632 H   0  0  0  0  0  0
  -27.9495  -13.8397   17.2852 H   0  0  0  0  0  0
  -28.3628  -14.3112   19.5846 H   0  0  0  0  0  0
  -28.7255  -11.2647   19.1768 H   0  0  0  0  0  0
  -28.0998  -11.2275   20.3569 H   0  0  0  0  0  0
  -25.8349   -8.9476   22.6514 H   0  0  0  0  0  0
  -24.5571   -6.9794   22.1694 H   0  0  0  0  0  0
  -21.0921   -9.3278   21.4645 H   0  0  0  0  0  0
  -22.1927  -10.8233   22.8887 H   0  0  0  0  0  0
  -21.3327   -7.6171   23.9782 H   0  0  0  0  0  0
  -21.1026   -6.0334   25.8885 H   0  0  0  0  0  0
  -22.0452   -2.7472   23.2623 H   0  0  0  0  0  0
  -21.9966  -12.9967   21.6589 H   0  0  0  0  0  0
  -20.9502  -14.3365   21.2136 H   0  0  0  0  0  0
  -25.2968  -16.5671   19.9313 H   0  0  0  0  0  0
  -26.8529  -16.0717   19.5477 H   0  0  0  0  0  0
  -26.7370  -32.5018   23.0828 H   0  0  0  0  0  0
  -25.0064  -33.9476   25.0165 H   0  0  0  0  0  0
  -22.7881  -31.2886   21.3772 H   0  0  0  0  0  0
  -23.3810  -35.9492   23.3230 H   0  0  0  0  0  0
  -24.3575  -36.8943   22.2073 H   0  0  0  0  0  0
  -23.7165  -37.6355   23.6730 H   0  0  0  0  0  0
  -26.2567  -31.2700   20.6393 H   0  0  0  0  0  0
  -26.9073  -30.6053   22.0911 H   0  0  0  0  0  0
  -27.8867  -28.2277   21.6053 H   0  0  0  0  0  0
  -25.5501  -25.6788   19.0334 H   0  0  0  0  0  0
  -23.9294  -27.4376   18.7684 H   0  0  0  0  0  0
  -23.9061  -30.5944   19.3978 H   0  0  0  0  0  0
  -22.8021  -29.3081   19.7886 H   0  0  0  0  0  0
  -25.1323  -36.1828   25.0790 H   0  0  0  0  0  0
  -21.0020  -28.3370   24.1317 H   0  0  0  0  0  0
  -20.5727  -26.2354   23.3652 H   0  0  0  0  0  0
  -21.6650  -26.7427   22.1182 H   0  0  0  0  0  0
  -19.6909  -25.6265   21.1291 H   0  0  0  0  0  0
  -19.6698  -27.3163   20.6757 H   0  0  0  0  0  0
  -17.4221  -26.6705   21.4034 H   0  0  0  0  0  0
  -18.0304  -26.0108   22.9042 H   0  0  0  0  0  0
  -19.7938  -30.7339   24.2200 H   0  0  0  0  0  0
  -17.4992  -31.6265   24.5170 H   0  0  0  0  0  0
  -15.5350  -30.2938   23.7694 H   0  0  0  0  0  0
  -15.8701  -28.0793   22.7086 H   0  0  0  0  0  0
  -24.5832  -30.7162   25.7585 H   0  0  0  0  0  0
  -24.8730  -32.3010   26.4594 H   0  0  0  0  0  0
  -25.7747  -30.9058   27.0231 H   0  0  0  0  0  0
  -26.3147  -29.6535   24.1584 H   0  0  0  0  0  0
  -27.3953  -29.7349   25.5275 H   0  0  0  0  0  0
  -27.9114  -30.4085   24.0040 H   0  0  0  0  0  0
  -27.2715  -33.3762   26.1877 H   0  0  0  0  0  0
  -28.3919  -32.6762   25.0296 H   0  0  0  0  0  0
  -28.0686  -31.8596   26.5505 H   0  0  0  0  0  0
  -28.2557  -38.0122   24.7608 H   0  0  0  0  0  0
  -28.1161  -36.2665   24.6162 H   0  0  0  0  0  0
  -27.2327  -37.1260   25.8852 H   0  0  0  0  0  0
  -20.9587  -29.8740   21.6662 H   0  0  0  0  0  0
  -26.0164  -38.2807   24.1440 H   0  0  0  0  0  0
  -22.1997  -11.8072   20.4318 H   0  0  0  0  0  0
  -26.0050  -13.2614   23.6143 H   0  0  0  0  0  0
  -23.0011  -15.1574   26.4701 H   0  0  0  0  0  0
  -22.0396  -14.4431   25.0777 H   0  0  0  0  0  0
  -23.5706  -12.5037   25.0449 H   0  0  0  0  0  0
  -24.6154  -13.2475   26.3498 H   0  0  0  0  0  0
  -26.2447  -20.1070   19.9152 H   0  0  0  0  0  0
  -24.8278  -20.9871   20.3376 H   0  0  0  0  0  0
  -24.5609  -21.6377   22.8132 H   0  0  0  0  0  0
  -25.8183  -21.2068   23.8863 H   0  0  0  0  0  0
  -26.6598  -22.4731   19.3020 H   0  0  0  0  0  0
  -27.7839  -22.0442   20.5190 H   0  0  0  0  0  0
  -27.4572  -22.7848   22.8546 H   0  0  0  0  0  0
  -26.0158  -23.6118   23.2524 H   0  0  0  0  0  0
  -22.3010  -16.0443   22.3092 H   0  0  0  0  0  0
  -22.9430  -16.5458   23.8607 H   0  0  0  0  0  0
  -25.0149  -15.3053   25.0078 H   0  0  0  0  0  0
  -26.7995  -19.5898   22.2498 H   0  0  0  0  0  0
  -24.3081  -16.5162   21.3308 H   0  0  0  0  0  0
  -25.4913  -24.0816   20.8690 H   0  0  0  0  0  0
  -23.1886   -9.1918   19.0050 H   0  0  0  0  0  0
  -24.9313   -9.1465   18.6196 H   0  0  0  0  0  0
  -23.9406  -10.4920   18.0602 H   0  0  0  0  0  0
  -23.7786  -18.6987   22.6798 H   0  0  0  0  0  0
  -25.0845  -18.3033   23.7099 H   0  0  0  0  0  0
  -28.1637  -12.9786   23.1553 H   0  0  0  0  0  0
  1 25  1  0  0  0
  1 30  2  0  0  0
  1 91  1  0  0  0
  2  3  1  0  0  0
  2 25  1  0  0  0
  2 92  1  0  0  0
  2 93  1  0  0  0
  3  4  1  0  0  0
  3 94  1  0  0  0
  3 95  1  0  0  0
  4  5  1  0  0  0
  4 96  1  0  0  0
  4 97  1  0  0  0
  5  6  1  0  0  0
  5 26  1  0  0  0
  5 98  1  0  0  0
  6 25  1  0  0  0
  6 99  1  0  0  0
  6100  1  0  0  0
  7  8  2  0  0  0
  7 26  1  0  0  0
  7 29  1  0  0  0
  8  9  1  0  0  0
  8 22  1  0  0  0
  9 10  1  0  0  0
  9 27  2  0  0  0
 10 11  2  0  0  0
 10 15  1  0  0  0
 11 12  1  0  0  0
 11101  1  0  0  0
 12 13  2  0  0  0
 12102  1  0  0  0
 13 14  1  0  0  0
 13 31  1  0  0  0
 14 15  2  0  0  0
 14103  1  0  0  0
 15104  1  0  0  0
 16 17  2  0  0  0
 16 21  1  0  0  0
 16 31  1  0  0  0
 17 18  1  0  0  0
 17105  1  0  0  0
 18 19  2  0  0  0
 18106  1  0  0  0
 19 20  1  0  0  0
 19 24  1  0  0  0
 20 21  2  0  0  0
 20107  1  0  0  0
 21 23  1  0  0  0
 22 28  1  0  0  0
 22 32  2  0  0  0
 26 27  1  0  0  0
 28108  1  0  0  0
 28109  1  0  0  0
 29110  1  0  0  0
 29111  1  0  0  0
 33 34  1  0  0  0
 33 66  1  0  0  0
 33 70  2  0  0  0
 34 36  1  0  0  0
 34 59  1  0  0  0
 34112  1  0  0  0
 35 44  2  0  0  0
 35 45  1  0  0  0
 35 68  1  0  0  0
 36 56  1  0  0  0
 36113  1  0  0  0
 37 39  1  0  0  0
 37 47  1  0  0  0
 37 66  1  0  0  0
 37114  1  0  0  0
 38 43  2  0  0  0
 38 46  1  0  0  0
 38 47  1  0  0  0
 39 64  1  0  0  0
 39 67  2  0  0  0
 40 52  1  0  0  0
 40 53  2  0  0  0
 40 58  1  0  0  0
 41115  1  0  0  0
 41116  1  0  0  0
 41117  1  0  0  0
 41 48  1  0  0  0
 42 43  1  0  0  0
 42 66  1  0  0  0
 42118  1  0  0  0
 42119  1  0  0  0
 43 44  1  0  0  0
 44120  1  0  0  0
 45 46  2  0  0  0
 45121  1  0  0  0
 46122  1  0  0  0
 47123  1  0  0  0
 47124  1  0  0  0
 48 56  1  0  0  0
 48 65  1  0  0  0
 48125  1  0  0  0
 49 50  1  0  0  0
 49 53  1  0  0  0
 49 64  1  0  0  0
 49126  1  0  0  0
 50 51  1  0  0  0
 50127  1  0  0  0
 50128  1  0  0  0
 51 52  1  0  0  0
 51129  1  0  0  0
 51130  1  0  0  0
 52131  1  0  0  0
 52132  1  0  0  0
 53 54  1  0  0  0
 54 55  2  0  0  0
 54133  1  0  0  0
 55 57  1  0  0  0
 55134  1  0  0  0
 56 69  2  0  0  0
 57 58  2  0  0  0
 57135  1  0  0  0
 58136  1  0  0  0
 59 60  1  0  0  0
 59 61  1  0  0  0
 59 62  1  0  0  0
 60137  1  0  0  0
 60138  1  0  0  0
 60139  1  0  0  0
 61140  1  0  0  0
 61141  1  0  0  0
 61142  1  0  0  0
 62143  1  0  0  0
 62144  1  0  0  0
 62145  1  0  0  0
 63 65  1  0  0  0
 63146  1  0  0  0
 63147  1  0  0  0
 63148  1  0  0  0
 64149  1  0  0  0
 65150  1  0  0  0
 68 86  1  0  0  0
 71 73  2  0  0  0
 71 74  1  0  0  0
 71151  1  0  0  0
 72 73  1  0  0  0
 72 75  2  0  0  0
 72152  1  0  0  0
 73 87  1  0  0  0
 74 88  1  0  0  0
 74 90  2  0  0  0
 75 90  1  0  0  0
 75 91  1  0  0  0
 76 77  1  0  0  0
 76153  1  0  0  0
 76154  1  0  0  0
 76 83  1  0  0  0
 77 83  1  0  0  0
 77155  1  0  0  0
 77156  1  0  0  0
 78 80  1  0  0  0
 78 84  1  0  0  0
 78157  1  0  0  0
 78158  1  0  0  0
 79 81  1  0  0  0
 79 84  1  0  0  0
 79159  1  0  0  0
 79160  1  0  0  0
 80 86  1  0  0  0
 80161  1  0  0  0
 80162  1  0  0  0
 81 86  1  0  0  0
 81163  1  0  0  0
 81164  1  0  0  0
 82 85  1  0  0  0
 82 87  1  0  0  0
 82165  1  0  0  0
 82166  1  0  0  0
 83 87  1  0  0  0
 83167  1  0  0  0
 84 89  1  0  0  0
 84168  1  0  0  0
 85 87  1  0  0  0
 85 89  1  0  0  0
 85169  1  0  0  0
 86170  1  0  0  0
 88171  1  0  0  0
 88172  1  0  0  0
 88173  1  0  0  0
 89174  1  0  0  0
 89175  1  0  0  0
 91176  1  0  0  0
M  ISO  4   1 100  68 101  86 101  91 100
M  END
> <chiral flag>
0

> <version>
0

> <s_m_source_file>
/data/baiqing/PycharmProjects/Reinvent-master-3.2/result/LINK_invent/BTK/process_docking_weight1_custom_sum_contain_oxygen_bond_distance_aromatic_linkinvent_7_9_3/rearranged_h_0147.sdf

> <i_m_source_file_index>
45

> <r_mmod_Potential_Energy-OPLS-2005>
16138.720703125

> <r_mmod_Stretch_Energy-OPLS-2005>
7180.69482421875

> <r_mmod_Bend_Energy-OPLS-2005>
1515.83666992188

> <r_mmod_Torsional_Energy-OPLS-2005>
813.016906738281

> <r_mmod_Improper_Torsional_Energy-OPLS-2005>
71.6803970336914

> <r_mmod_Van_der_Waal_Energy-OPLS-2005>
3248.2919921875

> <r_mmod_Electrostatic_Energy-OPLS-2005>
-513.573852539062

> <r_mmod_Solvation_Energy-OPLS-2005>
-200.554382324219

> <b_mmod_Minimization_Converged-OPLS-2005>
0

> <r_mmod_RMS_Derivative-OPLS-2005>
13.5677700042725

$$$$
45
                    3D
 Structure written by MMmdl.
163171  0  0  1  0            999 V2000
  -30.7339  -14.4114   20.5439 C   0  0  0  0  0  0
  -30.4303  -12.2710   19.3938 C   0  0  0  0  0  0
  -29.4859  -12.4974   18.1956 C   0  0  0  0  0  0
  -28.0103  -12.3707   18.6249 C   0  0  0  0  0  0
  -27.6711  -13.2035   19.8908 C   0  0  2  0  0  0
  -28.7258  -12.9529   20.9968 C   0  0  0  0  0  0
  -25.2628  -13.8167   20.5701 C   0  0  0  0  0  0
  -24.1822  -13.0461   20.9151 C   0  0  0  0  0  0
  -24.6371  -11.6936   20.8740 C   0  0  0  0  0  0
  -23.9049  -10.4285   21.0417 C   0  0  0  0  0  0
  -24.3580   -9.4172   21.9176 C   0  0  0  0  0  0
  -23.6252   -8.2211   22.0751 C   0  0  0  0  0  0
  -22.4232   -8.0238   21.3554 C   0  0  0  0  0  0
  -21.9895   -9.0230   20.4651 C   0  0  0  0  0  0
  -22.7240  -10.2107   20.3067 C   0  0  0  0  0  0
  -21.6813   -6.0686   22.5299 C   0  0  0  0  0  0
  -21.3988   -6.5602   23.8232 C   0  0  0  0  0  0
  -21.3680   -5.6764   24.9186 C   0  0  0  0  0  0
  -21.6044   -4.3034   24.7236 C   0  0  0  0  0  0
  -21.8822   -3.8108   23.4365 C   0  0  0  0  0  0
  -21.9181   -4.6915   22.3406 C   0  0  0  0  0  0
  -22.7843  -13.5315   21.1803 C   0  0  0  0  0  0
  -22.1641   -4.2099   21.0987 F   0  0  0  0  0  0
  -21.5632   -3.4519   25.7753 F   0  0  0  0  0  0
  -30.0632  -13.2368   20.4396 N   0  0  0  0  0  0
  -26.3076  -12.9322   20.3478 N   0  0  0  0  0  0
  -25.9297  -11.6479   20.5800 N   0  0  0  0  0  0
  -22.0476  -12.8316   22.0360 N   0  0  0  0  0  0
  -25.4421  -15.1877   20.4168 N   0  0  0  0  0  0
  -31.8387  -14.5995   20.0341 O   0  0  0  0  0  0
  -21.6627   -6.8815   21.4243 O   0  0  0  0  0  0
  -22.3549  -14.5650   20.6677 O   0  0  0  0  0  0
  -24.6104  -31.8697   23.2097 C   0  0  0  0  0  0
  -25.9018  -32.4820   23.8404 C   0  0  1  0  0  0
  -27.2410  -27.4537   20.1057 C   0  0  0  0  0  0
  -25.5907  -33.8624   24.2360 N   0  0  0  0  0  0
  -23.3988  -30.4905   21.5483 C   0  0  2  0  0  0
  -24.8522  -28.9564   20.1164 C   0  0  0  0  0  0
  -22.7383  -29.4662   22.4985 C   0  0  0  0  0  0
  -18.0265  -28.1344   22.8324 C   0  0  0  0  0  0
  -24.1487  -36.7310   23.2641 C   0  0  0  0  0  0
  -25.9259  -30.8386   21.3666 C   0  0  0  0  0  0
  -26.0059  -29.4687   20.7237 C   0  0  0  0  0  0
  -27.2018  -28.7219   20.7282 C   0  0  0  0  0  0
  -26.0789  -26.9483   19.4926 C   0  0  0  0  0  0
  -24.8800  -27.6907   19.5030 C   0  0  0  0  0  0
  -23.6091  -29.8171   20.1633 C   0  0  0  0  0  0
  -25.4100  -36.3112   24.0355 C   0  0  1  0  0  0
  -20.5829  -28.3595   23.1189 C   0  0  2  0  0  0
  -20.6796  -26.9346   22.5180 C   0  0  0  0  0  0
  -19.5683  -26.6063   21.5111 C   0  0  0  0  0  0
  -18.1846  -26.7852   22.1473 C   0  0  0  0  0  0
  -19.1522  -28.8777   23.2754 C   0  0  0  0  0  0
  -18.9459  -30.1375   23.8813 C   0  0  0  0  0  0
  -17.6494  -30.6499   24.0621 C   0  0  0  0  0  0
  -25.9033  -34.9463   23.5144 C   0  0  0  0  0  0
  -16.5374  -29.9019   23.6396 C   0  0  0  0  0  0
  -16.7278  -28.6524   23.0222 C   0  0  0  0  0  0
  -26.4455  -31.6606   25.0740 C   0  0  0  0  0  0
  -25.3744  -31.3724   26.1510 C   0  0  0  0  0  0
  -27.0304  -30.3057   24.6132 C   0  0  0  0  0  0
  -27.6032  -32.4311   25.7520 C   0  0  0  0  0  0
  -27.5582  -37.1827   24.8470 C   0  0  0  0  0  0
  -21.4103  -29.3094   22.3719 N   0  0  0  0  0  0
  -26.4288  -37.3791   23.9413 N   0  0  0  0  0  0
  -24.6630  -31.0820   22.0996 N   0  0  0  0  0  0
  -23.4153  -28.8175   23.2985 O   0  0  0  0  0  0
  -28.3932  -26.7095   20.0308 O   0  0  0  0  0  0
  -26.5564  -34.8931   22.4699 O   0  0  0  0  0  0
  -23.5296  -32.1454   23.7498 O   0  0  0  0  0  0
  -28.8823  -20.1749   21.3809 C   0  0  0  0  0  0
  -27.5819  -21.2062   19.6381 C   0  0  0  0  0  0
  -28.5083  -18.9178   20.8552 C   0  0  0  0  0  0
  -28.3870  -21.3638   20.7918 C   0  0  0  0  0  0
  -27.6378  -18.8905   19.7517 C   0  0  0  0  0  0
  -31.3837  -17.5117   20.6444 C   0  0  0  0  0  0
  -26.3713  -17.6714   18.1184 C   0  0  0  0  0  0
  -28.9572  -17.6006   21.4818 C   0  0  0  0  0  0
  -28.1991  -24.9738   21.7663 C   0  0  0  0  0  0
  -28.9237  -26.2409   21.2688 C   0  0  0  0  0  0
  -28.2115  -23.7901   20.7725 C   0  0  0  0  0  0
  -30.0027  -16.8194   20.6419 C   0  0  1  0  0  0
  -27.2111  -20.0116   19.1365 N   0  0  0  0  0  0
  -30.0217  -15.4130   21.0791 N   0  0  0  0  0  0
  -28.6839  -22.5807   21.3877 O   0  0  0  0  0  0
  -27.1916  -17.6745   19.2819 O   0  0  0  0  0  0
  -31.4709  -12.3573   19.0748 H   0  0  0  0  0  0
  -30.3278  -11.2550   19.7720 H   0  0  0  0  0  0
  -29.7061  -11.7848   17.3992 H   0  0  0  0  0  0
  -29.6500  -13.4867   17.7704 H   0  0  0  0  0  0
  -27.8119  -11.3148   18.8111 H   0  0  0  0  0  0
  -27.3546  -12.6653   17.8063 H   0  0  0  0  0  0
  -27.7153  -14.2582   19.6164 H   0  0  0  0  0  0
  -28.6890  -11.9116   21.3246 H   0  0  0  0  0  0
  -28.5132  -13.5556   21.8798 H   0  0  0  0  0  0
  -25.2707   -9.5621   22.4741 H   0  0  0  0  0  0
  -23.9968   -7.4605   22.7485 H   0  0  0  0  0  0
  -21.0828   -8.8744   19.8925 H   0  0  0  0  0  0
  -22.3726  -10.9619   19.6147 H   0  0  0  0  0  0
  -21.1968   -7.6110   23.9714 H   0  0  0  0  0  0
  -21.1532   -6.0491   25.9108 H   0  0  0  0  0  0
  -22.0597   -2.7559   23.2883 H   0  0  0  0  0  0
  -22.4179  -11.9985   22.4661 H   0  0  0  0  0  0
  -21.1096  -13.1273   22.2688 H   0  0  0  0  0  0
  -24.6809  -15.8442   20.5490 H   0  0  0  0  0  0
  -26.2922  -15.6343   20.0900 H   0  0  0  0  0  0
  -26.7111  -32.5552   23.1194 H   0  0  0  0  0  0
  -25.0094  -33.9777   25.0528 H   0  0  0  0  0  0
  -22.6858  -31.3045   21.4027 H   0  0  0  0  0  0
  -23.3737  -35.9651   23.3306 H   0  0  0  0  0  0
  -24.3596  -36.8910   22.2057 H   0  0  0  0  0  0
  -23.7254  -37.6535   23.6625 H   0  0  0  0  0  0
  -26.0422  -31.5987   20.5921 H   0  0  0  0  0  0
  -26.8138  -30.8952   21.9858 H   0  0  0  0  0  0
  -28.0897  -29.1201   21.1938 H   0  0  0  0  0  0
  -26.0991  -25.9793   19.0147 H   0  0  0  0  0  0
  -23.9946  -27.2881   19.0291 H   0  0  0  0  0  0
  -23.7123  -30.5873   19.3970 H   0  0  0  0  0  0
  -22.7376  -29.2274   19.8689 H   0  0  0  0  0  0
  -25.1272  -36.1987   25.0844 H   0  0  0  0  0  0
  -20.9855  -28.3041   24.1308 H   0  0  0  0  0  0
  -20.5878  -26.2172   23.3347 H   0  0  0  0  0  0
  -21.6709  -26.7564   22.0940 H   0  0  0  0  0  0
  -19.6708  -25.5778   21.1601 H   0  0  0  0  0  0
  -19.6594  -27.2349   20.6248 H   0  0  0  0  0  0
  -17.4106  -26.6661   21.3847 H   0  0  0  0  0  0
  -18.0123  -25.9995   22.8852 H   0  0  0  0  0  0
  -19.7937  -30.7185   24.2209 H   0  0  0  0  0  0
  -17.5055  -31.6134   24.5329 H   0  0  0  0  0  0
  -15.5377  -30.2877   23.7841 H   0  0  0  0  0  0
  -15.8702  -28.0930   22.6809 H   0  0  0  0  0  0
  -24.5873  -30.7119   25.7869 H   0  0  0  0  0  0
  -24.8988  -32.2890   26.5000 H   0  0  0  0  0  0
  -25.8123  -30.8869   27.0244 H   0  0  0  0  0  0
  -26.2876  -29.6822   24.1154 H   0  0  0  0  0  0
  -27.4056  -29.7295   25.4601 H   0  0  0  0  0  0
  -27.8698  -30.4389   23.9303 H   0  0  0  0  0  0
  -27.2630  -33.3554   26.2194 H   0  0  0  0  0  0
  -28.3801  -32.6975   25.0347 H   0  0  0  0  0  0
  -28.0737  -31.8389   26.5374 H   0  0  0  0  0  0
  -28.2612  -38.0112   24.7488 H   0  0  0  0  0  0
  -28.1074  -36.2656   24.6308 H   0  0  0  0  0  0
  -27.2310  -37.1483   25.8876 H   0  0  0  0  0  0
  -20.9306  -29.8945   21.7017 H   0  0  0  0  0  0
  -26.0185  -38.2880   24.1388 H   0  0  0  0  0  0
  -29.5138  -20.2305   22.2556 H   0  0  0  0  0  0
  -27.1693  -22.0412   19.0942 H   0  0  0  0  0  0
  -31.2958  -18.5426   20.3040 H   0  0  0  0  0  0
  -31.8584  -17.5142   21.6244 H   0  0  0  0  0  0
  -32.0608  -17.0320   19.9411 H   0  0  0  0  0  0
  -26.2861  -16.6559   17.7350 H   0  0  0  0  0  0
  -26.8135  -18.2729   17.3207 H   0  0  0  0  0  0
  -25.3685  -18.0385   18.3426 H   0  0  0  0  0  0
  -28.0566  -16.9937   21.5876 H   0  0  0  0  0  0
  -29.3013  -17.7502   22.5067 H   0  0  0  0  0  0
  -27.1621  -25.2207   22.0068 H   0  0  0  0  0  0
  -28.6515  -24.6714   22.7127 H   0  0  0  0  0  0
  -29.9763  -26.0060   21.1161 H   0  0  0  0  0  0
  -28.8987  -27.0193   22.0334 H   0  0  0  0  0  0
  -28.8465  -24.0159   19.9126 H   0  0  0  0  0  0
  -27.1911  -23.6942   20.4024 H   0  0  0  0  0  0
  -29.6600  -16.7889   19.6041 H   0  0  0  0  0  0
  -29.1901  -15.0995   21.5589 H   0  0  0  0  0  0
  1 25  1  0  0  0
  1 30  2  0  0  0
  1 84  1  0  0  0
  2  3  1  0  0  0
  2 25  1  0  0  0
  2 87  1  0  0  0
  2 88  1  0  0  0
  3  4  1  0  0  0
  3 89  1  0  0  0
  3 90  1  0  0  0
  4  5  1  0  0  0
  4 91  1  0  0  0
  4 92  1  0  0  0
  5  6  1  0  0  0
  5 26  1  0  0  0
  5 93  1  0  0  0
  6 25  1  0  0  0
  6 94  1  0  0  0
  6 95  1  0  0  0
  7  8  2  0  0  0
  7 26  1  0  0  0
  7 29  1  0  0  0
  8  9  1  0  0  0
  8 22  1  0  0  0
  9 10  1  0  0  0
  9 27  2  0  0  0
 10 11  2  0  0  0
 10 15  1  0  0  0
 11 12  1  0  0  0
 11 96  1  0  0  0
 12 13  2  0  0  0
 12 97  1  0  0  0
 13 14  1  0  0  0
 13 31  1  0  0  0
 14 15  2  0  0  0
 14 98  1  0  0  0
 15 99  1  0  0  0
 16 17  2  0  0  0
 16 21  1  0  0  0
 16 31  1  0  0  0
 17 18  1  0  0  0
 17100  1  0  0  0
 18 19  2  0  0  0
 18101  1  0  0  0
 19 20  1  0  0  0
 19 24  1  0  0  0
 20 21  2  0  0  0
 20102  1  0  0  0
 21 23  1  0  0  0
 22 28  1  0  0  0
 22 32  2  0  0  0
 26 27  1  0  0  0
 28103  1  0  0  0
 28104  1  0  0  0
 29105  1  0  0  0
 29106  1  0  0  0
 33 34  1  0  0  0
 33 66  1  0  0  0
 33 70  2  0  0  0
 34 36  1  0  0  0
 34 59  1  0  0  0
 34107  1  0  0  0
 35 44  2  0  0  0
 35 45  1  0  0  0
 35 68  1  0  0  0
 36 56  1  0  0  0
 36108  1  0  0  0
 37 39  1  0  0  0
 37 47  1  0  0  0
 37 66  1  0  0  0
 37109  1  0  0  0
 38 43  2  0  0  0
 38 46  1  0  0  0
 38 47  1  0  0  0
 39 64  1  0  0  0
 39 67  2  0  0  0
 40 52  1  0  0  0
 40 53  2  0  0  0
 40 58  1  0  0  0
 41110  1  0  0  0
 41111  1  0  0  0
 41112  1  0  0  0
 41 48  1  0  0  0
 42 43  1  0  0  0
 42 66  1  0  0  0
 42113  1  0  0  0
 42114  1  0  0  0
 43 44  1  0  0  0
 44115  1  0  0  0
 45 46  2  0  0  0
 45116  1  0  0  0
 46117  1  0  0  0
 47118  1  0  0  0
 47119  1  0  0  0
 48 56  1  0  0  0
 48 65  1  0  0  0
 48120  1  0  0  0
 49 50  1  0  0  0
 49 53  1  0  0  0
 49 64  1  0  0  0
 49121  1  0  0  0
 50 51  1  0  0  0
 50122  1  0  0  0
 50123  1  0  0  0
 51 52  1  0  0  0
 51124  1  0  0  0
 51125  1  0  0  0
 52126  1  0  0  0
 52127  1  0  0  0
 53 54  1  0  0  0
 54 55  2  0  0  0
 54128  1  0  0  0
 55 57  1  0  0  0
 55129  1  0  0  0
 56 69  2  0  0  0
 57 58  2  0  0  0
 57130  1  0  0  0
 58131  1  0  0  0
 59 60  1  0  0  0
 59 61  1  0  0  0
 59 62  1  0  0  0
 60132  1  0  0  0
 60133  1  0  0  0
 60134  1  0  0  0
 61135  1  0  0  0
 61136  1  0  0  0
 61137  1  0  0  0
 62138  1  0  0  0
 62139  1  0  0  0
 62140  1  0  0  0
 63 65  1  0  0  0
 63141  1  0  0  0
 63142  1  0  0  0
 63143  1  0  0  0
 64144  1  0  0  0
 65145  1  0  0  0
 68 80  1  0  0  0
 71 73  2  0  0  0
 71 74  1  0  0  0
 71146  1  0  0  0
 72 74  2  0  0  0
 72 83  1  0  0  0
 72147  1  0  0  0
 73 75  1  0  0  0
 73 78  1  0  0  0
 74 85  1  0  0  0
 75 83  2  0  0  0
 75 86  1  0  0  0
 76148  1  0  0  0
 76149  1  0  0  0
 76150  1  0  0  0
 76 82  1  0  0  0
 77 86  1  0  0  0
 77151  1  0  0  0
 77152  1  0  0  0
 77153  1  0  0  0
 78 82  1  0  0  0
 78154  1  0  0  0
 78155  1  0  0  0
 79 80  1  0  0  0
 79 81  1  0  0  0
 79156  1  0  0  0
 79157  1  0  0  0
 80158  1  0  0  0
 80159  1  0  0  0
 81 85  1  0  0  0
 81160  1  0  0  0
 81161  1  0  0  0
 82 84  1  0  0  0
 82162  1  0  0  0
 84163  1  0  0  0
M  ISO  4   1 100  68 101  80 101  84 100
M  END
> <chiral flag>
0

> <version>
0

> <s_m_source_file>
/data/baiqing/PycharmProjects/Reinvent-master-3.2/result/LINK_invent/BTK/process_docking_weight1_custom_sum_contain_oxygen_bond_distance_aromatic_linkinvent_7_9_3/rearranged_h_0147.sdf

> <i_m_source_file_index>
46

> <r_mmod_Potential_Energy-OPLS-2005>
-237.795150756836

> <r_mmod_Stretch_Energy-OPLS-2005>
36.9205665588379

> <r_mmod_Bend_Energy-OPLS-2005>
110.167358398438

> <r_mmod_Torsional_Energy-OPLS-2005>
230.562805175781

> <r_mmod_Improper_Torsional_Energy-OPLS-2005>
5.97324275970459

> <r_mmod_Van_der_Waal_Energy-OPLS-2005>
160.27278137207

> <r_mmod_Electrostatic_Energy-OPLS-2005>
-579.246643066406

> <r_mmod_Solvation_Energy-OPLS-2005>
-212.299880981445

> <b_mmod_Minimization_Converged-OPLS-2005>
0

> <r_mmod_RMS_Derivative-OPLS-2005>
6.97349214553833

$$$$
46
                    3D
 Structure written by MMmdl.
166174  0  0  1  0            999 V2000
  -30.7584  -14.4948   20.5176 C   0  0  0  0  0  0
  -30.3887  -12.3161   19.4512 C   0  0  0  0  0  0
  -29.5125  -12.5126   18.1897 C   0  0  0  0  0  0
  -28.0236  -12.8097   18.4943 C   0  0  0  0  0  0
  -27.7020  -12.7435   19.9867 C   0  0  2  0  0  0
  -28.7118  -13.1661   21.0539 C   0  0  0  0  0  0
  -25.3048  -13.7501   20.5546 C   0  0  0  0  0  0
  -24.1792  -13.0406   20.9096 C   0  0  0  0  0  0
  -24.5650  -11.6711   20.8917 C   0  0  0  0  0  0
  -23.8380  -10.4241   21.0658 C   0  0  0  0  0  0
  -24.3185   -9.4159   21.9307 C   0  0  0  0  0  0
  -23.6079   -8.2078   22.0726 C   0  0  0  0  0  0
  -22.4086   -8.0097   21.3518 C   0  0  0  0  0  0
  -21.9593   -9.0044   20.4660 C   0  0  0  0  0  0
  -22.6697  -10.2034   20.3174 C   0  0  0  0  0  0
  -21.6745   -6.0605   22.5282 C   0  0  0  0  0  0
  -21.3940   -6.5567   23.8197 C   0  0  0  0  0  0
  -21.3633   -5.6759   24.9187 C   0  0  0  0  0  0
  -21.6013   -4.3019   24.7263 C   0  0  0  0  0  0
  -21.8831   -3.8071   23.4407 C   0  0  0  0  0  0
  -21.9160   -4.6849   22.3442 C   0  0  0  0  0  0
  -22.7934  -13.5535   21.1718 C   0  0  0  0  0  0
  -22.1650   -4.2059   21.1018 F   0  0  0  0  0  0
  -21.5650   -3.4528   25.7797 F   0  0  0  0  0  0
  -30.0441  -13.3452   20.4484 N   0  0  0  0  0  0
  -26.2976  -12.7829   20.3672 N   0  0  0  0  0  0
  -25.8263  -11.5519   20.5994 N   0  0  0  0  0  0
  -22.0443  -12.8625   22.0257 N   0  0  0  0  0  0
  -25.5503  -15.1077   20.3730 N   0  0  0  0  0  0
  -31.8664  -14.6500   20.0088 O   0  0  0  0  0  0
  -21.6522   -6.8685   21.4196 O   0  0  0  0  0  0
  -22.3787  -14.5887   20.6545 O   0  0  0  0  0  0
  -24.6125  -31.8693   23.2121 C   0  0  0  0  0  0
  -25.9047  -32.4819   23.8398 C   0  0  1  0  0  0
  -27.2392  -27.4551   20.0946 C   0  0  0  0  0  0
  -25.5909  -33.8614   24.2350 N   0  0  0  0  0  0
  -23.4001  -30.4906   21.5511 C   0  0  2  0  0  0
  -24.8485  -28.9556   20.1175 C   0  0  0  0  0  0
  -22.7398  -29.4679   22.5028 C   0  0  0  0  0  0
  -18.0265  -28.1370   22.8488 C   0  0  0  0  0  0
  -24.1487  -36.7294   23.2644 C   0  0  0  0  0  0
  -25.9264  -30.8381   21.3621 C   0  0  0  0  0  0
  -26.0063  -29.4746   20.7080 C   0  0  0  0  0  0
  -27.2093  -28.7347   20.6891 C   0  0  0  0  0  0
  -26.0667  -26.9404   19.5038 C   0  0  0  0  0  0
  -24.8715  -27.6845   19.5146 C   0  0  0  0  0  0
  -23.6073  -29.8193   20.1661 C   0  0  0  0  0  0
  -25.4101  -36.3107   24.0351 C   0  0  1  0  0  0
  -20.5863  -28.3664   23.1313 C   0  0  2  0  0  0
  -20.6749  -26.9397   22.5420 C   0  0  0  0  0  0
  -19.5735  -26.6390   21.5198 C   0  0  0  0  0  0
  -18.1916  -26.7924   22.1614 C   0  0  0  0  0  0
  -19.1524  -28.8828   23.2905 C   0  0  0  0  0  0
  -18.9453  -30.1429   23.8916 C   0  0  0  0  0  0
  -17.6461  -30.6584   24.0560 C   0  0  0  0  0  0
  -25.9020  -34.9473   23.5162 C   0  0  0  0  0  0
  -16.5345  -29.9090   23.6317 C   0  0  0  0  0  0
  -16.7259  -28.6502   23.0348 C   0  0  0  0  0  0
  -26.4497  -31.6593   25.0710 C   0  0  0  0  0  0
  -25.3774  -31.3664   26.1457 C   0  0  0  0  0  0
  -27.0318  -30.3028   24.6082 C   0  0  0  0  0  0
  -27.6084  -32.4291   25.7446 C   0  0  0  0  0  0
  -27.5588  -37.1804   24.8475 C   0  0  0  0  0  0
  -21.4140  -29.3022   22.3726 N   0  0  0  0  0  0
  -26.4303  -37.3783   23.9427 N   0  0  0  0  0  0
  -24.6636  -31.0805   22.1000 N   0  0  0  0  0  0
  -23.4172  -28.8238   23.3087 O   0  0  0  0  0  0
  -28.4045  -26.7281   20.0772 O   0  0  0  0  0  0
  -26.5585  -34.8935   22.4709 O   0  0  0  0  0  0
  -23.5324  -32.1448   23.7533 O   0  0  0  0  0  0
  -27.7621  -20.7309   20.8190 C   0  0  0  0  0  0
  -27.7226  -19.4500   20.2331 C   0  0  0  0  0  0
  -28.4015  -19.2515   18.9945 C   0  0  0  0  0  0
  -28.9640  -20.4071   18.3761 C   0  0  0  0  0  0
  -28.3960  -21.7860   20.1542 C   0  0  0  0  0  0
  -26.8830  -18.3905   20.9427 C   0  0  0  0  0  0
  -29.5715  -20.3859   16.9793 C   0  0  0  0  0  0
  -27.1533  -17.5773   17.5547 C   0  0  0  0  0  0
  -28.9731  -16.6458   19.0631 C   0  0  0  0  0  0
  -29.9706  -16.8201   20.2349 C   0  0  0  0  0  0
  -28.4414  -24.2574   19.9398 C   0  0  0  0  0  0
  -28.3658  -25.5130   20.8290 C   0  0  0  0  0  0
  -28.4773  -17.8877   18.2715 C   0  0  2  0  0  0
  -28.9632  -21.6320   18.9478 N   0  0  0  0  0  0
  -28.4417  -23.0445   20.7578 N   0  0  0  0  0  0
  -30.0574  -15.5470   20.9525 N   0  0  0  0  0  0
  -31.4422  -12.3369   19.1714 H   0  0  0  0  0  0
  -30.2244  -11.3340   19.8971 H   0  0  0  0  0  0
  -29.6037  -11.6280   17.5595 H   0  0  0  0  0  0
  -29.9136  -13.3398   17.5999 H   0  0  0  0  0  0
  -27.3789  -12.1198   17.9462 H   0  0  0  0  0  0
  -27.7723  -13.8054   18.1247 H   0  0  0  0  0  0
  -27.9456  -11.6783   20.0571 H   0  0  0  0  0  0
  -28.7854  -12.4105   21.8399 H   0  0  0  0  0  0
  -28.3173  -14.0412   21.5687 H   0  0  0  0  0  0
  -25.2315   -9.5708   22.4880 H   0  0  0  0  0  0
  -23.9870   -7.4428   22.7362 H   0  0  0  0  0  0
  -21.0506   -8.8507   19.8998 H   0  0  0  0  0  0
  -22.3111  -10.9572   19.6301 H   0  0  0  0  0  0
  -21.1941   -7.6081   23.9691 H   0  0  0  0  0  0
  -21.1427   -6.0504   25.9082 H   0  0  0  0  0  0
  -22.0654   -2.7541   23.2949 H   0  0  0  0  0  0
  -22.4015  -12.0271   22.4670 H   0  0  0  0  0  0
  -21.1122  -13.1835   22.2520 H   0  0  0  0  0  0
  -24.8232  -15.8094   20.4418 H   0  0  0  0  0  0
  -26.4278  -15.4662   20.0238 H   0  0  0  0  0  0
  -26.7103  -32.5565   23.1159 H   0  0  0  0  0  0
  -25.0079  -33.9768   25.0504 H   0  0  0  0  0  0
  -22.6870  -31.3065   21.4107 H   0  0  0  0  0  0
  -23.3756  -35.9622   23.3310 H   0  0  0  0  0  0
  -24.3594  -36.8891   22.2064 H   0  0  0  0  0  0
  -23.7220  -37.6499   23.6620 H   0  0  0  0  0  0
  -26.0365  -31.6103   20.5992 H   0  0  0  0  0  0
  -26.8096  -30.8885   21.9854 H   0  0  0  0  0  0
  -28.1056  -29.1359   21.1390 H   0  0  0  0  0  0
  -26.0761  -25.9635   19.0411 H   0  0  0  0  0  0
  -23.9837  -27.2769   19.0536 H   0  0  0  0  0  0
  -23.7140  -30.5913   19.4021 H   0  0  0  0  0  0
  -22.7312  -29.2391   19.8712 H   0  0  0  0  0  0
  -25.1265  -36.1997   25.0838 H   0  0  0  0  0  0
  -20.9932  -28.3228   24.1451 H   0  0  0  0  0  0
  -20.5619  -26.2274   23.3613 H   0  0  0  0  0  0
  -21.6628  -26.7436   22.1236 H   0  0  0  0  0  0
  -19.6904  -25.6306   21.1227 H   0  0  0  0  0  0
  -19.6679  -27.3201   20.6723 H   0  0  0  0  0  0
  -17.4190  -26.6677   21.4020 H   0  0  0  0  0  0
  -18.0328  -26.0054   22.8993 H   0  0  0  0  0  0
  -19.7928  -30.7228   24.2321 H   0  0  0  0  0  0
  -17.5015  -31.6266   24.5160 H   0  0  0  0  0  0
  -15.5348  -30.2998   23.7617 H   0  0  0  0  0  0
  -15.8660  -28.0812   22.7061 H   0  0  0  0  0  0
  -24.5976  -30.6979   25.7805 H   0  0  0  0  0  0
  -24.8926  -32.2800   26.4917 H   0  0  0  0  0  0
  -25.8156  -30.8850   27.0216 H   0  0  0  0  0  0
  -26.2842  -29.6762   24.1207 H   0  0  0  0  0  0
  -27.4166  -29.7303   25.4542 H   0  0  0  0  0  0
  -27.8640  -30.4329   23.9148 H   0  0  0  0  0  0
  -27.2726  -33.3594   26.2046 H   0  0  0  0  0  0
  -28.3863  -32.6866   25.0238 H   0  0  0  0  0  0
  -28.0778  -31.8403   26.5345 H   0  0  0  0  0  0
  -28.2613  -38.0094   24.7507 H   0  0  0  0  0  0
  -28.1080  -36.2635   24.6298 H   0  0  0  0  0  0
  -27.2315  -37.1438   25.8880 H   0  0  0  0  0  0
  -20.9321  -29.8756   21.6942 H   0  0  0  0  0  0
  -26.0210  -38.2874   24.1406 H   0  0  0  0  0  0
  -27.2719  -20.9017   21.7679 H   0  0  0  0  0  0
  -26.7387  -18.6525   21.9928 H   0  0  0  0  0  0
  -27.2983  -17.3880   20.9330 H   0  0  0  0  0  0
  -25.8934  -18.3530   20.4886 H   0  0  0  0  0  0
  -28.9260  -19.8468   16.2836 H   0  0  0  0  0  0
  -30.5515  -19.9078   16.9926 H   0  0  0  0  0  0
  -29.6944  -21.3912   16.5688 H   0  0  0  0  0  0
  -26.8556  -18.3959   16.8991 H   0  0  0  0  0  0
  -26.3424  -17.4178   18.2636 H   0  0  0  0  0  0
  -27.2336  -16.6741   16.9470 H   0  0  0  0  0  0
  -28.1050  -16.1032   19.4338 H   0  0  0  0  0  0
  -29.4165  -15.9533   18.3453 H   0  0  0  0  0  0
  -30.9503  -17.1562   19.8925 H   0  0  0  0  0  0
  -29.6180  -17.5745   20.9338 H   0  0  0  0  0  0
  -29.3411  -24.2920   19.3222 H   0  0  0  0  0  0
  -27.5907  -24.2255   19.2590 H   0  0  0  0  0  0
  -29.2161  -25.5295   21.5131 H   0  0  0  0  0  0
  -27.4791  -25.4662   21.4687 H   0  0  0  0  0  0
  -29.2334  -17.9804   17.4931 H   0  0  0  0  0  0
  -28.0099  -23.1161   21.6716 H   0  0  0  0  0  0
  -29.2393  -15.2959   21.4860 H   0  0  0  0  0  0
  1 25  1  0  0  0
  1 30  2  0  0  0
  1 86  1  0  0  0
  2  3  1  0  0  0
  2 25  1  0  0  0
  2 87  1  0  0  0
  2 88  1  0  0  0
  3  4  1  0  0  0
  3 89  1  0  0  0
  3 90  1  0  0  0
  4  5  1  0  0  0
  4 91  1  0  0  0
  4 92  1  0  0  0
  5  6  1  0  0  0
  5 26  1  0  0  0
  5 93  1  0  0  0
  6 25  1  0  0  0
  6 94  1  0  0  0
  6 95  1  0  0  0
  7  8  2  0  0  0
  7 26  1  0  0  0
  7 29  1  0  0  0
  8  9  1  0  0  0
  8 22  1  0  0  0
  9 10  1  0  0  0
  9 27  2  0  0  0
 10 11  2  0  0  0
 10 15  1  0  0  0
 11 12  1  0  0  0
 11 96  1  0  0  0
 12 13  2  0  0  0
 12 97  1  0  0  0
 13 14  1  0  0  0
 13 31  1  0  0  0
 14 15  2  0  0  0
 14 98  1  0  0  0
 15 99  1  0  0  0
 16 17  2  0  0  0
 16 21  1  0  0  0
 16 31  1  0  0  0
 17 18  1  0  0  0
 17100  1  0  0  0
 18 19  2  0  0  0
 18101  1  0  0  0
 19 20  1  0  0  0
 19 24  1  0  0  0
 20 21  2  0  0  0
 20102  1  0  0  0
 21 23  1  0  0  0
 22 28  1  0  0  0
 22 32  2  0  0  0
 26 27  1  0  0  0
 28103  1  0  0  0
 28104  1  0  0  0
 29105  1  0  0  0
 29106  1  0  0  0
 33 34  1  0  0  0
 33 66  1  0  0  0
 33 70  2  0  0  0
 34 36  1  0  0  0
 34 59  1  0  0  0
 34107  1  0  0  0
 35 44  2  0  0  0
 35 45  1  0  0  0
 35 68  1  0  0  0
 36 56  1  0  0  0
 36108  1  0  0  0
 37 39  1  0  0  0
 37 47  1  0  0  0
 37 66  1  0  0  0
 37109  1  0  0  0
 38 43  2  0  0  0
 38 46  1  0  0  0
 38 47  1  0  0  0
 39 64  1  0  0  0
 39 67  2  0  0  0
 40 52  1  0  0  0
 40 53  2  0  0  0
 40 58  1  0  0  0
 41110  1  0  0  0
 41111  1  0  0  0
 41112  1  0  0  0
 41 48  1  0  0  0
 42 43  1  0  0  0
 42 66  1  0  0  0
 42113  1  0  0  0
 42114  1  0  0  0
 43 44  1  0  0  0
 44115  1  0  0  0
 45 46  2  0  0  0
 45116  1  0  0  0
 46117  1  0  0  0
 47118  1  0  0  0
 47119  1  0  0  0
 48 56  1  0  0  0
 48 65  1  0  0  0
 48120  1  0  0  0
 49 50  1  0  0  0
 49 53  1  0  0  0
 49 64  1  0  0  0
 49121  1  0  0  0
 50 51  1  0  0  0
 50122  1  0  0  0
 50123  1  0  0  0
 51 52  1  0  0  0
 51124  1  0  0  0
 51125  1  0  0  0
 52126  1  0  0  0
 52127  1  0  0  0
 53 54  1  0  0  0
 54 55  2  0  0  0
 54128  1  0  0  0
 55 57  1  0  0  0
 55129  1  0  0  0
 56 69  2  0  0  0
 57 58  2  0  0  0
 57130  1  0  0  0
 58131  1  0  0  0
 59 60  1  0  0  0
 59 61  1  0  0  0
 59 62  1  0  0  0
 60132  1  0  0  0
 60133  1  0  0  0
 60134  1  0  0  0
 61135  1  0  0  0
 61136  1  0  0  0
 61137  1  0  0  0
 62138  1  0  0  0
 62139  1  0  0  0
 62140  1  0  0  0
 63 65  1  0  0  0
 63141  1  0  0  0
 63142  1  0  0  0
 63143  1  0  0  0
 64144  1  0  0  0
 65145  1  0  0  0
 68 82  1  0  0  0
 71 72  2  0  0  0
 71 75  1  0  0  0
 71146  1  0  0  0
 72 73  1  0  0  0
 72 76  1  0  0  0
 73 74  2  0  0  0
 73 83  1  0  0  0
 74 77  1  0  0  0
 74 84  1  0  0  0
 75 84  2  0  0  0
 75 85  1  0  0  0
 76147  1  0  0  0
 76148  1  0  0  0
 76149  1  0  0  0
 77150  1  0  0  0
 77151  1  0  0  0
 77152  1  0  0  0
 78153  1  0  0  0
 78154  1  0  0  0
 78155  1  0  0  0
 78 83  1  0  0  0
 79 80  1  0  0  0
 79 83  1  0  0  0
 79156  1  0  0  0
 79157  1  0  0  0
 80 86  1  0  0  0
 80158  1  0  0  0
 80159  1  0  0  0
 81 82  1  0  0  0
 81 85  1  0  0  0
 81160  1  0  0  0
 81161  1  0  0  0
 82162  1  0  0  0
 82163  1  0  0  0
 83164  1  0  0  0
 85165  1  0  0  0
 86166  1  0  0  0
M  ISO  4   1 100  68 101  82 101  86 100
M  END
> <chiral flag>
0

> <version>
0

> <s_m_source_file>
/data/baiqing/PycharmProjects/Reinvent-master-3.2/result/LINK_invent/BTK/process_docking_weight1_custom_sum_contain_oxygen_bond_distance_aromatic_linkinvent_7_9_3/rearranged_h_0147.sdf

> <i_m_source_file_index>
47

> <r_mmod_Potential_Energy-OPLS-2005>
-108.30037689209

> <r_mmod_Stretch_Energy-OPLS-2005>
36.6981315612793

> <r_mmod_Bend_Energy-OPLS-2005>
171.328720092773

> <r_mmod_Torsional_Energy-OPLS-2005>
266.114837646484

> <r_mmod_Improper_Torsional_Energy-OPLS-2005>
10.7354154586792

> <r_mmod_Van_der_Waal_Energy-OPLS-2005>
167.981918334961

> <r_mmod_Electrostatic_Energy-OPLS-2005>
-591.691101074219

> <r_mmod_Solvation_Energy-OPLS-2005>
-241.395553588867

> <b_mmod_Minimization_Converged-OPLS-2005>
0

> <r_mmod_RMS_Derivative-OPLS-2005>
4.74990463256836

$$$$
47
                    3D
 Structure written by MMmdl.
170180  0  0  1  0            999 V2000
  -30.7437  -14.3869   20.6279 C   0  0  0  0  0  0
  -30.4158  -12.2774   19.4012 C   0  0  0  0  0  0
  -29.4861  -12.5137   18.1951 C   0  0  0  0  0  0
  -28.0078  -12.3783   18.6099 C   0  0  0  0  0  0
  -27.6641  -13.2012   19.8805 C   0  0  2  0  0  0
  -28.7051  -12.9497   20.9949 C   0  0  0  0  0  0
  -25.2593  -13.8149   20.5684 C   0  0  0  0  0  0
  -24.1837  -13.0433   20.9183 C   0  0  0  0  0  0
  -24.6385  -11.6904   20.8737 C   0  0  0  0  0  0
  -23.9050  -10.4295   21.0408 C   0  0  0  0  0  0
  -24.3604   -9.4215   21.9185 C   0  0  0  0  0  0
  -23.6282   -8.2249   22.0752 C   0  0  0  0  0  0
  -22.4264   -8.0285   21.3541 C   0  0  0  0  0  0
  -21.9900   -9.0260   20.4642 C   0  0  0  0  0  0
  -22.7225  -10.2140   20.3055 C   0  0  0  0  0  0
  -21.6852   -6.0737   22.5280 C   0  0  0  0  0  0
  -21.4009   -6.5637   23.8215 C   0  0  0  0  0  0
  -21.3662   -5.6790   24.9177 C   0  0  0  0  0  0
  -21.6049   -4.3053   24.7222 C   0  0  0  0  0  0
  -21.8819   -3.8146   23.4341 C   0  0  0  0  0  0
  -21.9190   -4.6965   22.3400 C   0  0  0  0  0  0
  -22.7863  -13.5242   21.1851 C   0  0  0  0  0  0
  -22.1657   -4.2154   21.0976 F   0  0  0  0  0  0
  -21.5638   -3.4538   25.7732 F   0  0  0  0  0  0
  -30.0427  -13.2381   20.4473 N   0  0  0  0  0  0
  -26.3035  -12.9312   20.3400 N   0  0  0  0  0  0
  -25.9310  -11.6477   20.5771 N   0  0  0  0  0  0
  -22.0493  -12.8238   22.0403 N   0  0  0  0  0  0
  -25.4292  -15.1864   20.4065 N   0  0  0  0  0  0
  -31.8448  -14.6042   20.1114 O   0  0  0  0  0  0
  -21.6630   -6.8882   21.4242 O   0  0  0  0  0  0
  -22.3562  -14.5561   20.6714 O   0  0  0  0  0  0
  -24.6137  -31.8711   23.2137 C   0  0  0  0  0  0
  -25.9042  -32.4840   23.8418 C   0  0  1  0  0  0
  -27.2321  -27.4543   20.0774 C   0  0  0  0  0  0
  -25.5909  -33.8637   24.2349 N   0  0  0  0  0  0
  -23.3987  -30.4981   21.5550 C   0  0  2  0  0  0
  -24.8407  -28.9700   20.1179 C   0  0  0  0  0  0
  -22.7399  -29.4680   22.5007 C   0  0  0  0  0  0
  -18.0271  -28.1378   22.8492 C   0  0  0  0  0  0
  -24.1486  -36.7324   23.2637 C   0  0  0  0  0  0
  -25.9277  -30.8407   21.3648 C   0  0  0  0  0  0
  -26.0024  -29.4768   20.7125 C   0  0  0  0  0  0
  -27.1982  -28.7248   20.6942 C   0  0  0  0  0  0
  -26.0411  -26.9589   19.4870 C   0  0  0  0  0  0
  -24.8533  -27.7073   19.5078 C   0  0  0  0  0  0
  -23.6044  -29.8362   20.1680 C   0  0  0  0  0  0
  -25.4106  -36.3121   24.0338 C   0  0  1  0  0  0
  -20.5860  -28.3661   23.1324 C   0  0  2  0  0  0
  -20.6764  -26.9402   22.5415 C   0  0  0  0  0  0
  -19.5742  -26.6387   21.5211 C   0  0  0  0  0  0
  -18.1919  -26.7925   22.1621 C   0  0  0  0  0  0
  -19.1521  -28.8835   23.2905 C   0  0  0  0  0  0
  -18.9451  -30.1442   23.8914 C   0  0  0  0  0  0
  -17.6454  -30.6585   24.0567 C   0  0  0  0  0  0
  -25.9034  -34.9485   23.5136 C   0  0  0  0  0  0
  -16.5344  -29.9088   23.6327 C   0  0  0  0  0  0
  -16.7261  -28.6505   23.0346 C   0  0  0  0  0  0
  -26.4474  -31.6609   25.0736 C   0  0  0  0  0  0
  -25.3743  -31.3706   26.1485 C   0  0  0  0  0  0
  -27.0308  -30.3059   24.6093 C   0  0  0  0  0  0
  -27.6051  -32.4322   25.7501 C   0  0  0  0  0  0
  -27.5581  -37.1817   24.8465 C   0  0  0  0  0  0
  -21.4131  -29.3038   22.3740 N   0  0  0  0  0  0
  -26.4295  -37.3802   23.9408 N   0  0  0  0  0  0
  -24.6652  -31.0830   22.1032 N   0  0  0  0  0  0
  -23.4183  -28.8213   23.3031 O   0  0  0  0  0  0
  -28.4210  -26.7492   20.0715 O   0  0  0  0  0  0
  -26.5586  -34.8929   22.4692 O   0  0  0  0  0  0
  -23.5334  -32.1458   23.7541 O   0  0  0  0  0  0
  -30.9220  -25.2673   19.7355 C   0  0  0  0  0  0
  -32.0938  -24.4857   19.7423 C   0  0  0  0  0  0
  -29.5977  -23.2347   19.5731 C   0  0  0  0  0  0
  -30.7620  -22.4359   19.5493 C   0  0  0  0  0  0
  -29.6664  -24.6377   19.6495 C   0  0  0  0  0  0
  -32.0262  -23.0769   19.6441 C   0  0  0  0  0  0
  -30.5158  -17.5368   22.2869 C   0  0  0  0  0  0
  -29.5613  -20.4124   18.4294 C   0  0  0  0  0  0
  -30.7447  -16.0247   22.4511 C   0  0  0  0  0  0
  -29.4720  -16.4088   20.5019 C   0  0  0  0  0  0
  -29.3796  -18.9590   18.8609 C   0  0  0  0  0  0
  -30.2438  -20.1976   20.7216 C   0  0  0  0  0  0
  -30.6181  -20.9140   19.4171 C   0  0  2  0  0  0
  -30.2818  -17.6773   20.7862 C   0  0  1  0  0  0
  -33.3251  -22.2871   19.6352 C   0  0  0  0  0  0
  -28.3696  -25.4190   19.5574 C   0  0  0  0  0  0
  -30.1004  -15.3584   21.3061 N   0  0  0  0  0  0
  -29.5996  -18.9172   20.3307 N   0  3  2  0  0  0
  -31.4604  -12.3701   19.0987 H   0  0  0  0  0  0
  -30.3050  -11.2589   19.7757 H   0  0  0  0  0  0
  -29.7154  -11.8055   17.3971 H   0  0  0  0  0  0
  -29.6642  -13.5083   17.7824 H   0  0  0  0  0  0
  -27.8086  -11.3212   18.7894 H   0  0  0  0  0  0
  -27.3583  -12.6738   17.7849 H   0  0  0  0  0  0
  -27.7163  -14.2535   19.6038 H   0  0  0  0  0  0
  -28.6655  -11.9095   21.3211 H   0  0  0  0  0  0
  -28.4719  -13.5401   21.8822 H   0  0  0  0  0  0
  -25.2754   -9.5693   22.4755 H   0  0  0  0  0  0
  -24.0000   -7.4638   22.7466 H   0  0  0  0  0  0
  -21.0841   -8.8780   19.8939 H   0  0  0  0  0  0
  -22.3691  -10.9680   19.6159 H   0  0  0  0  0  0
  -21.1987   -7.6144   23.9719 H   0  0  0  0  0  0
  -21.1488   -6.0517   25.9083 H   0  0  0  0  0  0
  -22.0589   -2.7607   23.2839 H   0  0  0  0  0  0
  -22.4091  -11.9889   22.4784 H   0  0  0  0  0  0
  -21.1113  -13.1274   22.2602 H   0  0  0  0  0  0
  -24.6580  -15.8381   20.5044 H   0  0  0  0  0  0
  -26.2771  -15.6227   20.0701 H   0  0  0  0  0  0
  -26.7115  -32.5557   23.1188 H   0  0  0  0  0  0
  -25.0081  -33.9807   25.0508 H   0  0  0  0  0  0
  -22.6864  -31.3148   21.4202 H   0  0  0  0  0  0
  -23.3742  -35.9665   23.3308 H   0  0  0  0  0  0
  -24.3581  -36.8928   22.2050 H   0  0  0  0  0  0
  -23.7243  -37.6535   23.6641 H   0  0  0  0  0  0
  -26.0371  -31.6062   20.5953 H   0  0  0  0  0  0
  -26.8178  -30.8939   21.9800 H   0  0  0  0  0  0
  -28.0959  -29.1159   21.1528 H   0  0  0  0  0  0
  -25.9935  -25.9988   18.9954 H   0  0  0  0  0  0
  -23.9589  -27.3090   19.0486 H   0  0  0  0  0  0
  -23.7148  -30.6136   19.4110 H   0  0  0  0  0  0
  -22.7275  -29.2584   19.8700 H   0  0  0  0  0  0
  -25.1279  -36.1994   25.0831 H   0  0  0  0  0  0
  -20.9950  -28.3223   24.1445 H   0  0  0  0  0  0
  -20.5678  -26.2268   23.3597 H   0  0  0  0  0  0
  -21.6635  -26.7457   22.1203 H   0  0  0  0  0  0
  -19.6906  -25.6303   21.1229 H   0  0  0  0  0  0
  -19.6683  -27.3209   20.6750 H   0  0  0  0  0  0
  -17.4193  -26.6683   21.4016 H   0  0  0  0  0  0
  -18.0315  -26.0061   22.9010 H   0  0  0  0  0  0
  -19.7927  -30.7253   24.2291 H   0  0  0  0  0  0
  -17.5012  -31.6266   24.5167 H   0  0  0  0  0  0
  -15.5345  -30.2999   23.7641 H   0  0  0  0  0  0
  -15.8660  -28.0834   22.7049 H   0  0  0  0  0  0
  -24.5909  -30.7062   25.7817 H   0  0  0  0  0  0
  -24.8945  -32.2862   26.4953 H   0  0  0  0  0  0
  -25.8102  -30.8858   27.0230 H   0  0  0  0  0  0
  -26.2851  -29.6820   24.1151 H   0  0  0  0  0  0
  -27.4099  -29.7290   25.4539 H   0  0  0  0  0  0
  -27.8673  -30.4392   23.9229 H   0  0  0  0  0  0
  -27.2671  -33.3605   26.2118 H   0  0  0  0  0  0
  -28.3846  -32.6909   25.0322 H   0  0  0  0  0  0
  -28.0737  -31.8422   26.5388 H   0  0  0  0  0  0
  -28.2601  -38.0111   24.7510 H   0  0  0  0  0  0
  -28.1071  -36.2642   24.6289 H   0  0  0  0  0  0
  -27.2298  -37.1471   25.8868 H   0  0  0  0  0  0
  -20.9284  -29.8781   21.6985 H   0  0  0  0  0  0
  -26.0185  -38.2883   24.1403 H   0  0  0  0  0  0
  -30.9895  -26.3454   19.7858 H   0  0  0  0  0  0
  -33.0527  -24.9818   19.8106 H   0  0  0  0  0  0
  -28.6189  -22.7831   19.5147 H   0  0  0  0  0  0
  -31.3627  -18.1220   22.6471 H   0  0  0  0  0  0
  -29.6320  -17.8430   22.8481 H   0  0  0  0  0  0
  -28.6033  -20.9160   18.5414 H   0  0  0  0  0  0
  -29.8686  -20.5123   17.3879 H   0  0  0  0  0  0
  -31.8162  -15.8118   22.4797 H   0  0  0  0  0  0
  -30.3229  -15.6604   23.3887 H   0  0  0  0  0  0
  -29.4467  -16.1767   19.4344 H   0  0  0  0  0  0
  -28.4375  -16.5152   20.8321 H   0  0  0  0  0  0
  -30.1256  -18.3492   18.3485 H   0  0  0  0  0  0
  -28.3989  -18.5664   18.5897 H   0  0  0  0  0  0
  -29.5031  -20.7791   21.2717 H   0  0  0  0  0  0
  -31.1089  -20.0780   21.3742 H   0  0  0  0  0  0
  -31.5633  -20.4949   19.0730 H   0  0  0  0  0  0
  -31.2493  -17.6069   20.2820 H   0  0  0  0  0  0
  -34.1837  -22.9267   19.8419 H   0  0  0  0  0  0
  -33.4864  -21.8264   18.6599 H   0  0  0  0  0  0
  -33.3106  -21.5033   20.3932 H   0  0  0  0  0  0
  -27.6076  -24.8510   20.0952 H   0  0  0  0  0  0
  -28.0939  -25.4415   18.5018 H   0  0  0  0  0  0
  -28.6877  -18.9340   20.7644 H   0  0  0  0  0  0
  1 25  1  0  0  0
  1 30  2  0  0  0
  1 87  1  0  0  0
  2  3  1  0  0  0
  2 25  1  0  0  0
  2 89  1  0  0  0
  2 90  1  0  0  0
  3  4  1  0  0  0
  3 91  1  0  0  0
  3 92  1  0  0  0
  4  5  1  0  0  0
  4 93  1  0  0  0
  4 94  1  0  0  0
  5  6  1  0  0  0
  5 26  1  0  0  0
  5 95  1  0  0  0
  6 25  1  0  0  0
  6 96  1  0  0  0
  6 97  1  0  0  0
  7  8  2  0  0  0
  7 26  1  0  0  0
  7 29  1  0  0  0
  8  9  1  0  0  0
  8 22  1  0  0  0
  9 10  1  0  0  0
  9 27  2  0  0  0
 10 11  2  0  0  0
 10 15  1  0  0  0
 11 12  1  0  0  0
 11 98  1  0  0  0
 12 13  2  0  0  0
 12 99  1  0  0  0
 13 14  1  0  0  0
 13 31  1  0  0  0
 14 15  2  0  0  0
 14100  1  0  0  0
 15101  1  0  0  0
 16 17  2  0  0  0
 16 21  1  0  0  0
 16 31  1  0  0  0
 17 18  1  0  0  0
 17102  1  0  0  0
 18 19  2  0  0  0
 18103  1  0  0  0
 19 20  1  0  0  0
 19 24  1  0  0  0
 20 21  2  0  0  0
 20104  1  0  0  0
 21 23  1  0  0  0
 22 28  1  0  0  0
 22 32  2  0  0  0
 26 27  1  0  0  0
 28105  1  0  0  0
 28106  1  0  0  0
 29107  1  0  0  0
 29108  1  0  0  0
 33 34  1  0  0  0
 33 66  1  0  0  0
 33 70  2  0  0  0
 34 36  1  0  0  0
 34 59  1  0  0  0
 34109  1  0  0  0
 35 44  2  0  0  0
 35 45  1  0  0  0
 35 68  1  0  0  0
 36 56  1  0  0  0
 36110  1  0  0  0
 37 39  1  0  0  0
 37 47  1  0  0  0
 37 66  1  0  0  0
 37111  1  0  0  0
 38 43  2  0  0  0
 38 46  1  0  0  0
 38 47  1  0  0  0
 39 64  1  0  0  0
 39 67  2  0  0  0
 40 52  1  0  0  0
 40 53  2  0  0  0
 40 58  1  0  0  0
 41112  1  0  0  0
 41113  1  0  0  0
 41114  1  0  0  0
 41 48  1  0  0  0
 42 43  1  0  0  0
 42 66  1  0  0  0
 42115  1  0  0  0
 42116  1  0  0  0
 43 44  1  0  0  0
 44117  1  0  0  0
 45 46  2  0  0  0
 45118  1  0  0  0
 46119  1  0  0  0
 47120  1  0  0  0
 47121  1  0  0  0
 48 56  1  0  0  0
 48 65  1  0  0  0
 48122  1  0  0  0
 49 50  1  0  0  0
 49 53  1  0  0  0
 49 64  1  0  0  0
 49123  1  0  0  0
 50 51  1  0  0  0
 50124  1  0  0  0
 50125  1  0  0  0
 51 52  1  0  0  0
 51126  1  0  0  0
 51127  1  0  0  0
 52128  1  0  0  0
 52129  1  0  0  0
 53 54  1  0  0  0
 54 55  2  0  0  0
 54130  1  0  0  0
 55 57  1  0  0  0
 55131  1  0  0  0
 56 69  2  0  0  0
 57 58  2  0  0  0
 57132  1  0  0  0
 58133  1  0  0  0
 59 60  1  0  0  0
 59 61  1  0  0  0
 59 62  1  0  0  0
 60134  1  0  0  0
 60135  1  0  0  0
 60136  1  0  0  0
 61137  1  0  0  0
 61138  1  0  0  0
 61139  1  0  0  0
 62140  1  0  0  0
 62141  1  0  0  0
 62142  1  0  0  0
 63 65  1  0  0  0
 63143  1  0  0  0
 63144  1  0  0  0
 63145  1  0  0  0
 64146  1  0  0  0
 65147  1  0  0  0
 68 86  1  0  0  0
 71 72  2  0  0  0
 71 75  1  0  0  0
 71148  1  0  0  0
 72 76  1  0  0  0
 72149  1  0  0  0
 73 74  1  0  0  0
 73 75  2  0  0  0
 73150  1  0  0  0
 74 76  2  0  0  0
 74 83  1  0  0  0
 75 86  1  0  0  0
 76 85  1  0  0  0
 77 79  1  0  0  0
 77151  1  0  0  0
 77152  1  0  0  0
 77 84  1  0  0  0
 78 81  1  0  0  0
 78 83  1  0  0  0
 78153  1  0  0  0
 78154  1  0  0  0
 79 87  1  0  0  0
 79155  1  0  0  0
 79156  1  0  0  0
 80 84  1  0  0  0
 80 87  1  0  0  0
 80157  1  0  0  0
 80158  1  0  0  0
 81159  1  0  0  0
 81160  1  0  0  0
 81 88  1  0  0  0
 82 83  1  0  0  0
 82 88  1  0  0  0
 82161  1  0  0  0
 82162  1  0  0  0
 83163  1  0  0  0
 84 88  1  0  0  0
 84164  1  0  0  0
 85165  1  0  0  0
 85166  1  0  0  0
 85167  1  0  0  0
 86168  1  0  0  0
 86169  1  0  0  0
 88170  1  0  0  0
M  CHG  1  88   1
M  ISO  4   1 100  68 101  86 101  87 100
M  END
> <chiral flag>
0

> <version>
0

> <s_m_source_file>
/data/baiqing/PycharmProjects/Reinvent-master-3.2/result/LINK_invent/BTK/process_docking_weight1_custom_sum_contain_oxygen_bond_distance_aromatic_linkinvent_7_9_3/rearranged_h_0147.sdf

> <i_m_source_file_index>
48

> <r_mmod_Potential_Energy-OPLS-2005>
122.682716369629

> <r_mmod_Stretch_Energy-OPLS-2005>
35.1599082946777

> <r_mmod_Bend_Energy-OPLS-2005>
153.226409912109

> <r_mmod_Torsional_Energy-OPLS-2005>
391.59326171875

> <r_mmod_Improper_Torsional_Energy-OPLS-2005>
7.69413137435913

> <r_mmod_Van_der_Waal_Energy-OPLS-2005>
159.198104858398

> <r_mmod_Electrostatic_Energy-OPLS-2005>
-196.200073242188

> <r_mmod_Solvation_Energy-OPLS-2005>
-436.855346679688

> <b_mmod_Minimization_Converged-OPLS-2005>
0

> <r_mmod_RMS_Derivative-OPLS-2005>
0.845192551612854

$$$$
48
                    3D
 Structure written by MMmdl.
161170  0  0  1  0            999 V2000
  -30.6986  -14.5813   20.5236 C   0  0  0  0  0  0
  -30.4213  -12.3689   19.4414 C   0  0  0  0  0  0
  -29.4958  -12.5038   18.2156 C   0  0  0  0  0  0
  -28.0201  -12.3521   18.6343 C   0  0  0  0  0  0
  -27.6511  -13.2274   19.8638 C   0  0  2  0  0  0
  -28.7007  -13.0914   20.9904 C   0  0  0  0  0  0
  -25.2551  -13.8198   20.5738 C   0  0  0  0  0  0
  -24.1825  -13.0443   20.9241 C   0  0  0  0  0  0
  -24.6413  -11.6922   20.8766 C   0  0  0  0  0  0
  -23.9081  -10.4295   21.0414 C   0  0  0  0  0  0
  -24.3625   -9.4209   21.9196 C   0  0  0  0  0  0
  -23.6300   -8.2238   22.0757 C   0  0  0  0  0  0
  -22.4275   -8.0284   21.3549 C   0  0  0  0  0  0
  -21.9912   -9.0264   20.4648 C   0  0  0  0  0  0
  -22.7246  -10.2144   20.3070 C   0  0  0  0  0  0
  -21.6848   -6.0742   22.5288 C   0  0  0  0  0  0
  -21.3999   -6.5643   23.8224 C   0  0  0  0  0  0
  -21.3666   -5.6796   24.9192 C   0  0  0  0  0  0
  -21.6048   -4.3062   24.7229 C   0  0  0  0  0  0
  -21.8815   -3.8158   23.4351 C   0  0  0  0  0  0
  -21.9186   -4.6972   22.3410 C   0  0  0  0  0  0
  -22.7836  -13.5226   21.1895 C   0  0  0  0  0  0
  -22.1657   -4.2161   21.0982 F   0  0  0  0  0  0
  -21.5643   -3.4542   25.7740 F   0  0  0  0  0  0
  -30.0175  -13.4020   20.4152 N   0  0  0  0  0  0
  -26.2993  -12.9405   20.3364 N   0  0  0  0  0  0
  -25.9346  -11.6545   20.5780 N   0  0  0  0  0  0
  -22.0468  -12.8204   22.0437 N   0  0  0  0  0  0
  -25.4225  -15.1917   20.4135 N   0  0  0  0  0  0
  -31.8609  -14.6901   20.1269 O   0  0  0  0  0  0
  -21.6643   -6.8876   21.4248 O   0  0  0  0  0  0
  -22.3506  -14.5530   20.6749 O   0  0  0  0  0  0
  -24.6266  -31.8648   23.2117 C   0  0  0  0  0  0
  -25.9132  -32.4796   23.8418 C   0  0  1  0  0  0
  -27.2029  -27.3369   20.0876 C   0  0  0  0  0  0
  -25.5963  -33.8602   24.2319 N   0  0  0  0  0  0
  -23.4159  -30.4985   21.5541 C   0  0  2  0  0  0
  -24.8533  -28.9689   20.1103 C   0  0  0  0  0  0
  -22.7477  -29.4672   22.4946 C   0  0  0  0  0  0
  -18.0299  -28.1382   22.8487 C   0  0  0  0  0  0
  -24.1503  -36.7301   23.2637 C   0  0  0  0  0  0
  -25.9614  -30.7947   21.3878 C   0  0  0  0  0  0
  -26.0260  -29.4283   20.7219 C   0  0  0  0  0  0
  -27.2015  -28.6196   20.7157 C   0  0  0  0  0  0
  -26.0056  -26.9517   19.4326 C   0  0  0  0  0  0
  -24.8425  -27.7304   19.4629 C   0  0  0  0  0  0
  -23.6266  -29.8498   20.1643 C   0  0  0  0  0  0
  -25.4130  -36.3093   24.0317 C   0  0  1  0  0  0
  -20.5894  -28.3698   23.1270 C   0  0  2  0  0  0
  -20.6796  -26.9422   22.5392 C   0  0  0  0  0  0
  -19.5762  -26.6380   21.5207 C   0  0  0  0  0  0
  -18.1944  -26.7925   22.1615 C   0  0  0  0  0  0
  -19.1550  -28.8856   23.2875 C   0  0  0  0  0  0
  -18.9464  -30.1456   23.8891 C   0  0  0  0  0  0
  -17.6464  -30.6586   24.0560 C   0  0  0  0  0  0
  -25.9066  -34.9460   23.5108 C   0  0  0  0  0  0
  -16.5356  -29.9082   23.6330 C   0  0  0  0  0  0
  -16.7284  -28.6497   23.0359 C   0  0  0  0  0  0
  -26.4514  -31.6605   25.0782 C   0  0  0  0  0  0
  -25.3745  -31.3725   26.1504 C   0  0  0  0  0  0
  -27.0352  -30.3023   24.6244 C   0  0  0  0  0  0
  -27.6089  -32.4348   25.7528 C   0  0  0  0  0  0
  -27.5584  -37.1814   24.8458 C   0  0  0  0  0  0
  -21.4198  -29.3059   22.3671 N   0  0  0  0  0  0
  -26.4304  -37.3785   23.9402 N   0  0  0  0  0  0
  -24.6865  -31.0689   22.1063 N   0  0  0  0  0  0
  -23.4214  -28.8179   23.2999 O   0  0  0  0  0  0
  -28.3062  -26.4642   20.1376 O   0  0  0  0  0  0
  -26.5608  -34.8902   22.4660 O   0  0  0  0  0  0
  -23.5437  -32.1442   23.7457 O   0  0  0  0  0  0
  -27.7250  -21.1214   22.1989 C   0  0  0  0  0  0
  -28.0887  -18.3802   22.2456 C   0  0  0  0  0  0
  -28.9073  -19.1401   21.3794 C   0  0  0  0  0  0
  -28.7310  -20.5812   21.3578 C   0  0  0  0  0  0
  -26.9432  -20.2942   23.0280 C   0  0  0  0  0  0
  -27.2343  -24.2979   20.1877 C   0  0  0  0  0  0
  -28.4995  -23.6840   19.7006 C   0  0  2  0  0  0
  -28.1856  -25.1993   19.3910 C   0  0  2  0  0  0
  -29.8866  -18.3210   20.5013 C   0  0  0  0  0  0
  -29.4743  -22.9751   20.6669 C   0  0  0  0  0  0
  -30.5805  -17.0544   21.1625 C   0  0  0  0  0  0
  -27.1611  -18.9668   23.0240 N   0  3  0  0  0  0
  -25.9444  -20.7976   23.8567 N   0  0  0  0  0  0
  -29.4877  -21.4807   20.5452 N   0  0  0  0  0  0
  -30.0079  -15.6834   20.9342 N   0  0  0  0  0  0
  -31.4657  -12.4602   19.1385 H   0  0  0  0  0  0
  -30.3279  -11.3766   19.8847 H   0  0  0  0  0  0
  -29.7492  -11.7547   17.4640 H   0  0  0  0  0  0
  -29.6485  -13.4758   17.7432 H   0  0  0  0  0  0
  -27.8542  -11.2995   18.8687 H   0  0  0  0  0  0
  -27.3630  -12.5869   17.7949 H   0  0  0  0  0  0
  -27.6650  -14.2625   19.5208 H   0  0  0  0  0  0
  -28.6999  -12.0779   21.3952 H   0  0  0  0  0  0
  -28.4597  -13.7479   21.8271 H   0  0  0  0  0  0
  -25.2763   -9.5688   22.4782 H   0  0  0  0  0  0
  -24.0024   -7.4617   22.7462 H   0  0  0  0  0  0
  -21.0854   -8.8782   19.8932 H   0  0  0  0  0  0
  -22.3711  -10.9695   19.6189 H   0  0  0  0  0  0
  -21.1973   -7.6145   23.9733 H   0  0  0  0  0  0
  -21.1499   -6.0523   25.9095 H   0  0  0  0  0  0
  -22.0581   -2.7618   23.2850 H   0  0  0  0  0  0
  -22.4058  -11.9859   22.4829 H   0  0  0  0  0  0
  -21.1087  -13.1232   22.2638 H   0  0  0  0  0  0
  -24.6462  -15.8372   20.5002 H   0  0  0  0  0  0
  -26.2570  -15.6270   20.0431 H   0  0  0  0  0  0
  -26.7201  -32.5450   23.1170 H   0  0  0  0  0  0
  -25.0169  -33.9771   25.0496 H   0  0  0  0  0  0
  -22.7093  -31.3211   21.4222 H   0  0  0  0  0  0
  -23.3758  -35.9638   23.3299 H   0  0  0  0  0  0
  -24.3597  -36.8922   22.2050 H   0  0  0  0  0  0
  -23.7248  -37.6501   23.6661 H   0  0  0  0  0  0
  -26.1065  -31.5654   20.6300 H   0  0  0  0  0  0
  -26.8399  -30.8283   22.0216 H   0  0  0  0  0  0
  -28.0979  -28.9650   21.2113 H   0  0  0  0  0  0
  -25.9062  -26.0276   18.8885 H   0  0  0  0  0  0
  -23.9459  -27.3790   18.9714 H   0  0  0  0  0  0
  -23.7507  -30.6357   19.4191 H   0  0  0  0  0  0
  -22.7444  -29.2884   19.8530 H   0  0  0  0  0  0
  -25.1308  -36.1955   25.0805 H   0  0  0  0  0  0
  -20.9988  -28.3272   24.1386 H   0  0  0  0  0  0
  -20.5721  -26.2308   23.3592 H   0  0  0  0  0  0
  -21.6665  -26.7475   22.1162 H   0  0  0  0  0  0
  -19.6931  -25.6289   21.1247 H   0  0  0  0  0  0
  -19.6690  -27.3187   20.6733 H   0  0  0  0  0  0
  -17.4210  -26.6679   21.4018 H   0  0  0  0  0  0
  -18.0342  -26.0057   22.9005 H   0  0  0  0  0  0
  -19.7943  -30.7284   24.2242 H   0  0  0  0  0  0
  -17.5019  -31.6262   24.5175 H   0  0  0  0  0  0
  -15.5358  -30.2985   23.7656 H   0  0  0  0  0  0
  -15.8680  -28.0815   22.7079 H   0  0  0  0  0  0
  -24.5930  -30.7056   25.7835 H   0  0  0  0  0  0
  -24.8917  -32.2870   26.4963 H   0  0  0  0  0  0
  -25.8070  -30.8886   27.0270 H   0  0  0  0  0  0
  -26.2914  -29.6779   24.1269 H   0  0  0  0  0  0
  -27.4035  -29.7286   25.4768 H   0  0  0  0  0  0
  -27.8811  -30.4311   23.9479 H   0  0  0  0  0  0
  -27.2716  -33.3667   26.2090 H   0  0  0  0  0  0
  -28.3887  -32.6883   25.0328 H   0  0  0  0  0  0
  -28.0767  -31.8475   26.5446 H   0  0  0  0  0  0
  -28.2601  -38.0120   24.7528 H   0  0  0  0  0  0
  -28.1078  -36.2646   24.6267 H   0  0  0  0  0  0
  -27.2292  -37.1442   25.8858 H   0  0  0  0  0  0
  -20.9374  -29.8796   21.6891 H   0  0  0  0  0  0
  -26.0178  -38.2854   24.1411 H   0  0  0  0  0  0
  -27.5274  -22.1792   22.2168 H   0  0  0  0  0  0
  -28.1419  -17.3022   22.3266 H   0  0  0  0  0  0
  -26.3163  -23.9595   19.7108 H   0  0  0  0  0  0
  -27.1464  -24.4868   21.2554 H   0  0  0  0  0  0
  -28.3929  -23.0878   18.7960 H   0  0  0  0  0  0
  -27.9872  -25.4031   18.3395 H   0  0  0  0  0  0
  -30.6756  -19.0045   20.1875 H   0  0  0  0  0  0
  -29.3760  -18.0329   19.5822 H   0  0  0  0  0  0
  -29.2992  -23.3091   21.6888 H   0  0  0  0  0  0
  -30.4779  -23.3234   20.4169 H   0  0  0  0  0  0
  -31.6050  -17.0528   20.7860 H   0  0  0  0  0  0
  -30.6978  -17.2132   22.2355 H   0  0  0  0  0  0
  -26.5910  -18.3656   23.6280 H   0  0  0  0  0  0
  -25.7162  -21.7787   23.8863 H   0  0  0  0  0  0
  -25.3599  -20.2070   24.4256 H   0  0  0  0  0  0
  -30.2439  -21.0790   20.0013 H   0  0  0  0  0  0
  -29.0416  -15.5292   21.1759 H   0  0  0  0  0  0
  1 25  1  0  0  0
  1 30  2  0  0  0
  1 85  1  0  0  0
  2  3  1  0  0  0
  2 25  1  0  0  0
  2 86  1  0  0  0
  2 87  1  0  0  0
  3  4  1  0  0  0
  3 88  1  0  0  0
  3 89  1  0  0  0
  4  5  1  0  0  0
  4 90  1  0  0  0
  4 91  1  0  0  0
  5  6  1  0  0  0
  5 26  1  0  0  0
  5 92  1  0  0  0
  6 25  1  0  0  0
  6 93  1  0  0  0
  6 94  1  0  0  0
  7  8  2  0  0  0
  7 26  1  0  0  0
  7 29  1  0  0  0
  8  9  1  0  0  0
  8 22  1  0  0  0
  9 10  1  0  0  0
  9 27  2  0  0  0
 10 11  2  0  0  0
 10 15  1  0  0  0
 11 12  1  0  0  0
 11 95  1  0  0  0
 12 13  2  0  0  0
 12 96  1  0  0  0
 13 14  1  0  0  0
 13 31  1  0  0  0
 14 15  2  0  0  0
 14 97  1  0  0  0
 15 98  1  0  0  0
 16 17  2  0  0  0
 16 21  1  0  0  0
 16 31  1  0  0  0
 17 18  1  0  0  0
 17 99  1  0  0  0
 18 19  2  0  0  0
 18100  1  0  0  0
 19 20  1  0  0  0
 19 24  1  0  0  0
 20 21  2  0  0  0
 20101  1  0  0  0
 21 23  1  0  0  0
 22 28  1  0  0  0
 22 32  2  0  0  0
 26 27  1  0  0  0
 28102  1  0  0  0
 28103  1  0  0  0
 29104  1  0  0  0
 29105  1  0  0  0
 33 34  1  0  0  0
 33 66  1  0  0  0
 33 70  2  0  0  0
 34 36  1  0  0  0
 34 59  1  0  0  0
 34106  1  0  0  0
 35 44  2  0  0  0
 35 45  1  0  0  0
 35 68  1  0  0  0
 36 56  1  0  0  0
 36107  1  0  0  0
 37 39  1  0  0  0
 37 47  1  0  0  0
 37 66  1  0  0  0
 37108  1  0  0  0
 38 43  2  0  0  0
 38 46  1  0  0  0
 38 47  1  0  0  0
 39 64  1  0  0  0
 39 67  2  0  0  0
 40 52  1  0  0  0
 40 53  2  0  0  0
 40 58  1  0  0  0
 41109  1  0  0  0
 41110  1  0  0  0
 41111  1  0  0  0
 41 48  1  0  0  0
 42 43  1  0  0  0
 42 66  1  0  0  0
 42112  1  0  0  0
 42113  1  0  0  0
 43 44  1  0  0  0
 44114  1  0  0  0
 45 46  2  0  0  0
 45115  1  0  0  0
 46116  1  0  0  0
 47117  1  0  0  0
 47118  1  0  0  0
 48 56  1  0  0  0
 48 65  1  0  0  0
 48119  1  0  0  0
 49 50  1  0  0  0
 49 53  1  0  0  0
 49 64  1  0  0  0
 49120  1  0  0  0
 50 51  1  0  0  0
 50121  1  0  0  0
 50122  1  0  0  0
 51 52  1  0  0  0
 51123  1  0  0  0
 51124  1  0  0  0
 52125  1  0  0  0
 52126  1  0  0  0
 53 54  1  0  0  0
 54 55  2  0  0  0
 54127  1  0  0  0
 55 57  1  0  0  0
 55128  1  0  0  0
 56 69  2  0  0  0
 57 58  2  0  0  0
 57129  1  0  0  0
 58130  1  0  0  0
 59 60  1  0  0  0
 59 61  1  0  0  0
 59 62  1  0  0  0
 60131  1  0  0  0
 60132  1  0  0  0
 60133  1  0  0  0
 61134  1  0  0  0
 61135  1  0  0  0
 61136  1  0  0  0
 62137  1  0  0  0
 62138  1  0  0  0
 62139  1  0  0  0
 63 65  1  0  0  0
 63140  1  0  0  0
 63141  1  0  0  0
 63142  1  0  0  0
 64143  1  0  0  0
 65144  1  0  0  0
 68 78  1  0  0  0
 71 74  2  0  0  0
 71 75  1  0  0  0
 71145  1  0  0  0
 72 73  2  0  0  0
 72 82  1  0  0  0
 72146  1  0  0  0
 73 74  1  0  0  0
 73 79  1  0  0  0
 74 84  1  0  0  0
 75 82  2  0  0  0
 75 83  1  0  0  0
 76 77  1  0  0  0
 76 78  1  0  0  0
 76147  1  0  0  0
 76148  1  0  0  0
 77 78  1  0  0  0
 77 80  1  0  0  0
 77149  1  0  0  0
 78150  1  0  0  0
 79 81  1  0  0  0
 79151  1  0  0  0
 79152  1  0  0  0
 80 84  1  0  0  0
 80153  1  0  0  0
 80154  1  0  0  0
 81 85  1  0  0  0
 81155  1  0  0  0
 81156  1  0  0  0
 82157  1  0  0  0
 83158  1  0  0  0
 83159  1  0  0  0
 84160  1  0  0  0
 85161  1  0  0  0
M  CHG  1  82   1
M  ISO  4   1 100  68 101  78 101  85 100
M  END
> <chiral flag>
0

> <version>
0

> <s_m_source_file>
/data/baiqing/PycharmProjects/Reinvent-master-3.2/result/LINK_invent/BTK/process_docking_weight1_custom_sum_contain_oxygen_bond_distance_aromatic_linkinvent_7_9_3/rearranged_h_0147.sdf

> <i_m_source_file_index>
49

> <r_mmod_Potential_Energy-OPLS-2005>
-19.5628185272217

> <r_mmod_Stretch_Energy-OPLS-2005>
75.0681686401367

> <r_mmod_Bend_Energy-OPLS-2005>
200.246536254883

> <r_mmod_Torsional_Energy-OPLS-2005>
241.956695556641

> <r_mmod_Improper_Torsional_Energy-OPLS-2005>
4.22402667999268

> <r_mmod_Van_der_Waal_Energy-OPLS-2005>
160.55500793457

> <r_mmod_Electrostatic_Energy-OPLS-2005>
-292.066772460938

> <r_mmod_Solvation_Energy-OPLS-2005>
-451.531707763672

> <b_mmod_Minimization_Converged-OPLS-2005>
0

> <r_mmod_RMS_Derivative-OPLS-2005>
2.27335047721863

$$$$
49
                    3D
 Structure written by MMmdl.
163171  0  0  1  0            999 V2000
  -30.6583  -14.4757   20.5954 C   0  0  0  0  0  0
  -30.4207  -12.2971   19.4548 C   0  0  0  0  0  0
  -29.5054  -12.5186   18.2305 C   0  0  0  0  0  0
  -28.0289  -12.3465   18.6370 C   0  0  0  0  0  0
  -27.6630  -13.1984   19.8844 C   0  0  2  0  0  0
  -28.6901  -12.9712   21.0170 C   0  0  0  0  0  0
  -25.2576  -13.8132   20.5703 C   0  0  0  0  0  0
  -24.1856  -13.0426   20.9207 C   0  0  0  0  0  0
  -24.6392  -11.6890   20.8741 C   0  0  0  0  0  0
  -23.9043  -10.4292   21.0394 C   0  0  0  0  0  0
  -24.3581   -9.4191   21.9172 C   0  0  0  0  0  0
  -23.6260   -8.2224   22.0738 C   0  0  0  0  0  0
  -22.4251   -8.0253   21.3518 C   0  0  0  0  0  0
  -21.9868   -9.0226   20.4616 C   0  0  0  0  0  0
  -22.7203  -10.2115   20.3036 C   0  0  0  0  0  0
  -21.6858   -6.0703   22.5270 C   0  0  0  0  0  0
  -21.4006   -6.5611   23.8201 C   0  0  0  0  0  0
  -21.3669   -5.6767   24.9171 C   0  0  0  0  0  0
  -21.6089   -4.3037   24.7237 C   0  0  0  0  0  0
  -21.8806   -3.8123   23.4349 C   0  0  0  0  0  0
  -21.9191   -4.6931   22.3407 C   0  0  0  0  0  0
  -22.7867  -13.5144   21.1917 C   0  0  0  0  0  0
  -22.1666   -4.2106   21.0990 F   0  0  0  0  0  0
  -21.5645   -3.4529   25.7754 F   0  0  0  0  0  0
  -30.0276  -13.2751   20.4803 N   0  0  0  0  0  0
  -26.3020  -12.9311   20.3357 N   0  0  0  0  0  0
  -25.9313  -11.6477   20.5767 N   0  0  0  0  0  0
  -22.0549  -12.8088   22.0427 N   0  0  0  0  0  0
  -25.4272  -15.1864   20.4220 N   0  0  0  0  0  0
  -31.7725  -14.6982   20.1127 O   0  0  0  0  0  0
  -21.6642   -6.8835   21.4222 O   0  0  0  0  0  0
  -22.3510  -14.5457   20.6774 O   0  0  0  0  0  0
  -24.6122  -31.8722   23.2142 C   0  0  0  0  0  0
  -25.9046  -32.4840   23.8410 C   0  0  1  0  0  0
  -27.2352  -27.4413   20.0896 C   0  0  0  0  0  0
  -25.5962  -33.8640   24.2347 N   0  0  0  0  0  0
  -23.3992  -30.4979   21.5549 C   0  0  2  0  0  0
  -24.8431  -28.9632   20.1276 C   0  0  0  0  0  0
  -22.7371  -29.4712   22.5010 C   0  0  0  0  0  0
  -18.0308  -28.1383   22.8478 C   0  0  0  0  0  0
  -24.1523  -36.7311   23.2623 C   0  0  0  0  0  0
  -25.9235  -30.8468   21.3607 C   0  0  0  0  0  0
  -26.0063  -29.4791   20.7090 C   0  0  0  0  0  0
  -27.2011  -28.7240   20.6894 C   0  0  0  0  0  0
  -26.0434  -26.9361   19.5200 C   0  0  0  0  0  0
  -24.8541  -27.6889   19.5401 C   0  0  0  0  0  0
  -23.6090  -29.8321   20.1702 C   0  0  0  0  0  0
  -25.4130  -36.3098   24.0322 C   0  0  1  0  0  0
  -20.5872  -28.3686   23.1350 C   0  0  2  0  0  0
  -20.6799  -26.9409   22.5408 C   0  0  0  0  0  0
  -19.5781  -26.6380   21.5210 C   0  0  0  0  0  0
  -18.1955  -26.7921   22.1642 C   0  0  0  0  0  0
  -19.1534  -28.8845   23.2900 C   0  0  0  0  0  0
  -18.9463  -30.1446   23.8933 C   0  0  0  0  0  0
  -17.6466  -30.6576   24.0604 C   0  0  0  0  0  0
  -25.9049  -34.9480   23.5121 C   0  0  0  0  0  0
  -16.5361  -29.9074   23.6364 C   0  0  0  0  0  0
  -16.7300  -28.6533   23.0314 C   0  0  0  0  0  0
  -26.4509  -31.6605   25.0728 C   0  0  0  0  0  0
  -25.3791  -31.3673   26.1479 C   0  0  0  0  0  0
  -27.0342  -30.3058   24.6078 C   0  0  0  0  0  0
  -27.6101  -32.4297   25.7488 C   0  0  0  0  0  0
  -27.5602  -37.1822   24.8464 C   0  0  0  0  0  0
  -21.4111  -29.3051   22.3737 N   0  0  0  0  0  0
  -26.4320  -37.3779   23.9403 N   0  0  0  0  0  0
  -24.6632  -31.0848   22.1026 N   0  0  0  0  0  0
  -23.4155  -28.8275   23.3070 O   0  0  0  0  0  0
  -28.4271  -26.7419   20.0870 O   0  0  0  0  0  0
  -26.5547  -34.8909   22.4648 O   0  0  0  0  0  0
  -23.5333  -32.1467   23.7570 O   0  0  0  0  0  0
  -29.4137  -21.3000   20.6180 C   0  0  0  0  0  0
  -29.6567  -20.0452   21.2060 C   0  0  0  0  0  0
  -27.0236  -20.8427   20.6512 C   0  0  0  0  0  0
  -28.1029  -21.6885   20.2925 C   0  0  0  0  0  0
  -28.6047  -19.1247   21.4101 C   0  0  0  0  0  0
  -27.2624  -19.5480   21.1976 C   0  0  0  0  0  0
  -29.8502  -17.2783   19.4287 C   0  0  0  0  0  0
  -24.9073  -19.1101   21.4958 C   0  0  0  0  0  0
  -27.9038  -22.9729   19.4863 C   0  0  0  0  0  0
  -28.9461  -17.6748   21.8202 C   0  0  0  0  0  0
  -28.0608  -24.2837   20.2907 C   0  0  0  0  0  0
  -28.5155  -25.4787   19.4133 C   0  0  0  0  0  0
  -29.9889  -16.9195   20.9274 C   0  0  1  0  0  0
  -29.8826  -15.4561   21.1102 N   0  0  0  0  0  0
  -26.2559  -18.6565   21.5128 O   0  0  0  0  0  0
  -31.4752  -12.3807   19.1880 H   0  0  0  0  0  0
  -30.2904  -11.2838   19.8397 H   0  0  0  0  0  0
  -29.7582  -11.8284   17.4263 H   0  0  0  0  0  0
  -29.6595  -13.5242   17.8374 H   0  0  0  0  0  0
  -27.8704  -11.2871   18.8564 H   0  0  0  0  0  0
  -27.3691  -12.5862   17.8052 H   0  0  0  0  0  0
  -27.7122  -14.2474   19.5854 H   0  0  0  0  0  0
  -28.6567  -11.9367   21.3596 H   0  0  0  0  0  0
  -28.4416  -13.5670   21.8975 H   0  0  0  0  0  0
  -25.2732   -9.5675   22.4734 H   0  0  0  0  0  0
  -24.0018   -7.4598   22.7421 H   0  0  0  0  0  0
  -21.0808   -8.8703   19.8878 H   0  0  0  0  0  0
  -22.3646  -10.9646   19.6127 H   0  0  0  0  0  0
  -21.1986   -7.6119   23.9674 H   0  0  0  0  0  0
  -21.1520   -6.0525   25.9065 H   0  0  0  0  0  0
  -22.0587   -2.7580   23.2889 H   0  0  0  0  0  0
  -22.4188  -11.9747   22.4801 H   0  0  0  0  0  0
  -21.1181  -13.1082   22.2716 H   0  0  0  0  0  0
  -24.6616  -15.8385   20.5493 H   0  0  0  0  0  0
  -26.2904  -15.6372   20.1489 H   0  0  0  0  0  0
  -26.7107  -32.5556   23.1174 H   0  0  0  0  0  0
  -25.0270  -33.9810   25.0597 H   0  0  0  0  0  0
  -22.6910  -31.3162   21.4185 H   0  0  0  0  0  0
  -23.3782  -35.9668   23.3300 H   0  0  0  0  0  0
  -24.3620  -36.8898   22.2041 H   0  0  0  0  0  0
  -23.7309  -37.6529   23.6625 H   0  0  0  0  0  0
  -26.0323  -31.6238   20.5999 H   0  0  0  0  0  0
  -26.8061  -30.8955   21.9860 H   0  0  0  0  0  0
  -28.0986  -29.1346   21.1336 H   0  0  0  0  0  0
  -25.9965  -25.9596   19.0610 H   0  0  0  0  0  0
  -23.9509  -27.2797   19.1079 H   0  0  0  0  0  0
  -23.7210  -30.6076   19.4082 H   0  0  0  0  0  0
  -22.7305  -29.2573   19.8701 H   0  0  0  0  0  0
  -25.1336  -36.1966   25.0818 H   0  0  0  0  0  0
  -20.9949  -28.3305   24.1472 H   0  0  0  0  0  0
  -21.6665  -26.7562   22.1191 H   0  0  0  0  0  0
  -20.5794  -26.2247   23.3586 H   0  0  0  0  0  0
  -19.6759  -27.3156   20.6721 H   0  0  0  0  0  0
  -19.6966  -25.6283   21.1254 H   0  0  0  0  0  0
  -17.4303  -26.6734   21.3990 H   0  0  0  0  0  0
  -18.0302  -26.0029   22.9000 H   0  0  0  0  0  0
  -19.7919  -30.7285   24.2348 H   0  0  0  0  0  0
  -17.5018  -31.6242   24.5257 H   0  0  0  0  0  0
  -15.5376  -30.2990   23.7706 H   0  0  0  0  0  0
  -15.8723  -28.0852   22.6963 H   0  0  0  0  0  0
  -24.5963  -30.7042   25.7799 H   0  0  0  0  0  0
  -24.8998  -32.2808   26.4983 H   0  0  0  0  0  0
  -25.8139  -30.8786   27.0200 H   0  0  0  0  0  0
  -26.2867  -29.6799   24.1190 H   0  0  0  0  0  0
  -27.4203  -29.7321   25.4518 H   0  0  0  0  0  0
  -27.8670  -30.4401   23.9167 H   0  0  0  0  0  0
  -27.2740  -33.3554   26.2153 H   0  0  0  0  0  0
  -28.3857  -32.6901   25.0282 H   0  0  0  0  0  0
  -28.0840  -31.8370   26.5319 H   0  0  0  0  0  0
  -28.2617  -38.0109   24.7491 H   0  0  0  0  0  0
  -28.1077  -36.2646   24.6317 H   0  0  0  0  0  0
  -27.2299  -37.1503   25.8850 H   0  0  0  0  0  0
  -20.9232  -29.8821   21.7016 H   0  0  0  0  0  0
  -26.0203  -38.2871   24.1355 H   0  0  0  0  0  0
  -30.2409  -21.9559   20.3788 H   0  0  0  0  0  0
  -30.6765  -19.7621   21.4225 H   0  0  0  0  0  0
  -26.0144  -21.1789   20.4587 H   0  0  0  0  0  0
  -29.9026  -18.3525   19.2567 H   0  0  0  0  0  0
  -28.8956  -16.9261   19.0361 H   0  0  0  0  0  0
  -30.6628  -16.8560   18.8312 H   0  0  0  0  0  0
  -24.7450  -19.8907   22.2390 H   0  0  0  0  0  0
  -24.2525  -18.2804   21.7628 H   0  0  0  0  0  0
  -24.5971  -19.4526   20.5118 H   0  0  0  0  0  0
  -26.9482  -22.9425   18.9627 H   0  0  0  0  0  0
  -28.6495  -22.9622   18.6884 H   0  0  0  0  0  0
  -28.0265  -17.0921   21.8414 H   0  0  0  0  0  0
  -29.3014  -17.6850   22.8490 H   0  0  0  0  0  0
  -28.8321  -24.1498   21.0470 H   0  0  0  0  0  0
  -27.1372  -24.4878   20.8382 H   0  0  0  0  0  0
  -28.0312  -25.5106   18.4380 H   0  0  0  0  0  0
  -29.5674  -25.3260   19.1650 H   0  0  0  0  0  0
  -30.9804  -17.2375   21.2497 H   0  0  0  0  0  0
  -29.0200  -15.1274   21.5146 H   0  0  0  0  0  0
  1 25  1  0  0  0
  1 30  2  0  0  0
  1 84  1  0  0  0
  2  3  1  0  0  0
  2 25  1  0  0  0
  2 86  1  0  0  0
  2 87  1  0  0  0
  3  4  1  0  0  0
  3 88  1  0  0  0
  3 89  1  0  0  0
  4  5  1  0  0  0
  4 90  1  0  0  0
  4 91  1  0  0  0
  5  6  1  0  0  0
  5 26  1  0  0  0
  5 92  1  0  0  0
  6 25  1  0  0  0
  6 93  1  0  0  0
  6 94  1  0  0  0
  7  8  2  0  0  0
  7 26  1  0  0  0
  7 29  1  0  0  0
  8  9  1  0  0  0
  8 22  1  0  0  0
  9 10  1  0  0  0
  9 27  2  0  0  0
 10 11  2  0  0  0
 10 15  1  0  0  0
 11 12  1  0  0  0
 11 95  1  0  0  0
 12 13  2  0  0  0
 12 96  1  0  0  0
 13 14  1  0  0  0
 13 31  1  0  0  0
 14 15  2  0  0  0
 14 97  1  0  0  0
 15 98  1  0  0  0
 16 17  2  0  0  0
 16 21  1  0  0  0
 16 31  1  0  0  0
 17 18  1  0  0  0
 17 99  1  0  0  0
 18 19  2  0  0  0
 18100  1  0  0  0
 19 20  1  0  0  0
 19 24  1  0  0  0
 20 21  2  0  0  0
 20101  1  0  0  0
 21 23  1  0  0  0
 22 28  1  0  0  0
 22 32  2  0  0  0
 26 27  1  0  0  0
 28102  1  0  0  0
 28103  1  0  0  0
 29104  1  0  0  0
 29105  1  0  0  0
 33 34  1  0  0  0
 33 66  1  0  0  0
 33 70  2  0  0  0
 34 36  1  0  0  0
 34 59  1  0  0  0
 34106  1  0  0  0
 35 44  2  0  0  0
 35 45  1  0  0  0
 35 68  1  0  0  0
 36 56  1  0  0  0
 36107  1  0  0  0
 37 39  1  0  0  0
 37 47  1  0  0  0
 37 66  1  0  0  0
 37108  1  0  0  0
 38 43  2  0  0  0
 38 46  1  0  0  0
 38 47  1  0  0  0
 39 64  1  0  0  0
 39 67  2  0  0  0
 40 52  1  0  0  0
 40 53  2  0  0  0
 40 58  1  0  0  0
 41109  1  0  0  0
 41110  1  0  0  0
 41111  1  0  0  0
 41 48  1  0  0  0
 42 43  1  0  0  0
 42 66  1  0  0  0
 42112  1  0  0  0
 42113  1  0  0  0
 43 44  1  0  0  0
 44114  1  0  0  0
 45 46  2  0  0  0
 45115  1  0  0  0
 46116  1  0  0  0
 47117  1  0  0  0
 47118  1  0  0  0
 48 56  1  0  0  0
 48 65  1  0  0  0
 48119  1  0  0  0
 49 50  1  0  0  0
 49 53  1  0  0  0
 49 64  1  0  0  0
 49120  1  0  0  0
 50 51  1  0  0  0
 50121  1  0  0  0
 50122  1  0  0  0
 51 52  1  0  0  0
 51123  1  0  0  0
 51124  1  0  0  0
 52125  1  0  0  0
 52126  1  0  0  0
 53 54  1  0  0  0
 54 55  2  0  0  0
 54127  1  0  0  0
 55 57  1  0  0  0
 55128  1  0  0  0
 56 69  2  0  0  0
 57 58  2  0  0  0
 57129  1  0  0  0
 58130  1  0  0  0
 59 60  1  0  0  0
 59 61  1  0  0  0
 59 62  1  0  0  0
 60131  1  0  0  0
 60132  1  0  0  0
 60133  1  0  0  0
 61134  1  0  0  0
 61135  1  0  0  0
 61136  1  0  0  0
 62137  1  0  0  0
 62138  1  0  0  0
 62139  1  0  0  0
 63 65  1  0  0  0
 63140  1  0  0  0
 63141  1  0  0  0
 63142  1  0  0  0
 64143  1  0  0  0
 65144  1  0  0  0
 68 82  1  0  0  0
 71 72  2  0  0  0
 71 74  1  0  0  0
 71145  1  0  0  0
 72 75  1  0  0  0
 72146  1  0  0  0
 73 74  2  0  0  0
 73 76  1  0  0  0
 73147  1  0  0  0
 74 79  1  0  0  0
 75 76  2  0  0  0
 75 80  1  0  0  0
 76 85  1  0  0  0
 77148  1  0  0  0
 77149  1  0  0  0
 77150  1  0  0  0
 77 83  1  0  0  0
 78 85  1  0  0  0
 78151  1  0  0  0
 78152  1  0  0  0
 78153  1  0  0  0
 79 81  1  0  0  0
 79154  1  0  0  0
 79155  1  0  0  0
 80 83  1  0  0  0
 80156  1  0  0  0
 80157  1  0  0  0
 81 82  1  0  0  0
 81158  1  0  0  0
 81159  1  0  0  0
 82160  1  0  0  0
 82161  1  0  0  0
 83 84  1  0  0  0
 83162  1  0  0  0
 84163  1  0  0  0
M  ISO  4   1 100  68 101  82 101  84 100
M  END
> <chiral flag>
0

> <version>
0

> <s_m_source_file>
/data/baiqing/PycharmProjects/Reinvent-master-3.2/result/LINK_invent/BTK/process_docking_weight1_custom_sum_contain_oxygen_bond_distance_aromatic_linkinvent_7_9_3/rearranged_h_0147.sdf

> <i_m_source_file_index>
50

> <r_mmod_Potential_Energy-OPLS-2005>
-57.4824485778809

> <r_mmod_Stretch_Energy-OPLS-2005>
41.433048248291

> <r_mmod_Bend_Energy-OPLS-2005>
110.004188537598

> <r_mmod_Torsional_Energy-OPLS-2005>
202.405944824219

> <r_mmod_Improper_Torsional_Energy-OPLS-2005>
4.96140909194946

> <r_mmod_Van_der_Waal_Energy-OPLS-2005>
158.744430541992

> <r_mmod_Electrostatic_Energy-OPLS-2005>
-383.399169921875

> <r_mmod_Solvation_Energy-OPLS-2005>
-204.601989746094

> <b_mmod_Minimization_Converged-OPLS-2005>
0

> <r_mmod_RMS_Derivative-OPLS-2005>
6.54943418502808

$$$$
50
                    3D
 Structure written by MMmdl.
172182  0  0  1  0            999 V2000
  -30.6896  -14.5608   20.4310 C   0  0  0  0  0  0
  -30.4422  -12.3173   19.4425 C   0  0  0  0  0  0
  -29.5105  -12.3827   18.2133 C   0  0  0  0  0  0
  -28.0224  -12.3088   18.6274 C   0  0  0  0  0  0
  -27.6486  -13.1907   19.8537 C   0  0  2  0  0  0
  -28.7093  -13.0855   20.9705 C   0  0  0  0  0  0
  -25.2591  -13.8085   20.5727 C   0  0  0  0  0  0
  -24.1822  -13.0400   20.9204 C   0  0  0  0  0  0
  -24.6359  -11.6856   20.8775 C   0  0  0  0  0  0
  -23.9017  -10.4268   21.0429 C   0  0  0  0  0  0
  -24.3581   -9.4180   21.9194 C   0  0  0  0  0  0
  -23.6264   -8.2219   22.0762 C   0  0  0  0  0  0
  -22.4249   -8.0262   21.3547 C   0  0  0  0  0  0
  -21.9877   -9.0235   20.4645 C   0  0  0  0  0  0
  -22.7203  -10.2117   20.3060 C   0  0  0  0  0  0
  -21.6843   -6.0715   22.5283 C   0  0  0  0  0  0
  -21.4002   -6.5624   23.8215 C   0  0  0  0  0  0
  -21.3665   -5.6783   24.9180 C   0  0  0  0  0  0
  -21.6045   -4.3044   24.7236 C   0  0  0  0  0  0
  -21.8824   -3.8132   23.4359 C   0  0  0  0  0  0
  -21.9194   -4.6944   22.3411 C   0  0  0  0  0  0
  -22.7842  -13.5227   21.1843 C   0  0  0  0  0  0
  -22.1653   -4.2127   21.0990 F   0  0  0  0  0  0
  -21.5640   -3.4534   25.7751 F   0  0  0  0  0  0
  -30.0237  -13.3708   20.3766 N   0  0  0  0  0  0
  -26.2987  -12.9201   20.3371 N   0  0  0  0  0  0
  -25.9277  -11.6393   20.5815 N   0  0  0  0  0  0
  -22.0446  -12.8247   22.0392 N   0  0  0  0  0  0
  -25.4358  -15.1812   20.4163 N   0  0  0  0  0  0
  -31.9058  -14.6485   20.2481 O   0  0  0  0  0  0
  -21.6619   -6.8858   21.4244 O   0  0  0  0  0  0
  -22.3554  -14.5539   20.6679 O   0  0  0  0  0  0
  -24.6168  -31.8687   23.2109 C   0  0  0  0  0  0
  -25.9054  -32.4829   23.8414 C   0  0  1  0  0  0
  -27.2308  -27.4222   20.1045 C   0  0  0  0  0  0
  -25.5903  -33.8628   24.2351 N   0  0  0  0  0  0
  -23.4050  -30.4932   21.5512 C   0  0  2  0  0  0
  -24.8507  -28.9635   20.1127 C   0  0  0  0  0  0
  -22.7425  -29.4661   22.4984 C   0  0  0  0  0  0
  -18.0281  -28.1383   22.8493 C   0  0  0  0  0  0
  -24.1482  -36.7313   23.2636 C   0  0  0  0  0  0
  -25.9357  -30.8312   21.3665 C   0  0  0  0  0  0
  -26.0108  -29.4650   20.7144 C   0  0  0  0  0  0
  -27.2017  -28.7006   20.7098 C   0  0  0  0  0  0
  -26.0522  -26.9510   19.4744 C   0  0  0  0  0  0
  -24.8672  -27.7066   19.4876 C   0  0  0  0  0  0
  -23.6134  -29.8305   20.1642 C   0  0  0  0  0  0
  -25.4100  -36.3115   24.0338 C   0  0  1  0  0  0
  -20.5871  -28.3674   23.1309 C   0  0  2  0  0  0
  -20.6775  -26.9411   22.5416 C   0  0  0  0  0  0
  -19.5751  -26.6392   21.5217 C   0  0  0  0  0  0
  -18.1927  -26.7931   22.1623 C   0  0  0  0  0  0
  -19.1531  -28.8843   23.2897 C   0  0  0  0  0  0
  -18.9454  -30.1448   23.8912 C   0  0  0  0  0  0
  -17.6455  -30.6585   24.0566 C   0  0  0  0  0  0
  -25.9031  -34.9478   23.5144 C   0  0  0  0  0  0
  -16.5347  -29.9086   23.6330 C   0  0  0  0  0  0
  -16.7271  -28.6502   23.0351 C   0  0  0  0  0  0
  -26.4479  -31.6596   25.0735 C   0  0  0  0  0  0
  -25.3745  -31.3687   26.1481 C   0  0  0  0  0  0
  -27.0315  -30.3046   24.6096 C   0  0  0  0  0  0
  -27.6075  -32.4291   25.7495 C   0  0  0  0  0  0
  -27.5579  -37.1802   24.8461 C   0  0  0  0  0  0
  -21.4154  -29.3037   22.3719 N   0  0  0  0  0  0
  -26.4288  -37.3796   23.9415 N   0  0  0  0  0  0
  -24.6707  -31.0784   22.1009 N   0  0  0  0  0  0
  -23.4192  -28.8203   23.3026 O   0  0  0  0  0  0
  -28.3923  -26.6704   20.1575 O   0  0  0  0  0  0
  -26.5595  -34.8922   22.4704 O   0  0  0  0  0  0
  -23.5355  -32.1432   23.7499 O   0  0  0  0  0  0
  -31.2809  -19.8027   21.9902 C   0  0  0  0  0  0
  -29.6133  -20.7166   20.4705 C   0  0  0  0  0  0
  -30.8128  -22.2081   21.9521 C   0  0  0  0  0  0
  -30.3354  -19.6004   20.9618 C   0  0  0  0  0  0
  -31.5227  -21.1108   22.4907 C   0  0  0  0  0  0
  -29.8466  -22.0252   20.9371 C   0  0  0  0  0  0
  -32.4985  -20.1240   18.5265 C   0  0  0  0  0  0
  -32.5589  -19.2180   17.3173 C   0  0  0  0  0  0
  -30.3020  -16.9190   18.1738 C   0  0  0  0  0  0
  -29.3815  -15.9931   18.9984 C   0  0  0  0  0  0
  -30.1650  -16.9232   21.1483 C   0  0  0  0  0  0
  -30.1111  -18.2378   20.2868 C   0  0  2  0  0  0
  -31.3275  -19.2263   18.1945 C   0  0  0  0  0  0
  -30.9824  -17.9994   19.0306 C   0  0  2  0  0  0
  -33.1784  -20.3402   24.0591 C   0  0  0  0  0  0
  -28.2588  -25.2459   19.9899 C   0  0  0  0  0  0
  -29.3455  -24.4095   20.6980 C   0  0  0  0  0  0
  -29.9149  -15.6806   20.3442 N   0  0  0  0  0  0
  -32.4364  -21.4054   23.4792 O   0  0  0  0  0  0
  -29.1121  -23.0392   20.3501 O   0  0  0  0  0  0
  -31.4827  -12.4285   19.1315 H   0  0  0  0  0  0
  -30.3754  -11.3435   19.9304 H   0  0  0  0  0  0
  -29.7383  -11.5514   17.5440 H   0  0  0  0  0  0
  -29.7181  -13.2695   17.6191 H   0  0  0  0  0  0
  -27.8166  -11.2646   18.8625 H   0  0  0  0  0  0
  -27.3851  -12.5516   17.7773 H   0  0  0  0  0  0
  -27.6221  -14.2135   19.5023 H   0  0  0  0  0  0
  -28.7079  -12.0845   21.4031 H   0  0  0  0  0  0
  -28.4877  -13.7778   21.7844 H   0  0  0  0  0  0
  -25.2731   -9.5640   22.4760 H   0  0  0  0  0  0
  -23.9972   -7.4597   22.7470 H   0  0  0  0  0  0
  -21.0816   -8.8740   19.8941 H   0  0  0  0  0  0
  -22.3669  -10.9646   19.6159 H   0  0  0  0  0  0
  -21.1976   -7.6126   23.9708 H   0  0  0  0  0  0
  -21.1485   -6.0510   25.9080 H   0  0  0  0  0  0
  -22.0601   -2.7591   23.2873 H   0  0  0  0  0  0
  -22.4031  -11.9916   22.4823 H   0  0  0  0  0  0
  -21.1045  -13.1274   22.2537 H   0  0  0  0  0  0
  -24.6808  -15.8472   20.5366 H   0  0  0  0  0  0
  -26.3086  -15.6184   20.1496 H   0  0  0  0  0  0
  -26.7136  -32.5547   23.1191 H   0  0  0  0  0  0
  -25.0069  -33.9795   25.0507 H   0  0  0  0  0  0
  -22.6939  -31.3104   21.4139 H   0  0  0  0  0  0
  -23.3747  -35.9640   23.3290 H   0  0  0  0  0  0
  -24.3597  -36.8940   22.2055 H   0  0  0  0  0  0
  -23.7225  -37.6511   23.6659 H   0  0  0  0  0  0
  -26.0484  -31.5948   20.5955 H   0  0  0  0  0  0
  -26.8242  -30.8878   21.9839 H   0  0  0  0  0  0
  -28.0935  -29.0777   21.1908 H   0  0  0  0  0  0
  -26.0250  -25.9975   18.9677 H   0  0  0  0  0  0
  -23.9788  -27.3182   19.0091 H   0  0  0  0  0  0
  -23.7230  -30.6078   19.4068 H   0  0  0  0  0  0
  -22.7376  -29.2507   19.8677 H   0  0  0  0  0  0
  -25.1274  -36.1987   25.0830 H   0  0  0  0  0  0
  -20.9967  -28.3252   24.1426 H   0  0  0  0  0  0
  -20.5711  -26.2280   23.3603 H   0  0  0  0  0  0
  -21.6641  -26.7470   22.1190 H   0  0  0  0  0  0
  -19.6915  -25.6310   21.1236 H   0  0  0  0  0  0
  -19.6693  -27.3211   20.6754 H   0  0  0  0  0  0
  -17.4206  -26.6693   21.4016 H   0  0  0  0  0  0
  -18.0314  -26.0068   22.9009 H   0  0  0  0  0  0
  -19.7929  -30.7265   24.2288 H   0  0  0  0  0  0
  -17.5006  -31.6273   24.5155 H   0  0  0  0  0  0
  -15.5345  -30.2989   23.7638 H   0  0  0  0  0  0
  -15.8672  -28.0823   22.7053 H   0  0  0  0  0  0
  -24.5922  -30.7032   25.7809 H   0  0  0  0  0  0
  -24.8925  -32.2829   26.4952 H   0  0  0  0  0  0
  -25.8090  -30.8844   27.0232 H   0  0  0  0  0  0
  -26.2857  -29.6804   24.1153 H   0  0  0  0  0  0
  -27.4106  -29.7283   25.4546 H   0  0  0  0  0  0
  -27.8682  -30.4390   23.9237 H   0  0  0  0  0  0
  -27.2729  -33.3585   26.2114 H   0  0  0  0  0  0
  -28.3862  -32.6844   25.0297 H   0  0  0  0  0  0
  -28.0760  -31.8375   26.5370 H   0  0  0  0  0  0
  -28.2581  -38.0114   24.7537 H   0  0  0  0  0  0
  -28.1088  -36.2649   24.6244 H   0  0  0  0  0  0
  -27.2309  -37.1406   25.8865 H   0  0  0  0  0  0
  -20.9320  -29.8753   21.6937 H   0  0  0  0  0  0
  -26.0177  -38.2872   24.1431 H   0  0  0  0  0  0
  -31.8312  -18.9519   22.3630 H   0  0  0  0  0  0
  -28.8938  -20.5751   19.6761 H   0  0  0  0  0  0
  -31.0288  -23.1932   22.3366 H   0  0  0  0  0  0
  -32.3757  -21.1915   18.3518 H   0  0  0  0  0  0
  -33.1077  -19.8628   19.3902 H   0  0  0  0  0  0
  -33.2084  -18.3463   17.3722 H   0  0  0  0  0  0
  -32.4875  -19.6846   16.3366 H   0  0  0  0  0  0
  -29.6991  -17.3834   17.3921 H   0  0  0  0  0  0
  -31.0629  -16.3341   17.6561 H   0  0  0  0  0  0
  -29.2026  -15.1136   18.3951 H   0  0  0  0  0  0
  -28.3947  -16.4430   19.1122 H   0  0  0  0  0  0
  -29.4208  -16.9750   21.9440 H   0  0  0  0  0  0
  -31.1360  -16.8490   21.6411 H   0  0  0  0  0  0
  -29.0775  -18.3385   19.9514 H   0  0  0  0  0  0
  -30.4575  -19.7216   17.7673 H   0  0  0  0  0  0
  -31.9330  -17.6015   19.3886 H   0  0  0  0  0  0
  -33.8412  -20.7421   24.8259 H   0  0  0  0  0  0
  -33.8023  -19.8339   23.3215 H   0  0  0  0  0  0
  -32.5257  -19.6125   24.5420 H   0  0  0  0  0  0
  -27.3072  -24.8912   20.3892 H   0  0  0  0  0  0
  -28.2637  -25.0204   18.9226 H   0  0  0  0  0  0
  -29.2696  -24.5568   21.7762 H   0  0  0  0  0  0
  -30.3402  -24.7202   20.3754 H   0  0  0  0  0  0
  1 25  1  0  0  0
  1 30  2  0  0  0
  1 88  1  0  0  0
  2  3  1  0  0  0
  2 25  1  0  0  0
  2 91  1  0  0  0
  2 92  1  0  0  0
  3  4  1  0  0  0
  3 93  1  0  0  0
  3 94  1  0  0  0
  4  5  1  0  0  0
  4 95  1  0  0  0
  4 96  1  0  0  0
  5  6  1  0  0  0
  5 26  1  0  0  0
  5 97  1  0  0  0
  6 25  1  0  0  0
  6 98  1  0  0  0
  6 99  1  0  0  0
  7  8  2  0  0  0
  7 26  1  0  0  0
  7 29  1  0  0  0
  8  9  1  0  0  0
  8 22  1  0  0  0
  9 10  1  0  0  0
  9 27  2  0  0  0
 10 11  2  0  0  0
 10 15  1  0  0  0
 11 12  1  0  0  0
 11100  1  0  0  0
 12 13  2  0  0  0
 12101  1  0  0  0
 13 14  1  0  0  0
 13 31  1  0  0  0
 14 15  2  0  0  0
 14102  1  0  0  0
 15103  1  0  0  0
 16 17  2  0  0  0
 16 21  1  0  0  0
 16 31  1  0  0  0
 17 18  1  0  0  0
 17104  1  0  0  0
 18 19  2  0  0  0
 18105  1  0  0  0
 19 20  1  0  0  0
 19 24  1  0  0  0
 20 21  2  0  0  0
 20106  1  0  0  0
 21 23  1  0  0  0
 22 28  1  0  0  0
 22 32  2  0  0  0
 26 27  1  0  0  0
 28107  1  0  0  0
 28108  1  0  0  0
 29109  1  0  0  0
 29110  1  0  0  0
 33 34  1  0  0  0
 33 66  1  0  0  0
 33 70  2  0  0  0
 34 36  1  0  0  0
 34 59  1  0  0  0
 34111  1  0  0  0
 35 44  2  0  0  0
 35 45  1  0  0  0
 35 68  1  0  0  0
 36 56  1  0  0  0
 36112  1  0  0  0
 37 39  1  0  0  0
 37 47  1  0  0  0
 37 66  1  0  0  0
 37113  1  0  0  0
 38 43  2  0  0  0
 38 46  1  0  0  0
 38 47  1  0  0  0
 39 64  1  0  0  0
 39 67  2  0  0  0
 40 52  1  0  0  0
 40 53  2  0  0  0
 40 58  1  0  0  0
 41114  1  0  0  0
 41115  1  0  0  0
 41116  1  0  0  0
 41 48  1  0  0  0
 42 43  1  0  0  0
 42 66  1  0  0  0
 42117  1  0  0  0
 42118  1  0  0  0
 43 44  1  0  0  0
 44119  1  0  0  0
 45 46  2  0  0  0
 45120  1  0  0  0
 46121  1  0  0  0
 47122  1  0  0  0
 47123  1  0  0  0
 48 56  1  0  0  0
 48 65  1  0  0  0
 48124  1  0  0  0
 49 50  1  0  0  0
 49 53  1  0  0  0
 49 64  1  0  0  0
 49125  1  0  0  0
 50 51  1  0  0  0
 50126  1  0  0  0
 50127  1  0  0  0
 51 52  1  0  0  0
 51128  1  0  0  0
 51129  1  0  0  0
 52130  1  0  0  0
 52131  1  0  0  0
 53 54  1  0  0  0
 54 55  2  0  0  0
 54132  1  0  0  0
 55 57  1  0  0  0
 55133  1  0  0  0
 56 69  2  0  0  0
 57 58  2  0  0  0
 57134  1  0  0  0
 58135  1  0  0  0
 59 60  1  0  0  0
 59 61  1  0  0  0
 59 62  1  0  0  0
 60136  1  0  0  0
 60137  1  0  0  0
 60138  1  0  0  0
 61139  1  0  0  0
 61140  1  0  0  0
 61141  1  0  0  0
 62142  1  0  0  0
 62143  1  0  0  0
 62144  1  0  0  0
 63 65  1  0  0  0
 63145  1  0  0  0
 63146  1  0  0  0
 63147  1  0  0  0
 64148  1  0  0  0
 65149  1  0  0  0
 68 86  1  0  0  0
 71 74  2  0  0  0
 71 75  1  0  0  0
 71150  1  0  0  0
 72 74  1  0  0  0
 72 76  2  0  0  0
 72151  1  0  0  0
 73 75  2  0  0  0
 73 76  1  0  0  0
 73152  1  0  0  0
 74 82  1  0  0  0
 75 89  1  0  0  0
 76 90  1  0  0  0
 77 78  1  0  0  0
 77153  1  0  0  0
 77154  1  0  0  0
 77 83  1  0  0  0
 78 83  1  0  0  0
 78155  1  0  0  0
 78156  1  0  0  0
 79 80  1  0  0  0
 79157  1  0  0  0
 79158  1  0  0  0
 79 84  1  0  0  0
 80 88  1  0  0  0
 80159  1  0  0  0
 80160  1  0  0  0
 81 82  1  0  0  0
 81 88  1  0  0  0
 81161  1  0  0  0
 81162  1  0  0  0
 82 84  1  0  0  0
 82163  1  0  0  0
 83 84  1  0  0  0
 83164  1  0  0  0
 84165  1  0  0  0
 85 89  1  0  0  0
 85166  1  0  0  0
 85167  1  0  0  0
 85168  1  0  0  0
 86 87  1  0  0  0
 86169  1  0  0  0
 86170  1  0  0  0
 87 90  1  0  0  0
 87171  1  0  0  0
 87172  1  0  0  0
M  ISO  4   1 100  68 101  86 101  88 100
M  END
> <chiral flag>
0

> <version>
0

> <s_m_source_file>
/data/baiqing/PycharmProjects/Reinvent-master-3.2/result/LINK_invent/BTK/process_docking_weight1_custom_sum_contain_oxygen_bond_distance_aromatic_linkinvent_7_9_3/rearranged_h_0147.sdf

> <i_m_source_file_index>
51

> <r_mmod_Potential_Energy-OPLS-2005>
302.485290527344

> <r_mmod_Stretch_Energy-OPLS-2005>
47.8078765869141

> <r_mmod_Bend_Energy-OPLS-2005>
137.146133422852

> <r_mmod_Torsional_Energy-OPLS-2005>
383.365631103516

> <r_mmod_Improper_Torsional_Energy-OPLS-2005>
11.4780588150024

> <r_mmod_Van_der_Waal_Energy-OPLS-2005>
175.986083984375

> <r_mmod_Electrostatic_Energy-OPLS-2005>
-288.929962158203

> <r_mmod_Solvation_Energy-OPLS-2005>
-199.476364135742

> <b_mmod_Minimization_Converged-OPLS-2005>
0

> <r_mmod_RMS_Derivative-OPLS-2005>
1.89708399772644

$$$$
51
                    3D
 Structure written by MMmdl.
167176  0  0  1  0            999 V2000
  -30.6867  -14.5822   20.4869 C   0  0  0  0  0  0
  -30.4131  -12.3555   19.4481 C   0  0  0  0  0  0
  -29.4946  -12.4883   18.2165 C   0  0  0  0  0  0
  -28.0175  -12.3426   18.6306 C   0  0  0  0  0  0
  -27.6458  -13.2244   19.8547 C   0  0  2  0  0  0
  -28.6909  -13.1022   20.9841 C   0  0  0  0  0  0
  -25.2526  -13.8204   20.5688 C   0  0  0  0  0  0
  -24.1806  -13.0451   20.9190 C   0  0  0  0  0  0
  -24.6391  -11.6924   20.8745 C   0  0  0  0  0  0
  -23.9073  -10.4298   21.0414 C   0  0  0  0  0  0
  -24.3625   -9.4208   21.9187 C   0  0  0  0  0  0
  -23.6301   -8.2242   22.0753 C   0  0  0  0  0  0
  -22.4281   -8.0282   21.3545 C   0  0  0  0  0  0
  -21.9920   -9.0258   20.4648 C   0  0  0  0  0  0
  -22.7250  -10.2139   20.3062 C   0  0  0  0  0  0
  -21.6852   -6.0737   22.5278 C   0  0  0  0  0  0
  -21.4015   -6.5637   23.8213 C   0  0  0  0  0  0
  -21.3660   -5.6794   24.9176 C   0  0  0  0  0  0
  -21.6048   -4.3059   24.7225 C   0  0  0  0  0  0
  -21.8819   -3.8150   23.4347 C   0  0  0  0  0  0
  -21.9190   -4.6966   22.3401 C   0  0  0  0  0  0
  -22.7825  -13.5227   21.1861 C   0  0  0  0  0  0
  -22.1655   -4.2150   21.0976 F   0  0  0  0  0  0
  -21.5634   -3.4544   25.7742 F   0  0  0  0  0  0
  -30.0034  -13.4020   20.4029 N   0  0  0  0  0  0
  -26.2956  -12.9400   20.3313 N   0  0  0  0  0  0
  -25.9322  -11.6542   20.5770 N   0  0  0  0  0  0
  -22.0477  -12.8207   22.0420 N   0  0  0  0  0  0
  -25.4245  -15.1920   20.4111 N   0  0  0  0  0  0
  -31.8809  -14.6393   20.1747 O   0  0  0  0  0  0
  -21.6640   -6.8882   21.4242 O   0  0  0  0  0  0
  -22.3495  -14.5528   20.6713 O   0  0  0  0  0  0
  -24.6215  -31.8634   23.2066 C   0  0  0  0  0  0
  -25.9083  -32.4798   23.8376 C   0  0  1  0  0  0
  -27.2184  -27.3716   20.1141 C   0  0  0  0  0  0
  -25.5923  -33.8598   24.2303 N   0  0  0  0  0  0
  -23.4120  -30.4875   21.5478 C   0  0  2  0  0  0
  -24.8579  -28.9497   20.1108 C   0  0  0  0  0  0
  -22.7450  -29.4639   22.4960 C   0  0  0  0  0  0
  -18.0278  -28.1383   22.8487 C   0  0  0  0  0  0
  -24.1490  -36.7299   23.2639 C   0  0  0  0  0  0
  -25.9482  -30.8112   21.3690 C   0  0  0  0  0  0
  -26.0245  -29.4436   20.7106 C   0  0  0  0  0  0
  -27.2135  -28.6647   20.7033 C   0  0  0  0  0  0
  -26.0385  -26.9160   19.4905 C   0  0  0  0  0  0
  -24.8631  -27.6882   19.4935 C   0  0  0  0  0  0
  -23.6234  -29.8240   20.1617 C   0  0  0  0  0  0
  -25.4113  -36.3098   24.0335 C   0  0  1  0  0  0
  -20.5874  -28.3676   23.1297 C   0  0  2  0  0  0
  -20.6771  -26.9402   22.5420 C   0  0  0  0  0  0
  -19.5753  -26.6380   21.5213 C   0  0  0  0  0  0
  -18.1925  -26.7930   22.1612 C   0  0  0  0  0  0
  -19.1531  -28.8847   23.2886 C   0  0  0  0  0  0
  -18.9460  -30.1451   23.8900 C   0  0  0  0  0  0
  -17.6463  -30.6586   24.0568 C   0  0  0  0  0  0
  -25.9047  -34.9467   23.5117 C   0  0  0  0  0  0
  -16.5354  -29.9089   23.6332 C   0  0  0  0  0  0
  -16.7267  -28.6507   23.0351 C   0  0  0  0  0  0
  -26.4492  -31.6593   25.0726 C   0  0  0  0  0  0
  -25.3741  -31.3721   26.1463 C   0  0  0  0  0  0
  -27.0328  -30.3026   24.6143 C   0  0  0  0  0  0
  -27.6063  -32.4328   25.7478 C   0  0  0  0  0  0
  -27.5586  -37.1799   24.8462 C   0  0  0  0  0  0
  -21.4168  -29.3038   22.3699 N   0  0  0  0  0  0
  -26.4295  -37.3791   23.9417 N   0  0  0  0  0  0
  -24.6791  -31.0692   22.0988 N   0  0  0  0  0  0
  -23.4195  -28.8176   23.3021 O   0  0  0  0  0  0
  -28.3193  -26.5254   20.1486 O   0  0  0  0  0  0
  -26.5610  -34.8924   22.4678 O   0  0  0  0  0  0
  -23.5392  -32.1411   23.7429 O   0  0  0  0  0  0
  -30.0311  -22.8075   18.6392 C   0  0  0  0  0  0
  -29.5329  -23.9918   19.2126 C   0  0  0  0  0  0
  -29.6075  -21.5473   19.1037 C   0  0  0  0  0  0
  -28.6238  -23.9413   20.2866 C   0  0  0  0  0  0
  -28.6951  -21.4237   20.1741 C   0  0  0  0  0  0
  -28.2367  -22.6466   20.7960 C   0  0  0  0  0  0
  -29.2904  -17.9179   19.2959 C   0  0  0  0  0  0
  -28.7716  -17.6999   21.6725 C   0  0  0  0  0  0
  -30.2850  -16.7323   19.4326 C   0  0  0  0  0  0
  -29.7285  -16.4628   21.7682 C   0  0  0  0  0  0
  -29.1618  -18.7550   20.5956 C   0  0  0  0  0  0
  -27.3135  -22.5785   22.0115 C   0  0  0  0  0  0
  -25.8812  -20.3051   19.7971 C   0  0  0  0  0  0
  -28.0953  -25.2792   20.8861 C   0  0  0  0  0  0
  -28.1544  -19.9894   20.5355 C   0  0  2  0  0  0
  -29.9499  -15.7456   20.4926 N   0  0  0  0  0  0
  -27.0994  -19.5869   19.6623 O   0  0  0  0  0  0
  -31.4596  -12.4400   19.1500 H   0  0  0  0  0  0
  -30.3115  -11.3681   19.9017 H   0  0  0  0  0  0
  -29.7506  -11.7341   17.4713 H   0  0  0  0  0  0
  -29.6494  -13.4572   17.7387 H   0  0  0  0  0  0
  -27.8466  -11.2915   18.8673 H   0  0  0  0  0  0
  -27.3648  -12.5717   17.7876 H   0  0  0  0  0  0
  -27.6598  -14.2571   19.5044 H   0  0  0  0  0  0
  -28.6875  -12.0974   21.4091 H   0  0  0  0  0  0
  -28.4523  -13.7809   21.8029 H   0  0  0  0  0  0
  -25.2772   -9.5679   22.4758 H   0  0  0  0  0  0
  -24.0013   -7.4630   22.7469 H   0  0  0  0  0  0
  -21.0854   -8.8784   19.8949 H   0  0  0  0  0  0
  -22.3718  -10.9679   19.6169 H   0  0  0  0  0  0
  -21.2003   -7.6144   23.9721 H   0  0  0  0  0  0
  -21.1484   -6.0519   25.9079 H   0  0  0  0  0  0
  -22.0596   -2.7614   23.2852 H   0  0  0  0  0  0
  -22.4103  -11.9869   22.4801 H   0  0  0  0  0  0
  -21.1097  -13.1224   22.2638 H   0  0  0  0  0  0
  -24.6643  -15.8526   20.5281 H   0  0  0  0  0  0
  -26.2895  -15.6295   20.1191 H   0  0  0  0  0  0
  -26.7153  -32.5480   23.1131 H   0  0  0  0  0  0
  -25.0107  -33.9757   25.0474 H   0  0  0  0  0  0
  -22.7035  -31.3067   21.4080 H   0  0  0  0  0  0
  -23.3763  -35.9619   23.3299 H   0  0  0  0  0  0
  -24.3585  -36.8922   22.2054 H   0  0  0  0  0  0
  -23.7228  -37.6494   23.6661 H   0  0  0  0  0  0
  -26.0732  -31.5775   20.6030 H   0  0  0  0  0  0
  -26.8314  -30.8589   21.9945 H   0  0  0  0  0  0
  -28.1109  -29.0343   21.1795 H   0  0  0  0  0  0
  -26.0210  -25.9428   19.0206 H   0  0  0  0  0  0
  -23.9673  -27.3017   19.0275 H   0  0  0  0  0  0
  -23.7390  -30.6025   19.4064 H   0  0  0  0  0  0
  -22.7445  -29.2514   19.8597 H   0  0  0  0  0  0
  -25.1289  -36.1960   25.0828 H   0  0  0  0  0  0
  -20.9959  -28.3249   24.1419 H   0  0  0  0  0  0
  -20.5671  -26.2286   23.3614 H   0  0  0  0  0  0
  -21.6646  -26.7435   22.1221 H   0  0  0  0  0  0
  -19.6919  -25.6291   21.1242 H   0  0  0  0  0  0
  -19.6702  -27.3195   20.6750 H   0  0  0  0  0  0
  -17.4205  -26.6695   21.4001 H   0  0  0  0  0  0
  -18.0310  -26.0055   22.8989 H   0  0  0  0  0  0
  -19.7938  -30.7266   24.2269 H   0  0  0  0  0  0
  -17.5020  -31.6265   24.5172 H   0  0  0  0  0  0
  -15.5358  -30.2997   23.7652 H   0  0  0  0  0  0
  -15.8665  -28.0829   22.7064 H   0  0  0  0  0  0
  -24.5967  -30.6990   25.7830 H   0  0  0  0  0  0
  -24.8862  -32.2870   26.4832 H   0  0  0  0  0  0
  -25.8094  -30.8984   27.0271 H   0  0  0  0  0  0
  -26.2883  -29.6779   24.1193 H   0  0  0  0  0  0
  -27.4078  -29.7278   25.4624 H   0  0  0  0  0  0
  -27.8730  -30.4339   23.9321 H   0  0  0  0  0  0
  -27.2688  -33.3632   26.2057 H   0  0  0  0  0  0
  -28.3858  -32.6882   25.0288 H   0  0  0  0  0  0
  -28.0747  -31.8454   26.5385 H   0  0  0  0  0  0
  -28.2604  -38.0098   24.7531 H   0  0  0  0  0  0
  -28.1086  -36.2636   24.6264 H   0  0  0  0  0  0
  -27.2313  -37.1427   25.8867 H   0  0  0  0  0  0
  -20.9339  -29.8762   21.6914 H   0  0  0  0  0  0
  -26.0180  -38.2865   24.1436 H   0  0  0  0  0  0
  -30.7296  -22.8668   17.8158 H   0  0  0  0  0  0
  -29.8562  -24.9472   18.8228 H   0  0  0  0  0  0
  -29.9810  -20.6666   18.6067 H   0  0  0  0  0  0
  -28.3168  -17.5163   19.0106 H   0  0  0  0  0  0
  -29.6011  -18.5483   18.4646 H   0  0  0  0  0  0
  -28.7237  -18.1817   22.6497 H   0  0  0  0  0  0
  -27.7591  -17.3454   21.4716 H   0  0  0  0  0  0
  -31.2847  -17.1325   19.6167 H   0  0  0  0  0  0
  -30.3403  -16.2183   18.4707 H   0  0  0  0  0  0
  -29.3372  -15.7705   22.5144 H   0  0  0  0  0  0
  -30.6970  -16.7913   22.1496 H   0  0  0  0  0  0
  -30.1424  -19.1448   20.8731 H   0  0  0  0  0  0
  -27.3082  -23.4976   22.5943 H   0  0  0  0  0  0
  -27.6338  -21.8100   22.7132 H   0  0  0  0  0  0
  -26.2862  -22.3754   21.7113 H   0  0  0  0  0  0
  -25.1346  -19.8805   19.1262 H   0  0  0  0  0  0
  -25.9981  -21.3553   19.5299 H   0  0  0  0  0  0
  -25.4891  -20.2363   20.8126 H   0  0  0  0  0  0
  -28.5724  -25.4057   21.8584 H   0  0  0  0  0  0
  -27.0345  -25.1428   21.1002 H   0  0  0  0  0  0
  -27.7302  -20.0457   21.5347 H   0  0  0  0  0  0
  1 25  1  0  0  0
  1 30  2  0  0  0
  1 86  1  0  0  0
  2  3  1  0  0  0
  2 25  1  0  0  0
  2 88  1  0  0  0
  2 89  1  0  0  0
  3  4  1  0  0  0
  3 90  1  0  0  0
  3 91  1  0  0  0
  4  5  1  0  0  0
  4 92  1  0  0  0
  4 93  1  0  0  0
  5  6  1  0  0  0
  5 26  1  0  0  0
  5 94  1  0  0  0
  6 25  1  0  0  0
  6 95  1  0  0  0
  6 96  1  0  0  0
  7  8  2  0  0  0
  7 26  1  0  0  0
  7 29  1  0  0  0
  8  9  1  0  0  0
  8 22  1  0  0  0
  9 10  1  0  0  0
  9 27  2  0  0  0
 10 11  2  0  0  0
 10 15  1  0  0  0
 11 12  1  0  0  0
 11 97  1  0  0  0
 12 13  2  0  0  0
 12 98  1  0  0  0
 13 14  1  0  0  0
 13 31  1  0  0  0
 14 15  2  0  0  0
 14 99  1  0  0  0
 15100  1  0  0  0
 16 17  2  0  0  0
 16 21  1  0  0  0
 16 31  1  0  0  0
 17 18  1  0  0  0
 17101  1  0  0  0
 18 19  2  0  0  0
 18102  1  0  0  0
 19 20  1  0  0  0
 19 24  1  0  0  0
 20 21  2  0  0  0
 20103  1  0  0  0
 21 23  1  0  0  0
 22 28  1  0  0  0
 22 32  2  0  0  0
 26 27  1  0  0  0
 28104  1  0  0  0
 28105  1  0  0  0
 29106  1  0  0  0
 29107  1  0  0  0
 33 34  1  0  0  0
 33 66  1  0  0  0
 33 70  2  0  0  0
 34 36  1  0  0  0
 34 59  1  0  0  0
 34108  1  0  0  0
 35 44  2  0  0  0
 35 45  1  0  0  0
 35 68  1  0  0  0
 36 56  1  0  0  0
 36109  1  0  0  0
 37 39  1  0  0  0
 37 47  1  0  0  0
 37 66  1  0  0  0
 37110  1  0  0  0
 38 43  2  0  0  0
 38 46  1  0  0  0
 38 47  1  0  0  0
 39 64  1  0  0  0
 39 67  2  0  0  0
 40 52  1  0  0  0
 40 53  2  0  0  0
 40 58  1  0  0  0
 41111  1  0  0  0
 41112  1  0  0  0
 41113  1  0  0  0
 41 48  1  0  0  0
 42 43  1  0  0  0
 42 66  1  0  0  0
 42114  1  0  0  0
 42115  1  0  0  0
 43 44  1  0  0  0
 44116  1  0  0  0
 45 46  2  0  0  0
 45117  1  0  0  0
 46118  1  0  0  0
 47119  1  0  0  0
 47120  1  0  0  0
 48 56  1  0  0  0
 48 65  1  0  0  0
 48121  1  0  0  0
 49 50  1  0  0  0
 49 53  1  0  0  0
 49 64  1  0  0  0
 49122  1  0  0  0
 50 51  1  0  0  0
 50123  1  0  0  0
 50124  1  0  0  0
 51 52  1  0  0  0
 51125  1  0  0  0
 51126  1  0  0  0
 52127  1  0  0  0
 52128  1  0  0  0
 53 54  1  0  0  0
 54 55  2  0  0  0
 54129  1  0  0  0
 55 57  1  0  0  0
 55130  1  0  0  0
 56 69  2  0  0  0
 57 58  2  0  0  0
 57131  1  0  0  0
 58132  1  0  0  0
 59 60  1  0  0  0
 59 61  1  0  0  0
 59 62  1  0  0  0
 60133  1  0  0  0
 60134  1  0  0  0
 60135  1  0  0  0
 61136  1  0  0  0
 61137  1  0  0  0
 61138  1  0  0  0
 62139  1  0  0  0
 62140  1  0  0  0
 62141  1  0  0  0
 63 65  1  0  0  0
 63142  1  0  0  0
 63143  1  0  0  0
 63144  1  0  0  0
 64145  1  0  0  0
 65146  1  0  0  0
 68 84  1  0  0  0
 71 72  2  0  0  0
 71 73  1  0  0  0
 71147  1  0  0  0
 72 74  1  0  0  0
 72148  1  0  0  0
 73 75  2  0  0  0
 73149  1  0  0  0
 74 76  2  0  0  0
 74 84  1  0  0  0
 75 76  1  0  0  0
 75 85  1  0  0  0
 76 82  1  0  0  0
 77 79  1  0  0  0
 77150  1  0  0  0
 77151  1  0  0  0
 77 81  1  0  0  0
 78 80  1  0  0  0
 78 81  1  0  0  0
 78152  1  0  0  0
 78153  1  0  0  0
 79 86  1  0  0  0
 79154  1  0  0  0
 79155  1  0  0  0
 80 86  1  0  0  0
 80156  1  0  0  0
 80157  1  0  0  0
 81 85  1  0  0  0
 81158  1  0  0  0
 82159  1  0  0  0
 82160  1  0  0  0
 82161  1  0  0  0
 83 87  1  0  0  0
 83162  1  0  0  0
 83163  1  0  0  0
 83164  1  0  0  0
 84165  1  0  0  0
 84166  1  0  0  0
 85 87  1  0  0  0
 85167  1  0  0  0
M  ISO  4   1 100  68 101  84 101  86 100
M  END
> <chiral flag>
0

> <version>
0

> <s_m_source_file>
/data/baiqing/PycharmProjects/Reinvent-master-3.2/result/LINK_invent/BTK/process_docking_weight1_custom_sum_contain_oxygen_bond_distance_aromatic_linkinvent_7_9_3/rearranged_h_0147.sdf

> <i_m_source_file_index>
52

> <r_mmod_Potential_Energy-OPLS-2005>
318.071105957031

> <r_mmod_Stretch_Energy-OPLS-2005>
70.3309783935547

> <r_mmod_Bend_Energy-OPLS-2005>
130.265243530273

> <r_mmod_Torsional_Energy-OPLS-2005>
367.761688232422

> <r_mmod_Improper_Torsional_Energy-OPLS-2005>
16.9487438201904

> <r_mmod_Van_der_Waal_Energy-OPLS-2005>
153.150482177734

> <r_mmod_Electrostatic_Energy-OPLS-2005>
-270.899353027344

> <r_mmod_Solvation_Energy-OPLS-2005>
-187.044860839844

> <b_mmod_Minimization_Converged-OPLS-2005>
0

> <r_mmod_RMS_Derivative-OPLS-2005>
0.890129208564758

$$$$
52
                    3D
 Structure written by MMmdl.
168178  0  0  1  0            999 V2000
  -30.6819  -14.6010   20.4871 C   0  0  0  0  0  0
  -30.4169  -12.3667   19.4537 C   0  0  0  0  0  0
  -29.4988  -12.4937   18.2216 C   0  0  0  0  0  0
  -28.0221  -12.3433   18.6354 C   0  0  0  0  0  0
  -27.6475  -13.2263   19.8572 C   0  0  2  0  0  0
  -28.6931  -13.1168   20.9887 C   0  0  0  0  0  0
  -25.2546  -13.8204   20.5712 C   0  0  0  0  0  0
  -24.1822  -13.0450   20.9198 C   0  0  0  0  0  0
  -24.6406  -11.6923   20.8743 C   0  0  0  0  0  0
  -23.9087  -10.4296   21.0401 C   0  0  0  0  0  0
  -24.3634   -9.4211   21.9181 C   0  0  0  0  0  0
  -23.6306   -8.2246   22.0752 C   0  0  0  0  0  0
  -22.4288   -8.0285   21.3548 C   0  0  0  0  0  0
  -21.9928   -9.0254   20.4647 C   0  0  0  0  0  0
  -22.7257  -10.2131   20.3052 C   0  0  0  0  0  0
  -21.6856   -6.0746   22.5286 C   0  0  0  0  0  0
  -21.4014   -6.5645   23.8219 C   0  0  0  0  0  0
  -21.3659   -5.6798   24.9183 C   0  0  0  0  0  0
  -21.6044   -4.3064   24.7232 C   0  0  0  0  0  0
  -21.8817   -3.8162   23.4352 C   0  0  0  0  0  0
  -21.9193   -4.6977   22.3410 C   0  0  0  0  0  0
  -22.7842  -13.5228   21.1855 C   0  0  0  0  0  0
  -22.1656   -4.2164   21.0983 F   0  0  0  0  0  0
  -21.5634   -3.4546   25.7743 F   0  0  0  0  0  0
  -30.0055  -13.4152   20.4066 N   0  0  0  0  0  0
  -26.2975  -12.9400   20.3332 N   0  0  0  0  0  0
  -25.9341  -11.6546   20.5780 N   0  0  0  0  0  0
  -22.0487  -12.8210   22.0408 N   0  0  0  0  0  0
  -25.4280  -15.1925   20.4143 N   0  0  0  0  0  0
  -31.8693  -14.6750   20.1560 O   0  0  0  0  0  0
  -21.6644   -6.8888   21.4249 O   0  0  0  0  0  0
  -22.3521  -14.5531   20.6707 O   0  0  0  0  0  0
  -24.6223  -31.8624   23.2033 C   0  0  0  0  0  0
  -25.9087  -32.4796   23.8362 C   0  0  1  0  0  0
  -27.2266  -27.3599   20.1148 C   0  0  0  0  0  0
  -25.5908  -33.8592   24.2290 N   0  0  0  0  0  0
  -23.4152  -30.4844   21.5451 C   0  0  2  0  0  0
  -24.8659  -28.9449   20.1084 C   0  0  0  0  0  0
  -22.7457  -29.4636   22.4951 C   0  0  0  0  0  0
  -18.0283  -28.1389   22.8485 C   0  0  0  0  0  0
  -24.1488  -36.7305   23.2637 C   0  0  0  0  0  0
  -25.9526  -30.8056   21.3690 C   0  0  0  0  0  0
  -26.0313  -29.4358   20.7124 C   0  0  0  0  0  0
  -27.2200  -28.6527   20.7099 C   0  0  0  0  0  0
  -26.0481  -26.9093   19.4868 C   0  0  0  0  0  0
  -24.8731  -27.6848   19.4870 C   0  0  0  0  0  0
  -23.6286  -29.8177   20.1603 C   0  0  0  0  0  0
  -25.4112  -36.3098   24.0330 C   0  0  1  0  0  0
  -20.5878  -28.3687   23.1288 C   0  0  2  0  0  0
  -20.6774  -26.9413   22.5413 C   0  0  0  0  0  0
  -19.5753  -26.6387   21.5215 C   0  0  0  0  0  0
  -18.1930  -26.7933   22.1624 C   0  0  0  0  0  0
  -19.1532  -28.8855   23.2886 C   0  0  0  0  0  0
  -18.9463  -30.1460   23.8901 C   0  0  0  0  0  0
  -17.6460  -30.6587   24.0566 C   0  0  0  0  0  0
  -25.9043  -34.9465   23.5113 C   0  0  0  0  0  0
  -16.5348  -29.9087   23.6330 C   0  0  0  0  0  0
  -16.7269  -28.6506   23.0348 C   0  0  0  0  0  0
  -26.4482  -31.6589   25.0718 C   0  0  0  0  0  0
  -25.3726  -31.3711   26.1450 C   0  0  0  0  0  0
  -27.0309  -30.3013   24.6143 C   0  0  0  0  0  0
  -27.6047  -32.4314   25.7491 C   0  0  0  0  0  0
  -27.5584  -37.1804   24.8461 C   0  0  0  0  0  0
  -21.4175  -29.3042   22.3686 N   0  0  0  0  0  0
  -26.4294  -37.3790   23.9408 N   0  0  0  0  0  0
  -24.6819  -31.0657   22.0973 N   0  0  0  0  0  0
  -23.4189  -28.8182   23.3032 O   0  0  0  0  0  0
  -28.3038  -26.4792   20.1643 O   0  0  0  0  0  0
  -26.5622  -34.8921   22.4686 O   0  0  0  0  0  0
  -23.5393  -32.1414   23.7383 O   0  0  0  0  0  0
  -28.9614  -23.3629   19.7440 C   0  0  0  0  0  0
  -28.6299  -23.1221   22.1120 C   0  0  0  0  0  0
  -29.3416  -21.9826   19.6620 C   0  0  0  0  0  0
  -28.6075  -23.9671   20.9759 C   0  0  0  0  0  0
  -28.9920  -21.7497   22.0478 C   0  0  0  0  0  0
  -29.3475  -21.1409   20.8160 C   0  0  0  0  0  0
  -31.1128  -20.8236   18.1101 C   0  0  0  0  0  0
  -30.7317  -22.1178   17.4324 C   0  0  0  0  0  0
  -28.9658  -17.8449   19.4707 C   0  0  0  0  0  0
  -28.9985  -17.7020   21.9597 C   0  0  0  0  0  0
  -30.0531  -16.7258   19.4730 C   0  0  0  0  0  0
  -30.0555  -16.5563   21.8361 C   0  0  0  0  0  0
  -29.7385  -21.4154   18.3309 C   0  0  0  0  0  0
  -28.8836  -18.6969   20.7632 C   0  0  0  0  0  0
  -29.0222  -20.9519   23.3361 C   0  0  0  0  0  0
  -28.1264  -25.4427   21.1820 C   0  0  0  0  0  0
  -29.9426  -15.7591   20.5962 N   0  0  0  0  0  0
  -29.8190  -19.8147   20.7629 O   0  0  0  0  0  0
  -31.4627  -12.4552   19.1549 H   0  0  0  0  0  0
  -30.3177  -11.3809   19.9104 H   0  0  0  0  0  0
  -29.7580  -11.7405   17.4773 H   0  0  0  0  0  0
  -29.6524  -13.4618   17.7423 H   0  0  0  0  0  0
  -27.8551  -11.2921   18.8729 H   0  0  0  0  0  0
  -27.3686  -12.5688   17.7913 H   0  0  0  0  0  0
  -27.6577  -14.2574   19.5031 H   0  0  0  0  0  0
  -28.6931  -12.1169   21.4244 H   0  0  0  0  0  0
  -28.4566  -13.8087   21.7987 H   0  0  0  0  0  0
  -25.2773   -9.5688   22.4764 H   0  0  0  0  0  0
  -24.0019   -7.4639   22.7467 H   0  0  0  0  0  0
  -21.0864   -8.8771   19.8948 H   0  0  0  0  0  0
  -22.3715  -10.9671   19.6165 H   0  0  0  0  0  0
  -21.1993   -7.6146   23.9732 H   0  0  0  0  0  0
  -21.1486   -6.0526   25.9087 H   0  0  0  0  0  0
  -22.0596   -2.7628   23.2853 H   0  0  0  0  0  0
  -22.4106  -11.9864   22.4785 H   0  0  0  0  0  0
  -21.1107  -13.1231   22.2611 H   0  0  0  0  0  0
  -24.6703  -15.8553   20.5347 H   0  0  0  0  0  0
  -26.2964  -15.6282   20.1304 H   0  0  0  0  0  0
  -26.7155  -32.5483   23.1114 H   0  0  0  0  0  0
  -25.0041  -33.9748   25.0423 H   0  0  0  0  0  0
  -22.7087  -31.3044   21.4022 H   0  0  0  0  0  0
  -23.3753  -35.9635   23.3297 H   0  0  0  0  0  0
  -24.3580  -36.8930   22.2053 H   0  0  0  0  0  0
  -23.7234  -37.6500   23.6661 H   0  0  0  0  0  0
  -26.0768  -31.5701   20.6005 H   0  0  0  0  0  0
  -26.8352  -30.8580   21.9942 H   0  0  0  0  0  0
  -28.1142  -29.0195   21.1946 H   0  0  0  0  0  0
  -26.0314  -25.9334   19.0223 H   0  0  0  0  0  0
  -23.9787  -27.3019   19.0151 H   0  0  0  0  0  0
  -23.7387  -30.5936   19.4017 H   0  0  0  0  0  0
  -22.7514  -29.2397   19.8637 H   0  0  0  0  0  0
  -25.1294  -36.1958   25.0820 H   0  0  0  0  0  0
  -20.9974  -28.3266   24.1405 H   0  0  0  0  0  0
  -20.5682  -26.2299   23.3613 H   0  0  0  0  0  0
  -21.6647  -26.7452   22.1199 H   0  0  0  0  0  0
  -19.6914  -25.6300   21.1245 H   0  0  0  0  0  0
  -19.6690  -27.3198   20.6749 H   0  0  0  0  0  0
  -17.4203  -26.6685   21.4024 H   0  0  0  0  0  0
  -18.0325  -26.0073   22.9015 H   0  0  0  0  0  0
  -19.7939  -30.7285   24.2263 H   0  0  0  0  0  0
  -17.5012  -31.6269   24.5169 H   0  0  0  0  0  0
  -15.5350  -30.2994   23.7653 H   0  0  0  0  0  0
  -15.8670  -28.0831   22.7057 H   0  0  0  0  0  0
  -24.5895  -30.7074   25.7773 H   0  0  0  0  0  0
  -24.8928  -32.2872   26.4902 H   0  0  0  0  0  0
  -25.8059  -30.8865   27.0208 H   0  0  0  0  0  0
  -26.2867  -29.6775   24.1176 H   0  0  0  0  0  0
  -27.4021  -29.7256   25.4634 H   0  0  0  0  0  0
  -27.8735  -30.4299   23.9344 H   0  0  0  0  0  0
  -27.2660  -33.3604   26.2083 H   0  0  0  0  0  0
  -28.3851  -32.6885   25.0319 H   0  0  0  0  0  0
  -28.0718  -31.8428   26.5394 H   0  0  0  0  0  0
  -28.2596  -38.0107   24.7525 H   0  0  0  0  0  0
  -28.1088  -36.2641   24.6272 H   0  0  0  0  0  0
  -27.2304  -37.1434   25.8865 H   0  0  0  0  0  0
  -20.9352  -29.8750   21.6884 H   0  0  0  0  0  0
  -26.0181  -38.2865   24.1417 H   0  0  0  0  0  0
  -28.9443  -23.9658   18.8469 H   0  0  0  0  0  0
  -28.3608  -23.5467   23.0694 H   0  0  0  0  0  0
  -31.8299  -20.8792   18.9272 H   0  0  0  0  0  0
  -31.1873  -19.9368   17.4837 H   0  0  0  0  0  0
  -30.5661  -22.0754   16.3578 H   0  0  0  0  0  0
  -31.2085  -23.0258   17.7975 H   0  0  0  0  0  0
  -27.9970  -17.3670   19.3162 H   0  0  0  0  0  0
  -29.1083  -18.4977   18.6093 H   0  0  0  0  0  0
  -29.1588  -18.2380   22.8927 H   0  0  0  0  0  0
  -28.0246  -17.2230   22.0732 H   0  0  0  0  0  0
  -31.0438  -17.1860   19.4834 H   0  0  0  0  0  0
  -29.9901  -16.1844   18.5266 H   0  0  0  0  0  0
  -29.9569  -15.8936   22.6973 H   0  0  0  0  0  0
  -31.0583  -16.9811   21.9008 H   0  0  0  0  0  0
  -28.8935  -20.9189   17.8572 H   0  0  0  0  0  0
  -27.8860  -19.1375   20.8021 H   0  0  0  0  0  0
  -28.9941  -21.6012   24.2112 H   0  0  0  0  0  0
  -29.9335  -20.3575   23.3983 H   0  0  0  0  0  0
  -28.1608  -20.2857   23.3854 H   0  0  0  0  0  0
  -28.6337  -25.8177   22.0723 H   0  0  0  0  0  0
  -27.0769  -25.3659   21.4723 H   0  0  0  0  0  0
  1 25  1  0  0  0
  1 30  2  0  0  0
  1 87  1  0  0  0
  2  3  1  0  0  0
  2 25  1  0  0  0
  2 89  1  0  0  0
  2 90  1  0  0  0
  3  4  1  0  0  0
  3 91  1  0  0  0
  3 92  1  0  0  0
  4  5  1  0  0  0
  4 93  1  0  0  0
  4 94  1  0  0  0
  5  6  1  0  0  0
  5 26  1  0  0  0
  5 95  1  0  0  0
  6 25  1  0  0  0
  6 96  1  0  0  0
  6 97  1  0  0  0
  7  8  2  0  0  0
  7 26  1  0  0  0
  7 29  1  0  0  0
  8  9  1  0  0  0
  8 22  1  0  0  0
  9 10  1  0  0  0
  9 27  2  0  0  0
 10 11  2  0  0  0
 10 15  1  0  0  0
 11 12  1  0  0  0
 11 98  1  0  0  0
 12 13  2  0  0  0
 12 99  1  0  0  0
 13 14  1  0  0  0
 13 31  1  0  0  0
 14 15  2  0  0  0
 14100  1  0  0  0
 15101  1  0  0  0
 16 17  2  0  0  0
 16 21  1  0  0  0
 16 31  1  0  0  0
 17 18  1  0  0  0
 17102  1  0  0  0
 18 19  2  0  0  0
 18103  1  0  0  0
 19 20  1  0  0  0
 19 24  1  0  0  0
 20 21  2  0  0  0
 20104  1  0  0  0
 21 23  1  0  0  0
 22 28  1  0  0  0
 22 32  2  0  0  0
 26 27  1  0  0  0
 28105  1  0  0  0
 28106  1  0  0  0
 29107  1  0  0  0
 29108  1  0  0  0
 33 34  1  0  0  0
 33 66  1  0  0  0
 33 70  2  0  0  0
 34 36  1  0  0  0
 34 59  1  0  0  0
 34109  1  0  0  0
 35 44  2  0  0  0
 35 45  1  0  0  0
 35 68  1  0  0  0
 36 56  1  0  0  0
 36110  1  0  0  0
 37 39  1  0  0  0
 37 47  1  0  0  0
 37 66  1  0  0  0
 37111  1  0  0  0
 38 43  2  0  0  0
 38 46  1  0  0  0
 38 47  1  0  0  0
 39 64  1  0  0  0
 39 67  2  0  0  0
 40 52  1  0  0  0
 40 53  2  0  0  0
 40 58  1  0  0  0
 41112  1  0  0  0
 41113  1  0  0  0
 41114  1  0  0  0
 41 48  1  0  0  0
 42 43  1  0  0  0
 42 66  1  0  0  0
 42115  1  0  0  0
 42116  1  0  0  0
 43 44  1  0  0  0
 44117  1  0  0  0
 45 46  2  0  0  0
 45118  1  0  0  0
 46119  1  0  0  0
 47120  1  0  0  0
 47121  1  0  0  0
 48 56  1  0  0  0
 48 65  1  0  0  0
 48122  1  0  0  0
 49 50  1  0  0  0
 49 53  1  0  0  0
 49 64  1  0  0  0
 49123  1  0  0  0
 50 51  1  0  0  0
 50124  1  0  0  0
 50125  1  0  0  0
 51 52  1  0  0  0
 51126  1  0  0  0
 51127  1  0  0  0
 52128  1  0  0  0
 52129  1  0  0  0
 53 54  1  0  0  0
 54 55  2  0  0  0
 54130  1  0  0  0
 55 57  1  0  0  0
 55131  1  0  0  0
 56 69  2  0  0  0
 57 58  2  0  0  0
 57132  1  0  0  0
 58133  1  0  0  0
 59 60  1  0  0  0
 59 61  1  0  0  0
 59 62  1  0  0  0
 60134  1  0  0  0
 60135  1  0  0  0
 60136  1  0  0  0
 61137  1  0  0  0
 61138  1  0  0  0
 61139  1  0  0  0
 62140  1  0  0  0
 62141  1  0  0  0
 62142  1  0  0  0
 63 65  1  0  0  0
 63143  1  0  0  0
 63144  1  0  0  0
 63145  1  0  0  0
 64146  1  0  0  0
 65147  1  0  0  0
 68 86  1  0  0  0
 71 73  2  0  0  0
 71 74  1  0  0  0
 71148  1  0  0  0
 72 74  2  0  0  0
 72 75  1  0  0  0
 72149  1  0  0  0
 73 76  1  0  0  0
 73 83  1  0  0  0
 74 86  1  0  0  0
 75 76  2  0  0  0
 75 85  1  0  0  0
 76 88  1  0  0  0
 77 78  1  0  0  0
 77 83  1  0  0  0
 77150  1  0  0  0
 77151  1  0  0  0
 78 83  1  0  0  0
 78152  1  0  0  0
 78153  1  0  0  0
 79 81  1  0  0  0
 79 84  1  0  0  0
 79154  1  0  0  0
 79155  1  0  0  0
 80 82  1  0  0  0
 80 84  1  0  0  0
 80156  1  0  0  0
 80157  1  0  0  0
 81 87  1  0  0  0
 81158  1  0  0  0
 81159  1  0  0  0
 82 87  1  0  0  0
 82160  1  0  0  0
 82161  1  0  0  0
 83162  1  0  0  0
 84 88  1  0  0  0
 84163  1  0  0  0
 85164  1  0  0  0
 85165  1  0  0  0
 85166  1  0  0  0
 86167  1  0  0  0
 86168  1  0  0  0
M  ISO  4   1 100  68 101  86 101  87 100
M  END
> <chiral flag>
0

> <version>
0

> <s_m_source_file>
/data/baiqing/PycharmProjects/Reinvent-master-3.2/result/LINK_invent/BTK/process_docking_weight1_custom_sum_contain_oxygen_bond_distance_aromatic_linkinvent_7_9_3/rearranged_h_0147.sdf

> <i_m_source_file_index>
53

> <r_mmod_Potential_Energy-OPLS-2005>
331.038146972656

> <r_mmod_Stretch_Energy-OPLS-2005>
65.9587478637695

> <r_mmod_Bend_Energy-OPLS-2005>
145.456268310547

> <r_mmod_Torsional_Energy-OPLS-2005>
420.580932617188

> <r_mmod_Improper_Torsional_Energy-OPLS-2005>
14.6696624755859

> <r_mmod_Van_der_Waal_Energy-OPLS-2005>
132.011337280273

> <r_mmod_Electrostatic_Energy-OPLS-2005>
-298.222900390625

> <r_mmod_Solvation_Energy-OPLS-2005>
-192.159820556641

> <b_mmod_Minimization_Converged-OPLS-2005>
0

> <r_mmod_RMS_Derivative-OPLS-2005>
1.26691079139709

$$$$
53
                    3D
 Structure written by MMmdl.
177187  0  0  1  0            999 V2000
  -30.6506  -14.5961   20.5210 C   0  0  0  0  0  0
  -30.4327  -12.3711   19.4416 C   0  0  0  0  0  0
  -29.5038  -12.5145   18.2180 C   0  0  0  0  0  0
  -28.0273  -12.3496   18.6288 C   0  0  0  0  0  0
  -27.6553  -13.2128   19.8647 C   0  0  2  0  0  0
  -28.7020  -13.0547   20.9906 C   0  0  0  0  0  0
  -25.2589  -13.8155   20.5686 C   0  0  0  0  0  0
  -24.1854  -13.0427   20.9193 C   0  0  0  0  0  0
  -24.6412  -11.6902   20.8731 C   0  0  0  0  0  0
  -23.9066  -10.4287   21.0391 C   0  0  0  0  0  0
  -24.3629   -9.4210   21.9163 C   0  0  0  0  0  0
  -23.6310   -8.2244   22.0743 C   0  0  0  0  0  0
  -22.4289   -8.0278   21.3536 C   0  0  0  0  0  0
  -21.9922   -9.0245   20.4633 C   0  0  0  0  0  0
  -22.7242  -10.2121   20.3036 C   0  0  0  0  0  0
  -21.6852   -6.0733   22.5276 C   0  0  0  0  0  0
  -21.4009   -6.5633   23.8210 C   0  0  0  0  0  0
  -21.3675   -5.6784   24.9172 C   0  0  0  0  0  0
  -21.6058   -4.3051   24.7216 C   0  0  0  0  0  0
  -21.8825   -3.8141   23.4341 C   0  0  0  0  0  0
  -21.9194   -4.6960   22.3398 C   0  0  0  0  0  0
  -22.7887  -13.5231   21.1846 C   0  0  0  0  0  0
  -22.1659   -4.2149   21.0967 F   0  0  0  0  0  0
  -21.5641   -3.4534   25.7733 F   0  0  0  0  0  0
  -30.0197  -13.3866   20.4261 N   0  0  0  0  0  0
  -26.3012  -12.9332   20.3332 N   0  0  0  0  0  0
  -25.9344  -11.6485   20.5758 N   0  0  0  0  0  0
  -22.0526  -12.8225   22.0399 N   0  0  0  0  0  0
  -25.4331  -15.1875   20.4084 N   0  0  0  0  0  0
  -31.8157  -14.7600   20.1527 O   0  0  0  0  0  0
  -21.6655   -6.8876   21.4237 O   0  0  0  0  0  0
  -22.3563  -14.5522   20.6666 O   0  0  0  0  0  0
  -24.6225  -31.8621   23.2048 C   0  0  0  0  0  0
  -25.9074  -32.4797   23.8365 C   0  0  1  0  0  0
  -27.2300  -27.3522   20.1059 C   0  0  0  0  0  0
  -25.5880  -33.8597   24.2299 N   0  0  0  0  0  0
  -23.4152  -30.4851   21.5483 C   0  0  2  0  0  0
  -24.8604  -28.9445   20.1140 C   0  0  0  0  0  0
  -22.7457  -29.4627   22.4962 C   0  0  0  0  0  0
  -18.0290  -28.1399   22.8499 C   0  0  0  0  0  0
  -24.1484  -36.7313   23.2641 C   0  0  0  0  0  0
  -25.9527  -30.8041   21.3686 C   0  0  0  0  0  0
  -26.0283  -29.4337   20.7120 C   0  0  0  0  0  0
  -27.2164  -28.6502   20.6954 C   0  0  0  0  0  0
  -26.0318  -26.9002   19.5039 C   0  0  0  0  0  0
  -24.8614  -27.6816   19.5059 C   0  0  0  0  0  0
  -23.6271  -29.8216   20.1630 C   0  0  0  0  0  0
  -25.4105  -36.3104   24.0341 C   0  0  1  0  0  0
  -20.5890  -28.3687   23.1310 C   0  0  2  0  0  0
  -20.6785  -26.9416   22.5429 C   0  0  0  0  0  0
  -19.5750  -26.6391   21.5239 C   0  0  0  0  0  0
  -18.1928  -26.7940   22.1643 C   0  0  0  0  0  0
  -19.1543  -28.8858   23.2900 C   0  0  0  0  0  0
  -18.9456  -30.1467   23.8902 C   0  0  0  0  0  0
  -17.6452  -30.6590   24.0572 C   0  0  0  0  0  0
  -25.9039  -34.9466   23.5131 C   0  0  0  0  0  0
  -16.5346  -29.9090   23.6332 C   0  0  0  0  0  0
  -16.7278  -28.6523   23.0330 C   0  0  0  0  0  0
  -26.4453  -31.6579   25.0711 C   0  0  0  0  0  0
  -25.3703  -31.3717   26.1445 C   0  0  0  0  0  0
  -27.0273  -30.3006   24.6134 C   0  0  0  0  0  0
  -27.6017  -32.4297   25.7480 C   0  0  0  0  0  0
  -27.5584  -37.1812   24.8462 C   0  0  0  0  0  0
  -21.4171  -29.3035   22.3689 N   0  0  0  0  0  0
  -26.4290  -37.3793   23.9407 N   0  0  0  0  0  0
  -24.6824  -31.0650   22.0996 N   0  0  0  0  0  0
  -23.4192  -28.8165   23.3022 O   0  0  0  0  0  0
  -28.3788  -26.5552   20.1242 O   0  0  0  0  0  0
  -26.5617  -34.8937   22.4710 O   0  0  0  0  0  0
  -23.5390  -32.1389   23.7401 O   0  0  0  0  0  0
  -33.1254  -22.1615   19.5506 C   0  0  0  0  0  0
  -31.9036  -22.7776   19.8150 C   0  0  0  0  0  0
  -33.1975  -20.7807   19.3619 C   0  0  0  0  0  0
  -32.0080  -20.0130   19.4179 C   0  0  0  0  0  0
  -30.7485  -20.6017   19.7819 C   0  0  0  0  0  0
  -30.6864  -22.0565   19.9313 C   0  0  0  0  0  0
  -32.1462  -18.5356   19.0566 C   0  0  0  0  0  0
  -30.8325  -17.8616   18.6947 C   0  0  0  0  0  0
  -35.2116  -19.3284   20.1993 C   0  0  0  0  0  0
  -35.7959  -20.6659   19.8205 C   0  0  0  0  0  0
  -34.5499  -20.1616   19.1222 C   0  0  0  0  0  0
  -29.5536  -19.6140   20.0715 C   0  0  2  0  0  0
  -29.8092  -18.0486   19.8087 C   0  0  2  0  0  0
  -28.2024  -19.9676   17.8670 C   0  0  0  0  0  0
  -26.9652  -19.4317   20.0327 C   0  0  0  0  0  0
  -30.1485  -17.1086   21.0393 C   0  0  0  0  0  0
  -28.2279  -25.0919   20.0972 C   0  0  0  0  0  0
  -29.5701  -24.2777   20.1115 C   0  0  0  0  0  0
  -28.2145  -20.0764   19.4030 C   0  0  0  0  0  0
  -29.8589  -15.6455   20.8764 N   0  0  0  0  0  0
  -29.5153  -22.8044   20.1751 O   0  0  0  0  0  0
  -31.4760  -12.4862   19.1462 H   0  0  0  0  0  0
  -30.3494  -11.3730   19.8729 H   0  0  0  0  0  0
  -29.7670  -11.7813   17.4543 H   0  0  0  0  0  0
  -29.6492  -13.4953   17.7633 H   0  0  0  0  0  0
  -27.8616  -11.2955   18.8529 H   0  0  0  0  0  0
  -27.3724  -12.5895   17.7906 H   0  0  0  0  0  0
  -27.6748  -14.2493   19.5306 H   0  0  0  0  0  0
  -28.7072  -12.0305   21.3629 H   0  0  0  0  0  0
  -28.4581  -13.6799   21.8509 H   0  0  0  0  0  0
  -25.2760   -9.5695   22.4749 H   0  0  0  0  0  0
  -24.0025   -7.4639   22.7459 H   0  0  0  0  0  0
  -21.0849   -8.8749   19.8942 H   0  0  0  0  0  0
  -22.3673  -10.9672   19.6163 H   0  0  0  0  0  0
  -21.1975   -7.6137   23.9708 H   0  0  0  0  0  0
  -21.1513   -6.0512   25.9073 H   0  0  0  0  0  0
  -22.0589   -2.7610   23.2836 H   0  0  0  0  0  0
  -22.4142  -11.9883   22.4799 H   0  0  0  0  0  0
  -21.1141  -13.1234   22.2580 H   0  0  0  0  0  0
  -24.6675  -15.8438   20.5095 H   0  0  0  0  0  0
  -26.2788  -15.6223   20.0624 H   0  0  0  0  0  0
  -26.7141  -32.5466   23.1116 H   0  0  0  0  0  0
  -24.9963  -33.9733   25.0396 H   0  0  0  0  0  0
  -22.7100  -31.3065   21.4100 H   0  0  0  0  0  0
  -23.3749  -35.9640   23.3292 H   0  0  0  0  0  0
  -24.3598  -36.8940   22.2062 H   0  0  0  0  0  0
  -23.7235  -37.6518   23.6662 H   0  0  0  0  0  0
  -26.0774  -31.5682   20.5991 H   0  0  0  0  0  0
  -26.8358  -30.8559   21.9933 H   0  0  0  0  0  0
  -28.1165  -29.0273   21.1594 H   0  0  0  0  0  0
  -25.9643  -25.9381   19.0221 H   0  0  0  0  0  0
  -23.9626  -27.2984   19.0420 H   0  0  0  0  0  0
  -23.7470  -30.5993   19.4078 H   0  0  0  0  0  0
  -22.7461  -29.2521   19.8614 H   0  0  0  0  0  0
  -25.1292  -36.1970   25.0836 H   0  0  0  0  0  0
  -21.0003  -28.3257   24.1422 H   0  0  0  0  0  0
  -20.5729  -26.2285   23.3617 H   0  0  0  0  0  0
  -21.6639  -26.7466   22.1187 H   0  0  0  0  0  0
  -19.6900  -25.6306   21.1248 H   0  0  0  0  0  0
  -19.6686  -27.3218   20.6780 H   0  0  0  0  0  0
  -17.4210  -26.6715   21.4028 H   0  0  0  0  0  0
  -18.0299  -26.0082   22.9037 H   0  0  0  0  0  0
  -19.7926  -30.7302   24.2255 H   0  0  0  0  0  0
  -17.4999  -31.6272   24.5169 H   0  0  0  0  0  0
  -15.5349  -30.2988   23.7650 H   0  0  0  0  0  0
  -15.8683  -28.0858   22.7001 H   0  0  0  0  0  0
  -24.5858  -30.7087   25.7779 H   0  0  0  0  0  0
  -24.8907  -32.2886   26.4882 H   0  0  0  0  0  0
  -25.8015  -30.8878   27.0217 H   0  0  0  0  0  0
  -26.2835  -29.6787   24.1138 H   0  0  0  0  0  0
  -27.3961  -29.7224   25.4616 H   0  0  0  0  0  0
  -27.8708  -30.4298   23.9353 H   0  0  0  0  0  0
  -27.2629  -33.3595   26.2070 H   0  0  0  0  0  0
  -28.3814  -32.6862   25.0293 H   0  0  0  0  0  0
  -28.0694  -31.8409   26.5384 H   0  0  0  0  0  0
  -28.2598  -38.0112   24.7518 H   0  0  0  0  0  0
  -28.1088  -36.2652   24.6272 H   0  0  0  0  0  0
  -27.2313  -37.1445   25.8867 H   0  0  0  0  0  0
  -20.9344  -29.8741   21.6891 H   0  0  0  0  0  0
  -26.0181  -38.2872   24.1406 H   0  0  0  0  0  0
  -34.0164  -22.7698   19.4836 H   0  0  0  0  0  0
  -31.9688  -23.8465   19.9451 H   0  0  0  0  0  0
  -32.6446  -18.0142   19.8721 H   0  0  0  0  0  0
  -32.7982  -18.4330   18.1897 H   0  0  0  0  0  0
  -30.9933  -16.8052   18.4809 H   0  0  0  0  0  0
  -30.4578  -18.2953   17.7684 H   0  0  0  0  0  0
  -34.7192  -19.2629   21.1687 H   0  0  0  0  0  0
  -35.7669  -18.4425   19.8963 H   0  0  0  0  0  0
  -36.7290  -20.6529   19.2616 H   0  0  0  0  0  0
  -35.6963  -21.4707   20.5454 H   0  0  0  0  0  0
  -34.6661  -19.8461   18.0870 H   0  0  0  0  0  0
  -29.3934  -19.7203   21.1437 H   0  0  0  0  0  0
  -28.8835  -17.6309   19.4237 H   0  0  0  0  0  0
  -29.0607  -20.4803   17.4306 H   0  0  0  0  0  0
  -27.3061  -20.4326   17.4551 H   0  0  0  0  0  0
  -28.2161  -18.9324   17.5266 H   0  0  0  0  0  0
  -26.9620  -19.5598   21.1155 H   0  0  0  0  0  0
  -26.8813  -18.3656   19.8291 H   0  0  0  0  0  0
  -26.0563  -19.8988   19.6516 H   0  0  0  0  0  0
  -29.5509  -17.4342   21.8918 H   0  0  0  0  0  0
  -31.1821  -17.2412   21.3570 H   0  0  0  0  0  0
  -27.6259  -24.7915   20.9558 H   0  0  0  0  0  0
  -27.6927  -24.7771   19.2024 H   0  0  0  0  0  0
  -30.1645  -24.6365   20.9537 H   0  0  0  0  0  0
  -30.0915  -24.5737   19.1995 H   0  0  0  0  0  0
  -28.0685  -21.1282   19.6192 H   0  0  0  0  0  0
  -28.9254  -15.3706   21.1387 H   0  0  0  0  0  0
  1 25  1  0  0  0
  1 30  2  0  0  0
  1 90  1  0  0  0
  2  3  1  0  0  0
  2 25  1  0  0  0
  2 92  1  0  0  0
  2 93  1  0  0  0
  3  4  1  0  0  0
  3 94  1  0  0  0
  3 95  1  0  0  0
  4  5  1  0  0  0
  4 96  1  0  0  0
  4 97  1  0  0  0
  5  6  1  0  0  0
  5 26  1  0  0  0
  5 98  1  0  0  0
  6 25  1  0  0  0
  6 99  1  0  0  0
  6100  1  0  0  0
  7  8  2  0  0  0
  7 26  1  0  0  0
  7 29  1  0  0  0
  8  9  1  0  0  0
  8 22  1  0  0  0
  9 10  1  0  0  0
  9 27  2  0  0  0
 10 11  2  0  0  0
 10 15  1  0  0  0
 11 12  1  0  0  0
 11101  1  0  0  0
 12 13  2  0  0  0
 12102  1  0  0  0
 13 14  1  0  0  0
 13 31  1  0  0  0
 14 15  2  0  0  0
 14103  1  0  0  0
 15104  1  0  0  0
 16 17  2  0  0  0
 16 21  1  0  0  0
 16 31  1  0  0  0
 17 18  1  0  0  0
 17105  1  0  0  0
 18 19  2  0  0  0
 18106  1  0  0  0
 19 20  1  0  0  0
 19 24  1  0  0  0
 20 21  2  0  0  0
 20107  1  0  0  0
 21 23  1  0  0  0
 22 28  1  0  0  0
 22 32  2  0  0  0
 26 27  1  0  0  0
 28108  1  0  0  0
 28109  1  0  0  0
 29110  1  0  0  0
 29111  1  0  0  0
 33 34  1  0  0  0
 33 66  1  0  0  0
 33 70  2  0  0  0
 34 36  1  0  0  0
 34 59  1  0  0  0
 34112  1  0  0  0
 35 44  2  0  0  0
 35 45  1  0  0  0
 35 68  1  0  0  0
 36 56  1  0  0  0
 36113  1  0  0  0
 37 39  1  0  0  0
 37 47  1  0  0  0
 37 66  1  0  0  0
 37114  1  0  0  0
 38 43  2  0  0  0
 38 46  1  0  0  0
 38 47  1  0  0  0
 39 64  1  0  0  0
 39 67  2  0  0  0
 40 52  1  0  0  0
 40 53  2  0  0  0
 40 58  1  0  0  0
 41115  1  0  0  0
 41116  1  0  0  0
 41117  1  0  0  0
 41 48  1  0  0  0
 42 43  1  0  0  0
 42 66  1  0  0  0
 42118  1  0  0  0
 42119  1  0  0  0
 43 44  1  0  0  0
 44120  1  0  0  0
 45 46  2  0  0  0
 45121  1  0  0  0
 46122  1  0  0  0
 47123  1  0  0  0
 47124  1  0  0  0
 48 56  1  0  0  0
 48 65  1  0  0  0
 48125  1  0  0  0
 49 50  1  0  0  0
 49 53  1  0  0  0
 49 64  1  0  0  0
 49126  1  0  0  0
 50 51  1  0  0  0
 50127  1  0  0  0
 50128  1  0  0  0
 51 52  1  0  0  0
 51129  1  0  0  0
 51130  1  0  0  0
 52131  1  0  0  0
 52132  1  0  0  0
 53 54  1  0  0  0
 54 55  2  0  0  0
 54133  1  0  0  0
 55 57  1  0  0  0
 55134  1  0  0  0
 56 69  2  0  0  0
 57 58  2  0  0  0
 57135  1  0  0  0
 58136  1  0  0  0
 59 60  1  0  0  0
 59 61  1  0  0  0
 59 62  1  0  0  0
 60137  1  0  0  0
 60138  1  0  0  0
 60139  1  0  0  0
 61140  1  0  0  0
 61141  1  0  0  0
 61142  1  0  0  0
 62143  1  0  0  0
 62144  1  0  0  0
 62145  1  0  0  0
 63 65  1  0  0  0
 63146  1  0  0  0
 63147  1  0  0  0
 63148  1  0  0  0
 64149  1  0  0  0
 65150  1  0  0  0
 68 87  1  0  0  0
 71 72  2  0  0  0
 71 73  1  0  0  0
 71151  1  0  0  0
 72 76  1  0  0  0
 72152  1  0  0  0
 73 74  2  0  0  0
 73 81  1  0  0  0
 74 75  1  0  0  0
 74 77  1  0  0  0
 75 76  2  0  0  0
 75 82  1  0  0  0
 76 91  1  0  0  0
 77 78  1  0  0  0
 77153  1  0  0  0
 77154  1  0  0  0
 78 83  1  0  0  0
 78155  1  0  0  0
 78156  1  0  0  0
 79 80  1  0  0  0
 79 81  1  0  0  0
 79157  1  0  0  0
 79158  1  0  0  0
 80 81  1  0  0  0
 80159  1  0  0  0
 80160  1  0  0  0
 81161  1  0  0  0
 82 83  1  0  0  0
 82 89  1  0  0  0
 82162  1  0  0  0
 83 86  1  0  0  0
 83163  1  0  0  0
 84164  1  0  0  0
 84165  1  0  0  0
 84166  1  0  0  0
 84 89  1  0  0  0
 85 89  1  0  0  0
 85167  1  0  0  0
 85168  1  0  0  0
 85169  1  0  0  0
 86 90  1  0  0  0
 86170  1  0  0  0
 86171  1  0  0  0
 87 88  1  0  0  0
 87172  1  0  0  0
 87173  1  0  0  0
 88 91  1  0  0  0
 88174  1  0  0  0
 88175  1  0  0  0
 89176  1  0  0  0
 90177  1  0  0  0
M  ISO  4   1 100  68 101  87 101  90 100
M  END
> <chiral flag>
0

> <version>
0

> <s_m_source_file>
/data/baiqing/PycharmProjects/Reinvent-master-3.2/result/LINK_invent/BTK/process_docking_weight1_custom_sum_contain_oxygen_bond_distance_aromatic_linkinvent_7_9_3/rearranged_h_0147.sdf

> <i_m_source_file_index>
54

> <r_mmod_Potential_Energy-OPLS-2005>
113.155792236328

> <r_mmod_Stretch_Energy-OPLS-2005>
87.8273162841797

> <r_mmod_Bend_Energy-OPLS-2005>
152.091293334961

> <r_mmod_Torsional_Energy-OPLS-2005>
268.493255615234

> <r_mmod_Improper_Torsional_Energy-OPLS-2005>
4.07848119735718

> <r_mmod_Van_der_Waal_Energy-OPLS-2005>
162.472320556641

> <r_mmod_Electrostatic_Energy-OPLS-2005>
-391.913696289062

> <r_mmod_Solvation_Energy-OPLS-2005>
-204.104431152344

> <b_mmod_Minimization_Converged-OPLS-2005>
0

> <r_mmod_RMS_Derivative-OPLS-2005>
2.8634090423584

$$$$
54
                    3D
 Structure written by MMmdl.
169178  0  0  1  0            999 V2000
  -30.7442  -14.4198   20.5408 C   0  0  0  0  0  0
  -30.4066  -12.2657   19.4124 C   0  0  0  0  0  0
  -29.4832  -12.4791   18.1970 C   0  0  0  0  0  0
  -28.0046  -12.3585   18.6150 C   0  0  0  0  0  0
  -27.6579  -13.2033   19.8710 C   0  0  2  0  0  0
  -28.7054  -13.0038   20.9894 C   0  0  0  0  0  0
  -25.2581  -13.8160   20.5694 C   0  0  0  0  0  0
  -24.1831  -13.0440   20.9172 C   0  0  0  0  0  0
  -24.6382  -11.6898   20.8741 C   0  0  0  0  0  0
  -23.9050  -10.4289   21.0408 C   0  0  0  0  0  0
  -24.3606   -9.4206   21.9186 C   0  0  0  0  0  0
  -23.6285   -8.2241   22.0753 C   0  0  0  0  0  0
  -22.4267   -8.0277   21.3542 C   0  0  0  0  0  0
  -21.9904   -9.0250   20.4645 C   0  0  0  0  0  0
  -22.7226  -10.2128   20.3058 C   0  0  0  0  0  0
  -21.6847   -6.0731   22.5276 C   0  0  0  0  0  0
  -21.4014   -6.5636   23.8208 C   0  0  0  0  0  0
  -21.3655   -5.6789   24.9172 C   0  0  0  0  0  0
  -21.6047   -4.3055   24.7227 C   0  0  0  0  0  0
  -21.8819   -3.8143   23.4349 C   0  0  0  0  0  0
  -21.9192   -4.6958   22.3402 C   0  0  0  0  0  0
  -22.7853  -13.5231   21.1841 C   0  0  0  0  0  0
  -22.1658   -4.2147   21.0979 F   0  0  0  0  0  0
  -21.5632   -3.4538   25.7739 F   0  0  0  0  0  0
  -30.0356  -13.2672   20.4209 N   0  0  0  0  0  0
  -26.3016  -12.9315   20.3395 N   0  0  0  0  0  0
  -25.9310  -11.6479   20.5795 N   0  0  0  0  0  0
  -22.0495  -12.8223   22.0397 N   0  0  0  0  0  0
  -25.4342  -15.1874   20.4092 N   0  0  0  0  0  0
  -31.9084  -14.5383   20.1438 O   0  0  0  0  0  0
  -21.6630   -6.8872   21.4238 O   0  0  0  0  0  0
  -22.3539  -14.5541   20.6691 O   0  0  0  0  0  0
  -24.6099  -31.8726   23.2124 C   0  0  0  0  0  0
  -25.9019  -32.4850   23.8406 C   0  0  1  0  0  0
  -27.2392  -27.4686   20.0999 C   0  0  0  0  0  0
  -25.5882  -33.8640   24.2338 N   0  0  0  0  0  0
  -23.3963  -30.4942   21.5519 C   0  0  2  0  0  0
  -24.8473  -28.9613   20.1172 C   0  0  0  0  0  0
  -22.7395  -29.4690   22.5026 C   0  0  0  0  0  0
  -18.0262  -28.1375   22.8499 C   0  0  0  0  0  0
  -24.1487  -36.7320   23.2630 C   0  0  0  0  0  0
  -25.9203  -30.8461   21.3626 C   0  0  0  0  0  0
  -26.0009  -29.4810   20.7179 C   0  0  0  0  0  0
  -27.1998  -28.7377   20.7189 C   0  0  0  0  0  0
  -26.0801  -26.9626   19.4805 C   0  0  0  0  0  0
  -24.8790  -27.6986   19.4981 C   0  0  0  0  0  0
  -23.6049  -29.8226   20.1676 C   0  0  0  0  0  0
  -25.4105  -36.3124   24.0338 C   0  0  1  0  0  0
  -20.5859  -28.3661   23.1342 C   0  0  2  0  0  0
  -20.6751  -26.9405   22.5427 C   0  0  0  0  0  0
  -19.5737  -26.6386   21.5213 C   0  0  0  0  0  0
  -18.1912  -26.7921   22.1617 C   0  0  0  0  0  0
  -19.1513  -28.8832   23.2913 C   0  0  0  0  0  0
  -18.9445  -30.1434   23.8928 C   0  0  0  0  0  0
  -17.6450  -30.6581   24.0579 C   0  0  0  0  0  0
  -25.9036  -34.9489   23.5138 C   0  0  0  0  0  0
  -16.5346  -29.9088   23.6339 C   0  0  0  0  0  0
  -16.7253  -28.6505   23.0359 C   0  0  0  0  0  0
  -26.4448  -31.6615   25.0711 C   0  0  0  0  0  0
  -25.3715  -31.3719   26.1473 C   0  0  0  0  0  0
  -27.0269  -30.3072   24.6048 C   0  0  0  0  0  0
  -27.6037  -32.4320   25.7465 C   0  0  0  0  0  0
  -27.5593  -37.1794   24.8447 C   0  0  0  0  0  0
  -21.4128  -29.3036   22.3761 N   0  0  0  0  0  0
  -26.4288  -37.3817   23.9422 N   0  0  0  0  0  0
  -24.6592  -31.0852   22.1016 N   0  0  0  0  0  0
  -23.4181  -28.8225   23.3049 O   0  0  0  0  0  0
  -28.3774  -26.7031   20.0665 O   0  0  0  0  0  0
  -26.5606  -34.8927   22.4703 O   0  0  0  0  0  0
  -23.5314  -32.1465   23.7558 O   0  0  0  0  0  0
  -28.1755  -24.0212   21.2245 C   0  0  0  0  0  0
  -28.3824  -22.6413   21.4010 C   0  0  0  0  0  0
  -30.4160  -24.4545   22.0508 C   0  0  0  0  0  0
  -29.1992  -24.9362   21.5303 C   0  0  0  0  0  0
  -30.6413  -23.0677   22.2352 C   0  0  0  0  0  0
  -29.6154  -22.1392   21.8858 C   0  0  0  0  0  0
  -28.9094  -17.6116   19.9940 C   0  0  0  0  0  0
  -29.7770  -17.6162   22.2930 C   0  0  0  0  0  0
  -29.7300  -16.3586   19.6695 C   0  0  0  0  0  0
  -30.5132  -16.2822   22.0333 C   0  0  0  0  0  0
  -29.6620  -18.4634   21.0182 C   0  0  0  0  0  0
  -31.9598  -22.7121   24.3662 C   0  0  0  0  0  0
  -28.9680  -26.4263   21.3377 C   0  0  0  0  0  0
  -28.9842  -19.8297   21.2293 C   0  0  0  0  0  0
  -31.9835  -22.6335   22.8349 C   0  0  2  0  0  0
  -30.0356  -15.5278   20.8534 N   0  0  0  0  0  0
  -29.8007  -20.7483   22.0224 N   0  0  0  0  0  0
  -33.0702  -23.4357   22.3984 O   0  0  0  0  0  0
  -31.4533  -12.3336   19.1096 H   0  0  0  0  0  0
  -30.2791  -11.2605   19.8177 H   0  0  0  0  0  0
  -29.7079  -11.7447   17.4216 H   0  0  0  0  0  0
  -29.6663  -13.4590   17.7521 H   0  0  0  0  0  0
  -27.8058  -11.3052   18.8128 H   0  0  0  0  0  0
  -27.3542  -12.6354   17.7845 H   0  0  0  0  0  0
  -27.6884  -14.2466   19.5660 H   0  0  0  0  0  0
  -28.6660  -11.9822   21.3701 H   0  0  0  0  0  0
  -28.4932  -13.6509   21.8413 H   0  0  0  0  0  0
  -25.2750   -9.5679   22.4761 H   0  0  0  0  0  0
  -23.9994   -7.4631   22.7472 H   0  0  0  0  0  0
  -21.0840   -8.8767   19.8946 H   0  0  0  0  0  0
  -22.3690  -10.9671   19.6170 H   0  0  0  0  0  0
  -21.2003   -7.6143   23.9709 H   0  0  0  0  0  0
  -21.1478   -6.0522   25.9075 H   0  0  0  0  0  0
  -22.0602   -2.7608   23.2847 H   0  0  0  0  0  0
  -22.4109  -11.9882   22.4780 H   0  0  0  0  0  0
  -21.1124  -13.1260   22.2616 H   0  0  0  0  0  0
  -24.6766  -15.8517   20.5220 H   0  0  0  0  0  0
  -26.3050  -15.6201   20.1281 H   0  0  0  0  0  0
  -26.7097  -32.5607   23.1178 H   0  0  0  0  0  0
  -25.0007  -33.9795   25.0467 H   0  0  0  0  0  0
  -22.6826  -31.3089   21.4122 H   0  0  0  0  0  0
  -23.3751  -35.9650   23.3293 H   0  0  0  0  0  0
  -24.3580  -36.8938   22.2043 H   0  0  0  0  0  0
  -23.7220  -37.6508   23.6654 H   0  0  0  0  0  0
  -26.0234  -31.6110   20.5909 H   0  0  0  0  0  0
  -26.8107  -30.9087   21.9760 H   0  0  0  0  0  0
  -28.0899  -29.1363   21.1860 H   0  0  0  0  0  0
  -26.1104  -25.9953   18.9996 H   0  0  0  0  0  0
  -23.9934  -27.2928   19.0275 H   0  0  0  0  0  0
  -23.7056  -30.5949   19.4044 H   0  0  0  0  0  0
  -22.7327  -29.2350   19.8783 H   0  0  0  0  0  0
  -25.1274  -36.1989   25.0827 H   0  0  0  0  0  0
  -20.9933  -28.3227   24.1464 H   0  0  0  0  0  0
  -20.5668  -26.2261   23.3603 H   0  0  0  0  0  0
  -21.6624  -26.7460   22.1213 H   0  0  0  0  0  0
  -19.6914  -25.6296   21.1230 H   0  0  0  0  0  0
  -19.6682  -27.3213   20.6757 H   0  0  0  0  0  0
  -17.4176  -26.6682   21.4013 H   0  0  0  0  0  0
  -18.0309  -26.0053   22.9003 H   0  0  0  0  0  0
  -19.7928  -30.7233   24.2317 H   0  0  0  0  0  0
  -17.5016  -31.6273   24.5157 H   0  0  0  0  0  0
  -15.5349  -30.2999   23.7639 H   0  0  0  0  0  0
  -15.8653  -28.0828   22.7071 H   0  0  0  0  0  0
  -24.5866  -30.7091   25.7805 H   0  0  0  0  0  0
  -24.8923  -32.2875   26.4964 H   0  0  0  0  0  0
  -25.8058  -30.8846   27.0214 H   0  0  0  0  0  0
  -26.2800  -29.6843   24.1105 H   0  0  0  0  0  0
  -27.4061  -29.7290   25.4484 H   0  0  0  0  0  0
  -27.8621  -30.4400   23.9163 H   0  0  0  0  0  0
  -27.2674  -33.3615   26.2060 H   0  0  0  0  0  0
  -28.3819  -32.6881   25.0266 H   0  0  0  0  0  0
  -28.0716  -31.8421   26.5357 H   0  0  0  0  0  0
  -28.2568  -38.0139   24.7588 H   0  0  0  0  0  0
  -28.1130  -36.2672   24.6156 H   0  0  0  0  0  0
  -27.2325  -37.1301   25.8850 H   0  0  0  0  0  0
  -20.9287  -29.8741   21.6970 H   0  0  0  0  0  0
  -26.0188  -38.2887   24.1463 H   0  0  0  0  0  0
  -27.2247  -24.3728   20.8501 H   0  0  0  0  0  0
  -27.5664  -21.9791   21.1559 H   0  0  0  0  0  0
  -31.1893  -25.1610   22.3185 H   0  0  0  0  0  0
  -27.9258  -17.3305   20.3749 H   0  0  0  0  0  0
  -28.7382  -18.1778   19.0769 H   0  0  0  0  0  0
  -30.3068  -18.1717   23.0678 H   0  0  0  0  0  0
  -28.7814  -17.4153   22.6914 H   0  0  0  0  0  0
  -30.6616  -16.6692   19.1908 H   0  0  0  0  0  0
  -29.2010  -15.7690   18.9194 H   0  0  0  0  0  0
  -30.4193  -15.6490   22.9178 H   0  0  0  0  0  0
  -31.5797  -16.4903   21.9217 H   0  0  0  0  0  0
  -30.6631  -18.6493   20.6240 H   0  0  0  0  0  0
  -31.1825  -22.0670   24.7762 H   0  0  0  0  0  0
  -31.7620  -23.7281   24.7106 H   0  0  0  0  0  0
  -32.9095  -22.3917   24.7972 H   0  0  0  0  0  0
  -29.9127  -26.9663   21.4105 H   0  0  0  0  0  0
  -28.3448  -26.7600   22.1703 H   0  0  0  0  0  0
  -28.0076  -19.6986   21.6974 H   0  0  0  0  0  0
  -28.8088  -20.2746   20.2472 H   0  0  0  0  0  0
  -32.2090  -21.6095   22.5344 H   0  0  0  0  0  0
  -30.6938  -20.3938   22.3483 H   0  0  0  0  0  0
  -33.1370  -23.3307   21.4544 H   0  0  0  0  0  0
  1 25  1  0  0  0
  1 30  2  0  0  0
  1 86  1  0  0  0
  2  3  1  0  0  0
  2 25  1  0  0  0
  2 89  1  0  0  0
  2 90  1  0  0  0
  3  4  1  0  0  0
  3 91  1  0  0  0
  3 92  1  0  0  0
  4  5  1  0  0  0
  4 93  1  0  0  0
  4 94  1  0  0  0
  5  6  1  0  0  0
  5 26  1  0  0  0
  5 95  1  0  0  0
  6 25  1  0  0  0
  6 96  1  0  0  0
  6 97  1  0  0  0
  7  8  2  0  0  0
  7 26  1  0  0  0
  7 29  1  0  0  0
  8  9  1  0  0  0
  8 22  1  0  0  0
  9 10  1  0  0  0
  9 27  2  0  0  0
 10 11  2  0  0  0
 10 15  1  0  0  0
 11 12  1  0  0  0
 11 98  1  0  0  0
 12 13  2  0  0  0
 12 99  1  0  0  0
 13 14  1  0  0  0
 13 31  1  0  0  0
 14 15  2  0  0  0
 14100  1  0  0  0
 15101  1  0  0  0
 16 17  2  0  0  0
 16 21  1  0  0  0
 16 31  1  0  0  0
 17 18  1  0  0  0
 17102  1  0  0  0
 18 19  2  0  0  0
 18103  1  0  0  0
 19 20  1  0  0  0
 19 24  1  0  0  0
 20 21  2  0  0  0
 20104  1  0  0  0
 21 23  1  0  0  0
 22 28  1  0  0  0
 22 32  2  0  0  0
 26 27  1  0  0  0
 28105  1  0  0  0
 28106  1  0  0  0
 29107  1  0  0  0
 29108  1  0  0  0
 33 34  1  0  0  0
 33 66  1  0  0  0
 33 70  2  0  0  0
 34 36  1  0  0  0
 34 59  1  0  0  0
 34109  1  0  0  0
 35 44  2  0  0  0
 35 45  1  0  0  0
 35 68  1  0  0  0
 36 56  1  0  0  0
 36110  1  0  0  0
 37 39  1  0  0  0
 37 47  1  0  0  0
 37 66  1  0  0  0
 37111  1  0  0  0
 38 43  2  0  0  0
 38 46  1  0  0  0
 38 47  1  0  0  0
 39 64  1  0  0  0
 39 67  2  0  0  0
 40 52  1  0  0  0
 40 53  2  0  0  0
 40 58  1  0  0  0
 41112  1  0  0  0
 41113  1  0  0  0
 41114  1  0  0  0
 41 48  1  0  0  0
 42 43  1  0  0  0
 42 66  1  0  0  0
 42115  1  0  0  0
 42116  1  0  0  0
 43 44  1  0  0  0
 44117  1  0  0  0
 45 46  2  0  0  0
 45118  1  0  0  0
 46119  1  0  0  0
 47120  1  0  0  0
 47121  1  0  0  0
 48 56  1  0  0  0
 48 65  1  0  0  0
 48122  1  0  0  0
 49 50  1  0  0  0
 49 53  1  0  0  0
 49 64  1  0  0  0
 49123  1  0  0  0
 50 51  1  0  0  0
 50124  1  0  0  0
 50125  1  0  0  0
 51 52  1  0  0  0
 51126  1  0  0  0
 51127  1  0  0  0
 52128  1  0  0  0
 52129  1  0  0  0
 53 54  1  0  0  0
 54 55  2  0  0  0
 54130  1  0  0  0
 55 57  1  0  0  0
 55131  1  0  0  0
 56 69  2  0  0  0
 57 58  2  0  0  0
 57132  1  0  0  0
 58133  1  0  0  0
 59 60  1  0  0  0
 59 61  1  0  0  0
 59 62  1  0  0  0
 60134  1  0  0  0
 60135  1  0  0  0
 60136  1  0  0  0
 61137  1  0  0  0
 61138  1  0  0  0
 61139  1  0  0  0
 62140  1  0  0  0
 62141  1  0  0  0
 62142  1  0  0  0
 63 65  1  0  0  0
 63143  1  0  0  0
 63144  1  0  0  0
 63145  1  0  0  0
 64146  1  0  0  0
 65147  1  0  0  0
 68 83  1  0  0  0
 71 72  2  0  0  0
 71 74  1  0  0  0
 71148  1  0  0  0
 72 76  1  0  0  0
 72149  1  0  0  0
 73 74  2  0  0  0
 73 75  1  0  0  0
 73150  1  0  0  0
 74 83  1  0  0  0
 75 76  2  0  0  0
 75 85  1  0  0  0
 76 87  1  0  0  0
 77 79  1  0  0  0
 77 81  1  0  0  0
 77151  1  0  0  0
 77152  1  0  0  0
 78 80  1  0  0  0
 78 81  1  0  0  0
 78153  1  0  0  0
 78154  1  0  0  0
 79 86  1  0  0  0
 79155  1  0  0  0
 79156  1  0  0  0
 80 86  1  0  0  0
 80157  1  0  0  0
 80158  1  0  0  0
 81 84  1  0  0  0
 81159  1  0  0  0
 82160  1  0  0  0
 82161  1  0  0  0
 82162  1  0  0  0
 82 85  1  0  0  0
 83163  1  0  0  0
 83164  1  0  0  0
 84 87  1  0  0  0
 84165  1  0  0  0
 84166  1  0  0  0
 85 88  1  0  0  0
 85167  1  0  0  0
 87168  1  0  0  0
 88169  1  0  0  0
M  ISO  4   1 100  68 101  83 101  86 100
M  END
> <chiral flag>
0

> <version>
0

> <s_m_source_file>
/data/baiqing/PycharmProjects/Reinvent-master-3.2/result/LINK_invent/BTK/process_docking_weight1_custom_sum_contain_oxygen_bond_distance_aromatic_linkinvent_7_9_3/rearranged_h_0147.sdf

> <i_m_source_file_index>
55

> <r_mmod_Potential_Energy-OPLS-2005>
180.092071533203

> <r_mmod_Stretch_Energy-OPLS-2005>
36.919261932373

> <r_mmod_Bend_Energy-OPLS-2005>
110.452690124512

> <r_mmod_Torsional_Energy-OPLS-2005>
354.972900390625

> <r_mmod_Improper_Torsional_Energy-OPLS-2005>
12.0710592269897

> <r_mmod_Van_der_Waal_Energy-OPLS-2005>
160.91081237793

> <r_mmod_Electrostatic_Energy-OPLS-2005>
-299.461639404297

> <r_mmod_Solvation_Energy-OPLS-2005>
-209.275817871094

> <b_mmod_Minimization_Converged-OPLS-2005>
0

> <r_mmod_RMS_Derivative-OPLS-2005>
2.34594917297363

$$$$
55
                    3D
 Structure written by MMmdl.
166175  0  0  1  0            999 V2000
  -30.6362  -14.6950   20.5303 C   0  0  0  0  0  0
  -30.4349  -12.4380   19.4726 C   0  0  0  0  0  0
  -29.5157  -12.5294   18.2358 C   0  0  0  0  0  0
  -28.0383  -12.3531   18.6412 C   0  0  0  0  0  0
  -27.6504  -13.2282   19.8632 C   0  0  2  0  0  0
  -28.6906  -13.1141   20.9994 C   0  0  0  0  0  0
  -25.2520  -13.8187   20.5686 C   0  0  0  0  0  0
  -24.1801  -13.0440   20.9176 C   0  0  0  0  0  0
  -24.6391  -11.6913   20.8733 C   0  0  0  0  0  0
  -23.9059  -10.4301   21.0397 C   0  0  0  0  0  0
  -24.3600   -9.4222   21.9179 C   0  0  0  0  0  0
  -23.6286   -8.2246   22.0729 C   0  0  0  0  0  0
  -22.4264   -8.0290   21.3524 C   0  0  0  0  0  0
  -21.9899   -9.0274   20.4629 C   0  0  0  0  0  0
  -22.7232  -10.2149   20.3046 C   0  0  0  0  0  0
  -21.6841   -6.0739   22.5279 C   0  0  0  0  0  0
  -21.4012   -6.5633   23.8226 C   0  0  0  0  0  0
  -21.3648   -5.6779   24.9181 C   0  0  0  0  0  0
  -21.6054   -4.3045   24.7231 C   0  0  0  0  0  0
  -21.8829   -3.8142   23.4349 C   0  0  0  0  0  0
  -21.9169   -4.6962   22.3401 C   0  0  0  0  0  0
  -22.7817  -13.5215   21.1828 C   0  0  0  0  0  0
  -22.1599   -4.2137   21.0981 F   0  0  0  0  0  0
  -21.5656   -3.4528   25.7745 F   0  0  0  0  0  0
  -30.0014  -13.4747   20.4388 N   0  0  0  0  0  0
  -26.2971  -12.9394   20.3315 N   0  0  0  0  0  0
  -25.9325  -11.6534   20.5753 N   0  0  0  0  0  0
  -22.0462  -12.8223   22.0399 N   0  0  0  0  0  0
  -25.4199  -15.1907   20.4145 N   0  0  0  0  0  0
  -31.7591  -14.8432   20.0396 O   0  0  0  0  0  0
  -21.6623   -6.8883   21.4235 O   0  0  0  0  0  0
  -22.3496  -14.5504   20.6639 O   0  0  0  0  0  0
  -24.6265  -31.8581   23.2000 C   0  0  0  0  0  0
  -25.9109  -32.4767   23.8328 C   0  0  1  0  0  0
  -27.2179  -27.2992   20.1263 C   0  0  0  0  0  0
  -25.5934  -33.8570   24.2266 N   0  0  0  0  0  0
  -23.4199  -30.4820   21.5426 C   0  0  2  0  0  0
  -24.8631  -28.9255   20.1144 C   0  0  0  0  0  0
  -22.7472  -29.4621   22.4925 C   0  0  0  0  0  0
  -18.0292  -28.1385   22.8497 C   0  0  0  0  0  0
  -24.1490  -36.7283   23.2642 C   0  0  0  0  0  0
  -25.9597  -30.7836   21.3694 C   0  0  0  0  0  0
  -26.0296  -29.4049   20.7213 C   0  0  0  0  0  0
  -27.2082  -28.6009   20.7206 C   0  0  0  0  0  0
  -26.0285  -26.8704   19.4986 C   0  0  0  0  0  0
  -24.8629  -27.6634   19.4981 C   0  0  0  0  0  0
  -23.6337  -29.8118   20.1594 C   0  0  0  0  0  0
  -25.4113  -36.3076   24.0332 C   0  0  1  0  0  0
  -20.5891  -28.3677   23.1287 C   0  0  2  0  0  0
  -20.6777  -26.9400   22.5413 C   0  0  0  0  0  0
  -19.5752  -26.6381   21.5217 C   0  0  0  0  0  0
  -18.1931  -26.7930   22.1629 C   0  0  0  0  0  0
  -19.1546  -28.8846   23.2890 C   0  0  0  0  0  0
  -18.9470  -30.1454   23.8893 C   0  0  0  0  0  0
  -17.6469  -30.6586   24.0567 C   0  0  0  0  0  0
  -25.9052  -34.9446   23.5091 C   0  0  0  0  0  0
  -16.5358  -29.9085   23.6336 C   0  0  0  0  0  0
  -16.7277  -28.6506   23.0347 C   0  0  0  0  0  0
  -26.4489  -31.6585   25.0704 C   0  0  0  0  0  0
  -25.3732  -31.3718   26.1445 C   0  0  0  0  0  0
  -27.0323  -30.3020   24.6136 C   0  0  0  0  0  0
  -27.6066  -32.4303   25.7467 C   0  0  0  0  0  0
  -27.5574  -37.1798   24.8465 C   0  0  0  0  0  0
  -21.4185  -29.3037   22.3681 N   0  0  0  0  0  0
  -26.4285  -37.3776   23.9413 N   0  0  0  0  0  0
  -24.6881  -31.0589   22.0947 N   0  0  0  0  0  0
  -23.4199  -28.8167   23.3003 O   0  0  0  0  0  0
  -28.3604  -26.4827   20.1294 O   0  0  0  0  0  0
  -26.5619  -34.8926   22.4658 O   0  0  0  0  0  0
  -23.5430  -32.1367   23.7349 O   0  0  0  0  0  0
  -28.7587  -24.3053   21.2852 C   0  0  0  0  0  0
  -28.7552  -22.1990   19.9735 C   0  0  0  0  0  0
  -28.9620  -22.8884   21.2032 C   0  0  0  0  0  0
  -28.2966  -23.0463   18.9103 C   0  0  0  0  0  0
  -28.3485  -25.0622   20.1591 C   0  0  0  0  0  0
  -30.5661  -20.4633   19.2564 C   0  0  0  0  0  0
  -29.1210  -20.6677   19.6958 C   0  0  1  0  0  0
  -30.7081  -18.9415   19.2363 C   0  0  2  0  0  0
  -29.9430  -18.4704   20.4913 C   0  0  2  0  0  0
  -29.4276  -22.1360   22.4354 C   0  0  0  0  0  0
  -27.9682  -22.4834   17.5377 C   0  0  0  0  0  0
  -32.1687  -18.4776   19.1747 C   0  0  0  0  0  0
  -30.0762  -15.9529   22.5333 C   0  0  0  0  0  0
  -29.3428  -16.9744   20.3679 C   0  0  0  0  0  0
  -28.1216  -24.4025   18.9959 N   0  0  0  0  0  0
  -29.9642  -15.7758   21.0813 N   0  0  0  0  0  0
  -29.0032  -19.6034   20.7038 O   0  0  0  0  0  0
  -31.4772  -12.5599   19.1746 H   0  0  0  0  0  0
  -30.3734  -11.4493   19.9295 H   0  0  0  0  0  0
  -29.8018  -11.7752   17.5019 H   0  0  0  0  0  0
  -29.6509  -13.4978   17.7524 H   0  0  0  0  0  0
  -27.8852  -11.2984   18.8750 H   0  0  0  0  0  0
  -27.3875  -12.5751   17.7949 H   0  0  0  0  0  0
  -27.6587  -14.2632   19.5169 H   0  0  0  0  0  0
  -28.7197  -12.1013   21.4070 H   0  0  0  0  0  0
  -28.4072  -13.7598   21.8279 H   0  0  0  0  0  0
  -25.2744   -9.5706   22.4758 H   0  0  0  0  0  0
  -24.0010   -7.4615   22.7408 H   0  0  0  0  0  0
  -21.0843   -8.8804   19.8908 H   0  0  0  0  0  0
  -22.3701  -10.9696   19.6146 H   0  0  0  0  0  0
  -21.1999   -7.6139   23.9745 H   0  0  0  0  0  0
  -21.1445   -6.0491   25.9091 H   0  0  0  0  0  0
  -22.0618   -2.7603   23.2850 H   0  0  0  0  0  0
  -22.4087  -11.9893   22.4801 H   0  0  0  0  0  0
  -21.1085  -13.1245   22.2610 H   0  0  0  0  0  0
  -24.6516  -15.8437   20.5303 H   0  0  0  0  0  0
  -26.2785  -15.6356   20.1164 H   0  0  0  0  0  0
  -26.7176  -32.5431   23.1073 H   0  0  0  0  0  0
  -25.0097  -33.9708   25.0424 H   0  0  0  0  0  0
  -22.7140  -31.3028   21.3984 H   0  0  0  0  0  0
  -23.3753  -35.9615   23.3297 H   0  0  0  0  0  0
  -24.3587  -36.8906   22.2058 H   0  0  0  0  0  0
  -23.7240  -37.6485   23.6656 H   0  0  0  0  0  0
  -26.0854  -31.5418   20.5955 H   0  0  0  0  0  0
  -26.8429  -30.8395   21.9936 H   0  0  0  0  0  0
  -28.1061  -28.9683   21.1960 H   0  0  0  0  0  0
  -25.9860  -25.9080   19.0094 H   0  0  0  0  0  0
  -23.9670  -27.2920   19.0204 H   0  0  0  0  0  0
  -23.7564  -30.5846   19.4003 H   0  0  0  0  0  0
  -22.7519  -29.2452   19.8562 H   0  0  0  0  0  0
  -25.1294  -36.1915   25.0823 H   0  0  0  0  0  0
  -20.9992  -28.3247   24.1405 H   0  0  0  0  0  0
  -20.5677  -26.2284   23.3612 H   0  0  0  0  0  0
  -21.6645  -26.7430   22.1201 H   0  0  0  0  0  0
  -19.6907  -25.6293   21.1244 H   0  0  0  0  0  0
  -19.6692  -27.3197   20.6751 H   0  0  0  0  0  0
  -17.4204  -26.6688   21.4029 H   0  0  0  0  0  0
  -18.0321  -26.0068   22.9016 H   0  0  0  0  0  0
  -19.7942  -30.7280   24.2246 H   0  0  0  0  0  0
  -17.5020  -31.6269   24.5165 H   0  0  0  0  0  0
  -15.5355  -30.2985   23.7655 H   0  0  0  0  0  0
  -15.8680  -28.0832   22.7041 H   0  0  0  0  0  0
  -24.5904  -30.7073   25.7768 H   0  0  0  0  0  0
  -24.8935  -32.2887   26.4883 H   0  0  0  0  0  0
  -25.8075  -30.8883   27.0207 H   0  0  0  0  0  0
  -26.2879  -29.6782   24.1182 H   0  0  0  0  0  0
  -27.4058  -29.7265   25.4611 H   0  0  0  0  0  0
  -27.8725  -30.4322   23.9315 H   0  0  0  0  0  0
  -27.2702  -33.3611   26.2042 H   0  0  0  0  0  0
  -28.3879  -32.6849   25.0290 H   0  0  0  0  0  0
  -28.0724  -31.8422   26.5387 H   0  0  0  0  0  0
  -28.2591  -38.0098   24.7518 H   0  0  0  0  0  0
  -28.1072  -36.2632   24.6272 H   0  0  0  0  0  0
  -27.2299  -37.1415   25.8872 H   0  0  0  0  0  0
  -20.9350  -29.8760   21.6908 H   0  0  0  0  0  0
  -26.0159  -38.2843   24.1437 H   0  0  0  0  0  0
  -28.9673  -24.8311   22.2067 H   0  0  0  0  0  0
  -31.2475  -20.9021   19.9877 H   0  0  0  0  0  0
  -30.7753  -20.9213   18.2897 H   0  0  0  0  0  0
  -28.4697  -20.3249   18.8919 H   0  0  0  0  0  0
  -30.1856  -18.5813   18.3479 H   0  0  0  0  0  0
  -30.6222  -18.5111   21.3436 H   0  0  0  0  0  0
  -29.6934  -22.8178   23.2435 H   0  0  0  0  0  0
  -30.3022  -21.5263   22.2138 H   0  0  0  0  0  0
  -28.6361  -21.4790   22.7960 H   0  0  0  0  0  0
  -27.0614  -21.8797   17.5885 H   0  0  0  0  0  0
  -28.7786  -21.8623   17.1583 H   0  0  0  0  0  0
  -27.7946  -23.2752   16.8087 H   0  0  0  0  0  0
  -32.7434  -18.8560   20.0203 H   0  0  0  0  0  0
  -32.6509  -18.8290   18.2603 H   0  0  0  0  0  0
  -32.2361  -17.3910   19.1906 H   0  0  0  0  0  0
  -29.3838  -15.3000   23.0627 H   0  0  0  0  0  0
  -29.8525  -16.9710   22.8484 H   0  0  0  0  0  0
  -31.0867  -15.7245   22.8795 H   0  0  0  0  0  0
  -29.2305  -16.7174   19.3136 H   0  0  0  0  0  0
  -28.3191  -17.0205   20.7385 H   0  0  0  0  0  0
  1 25  1  0  0  0
  1 30  2  0  0  0
  1 86  1  0  0  0
  2  3  1  0  0  0
  2 25  1  0  0  0
  2 88  1  0  0  0
  2 89  1  0  0  0
  3  4  1  0  0  0
  3 90  1  0  0  0
  3 91  1  0  0  0
  4  5  1  0  0  0
  4 92  1  0  0  0
  4 93  1  0  0  0
  5  6  1  0  0  0
  5 26  1  0  0  0
  5 94  1  0  0  0
  6 25  1  0  0  0
  6 95  1  0  0  0
  6 96  1  0  0  0
  7  8  2  0  0  0
  7 26  1  0  0  0
  7 29  1  0  0  0
  8  9  1  0  0  0
  8 22  1  0  0  0
  9 10  1  0  0  0
  9 27  2  0  0  0
 10 11  2  0  0  0
 10 15  1  0  0  0
 11 12  1  0  0  0
 11 97  1  0  0  0
 12 13  2  0  0  0
 12 98  1  0  0  0
 13 14  1  0  0  0
 13 31  1  0  0  0
 14 15  2  0  0  0
 14 99  1  0  0  0
 15100  1  0  0  0
 16 17  2  0  0  0
 16 21  1  0  0  0
 16 31  1  0  0  0
 17 18  1  0  0  0
 17101  1  0  0  0
 18 19  2  0  0  0
 18102  1  0  0  0
 19 20  1  0  0  0
 19 24  1  0  0  0
 20 21  2  0  0  0
 20103  1  0  0  0
 21 23  1  0  0  0
 22 28  1  0  0  0
 22 32  2  0  0  0
 26 27  1  0  0  0
 28104  1  0  0  0
 28105  1  0  0  0
 29106  1  0  0  0
 29107  1  0  0  0
 33 34  1  0  0  0
 33 66  1  0  0  0
 33 70  2  0  0  0
 34 36  1  0  0  0
 34 59  1  0  0  0
 34108  1  0  0  0
 35 44  2  0  0  0
 35 45  1  0  0  0
 35 68  1  0  0  0
 36 56  1  0  0  0
 36109  1  0  0  0
 37 39  1  0  0  0
 37 47  1  0  0  0
 37 66  1  0  0  0
 37110  1  0  0  0
 38 43  2  0  0  0
 38 46  1  0  0  0
 38 47  1  0  0  0
 39 64  1  0  0  0
 39 67  2  0  0  0
 40 52  1  0  0  0
 40 53  2  0  0  0
 40 58  1  0  0  0
 41111  1  0  0  0
 41112  1  0  0  0
 41113  1  0  0  0
 41 48  1  0  0  0
 42 43  1  0  0  0
 42 66  1  0  0  0
 42114  1  0  0  0
 42115  1  0  0  0
 43 44  1  0  0  0
 44116  1  0  0  0
 45 46  2  0  0  0
 45117  1  0  0  0
 46118  1  0  0  0
 47119  1  0  0  0
 47120  1  0  0  0
 48 56  1  0  0  0
 48 65  1  0  0  0
 48121  1  0  0  0
 49 50  1  0  0  0
 49 53  1  0  0  0
 49 64  1  0  0  0
 49122  1  0  0  0
 50 51  1  0  0  0
 50123  1  0  0  0
 50124  1  0  0  0
 51 52  1  0  0  0
 51125  1  0  0  0
 51126  1  0  0  0
 52127  1  0  0  0
 52128  1  0  0  0
 53 54  1  0  0  0
 54 55  2  0  0  0
 54129  1  0  0  0
 55 57  1  0  0  0
 55130  1  0  0  0
 56 69  2  0  0  0
 57 58  2  0  0  0
 57131  1  0  0  0
 58132  1  0  0  0
 59 60  1  0  0  0
 59 61  1  0  0  0
 59 62  1  0  0  0
 60133  1  0  0  0
 60134  1  0  0  0
 60135  1  0  0  0
 61136  1  0  0  0
 61137  1  0  0  0
 61138  1  0  0  0
 62139  1  0  0  0
 62140  1  0  0  0
 62141  1  0  0  0
 63 65  1  0  0  0
 63142  1  0  0  0
 63143  1  0  0  0
 63144  1  0  0  0
 64145  1  0  0  0
 65146  1  0  0  0
 68 75  1  0  0  0
 71 73  2  0  0  0
 71 75  1  0  0  0
 71147  1  0  0  0
 72 73  1  0  0  0
 72 74  2  0  0  0
 72 77  1  0  0  0
 73 80  1  0  0  0
 74 81  1  0  0  0
 74 85  1  0  0  0
 75 85  2  0  0  0
 76 77  1  0  0  0
 76 78  1  0  0  0
 76148  1  0  0  0
 76149  1  0  0  0
 77 87  1  0  0  0
 77150  1  0  0  0
 78 79  1  0  0  0
 78 82  1  0  0  0
 78151  1  0  0  0
 79 84  1  0  0  0
 79 87  1  0  0  0
 79152  1  0  0  0
 80153  1  0  0  0
 80154  1  0  0  0
 80155  1  0  0  0
 81156  1  0  0  0
 81157  1  0  0  0
 81158  1  0  0  0
 82159  1  0  0  0
 82160  1  0  0  0
 82161  1  0  0  0
 83 86  1  0  0  0
 83162  1  0  0  0
 83163  1  0  0  0
 83164  1  0  0  0
 84 86  1  0  0  0
 84165  1  0  0  0
 84166  1  0  0  0
M  ISO  4   1 100  68 101  75 101  86 100
M  END
> <chiral flag>
0

> <version>
0

> <s_m_source_file>
/data/baiqing/PycharmProjects/Reinvent-master-3.2/result/LINK_invent/BTK/process_docking_weight1_custom_sum_contain_oxygen_bond_distance_aromatic_linkinvent_7_9_3/rearranged_h_0147.sdf

> <i_m_source_file_index>
56

> <r_mmod_Potential_Energy-OPLS-2005>
213.694625854492

> <r_mmod_Stretch_Energy-OPLS-2005>
101.597389221191

> <r_mmod_Bend_Energy-OPLS-2005>
184.13703918457

> <r_mmod_Torsional_Energy-OPLS-2005>
368.704772949219

> <r_mmod_Improper_Torsional_Energy-OPLS-2005>
4.16394567489624

> <r_mmod_Van_der_Waal_Energy-OPLS-2005>
130.294586181641

> <r_mmod_Electrostatic_Energy-OPLS-2005>
-436.342834472656

> <r_mmod_Solvation_Energy-OPLS-2005>
-197.050399780273

> <b_mmod_Minimization_Converged-OPLS-2005>
0

> <r_mmod_RMS_Derivative-OPLS-2005>
2.45474433898926

$$$$
56
                    3D
 Structure written by MMmdl.
175185  0  0  1  0            999 V2000
  -30.5974  -14.6099   20.5713 C   0  0  0  0  0  0
  -30.4550  -12.3931   19.4253 C   0  0  0  0  0  0
  -29.5072  -12.5000   18.2074 C   0  0  0  0  0  0
  -28.0270  -12.3428   18.6188 C   0  0  0  0  0  0
  -27.6507  -13.2031   19.8557 C   0  0  2  0  0  0
  -28.6971  -13.0165   20.9769 C   0  0  0  0  0  0
  -25.2563  -13.8134   20.5685 C   0  0  0  0  0  0
  -24.1835  -13.0433   20.9220 C   0  0  0  0  0  0
  -24.6375  -11.6887   20.8769 C   0  0  0  0  0  0
  -23.9058  -10.4289   21.0441 C   0  0  0  0  0  0
  -24.3605   -9.4198   21.9215 C   0  0  0  0  0  0
  -23.6288   -8.2222   22.0741 C   0  0  0  0  0  0
  -22.4270   -8.0274   21.3521 C   0  0  0  0  0  0
  -21.9913   -9.0263   20.4629 C   0  0  0  0  0  0
  -22.7234  -10.2154   20.3080 C   0  0  0  0  0  0
  -21.6831   -6.0758   22.5298 C   0  0  0  0  0  0
  -21.3992   -6.5646   23.8231 C   0  0  0  0  0  0
  -21.3671   -5.6799   24.9193 C   0  0  0  0  0  0
  -21.6045   -4.3057   24.7234 C   0  0  0  0  0  0
  -21.8806   -3.8155   23.4341 C   0  0  0  0  0  0
  -21.9170   -4.6991   22.3406 C   0  0  0  0  0  0
  -22.7856  -13.5220   21.1884 C   0  0  0  0  0  0
  -22.1634   -4.2178   21.0984 F   0  0  0  0  0  0
  -21.5636   -3.4521   25.7736 F   0  0  0  0  0  0
  -30.0106  -13.3863   20.4177 N   0  0  0  0  0  0
  -26.2966  -12.9299   20.3250 N   0  0  0  0  0  0
  -25.9298  -11.6467   20.5737 N   0  0  0  0  0  0
  -22.0463  -12.8248   22.0446 N   0  0  0  0  0  0
  -25.4309  -15.1873   20.4104 N   0  0  0  0  0  0
  -31.7830  -14.8287   20.3082 O   0  0  0  0  0  0
  -21.6597   -6.8892   21.4254 O   0  0  0  0  0  0
  -22.3572  -14.5559   20.6748 O   0  0  0  0  0  0
  -24.6247  -31.8632   23.2090 C   0  0  0  0  0  0
  -25.9118  -32.4820   23.8380 C   0  0  1  0  0  0
  -27.2152  -27.3364   20.1041 C   0  0  0  0  0  0
  -25.5954  -33.8625   24.2308 N   0  0  0  0  0  0
  -23.4141  -30.4909   21.5538 C   0  0  2  0  0  0
  -24.8567  -28.9543   20.1167 C   0  0  0  0  0  0
  -22.7453  -29.4655   22.4980 C   0  0  0  0  0  0
  -18.0290  -28.1394   22.8517 C   0  0  0  0  0  0
  -24.1481  -36.7261   23.2625 C   0  0  0  0  0  0
  -25.9564  -30.8012   21.3770 C   0  0  0  0  0  0
  -26.0310  -29.4339   20.7119 C   0  0  0  0  0  0
  -27.2143  -28.6403   20.6882 C   0  0  0  0  0  0
  -26.0107  -26.9070   19.4974 C   0  0  0  0  0  0
  -24.8483  -27.6967   19.5015 C   0  0  0  0  0  0
  -23.6259  -29.8346   20.1684 C   0  0  0  0  0  0
  -25.4110  -36.3088   24.0326 C   0  0  1  0  0  0
  -20.5876  -28.3672   23.1313 C   0  0  2  0  0  0
  -20.6780  -26.9411   22.5418 C   0  0  0  0  0  0
  -19.5742  -26.6401   21.5225 C   0  0  0  0  0  0
  -18.1926  -26.7945   22.1647 C   0  0  0  0  0  0
  -19.1534  -28.8855   23.2903 C   0  0  0  0  0  0
  -18.9452  -30.1471   23.8895 C   0  0  0  0  0  0
  -17.6458  -30.6595   24.0573 C   0  0  0  0  0  0
  -25.9057  -34.9471   23.5093 C   0  0  0  0  0  0
  -16.5351  -29.9093   23.6356 C   0  0  0  0  0  0
  -16.7279  -28.6521   23.0372 C   0  0  0  0  0  0
  -26.4506  -31.6636   25.0748 C   0  0  0  0  0  0
  -25.3705  -31.3844   26.1451 C   0  0  0  0  0  0
  -27.0336  -30.3046   24.6234 C   0  0  0  0  0  0
  -27.6089  -32.4343   25.7523 C   0  0  0  0  0  0
  -27.5582  -37.1779   24.8471 C   0  0  0  0  0  0
  -21.4175  -29.3028   22.3708 N   0  0  0  0  0  0
  -26.4286  -37.3789   23.9428 N   0  0  0  0  0  0
  -24.6843  -31.0696   22.1012 N   0  0  0  0  0  0
  -23.4193  -28.8187   23.3029 O   0  0  0  0  0  0
  -28.3363  -26.4937   20.1422 O   0  0  0  0  0  0
  -26.5604  -34.8913   22.4646 O   0  0  0  0  0  0
  -23.5428  -32.1431   23.7449 O   0  0  0  0  0  0
  -31.6847  -19.4118   19.8248 C   0  0  0  0  0  0
  -29.7133  -20.3066   20.9303 C   0  0  0  0  0  0
  -30.9060  -21.6692   19.3138 C   0  0  0  0  0  0
  -30.6476  -19.2239   20.7562 C   0  0  0  0  0  0
  -31.8271  -20.6140   19.1095 C   0  0  0  0  0  0
  -29.8441  -21.5612   20.2418 C   0  0  0  0  0  0
  -32.2088  -21.0846   25.2313 C   0  0  0  0  0  0
  -33.0870  -21.4016   24.0524 C   0  0  0  0  0  0
  -29.2789  -16.5345   23.0869 C   0  0  0  0  0  0
  -30.2879  -17.3138   23.9299 C   0  0  0  0  0  0
  -30.7411  -17.9516   21.6655 C   0  0  2  0  0  0
  -31.8600  -20.5363   23.8587 C   0  0  0  0  0  0
  -29.6064  -16.8610   21.6163 C   0  0  1  0  0  0
  -33.3076  -21.9781   17.8050 C   0  0  0  0  0  0
  -32.0280  -19.0558   23.5367 C   0  0  0  0  0  0
  -28.0936  -25.0339   20.1386 C   0  0  0  0  0  0
  -29.3083  -24.0241   20.1882 C   0  0  0  0  0  0
  -29.6879  -15.5934   20.8212 N   0  0  0  0  0  0
  -30.7607  -18.4244   23.0771 N   0  3  2  0  0  0
  -32.9013  -20.6897   18.2519 O   0  0  0  0  0  0
  -28.9468  -22.6236   20.4749 O   0  0  0  0  0  0
  -31.4902  -12.5645   19.1185 H   0  0  0  0  0  0
  -30.4176  -11.3911   19.8520 H   0  0  0  0  0  0
  -29.7704  -11.7444   17.4644 H   0  0  0  0  0  0
  -29.6446  -13.4693   17.7229 H   0  0  0  0  0  0
  -27.8555  -11.2890   18.8414 H   0  0  0  0  0  0
  -27.3736  -12.5881   17.7765 H   0  0  0  0  0  0
  -27.6732  -14.2407   19.5242 H   0  0  0  0  0  0
  -28.7081  -11.9812   21.3196 H   0  0  0  0  0  0
  -28.4423  -13.6102   21.8591 H   0  0  0  0  0  0
  -25.2750   -9.5647   22.4801 H   0  0  0  0  0  0
  -23.9986   -7.4596   22.7449 H   0  0  0  0  0  0
  -21.0819   -8.8791   19.8955 H   0  0  0  0  0  0
  -22.3676  -10.9712   19.6192 H   0  0  0  0  0  0
  -21.1973   -7.6157   23.9737 H   0  0  0  0  0  0
  -21.1516   -6.0529   25.9105 H   0  0  0  0  0  0
  -22.0579   -2.7616   23.2817 H   0  0  0  0  0  0
  -22.3988  -11.9885   22.4859 H   0  0  0  0  0  0
  -21.1101  -13.1353   22.2671 H   0  0  0  0  0  0
  -24.6580  -15.8360   20.5197 H   0  0  0  0  0  0
  -26.2553  -15.6215   20.0183 H   0  0  0  0  0  0
  -26.7200  -32.5495   23.1142 H   0  0  0  0  0  0
  -25.0187  -33.9817   25.0515 H   0  0  0  0  0  0
  -22.7063  -31.3096   21.4214 H   0  0  0  0  0  0
  -23.3779  -35.9559   23.3313 H   0  0  0  0  0  0
  -24.3558  -36.8847   22.2030 H   0  0  0  0  0  0
  -23.7195  -37.6449   23.6641 H   0  0  0  0  0  0
  -26.0859  -31.5741   20.6181 H   0  0  0  0  0  0
  -26.8389  -30.8445   22.0045 H   0  0  0  0  0  0
  -28.1201  -29.0153   21.1454 H   0  0  0  0  0  0
  -25.9226  -25.9500   19.0092 H   0  0  0  0  0  0
  -23.9453  -27.3240   19.0375 H   0  0  0  0  0  0
  -23.7415  -30.6144   19.4151 H   0  0  0  0  0  0
  -22.7456  -29.2654   19.8667 H   0  0  0  0  0  0
  -25.1294  -36.1937   25.0824 H   0  0  0  0  0  0
  -20.9985  -28.3240   24.1419 H   0  0  0  0  0  0
  -20.5698  -26.2277   23.3597 H   0  0  0  0  0  0
  -21.6637  -26.7460   22.1175 H   0  0  0  0  0  0
  -19.6882  -25.6307   21.1249 H   0  0  0  0  0  0
  -19.6672  -27.3203   20.6744 H   0  0  0  0  0  0
  -17.4194  -26.6704   21.4061 H   0  0  0  0  0  0
  -18.0331  -26.0076   22.9027 H   0  0  0  0  0  0
  -19.7914  -30.7307   24.2253 H   0  0  0  0  0  0
  -17.4996  -31.6274   24.5152 H   0  0  0  0  0  0
  -15.5348  -30.2990   23.7672 H   0  0  0  0  0  0
  -15.8681  -28.0838   22.7091 H   0  0  0  0  0  0
  -24.5860  -30.7225   25.7787 H   0  0  0  0  0  0
  -24.8897  -32.3035   26.4808 H   0  0  0  0  0  0
  -25.7928  -30.9056   27.0280 H   0  0  0  0  0  0
  -26.2937  -29.6840   24.1162 H   0  0  0  0  0  0
  -27.3917  -29.7289   25.4784 H   0  0  0  0  0  0
  -27.8866  -30.4348   23.9560 H   0  0  0  0  0  0
  -27.2758  -33.3664   26.2109 H   0  0  0  0  0  0
  -28.3905  -32.6858   25.0345 H   0  0  0  0  0  0
  -28.0750  -31.8442   26.5426 H   0  0  0  0  0  0
  -28.2604  -38.0074   24.7542 H   0  0  0  0  0  0
  -28.1069  -36.2606   24.6287 H   0  0  0  0  0  0
  -27.2292  -37.1405   25.8869 H   0  0  0  0  0  0
  -20.9353  -29.8721   21.6894 H   0  0  0  0  0  0
  -26.0167  -38.2858   24.1462 H   0  0  0  0  0  0
  -32.4330  -18.6405   19.6892 H   0  0  0  0  0  0
  -28.9125  -20.2050   21.6470 H   0  0  0  0  0  0
  -31.0188  -22.5615   18.7263 H   0  0  0  0  0  0
  -31.6002  -21.8934   25.6337 H   0  0  0  0  0  0
  -32.6116  -20.4040   25.9786 H   0  0  0  0  0  0
  -34.0636  -20.9236   24.0280 H   0  0  0  0  0  0
  -33.0577  -22.4211   23.6707 H   0  0  0  0  0  0
  -28.2630  -16.8564   23.3196 H   0  0  0  0  0  0
  -29.3284  -15.4703   23.3197 H   0  0  0  0  0  0
  -31.1186  -16.6541   24.1877 H   0  0  0  0  0  0
  -29.8589  -17.6692   24.8700 H   0  0  0  0  0  0
  -31.6862  -17.4351   21.4857 H   0  0  0  0  0  0
  -31.0557  -21.0324   23.3188 H   0  0  0  0  0  0
  -28.7231  -17.3694   21.2242 H   0  0  0  0  0  0
  -32.6295  -22.3859   17.0540 H   0  0  0  0  0  0
  -34.2970  -21.9032   17.3513 H   0  0  0  0  0  0
  -33.3793  -22.6902   18.6287 H   0  0  0  0  0  0
  -32.4095  -18.5530   24.4273 H   0  0  0  0  0  0
  -32.8058  -18.9546   22.7786 H   0  0  0  0  0  0
  -27.4352  -24.8129   20.9801 H   0  0  0  0  0  0
  -27.5565  -24.7454   19.2381 H   0  0  0  0  0  0
  -30.0208  -24.3489   20.9459 H   0  0  0  0  0  0
  -29.8191  -24.1242   19.2337 H   0  0  0  0  0  0
  -28.7641  -15.2249   20.6558 H   0  0  0  0  0  0
  -30.0486  -19.1349   23.1353 H   0  0  0  0  0  0
  1 25  1  0  0  0
  1 30  2  0  0  0
  1 88  1  0  0  0
  2  3  1  0  0  0
  2 25  1  0  0  0
  2 92  1  0  0  0
  2 93  1  0  0  0
  3  4  1  0  0  0
  3 94  1  0  0  0
  3 95  1  0  0  0
  4  5  1  0  0  0
  4 96  1  0  0  0
  4 97  1  0  0  0
  5  6  1  0  0  0
  5 26  1  0  0  0
  5 98  1  0  0  0
  6 25  1  0  0  0
  6 99  1  0  0  0
  6100  1  0  0  0
  7  8  2  0  0  0
  7 26  1  0  0  0
  7 29  1  0  0  0
  8  9  1  0  0  0
  8 22  1  0  0  0
  9 10  1  0  0  0
  9 27  2  0  0  0
 10 11  2  0  0  0
 10 15  1  0  0  0
 11 12  1  0  0  0
 11101  1  0  0  0
 12 13  2  0  0  0
 12102  1  0  0  0
 13 14  1  0  0  0
 13 31  1  0  0  0
 14 15  2  0  0  0
 14103  1  0  0  0
 15104  1  0  0  0
 16 17  2  0  0  0
 16 21  1  0  0  0
 16 31  1  0  0  0
 17 18  1  0  0  0
 17105  1  0  0  0
 18 19  2  0  0  0
 18106  1  0  0  0
 19 20  1  0  0  0
 19 24  1  0  0  0
 20 21  2  0  0  0
 20107  1  0  0  0
 21 23  1  0  0  0
 22 28  1  0  0  0
 22 32  2  0  0  0
 26 27  1  0  0  0
 28108  1  0  0  0
 28109  1  0  0  0
 29110  1  0  0  0
 29111  1  0  0  0
 33 34  1  0  0  0
 33 66  1  0  0  0
 33 70  2  0  0  0
 34 36  1  0  0  0
 34 59  1  0  0  0
 34112  1  0  0  0
 35 44  2  0  0  0
 35 45  1  0  0  0
 35 68  1  0  0  0
 36 56  1  0  0  0
 36113  1  0  0  0
 37 39  1  0  0  0
 37 47  1  0  0  0
 37 66  1  0  0  0
 37114  1  0  0  0
 38 43  2  0  0  0
 38 46  1  0  0  0
 38 47  1  0  0  0
 39 64  1  0  0  0
 39 67  2  0  0  0
 40 52  1  0  0  0
 40 53  2  0  0  0
 40 58  1  0  0  0
 41115  1  0  0  0
 41116  1  0  0  0
 41117  1  0  0  0
 41 48  1  0  0  0
 42 43  1  0  0  0
 42 66  1  0  0  0
 42118  1  0  0  0
 42119  1  0  0  0
 43 44  1  0  0  0
 44120  1  0  0  0
 45 46  2  0  0  0
 45121  1  0  0  0
 46122  1  0  0  0
 47123  1  0  0  0
 47124  1  0  0  0
 48 56  1  0  0  0
 48 65  1  0  0  0
 48125  1  0  0  0
 49 50  1  0  0  0
 49 53  1  0  0  0
 49 64  1  0  0  0
 49126  1  0  0  0
 50 51  1  0  0  0
 50127  1  0  0  0
 50128  1  0  0  0
 51 52  1  0  0  0
 51129  1  0  0  0
 51130  1  0  0  0
 52131  1  0  0  0
 52132  1  0  0  0
 53 54  1  0  0  0
 54 55  2  0  0  0
 54133  1  0  0  0
 55 57  1  0  0  0
 55134  1  0  0  0
 56 69  2  0  0  0
 57 58  2  0  0  0
 57135  1  0  0  0
 58136  1  0  0  0
 59 60  1  0  0  0
 59 61  1  0  0  0
 59 62  1  0  0  0
 60137  1  0  0  0
 60138  1  0  0  0
 60139  1  0  0  0
 61140  1  0  0  0
 61141  1  0  0  0
 61142  1  0  0  0
 62143  1  0  0  0
 62144  1  0  0  0
 62145  1  0  0  0
 63 65  1  0  0  0
 63146  1  0  0  0
 63147  1  0  0  0
 63148  1  0  0  0
 64149  1  0  0  0
 65150  1  0  0  0
 68 86  1  0  0  0
 71 74  2  0  0  0
 71 75  1  0  0  0
 71151  1  0  0  0
 72 74  1  0  0  0
 72 76  2  0  0  0
 72152  1  0  0  0
 73 75  2  0  0  0
 73 76  1  0  0  0
 73153  1  0  0  0
 74 81  1  0  0  0
 75 90  1  0  0  0
 76 91  1  0  0  0
 77 78  1  0  0  0
 77 82  1  0  0  0
 77154  1  0  0  0
 77155  1  0  0  0
 78 82  1  0  0  0
 78156  1  0  0  0
 78157  1  0  0  0
 79 80  1  0  0  0
 79 83  1  0  0  0
 79158  1  0  0  0
 79159  1  0  0  0
 80 89  1  0  0  0
 80160  1  0  0  0
 80161  1  0  0  0
 81 83  1  0  0  0
 81 89  1  0  0  0
 81162  1  0  0  0
 82 85  1  0  0  0
 82163  1  0  0  0
 83 88  1  0  0  0
 83164  1  0  0  0
 84 90  1  0  0  0
 84165  1  0  0  0
 84166  1  0  0  0
 84167  1  0  0  0
 85168  1  0  0  0
 85169  1  0  0  0
 85 89  1  0  0  0
 86 87  1  0  0  0
 86170  1  0  0  0
 86171  1  0  0  0
 87 91  1  0  0  0
 87172  1  0  0  0
 87173  1  0  0  0
 88174  1  0  0  0
 89175  1  0  0  0
M  CHG  1  89   1
M  ISO  4   1 100  68 101  86 101  88 100
M  END
> <chiral flag>
0

> <version>
0

> <s_m_source_file>
/data/baiqing/PycharmProjects/Reinvent-master-3.2/result/LINK_invent/BTK/process_docking_weight1_custom_sum_contain_oxygen_bond_distance_aromatic_linkinvent_7_9_3/rearranged_h_0147.sdf

> <i_m_source_file_index>
57

> <r_mmod_Potential_Energy-OPLS-2005>
72.734619140625

> <r_mmod_Stretch_Energy-OPLS-2005>
75.7455368041992

> <r_mmod_Bend_Energy-OPLS-2005>
196.595397949219

> <r_mmod_Torsional_Energy-OPLS-2005>
357.759124755859

> <r_mmod_Improper_Torsional_Energy-OPLS-2005>
7.40217733383179

> <r_mmod_Van_der_Waal_Energy-OPLS-2005>
146.32649230957

> <r_mmod_Electrostatic_Energy-OPLS-2005>
-316.610321044922

> <r_mmod_Solvation_Energy-OPLS-2005>
-442.13037109375

> <b_mmod_Minimization_Converged-OPLS-2005>
0

> <r_mmod_RMS_Derivative-OPLS-2005>
5.24541234970093

$$$$
57
                    3D
 Structure written by MMmdl.
160169  0  0  1  0            999 V2000
  -30.5811  -14.6997   20.5010 C   0  0  0  0  0  0
  -30.4463  -12.4291   19.4647 C   0  0  0  0  0  0
  -29.5167  -12.5264   18.2331 C   0  0  0  0  0  0
  -28.0380  -12.3556   18.6378 C   0  0  0  0  0  0
  -27.6543  -13.2213   19.8676 C   0  0  2  0  0  0
  -28.6972  -13.0769   20.9991 C   0  0  0  0  0  0
  -25.2561  -13.8181   20.5697 C   0  0  0  0  0  0
  -24.1827  -13.0439   20.9194 C   0  0  0  0  0  0
  -24.6397  -11.6910   20.8732 C   0  0  0  0  0  0
  -23.9073  -10.4291   21.0401 C   0  0  0  0  0  0
  -24.3622   -9.4208   21.9181 C   0  0  0  0  0  0
  -23.6293   -8.2247   22.0751 C   0  0  0  0  0  0
  -22.4275   -8.0281   21.3544 C   0  0  0  0  0  0
  -21.9914   -9.0252   20.4645 C   0  0  0  0  0  0
  -22.7244  -10.2131   20.3053 C   0  0  0  0  0  0
  -21.6855   -6.0739   22.5278 C   0  0  0  0  0  0
  -21.4013   -6.5639   23.8212 C   0  0  0  0  0  0
  -21.3664   -5.6791   24.9173 C   0  0  0  0  0  0
  -21.6051   -4.3055   24.7225 C   0  0  0  0  0  0
  -21.8819   -3.8148   23.4344 C   0  0  0  0  0  0
  -21.9192   -4.6967   22.3402 C   0  0  0  0  0  0
  -22.7848  -13.5232   21.1857 C   0  0  0  0  0  0
  -22.1659   -4.2155   21.0980 F   0  0  0  0  0  0
  -21.5635   -3.4541   25.7739 F   0  0  0  0  0  0
  -30.0090  -13.4491   20.4429 N   0  0  0  0  0  0
  -26.2991  -12.9361   20.3329 N   0  0  0  0  0  0
  -25.9327  -11.6512   20.5748 N   0  0  0  0  0  0
  -22.0486  -12.8226   22.0409 N   0  0  0  0  0  0
  -25.4282  -15.1906   20.4150 N   0  0  0  0  0  0
  -31.7224  -14.8927   20.0706 O   0  0  0  0  0  0
  -21.6634   -6.8880   21.4237 O   0  0  0  0  0  0
  -22.3535  -14.5542   20.6703 O   0  0  0  0  0  0
  -24.6288  -31.8576   23.1988 C   0  0  0  0  0  0
  -25.9131  -32.4759   23.8327 C   0  0  1  0  0  0
  -27.2231  -27.2840   20.1278 C   0  0  0  0  0  0
  -25.5940  -33.8559   24.2261 N   0  0  0  0  0  0
  -23.4238  -30.4793   21.5415 C   0  0  2  0  0  0
  -24.8717  -28.9284   20.1102 C   0  0  0  0  0  0
  -22.7487  -29.4614   22.4920 C   0  0  0  0  0  0
  -18.0288  -28.1383   22.8482 C   0  0  0  0  0  0
  -24.1497  -36.7280   23.2635 C   0  0  0  0  0  0
  -25.9671  -30.7769   21.3758 C   0  0  0  0  0  0
  -26.0415  -29.4010   20.7186 C   0  0  0  0  0  0
  -27.2193  -28.5908   20.7167 C   0  0  0  0  0  0
  -26.0357  -26.8815   19.4764 C   0  0  0  0  0  0
  -24.8729  -27.6760   19.4784 C   0  0  0  0  0  0
  -23.6403  -29.8110   20.1580 C   0  0  0  0  0  0
  -25.4125  -36.3068   24.0321 C   0  0  1  0  0  0
  -20.5886  -28.3691   23.1263 C   0  0  2  0  0  0
  -20.6776  -26.9409   22.5399 C   0  0  0  0  0  0
  -19.5757  -26.6379   21.5200 C   0  0  0  0  0  0
  -18.1934  -26.7927   22.1612 C   0  0  0  0  0  0
  -19.1540  -28.8852   23.2868 C   0  0  0  0  0  0
  -18.9468  -30.1452   23.8887 C   0  0  0  0  0  0
  -17.6470  -30.6585   24.0558 C   0  0  0  0  0  0
  -25.9066  -34.9437   23.5093 C   0  0  0  0  0  0
  -16.5359  -29.9086   23.6328 C   0  0  0  0  0  0
  -16.7275  -28.6498   23.0358 C   0  0  0  0  0  0
  -26.4510  -31.6571   25.0703 C   0  0  0  0  0  0
  -25.3739  -31.3707   26.1422 C   0  0  0  0  0  0
  -27.0354  -30.2989   24.6173 C   0  0  0  0  0  0
  -27.6060  -32.4306   25.7486 C   0  0  0  0  0  0
  -27.5586  -37.1792   24.8461 C   0  0  0  0  0  0
  -21.4198  -29.3044   22.3657 N   0  0  0  0  0  0
  -26.4298  -37.3771   23.9409 N   0  0  0  0  0  0
  -24.6919  -31.0554   22.0952 N   0  0  0  0  0  0
  -23.4188  -28.8159   23.3024 O   0  0  0  0  0  0
  -28.3325  -26.4131   20.1860 O   0  0  0  0  0  0
  -26.5632  -34.8913   22.4655 O   0  0  0  0  0  0
  -23.5446  -32.1388   23.7301 O   0  0  0  0  0  0
  -28.6043  -19.3020   21.5920 C   0  0  0  0  0  0
  -30.2426  -17.9644   19.7742 C   0  0  0  0  0  0
  -29.0783  -20.0758   20.5004 C   0  0  0  0  0  0
  -28.8796  -17.9085   21.7511 C   0  0  0  0  0  0
  -29.9349  -19.3646   19.5997 C   0  0  0  0  0  0
  -29.6924  -17.1802   20.8321 C   0  0  0  0  0  0
  -28.8563  -24.0662   21.2809 C   0  0  0  0  0  0
  -28.8877  -24.0303   19.1989 C   0  0  0  0  0  0
  -29.2008  -22.9144   20.2648 C   0  0  2  0  0  0
  -28.1177  -24.9276   20.2120 C   0  0  2  0  0  0
  -28.2280  -17.1814   22.9172 C   0  0  0  0  0  0
  -30.4836  -20.0865   18.3813 C   0  0  0  0  0  0
  -28.4325  -21.5105   20.2285 C   0  0  0  0  0  0
  -29.7740  -15.7092   20.9786 N   0  0  0  0  0  0
  -31.4863  -12.5691   19.1663 H   0  0  0  0  0  0
  -30.3954  -11.4331   19.9076 H   0  0  0  0  0  0
  -29.7925  -11.7753   17.4920 H   0  0  0  0  0  0
  -29.6533  -13.4954   17.7497 H   0  0  0  0  0  0
  -27.8769  -11.3012   18.8636 H   0  0  0  0  0  0
  -27.3869  -12.5886   17.7942 H   0  0  0  0  0  0
  -27.6701  -14.2586   19.5318 H   0  0  0  0  0  0
  -28.7214  -12.0498   21.3669 H   0  0  0  0  0  0
  -28.4280  -13.6907   21.8603 H   0  0  0  0  0  0
  -25.2765   -9.5693   22.4757 H   0  0  0  0  0  0
  -24.0010   -7.4646   22.7475 H   0  0  0  0  0  0
  -21.0847   -8.8769   19.8949 H   0  0  0  0  0  0
  -22.3699  -10.9670   19.6164 H   0  0  0  0  0  0
  -21.1994   -7.6144   23.9723 H   0  0  0  0  0  0
  -21.1493   -6.0517   25.9079 H   0  0  0  0  0  0
  -22.0595   -2.7612   23.2844 H   0  0  0  0  0  0
  -22.4072  -11.9877   22.4802 H   0  0  0  0  0  0
  -21.1104  -13.1261   22.2592 H   0  0  0  0  0  0
  -24.6655  -15.8471   20.5383 H   0  0  0  0  0  0
  -26.2811  -15.6325   20.0954 H   0  0  0  0  0  0
  -26.7193  -32.5422   23.1067 H   0  0  0  0  0  0
  -25.0098  -33.9706   25.0410 H   0  0  0  0  0  0
  -22.7189  -31.3003   21.3948 H   0  0  0  0  0  0
  -23.3773  -35.9597   23.3273 H   0  0  0  0  0  0
  -24.3594  -36.8930   22.2057 H   0  0  0  0  0  0
  -23.7235  -37.6462   23.6680 H   0  0  0  0  0  0
  -26.1041  -31.5390   20.6073 H   0  0  0  0  0  0
  -26.8452  -30.8244   22.0084 H   0  0  0  0  0  0
  -28.1143  -28.9481   21.2059 H   0  0  0  0  0  0
  -25.9815  -25.9348   18.9592 H   0  0  0  0  0  0
  -23.9801  -27.3107   18.9896 H   0  0  0  0  0  0
  -23.7610  -30.5848   19.3988 H   0  0  0  0  0  0
  -22.7604  -29.2400   19.8561 H   0  0  0  0  0  0
  -25.1313  -36.1910   25.0814 H   0  0  0  0  0  0
  -20.9978  -28.3269   24.1387 H   0  0  0  0  0  0
  -20.5662  -26.2309   23.3608 H   0  0  0  0  0  0
  -21.6650  -26.7436   22.1201 H   0  0  0  0  0  0
  -19.6923  -25.6285   21.1243 H   0  0  0  0  0  0
  -19.6699  -27.3178   20.6718 H   0  0  0  0  0  0
  -17.4205  -26.6667   21.4012 H   0  0  0  0  0  0
  -18.0341  -26.0064   22.9003 H   0  0  0  0  0  0
  -19.7948  -30.7270   24.2250 H   0  0  0  0  0  0
  -17.5027  -31.6269   24.5160 H   0  0  0  0  0  0
  -15.5360  -30.2992   23.7656 H   0  0  0  0  0  0
  -15.8670  -28.0815   22.7091 H   0  0  0  0  0  0
  -24.5915  -30.7062   25.7739 H   0  0  0  0  0  0
  -24.8938  -32.2872   26.4858 H   0  0  0  0  0  0
  -25.8062  -30.8866   27.0189 H   0  0  0  0  0  0
  -26.2921  -29.6725   24.1223 H   0  0  0  0  0  0
  -27.4070  -29.7264   25.4683 H   0  0  0  0  0  0
  -27.8787  -30.4268   23.9382 H   0  0  0  0  0  0
  -27.2665  -33.3608   26.2057 H   0  0  0  0  0  0
  -28.3881  -32.6860   25.0322 H   0  0  0  0  0  0
  -28.0712  -31.8429   26.5414 H   0  0  0  0  0  0
  -28.2580  -38.0113   24.7537 H   0  0  0  0  0  0
  -28.1109  -36.2641   24.6259 H   0  0  0  0  0  0
  -27.2299  -37.1396   25.8862 H   0  0  0  0  0  0
  -20.9379  -29.8767   21.6864 H   0  0  0  0  0  0
  -26.0173  -38.2837   24.1430 H   0  0  0  0  0  0
  -27.9326  -19.7743   22.2961 H   0  0  0  0  0  0
  -30.8608  -17.4700   19.0369 H   0  0  0  0  0  0
  -29.7518  -24.5627   21.6582 H   0  0  0  0  0  0
  -28.2217  -23.7549   22.1112 H   0  0  0  0  0  0
  -28.2732  -23.6916   18.3644 H   0  0  0  0  0  0
  -29.7926  -24.5143   18.8281 H   0  0  0  0  0  0
  -30.2775  -22.7428   20.2641 H   0  0  0  0  0  0
  -27.0677  -24.6410   20.2486 H   0  0  0  0  0  0
  -27.7709  -17.8775   23.6214 H   0  0  0  0  0  0
  -28.9637  -16.5957   23.4690 H   0  0  0  0  0  0
  -27.4477  -16.5087   22.5586 H   0  0  0  0  0  0
  -31.0454  -19.4133   17.7330 H   0  0  0  0  0  0
  -31.1508  -20.8944   18.6838 H   0  0  0  0  0  0
  -29.6745  -20.5144   17.7884 H   0  0  0  0  0  0
  -27.5732  -21.5907   20.8950 H   0  0  0  0  0  0
  -27.9684  -21.4171   19.2474 H   0  0  0  0  0  0
  -28.9756  -15.3236   21.4582 H   0  0  0  0  0  0
  1 25  1  0  0  0
  1 30  2  0  0  0
  1 84  1  0  0  0
  2  3  1  0  0  0
  2 25  1  0  0  0
  2 85  1  0  0  0
  2 86  1  0  0  0
  3  4  1  0  0  0
  3 87  1  0  0  0
  3 88  1  0  0  0
  4  5  1  0  0  0
  4 89  1  0  0  0
  4 90  1  0  0  0
  5  6  1  0  0  0
  5 26  1  0  0  0
  5 91  1  0  0  0
  6 25  1  0  0  0
  6 92  1  0  0  0
  6 93  1  0  0  0
  7  8  2  0  0  0
  7 26  1  0  0  0
  7 29  1  0  0  0
  8  9  1  0  0  0
  8 22  1  0  0  0
  9 10  1  0  0  0
  9 27  2  0  0  0
 10 11  2  0  0  0
 10 15  1  0  0  0
 11 12  1  0  0  0
 11 94  1  0  0  0
 12 13  2  0  0  0
 12 95  1  0  0  0
 13 14  1  0  0  0
 13 31  1  0  0  0
 14 15  2  0  0  0
 14 96  1  0  0  0
 15 97  1  0  0  0
 16 17  2  0  0  0
 16 21  1  0  0  0
 16 31  1  0  0  0
 17 18  1  0  0  0
 17 98  1  0  0  0
 18 19  2  0  0  0
 18 99  1  0  0  0
 19 20  1  0  0  0
 19 24  1  0  0  0
 20 21  2  0  0  0
 20100  1  0  0  0
 21 23  1  0  0  0
 22 28  1  0  0  0
 22 32  2  0  0  0
 26 27  1  0  0  0
 28101  1  0  0  0
 28102  1  0  0  0
 29103  1  0  0  0
 29104  1  0  0  0
 33 34  1  0  0  0
 33 66  1  0  0  0
 33 70  2  0  0  0
 34 36  1  0  0  0
 34 59  1  0  0  0
 34105  1  0  0  0
 35 44  2  0  0  0
 35 45  1  0  0  0
 35 68  1  0  0  0
 36 56  1  0  0  0
 36106  1  0  0  0
 37 39  1  0  0  0
 37 47  1  0  0  0
 37 66  1  0  0  0
 37107  1  0  0  0
 38 43  2  0  0  0
 38 46  1  0  0  0
 38 47  1  0  0  0
 39 64  1  0  0  0
 39 67  2  0  0  0
 40 52  1  0  0  0
 40 53  2  0  0  0
 40 58  1  0  0  0
 41108  1  0  0  0
 41109  1  0  0  0
 41110  1  0  0  0
 41 48  1  0  0  0
 42 43  1  0  0  0
 42 66  1  0  0  0
 42111  1  0  0  0
 42112  1  0  0  0
 43 44  1  0  0  0
 44113  1  0  0  0
 45 46  2  0  0  0
 45114  1  0  0  0
 46115  1  0  0  0
 47116  1  0  0  0
 47117  1  0  0  0
 48 56  1  0  0  0
 48 65  1  0  0  0
 48118  1  0  0  0
 49 50  1  0  0  0
 49 53  1  0  0  0
 49 64  1  0  0  0
 49119  1  0  0  0
 50 51  1  0  0  0
 50120  1  0  0  0
 50121  1  0  0  0
 51 52  1  0  0  0
 51122  1  0  0  0
 51123  1  0  0  0
 52124  1  0  0  0
 52125  1  0  0  0
 53 54  1  0  0  0
 54 55  2  0  0  0
 54126  1  0  0  0
 55 57  1  0  0  0
 55127  1  0  0  0
 56 69  2  0  0  0
 57 58  2  0  0  0
 57128  1  0  0  0
 58129  1  0  0  0
 59 60  1  0  0  0
 59 61  1  0  0  0
 59 62  1  0  0  0
 60130  1  0  0  0
 60131  1  0  0  0
 60132  1  0  0  0
 61133  1  0  0  0
 61134  1  0  0  0
 61135  1  0  0  0
 62136  1  0  0  0
 62137  1  0  0  0
 62138  1  0  0  0
 63 65  1  0  0  0
 63139  1  0  0  0
 63140  1  0  0  0
 63141  1  0  0  0
 64142  1  0  0  0
 65143  1  0  0  0
 68 80  1  0  0  0
 71 73  2  0  0  0
 71 74  1  0  0  0
 71144  1  0  0  0
 72 75  2  0  0  0
 72 76  1  0  0  0
 72145  1  0  0  0
 73 75  1  0  0  0
 73 83  1  0  0  0
 74 76  2  0  0  0
 74 81  1  0  0  0
 75 82  1  0  0  0
 76 84  1  0  0  0
 77 79  1  0  0  0
 77 80  1  0  0  0
 77146  1  0  0  0
 77147  1  0  0  0
 78 79  1  0  0  0
 78 80  1  0  0  0
 78148  1  0  0  0
 78149  1  0  0  0
 79 83  1  0  0  0
 79150  1  0  0  0
 80151  1  0  0  0
 81152  1  0  0  0
 81153  1  0  0  0
 81154  1  0  0  0
 82155  1  0  0  0
 82156  1  0  0  0
 82157  1  0  0  0
 83158  1  0  0  0
 83159  1  0  0  0
 84160  1  0  0  0
M  ISO  4   1 100  68 101  80 101  84 100
M  END
> <chiral flag>
0

> <version>
0

> <s_m_source_file>
/data/baiqing/PycharmProjects/Reinvent-master-3.2/result/LINK_invent/BTK/process_docking_weight1_custom_sum_contain_oxygen_bond_distance_aromatic_linkinvent_7_9_3/rearranged_h_0147.sdf

> <i_m_source_file_index>
58

> <r_mmod_Potential_Energy-OPLS-2005>
158.612518310547

> <r_mmod_Stretch_Energy-OPLS-2005>
100.08918762207

> <r_mmod_Bend_Energy-OPLS-2005>
182.48713684082

> <r_mmod_Torsional_Energy-OPLS-2005>
257.837432861328

> <r_mmod_Improper_Torsional_Energy-OPLS-2005>
5.01262807846069

> <r_mmod_Van_der_Waal_Energy-OPLS-2005>
136.327713012695

> <r_mmod_Electrostatic_Energy-OPLS-2005>
-387.463989257812

> <r_mmod_Solvation_Energy-OPLS-2005>
-203.479904174805

> <b_mmod_Minimization_Converged-OPLS-2005>
0

> <r_mmod_RMS_Derivative-OPLS-2005>
1.17052638530731

$$$$
58
                    3D
 Structure written by MMmdl.
160169  0  0  1  0            999 V2000
  -30.6871  -14.5968   20.5366 C   0  0  0  0  0  0
  -30.4223  -12.3807   19.4442 C   0  0  0  0  0  0
  -29.4950  -12.4955   18.2170 C   0  0  0  0  0  0
  -28.0229  -12.3337   18.6406 C   0  0  0  0  0  0
  -27.6496  -13.2189   19.8594 C   0  0  2  0  0  0
  -28.6951  -13.0940   20.9896 C   0  0  0  0  0  0
  -25.2542  -13.8180   20.5690 C   0  0  0  0  0  0
  -24.1814  -13.0439   20.9205 C   0  0  0  0  0  0
  -24.6384  -11.6909   20.8750 C   0  0  0  0  0  0
  -23.9057  -10.4297   21.0408 C   0  0  0  0  0  0
  -24.3609   -9.4211   21.9192 C   0  0  0  0  0  0
  -23.6288   -8.2243   22.0758 C   0  0  0  0  0  0
  -22.4273   -8.0277   21.3542 C   0  0  0  0  0  0
  -21.9907   -9.0253   20.4642 C   0  0  0  0  0  0
  -22.7234  -10.2134   20.3058 C   0  0  0  0  0  0
  -21.6852   -6.0739   22.5281 C   0  0  0  0  0  0
  -21.4012   -6.5639   23.8214 C   0  0  0  0  0  0
  -21.3654   -5.6793   24.9170 C   0  0  0  0  0  0
  -21.6046   -4.3055   24.7227 C   0  0  0  0  0  0
  -21.8818   -3.8149   23.4346 C   0  0  0  0  0  0
  -21.9190   -4.6964   22.3403 C   0  0  0  0  0  0
  -22.7838  -13.5231   21.1866 C   0  0  0  0  0  0
  -22.1663   -4.2150   21.0982 F   0  0  0  0  0  0
  -21.5630   -3.4542   25.7742 F   0  0  0  0  0  0
  -30.0094  -13.4143   20.4142 N   0  0  0  0  0  0
  -26.2971  -12.9364   20.3324 N   0  0  0  0  0  0
  -25.9312  -11.6518   20.5767 N   0  0  0  0  0  0
  -22.0483  -12.8214   22.0415 N   0  0  0  0  0  0
  -25.4255  -15.1898   20.4101 N   0  0  0  0  0  0
  -31.8509  -14.7073   20.1460 O   0  0  0  0  0  0
  -21.6635   -6.8878   21.4236 O   0  0  0  0  0  0
  -22.3535  -14.5541   20.6725 O   0  0  0  0  0  0
  -24.6253  -31.8618   23.2057 C   0  0  0  0  0  0
  -25.9121  -32.4772   23.8373 C   0  0  1  0  0  0
  -27.2216  -27.3410   20.1101 C   0  0  0  0  0  0
  -25.5934  -33.8570   24.2297 N   0  0  0  0  0  0
  -23.4159  -30.4894   21.5488 C   0  0  2  0  0  0
  -24.8621  -28.9527   20.1105 C   0  0  0  0  0  0
  -22.7458  -29.4638   22.4941 C   0  0  0  0  0  0
  -18.0281  -28.1370   22.8490 C   0  0  0  0  0  0
  -24.1475  -36.7290   23.2636 C   0  0  0  0  0  0
  -25.9573  -30.7984   21.3766 C   0  0  0  0  0  0
  -26.0315  -29.4307   20.7145 C   0  0  0  0  0  0
  -27.2152  -28.6366   20.7060 C   0  0  0  0  0  0
  -26.0270  -26.9175   19.4763 C   0  0  0  0  0  0
  -24.8608  -27.7002   19.4837 C   0  0  0  0  0  0
  -23.6284  -29.8301   20.1621 C   0  0  0  0  0  0
  -25.4102  -36.3076   24.0331 C   0  0  1  0  0  0
  -20.5883  -28.3678   23.1269 C   0  0  2  0  0  0
  -20.6769  -26.9397   22.5394 C   0  0  0  0  0  0
  -19.5738  -26.6381   21.5195 C   0  0  0  0  0  0
  -18.1916  -26.7921   22.1612 C   0  0  0  0  0  0
  -19.1539  -28.8836   23.2877 C   0  0  0  0  0  0
  -18.9464  -30.1439   23.8884 C   0  0  0  0  0  0
  -17.6467  -30.6576   24.0558 C   0  0  0  0  0  0
  -25.9044  -34.9444   23.5112 C   0  0  0  0  0  0
  -16.5362  -29.9079   23.6329 C   0  0  0  0  0  0
  -16.7273  -28.6488   23.0362 C   0  0  0  0  0  0
  -26.4512  -31.6580   25.0737 C   0  0  0  0  0  0
  -25.3753  -31.3711   26.1463 C   0  0  0  0  0  0
  -27.0385  -30.3003   24.6206 C   0  0  0  0  0  0
  -27.6059  -32.4350   25.7505 C   0  0  0  0  0  0
  -27.5574  -37.1792   24.8466 C   0  0  0  0  0  0
  -21.4176  -29.3045   22.3669 N   0  0  0  0  0  0
  -26.4284  -37.3777   23.9414 N   0  0  0  0  0  0
  -24.6846  -31.0656   22.0998 N   0  0  0  0  0  0
  -23.4185  -28.8171   23.3009 O   0  0  0  0  0  0
  -28.3369  -26.4926   20.1732 O   0  0  0  0  0  0
  -26.5606  -34.8913   22.4677 O   0  0  0  0  0  0
  -23.5424  -32.1425   23.7393 O   0  0  0  0  0  0
  -29.2697  -19.2122   21.7033 C   0  0  0  0  0  0
  -30.5736  -18.9292   19.7054 C   0  0  0  0  0  0
  -29.4969  -21.1416   20.1425 C   0  0  0  0  0  0
  -30.0845  -18.3686   20.9046 C   0  0  0  0  0  0
  -28.9770  -20.5625   21.3369 C   0  0  0  0  0  0
  -30.2932  -20.2749   19.3310 C   0  0  0  0  0  0
  -30.2481  -23.6099   19.4442 C   0  0  0  0  0  0
  -29.1548  -22.5822   19.6479 C   0  0  2  0  0  0
  -29.1241  -23.9647   20.3839 C   0  0  2  0  0  0
  -28.1000  -21.3921   22.2581 C   0  0  0  0  0  0
  -30.8798  -20.7768   18.0231 C   0  0  0  0  0  0
  -30.6025  -16.9862   21.4218 C   0  0  0  0  0  0
  -28.0772  -25.0529   19.9923 C   0  0  0  0  0  0
  -30.0004  -15.6887   20.9817 N   0  0  0  0  0  0
  -31.4641  -12.4829   19.1365 H   0  0  0  0  0  0
  -30.3418  -11.3903   19.8941 H   0  0  0  0  0  0
  -29.7538  -11.7372   17.4761 H   0  0  0  0  0  0
  -29.6350  -13.4622   17.7302 H   0  0  0  0  0  0
  -27.8729  -11.2836   18.8939 H   0  0  0  0  0  0
  -27.3578  -12.5403   17.8012 H   0  0  0  0  0  0
  -27.6639  -14.2495   19.5057 H   0  0  0  0  0  0
  -28.7011  -12.0827   21.3989 H   0  0  0  0  0  0
  -28.4444  -13.7524   21.8229 H   0  0  0  0  0  0
  -25.2742   -9.5692   22.4780 H   0  0  0  0  0  0
  -24.0001   -7.4635   22.7488 H   0  0  0  0  0  0
  -21.0842   -8.8761   19.8947 H   0  0  0  0  0  0
  -22.3683  -10.9673   19.6170 H   0  0  0  0  0  0
  -21.2002   -7.6145   23.9710 H   0  0  0  0  0  0
  -21.1481   -6.0528   25.9075 H   0  0  0  0  0  0
  -22.0601   -2.7616   23.2851 H   0  0  0  0  0  0
  -22.4089  -11.9861   22.4778 H   0  0  0  0  0  0
  -21.1103  -13.1247   22.2631 H   0  0  0  0  0  0
  -24.6571  -15.8441   20.5088 H   0  0  0  0  0  0
  -26.2776  -15.6274   20.0825 H   0  0  0  0  0  0
  -26.7185  -32.5462   23.1120 H   0  0  0  0  0  0
  -25.0084  -33.9702   25.0443 H   0  0  0  0  0  0
  -22.7098  -31.3098   21.4094 H   0  0  0  0  0  0
  -23.3728  -35.9627   23.3318 H   0  0  0  0  0  0
  -24.3550  -36.8910   22.2045 H   0  0  0  0  0  0
  -23.7256  -37.6507   23.6660 H   0  0  0  0  0  0
  -26.0931  -31.5632   20.6107 H   0  0  0  0  0  0
  -26.8357  -30.8429   22.0090 H   0  0  0  0  0  0
  -28.1145  -28.9973   21.1869 H   0  0  0  0  0  0
  -25.9518  -25.9655   18.9753 H   0  0  0  0  0  0
  -23.9671  -27.3277   19.0034 H   0  0  0  0  0  0
  -23.7441  -30.6094   19.4074 H   0  0  0  0  0  0
  -22.7486  -29.2606   19.8596 H   0  0  0  0  0  0
  -25.1282  -36.1919   25.0821 H   0  0  0  0  0  0
  -20.9977  -28.3262   24.1390 H   0  0  0  0  0  0
  -20.5662  -26.2283   23.3598 H   0  0  0  0  0  0
  -21.6638  -26.7414   22.1204 H   0  0  0  0  0  0
  -19.6898  -25.6294   21.1222 H   0  0  0  0  0  0
  -19.6681  -27.3182   20.6720 H   0  0  0  0  0  0
  -17.4193  -26.6674   21.4008 H   0  0  0  0  0  0
  -18.0314  -26.0038   22.8983 H   0  0  0  0  0  0
  -19.7940  -30.7247   24.2261 H   0  0  0  0  0  0
  -17.5030  -31.6254   24.5162 H   0  0  0  0  0  0
  -15.5364  -30.2979   23.7659 H   0  0  0  0  0  0
  -15.8669  -28.0815   22.7091 H   0  0  0  0  0  0
  -24.5895  -30.7097   25.7800 H   0  0  0  0  0  0
  -24.8958  -32.2874   26.4918 H   0  0  0  0  0  0
  -25.8063  -30.8863   27.0226 H   0  0  0  0  0  0
  -26.2973  -29.6718   24.1252 H   0  0  0  0  0  0
  -27.4123  -29.7296   25.4719 H   0  0  0  0  0  0
  -27.8816  -30.4302   23.9419 H   0  0  0  0  0  0
  -27.2664  -33.3672   26.2045 H   0  0  0  0  0  0
  -28.3866  -32.6908   25.0329 H   0  0  0  0  0  0
  -28.0726  -31.8517   26.5453 H   0  0  0  0  0  0
  -28.2583  -38.0093   24.7520 H   0  0  0  0  0  0
  -28.1095  -36.2634   24.6300 H   0  0  0  0  0  0
  -27.2298  -37.1454   25.8870 H   0  0  0  0  0  0
  -20.9339  -29.8804   21.6920 H   0  0  0  0  0  0
  -26.0167  -38.2853   24.1422 H   0  0  0  0  0  0
  -28.8906  -18.8277   22.6409 H   0  0  0  0  0  0
  -31.2172  -18.3271   19.0776 H   0  0  0  0  0  0
  -30.2836  -24.1198   18.4839 H   0  0  0  0  0  0
  -31.2182  -23.4237   19.9023 H   0  0  0  0  0  0
  -28.4416  -22.4785   18.8318 H   0  0  0  0  0  0
  -29.3761  -23.9621   21.4414 H   0  0  0  0  0  0
  -27.5994  -20.7723   23.0033 H   0  0  0  0  0  0
  -27.3277  -21.9167   21.6938 H   0  0  0  0  0  0
  -28.7012  -22.1293   22.7920 H   0  0  0  0  0  0
  -31.3754  -19.9774   17.4710 H   0  0  0  0  0  0
  -31.6249  -21.5497   18.2108 H   0  0  0  0  0  0
  -30.1014  -21.1903   17.3813 H   0  0  0  0  0  0
  -30.5338  -17.0005   22.5106 H   0  0  0  0  0  0
  -31.6767  -16.9730   21.2290 H   0  0  0  0  0  0
  -27.1811  -24.7982   20.5601 H   0  0  0  0  0  0
  -27.8390  -24.8915   18.9401 H   0  0  0  0  0  0
  -29.0283  -15.5445   21.2085 H   0  0  0  0  0  0
  1 25  1  0  0  0
  1 30  2  0  0  0
  1 84  1  0  0  0
  2  3  1  0  0  0
  2 25  1  0  0  0
  2 85  1  0  0  0
  2 86  1  0  0  0
  3  4  1  0  0  0
  3 87  1  0  0  0
  3 88  1  0  0  0
  4  5  1  0  0  0
  4 89  1  0  0  0
  4 90  1  0  0  0
  5  6  1  0  0  0
  5 26  1  0  0  0
  5 91  1  0  0  0
  6 25  1  0  0  0
  6 92  1  0  0  0
  6 93  1  0  0  0
  7  8  2  0  0  0
  7 26  1  0  0  0
  7 29  1  0  0  0
  8  9  1  0  0  0
  8 22  1  0  0  0
  9 10  1  0  0  0
  9 27  2  0  0  0
 10 11  2  0  0  0
 10 15  1  0  0  0
 11 12  1  0  0  0
 11 94  1  0  0  0
 12 13  2  0  0  0
 12 95  1  0  0  0
 13 14  1  0  0  0
 13 31  1  0  0  0
 14 15  2  0  0  0
 14 96  1  0  0  0
 15 97  1  0  0  0
 16 17  2  0  0  0
 16 21  1  0  0  0
 16 31  1  0  0  0
 17 18  1  0  0  0
 17 98  1  0  0  0
 18 19  2  0  0  0
 18 99  1  0  0  0
 19 20  1  0  0  0
 19 24  1  0  0  0
 20 21  2  0  0  0
 20100  1  0  0  0
 21 23  1  0  0  0
 22 28  1  0  0  0
 22 32  2  0  0  0
 26 27  1  0  0  0
 28101  1  0  0  0
 28102  1  0  0  0
 29103  1  0  0  0
 29104  1  0  0  0
 33 34  1  0  0  0
 33 66  1  0  0  0
 33 70  2  0  0  0
 34 36  1  0  0  0
 34 59  1  0  0  0
 34105  1  0  0  0
 35 44  2  0  0  0
 35 45  1  0  0  0
 35 68  1  0  0  0
 36 56  1  0  0  0
 36106  1  0  0  0
 37 39  1  0  0  0
 37 47  1  0  0  0
 37 66  1  0  0  0
 37107  1  0  0  0
 38 43  2  0  0  0
 38 46  1  0  0  0
 38 47  1  0  0  0
 39 64  1  0  0  0
 39 67  2  0  0  0
 40 52  1  0  0  0
 40 53  2  0  0  0
 40 58  1  0  0  0
 41108  1  0  0  0
 41109  1  0  0  0
 41110  1  0  0  0
 41 48  1  0  0  0
 42 43  1  0  0  0
 42 66  1  0  0  0
 42111  1  0  0  0
 42112  1  0  0  0
 43 44  1  0  0  0
 44113  1  0  0  0
 45 46  2  0  0  0
 45114  1  0  0  0
 46115  1  0  0  0
 47116  1  0  0  0
 47117  1  0  0  0
 48 56  1  0  0  0
 48 65  1  0  0  0
 48118  1  0  0  0
 49 50  1  0  0  0
 49 53  1  0  0  0
 49 64  1  0  0  0
 49119  1  0  0  0
 50 51  1  0  0  0
 50120  1  0  0  0
 50121  1  0  0  0
 51 52  1  0  0  0
 51122  1  0  0  0
 51123  1  0  0  0
 52124  1  0  0  0
 52125  1  0  0  0
 53 54  1  0  0  0
 54 55  2  0  0  0
 54126  1  0  0  0
 55 57  1  0  0  0
 55127  1  0  0  0
 56 69  2  0  0  0
 57 58  2  0  0  0
 57128  1  0  0  0
 58129  1  0  0  0
 59 60  1  0  0  0
 59 61  1  0  0  0
 59 62  1  0  0  0
 60130  1  0  0  0
 60131  1  0  0  0
 60132  1  0  0  0
 61133  1  0  0  0
 61134  1  0  0  0
 61135  1  0  0  0
 62136  1  0  0  0
 62137  1  0  0  0
 62138  1  0  0  0
 63 65  1  0  0  0
 63139  1  0  0  0
 63140  1  0  0  0
 63141  1  0  0  0
 64142  1  0  0  0
 65143  1  0  0  0
 68 83  1  0  0  0
 71 74  2  0  0  0
 71 75  1  0  0  0
 71144  1  0  0  0
 72 74  1  0  0  0
 72 76  2  0  0  0
 72145  1  0  0  0
 73 75  2  0  0  0
 73 76  1  0  0  0
 73 78  1  0  0  0
 74 82  1  0  0  0
 75 80  1  0  0  0
 76 81  1  0  0  0
 77 78  1  0  0  0
 77 79  1  0  0  0
 77146  1  0  0  0
 77147  1  0  0  0
 78 79  1  0  0  0
 78148  1  0  0  0
 79 83  1  0  0  0
 79149  1  0  0  0
 80150  1  0  0  0
 80151  1  0  0  0
 80152  1  0  0  0
 81153  1  0  0  0
 81154  1  0  0  0
 81155  1  0  0  0
 82 84  1  0  0  0
 82156  1  0  0  0
 82157  1  0  0  0
 83158  1  0  0  0
 83159  1  0  0  0
 84160  1  0  0  0
M  ISO  4   1 100  68 101  83 101  84 100
M  END
> <chiral flag>
0

> <version>
0

> <s_m_source_file>
/data/baiqing/PycharmProjects/Reinvent-master-3.2/result/LINK_invent/BTK/process_docking_weight1_custom_sum_contain_oxygen_bond_distance_aromatic_linkinvent_7_9_3/rearranged_h_0147.sdf

> <i_m_source_file_index>
59

> <r_mmod_Potential_Energy-OPLS-2005>
6.48356866836548

> <r_mmod_Stretch_Energy-OPLS-2005>
69.540771484375

> <r_mmod_Bend_Energy-OPLS-2005>
132.126586914062

> <r_mmod_Torsional_Energy-OPLS-2005>
242.423751831055

> <r_mmod_Improper_Torsional_Energy-OPLS-2005>
4.46986389160156

> <r_mmod_Van_der_Waal_Energy-OPLS-2005>
150.087966918945

> <r_mmod_Electrostatic_Energy-OPLS-2005>
-427.605346679688

> <r_mmod_Solvation_Energy-OPLS-2005>
-205.458465576172

> <b_mmod_Minimization_Converged-OPLS-2005>
0

> <r_mmod_RMS_Derivative-OPLS-2005>
2.10293793678284

$$$$
59
                    3D
 Structure written by MMmdl.
163172  0  0  1  0            999 V2000
  -30.5561  -14.9756   20.4021 C   0  0  0  0  0  0
  -30.4324  -12.6034   19.5028 C   0  0  0  0  0  0
  -29.5212  -12.5380   18.2562 C   0  0  0  0  0  0
  -28.0527  -12.3243   18.6668 C   0  0  0  0  0  0
  -27.6249  -13.2558   19.8304 C   0  0  2  0  0  0
  -28.6671  -13.3076   20.9676 C   0  0  0  0  0  0
  -25.2431  -13.8230   20.5687 C   0  0  0  0  0  0
  -24.1766  -13.0442   20.9234 C   0  0  0  0  0  0
  -24.6397  -11.6935   20.8749 C   0  0  0  0  0  0
  -23.9080  -10.4298   21.0387 C   0  0  0  0  0  0
  -24.3629   -9.4214   21.9164 C   0  0  0  0  0  0
  -23.6306   -8.2248   22.0735 C   0  0  0  0  0  0
  -22.4283   -8.0279   21.3535 C   0  0  0  0  0  0
  -21.9918   -9.0247   20.4631 C   0  0  0  0  0  0
  -22.7245  -10.2133   20.3036 C   0  0  0  0  0  0
  -21.6857   -6.0728   22.5269 C   0  0  0  0  0  0
  -21.4027   -6.5634   23.8203 C   0  0  0  0  0  0
  -21.3662   -5.6786   24.9163 C   0  0  0  0  0  0
  -21.6048   -4.3049   24.7214 C   0  0  0  0  0  0
  -21.8821   -3.8139   23.4336 C   0  0  0  0  0  0
  -21.9202   -4.6956   22.3396 C   0  0  0  0  0  0
  -22.7783  -13.5192   21.1886 C   0  0  0  0  0  0
  -22.1662   -4.2140   21.0973 F   0  0  0  0  0  0
  -21.5638   -3.4539   25.7729 F   0  0  0  0  0  0
  -29.9406  -13.7199   20.3635 N   0  0  0  0  0  0
  -26.2861  -12.9477   20.3200 N   0  0  0  0  0  0
  -25.9333  -11.6604   20.5721 N   0  0  0  0  0  0
  -22.0438  -12.8188   22.0454 N   0  0  0  0  0  0
  -25.4096  -15.1961   20.4077 N   0  0  0  0  0  0
  -31.7690  -14.9759   20.1617 O   0  0  0  0  0  0
  -21.6651   -6.8872   21.4229 O   0  0  0  0  0  0
  -22.3465  -14.5479   20.6702 O   0  0  0  0  0  0
  -24.6460  -31.8410   23.1871 C   0  0  0  0  0  0
  -25.9226  -32.4675   23.8267 C   0  0  1  0  0  0
  -27.2147  -27.1144   20.1481 C   0  0  0  0  0  0
  -25.5959  -33.8483   24.2171 N   0  0  0  0  0  0
  -23.4498  -30.4611   21.5321 C   0  0  2  0  0  0
  -24.8984  -28.8838   20.1063 C   0  0  0  0  0  0
  -22.7575  -29.4541   22.4846 C   0  0  0  0  0  0
  -18.0306  -28.1388   22.8468 C   0  0  0  0  0  0
  -24.1488  -36.7260   23.2643 C   0  0  0  0  0  0
  -26.0072  -30.7043   21.3920 C   0  0  0  0  0  0
  -26.0753  -29.3141   20.7324 C   0  0  0  0  0  0
  -27.2311  -28.4437   20.7398 C   0  0  0  0  0  0
  -26.0165  -26.7968   19.4700 C   0  0  0  0  0  0
  -24.8838  -27.6395   19.4596 C   0  0  0  0  0  0
  -23.6761  -29.7875   20.1522 C   0  0  0  0  0  0
  -25.4124  -36.3025   24.0311 C   0  0  1  0  0  0
  -20.5919  -28.3730   23.1218 C   0  0  2  0  0  0
  -20.6787  -26.9431   22.5394 C   0  0  0  0  0  0
  -19.5763  -26.6375   21.5204 C   0  0  0  0  0  0
  -18.1944  -26.7927   22.1614 C   0  0  0  0  0  0
  -19.1562  -28.8880   23.2831 C   0  0  0  0  0  0
  -18.9477  -30.1471   23.8859 C   0  0  0  0  0  0
  -17.6475  -30.6586   24.0561 C   0  0  0  0  0  0
  -25.9075  -34.9396   23.5056 C   0  0  0  0  0  0
  -16.5366  -29.9076   23.6336 C   0  0  0  0  0  0
  -16.7288  -28.6492   23.0356 C   0  0  0  0  0  0
  -26.4530  -31.6562   25.0730 C   0  0  0  0  0  0
  -25.3705  -31.3771   26.1424 C   0  0  0  0  0  0
  -27.0404  -30.2942   24.6363 C   0  0  0  0  0  0
  -27.6035  -32.4356   25.7523 C   0  0  0  0  0  0
  -27.5576  -37.1792   24.8459 C   0  0  0  0  0  0
  -21.4264  -29.3059   22.3593 N   0  0  0  0  0  0
  -26.4281  -37.3747   23.9407 N   0  0  0  0  0  0
  -24.7210  -31.0245   22.0916 N   0  0  0  0  0  0
  -23.4204  -28.8087   23.3007 O   0  0  0  0  0  0
  -28.2537  -26.1103   20.2411 O   0  0  0  0  0  0
  -26.5666  -34.8903   22.4635 O   0  0  0  0  0  0
  -23.5575  -32.1293   23.7078 O   0  0  0  0  0  0
  -29.2354  -18.8649   20.3076 C   0  0  0  0  0  0
  -29.6524  -20.2816   20.0714 C   0  0  0  0  0  0
  -31.0376  -20.3755   19.8129 C   0  0  0  0  0  0
  -30.1593  -17.6884   20.3657 C   0  0  0  0  0  0
  -31.8877  -19.2657   20.0052 C   0  0  0  0  0  0
  -31.5908  -21.6656   19.2169 C   0  0  0  0  0  0
  -30.6749  -22.2546   18.1099 C   0  0  0  0  0  0
  -29.1715  -21.8948   18.2450 C   0  0  0  0  0  0
  -28.7769  -21.6550   19.7146 C   0  0  2  0  0  0
  -34.1987  -20.2785   21.8673 C   0  0  0  0  0  0
  -28.8720  -23.2082   20.4238 C   0  0  0  0  0  0
  -34.0719  -19.0697   20.9296 C   0  0  0  0  0  0
  -28.0118  -24.5926   19.9283 C   0  0  0  0  0  0
  -31.4696  -18.0076   20.2736 N   0  0  0  0  0  0
  -29.8001  -16.1929   20.4957 N   0  0  0  0  0  0
  -33.2423  -19.4139   19.8221 O   0  0  0  0  0  0
  -31.4696  -12.7433   19.1959 H   0  0  0  0  0  0
  -30.4126  -11.6590   20.0497 H   0  0  0  0  0  0
  -29.8468  -11.7384   17.5895 H   0  0  0  0  0  0
  -29.6116  -13.4659   17.6899 H   0  0  0  0  0  0
  -27.9435  -11.2815   18.9658 H   0  0  0  0  0  0
  -27.3948  -12.4654   17.8077 H   0  0  0  0  0  0
  -27.5797  -14.2547   19.3949 H   0  0  0  0  0  0
  -28.7587  -12.3395   21.4616 H   0  0  0  0  0  0
  -28.3593  -14.0211   21.7338 H   0  0  0  0  0  0
  -25.2770   -9.5704   22.4738 H   0  0  0  0  0  0
  -24.0017   -7.4642   22.7456 H   0  0  0  0  0  0
  -21.0847   -8.8755   19.8942 H   0  0  0  0  0  0
  -22.3678  -10.9664   19.6148 H   0  0  0  0  0  0
  -21.2017   -7.6141   23.9701 H   0  0  0  0  0  0
  -21.1486   -6.0517   25.9065 H   0  0  0  0  0  0
  -22.0599   -2.7601   23.2836 H   0  0  0  0  0  0
  -22.4072  -11.9878   22.4887 H   0  0  0  0  0  0
  -21.1030  -13.1171   22.2596 H   0  0  0  0  0  0
  -24.6375  -15.8456   20.5087 H   0  0  0  0  0  0
  -26.2420  -15.6315   20.0326 H   0  0  0  0  0  0
  -26.7290  -32.5258   23.0990 H   0  0  0  0  0  0
  -25.0092  -33.9587   25.0310 H   0  0  0  0  0  0
  -22.7551  -31.2889   21.3754 H   0  0  0  0  0  0
  -23.3753  -35.9587   23.3276 H   0  0  0  0  0  0
  -24.3574  -36.8925   22.2063 H   0  0  0  0  0  0
  -23.7236  -37.6447   23.6699 H   0  0  0  0  0  0
  -26.1734  -31.4573   20.6205 H   0  0  0  0  0  0
  -26.8742  -30.7498   22.0391 H   0  0  0  0  0  0
  -28.1218  -28.7626   21.2630 H   0  0  0  0  0  0
  -25.9190  -25.8512   18.9588 H   0  0  0  0  0  0
  -23.9888  -27.3077   18.9505 H   0  0  0  0  0  0
  -23.8145  -30.5591   19.3949 H   0  0  0  0  0  0
  -22.7893  -29.2316   19.8424 H   0  0  0  0  0  0
  -25.1312  -36.1851   25.0802 H   0  0  0  0  0  0
  -21.0007  -28.3326   24.1342 H   0  0  0  0  0  0
  -20.5674  -26.2355   23.3623 H   0  0  0  0  0  0
  -21.6655  -26.7436   22.1201 H   0  0  0  0  0  0
  -19.6936  -25.6278   21.1257 H   0  0  0  0  0  0
  -19.6693  -27.3164   20.6716 H   0  0  0  0  0  0
  -17.4217  -26.6662   21.4014 H   0  0  0  0  0  0
  -18.0354  -26.0066   22.9009 H   0  0  0  0  0  0
  -19.7957  -30.7296   24.2205 H   0  0  0  0  0  0
  -17.5031  -31.6261   24.5177 H   0  0  0  0  0  0
  -15.5366  -30.2971   23.7685 H   0  0  0  0  0  0
  -15.8683  -28.0805   22.7097 H   0  0  0  0  0  0
  -24.5860  -30.7148   25.7751 H   0  0  0  0  0  0
  -24.8931  -32.2964   26.4825 H   0  0  0  0  0  0
  -25.7981  -30.8952   27.0223 H   0  0  0  0  0  0
  -26.3039  -29.6647   24.1356 H   0  0  0  0  0  0
  -27.3961  -29.7273   25.4979 H   0  0  0  0  0  0
  -27.8972  -30.4149   23.9728 H   0  0  0  0  0  0
  -27.2588  -33.3658   26.2053 H   0  0  0  0  0  0
  -28.3872  -32.6926   25.0384 H   0  0  0  0  0  0
  -28.0675  -31.8527   26.5488 H   0  0  0  0  0  0
  -28.2581  -38.0103   24.7521 H   0  0  0  0  0  0
  -28.1083  -36.2634   24.6257 H   0  0  0  0  0  0
  -27.2296  -37.1412   25.8862 H   0  0  0  0  0  0
  -20.9483  -29.8783   21.6776 H   0  0  0  0  0  0
  -26.0143  -38.2816   24.1401 H   0  0  0  0  0  0
  -28.1741  -18.6686   20.3821 H   0  0  0  0  0  0
  -32.5876  -21.5146   18.8002 H   0  0  0  0  0  0
  -31.7310  -22.3768   20.0310 H   0  0  0  0  0  0
  -31.0166  -21.8931   17.1389 H   0  0  0  0  0  0
  -30.8117  -23.3370   18.0747 H   0  0  0  0  0  0
  -28.9709  -20.9843   17.6770 H   0  0  0  0  0  0
  -28.5566  -22.6645   17.7809 H   0  0  0  0  0  0
  -27.7288  -21.3553   19.7470 H   0  0  0  0  0  0
  -34.8625  -20.0579   22.7026 H   0  0  0  0  0  0
  -33.2305  -20.5647   22.2789 H   0  0  0  0  0  0
  -34.6043  -21.1424   21.3405 H   0  0  0  0  0  0
  -29.9145  -23.5136   20.4196 H   0  0  0  0  0  0
  -28.6472  -23.0701   21.4816 H   0  0  0  0  0  0
  -33.7078  -18.2023   21.4809 H   0  0  0  0  0  0
  -35.0577  -18.8006   20.5476 H   0  0  0  0  0  0
  -26.9876  -24.3843   20.2392 H   0  0  0  0  0  0
  -27.9791  -24.5626   18.8405 H   0  0  0  0  0  0
  -28.8161  -16.0263   20.6254 H   0  0  0  0  0  0
  1 25  1  0  0  0
  1 30  2  0  0  0
  1 85  1  0  0  0
  2  3  1  0  0  0
  2 25  1  0  0  0
  2 87  1  0  0  0
  2 88  1  0  0  0
  3  4  1  0  0  0
  3 89  1  0  0  0
  3 90  1  0  0  0
  4  5  1  0  0  0
  4 91  1  0  0  0
  4 92  1  0  0  0
  5  6  1  0  0  0
  5 26  1  0  0  0
  5 93  1  0  0  0
  6 25  1  0  0  0
  6 94  1  0  0  0
  6 95  1  0  0  0
  7  8  2  0  0  0
  7 26  1  0  0  0
  7 29  1  0  0  0
  8  9  1  0  0  0
  8 22  1  0  0  0
  9 10  1  0  0  0
  9 27  2  0  0  0
 10 11  2  0  0  0
 10 15  1  0  0  0
 11 12  1  0  0  0
 11 96  1  0  0  0
 12 13  2  0  0  0
 12 97  1  0  0  0
 13 14  1  0  0  0
 13 31  1  0  0  0
 14 15  2  0  0  0
 14 98  1  0  0  0
 15 99  1  0  0  0
 16 17  2  0  0  0
 16 21  1  0  0  0
 16 31  1  0  0  0
 17 18  1  0  0  0
 17100  1  0  0  0
 18 19  2  0  0  0
 18101  1  0  0  0
 19 20  1  0  0  0
 19 24  1  0  0  0
 20 21  2  0  0  0
 20102  1  0  0  0
 21 23  1  0  0  0
 22 28  1  0  0  0
 22 32  2  0  0  0
 26 27  1  0  0  0
 28103  1  0  0  0
 28104  1  0  0  0
 29105  1  0  0  0
 29106  1  0  0  0
 33 34  1  0  0  0
 33 66  1  0  0  0
 33 70  2  0  0  0
 34 36  1  0  0  0
 34 59  1  0  0  0
 34107  1  0  0  0
 35 44  2  0  0  0
 35 45  1  0  0  0
 35 68  1  0  0  0
 36 56  1  0  0  0
 36108  1  0  0  0
 37 39  1  0  0  0
 37 47  1  0  0  0
 37 66  1  0  0  0
 37109  1  0  0  0
 38 43  2  0  0  0
 38 46  1  0  0  0
 38 47  1  0  0  0
 39 64  1  0  0  0
 39 67  2  0  0  0
 40 52  1  0  0  0
 40 53  2  0  0  0
 40 58  1  0  0  0
 41110  1  0  0  0
 41111  1  0  0  0
 41112  1  0  0  0
 41 48  1  0  0  0
 42 43  1  0  0  0
 42 66  1  0  0  0
 42113  1  0  0  0
 42114  1  0  0  0
 43 44  1  0  0  0
 44115  1  0  0  0
 45 46  2  0  0  0
 45116  1  0  0  0
 46117  1  0  0  0
 47118  1  0  0  0
 47119  1  0  0  0
 48 56  1  0  0  0
 48 65  1  0  0  0
 48120  1  0  0  0
 49 50  1  0  0  0
 49 53  1  0  0  0
 49 64  1  0  0  0
 49121  1  0  0  0
 50 51  1  0  0  0
 50122  1  0  0  0
 50123  1  0  0  0
 51 52  1  0  0  0
 51124  1  0  0  0
 51125  1  0  0  0
 52126  1  0  0  0
 52127  1  0  0  0
 53 54  1  0  0  0
 54 55  2  0  0  0
 54128  1  0  0  0
 55 57  1  0  0  0
 55129  1  0  0  0
 56 69  2  0  0  0
 57 58  2  0  0  0
 57130  1  0  0  0
 58131  1  0  0  0
 59 60  1  0  0  0
 59 61  1  0  0  0
 59 62  1  0  0  0
 60132  1  0  0  0
 60133  1  0  0  0
 60134  1  0  0  0
 61135  1  0  0  0
 61136  1  0  0  0
 61137  1  0  0  0
 62138  1  0  0  0
 62139  1  0  0  0
 62140  1  0  0  0
 63 65  1  0  0  0
 63141  1  0  0  0
 63142  1  0  0  0
 63143  1  0  0  0
 64144  1  0  0  0
 65145  1  0  0  0
 68 83  1  0  0  0
 71 72  2  0  0  0
 71 74  1  0  0  0
 71146  1  0  0  0
 72 73  1  0  0  0
 72 79  1  0  0  0
 73 75  2  0  0  0
 73 76  1  0  0  0
 74 84  2  0  0  0
 74 85  1  0  0  0
 75 84  1  0  0  0
 75 86  1  0  0  0
 76 77  1  0  0  0
 76147  1  0  0  0
 76148  1  0  0  0
 77 78  1  0  0  0
 77149  1  0  0  0
 77150  1  0  0  0
 78 79  1  0  0  0
 78151  1  0  0  0
 78152  1  0  0  0
 79 81  1  0  0  0
 79153  1  0  0  0
 80 82  1  0  0  0
 80154  1  0  0  0
 80155  1  0  0  0
 80156  1  0  0  0
 81 83  1  0  0  0
 81157  1  0  0  0
 81158  1  0  0  0
 82 86  1  0  0  0
 82159  1  0  0  0
 82160  1  0  0  0
 83161  1  0  0  0
 83162  1  0  0  0
 85163  1  0  0  0
M  ISO  4   1 100  68 101  83 101  85 100
M  END
> <chiral flag>
0

> <version>
0

> <s_m_source_file>
/data/baiqing/PycharmProjects/Reinvent-master-3.2/result/LINK_invent/BTK/process_docking_weight1_custom_sum_contain_oxygen_bond_distance_aromatic_linkinvent_7_9_3/rearranged_h_0147.sdf

> <i_m_source_file_index>
60

> <r_mmod_Potential_Energy-OPLS-2005>
452.698822021484

> <r_mmod_Stretch_Energy-OPLS-2005>
293.003662109375

> <r_mmod_Bend_Energy-OPLS-2005>
287.302459716797

> <r_mmod_Torsional_Energy-OPLS-2005>
253.989624023438

> <r_mmod_Improper_Torsional_Energy-OPLS-2005>
7.92077255249023

> <r_mmod_Van_der_Waal_Energy-OPLS-2005>
149.579513549805

> <r_mmod_Electrostatic_Energy-OPLS-2005>
-513.822631835938

> <r_mmod_Solvation_Energy-OPLS-2005>
-237.679138183594

> <b_mmod_Minimization_Converged-OPLS-2005>
0

> <r_mmod_RMS_Derivative-OPLS-2005>
1.82572770118713

$$$$
60
                    3D
 Structure written by MMmdl.
169179  0  0  1  0            999 V2000
  -30.7717  -14.4874   20.6872 C   0  0  0  0  0  0
  -30.4184  -12.3524   19.4565 C   0  0  0  0  0  0
  -29.5058  -12.5328   18.2254 C   0  0  0  0  0  0
  -28.0277  -12.3657   18.6179 C   0  0  0  0  0  0
  -27.6576  -13.2141   19.8582 C   0  0  2  0  0  0
  -28.6818  -13.0229   20.9919 C   0  0  0  0  0  0
  -25.2574  -13.8171   20.5632 C   0  0  0  0  0  0
  -24.1838  -13.0442   20.9152 C   0  0  0  0  0  0
  -24.6397  -11.6911   20.8696 C   0  0  0  0  0  0
  -23.9065  -10.4296   21.0387 C   0  0  0  0  0  0
  -24.3619   -9.4217   21.9171 C   0  0  0  0  0  0
  -23.6294   -8.2253   22.0752 C   0  0  0  0  0  0
  -22.4274   -8.0286   21.3547 C   0  0  0  0  0  0
  -21.9905   -9.0255   20.4647 C   0  0  0  0  0  0
  -22.7232  -10.2134   20.3047 C   0  0  0  0  0  0
  -21.6855   -6.0737   22.5280 C   0  0  0  0  0  0
  -21.4016   -6.5641   23.8214 C   0  0  0  0  0  0
  -21.3661   -5.6793   24.9175 C   0  0  0  0  0  0
  -21.6044   -4.3056   24.7224 C   0  0  0  0  0  0
  -21.8820   -3.8147   23.4346 C   0  0  0  0  0  0
  -21.9194   -4.6964   22.3402 C   0  0  0  0  0  0
  -22.7866  -13.5239   21.1845 C   0  0  0  0  0  0
  -22.1662   -4.2151   21.0980 F   0  0  0  0  0  0
  -21.5627   -3.4538   25.7737 F   0  0  0  0  0  0
  -30.0363  -13.3394   20.4928 N   0  0  0  0  0  0
  -26.2990  -12.9349   20.3212 N   0  0  0  0  0  0
  -25.9314  -11.6505   20.5665 N   0  0  0  0  0  0
  -22.0515  -12.8228   22.0405 N   0  0  0  0  0  0
  -25.4308  -15.1893   20.4096 N   0  0  0  0  0  0
  -31.7351  -14.7247   19.9537 O   0  0  0  0  0  0
  -21.6641   -6.8880   21.4243 O   0  0  0  0  0  0
  -22.3545  -14.5547   20.6703 O   0  0  0  0  0  0
  -24.6207  -31.8648   23.2078 C   0  0  0  0  0  0
  -25.9078  -32.4806   23.8383 C   0  0  1  0  0  0
  -27.2240  -27.3754   20.0996 C   0  0  0  0  0  0
  -25.5914  -33.8606   24.2309 N   0  0  0  0  0  0
  -23.4106  -30.4907   21.5502 C   0  0  2  0  0  0
  -24.8549  -28.9565   20.1112 C   0  0  0  0  0  0
  -22.7444  -29.4647   22.4967 C   0  0  0  0  0  0
  -18.0279  -28.1380   22.8491 C   0  0  0  0  0  0
  -24.1488  -36.7308   23.2637 C   0  0  0  0  0  0
  -25.9474  -30.8125   21.3710 C   0  0  0  0  0  0
  -26.0217  -29.4453   20.7118 C   0  0  0  0  0  0
  -27.2092  -28.6648   20.6996 C   0  0  0  0  0  0
  -26.0334  -26.9284   19.4767 C   0  0  0  0  0  0
  -24.8595  -27.7005   19.4879 C   0  0  0  0  0  0
  -23.6209  -29.8297   20.1634 C   0  0  0  0  0  0
  -25.4111  -36.3101   24.0333 C   0  0  1  0  0  0
  -20.5875  -28.3674   23.1303 C   0  0  2  0  0  0
  -20.6769  -26.9405   22.5413 C   0  0  0  0  0  0
  -19.5746  -26.6385   21.5213 C   0  0  0  0  0  0
  -18.1925  -26.7925   22.1626 C   0  0  0  0  0  0
  -19.1530  -28.8843   23.2894 C   0  0  0  0  0  0
  -18.9455  -30.1449   23.8906 C   0  0  0  0  0  0
  -17.6456  -30.6585   24.0564 C   0  0  0  0  0  0
  -25.9042  -34.9467   23.5118 C   0  0  0  0  0  0
  -16.5347  -29.9085   23.6328 C   0  0  0  0  0  0
  -16.7267  -28.6502   23.0348 C   0  0  0  0  0  0
  -26.4481  -31.6599   25.0732 C   0  0  0  0  0  0
  -25.3732  -31.3725   26.1471 C   0  0  0  0  0  0
  -27.0313  -30.3030   24.6147 C   0  0  0  0  0  0
  -27.6050  -32.4325   25.7496 C   0  0  0  0  0  0
  -27.5581  -37.1810   24.8464 C   0  0  0  0  0  0
  -21.4164  -29.3039   22.3708 N   0  0  0  0  0  0
  -26.4294  -37.3789   23.9406 N   0  0  0  0  0  0
  -24.6782  -31.0708   22.1005 N   0  0  0  0  0  0
  -23.4195  -28.8180   23.3018 O   0  0  0  0  0  0
  -28.3621  -26.5701   20.1443 O   0  0  0  0  0  0
  -26.5606  -34.8924   22.4682 O   0  0  0  0  0  0
  -23.5385  -32.1423   23.7441 O   0  0  0  0  0  0
  -29.4970  -20.4024   20.5209 C   0  0  0  0  0  0
  -31.1189  -22.0667   21.2121 C   0  0  0  0  0  0
  -30.3623  -19.3399   20.9253 C   0  0  0  0  0  0
  -31.6322  -19.6756   21.4754 C   0  0  0  0  0  0
  -31.9992  -21.0421   21.6193 C   0  0  0  0  0  0
  -29.8538  -21.7769   20.6569 C   0  0  0  0  0  0
  -29.9283  -17.8509   20.7794 C   0  0  0  0  0  0
  -32.5968  -18.5839   21.9518 C   0  0  0  0  0  0
  -32.2517  -17.1700   21.4748 C   0  0  0  0  0  0
  -30.3773  -13.6941   23.6392 C   0  0  0  0  0  0
  -30.9673  -14.9896   24.1239 C   0  0  0  0  0  0
  -30.7574  -16.8692   21.6682 C   0  0  2  0  0  0
  -29.9642  -15.0076   22.9845 C   0  0  0  0  0  0
  -33.3330  -21.4585   22.2294 C   0  0  0  0  0  0
  -28.1675  -25.1346   19.9520 C   0  0  0  0  0  0
  -29.3159  -24.1814   20.4131 C   0  0  0  0  0  0
  -30.4118  -15.3935   21.6607 N   0  0  0  0  0  0
  -33.3848  -21.2246   23.6228 O   0  0  0  0  0  0
  -28.9651  -22.7774   20.2545 O   0  0  0  0  0  0
  -31.4662  -12.4353   19.1628 H   0  0  0  0  0  0
  -30.3157  -11.3429   19.8579 H   0  0  0  0  0  0
  -29.7698  -11.8115   17.4511 H   0  0  0  0  0  0
  -29.6636  -13.5215   17.7917 H   0  0  0  0  0  0
  -27.8533  -11.3091   18.8245 H   0  0  0  0  0  0
  -27.3815  -12.6226   17.7776 H   0  0  0  0  0  0
  -27.6969  -14.2596   19.5516 H   0  0  0  0  0  0
  -28.6610  -11.9962   21.3600 H   0  0  0  0  0  0
  -28.3478  -13.6338   21.8220 H   0  0  0  0  0  0
  -25.2768   -9.5696   22.4737 H   0  0  0  0  0  0
  -24.0007   -7.4647   22.7471 H   0  0  0  0  0  0
  -21.0835   -8.8771   19.8955 H   0  0  0  0  0  0
  -22.3689  -10.9668   19.6151 H   0  0  0  0  0  0
  -21.2010   -7.6149   23.9717 H   0  0  0  0  0  0
  -21.1482   -6.0523   25.9078 H   0  0  0  0  0  0
  -22.0597   -2.7610   23.2844 H   0  0  0  0  0  0
  -22.4134  -11.9884   22.4782 H   0  0  0  0  0  0
  -21.1139  -13.1261   22.2627 H   0  0  0  0  0  0
  -24.6699  -15.8491   20.5293 H   0  0  0  0  0  0
  -26.2914  -15.6277   20.1061 H   0  0  0  0  0  0
  -26.7147  -32.5494   23.1139 H   0  0  0  0  0  0
  -25.0062  -33.9761   25.0454 H   0  0  0  0  0  0
  -22.7016  -31.3098   21.4125 H   0  0  0  0  0  0
  -23.3746  -35.9646   23.3311 H   0  0  0  0  0  0
  -24.3580  -36.8914   22.2050 H   0  0  0  0  0  0
  -23.7247  -37.6518   23.6647 H   0  0  0  0  0  0
  -26.0721  -31.5798   20.6056 H   0  0  0  0  0  0
  -26.8308  -30.8596   21.9961 H   0  0  0  0  0  0
  -28.1056  -29.0360   21.1766 H   0  0  0  0  0  0
  -25.9788  -25.9727   18.9773 H   0  0  0  0  0  0
  -23.9648  -27.3211   19.0135 H   0  0  0  0  0  0
  -23.7349  -30.6079   19.4081 H   0  0  0  0  0  0
  -22.7422  -29.2560   19.8627 H   0  0  0  0  0  0
  -25.1290  -36.1962   25.0826 H   0  0  0  0  0  0
  -20.9966  -28.3239   24.1424 H   0  0  0  0  0  0
  -20.5675  -26.2279   23.3603 H   0  0  0  0  0  0
  -21.6639  -26.7444   22.1204 H   0  0  0  0  0  0
  -19.6906  -25.6298   21.1236 H   0  0  0  0  0  0
  -19.6683  -27.3202   20.6747 H   0  0  0  0  0  0
  -17.4193  -26.6670   21.4030 H   0  0  0  0  0  0
  -18.0329  -26.0067   22.9023 H   0  0  0  0  0  0
  -19.7931  -30.7263   24.2279 H   0  0  0  0  0  0
  -17.5011  -31.6266   24.5163 H   0  0  0  0  0  0
  -15.5348  -30.2989   23.7647 H   0  0  0  0  0  0
  -15.8666  -28.0825   22.7058 H   0  0  0  0  0  0
  -24.5896  -30.7084   25.7806 H   0  0  0  0  0  0
  -24.8935  -32.2889   26.4920 H   0  0  0  0  0  0
  -25.8071  -30.8887   27.0231 H   0  0  0  0  0  0
  -26.2871  -29.6797   24.1175 H   0  0  0  0  0  0
  -27.4031  -29.7268   25.4630 H   0  0  0  0  0  0
  -27.8733  -30.4331   23.9344 H   0  0  0  0  0  0
  -27.2664  -33.3616   26.2093 H   0  0  0  0  0  0
  -28.3848  -32.6900   25.0316 H   0  0  0  0  0  0
  -28.0730  -31.8439   26.5397 H   0  0  0  0  0  0
  -28.2605  -38.0101   24.7505 H   0  0  0  0  0  0
  -28.1070  -36.2633   24.6297 H   0  0  0  0  0  0
  -27.2298  -37.1470   25.8867 H   0  0  0  0  0  0
  -20.9327  -29.8772   21.6938 H   0  0  0  0  0  0
  -26.0181  -38.2868   24.1402 H   0  0  0  0  0  0
  -28.5309  -20.1581   20.1014 H   0  0  0  0  0  0
  -31.4392  -23.0892   21.3433 H   0  0  0  0  0  0
  -30.0230  -17.5708   19.7294 H   0  0  0  0  0  0
  -28.8697  -17.7645   21.0279 H   0  0  0  0  0  0
  -32.6089  -18.6013   23.0426 H   0  0  0  0  0  0
  -33.6127  -18.8057   21.6272 H   0  0  0  0  0  0
  -32.8741  -16.4489   22.0060 H   0  0  0  0  0  0
  -32.5119  -17.0895   20.4188 H   0  0  0  0  0  0
  -29.6456  -13.2061   24.2805 H   0  0  0  0  0  0
  -31.0516  -13.0182   23.1170 H   0  0  0  0  0  0
  -32.0148  -15.1741   23.8934 H   0  0  0  0  0  0
  -30.6338  -15.3654   25.0893 H   0  0  0  0  0  0
  -30.5437  -17.2265   22.6782 H   0  0  0  0  0  0
  -28.9712  -15.3678   23.2499 H   0  0  0  0  0  0
  -33.5126  -22.5205   22.0547 H   0  0  0  0  0  0
  -34.1551  -20.9420   21.7342 H   0  0  0  0  0  0
  -27.2752  -24.8213   20.4969 H   0  0  0  0  0  0
  -27.9777  -24.9472   18.8944 H   0  0  0  0  0  0
  -29.5352  -24.3827   21.4624 H   0  0  0  0  0  0
  -30.2170  -24.4036   19.8399 H   0  0  0  0  0  0
  -32.7096  -21.7596   24.0277 H   0  0  0  0  0  0
  1 25  1  0  0  0
  1 30  2  0  0  0
  1 87  1  0  0  0
  2  3  1  0  0  0
  2 25  1  0  0  0
  2 90  1  0  0  0
  2 91  1  0  0  0
  3  4  1  0  0  0
  3 92  1  0  0  0
  3 93  1  0  0  0
  4  5  1  0  0  0
  4 94  1  0  0  0
  4 95  1  0  0  0
  5  6  1  0  0  0
  5 26  1  0  0  0
  5 96  1  0  0  0
  6 25  1  0  0  0
  6 97  1  0  0  0
  6 98  1  0  0  0
  7  8  2  0  0  0
  7 26  1  0  0  0
  7 29  1  0  0  0
  8  9  1  0  0  0
  8 22  1  0  0  0
  9 10  1  0  0  0
  9 27  2  0  0  0
 10 11  2  0  0  0
 10 15  1  0  0  0
 11 12  1  0  0  0
 11 99  1  0  0  0
 12 13  2  0  0  0
 12100  1  0  0  0
 13 14  1  0  0  0
 13 31  1  0  0  0
 14 15  2  0  0  0
 14101  1  0  0  0
 15102  1  0  0  0
 16 17  2  0  0  0
 16 21  1  0  0  0
 16 31  1  0  0  0
 17 18  1  0  0  0
 17103  1  0  0  0
 18 19  2  0  0  0
 18104  1  0  0  0
 19 20  1  0  0  0
 19 24  1  0  0  0
 20 21  2  0  0  0
 20105  1  0  0  0
 21 23  1  0  0  0
 22 28  1  0  0  0
 22 32  2  0  0  0
 26 27  1  0  0  0
 28106  1  0  0  0
 28107  1  0  0  0
 29108  1  0  0  0
 29109  1  0  0  0
 33 34  1  0  0  0
 33 66  1  0  0  0
 33 70  2  0  0  0
 34 36  1  0  0  0
 34 59  1  0  0  0
 34110  1  0  0  0
 35 44  2  0  0  0
 35 45  1  0  0  0
 35 68  1  0  0  0
 36 56  1  0  0  0
 36111  1  0  0  0
 37 39  1  0  0  0
 37 47  1  0  0  0
 37 66  1  0  0  0
 37112  1  0  0  0
 38 43  2  0  0  0
 38 46  1  0  0  0
 38 47  1  0  0  0
 39 64  1  0  0  0
 39 67  2  0  0  0
 40 52  1  0  0  0
 40 53  2  0  0  0
 40 58  1  0  0  0
 41113  1  0  0  0
 41114  1  0  0  0
 41115  1  0  0  0
 41 48  1  0  0  0
 42 43  1  0  0  0
 42 66  1  0  0  0
 42116  1  0  0  0
 42117  1  0  0  0
 43 44  1  0  0  0
 44118  1  0  0  0
 45 46  2  0  0  0
 45119  1  0  0  0
 46120  1  0  0  0
 47121  1  0  0  0
 47122  1  0  0  0
 48 56  1  0  0  0
 48 65  1  0  0  0
 48123  1  0  0  0
 49 50  1  0  0  0
 49 53  1  0  0  0
 49 64  1  0  0  0
 49124  1  0  0  0
 50 51  1  0  0  0
 50125  1  0  0  0
 50126  1  0  0  0
 51 52  1  0  0  0
 51127  1  0  0  0
 51128  1  0  0  0
 52129  1  0  0  0
 52130  1  0  0  0
 53 54  1  0  0  0
 54 55  2  0  0  0
 54131  1  0  0  0
 55 57  1  0  0  0
 55132  1  0  0  0
 56 69  2  0  0  0
 57 58  2  0  0  0
 57133  1  0  0  0
 58134  1  0  0  0
 59 60  1  0  0  0
 59 61  1  0  0  0
 59 62  1  0  0  0
 60135  1  0  0  0
 60136  1  0  0  0
 60137  1  0  0  0
 61138  1  0  0  0
 61139  1  0  0  0
 61140  1  0  0  0
 62141  1  0  0  0
 62142  1  0  0  0
 62143  1  0  0  0
 63 65  1  0  0  0
 63144  1  0  0  0
 63145  1  0  0  0
 63146  1  0  0  0
 64147  1  0  0  0
 65148  1  0  0  0
 68 85  1  0  0  0
 71 73  2  0  0  0
 71 76  1  0  0  0
 71149  1  0  0  0
 72 75  1  0  0  0
 72 76  2  0  0  0
 72150  1  0  0  0
 73 74  1  0  0  0
 73 77  1  0  0  0
 74 75  2  0  0  0
 74 78  1  0  0  0
 75 84  1  0  0  0
 76 89  1  0  0  0
 77 82  1  0  0  0
 77151  1  0  0  0
 77152  1  0  0  0
 78 79  1  0  0  0
 78153  1  0  0  0
 78154  1  0  0  0
 79 82  1  0  0  0
 79155  1  0  0  0
 79156  1  0  0  0
 80 81  1  0  0  0
 80 83  1  0  0  0
 80157  1  0  0  0
 80158  1  0  0  0
 81 83  1  0  0  0
 81159  1  0  0  0
 81160  1  0  0  0
 82 87  1  0  0  0
 82161  1  0  0  0
 83 87  1  0  0  0
 83162  1  0  0  0
 84 88  1  0  0  0
 84163  1  0  0  0
 84164  1  0  0  0
 85 86  1  0  0  0
 85165  1  0  0  0
 85166  1  0  0  0
 86 89  1  0  0  0
 86167  1  0  0  0
 86168  1  0  0  0
 88169  1  0  0  0
M  ISO  4   1 100  68 101  85 101  87 100
M  END
> <chiral flag>
0

> <version>
0

> <s_m_source_file>
/data/baiqing/PycharmProjects/Reinvent-master-3.2/result/LINK_invent/BTK/process_docking_weight1_custom_sum_contain_oxygen_bond_distance_aromatic_linkinvent_7_9_3/rearranged_h_0147.sdf

> <i_m_source_file_index>
61

> <r_mmod_Potential_Energy-OPLS-2005>
256.084289550781

> <r_mmod_Stretch_Energy-OPLS-2005>
68.1294631958008

> <r_mmod_Bend_Energy-OPLS-2005>
138.248901367188

> <r_mmod_Torsional_Energy-OPLS-2005>
345.161071777344

> <r_mmod_Improper_Torsional_Energy-OPLS-2005>
2.57581734657288

> <r_mmod_Van_der_Waal_Energy-OPLS-2005>
175.357284545898

> <r_mmod_Electrostatic_Energy-OPLS-2005>
-290.062561035156

> <r_mmod_Solvation_Energy-OPLS-2005>
-206.253494262695

> <b_mmod_Minimization_Converged-OPLS-2005>
0

> <r_mmod_RMS_Derivative-OPLS-2005>
0.330482244491577

$$$$
61
                    3D
 Structure written by MMmdl.
163172  0  0  1  0            999 V2000
  -30.6599  -14.6839   20.4941 C   0  0  0  0  0  0
  -30.4233  -12.4173   19.4760 C   0  0  0  0  0  0
  -29.5060  -12.5162   18.2377 C   0  0  0  0  0  0
  -28.0315  -12.3484   18.6487 C   0  0  0  0  0  0
  -27.6485  -13.2317   19.8644 C   0  0  2  0  0  0
  -28.6959  -13.1353   20.9999 C   0  0  0  0  0  0
  -25.2451  -13.8045   20.5639 C   0  0  0  0  0  0
  -24.1777  -13.0327   20.9239 C   0  0  0  0  0  0
  -24.6413  -11.6837   20.8797 C   0  0  0  0  0  0
  -23.9086  -10.4238   21.0432 C   0  0  0  0  0  0
  -24.3620   -9.4154   21.9213 C   0  0  0  0  0  0
  -23.6277   -8.2205   22.0769 C   0  0  0  0  0  0
  -22.4258   -8.0267   21.3555 C   0  0  0  0  0  0
  -21.9907   -9.0245   20.4658 C   0  0  0  0  0  0
  -22.7258  -10.2112   20.3071 C   0  0  0  0  0  0
  -21.6840   -6.0721   22.5279 C   0  0  0  0  0  0
  -21.4005   -6.5633   23.8206 C   0  0  0  0  0  0
  -21.3654   -5.6791   24.9178 C   0  0  0  0  0  0
  -21.6046   -4.3053   24.7239 C   0  0  0  0  0  0
  -21.8819   -3.8137   23.4357 C   0  0  0  0  0  0
  -21.9190   -4.6947   22.3408 C   0  0  0  0  0  0
  -22.7803  -13.5142   21.1880 C   0  0  0  0  0  0
  -22.1665   -4.2132   21.0986 F   0  0  0  0  0  0
  -21.5628   -3.4540   25.7755 F   0  0  0  0  0  0
  -30.0103  -13.4713   20.4318 N   0  0  0  0  0  0
  -26.2971  -12.9351   20.3347 N   0  0  0  0  0  0
  -25.9372  -11.6500   20.5840 N   0  0  0  0  0  0
  -22.0444  -12.8151   22.0437 N   0  0  0  0  0  0
  -25.3911  -15.1692   20.3804 N   0  0  0  0  0  0
  -31.8023  -14.7779   20.0501 O   0  0  0  0  0  0
  -21.6624   -6.8867   21.4244 O   0  0  0  0  0  0
  -22.3512  -14.5458   20.6729 O   0  0  0  0  0  0
  -24.6252  -31.8598   23.2005 C   0  0  0  0  0  0
  -25.9100  -32.4766   23.8348 C   0  0  1  0  0  0
  -27.2369  -27.3212   20.1153 C   0  0  0  0  0  0
  -25.5918  -33.8580   24.2260 N   0  0  0  0  0  0
  -23.4192  -30.4816   21.5416 C   0  0  2  0  0  0
  -24.8692  -28.9341   20.1127 C   0  0  0  0  0  0
  -22.7467  -29.4619   22.4919 C   0  0  0  0  0  0
  -18.0285  -28.1335   22.8471 C   0  0  0  0  0  0
  -24.1495  -36.7288   23.2644 C   0  0  0  0  0  0
  -25.9621  -30.7888   21.3759 C   0  0  0  0  0  0
  -26.0371  -29.4173   20.7157 C   0  0  0  0  0  0
  -27.2243  -28.6246   20.7034 C   0  0  0  0  0  0
  -26.0420  -26.8916   19.4903 C   0  0  0  0  0  0
  -24.8735  -27.6761   19.4902 C   0  0  0  0  0  0
  -23.6357  -29.8122   20.1603 C   0  0  0  0  0  0
  -25.4114  -36.3072   24.0328 C   0  0  1  0  0  0
  -20.5878  -28.3672   23.1256 C   0  0  2  0  0  0
  -20.6749  -26.9386   22.5396 C   0  0  0  0  0  0
  -19.5739  -26.6342   21.5175 C   0  0  0  0  0  0
  -18.1917  -26.7877   22.1588 C   0  0  0  0  0  0
  -19.1538  -28.8811   23.2863 C   0  0  0  0  0  0
  -18.9484  -30.1414   23.8885 C   0  0  0  0  0  0
  -17.6487  -30.6561   24.0551 C   0  0  0  0  0  0
  -25.9060  -34.9450   23.5096 C   0  0  0  0  0  0
  -16.5368  -29.9068   23.6319 C   0  0  0  0  0  0
  -16.7277  -28.6472   23.0361 C   0  0  0  0  0  0
  -26.4478  -31.6591   25.0717 C   0  0  0  0  0  0
  -25.3690  -31.3769   26.1437 C   0  0  0  0  0  0
  -27.0336  -30.3014   24.6177 C   0  0  0  0  0  0
  -27.6027  -32.4336   25.7489 C   0  0  0  0  0  0
  -27.5578  -37.1791   24.8457 C   0  0  0  0  0  0
  -21.4184  -29.3030   22.3654 N   0  0  0  0  0  0
  -26.4283  -37.3773   23.9407 N   0  0  0  0  0  0
  -24.6864  -31.0607   22.0949 N   0  0  0  0  0  0
  -23.4180  -28.8171   23.3006 O   0  0  0  0  0  0
  -28.3609  -26.4762   20.1680 O   0  0  0  0  0  0
  -26.5644  -34.8906   22.4668 O   0  0  0  0  0  0
  -23.5405  -32.1405   23.7321 O   0  0  0  0  0  0
  -31.3312  -19.3969   20.5110 C   0  0  0  0  0  0
  -31.3482  -17.9797   20.6649 C   0  0  0  0  0  0
  -30.1092  -17.2613   20.7673 C   0  0  0  0  0  0
  -28.9532  -18.1223   20.7963 C   0  0  0  0  0  0
  -30.1367  -20.1413   20.5249 C   0  0  0  0  0  0
  -33.1588  -16.7006   22.0719 C   0  0  0  0  0  0
  -33.7801  -18.0059   21.6462 C   0  0  0  0  0  0
  -32.7087  -17.3611   20.7877 C   0  0  0  0  0  0
  -26.4746  -18.1753   20.1366 C   0  0  0  0  0  0
  -27.5528  -17.5972   21.0782 C   0  0  0  0  0  0
  -29.3180  -23.9875   20.3917 C   0  0  0  0  0  0
  -28.1523  -25.0131   20.0330 C   0  0  0  0  0  0
  -29.0010  -22.4162   20.3303 C   0  0  0  0  0  0
  -28.9699  -19.4901   20.6890 N   0  0  0  0  0  0
  -29.9452  -15.7857   20.9224 N   0  0  0  0  0  0
  -30.1790  -21.5490   20.4277 O   0  0  0  0  0  0
  -31.4686  -12.5069   19.1779 H   0  0  0  0  0  0
  -30.3353  -11.4328   19.9390 H   0  0  0  0  0  0
  -29.7766  -11.7552   17.5039 H   0  0  0  0  0  0
  -29.6473  -13.4810   17.7463 H   0  0  0  0  0  0
  -27.8783  -11.2968   18.8962 H   0  0  0  0  0  0
  -27.3739  -12.5621   17.8039 H   0  0  0  0  0  0
  -27.6529  -14.2618   19.5066 H   0  0  0  0  0  0
  -28.7148  -12.1308   21.4228 H   0  0  0  0  0  0
  -28.4370  -13.8021   21.8234 H   0  0  0  0  0  0
  -25.2766   -9.5611   22.4800 H   0  0  0  0  0  0
  -23.9979   -7.4580   22.7470 H   0  0  0  0  0  0
  -21.0850   -8.8778   19.8952 H   0  0  0  0  0  0
  -22.3742  -10.9664   19.6184 H   0  0  0  0  0  0
  -21.1993   -7.6141   23.9718 H   0  0  0  0  0  0
  -21.1475   -6.0519   25.9085 H   0  0  0  0  0  0
  -22.0599   -2.7598   23.2869 H   0  0  0  0  0  0
  -22.4073  -11.9820   22.4837 H   0  0  0  0  0  0
  -21.1063  -13.1185   22.2648 H   0  0  0  0  0  0
  -24.5924  -15.7889   20.4535 H   0  0  0  0  0  0
  -26.1851  -15.5945   19.9223 H   0  0  0  0  0  0
  -26.7173  -32.5448   23.1114 H   0  0  0  0  0  0
  -25.0052  -33.9730   25.0395 H   0  0  0  0  0  0
  -22.7133  -31.3021   21.3951 H   0  0  0  0  0  0
  -23.3744  -35.9636   23.3304 H   0  0  0  0  0  0
  -24.3597  -36.8899   22.2058 H   0  0  0  0  0  0
  -23.7252  -37.6479   23.6681 H   0  0  0  0  0  0
  -26.1028  -31.5527   20.6086 H   0  0  0  0  0  0
  -26.8406  -30.8361   22.0080 H   0  0  0  0  0  0
  -28.1212  -28.9968   21.1786 H   0  0  0  0  0  0
  -25.9810  -25.9328   18.9998 H   0  0  0  0  0  0
  -23.9805  -27.2981   19.0109 H   0  0  0  0  0  0
  -23.7535  -30.5848   19.4013 H   0  0  0  0  0  0
  -22.7594  -29.2365   19.8572 H   0  0  0  0  0  0
  -25.1292  -36.1937   25.0818 H   0  0  0  0  0  0
  -21.0006  -28.3265   24.1362 H   0  0  0  0  0  0
  -20.5596  -26.2305   23.3624 H   0  0  0  0  0  0
  -21.6625  -26.7352   22.1231 H   0  0  0  0  0  0
  -19.6918  -25.6255   21.1210 H   0  0  0  0  0  0
  -19.6661  -27.3136   20.6688 H   0  0  0  0  0  0
  -17.4181  -26.6617   21.3999 H   0  0  0  0  0  0
  -18.0346  -26.0010   22.8979 H   0  0  0  0  0  0
  -19.7984  -30.7195   24.2245 H   0  0  0  0  0  0
  -17.5065  -31.6245   24.5138 H   0  0  0  0  0  0
  -15.5372  -30.2973   23.7618 H   0  0  0  0  0  0
  -15.8671  -28.0774   22.7091 H   0  0  0  0  0  0
  -24.5878  -30.7087   25.7789 H   0  0  0  0  0  0
  -24.8861  -32.2950   26.4791 H   0  0  0  0  0  0
  -25.7998  -30.9012   27.0261 H   0  0  0  0  0  0
  -26.2919  -29.6750   24.1187 H   0  0  0  0  0  0
  -27.4022  -29.7273   25.4689 H   0  0  0  0  0  0
  -27.8801  -30.4278   23.9423 H   0  0  0  0  0  0
  -27.2618  -33.3645   26.2045 H   0  0  0  0  0  0
  -28.3856  -32.6886   25.0335 H   0  0  0  0  0  0
  -28.0688  -31.8483   26.5420 H   0  0  0  0  0  0
  -28.2579  -38.0106   24.7509 H   0  0  0  0  0  0
  -28.1087  -36.2623   24.6274 H   0  0  0  0  0  0
  -27.2310  -37.1426   25.8868 H   0  0  0  0  0  0
  -20.9355  -29.8824   21.6934 H   0  0  0  0  0  0
  -26.0163  -38.2844   24.1411 H   0  0  0  0  0  0
  -32.2624  -19.9378   20.4197 H   0  0  0  0  0  0
  -32.4735  -16.7218   22.9177 H   0  0  0  0  0  0
  -33.7718  -15.8054   21.9899 H   0  0  0  0  0  0
  -34.8057  -17.9759   21.2824 H   0  0  0  0  0  0
  -33.5196  -18.8891   22.2279 H   0  0  0  0  0  0
  -33.0420  -16.9605   19.8329 H   0  0  0  0  0  0
  -25.4834  -17.8073   20.3980 H   0  0  0  0  0  0
  -26.6692  -17.9185   19.0951 H   0  0  0  0  0  0
  -26.4168  -19.2618   20.2057 H   0  0  0  0  0  0
  -27.3067  -17.8392   22.1134 H   0  0  0  0  0  0
  -27.5383  -16.5135   21.0192 H   0  0  0  0  0  0
  -29.6926  -24.2192   21.3897 H   0  0  0  0  0  0
  -30.1509  -24.1867   19.7194 H   0  0  0  0  0  0
  -27.8774  -24.8162   18.9977 H   0  0  0  0  0  0
  -27.2922  -24.7391   20.6449 H   0  0  0  0  0  0
  -28.4977  -22.1889   19.3898 H   0  0  0  0  0  0
  -28.3010  -22.1563   21.1256 H   0  0  0  0  0  0
  -29.0338  -15.5134   21.2553 H   0  0  0  0  0  0
  1 25  1  0  0  0
  1 30  2  0  0  0
  1 85  1  0  0  0
  2  3  1  0  0  0
  2 25  1  0  0  0
  2 87  1  0  0  0
  2 88  1  0  0  0
  3  4  1  0  0  0
  3 89  1  0  0  0
  3 90  1  0  0  0
  4  5  1  0  0  0
  4 91  1  0  0  0
  4 92  1  0  0  0
  5  6  1  0  0  0
  5 26  1  0  0  0
  5 93  1  0  0  0
  6 25  1  0  0  0
  6 94  1  0  0  0
  6 95  1  0  0  0
  7  8  2  0  0  0
  7 26  1  0  0  0
  7 29  1  0  0  0
  8  9  1  0  0  0
  8 22  1  0  0  0
  9 10  1  0  0  0
  9 27  2  0  0  0
 10 11  2  0  0  0
 10 15  1  0  0  0
 11 12  1  0  0  0
 11 96  1  0  0  0
 12 13  2  0  0  0
 12 97  1  0  0  0
 13 14  1  0  0  0
 13 31  1  0  0  0
 14 15  2  0  0  0
 14 98  1  0  0  0
 15 99  1  0  0  0
 16 17  2  0  0  0
 16 21  1  0  0  0
 16 31  1  0  0  0
 17 18  1  0  0  0
 17100  1  0  0  0
 18 19  2  0  0  0
 18101  1  0  0  0
 19 20  1  0  0  0
 19 24  1  0  0  0
 20 21  2  0  0  0
 20102  1  0  0  0
 21 23  1  0  0  0
 22 28  1  0  0  0
 22 32  2  0  0  0
 26 27  1  0  0  0
 28103  1  0  0  0
 28104  1  0  0  0
 29105  1  0  0  0
 29106  1  0  0  0
 33 34  1  0  0  0
 33 66  1  0  0  0
 33 70  2  0  0  0
 34 36  1  0  0  0
 34 59  1  0  0  0
 34107  1  0  0  0
 35 44  2  0  0  0
 35 45  1  0  0  0
 35 68  1  0  0  0
 36 56  1  0  0  0
 36108  1  0  0  0
 37 39  1  0  0  0
 37 47  1  0  0  0
 37 66  1  0  0  0
 37109  1  0  0  0
 38 43  2  0  0  0
 38 46  1  0  0  0
 38 47  1  0  0  0
 39 64  1  0  0  0
 39 67  2  0  0  0
 40 52  1  0  0  0
 40 53  2  0  0  0
 40 58  1  0  0  0
 41110  1  0  0  0
 41111  1  0  0  0
 41112  1  0  0  0
 41 48  1  0  0  0
 42 43  1  0  0  0
 42 66  1  0  0  0
 42113  1  0  0  0
 42114  1  0  0  0
 43 44  1  0  0  0
 44115  1  0  0  0
 45 46  2  0  0  0
 45116  1  0  0  0
 46117  1  0  0  0
 47118  1  0  0  0
 47119  1  0  0  0
 48 56  1  0  0  0
 48 65  1  0  0  0
 48120  1  0  0  0
 49 50  1  0  0  0
 49 53  1  0  0  0
 49 64  1  0  0  0
 49121  1  0  0  0
 50 51  1  0  0  0
 50122  1  0  0  0
 50123  1  0  0  0
 51 52  1  0  0  0
 51124  1  0  0  0
 51125  1  0  0  0
 52126  1  0  0  0
 52127  1  0  0  0
 53 54  1  0  0  0
 54 55  2  0  0  0
 54128  1  0  0  0
 55 57  1  0  0  0
 55129  1  0  0  0
 56 69  2  0  0  0
 57 58  2  0  0  0
 57130  1  0  0  0
 58131  1  0  0  0
 59 60  1  0  0  0
 59 61  1  0  0  0
 59 62  1  0  0  0
 60132  1  0  0  0
 60133  1  0  0  0
 60134  1  0  0  0
 61135  1  0  0  0
 61136  1  0  0  0
 61137  1  0  0  0
 62138  1  0  0  0
 62139  1  0  0  0
 62140  1  0  0  0
 63 65  1  0  0  0
 63141  1  0  0  0
 63142  1  0  0  0
 63143  1  0  0  0
 64144  1  0  0  0
 65145  1  0  0  0
 68 82  1  0  0  0
 71 72  2  0  0  0
 71 75  1  0  0  0
 71146  1  0  0  0
 72 73  1  0  0  0
 72 78  1  0  0  0
 73 74  2  0  0  0
 73 85  1  0  0  0
 74 80  1  0  0  0
 74 84  1  0  0  0
 75 84  2  0  0  0
 75 86  1  0  0  0
 76 77  1  0  0  0
 76 78  1  0  0  0
 76147  1  0  0  0
 76148  1  0  0  0
 77 78  1  0  0  0
 77149  1  0  0  0
 77150  1  0  0  0
 78151  1  0  0  0
 79 80  1  0  0  0
 79152  1  0  0  0
 79153  1  0  0  0
 79154  1  0  0  0
 80155  1  0  0  0
 80156  1  0  0  0
 81 82  1  0  0  0
 81 83  1  0  0  0
 81157  1  0  0  0
 81158  1  0  0  0
 82159  1  0  0  0
 82160  1  0  0  0
 83 86  1  0  0  0
 83161  1  0  0  0
 83162  1  0  0  0
 85163  1  0  0  0
M  ISO  4   1 100  68 101  82 101  85 100
M  END
> <chiral flag>
0

> <version>
0

> <s_m_source_file>
/data/baiqing/PycharmProjects/Reinvent-master-3.2/result/LINK_invent/BTK/process_docking_weight1_custom_sum_contain_oxygen_bond_distance_aromatic_linkinvent_7_9_3/rearranged_h_0147.sdf

> <i_m_source_file_index>
62

> <r_mmod_Potential_Energy-OPLS-2005>
-96.4973068237305

> <r_mmod_Stretch_Energy-OPLS-2005>
92.7702331542969

> <r_mmod_Bend_Energy-OPLS-2005>
166.212371826172

> <r_mmod_Torsional_Energy-OPLS-2005>
228.492721557617

> <r_mmod_Improper_Torsional_Energy-OPLS-2005>
5.14797830581665

> <r_mmod_Van_der_Waal_Energy-OPLS-2005>
153.019470214844

> <r_mmod_Electrostatic_Energy-OPLS-2005>
-594.786865234375

> <r_mmod_Solvation_Energy-OPLS-2005>
-202.6884765625

> <b_mmod_Minimization_Converged-OPLS-2005>
0

> <r_mmod_RMS_Derivative-OPLS-2005>
3.16883897781372

$$$$
62
                    3D
 Structure written by MMmdl.
166175  0  0  1  0            999 V2000
  -30.5770  -14.7887   20.4598 C   0  0  0  0  0  0
  -30.4347  -12.4923   19.4576 C   0  0  0  0  0  0
  -29.5056  -12.5204   18.2243 C   0  0  0  0  0  0
  -28.0333  -12.3291   18.6406 C   0  0  0  0  0  0
  -27.6306  -13.2313   19.8376 C   0  0  2  0  0  0
  -28.6789  -13.1799   20.9673 C   0  0  0  0  0  0
  -25.2459  -13.8202   20.5688 C   0  0  0  0  0  0
  -24.1758  -13.0433   20.9208 C   0  0  0  0  0  0
  -24.6344  -11.6911   20.8711 C   0  0  0  0  0  0
  -23.9025  -10.4285   21.0381 C   0  0  0  0  0  0
  -24.3597   -9.4215   21.9156 C   0  0  0  0  0  0
  -23.6284   -8.2242   22.0734 C   0  0  0  0  0  0
  -22.4258   -8.0261   21.3540 C   0  0  0  0  0  0
  -21.9886   -9.0219   20.4633 C   0  0  0  0  0  0
  -22.7196  -10.2111   20.3037 C   0  0  0  0  0  0
  -21.6849   -6.0716   22.5278 C   0  0  0  0  0  0
  -21.4006   -6.5628   23.8206 C   0  0  0  0  0  0
  -21.3671   -5.6790   24.9177 C   0  0  0  0  0  0
  -21.6048   -4.3048   24.7231 C   0  0  0  0  0  0
  -21.8823   -3.8134   23.4352 C   0  0  0  0  0  0
  -21.9196   -4.6947   22.3407 C   0  0  0  0  0  0
  -22.7790  -13.5214   21.1898 C   0  0  0  0  0  0
  -22.1660   -4.2131   21.0984 F   0  0  0  0  0  0
  -21.5648   -3.4535   25.7744 F   0  0  0  0  0  0
  -29.9678  -13.5556   20.3736 N   0  0  0  0  0  0
  -26.2865  -12.9391   20.3218 N   0  0  0  0  0  0
  -25.9263  -11.6538   20.5682 N   0  0  0  0  0  0
  -22.0446  -12.8179   22.0465 N   0  0  0  0  0  0
  -25.4141  -15.1928   20.4107 N   0  0  0  0  0  0
  -31.7882  -14.8899   20.2499 O   0  0  0  0  0  0
  -21.6638   -6.8850   21.4230 O   0  0  0  0  0  0
  -22.3465  -14.5523   20.6759 O   0  0  0  0  0  0
  -24.6347  -31.8534   23.1922 C   0  0  0  0  0  0
  -25.9165  -32.4728   23.8287 C   0  0  1  0  0  0
  -27.2272  -27.2290   20.1519 C   0  0  0  0  0  0
  -25.5976  -33.8538   24.2254 N   0  0  0  0  0  0
  -23.4317  -30.4698   21.5369 C   0  0  2  0  0  0
  -24.8802  -28.8920   20.1230 C   0  0  0  0  0  0
  -22.7510  -29.4593   22.4923 C   0  0  0  0  0  0
  -18.0305  -28.1393   22.8487 C   0  0  0  0  0  0
  -24.1482  -36.7286   23.2622 C   0  0  0  0  0  0
  -25.9768  -30.7558   21.3696 C   0  0  0  0  0  0
  -26.0513  -29.3668   20.7284 C   0  0  0  0  0  0
  -27.2282  -28.5504   20.7223 C   0  0  0  0  0  0
  -26.0335  -26.8137   19.5305 C   0  0  0  0  0  0
  -24.8771  -27.6251   19.5105 C   0  0  0  0  0  0
  -23.6533  -29.7865   20.1586 C   0  0  0  0  0  0
  -25.4112  -36.3061   24.0309 C   0  0  1  0  0  0
  -20.5906  -28.3695   23.1288 C   0  0  2  0  0  0
  -20.6794  -26.9407   22.5421 C   0  0  0  0  0  0
  -19.5770  -26.6392   21.5229 C   0  0  0  0  0  0
  -18.1949  -26.7935   22.1635 C   0  0  0  0  0  0
  -19.1552  -28.8867   23.2883 C   0  0  0  0  0  0
  -18.9467  -30.1477   23.8892 C   0  0  0  0  0  0
  -17.6454  -30.6591   24.0573 C   0  0  0  0  0  0
  -25.9046  -34.9428   23.5077 C   0  0  0  0  0  0
  -16.5351  -29.9083   23.6343 C   0  0  0  0  0  0
  -16.7287  -28.6510   23.0355 C   0  0  0  0  0  0
  -26.4487  -31.6516   25.0683 C   0  0  0  0  0  0
  -25.3643  -31.3708   26.1357 C   0  0  0  0  0  0
  -27.0262  -30.2889   24.6176 C   0  0  0  0  0  0
  -27.6028  -32.4221   25.7526 C   0  0  0  0  0  0
  -27.5583  -37.1790   24.8459 C   0  0  0  0  0  0
  -21.4217  -29.3041   22.3667 N   0  0  0  0  0  0
  -26.4290  -37.3755   23.9401 N   0  0  0  0  0  0
  -24.7007  -31.0461   22.0904 N   0  0  0  0  0  0
  -23.4199  -28.8143   23.3045 O   0  0  0  0  0  0
  -28.3637  -26.3888   20.0900 O   0  0  0  0  0  0
  -26.5586  -34.8925   22.4636 O   0  0  0  0  0  0
  -23.5498  -32.1391   23.7190 O   0  0  0  0  0  0
  -27.5177  -21.6961   22.0937 C   0  0  0  0  0  0
  -28.5789  -20.3574   23.8023 C   0  0  0  0  0  0
  -27.5317  -21.1978   23.4038 C   0  0  0  0  0  0
  -29.2422  -20.0534   21.4584 C   0  0  0  0  0  0
  -28.4889  -21.2976   21.1426 C   0  0  0  0  0  0
  -29.4693  -19.8164   22.8462 C   0  0  0  0  0  0
  -29.9280  -24.6187   20.7459 C   0  0  0  0  0  0
  -30.0519  -23.0813   20.9279 C   0  0  0  0  0  0
  -28.0243  -23.5986   19.8941 C   0  0  0  0  0  0
  -28.4392  -24.9703   20.6219 C   0  0  2  0  0  0
  -26.5200  -21.6911   24.4167 C   0  0  0  0  0  0
  -30.8913  -18.9438   24.5937 C   0  0  0  0  0  0
  -29.5284  -18.7761   20.4998 C   0  0  0  0  0  0
  -30.0609  -17.3299   21.1248 C   0  0  0  0  0  0
  -28.9031  -22.4126   20.2970 N   0  0  0  0  0  0
  -29.7680  -15.9183   20.5844 N   0  0  0  0  0  0
  -30.5470  -19.0400   23.2162 O   0  0  0  0  0  0
  -31.4708  -12.6464   19.1523 H   0  0  0  0  0  0
  -30.4040  -11.5184   19.9493 H   0  0  0  0  0  0
  -29.7981  -11.7527   17.5071 H   0  0  0  0  0  0
  -29.6146  -13.4762   17.7084 H   0  0  0  0  0  0
  -27.8971  -11.2795   18.9051 H   0  0  0  0  0  0
  -27.3768  -12.5133   17.7901 H   0  0  0  0  0  0
  -27.6165  -14.2484   19.4475 H   0  0  0  0  0  0
  -28.7298  -12.1830   21.4077 H   0  0  0  0  0  0
  -28.4058  -13.8563   21.7778 H   0  0  0  0  0  0
  -25.2738   -9.5720   22.4724 H   0  0  0  0  0  0
  -24.0014   -7.4647   22.7447 H   0  0  0  0  0  0
  -21.0826   -8.8704   19.8936 H   0  0  0  0  0  0
  -22.3620  -10.9634   19.6152 H   0  0  0  0  0  0
  -21.1966   -7.6130   23.9705 H   0  0  0  0  0  0
  -21.1506   -6.0517   25.9086 H   0  0  0  0  0  0
  -22.0588   -2.7590   23.2854 H   0  0  0  0  0  0
  -22.4073  -11.9842   22.4841 H   0  0  0  0  0  0
  -21.1051  -13.1171   22.2668 H   0  0  0  0  0  0
  -24.6406  -15.8418   20.5065 H   0  0  0  0  0  0
  -26.2561  -15.6339   20.0643 H   0  0  0  0  0  0
  -26.7233  -32.5365   23.1038 H   0  0  0  0  0  0
  -25.0172  -33.9653   25.0427 H   0  0  0  0  0  0
  -22.7310  -31.2938   21.3832 H   0  0  0  0  0  0
  -23.3740  -35.9613   23.3269 H   0  0  0  0  0  0
  -24.3544  -36.8920   22.2029 H   0  0  0  0  0  0
  -23.7242  -37.6495   23.6657 H   0  0  0  0  0  0
  -26.1033  -31.5003   20.5830 H   0  0  0  0  0  0
  -26.8615  -30.8225   21.9915 H   0  0  0  0  0  0
  -28.1350  -28.9165   21.1850 H   0  0  0  0  0  0
  -25.9981  -25.8483   19.0463 H   0  0  0  0  0  0
  -23.9832  -27.2591   19.0239 H   0  0  0  0  0  0
  -23.7785  -30.5549   19.3936 H   0  0  0  0  0  0
  -22.7737  -29.2143   19.8565 H   0  0  0  0  0  0
  -25.1300  -36.1904   25.0796 H   0  0  0  0  0  0
  -21.0008  -28.3264   24.1411 H   0  0  0  0  0  0
  -20.5704  -26.2296   23.3620 H   0  0  0  0  0  0
  -21.6666  -26.7450   22.1207 H   0  0  0  0  0  0
  -19.6927  -25.6319   21.1246 H   0  0  0  0  0  0
  -19.6708  -27.3230   20.6777 H   0  0  0  0  0  0
  -17.4228  -26.6695   21.4029 H   0  0  0  0  0  0
  -18.0329  -26.0077   22.9026 H   0  0  0  0  0  0
  -19.7931  -30.7321   24.2228 H   0  0  0  0  0  0
  -17.5007  -31.6271   24.5187 H   0  0  0  0  0  0
  -15.5359  -30.2987   23.7686 H   0  0  0  0  0  0
  -15.8678  -28.0851   22.7043 H   0  0  0  0  0  0
  -24.5771  -30.7144   25.7625 H   0  0  0  0  0  0
  -24.8918  -32.2915   26.4819 H   0  0  0  0  0  0
  -25.7871  -30.8780   27.0114 H   0  0  0  0  0  0
  -27.4038  -29.7198   25.4683 H   0  0  0  0  0  0
  -26.2732  -29.6643   24.1359 H   0  0  0  0  0  0
  -27.8598  -30.4061   23.9247 H   0  0  0  0  0  0
  -27.2584  -33.3456   26.2205 H   0  0  0  0  0  0
  -28.3844  -32.6876   25.0399 H   0  0  0  0  0  0
  -28.0704  -31.8275   26.5395 H   0  0  0  0  0  0
  -28.2625  -38.0080   24.7514 H   0  0  0  0  0  0
  -28.1083  -36.2611   24.6297 H   0  0  0  0  0  0
  -27.2285  -37.1416   25.8861 H   0  0  0  0  0  0
  -20.9406  -29.8710   21.6824 H   0  0  0  0  0  0
  -26.0165  -38.2831   24.1398 H   0  0  0  0  0  0
  -26.8446  -22.5181   21.9049 H   0  0  0  0  0  0
  -28.6601  -20.1139   24.8519 H   0  0  0  0  0  0
  -30.4332  -24.9015   19.8215 H   0  0  0  0  0  0
  -30.4160  -25.1668   21.5546 H   0  0  0  0  0  0
  -30.0752  -22.8676   21.9990 H   0  0  0  0  0  0
  -30.9915  -22.7078   20.5168 H   0  0  0  0  0  0
  -28.1661  -23.7354   18.8210 H   0  0  0  0  0  0
  -26.9603  -23.3958   20.0109 H   0  0  0  0  0  0
  -28.0002  -24.9657   21.6206 H   0  0  0  0  0  0
  -25.5460  -21.8380   23.9502 H   0  0  0  0  0  0
  -26.8450  -22.6379   24.8476 H   0  0  0  0  0  0
  -26.3969  -20.9696   25.2248 H   0  0  0  0  0  0
  -31.8419  -18.4182   24.6849 H   0  0  0  0  0  0
  -30.1495  -18.3697   25.1499 H   0  0  0  0  0  0
  -31.0106  -19.9255   25.0544 H   0  0  0  0  0  0
  -28.5872  -18.5865   19.9840 H   0  0  0  0  0  0
  -30.2226  -19.0975   19.7249 H   0  0  0  0  0  0
  -29.5732  -17.2277   22.0924 H   0  0  0  0  0  0
  -31.1283  -17.4040   21.3395 H   0  0  0  0  0  0
  -28.7847  -15.6971   20.5519 H   0  0  0  0  0  0
  1 25  1  0  0  0
  1 30  2  0  0  0
  1 86  1  0  0  0
  2  3  1  0  0  0
  2 25  1  0  0  0
  2 88  1  0  0  0
  2 89  1  0  0  0
  3  4  1  0  0  0
  3 90  1  0  0  0
  3 91  1  0  0  0
  4  5  1  0  0  0
  4 92  1  0  0  0
  4 93  1  0  0  0
  5  6  1  0  0  0
  5 26  1  0  0  0
  5 94  1  0  0  0
  6 25  1  0  0  0
  6 95  1  0  0  0
  6 96  1  0  0  0
  7  8  2  0  0  0
  7 26  1  0  0  0
  7 29  1  0  0  0
  8  9  1  0  0  0
  8 22  1  0  0  0
  9 10  1  0  0  0
  9 27  2  0  0  0
 10 11  2  0  0  0
 10 15  1  0  0  0
 11 12  1  0  0  0
 11 97  1  0  0  0
 12 13  2  0  0  0
 12 98  1  0  0  0
 13 14  1  0  0  0
 13 31  1  0  0  0
 14 15  2  0  0  0
 14 99  1  0  0  0
 15100  1  0  0  0
 16 17  2  0  0  0
 16 21  1  0  0  0
 16 31  1  0  0  0
 17 18  1  0  0  0
 17101  1  0  0  0
 18 19  2  0  0  0
 18102  1  0  0  0
 19 20  1  0  0  0
 19 24  1  0  0  0
 20 21  2  0  0  0
 20103  1  0  0  0
 21 23  1  0  0  0
 22 28  1  0  0  0
 22 32  2  0  0  0
 26 27  1  0  0  0
 28104  1  0  0  0
 28105  1  0  0  0
 29106  1  0  0  0
 29107  1  0  0  0
 33 34  1  0  0  0
 33 66  1  0  0  0
 33 70  2  0  0  0
 34 36  1  0  0  0
 34 59  1  0  0  0
 34108  1  0  0  0
 35 44  2  0  0  0
 35 45  1  0  0  0
 35 68  1  0  0  0
 36 56  1  0  0  0
 36109  1  0  0  0
 37 39  1  0  0  0
 37 47  1  0  0  0
 37 66  1  0  0  0
 37110  1  0  0  0
 38 43  2  0  0  0
 38 46  1  0  0  0
 38 47  1  0  0  0
 39 64  1  0  0  0
 39 67  2  0  0  0
 40 52  1  0  0  0
 40 53  2  0  0  0
 40 58  1  0  0  0
 41111  1  0  0  0
 41112  1  0  0  0
 41113  1  0  0  0
 41 48  1  0  0  0
 42 43  1  0  0  0
 42 66  1  0  0  0
 42114  1  0  0  0
 42115  1  0  0  0
 43 44  1  0  0  0
 44116  1  0  0  0
 45 46  2  0  0  0
 45117  1  0  0  0
 46118  1  0  0  0
 47119  1  0  0  0
 47120  1  0  0  0
 48 56  1  0  0  0
 48 65  1  0  0  0
 48121  1  0  0  0
 49 50  1  0  0  0
 49 53  1  0  0  0
 49 64  1  0  0  0
 49122  1  0  0  0
 50 51  1  0  0  0
 50123  1  0  0  0
 50124  1  0  0  0
 51 52  1  0  0  0
 51125  1  0  0  0
 51126  1  0  0  0
 52127  1  0  0  0
 52128  1  0  0  0
 53 54  1  0  0  0
 54 55  2  0  0  0
 54129  1  0  0  0
 55 57  1  0  0  0
 55130  1  0  0  0
 56 69  2  0  0  0
 57 58  2  0  0  0
 57131  1  0  0  0
 58132  1  0  0  0
 59 60  1  0  0  0
 59 61  1  0  0  0
 59 62  1  0  0  0
 60133  1  0  0  0
 60134  1  0  0  0
 60135  1  0  0  0
 61136  1  0  0  0
 61137  1  0  0  0
 61138  1  0  0  0
 62139  1  0  0  0
 62140  1  0  0  0
 62141  1  0  0  0
 63 65  1  0  0  0
 63142  1  0  0  0
 63143  1  0  0  0
 63144  1  0  0  0
 64145  1  0  0  0
 65146  1  0  0  0
 68 80  1  0  0  0
 71 73  2  0  0  0
 71 75  1  0  0  0
 71147  1  0  0  0
 72 73  1  0  0  0
 72 76  2  0  0  0
 72148  1  0  0  0
 73 81  1  0  0  0
 74 75  2  0  0  0
 74 76  1  0  0  0
 74 83  1  0  0  0
 75 85  1  0  0  0
 76 87  1  0  0  0
 77 78  1  0  0  0
 77 80  1  0  0  0
 77149  1  0  0  0
 77150  1  0  0  0
 78 85  1  0  0  0
 78151  1  0  0  0
 78152  1  0  0  0
 79 80  1  0  0  0
 79 85  1  0  0  0
 79153  1  0  0  0
 79154  1  0  0  0
 80155  1  0  0  0
 81156  1  0  0  0
 81157  1  0  0  0
 81158  1  0  0  0
 82 87  1  0  0  0
 82159  1  0  0  0
 82160  1  0  0  0
 82161  1  0  0  0
 83 84  1  0  0  0
 83162  1  0  0  0
 83163  1  0  0  0
 84 86  1  0  0  0
 84164  1  0  0  0
 84165  1  0  0  0
 86166  1  0  0  0
M  ISO  4   1 100  68 101  80 101  86 100
M  END
> <chiral flag>
0

> <version>
0

> <s_m_source_file>
/data/baiqing/PycharmProjects/Reinvent-master-3.2/result/LINK_invent/BTK/process_docking_weight1_custom_sum_contain_oxygen_bond_distance_aromatic_linkinvent_7_9_3/rearranged_h_0147.sdf

> <i_m_source_file_index>
63

> <r_mmod_Potential_Energy-OPLS-2005>
513.76708984375

> <r_mmod_Stretch_Energy-OPLS-2005>
161.688781738281

> <r_mmod_Bend_Energy-OPLS-2005>
268.407806396484

> <r_mmod_Torsional_Energy-OPLS-2005>
436.583618164062

> <r_mmod_Improper_Torsional_Energy-OPLS-2005>
20.3453216552734

> <r_mmod_Van_der_Waal_Energy-OPLS-2005>
146.724639892578

> <r_mmod_Electrostatic_Energy-OPLS-2005>
-384.424774169922

> <r_mmod_Solvation_Energy-OPLS-2005>
-237.488784790039

> <b_mmod_Minimization_Converged-OPLS-2005>
0

> <r_mmod_RMS_Derivative-OPLS-2005>
2.81068205833435

$$$$
63
                    3D
 Structure written by MMmdl.
168177  0  0  1  0            999 V2000
  -30.6769  -14.5103   20.4535 C   0  0  0  0  0  0
  -30.4246  -12.2932   19.4382 C   0  0  0  0  0  0
  -29.4938  -12.4430   18.2138 C   0  0  0  0  0  0
  -28.0133  -12.3291   18.6283 C   0  0  0  0  0  0
  -27.6571  -13.1981   19.8636 C   0  0  2  0  0  0
  -28.7067  -13.0312   20.9900 C   0  0  0  0  0  0
  -25.2594  -13.8125   20.5690 C   0  0  0  0  0  0
  -24.1835  -13.0432   20.9204 C   0  0  0  0  0  0
  -24.6368  -11.6887   20.8758 C   0  0  0  0  0  0
  -23.9028  -10.4288   21.0412 C   0  0  0  0  0  0
  -24.3587   -9.4201   21.9190 C   0  0  0  0  0  0
  -23.6289   -8.2220   22.0747 C   0  0  0  0  0  0
  -22.4267   -8.0254   21.3544 C   0  0  0  0  0  0
  -21.9891   -9.0221   20.4647 C   0  0  0  0  0  0
  -22.7203  -10.2115   20.3065 C   0  0  0  0  0  0
  -21.6845   -6.0722   22.5286 C   0  0  0  0  0  0
  -21.4000   -6.5630   23.8219 C   0  0  0  0  0  0
  -21.3668   -5.6789   24.9189 C   0  0  0  0  0  0
  -21.6045   -4.3049   24.7237 C   0  0  0  0  0  0
  -21.8826   -3.8138   23.4363 C   0  0  0  0  0  0
  -21.9193   -4.6952   22.3417 C   0  0  0  0  0  0
  -22.7863  -13.5233   21.1873 C   0  0  0  0  0  0
  -22.1661   -4.2131   21.0998 F   0  0  0  0  0  0
  -21.5643   -3.4541   25.7757 F   0  0  0  0  0  0
  -30.0377  -13.3114   20.4252 N   0  0  0  0  0  0
  -26.3014  -12.9273   20.3352 N   0  0  0  0  0  0
  -25.9295  -11.6452   20.5803 N   0  0  0  0  0  0
  -22.0511  -12.8226   22.0441 N   0  0  0  0  0  0
  -25.4371  -15.1831   20.4082 N   0  0  0  0  0  0
  -31.8537  -14.6568   20.1209 O   0  0  0  0  0  0
  -21.6641   -6.8847   21.4240 O   0  0  0  0  0  0
  -22.3553  -14.5552   20.6748 O   0  0  0  0  0  0
  -24.6134  -31.8682   23.2116 C   0  0  0  0  0  0
  -25.9021  -32.4816   23.8408 C   0  0  1  0  0  0
  -27.2334  -27.4493   20.0887 C   0  0  0  0  0  0
  -25.5892  -33.8621   24.2358 N   0  0  0  0  0  0
  -23.3997  -30.4922   21.5509 C   0  0  2  0  0  0
  -24.8461  -28.9582   20.1141 C   0  0  0  0  0  0
  -22.7402  -29.4670   22.4996 C   0  0  0  0  0  0
  -18.0273  -28.1395   22.8496 C   0  0  0  0  0  0
  -24.1483  -36.7314   23.2641 C   0  0  0  0  0  0
  -25.9258  -30.8392   21.3586 C   0  0  0  0  0  0
  -26.0057  -29.4736   20.7083 C   0  0  0  0  0  0
  -27.2060  -28.7271   20.6888 C   0  0  0  0  0  0
  -26.0600  -26.9396   19.4953 C   0  0  0  0  0  0
  -24.8692  -27.6923   19.5014 C   0  0  0  0  0  0
  -23.6060  -29.8229   20.1646 C   0  0  0  0  0  0
  -25.4094  -36.3105   24.0348 C   0  0  1  0  0  0
  -20.5860  -28.3673   23.1338 C   0  0  2  0  0  0
  -20.6767  -26.9415   22.5426 C   0  0  0  0  0  0
  -19.5745  -26.6401   21.5224 C   0  0  0  0  0  0
  -18.1923  -26.7946   22.1626 C   0  0  0  0  0  0
  -19.1518  -28.8849   23.2917 C   0  0  0  0  0  0
  -18.9452  -30.1462   23.8919 C   0  0  0  0  0  0
  -17.6453  -30.6598   24.0578 C   0  0  0  0  0  0
  -25.9018  -34.9470   23.5145 C   0  0  0  0  0  0
  -16.5344  -29.9105   23.6322 C   0  0  0  0  0  0
  -16.7264  -28.6526   23.0329 C   0  0  0  0  0  0
  -26.4467  -31.6578   25.0721 C   0  0  0  0  0  0
  -25.3769  -31.3676   26.1505 C   0  0  0  0  0  0
  -27.0275  -30.3027   24.6045 C   0  0  0  0  0  0
  -27.6075  -32.4268   25.7456 C   0  0  0  0  0  0
  -27.5574  -37.1805   24.8467 C   0  0  0  0  0  0
  -21.4125  -29.3042   22.3745 N   0  0  0  0  0  0
  -26.4283  -37.3785   23.9422 N   0  0  0  0  0  0
  -24.6643  -31.0800   22.0995 N   0  0  0  0  0  0
  -23.4186  -28.8215   23.3029 O   0  0  0  0  0  0
  -28.3929  -26.7128   20.0543 O   0  0  0  0  0  0
  -26.5572  -34.8928   22.4707 O   0  0  0  0  0  0
  -23.5327  -32.1426   23.7531 O   0  0  0  0  0  0
  -29.4953  -21.4448   19.5284 C   0  0  0  0  0  0
  -30.3622  -19.3138   20.3612 C   0  0  0  0  0  0
  -29.9272  -20.1191   19.2705 C   0  0  0  0  0  0
  -30.2940  -19.8974   21.6539 C   0  0  0  0  0  0
  -29.4744  -21.9197   20.8469 C   0  0  0  0  0  0
  -31.4910  -17.0040   17.9064 C   0  0  0  0  0  0
  -32.0248  -17.8106   19.0982 C   0  0  0  0  0  0
  -30.0592  -16.5772   18.2480 C   0  0  0  0  0  0
  -30.9175  -17.8750   20.1693 C   0  0  2  0  0  0
  -29.8528  -16.8252   19.7559 C   0  0  2  0  0  0
  -30.7455  -19.1783   22.9123 C   0  0  0  0  0  0
  -29.2881  -20.2925   16.9532 C   0  0  0  0  0  0
  -28.8383  -24.2783   20.2398 C   0  0  0  0  0  0
  -28.4150  -25.5902   20.9417 C   0  0  0  0  0  0
  -29.8567  -21.1568   21.8783 N   0  0  0  0  0  0
  -29.0576  -23.2049   21.2102 N   0  0  0  0  0  0
  -29.8373  -15.5618   20.5347 N   0  0  0  0  0  0
  -29.9588  -19.5962   17.9967 O   0  0  0  0  0  0
  -31.4685  -12.3830   19.1348 H   0  0  0  0  0  0
  -30.3229  -11.2979   19.8715 H   0  0  0  0  0  0
  -29.7274  -11.6748   17.4752 H   0  0  0  0  0  0
  -29.6689  -13.3932   17.7130 H   0  0  0  0  0  0
  -27.8190  -11.2788   18.8468 H   0  0  0  0  0  0
  -27.3653  -12.5844   17.7894 H   0  0  0  0  0  0
  -27.6823  -14.2326   19.5230 H   0  0  0  0  0  0
  -28.6807  -12.0167   21.3908 H   0  0  0  0  0  0
  -28.4811  -13.6910   21.8304 H   0  0  0  0  0  0
  -25.2723   -9.5685   22.4779 H   0  0  0  0  0  0
  -24.0013   -7.4593   22.7439 H   0  0  0  0  0  0
  -21.0831   -8.8707   19.8948 H   0  0  0  0  0  0
  -22.3630  -10.9645   19.6177 H   0  0  0  0  0  0
  -21.1980   -7.6134   23.9716 H   0  0  0  0  0  0
  -21.1491   -6.0524   25.9089 H   0  0  0  0  0  0
  -22.0605   -2.7596   23.2878 H   0  0  0  0  0  0
  -22.4128  -11.9865   22.4791 H   0  0  0  0  0  0
  -21.1145  -13.1241   22.2696 H   0  0  0  0  0  0
  -24.6705  -15.8408   20.5034 H   0  0  0  0  0  0
  -26.2910  -15.6151   20.0804 H   0  0  0  0  0  0
  -26.7101  -32.5533   23.1182 H   0  0  0  0  0  0
  -25.0074  -33.9791   25.0521 H   0  0  0  0  0  0
  -22.6880  -31.3089   21.4139 H   0  0  0  0  0  0
  -23.3739  -35.9648   23.3286 H   0  0  0  0  0  0
  -24.3597  -36.8940   22.2061 H   0  0  0  0  0  0
  -23.7233  -37.6521   23.6654 H   0  0  0  0  0  0
  -26.0292  -31.6041   20.5873 H   0  0  0  0  0  0
  -26.8181  -30.9006   21.9696 H   0  0  0  0  0  0
  -28.1057  -29.1265   21.1373 H   0  0  0  0  0  0
  -26.0688  -25.9670   19.0228 H   0  0  0  0  0  0
  -23.9800  -27.2975   19.0306 H   0  0  0  0  0  0
  -23.7123  -30.5990   19.4053 H   0  0  0  0  0  0
  -22.7291  -29.2424   19.8700 H   0  0  0  0  0  0
  -25.1266  -36.1971   25.0837 H   0  0  0  0  0  0
  -20.9954  -28.3234   24.1455 H   0  0  0  0  0  0
  -20.5688  -26.2277   23.3605 H   0  0  0  0  0  0
  -21.6637  -26.7480   22.1199 H   0  0  0  0  0  0
  -19.6905  -25.6316   21.1238 H   0  0  0  0  0  0
  -19.6686  -27.3223   20.6765 H   0  0  0  0  0  0
  -17.4194  -26.6702   21.4026 H   0  0  0  0  0  0
  -18.0320  -26.0093   22.9025 H   0  0  0  0  0  0
  -19.7929  -30.7280   24.2285 H   0  0  0  0  0  0
  -17.5008  -31.6270   24.5195 H   0  0  0  0  0  0
  -15.5343  -30.3016   23.7644 H   0  0  0  0  0  0
  -15.8664  -28.0872   22.7001 H   0  0  0  0  0  0
  -24.5905  -30.7056   25.7860 H   0  0  0  0  0  0
  -24.9009  -32.2837   26.5021 H   0  0  0  0  0  0
  -25.8163  -30.8796   27.0218 H   0  0  0  0  0  0
  -26.2785  -29.6784   24.1160 H   0  0  0  0  0  0
  -27.4146  -29.7259   25.4453 H   0  0  0  0  0  0
  -27.8577  -30.4371   23.9107 H   0  0  0  0  0  0
  -27.2744  -33.3592   26.2032 H   0  0  0  0  0  0
  -28.3878  -32.6777   25.0253 H   0  0  0  0  0  0
  -28.0737  -31.8373   26.5364 H   0  0  0  0  0  0
  -28.2592  -38.0102   24.7503 H   0  0  0  0  0  0
  -28.1073  -36.2638   24.6286 H   0  0  0  0  0  0
  -27.2313  -37.1445   25.8878 H   0  0  0  0  0  0
  -20.9286  -29.8772   21.6976 H   0  0  0  0  0  0
  -26.0171  -38.2865   24.1425 H   0  0  0  0  0  0
  -29.1852  -22.0987   18.7276 H   0  0  0  0  0  0
  -32.1237  -16.1329   17.7382 H   0  0  0  0  0  0
  -31.5144  -17.5923   16.9874 H   0  0  0  0  0  0
  -32.3700  -18.7994   18.7926 H   0  0  0  0  0  0
  -32.8992  -17.3000   19.5061 H   0  0  0  0  0  0
  -29.8650  -15.5529   17.9414 H   0  0  0  0  0  0
  -29.3546  -17.1851   17.6801 H   0  0  0  0  0  0
  -31.3715  -17.5462   21.1004 H   0  0  0  0  0  0
  -28.8583  -17.2493   19.8988 H   0  0  0  0  0  0
  -30.2789  -18.1979   23.0031 H   0  0  0  0  0  0
  -30.4893  -19.7439   23.8095 H   0  0  0  0  0  0
  -31.8281  -19.0482   22.9017 H   0  0  0  0  0  0
  -29.2902  -19.6838   16.0486 H   0  0  0  0  0  0
  -29.7826  -21.2351   16.7142 H   0  0  0  0  0  0
  -28.2462  -20.4848   17.2134 H   0  0  0  0  0  0
  -29.7543  -24.4362   19.6692 H   0  0  0  0  0  0
  -28.0666  -23.9745   19.5298 H   0  0  0  0  0  0
  -29.1271  -25.8301   21.7331 H   0  0  0  0  0  0
  -27.4529  -25.4425   21.4365 H   0  0  0  0  0  0
  -29.1293  -23.4596   22.1898 H   0  0  0  0  0  0
  -28.9299  -15.3169   20.8992 H   0  0  0  0  0  0
  1 25  1  0  0  0
  1 30  2  0  0  0
  1 87  1  0  0  0
  2  3  1  0  0  0
  2 25  1  0  0  0
  2 89  1  0  0  0
  2 90  1  0  0  0
  3  4  1  0  0  0
  3 91  1  0  0  0
  3 92  1  0  0  0
  4  5  1  0  0  0
  4 93  1  0  0  0
  4 94  1  0  0  0
  5  6  1  0  0  0
  5 26  1  0  0  0
  5 95  1  0  0  0
  6 25  1  0  0  0
  6 96  1  0  0  0
  6 97  1  0  0  0
  7  8  2  0  0  0
  7 26  1  0  0  0
  7 29  1  0  0  0
  8  9  1  0  0  0
  8 22  1  0  0  0
  9 10  1  0  0  0
  9 27  2  0  0  0
 10 11  2  0  0  0
 10 15  1  0  0  0
 11 12  1  0  0  0
 11 98  1  0  0  0
 12 13  2  0  0  0
 12 99  1  0  0  0
 13 14  1  0  0  0
 13 31  1  0  0  0
 14 15  2  0  0  0
 14100  1  0  0  0
 15101  1  0  0  0
 16 17  2  0  0  0
 16 21  1  0  0  0
 16 31  1  0  0  0
 17 18  1  0  0  0
 17102  1  0  0  0
 18 19  2  0  0  0
 18103  1  0  0  0
 19 20  1  0  0  0
 19 24  1  0  0  0
 20 21  2  0  0  0
 20104  1  0  0  0
 21 23  1  0  0  0
 22 28  1  0  0  0
 22 32  2  0  0  0
 26 27  1  0  0  0
 28105  1  0  0  0
 28106  1  0  0  0
 29107  1  0  0  0
 29108  1  0  0  0
 33 34  1  0  0  0
 33 66  1  0  0  0
 33 70  2  0  0  0
 34 36  1  0  0  0
 34 59  1  0  0  0
 34109  1  0  0  0
 35 44  2  0  0  0
 35 45  1  0  0  0
 35 68  1  0  0  0
 36 56  1  0  0  0
 36110  1  0  0  0
 37 39  1  0  0  0
 37 47  1  0  0  0
 37 66  1  0  0  0
 37111  1  0  0  0
 38 43  2  0  0  0
 38 46  1  0  0  0
 38 47  1  0  0  0
 39 64  1  0  0  0
 39 67  2  0  0  0
 40 52  1  0  0  0
 40 53  2  0  0  0
 40 58  1  0  0  0
 41112  1  0  0  0
 41113  1  0  0  0
 41114  1  0  0  0
 41 48  1  0  0  0
 42 43  1  0  0  0
 42 66  1  0  0  0
 42115  1  0  0  0
 42116  1  0  0  0
 43 44  1  0  0  0
 44117  1  0  0  0
 45 46  2  0  0  0
 45118  1  0  0  0
 46119  1  0  0  0
 47120  1  0  0  0
 47121  1  0  0  0
 48 56  1  0  0  0
 48 65  1  0  0  0
 48122  1  0  0  0
 49 50  1  0  0  0
 49 53  1  0  0  0
 49 64  1  0  0  0
 49123  1  0  0  0
 50 51  1  0  0  0
 50124  1  0  0  0
 50125  1  0  0  0
 51 52  1  0  0  0
 51126  1  0  0  0
 51127  1  0  0  0
 52128  1  0  0  0
 52129  1  0  0  0
 53 54  1  0  0  0
 54 55  2  0  0  0
 54130  1  0  0  0
 55 57  1  0  0  0
 55131  1  0  0  0
 56 69  2  0  0  0
 57 58  2  0  0  0
 57132  1  0  0  0
 58133  1  0  0  0
 59 60  1  0  0  0
 59 61  1  0  0  0
 59 62  1  0  0  0
 60134  1  0  0  0
 60135  1  0  0  0
 60136  1  0  0  0
 61137  1  0  0  0
 61138  1  0  0  0
 61139  1  0  0  0
 62140  1  0  0  0
 62141  1  0  0  0
 62142  1  0  0  0
 63 65  1  0  0  0
 63143  1  0  0  0
 63144  1  0  0  0
 63145  1  0  0  0
 64146  1  0  0  0
 65147  1  0  0  0
 68 84  1  0  0  0
 71 73  2  0  0  0
 71 75  1  0  0  0
 71148  1  0  0  0
 72 73  1  0  0  0
 72 74  2  0  0  0
 72 79  1  0  0  0
 73 88  1  0  0  0
 74 81  1  0  0  0
 74 85  1  0  0  0
 75 85  2  0  0  0
 75 86  1  0  0  0
 76 77  1  0  0  0
 76 78  1  0  0  0
 76149  1  0  0  0
 76150  1  0  0  0
 77 79  1  0  0  0
 77151  1  0  0  0
 77152  1  0  0  0
 78 80  1  0  0  0
 78153  1  0  0  0
 78154  1  0  0  0
 79 80  1  0  0  0
 79155  1  0  0  0
 80 87  1  0  0  0
 80156  1  0  0  0
 81157  1  0  0  0
 81158  1  0  0  0
 81159  1  0  0  0
 82 88  1  0  0  0
 82160  1  0  0  0
 82161  1  0  0  0
 82162  1  0  0  0
 83 84  1  0  0  0
 83 86  1  0  0  0
 83163  1  0  0  0
 83164  1  0  0  0
 84165  1  0  0  0
 84166  1  0  0  0
 86167  1  0  0  0
 87168  1  0  0  0
M  ISO  4   1 100  68 101  84 101  87 100
M  END
> <chiral flag>
0

> <version>
0

> <s_m_source_file>
/data/baiqing/PycharmProjects/Reinvent-master-3.2/result/LINK_invent/BTK/process_docking_weight1_custom_sum_contain_oxygen_bond_distance_aromatic_linkinvent_7_9_3/rearranged_h_0147.sdf

> <i_m_source_file_index>
64

> <r_mmod_Potential_Energy-OPLS-2005>
-264.491546630859

> <r_mmod_Stretch_Energy-OPLS-2005>
39.5628852844238

> <r_mmod_Bend_Energy-OPLS-2005>
129.838287353516

> <r_mmod_Torsional_Energy-OPLS-2005>
300.131072998047

> <r_mmod_Improper_Torsional_Energy-OPLS-2005>
11.1310367584229

> <r_mmod_Van_der_Waal_Energy-OPLS-2005>
155.46955871582

> <r_mmod_Electrostatic_Energy-OPLS-2005>
-686.65234375

> <r_mmod_Solvation_Energy-OPLS-2005>
-233.034469604492

> <b_mmod_Minimization_Converged-OPLS-2005>
0

> <r_mmod_RMS_Derivative-OPLS-2005>
2.66798830032349

$$$$
64
                    3D
 Structure written by MMmdl.
162170  0  0  1  0            999 V2000
  -30.4723  -15.1299   20.3855 C   0  0  0  0  0  0
  -30.4427  -12.7118   19.5123 C   0  0  0  0  0  0
  -29.5297  -12.5544   18.2718 C   0  0  0  0  0  0
  -28.0707  -12.3053   18.6959 C   0  0  0  0  0  0
  -27.6195  -13.2624   19.8286 C   0  0  2  0  0  0
  -28.6583  -13.3710   20.9644 C   0  0  0  0  0  0
  -25.2425  -13.8233   20.5729 C   0  0  0  0  0  0
  -24.1762  -13.0439   20.9250 C   0  0  0  0  0  0
  -24.6398  -11.6930   20.8761 C   0  0  0  0  0  0
  -23.9087  -10.4294   21.0408 C   0  0  0  0  0  0
  -24.3633   -9.4208   21.9185 C   0  0  0  0  0  0
  -23.6303   -8.2245   22.0754 C   0  0  0  0  0  0
  -22.4284   -8.0284   21.3544 C   0  0  0  0  0  0
  -21.9925   -9.0259   20.4646 C   0  0  0  0  0  0
  -22.7259  -10.2135   20.3056 C   0  0  0  0  0  0
  -21.6856   -6.0739   22.5279 C   0  0  0  0  0  0
  -21.4016   -6.5642   23.8213 C   0  0  0  0  0  0
  -21.3659   -5.6794   24.9174 C   0  0  0  0  0  0
  -21.6043   -4.3056   24.7224 C   0  0  0  0  0  0
  -21.8819   -3.8149   23.4344 C   0  0  0  0  0  0
  -21.9194   -4.6967   22.3402 C   0  0  0  0  0  0
  -22.7780  -13.5200   21.1896 C   0  0  0  0  0  0
  -22.1662   -4.2153   21.0979 F   0  0  0  0  0  0
  -21.5627   -3.4539   25.7735 F   0  0  0  0  0  0
  -29.9089  -13.8374   20.3488 N   0  0  0  0  0  0
  -26.2846  -12.9486   20.3221 N   0  0  0  0  0  0
  -25.9331  -11.6604   20.5727 N   0  0  0  0  0  0
  -22.0435  -12.8182   22.0448 N   0  0  0  0  0  0
  -25.4065  -15.1966   20.4146 N   0  0  0  0  0  0
  -31.6878  -15.1709   20.1567 O   0  0  0  0  0  0
  -21.6644   -6.8883   21.4241 O   0  0  0  0  0  0
  -22.3462  -14.5503   20.6737 O   0  0  0  0  0  0
  -24.6550  -31.8316   23.1768 C   0  0  0  0  0  0
  -25.9269  -32.4629   23.8202 C   0  0  1  0  0  0
  -27.2191  -27.0113   20.1725 C   0  0  0  0  0  0
  -25.5969  -33.8440   24.2115 N   0  0  0  0  0  0
  -23.4654  -30.4460   21.5245 C   0  0  2  0  0  0
  -24.9172  -28.8473   20.1118 C   0  0  0  0  0  0
  -22.7627  -29.4483   22.4810 C   0  0  0  0  0  0
  -18.0314  -28.1406   22.8471 C   0  0  0  0  0  0
  -24.1493  -36.7225   23.2646 C   0  0  0  0  0  0
  -26.0291  -30.6660   21.3932 C   0  0  0  0  0  0
  -26.0988  -29.2639   20.7374 C   0  0  0  0  0  0
  -27.2475  -28.3658   20.7436 C   0  0  0  0  0  0
  -26.0086  -26.7248   19.5037 C   0  0  0  0  0  0
  -24.8925  -27.5959   19.4761 C   0  0  0  0  0  0
  -23.6998  -29.7656   20.1484 C   0  0  0  0  0  0
  -25.4130  -36.2991   24.0306 C   0  0  1  0  0  0
  -20.5935  -28.3743   23.1206 C   0  0  2  0  0  0
  -20.6795  -26.9433   22.5403 C   0  0  0  0  0  0
  -19.5770  -26.6380   21.5213 C   0  0  0  0  0  0
  -18.1951  -26.7941   22.1622 C   0  0  0  0  0  0
  -19.1575  -28.8893   23.2827 C   0  0  0  0  0  0
  -18.9488  -30.1486   23.8859 C   0  0  0  0  0  0
  -17.6484  -30.6597   24.0559 C   0  0  0  0  0  0
  -25.9090  -34.9372   23.5026 C   0  0  0  0  0  0
  -16.5373  -29.9088   23.6342 C   0  0  0  0  0  0
  -16.7297  -28.6509   23.0359 C   0  0  0  0  0  0
  -26.4548  -31.6544   25.0697 C   0  0  0  0  0  0
  -25.3697  -31.3772   26.1368 C   0  0  0  0  0  0
  -27.0435  -30.2924   24.6369 C   0  0  0  0  0  0
  -27.6052  -32.4338   25.7497 C   0  0  0  0  0  0
  -27.5571  -37.1770   24.8466 C   0  0  0  0  0  0
  -21.4305  -29.3048   22.3562 N   0  0  0  0  0  0
  -26.4281  -37.3719   23.9409 N   0  0  0  0  0  0
  -24.7374  -31.0058   22.0859 N   0  0  0  0  0  0
  -23.4214  -28.8044   23.3014 O   0  0  0  0  0  0
  -28.2477  -25.9604   20.2456 O   0  0  0  0  0  0
  -26.5691  -34.8895   22.4615 O   0  0  0  0  0  0
  -23.5640  -32.1245   23.6914 O   0  0  0  0  0  0
  -29.2500  -18.8675   19.2150 C   0  0  0  0  0  0
  -29.3907  -20.5548   21.5273 C   0  0  0  0  0  0
  -29.8577  -17.9774   20.4205 C   0  0  1  0  0  0
  -29.3451  -20.5293   19.1726 C   0  0  1  0  0  0
  -29.2565  -18.8974   21.6114 C   0  0  0  0  0  0
  -28.7181  -21.0357   17.8634 C   0  0  0  0  0  0
  -27.7675  -18.5469   21.8396 C   0  0  0  0  0  0
  -30.0049  -18.4605   22.8863 C   0  0  0  0  0  0
  -29.0814  -23.0061   20.3837 C   0  0  0  0  0  0
  -28.0005  -24.3652   20.1252 C   0  0  0  0  0  0
  -29.6713  -16.3451   20.4767 N   0  0  0  0  0  0
  -28.8219  -21.3735   20.3531 N   0  3  2  0  0  0
  -31.4673  -12.9012   19.1892 H   0  0  0  0  0  0
  -30.4811  -11.7853   20.0875 H   0  0  0  0  0  0
  -29.8827  -11.7382   17.6401 H   0  0  0  0  0  0
  -29.5834  -13.4587   17.6636 H   0  0  0  0  0  0
  -28.0009  -11.2728   19.0400 H   0  0  0  0  0  0
  -27.4036  -12.3864   17.8368 H   0  0  0  0  0  0
  -27.5558  -14.2456   19.3613 H   0  0  0  0  0  0
  -28.7918  -12.4166   21.4759 H   0  0  0  0  0  0
  -28.3251  -14.0850   21.7193 H   0  0  0  0  0  0
  -25.2775   -9.5683   22.4765 H   0  0  0  0  0  0
  -24.0009   -7.4635   22.7474 H   0  0  0  0  0  0
  -21.0857   -8.8781   19.8950 H   0  0  0  0  0  0
  -22.3718  -10.9676   19.6167 H   0  0  0  0  0  0
  -21.2011   -7.6151   23.9718 H   0  0  0  0  0  0
  -21.1480   -6.0523   25.9077 H   0  0  0  0  0  0
  -22.0598   -2.7611   23.2843 H   0  0  0  0  0  0
  -22.4065  -11.9849   22.4835 H   0  0  0  0  0  0
  -21.1045  -13.1187   22.2647 H   0  0  0  0  0  0
  -24.6315  -15.8417   20.5223 H   0  0  0  0  0  0
  -26.2370  -15.6366   20.0425 H   0  0  0  0  0  0
  -26.7334  -32.5193   23.0920 H   0  0  0  0  0  0
  -25.0080  -33.9533   25.0240 H   0  0  0  0  0  0
  -22.7746  -31.2753   21.3595 H   0  0  0  0  0  0
  -23.3763  -35.9547   23.3285 H   0  0  0  0  0  0
  -24.3573  -36.8888   22.2065 H   0  0  0  0  0  0
  -23.7241  -37.6407   23.6709 H   0  0  0  0  0  0
  -26.1979  -31.4123   20.6157 H   0  0  0  0  0  0
  -26.8941  -30.7211   22.0426 H   0  0  0  0  0  0
  -28.1449  -28.6828   21.2561 H   0  0  0  0  0  0
  -25.8912  -25.7690   19.0152 H   0  0  0  0  0  0
  -23.9928  -27.2717   18.9712 H   0  0  0  0  0  0
  -23.8485  -30.5360   19.3909 H   0  0  0  0  0  0
  -22.8114  -29.2156   19.8334 H   0  0  0  0  0  0
  -25.1325  -36.1798   25.0797 H   0  0  0  0  0  0
  -21.0023  -28.3345   24.1329 H   0  0  0  0  0  0
  -20.5680  -26.2361   23.3636 H   0  0  0  0  0  0
  -21.6660  -26.7421   22.1206 H   0  0  0  0  0  0
  -19.6932  -25.6281   21.1266 H   0  0  0  0  0  0
  -19.6709  -27.3171   20.6728 H   0  0  0  0  0  0
  -17.4220  -26.6683   21.4025 H   0  0  0  0  0  0
  -18.0347  -26.0092   22.9026 H   0  0  0  0  0  0
  -19.7965  -30.7311   24.2211 H   0  0  0  0  0  0
  -17.5037  -31.6274   24.5169 H   0  0  0  0  0  0
  -15.5372  -30.2980   23.7690 H   0  0  0  0  0  0
  -15.8697  -28.0817   22.7093 H   0  0  0  0  0  0
  -24.5894  -30.7103   25.7683 H   0  0  0  0  0  0
  -24.8866  -32.2965   26.4689 H   0  0  0  0  0  0
  -25.7948  -30.9014   27.0214 H   0  0  0  0  0  0
  -26.3085  -29.6615   24.1359 H   0  0  0  0  0  0
  -27.3986  -29.7266   25.4992 H   0  0  0  0  0  0
  -27.9016  -30.4131   23.9753 H   0  0  0  0  0  0
  -27.2629  -33.3677   26.1969 H   0  0  0  0  0  0
  -28.3920  -32.6837   25.0367 H   0  0  0  0  0  0
  -28.0655  -31.8531   26.5501 H   0  0  0  0  0  0
  -28.2572  -38.0081   24.7510 H   0  0  0  0  0  0
  -28.1080  -36.2606   24.6295 H   0  0  0  0  0  0
  -27.2285  -37.1415   25.8868 H   0  0  0  0  0  0
  -20.9541  -29.8749   21.6714 H   0  0  0  0  0  0
  -26.0134  -38.2779   24.1416 H   0  0  0  0  0  0
  -28.2038  -18.5940   19.0824 H   0  0  0  0  0  0
  -29.7255  -18.5034   18.3037 H   0  0  0  0  0  0
  -30.4528  -20.7992   21.5829 H   0  0  0  0  0  0
  -28.9613  -20.9796   22.4355 H   0  0  0  0  0  0
  -30.9380  -18.1312   20.3983 H   0  0  0  0  0  0
  -30.4111  -20.7562   19.1110 H   0  0  0  0  0  0
  -27.6404  -20.8721   17.8497 H   0  0  0  0  0  0
  -29.1405  -20.5165   17.0027 H   0  0  0  0  0  0
  -28.8976  -22.1000   17.7127 H   0  0  0  0  0  0
  -27.1297  -18.8628   21.0153 H   0  0  0  0  0  0
  -27.3802  -19.0336   22.7355 H   0  0  0  0  0  0
  -27.6188  -17.4752   21.9734 H   0  0  0  0  0  0
  -31.0734  -18.6652   22.8089 H   0  0  0  0  0  0
  -29.8928  -17.3924   23.0762 H   0  0  0  0  0  0
  -29.6385  -18.9850   23.7697 H   0  0  0  0  0  0
  -29.4784  -23.1868   21.3824 H   0  0  0  0  0  0
  -29.9415  -23.1753   19.7363 H   0  0  0  0  0  0
  -27.1446  -24.1796   20.7742 H   0  0  0  0  0  0
  -27.6111  -24.2257   19.1171 H   0  0  0  0  0  0
  -28.7035  -16.0982   20.6161 H   0  0  0  0  0  0
  -27.8212  -21.2447   20.3955 H   0  0  0  0  0  0
  1 25  1  0  0  0
  1 30  2  0  0  0
  1 81  1  0  0  0
  2  3  1  0  0  0
  2 25  1  0  0  0
  2 83  1  0  0  0
  2 84  1  0  0  0
  3  4  1  0  0  0
  3 85  1  0  0  0
  3 86  1  0  0  0
  4  5  1  0  0  0
  4 87  1  0  0  0
  4 88  1  0  0  0
  5  6  1  0  0  0
  5 26  1  0  0  0
  5 89  1  0  0  0
  6 25  1  0  0  0
  6 90  1  0  0  0
  6 91  1  0  0  0
  7  8  2  0  0  0
  7 26  1  0  0  0
  7 29  1  0  0  0
  8  9  1  0  0  0
  8 22  1  0  0  0
  9 10  1  0  0  0
  9 27  2  0  0  0
 10 11  2  0  0  0
 10 15  1  0  0  0
 11 12  1  0  0  0
 11 92  1  0  0  0
 12 13  2  0  0  0
 12 93  1  0  0  0
 13 14  1  0  0  0
 13 31  1  0  0  0
 14 15  2  0  0  0
 14 94  1  0  0  0
 15 95  1  0  0  0
 16 17  2  0  0  0
 16 21  1  0  0  0
 16 31  1  0  0  0
 17 18  1  0  0  0
 17 96  1  0  0  0
 18 19  2  0  0  0
 18 97  1  0  0  0
 19 20  1  0  0  0
 19 24  1  0  0  0
 20 21  2  0  0  0
 20 98  1  0  0  0
 21 23  1  0  0  0
 22 28  1  0  0  0
 22 32  2  0  0  0
 26 27  1  0  0  0
 28 99  1  0  0  0
 28100  1  0  0  0
 29101  1  0  0  0
 29102  1  0  0  0
 33 34  1  0  0  0
 33 66  1  0  0  0
 33 70  2  0  0  0
 34 36  1  0  0  0
 34 59  1  0  0  0
 34103  1  0  0  0
 35 44  2  0  0  0
 35 45  1  0  0  0
 35 68  1  0  0  0
 36 56  1  0  0  0
 36104  1  0  0  0
 37 39  1  0  0  0
 37 47  1  0  0  0
 37 66  1  0  0  0
 37105  1  0  0  0
 38 43  2  0  0  0
 38 46  1  0  0  0
 38 47  1  0  0  0
 39 64  1  0  0  0
 39 67  2  0  0  0
 40 52  1  0  0  0
 40 53  2  0  0  0
 40 58  1  0  0  0
 41106  1  0  0  0
 41107  1  0  0  0
 41108  1  0  0  0
 41 48  1  0  0  0
 42 43  1  0  0  0
 42 66  1  0  0  0
 42109  1  0  0  0
 42110  1  0  0  0
 43 44  1  0  0  0
 44111  1  0  0  0
 45 46  2  0  0  0
 45112  1  0  0  0
 46113  1  0  0  0
 47114  1  0  0  0
 47115  1  0  0  0
 48 56  1  0  0  0
 48 65  1  0  0  0
 48116  1  0  0  0
 49 50  1  0  0  0
 49 53  1  0  0  0
 49 64  1  0  0  0
 49117  1  0  0  0
 50 51  1  0  0  0
 50118  1  0  0  0
 50119  1  0  0  0
 51 52  1  0  0  0
 51120  1  0  0  0
 51121  1  0  0  0
 52122  1  0  0  0
 52123  1  0  0  0
 53 54  1  0  0  0
 54 55  2  0  0  0
 54124  1  0  0  0
 55 57  1  0  0  0
 55125  1  0  0  0
 56 69  2  0  0  0
 57 58  2  0  0  0
 57126  1  0  0  0
 58127  1  0  0  0
 59 60  1  0  0  0
 59 61  1  0  0  0
 59 62  1  0  0  0
 60128  1  0  0  0
 60129  1  0  0  0
 60130  1  0  0  0
 61131  1  0  0  0
 61132  1  0  0  0
 61133  1  0  0  0
 62134  1  0  0  0
 62135  1  0  0  0
 62136  1  0  0  0
 63 65  1  0  0  0
 63137  1  0  0  0
 63138  1  0  0  0
 63139  1  0  0  0
 64140  1  0  0  0
 65141  1  0  0  0
 68 80  1  0  0  0
 71 73  1  0  0  0
 71 74  1  0  0  0
 71142  1  0  0  0
 71143  1  0  0  0
 72 75  1  0  0  0
 72 82  1  0  0  0
 72144  1  0  0  0
 72145  1  0  0  0
 73 75  1  0  0  0
 73 81  1  0  0  0
 73146  1  0  0  0
 74 76  1  0  0  0
 74 82  1  0  0  0
 74147  1  0  0  0
 75 77  1  0  0  0
 75 78  1  0  0  0
 76148  1  0  0  0
 76149  1  0  0  0
 76150  1  0  0  0
 77151  1  0  0  0
 77152  1  0  0  0
 77153  1  0  0  0
 78154  1  0  0  0
 78155  1  0  0  0
 78156  1  0  0  0
 79 80  1  0  0  0
 79157  1  0  0  0
 79158  1  0  0  0
 79 82  1  0  0  0
 80159  1  0  0  0
 80160  1  0  0  0
 81161  1  0  0  0
 82162  1  0  0  0
M  CHG  1  82   1
M  ISO  4   1 100  68 101  80 101  81 100
M  END
> <chiral flag>
0

> <version>
0

> <s_m_source_file>
/data/baiqing/PycharmProjects/Reinvent-master-3.2/result/LINK_invent/BTK/process_docking_weight1_custom_sum_contain_oxygen_bond_distance_aromatic_linkinvent_7_9_3/rearranged_h_0147.sdf

> <i_m_source_file_index>
65

> <r_mmod_Potential_Energy-OPLS-2005>
824.287292480469

> <r_mmod_Stretch_Energy-OPLS-2005>
414.627319335938

> <r_mmod_Bend_Energy-OPLS-2005>
381.386047363281

> <r_mmod_Torsional_Energy-OPLS-2005>
266.05126953125

> <r_mmod_Improper_Torsional_Energy-OPLS-2005>
4.14523315429688

> <r_mmod_Van_der_Waal_Energy-OPLS-2005>
111.583305358887

> <r_mmod_Electrostatic_Energy-OPLS-2005>
-255.205841064453

> <r_mmod_Solvation_Energy-OPLS-2005>
-431.350494384766

> <b_mmod_Minimization_Converged-OPLS-2005>
0

> <r_mmod_RMS_Derivative-OPLS-2005>
0.243426129221916

$$$$
65
                    3D
 Structure written by MMmdl.
173183  0  0  1  0            999 V2000
  -29.1323  -18.0082   20.4750 C   0  0  0  0  0  0
  -29.9621  -14.9189   19.6331 C   0  0  0  0  0  0
  -29.5304  -13.6603   18.6265 C   0  0  0  0  0  0
  -28.3903  -12.7665   19.1166 C   0  0  0  0  0  0
  -27.5346  -13.7398   19.9175 C   0  0  2  0  0  0
  -28.2636  -14.8644   20.8935 C   0  0  0  0  0  0
  -25.1594  -13.9077   20.6157 C   0  0  0  0  0  0
  -24.1479  -13.0611   20.9382 C   0  0  0  0  0  0
  -24.6811  -11.7350   20.8674 C   0  0  0  0  0  0
  -23.9617  -10.4438   21.0181 C   0  0  0  0  0  0
  -24.3949   -9.4340   21.9080 C   0  0  0  0  0  0
  -23.6490   -8.2411   22.0729 C   0  0  0  0  0  0
  -22.4467   -8.0414   21.3519 C   0  0  0  0  0  0
  -22.0211   -9.0424   20.4607 C   0  0  0  0  0  0
  -22.7685  -10.2235   20.2946 C   0  0  0  0  0  0
  -21.6954   -6.0828   22.5281 C   0  0  0  0  0  0
  -21.4069   -6.5692   23.8226 C   0  0  0  0  0  0
  -21.3677   -5.6815   24.9163 C   0  0  0  0  0  0
  -21.6053   -4.3085   24.7197 C   0  0  0  0  0  0
  -21.8812   -3.8198   23.4309 C   0  0  0  0  0  0
  -21.9196   -4.7031   22.3376 C   0  0  0  0  0  0
  -22.7372  -13.4922   21.1948 C   0  0  0  0  0  0
  -22.1669   -4.2213   21.0959 F   0  0  0  0  0  0
  -21.5607   -3.4558   25.7702 F   0  0  0  0  0  0
  -28.9656  -16.2053   20.2458 N   0  0  0  0  0  0
  -26.2735  -13.1424   20.4027 N   0  0  0  0  0  0
  -25.9965  -11.7996   20.5702 N   0  0  0  0  0  0
  -22.0192  -12.7782   22.0518 N   0  0  0  0  0  0
  -25.2219  -15.2862   20.4426 N   0  0  0  0  0  0
  -30.3992  -17.6180   20.4357 O   0  0  0  0  0  0
  -21.6769   -6.9022   21.4259 O   0  0  0  0  0  0
  -22.2854  -14.5168   20.6828 O   0  0  0  0  0  0
  -24.7502  -31.4708   23.0815 C   0  0  0  0  0  0
  -25.9549  -32.2954   23.7101 C   0  0  1  0  0  0
  -28.1625  -25.8473   19.1599 C   0  0  0  0  0  0
  -25.5625  -33.7019   24.0698 N   0  0  0  0  0  0
  -23.6626  -29.8509   21.5243 C   0  0  2  0  0  0
  -25.0315  -27.3682   20.7189 C   0  0  0  0  0  0
  -22.7522  -29.2265   22.5605 C   0  0  0  0  0  0
  -18.0002  -28.1516   22.8381 C   0  0  0  0  0  0
  -24.1477  -36.6451   23.2817 C   0  0  0  0  0  0
  -26.0913  -29.3980   21.9038 C   0  0  0  0  0  0
  -26.4112  -27.5418   21.5970 C   0  0  0  0  0  0
  -28.4815  -26.5942   20.6177 C   0  0  0  0  0  0
  -26.4810  -25.6892   18.6656 C   0  0  0  0  0  0
  -25.1243  -26.3627   19.4421 C   0  0  0  0  0  0
  -24.0008  -28.6737   20.4725 C   0  0  0  0  0  0
  -25.4267  -36.2109   24.0190 C   0  0  1  0  0  0
  -20.5441  -28.3598   23.1366 C   0  0  2  0  0  0
  -20.6320  -26.9182   22.5738 C   0  0  0  0  0  0
  -19.5502  -26.6285   21.5352 C   0  0  0  0  0  0
  -18.1617  -26.8051   22.1529 C   0  0  0  0  0  0
  -19.1242  -28.8965   23.2778 C   0  0  0  0  0  0
  -18.9268  -30.1571   23.8861 C   0  0  0  0  0  0
  -17.6297  -30.6683   24.0577 C   0  0  0  0  0  0
  -25.9207  -34.8488   23.4523 C   0  0  0  0  0  0
  -16.5168  -29.9206   23.6316 C   0  0  0  0  0  0
  -16.7054  -28.6620   23.0306 C   0  0  0  0  0  0
  -26.5140  -31.6374   25.0387 C   0  0  0  0  0  0
  -25.4223  -31.3917   26.0965 C   0  0  0  0  0  0
  -27.1799  -30.2732   24.7947 C   0  0  0  0  0  0
  -27.6163  -32.5424   25.6568 C   0  0  0  0  0  0
  -27.5509  -37.1358   24.8441 C   0  0  0  0  0  0
  -21.4266  -29.2524   22.3811 N   0  0  0  0  0  0
  -26.4253  -37.3078   23.9298 N   0  0  0  0  0  0
  -24.8679  -30.3218   22.2448 N   0  0  0  0  0  0
  -23.2847  -28.6260   23.4948 O   0  0  0  0  0  0
  -29.0860  -26.3295   18.3170 O   0  0  0  0  0  0
  -26.6132  -34.8497   22.4335 O   0  0  0  0  0  0
  -23.6361  -31.9364   23.4141 O   0  0  0  0  0  0
  -28.3689  -27.0503   22.9296 C   0  0  0  0  0  0
  -28.6312  -28.4925   22.0000 C   0  0  0  0  0  0
  -27.0300  -27.7537   19.5481 C   0  0  0  0  0  0
  -26.8511  -25.2032   20.9689 C   0  0  0  0  0  0
  -27.5786  -25.5258   22.4971 C   0  0  0  0  0  0
  -28.0894  -28.8472   20.3839 C   0  0  0  0  0  0
  -29.4316  -25.0970   26.7402 C   0  0  0  0  0  0
  -30.3580  -25.1712   25.5571 C   0  0  0  0  0  0
  -28.4333  -23.0219   22.3308 C   0  0  0  0  0  0
  -27.7418  -22.6156   20.9510 C   0  0  2  0  0  0
  -28.8600  -25.2619   25.3463 C   0  0  0  0  0  0
  -26.7373  -23.2646   26.5594 C   0  0  0  0  0  0
  -25.8595  -25.2901   25.3014 C   0  0  0  0  0  0
  -29.8676  -27.5755   18.4610 C   0  0  0  0  0  0
  -29.1892  -28.9992   18.3361 C   0  0  0  0  0  0
  -28.0807  -24.1707   24.5945 C   0  0  1  0  0  0
  -26.6689  -23.9755   25.1956 C   0  0  0  0  0  0
  -28.0205  -24.2925   23.1095 N   0  0  0  0  0  0
  -28.2740  -20.0104   20.6169 N   0  0  0  0  0  0
  -28.8337  -29.6611   19.5792 O   0  0  0  0  0  0
  -30.6992  -15.4653   19.0431 H   0  0  0  0  0  0
  -30.5970  -14.5266   20.4354 H   0  0  0  0  0  0
  -30.4036  -13.0500   18.3897 H   0  0  0  0  0  0
  -29.2243  -14.1053   17.6787 H   0  0  0  0  0  0
  -28.7743  -11.9766   19.7655 H   0  0  0  0  0  0
  -27.8524  -12.2991   18.2899 H   0  0  0  0  0  0
  -27.1763  -14.3762   19.1052 H   0  0  0  0  0  0
  -28.8757  -14.3676   21.6550 H   0  0  0  0  0  0
  -27.4915  -15.3004   21.5218 H   0  0  0  0  0  0
  -25.3049   -9.5786   22.4731 H   0  0  0  0  0  0
  -24.0145   -7.4836   22.7524 H   0  0  0  0  0  0
  -21.1132   -8.9008   19.8927 H   0  0  0  0  0  0
  -22.4146  -10.9743   19.6035 H   0  0  0  0  0  0
  -21.2114   -7.6211   23.9744 H   0  0  0  0  0  0
  -21.1498   -6.0546   25.9069 H   0  0  0  0  0  0
  -22.0557   -2.7657   23.2801 H   0  0  0  0  0  0
  -22.3995  -11.9559   22.4947 H   0  0  0  0  0  0
  -21.0739  -13.0574   22.2720 H   0  0  0  0  0  0
  -24.4063  -15.8857   20.5153 H   0  0  0  0  0  0
  -26.0577  -15.7777   20.1499 H   0  0  0  0  0  0
  -26.7217  -32.3313   22.9286 H   0  0  0  0  0  0
  -24.9994  -33.7751   24.9019 H   0  0  0  0  0  0
  -23.1635  -30.6912   21.0334 H   0  0  0  0  0  0
  -23.3941  -35.8561   23.3333 H   0  0  0  0  0  0
  -24.3378  -36.8385   22.2248 H   0  0  0  0  0  0
  -23.7088  -37.5421   23.7194 H   0  0  0  0  0  0
  -26.1252  -29.8669   20.9150 H   0  0  0  0  0  0
  -26.8900  -29.9328   22.3790 H   0  0  0  0  0  0
  -29.5323  -26.7471   20.8496 H   0  0  0  0  0  0
  -26.3190  -25.2965   17.6794 H   0  0  0  0  0  0
  -24.2217  -26.3038   18.8380 H   0  0  0  0  0  0
  -24.3775  -29.1663   19.5777 H   0  0  0  0  0  0
  -23.0484  -28.2437   20.1471 H   0  0  0  0  0  0
  -25.1636  -36.0682   25.0699 H   0  0  0  0  0  0
  -20.9124  -28.3159   24.1647 H   0  0  0  0  0  0
  -20.4956  -26.2212   23.4013 H   0  0  0  0  0  0
  -21.6218  -26.6868   22.1768 H   0  0  0  0  0  0
  -19.6563  -25.6205   21.1362 H   0  0  0  0  0  0
  -19.6764  -27.3111   20.6947 H   0  0  0  0  0  0
  -17.4067  -26.7072   21.3736 H   0  0  0  0  0  0
  -17.9641  -26.0185   22.8840 H   0  0  0  0  0  0
  -19.7784  -30.7291   24.2354 H   0  0  0  0  0  0
  -17.4848  -31.6349   24.5246 H   0  0  0  0  0  0
  -15.5199  -30.3164   23.7625 H   0  0  0  0  0  0
  -15.8420  -28.1008   22.7030 H   0  0  0  0  0  0
  -24.5545  -30.8659   25.6980 H   0  0  0  0  0  0
  -25.0975  -32.3385   26.5203 H   0  0  0  0  0  0
  -25.8193  -30.7755   26.9006 H   0  0  0  0  0  0
  -26.5088  -29.5282   24.3765 H   0  0  0  0  0  0
  -27.5249  -29.8087   25.7262 H   0  0  0  0  0  0
  -28.0591  -30.3894   24.1643 H   0  0  0  0  0  0
  -27.2148  -33.4922   26.0087 H   0  0  0  0  0  0
  -28.3704  -32.7958   24.9056 H   0  0  0  0  0  0
  -28.1277  -32.0840   26.5051 H   0  0  0  0  0  0
  -28.2485  -37.9721   24.7546 H   0  0  0  0  0  0
  -28.1119  -36.2218   24.6377 H   0  0  0  0  0  0
  -27.2098  -37.0985   25.8818 H   0  0  0  0  0  0
  -21.0426  -29.7739   21.6044 H   0  0  0  0  0  0
  -25.9957  -38.2040   24.1412 H   0  0  0  0  0  0
  -29.0751  -27.0716   23.7408 H   0  0  0  0  0  0
  -29.3729  -29.1668   22.3974 H   0  0  0  0  0  0
  -26.7754  -27.9768   18.5156 H   0  0  0  0  0  0
  -29.2926  -24.1405   27.2381 H   0  0  0  0  0  0
  -29.4202  -25.9653   27.3961 H   0  0  0  0  0  0
  -30.8777  -24.2487   25.2985 H   0  0  0  0  0  0
  -30.9378  -26.0826   25.4186 H   0  0  0  0  0  0
  -28.3362  -22.1482   22.9754 H   0  0  0  0  0  0
  -29.5021  -23.0894   22.1349 H   0  0  0  0  0  0
  -26.7127  -22.3247   21.1728 H   0  0  0  0  0  0
  -28.3591  -26.2226   25.3438 H   0  0  0  0  0  0
  -27.1071  -23.9369   27.3299 H   0  0  0  0  0  0
  -27.3866  -22.3846   26.5422 H   0  0  0  0  0  0
  -25.7496  -22.9553   26.8848 H   0  0  0  0  0  0
  -26.0609  -25.8247   26.2382 H   0  0  0  0  0  0
  -24.7965  -25.0695   25.2537 H   0  0  0  0  0  0
  -26.0465  -25.9825   24.4813 H   0  0  0  0  0  0
  -30.5687  -27.5561   19.2921 H   0  0  0  0  0  0
  -30.5500  -27.5267   17.6127 H   0  0  0  0  0  0
  -28.3674  -28.9855   17.6164 H   0  0  0  0  0  0
  -29.9126  -29.6673   17.8682 H   0  0  0  0  0  0
  -28.6332  -23.2478   24.7876 H   0  0  0  0  0  0
  -26.1367  -23.2903   24.5319 H   0  0  0  0  0  0
  -27.3144  -19.6954   20.4981 H   0  0  0  0  0  0
  1 25  1  0  0  0
  1 30  2  0  0  0
  1 89  1  0  0  0
  2  3  1  0  0  0
  2 25  1  0  0  0
  2 91  1  0  0  0
  2 92  1  0  0  0
  3  4  1  0  0  0
  3 93  1  0  0  0
  3 94  1  0  0  0
  4  5  1  0  0  0
  4 95  1  0  0  0
  4 96  1  0  0  0
  5  6  1  0  0  0
  5 26  1  0  0  0
  5 97  1  0  0  0
  6 25  1  0  0  0
  6 98  1  0  0  0
  6 99  1  0  0  0
  7  8  2  0  0  0
  7 26  1  0  0  0
  7 29  1  0  0  0
  8  9  1  0  0  0
  8 22  1  0  0  0
  9 10  1  0  0  0
  9 27  2  0  0  0
 10 11  2  0  0  0
 10 15  1  0  0  0
 11 12  1  0  0  0
 11100  1  0  0  0
 12 13  2  0  0  0
 12101  1  0  0  0
 13 14  1  0  0  0
 13 31  1  0  0  0
 14 15  2  0  0  0
 14102  1  0  0  0
 15103  1  0  0  0
 16 17  2  0  0  0
 16 21  1  0  0  0
 16 31  1  0  0  0
 17 18  1  0  0  0
 17104  1  0  0  0
 18 19  2  0  0  0
 18105  1  0  0  0
 19 20  1  0  0  0
 19 24  1  0  0  0
 20 21  2  0  0  0
 20106  1  0  0  0
 21 23  1  0  0  0
 22 28  1  0  0  0
 22 32  2  0  0  0
 26 27  1  0  0  0
 28107  1  0  0  0
 28108  1  0  0  0
 29109  1  0  0  0
 29110  1  0  0  0
 33 34  1  0  0  0
 33 66  1  0  0  0
 33 70  2  0  0  0
 34 36  1  0  0  0
 34 59  1  0  0  0
 34111  1  0  0  0
 35 44  2  0  0  0
 35 45  1  0  0  0
 35 68  1  0  0  0
 36 56  1  0  0  0
 36112  1  0  0  0
 37 39  1  0  0  0
 37 47  1  0  0  0
 37 66  1  0  0  0
 37113  1  0  0  0
 38 43  2  0  0  0
 38 46  1  0  0  0
 38 47  1  0  0  0
 39 64  1  0  0  0
 39 67  2  0  0  0
 40 52  1  0  0  0
 40 53  2  0  0  0
 40 58  1  0  0  0
 41114  1  0  0  0
 41115  1  0  0  0
 41116  1  0  0  0
 41 48  1  0  0  0
 42 43  1  0  0  0
 42 66  1  0  0  0
 42117  1  0  0  0
 42118  1  0  0  0
 43 44  1  0  0  0
 44119  1  0  0  0
 45 46  2  0  0  0
 45120  1  0  0  0
 46121  1  0  0  0
 47122  1  0  0  0
 47123  1  0  0  0
 48 56  1  0  0  0
 48 65  1  0  0  0
 48124  1  0  0  0
 49 50  1  0  0  0
 49 53  1  0  0  0
 49 64  1  0  0  0
 49125  1  0  0  0
 50 51  1  0  0  0
 50126  1  0  0  0
 50127  1  0  0  0
 51 52  1  0  0  0
 51128  1  0  0  0
 51129  1  0  0  0
 52130  1  0  0  0
 52131  1  0  0  0
 53 54  1  0  0  0
 54 55  2  0  0  0
 54132  1  0  0  0
 55 57  1  0  0  0
 55133  1  0  0  0
 56 69  2  0  0  0
 57 58  2  0  0  0
 57134  1  0  0  0
 58135  1  0  0  0
 59 60  1  0  0  0
 59 61  1  0  0  0
 59 62  1  0  0  0
 60136  1  0  0  0
 60137  1  0  0  0
 60138  1  0  0  0
 61139  1  0  0  0
 61140  1  0  0  0
 61141  1  0  0  0
 62142  1  0  0  0
 62143  1  0  0  0
 62144  1  0  0  0
 63 65  1  0  0  0
 63145  1  0  0  0
 63146  1  0  0  0
 63147  1  0  0  0
 64148  1  0  0  0
 65149  1  0  0  0
 68 84  1  0  0  0
 71 72  2  0  0  0
 71 75  1  0  0  0
 71150  1  0  0  0
 72 76  1  0  0  0
 72151  1  0  0  0
 73 74  1  0  0  0
 73 76  2  0  0  0
 73152  1  0  0  0
 74 75  2  0  0  0
 74 80  1  0  0  0
 75 88  1  0  0  0
 76 90  1  0  0  0
 77 78  1  0  0  0
 77153  1  0  0  0
 77154  1  0  0  0
 77 81  1  0  0  0
 78 81  1  0  0  0
 78155  1  0  0  0
 78156  1  0  0  0
 79 80  1  0  0  0
 79 88  1  0  0  0
 79157  1  0  0  0
 79158  1  0  0  0
 80 89  1  0  0  0
 80159  1  0  0  0
 81 86  1  0  0  0
 81160  1  0  0  0
 82161  1  0  0  0
 82162  1  0  0  0
 82163  1  0  0  0
 82 87  1  0  0  0
 83 87  1  0  0  0
 83164  1  0  0  0
 83165  1  0  0  0
 83166  1  0  0  0
 84 85  1  0  0  0
 84167  1  0  0  0
 84168  1  0  0  0
 85 90  1  0  0  0
 85169  1  0  0  0
 85170  1  0  0  0
 86 87  1  0  0  0
 86 88  1  0  0  0
 86171  1  0  0  0
 87172  1  0  0  0
 89173  1  0  0  0
M  ISO  4   1 100  68 101  84 101  89 100
M  END
> <chiral flag>
0

> <version>
0

> <s_m_source_file>
/data/baiqing/PycharmProjects/Reinvent-master-3.2/result/LINK_invent/BTK/process_docking_weight1_custom_sum_contain_oxygen_bond_distance_aromatic_linkinvent_7_9_3/rearranged_h_0147.sdf

> <i_m_source_file_index>
66

> <r_mmod_Potential_Energy-OPLS-2005>
29556.78515625

> <r_mmod_Stretch_Energy-OPLS-2005>
15497.0791015625

> <r_mmod_Bend_Energy-OPLS-2005>
1867.05981445312

> <r_mmod_Torsional_Energy-OPLS-2005>
608.903442382812

> <r_mmod_Improper_Torsional_Energy-OPLS-2005>
103.284141540527

> <r_mmod_Van_der_Waal_Energy-OPLS-2005>
3829.10913085938

> <r_mmod_Electrostatic_Energy-OPLS-2005>
-421.822784423828

> <r_mmod_Solvation_Energy-OPLS-2005>
-249.932556152344

> <b_mmod_Minimization_Converged-OPLS-2005>
0

> <r_mmod_RMS_Derivative-OPLS-2005>
25.9828948974609

$$$$
66
                    3D
 Structure written by MMmdl.
172182  0  0  1  0            999 V2000
  -30.6823  -14.5426   20.5347 C   0  0  0  0  0  0
  -30.4185  -12.3432   19.4404 C   0  0  0  0  0  0
  -29.4988  -12.5053   18.2128 C   0  0  0  0  0  0
  -28.0191  -12.3548   18.6203 C   0  0  0  0  0  0
  -27.6496  -13.2112   19.8615 C   0  0  2  0  0  0
  -28.6895  -13.0583   20.9917 C   0  0  0  0  0  0
  -25.2550  -13.8160   20.5673 C   0  0  0  0  0  0
  -24.1805  -13.0429   20.9175 C   0  0  0  0  0  0
  -24.6385  -11.6906   20.8725 C   0  0  0  0  0  0
  -23.9058  -10.4285   21.0409 C   0  0  0  0  0  0
  -24.3623   -9.4204   21.9181 C   0  0  0  0  0  0
  -23.6302   -8.2240   22.0760 C   0  0  0  0  0  0
  -22.4275   -8.0282   21.3555 C   0  0  0  0  0  0
  -21.9913   -9.0246   20.4641 C   0  0  0  0  0  0
  -22.7242  -10.2124   20.3053 C   0  0  0  0  0  0
  -21.6849   -6.0748   22.5284 C   0  0  0  0  0  0
  -21.4004   -6.5652   23.8221 C   0  0  0  0  0  0
  -21.3648   -5.6803   24.9178 C   0  0  0  0  0  0
  -21.6040   -4.3063   24.7225 C   0  0  0  0  0  0
  -21.8832   -3.8164   23.4347 C   0  0  0  0  0  0
  -21.9194   -4.6978   22.3401 C   0  0  0  0  0  0
  -22.7821  -13.5220   21.1812 C   0  0  0  0  0  0
  -22.1648   -4.2165   21.0973 F   0  0  0  0  0  0
  -21.5634   -3.4551   25.7735 F   0  0  0  0  0  0
  -30.0112  -13.3600   20.4264 N   0  0  0  0  0  0
  -26.2968  -12.9330   20.3326 N   0  0  0  0  0  0
  -25.9305  -11.6495   20.5746 N   0  0  0  0  0  0
  -22.0459  -12.8230   22.0388 N   0  0  0  0  0  0
  -25.4257  -15.1868   20.4064 N   0  0  0  0  0  0
  -31.8473  -14.6651   20.1387 O   0  0  0  0  0  0
  -21.6623   -6.8890   21.4253 O   0  0  0  0  0  0
  -22.3486  -14.5497   20.6624 O   0  0  0  0  0  0
  -24.6150  -31.8683   23.2104 C   0  0  0  0  0  0
  -25.9053  -32.4821   23.8391 C   0  0  1  0  0  0
  -27.2315  -27.4175   20.1059 C   0  0  0  0  0  0
  -25.5913  -33.8614   24.2336 N   0  0  0  0  0  0
  -23.4017  -30.4932   21.5504 C   0  0  2  0  0  0
  -24.8461  -28.9589   20.1144 C   0  0  0  0  0  0
  -22.7409  -29.4664   22.4975 C   0  0  0  0  0  0
  -18.0276  -28.1372   22.8487 C   0  0  0  0  0  0
  -24.1488  -36.7319   23.2630 C   0  0  0  0  0  0
  -25.9313  -30.8315   21.3624 C   0  0  0  0  0  0
  -26.0068  -29.4639   20.7114 C   0  0  0  0  0  0
  -27.1984  -28.7022   20.7020 C   0  0  0  0  0  0
  -26.0449  -26.9273   19.5079 C   0  0  0  0  0  0
  -24.8625  -27.6916   19.5084 C   0  0  0  0  0  0
  -23.6105  -29.8302   20.1626 C   0  0  0  0  0  0
  -25.4106  -36.3111   24.0337 C   0  0  1  0  0  0
  -20.5867  -28.3665   23.1311 C   0  0  2  0  0  0
  -20.6769  -26.9395   22.5427 C   0  0  0  0  0  0
  -19.5755  -26.6378   21.5211 C   0  0  0  0  0  0
  -18.1922  -26.7923   22.1606 C   0  0  0  0  0  0
  -19.1525  -28.8832   23.2902 C   0  0  0  0  0  0
  -18.9452  -30.1432   23.8912 C   0  0  0  0  0  0
  -17.6455  -30.6574   24.0564 C   0  0  0  0  0  0
  -25.9044  -34.9472   23.5138 C   0  0  0  0  0  0
  -16.5347  -29.9079   23.6317 C   0  0  0  0  0  0
  -16.7265  -28.6501   23.0334 C   0  0  0  0  0  0
  -26.4472  -31.6583   25.0707 C   0  0  0  0  0  0
  -25.3748  -31.3689   26.1465 C   0  0  0  0  0  0
  -27.0282  -30.3016   24.6075 C   0  0  0  0  0  0
  -27.6056  -32.4287   25.7469 C   0  0  0  0  0  0
  -27.5601  -37.1801   24.8454 C   0  0  0  0  0  0
  -21.4142  -29.3039   22.3725 N   0  0  0  0  0  0
  -26.4294  -37.3805   23.9426 N   0  0  0  0  0  0
  -24.6673  -31.0785   22.0997 N   0  0  0  0  0  0
  -23.4184  -28.8203   23.3011 O   0  0  0  0  0  0
  -28.4197  -26.7050   20.1340 O   0  0  0  0  0  0
  -26.5593  -34.8929   22.4693 O   0  0  0  0  0  0
  -23.5349  -32.1433   23.7507 O   0  0  0  0  0  0
  -27.1476  -21.7431   22.6049 C   0  0  0  0  0  0
  -26.2146  -21.0960   23.4252 C   0  0  0  0  0  0
  -28.1064  -20.9962   21.8841 C   0  0  0  0  0  0
  -28.0722  -19.5635   22.0316 C   0  0  0  0  0  0
  -26.2448  -19.7004   23.4963 C   0  0  0  0  0  0
  -29.8740  -23.4224   19.2425 C   0  0  0  0  0  0
  -29.9185  -24.9527   19.3679 C   0  0  0  0  0  0
  -29.6523  -17.5869   22.5373 C   0  0  0  0  0  0
  -28.4770  -17.6222   20.3460 C   0  0  0  0  0  0
  -28.0691  -24.2410   20.6606 C   0  0  0  0  0  0
  -30.5944  -16.4849   21.9831 C   0  0  0  0  0  0
  -29.4785  -16.5355   19.8545 C   0  0  0  0  0  0
  -29.0766  -18.5299   21.4459 C   0  0  0  0  0  0
  -28.6943  -22.9193   20.1110 C   0  0  2  0  0  0
  -28.4783  -25.3467   19.6592 C   0  0  1  0  0  0
  -25.3118  -18.9474   24.4207 C   0  0  0  0  0  0
  -29.1711  -21.7997   21.1079 C   0  0  0  0  0  0
  -27.1238  -18.9652   22.7922 N   0  0  0  0  0  0
  -29.9757  -15.6466   20.9327 N   0  0  0  0  0  0
  -31.4644  -12.4407   19.1437 H   0  0  0  0  0  0
  -30.3207  -11.3443   19.8678 H   0  0  0  0  0  0
  -29.7587  -11.7713   17.4483 H   0  0  0  0  0  0
  -29.6545  -13.4878   17.7623 H   0  0  0  0  0  0
  -27.8377  -11.2997   18.8279 H   0  0  0  0  0  0
  -27.3772  -12.6144   17.7789 H   0  0  0  0  0  0
  -27.6671  -14.2469   19.5325 H   0  0  0  0  0  0
  -28.6757  -12.0432   21.3897 H   0  0  0  0  0  0
  -28.4484  -13.7169   21.8289 H   0  0  0  0  0  0
  -25.2787   -9.5678   22.4727 H   0  0  0  0  0  0
  -24.0027   -7.4637   22.7494 H   0  0  0  0  0  0
  -21.0849   -8.8755   19.8933 H   0  0  0  0  0  0
  -22.3724  -10.9647   19.6136 H   0  0  0  0  0  0
  -21.1980   -7.6153   23.9734 H   0  0  0  0  0  0
  -21.1445   -6.0516   25.9078 H   0  0  0  0  0  0
  -22.0618   -2.7628   23.2843 H   0  0  0  0  0  0
  -22.4098  -11.9939   22.4825 H   0  0  0  0  0  0
  -21.1049  -13.1234   22.2516 H   0  0  0  0  0  0
  -24.6696  -15.8492   20.5304 H   0  0  0  0  0  0
  -26.2951  -15.6191   20.1229 H   0  0  0  0  0  0
  -26.7122  -32.5519   23.1151 H   0  0  0  0  0  0
  -25.0096  -33.9771   25.0500 H   0  0  0  0  0  0
  -22.6912  -31.3107   21.4147 H   0  0  0  0  0  0
  -23.3768  -35.9638   23.3251 H   0  0  0  0  0  0
  -24.3604  -36.8972   22.2061 H   0  0  0  0  0  0
  -23.7218  -37.6499   23.6668 H   0  0  0  0  0  0
  -26.0457  -31.5972   20.5935 H   0  0  0  0  0  0
  -26.8195  -30.8843   21.9809 H   0  0  0  0  0  0
  -28.0933  -29.0959   21.1634 H   0  0  0  0  0  0
  -25.9993  -25.9563   19.0379 H   0  0  0  0  0  0
  -23.9704  -27.2960   19.0418 H   0  0  0  0  0  0
  -23.7235  -30.6090   19.4075 H   0  0  0  0  0  0
  -22.7318  -29.2567   19.8627 H   0  0  0  0  0  0
  -25.1277  -36.1977   25.0831 H   0  0  0  0  0  0
  -20.9958  -28.3234   24.1431 H   0  0  0  0  0  0
  -20.5649  -26.2271   23.3621 H   0  0  0  0  0  0
  -21.6642  -26.7421   22.1234 H   0  0  0  0  0  0
  -19.6916  -25.6291   21.1231 H   0  0  0  0  0  0
  -19.6700  -27.3194   20.6749 H   0  0  0  0  0  0
  -17.4207  -26.6682   21.3994 H   0  0  0  0  0  0
  -18.0303  -26.0048   22.8982 H   0  0  0  0  0  0
  -19.7925  -30.7240   24.2289 H   0  0  0  0  0  0
  -17.5010  -31.6248   24.5177 H   0  0  0  0  0  0
  -15.5350  -30.2989   23.7624 H   0  0  0  0  0  0
  -15.8665  -28.0827   22.7033 H   0  0  0  0  0  0
  -24.5932  -30.7013   25.7823 H   0  0  0  0  0  0
  -24.8920  -32.2838   26.4908 H   0  0  0  0  0  0
  -25.8111  -30.8880   27.0228 H   0  0  0  0  0  0
  -26.2806  -29.6792   24.1144 H   0  0  0  0  0  0
  -27.4066  -29.7242   25.4521 H   0  0  0  0  0  0
  -27.8643  -30.4330   23.9203 H   0  0  0  0  0  0
  -27.2688  -33.3577   26.2089 H   0  0  0  0  0  0
  -28.3845  -32.6865   25.0277 H   0  0  0  0  0  0
  -28.0753  -31.8379   26.5349 H   0  0  0  0  0  0
  -28.2578  -38.0138   24.7559 H   0  0  0  0  0  0
  -28.1126  -36.2669   24.6185 H   0  0  0  0  0  0
  -27.2328  -37.1346   25.8856 H   0  0  0  0  0  0
  -20.9294  -29.8782   21.6973 H   0  0  0  0  0  0
  -26.0176  -38.2875   24.1457 H   0  0  0  0  0  0
  -27.1405  -22.8186   22.5820 H   0  0  0  0  0  0
  -25.5046  -21.6679   24.0072 H   0  0  0  0  0  0
  -30.8320  -22.9903   19.5350 H   0  0  0  0  0  0
  -29.7057  -23.1425   18.2020 H   0  0  0  0  0  0
  -30.3183  -25.4410   18.4796 H   0  0  0  0  0  0
  -30.5511  -25.2341   20.2119 H   0  0  0  0  0  0
  -30.1734  -18.1798   23.2889 H   0  0  0  0  0  0
  -28.8352  -17.0890   23.0636 H   0  0  0  0  0  0
  -27.5788  -17.1387   20.7300 H   0  0  0  0  0  0
  -28.1530  -18.2350   19.5017 H   0  0  0  0  0  0
  -28.4852  -24.4755   21.6409 H   0  0  0  0  0  0
  -26.9854  -24.1808   20.7643 H   0  0  0  0  0  0
  -30.9133  -15.8487   22.8120 H   0  0  0  0  0  0
  -31.5012  -16.9476   21.5892 H   0  0  0  0  0  0
  -30.3331  -17.0257   19.3824 H   0  0  0  0  0  0
  -29.0137  -15.9494   19.0609 H   0  0  0  0  0  0
  -29.9204  -19.0619   21.0120 H   0  0  0  0  0  0
  -27.9665  -22.4699   19.4323 H   0  0  0  0  0  0
  -27.9392  -25.2367   18.7190 H   0  0  0  0  0  0
  -25.1295  -19.5205   25.3294 H   0  0  0  0  0  0
  -25.7387  -17.9885   24.7156 H   0  0  0  0  0  0
  -24.3545  -18.7578   23.9376 H   0  0  0  0  0  0
  -29.7836  -21.1091   20.5351 H   0  0  0  0  0  0
  -29.8498  -22.2429   21.8388 H   0  0  0  0  0  0
  1 25  1  0  0  0
  1 30  2  0  0  0
  1 89  1  0  0  0
  2  3  1  0  0  0
  2 25  1  0  0  0
  2 90  1  0  0  0
  2 91  1  0  0  0
  3  4  1  0  0  0
  3 92  1  0  0  0
  3 93  1  0  0  0
  4  5  1  0  0  0
  4 94  1  0  0  0
  4 95  1  0  0  0
  5  6  1  0  0  0
  5 26  1  0  0  0
  5 96  1  0  0  0
  6 25  1  0  0  0
  6 97  1  0  0  0
  6 98  1  0  0  0
  7  8  2  0  0  0
  7 26  1  0  0  0
  7 29  1  0  0  0
  8  9  1  0  0  0
  8 22  1  0  0  0
  9 10  1  0  0  0
  9 27  2  0  0  0
 10 11  2  0  0  0
 10 15  1  0  0  0
 11 12  1  0  0  0
 11 99  1  0  0  0
 12 13  2  0  0  0
 12100  1  0  0  0
 13 14  1  0  0  0
 13 31  1  0  0  0
 14 15  2  0  0  0
 14101  1  0  0  0
 15102  1  0  0  0
 16 17  2  0  0  0
 16 21  1  0  0  0
 16 31  1  0  0  0
 17 18  1  0  0  0
 17103  1  0  0  0
 18 19  2  0  0  0
 18104  1  0  0  0
 19 20  1  0  0  0
 19 24  1  0  0  0
 20 21  2  0  0  0
 20105  1  0  0  0
 21 23  1  0  0  0
 22 28  1  0  0  0
 22 32  2  0  0  0
 26 27  1  0  0  0
 28106  1  0  0  0
 28107  1  0  0  0
 29108  1  0  0  0
 29109  1  0  0  0
 33 34  1  0  0  0
 33 66  1  0  0  0
 33 70  2  0  0  0
 34 36  1  0  0  0
 34 59  1  0  0  0
 34110  1  0  0  0
 35 44  2  0  0  0
 35 45  1  0  0  0
 35 68  1  0  0  0
 36 56  1  0  0  0
 36111  1  0  0  0
 37 39  1  0  0  0
 37 47  1  0  0  0
 37 66  1  0  0  0
 37112  1  0  0  0
 38 43  2  0  0  0
 38 46  1  0  0  0
 38 47  1  0  0  0
 39 64  1  0  0  0
 39 67  2  0  0  0
 40 52  1  0  0  0
 40 53  2  0  0  0
 40 58  1  0  0  0
 41113  1  0  0  0
 41114  1  0  0  0
 41115  1  0  0  0
 41 48  1  0  0  0
 42 43  1  0  0  0
 42 66  1  0  0  0
 42116  1  0  0  0
 42117  1  0  0  0
 43 44  1  0  0  0
 44118  1  0  0  0
 45 46  2  0  0  0
 45119  1  0  0  0
 46120  1  0  0  0
 47121  1  0  0  0
 47122  1  0  0  0
 48 56  1  0  0  0
 48 65  1  0  0  0
 48123  1  0  0  0
 49 50  1  0  0  0
 49 53  1  0  0  0
 49 64  1  0  0  0
 49124  1  0  0  0
 50 51  1  0  0  0
 50125  1  0  0  0
 50126  1  0  0  0
 51 52  1  0  0  0
 51127  1  0  0  0
 51128  1  0  0  0
 52129  1  0  0  0
 52130  1  0  0  0
 53 54  1  0  0  0
 54 55  2  0  0  0
 54131  1  0  0  0
 55 57  1  0  0  0
 55132  1  0  0  0
 56 69  2  0  0  0
 57 58  2  0  0  0
 57133  1  0  0  0
 58134  1  0  0  0
 59 60  1  0  0  0
 59 61  1  0  0  0
 59 62  1  0  0  0
 60135  1  0  0  0
 60136  1  0  0  0
 60137  1  0  0  0
 61138  1  0  0  0
 61139  1  0  0  0
 61140  1  0  0  0
 62141  1  0  0  0
 62142  1  0  0  0
 62143  1  0  0  0
 63 65  1  0  0  0
 63144  1  0  0  0
 63145  1  0  0  0
 63146  1  0  0  0
 64147  1  0  0  0
 65148  1  0  0  0
 68 85  1  0  0  0
 71 72  2  0  0  0
 71 73  1  0  0  0
 71149  1  0  0  0
 72 75  1  0  0  0
 72150  1  0  0  0
 73 74  2  0  0  0
 73 87  1  0  0  0
 74 88  1  0  0  0
 74 83  1  0  0  0
 75 86  1  0  0  0
 75 88  2  0  0  0
 76 77  1  0  0  0
 76 84  1  0  0  0
 76151  1  0  0  0
 76152  1  0  0  0
 77 85  1  0  0  0
 77153  1  0  0  0
 77154  1  0  0  0
 78 81  1  0  0  0
 78 83  1  0  0  0
 78155  1  0  0  0
 78156  1  0  0  0
 79 82  1  0  0  0
 79 83  1  0  0  0
 79157  1  0  0  0
 79158  1  0  0  0
 80 84  1  0  0  0
 80 85  1  0  0  0
 80159  1  0  0  0
 80160  1  0  0  0
 81 89  1  0  0  0
 81161  1  0  0  0
 81162  1  0  0  0
 82 89  1  0  0  0
 82163  1  0  0  0
 82164  1  0  0  0
 83165  1  0  0  0
 84 87  1  0  0  0
 84166  1  0  0  0
 85167  1  0  0  0
 86168  1  0  0  0
 86169  1  0  0  0
 86170  1  0  0  0
 87171  1  0  0  0
 87172  1  0  0  0
M  ISO  4   1 100  68 101  85 101  89 100
M  END
> <chiral flag>
0

> <version>
0

> <s_m_source_file>
/data/baiqing/PycharmProjects/Reinvent-master-3.2/result/LINK_invent/BTK/process_docking_weight1_custom_sum_contain_oxygen_bond_distance_aromatic_linkinvent_7_9_3/rearranged_h_0147.sdf

> <i_m_source_file_index>
67

> <r_mmod_Potential_Energy-OPLS-2005>
96.7986297607422

> <r_mmod_Stretch_Energy-OPLS-2005>
52.7054595947266

> <r_mmod_Bend_Energy-OPLS-2005>
167.879028320312

> <r_mmod_Torsional_Energy-OPLS-2005>
348.104644775391

> <r_mmod_Improper_Torsional_Energy-OPLS-2005>
8.90142059326172

> <r_mmod_Van_der_Waal_Energy-OPLS-2005>
152.985443115234

> <r_mmod_Electrostatic_Energy-OPLS-2005>
-459.692840576172

> <r_mmod_Solvation_Energy-OPLS-2005>
-195.422119140625

> <b_mmod_Minimization_Converged-OPLS-2005>
0

> <r_mmod_RMS_Derivative-OPLS-2005>
2.90205836296082

$$$$
67
                    3D
 Structure written by MMmdl.
178187  0  0  1  0            999 V2000
  -30.6822  -14.4479   20.5184 C   0  0  0  0  0  0
  -30.4321  -12.2763   19.4236 C   0  0  0  0  0  0
  -29.4937  -12.4873   18.2135 C   0  0  0  0  0  0
  -28.0165  -12.3469   18.6301 C   0  0  0  0  0  0
  -27.6645  -13.1889   19.8827 C   0  0  2  0  0  0
  -28.7103  -12.9587   21.0029 C   0  0  0  0  0  0
  -25.2609  -13.8096   20.5693 C   0  0  0  0  0  0
  -24.1843  -13.0418   20.9228 C   0  0  0  0  0  0
  -24.6371  -11.6878   20.8758 C   0  0  0  0  0  0
  -23.9018  -10.4296   21.0418 C   0  0  0  0  0  0
  -24.3581   -9.4227   21.9201 C   0  0  0  0  0  0
  -23.6295   -8.2230   22.0735 C   0  0  0  0  0  0
  -22.4284   -8.0262   21.3519 C   0  0  0  0  0  0
  -21.9889   -9.0242   20.4634 C   0  0  0  0  0  0
  -22.7187  -10.2149   20.3070 C   0  0  0  0  0  0
  -21.6849   -6.0739   22.5285 C   0  0  0  0  0  0
  -21.4008   -6.5649   23.8224 C   0  0  0  0  0  0
  -21.3653   -5.6810   24.9188 C   0  0  0  0  0  0
  -21.6048   -4.3063   24.7236 C   0  0  0  0  0  0
  -21.8811   -3.8150   23.4359 C   0  0  0  0  0  0
  -21.9190   -4.6970   22.3418 C   0  0  0  0  0  0
  -22.7892  -13.5243   21.1889 C   0  0  0  0  0  0
  -22.1650   -4.2148   21.0988 F   0  0  0  0  0  0
  -21.5642   -3.4548   25.7749 F   0  0  0  0  0  0
  -30.0505  -13.2494   20.4541 N   0  0  0  0  0  0
  -26.3036  -12.9240   20.3407 N   0  0  0  0  0  0
  -25.9293  -11.6426   20.5803 N   0  0  0  0  0  0
  -22.0518  -12.8233   22.0441 N   0  0  0  0  0  0
  -25.4294  -15.1797   20.3983 N   0  0  0  0  0  0
  -31.8290  -14.6476   20.1122 O   0  0  0  0  0  0
  -21.6644   -6.8864   21.4233 O   0  0  0  0  0  0
  -22.3601  -14.5576   20.6768 O   0  0  0  0  0  0
  -24.6095  -31.8712   23.2126 C   0  0  0  0  0  0
  -25.9022  -32.4819   23.8397 C   0  0  1  0  0  0
  -27.2452  -27.4833   20.0980 C   0  0  0  0  0  0
  -25.5913  -33.8624   24.2347 N   0  0  0  0  0  0
  -23.3945  -30.4918   21.5521 C   0  0  2  0  0  0
  -24.8452  -28.9624   20.1139 C   0  0  0  0  0  0
  -22.7378  -29.4671   22.5033 C   0  0  0  0  0  0
  -18.0254  -28.1376   22.8484 C   0  0  0  0  0  0
  -24.1492  -36.7316   23.2630 C   0  0  0  0  0  0
  -25.9157  -30.8510   21.3586 C   0  0  0  0  0  0
  -25.9970  -29.4873   20.7133 C   0  0  0  0  0  0
  -27.1985  -28.7524   20.7122 C   0  0  0  0  0  0
  -26.0870  -26.9680   19.4826 C   0  0  0  0  0  0
  -24.8821  -27.6977   19.4979 C   0  0  0  0  0  0
  -23.5996  -29.8171   20.1676 C   0  0  0  0  0  0
  -25.4105  -36.3111   24.0342 C   0  0  1  0  0  0
  -20.5837  -28.3650   23.1346 C   0  0  2  0  0  0
  -20.6745  -26.9388   22.5448 C   0  0  0  0  0  0
  -19.5747  -26.6376   21.5223 C   0  0  0  0  0  0
  -18.1901  -26.7946   22.1573 C   0  0  0  0  0  0
  -19.1502  -28.8829   23.2908 C   0  0  0  0  0  0
  -18.9433  -30.1443   23.8905 C   0  0  0  0  0  0
  -17.6438  -30.6586   24.0556 C   0  0  0  0  0  0
  -25.9030  -34.9474   23.5133 C   0  0  0  0  0  0
  -16.5329  -29.9081   23.6340 C   0  0  0  0  0  0
  -16.7240  -28.6501   23.0350 C   0  0  0  0  0  0
  -26.4481  -31.6576   25.0697 C   0  0  0  0  0  0
  -25.3778  -31.3722   26.1484 C   0  0  0  0  0  0
  -27.0249  -30.2995   24.6050 C   0  0  0  0  0  0
  -27.6113  -32.4257   25.7402 C   0  0  0  0  0  0
  -27.5609  -37.1778   24.8440 C   0  0  0  0  0  0
  -21.4113  -29.3021   22.3762 N   0  0  0  0  0  0
  -26.4294  -37.3798   23.9426 N   0  0  0  0  0  0
  -24.6570  -31.0851   22.1000 N   0  0  0  0  0  0
  -23.4169  -28.8234   23.3072 O   0  0  0  0  0  0
  -28.3871  -26.7258   20.0970 O   0  0  0  0  0  0
  -26.5574  -34.8928   22.4686 O   0  0  0  0  0  0
  -23.5306  -32.1453   23.7560 O   0  0  0  0  0  0
  -30.9844  -25.3366   22.1920 C   0  0  0  0  0  0
  -31.5140  -23.0088   21.7465 C   0  0  0  0  0  0
  -31.8505  -24.2396   22.3361 C   0  0  0  0  0  0
  -29.7867  -25.2153   21.4625 C   0  0  0  0  0  0
  -30.3292  -22.8562   20.9856 C   0  0  0  0  0  0
  -29.4424  -23.9709   20.8612 C   0  0  0  0  0  0
  -27.1204  -20.3250   21.2998 C   0  0  0  0  0  0
  -28.2766  -20.8848   22.1209 C   0  0  0  0  0  0
  -27.6707  -18.9865   20.8323 C   0  0  0  0  0  0
  -29.5402  -20.4244   21.3656 C   0  0  2  0  0  0
  -33.1450  -24.3870   23.1125 C   0  0  0  0  0  0
  -28.1124  -23.8701   20.1146 C   0  0  0  0  0  0
  -31.2858  -20.9949   19.5380 C   0  0  0  0  0  0
  -30.5034  -16.9685   18.8375 C   0  0  0  0  0  0
  -28.8648  -26.4315   21.4102 C   0  0  0  0  0  0
  -29.8927  -17.9391   21.1327 C   0  0  0  0  0  0
  -30.0561  -21.4818   20.3365 C   0  0  2  0  0  0
  -29.6890  -16.7707   20.1389 C   0  0  2  0  0  0
  -29.8355  -15.4544   20.7845 N   0  0  0  0  0  0
  -29.1446  -19.1514   20.6948 N   0  3  1  0  0  0
  -31.4729  -12.3869   19.1140 H   0  0  0  0  0  0
  -30.3458  -11.2606   19.8150 H   0  0  0  0  0  0
  -29.7224  -11.7633   17.4319 H   0  0  0  0  0  0
  -29.6591  -13.4743   17.7764 H   0  0  0  0  0  0
  -27.8338  -11.2926   18.8378 H   0  0  0  0  0  0
  -27.3567  -12.6095   17.8035 H   0  0  0  0  0  0
  -27.7081  -14.2342   19.5799 H   0  0  0  0  0  0
  -28.6764  -11.9228   21.3425 H   0  0  0  0  0  0
  -28.4823  -13.5597   21.8856 H   0  0  0  0  0  0
  -25.2705   -9.5744   22.4812 H   0  0  0  0  0  0
  -24.0037   -7.4615   22.7435 H   0  0  0  0  0  0
  -21.0822   -8.8732   19.8936 H   0  0  0  0  0  0
  -22.3586  -10.9705   19.6214 H   0  0  0  0  0  0
  -21.1972   -7.6160   23.9722 H   0  0  0  0  0  0
  -21.1475   -6.0537   25.9090 H   0  0  0  0  0  0
  -22.0577   -2.7610   23.2860 H   0  0  0  0  0  0
  -22.4115  -11.9863   22.4793 H   0  0  0  0  0  0
  -21.1160  -13.1280   22.2700 H   0  0  0  0  0  0
  -24.6270  -15.7988   20.4343 H   0  0  0  0  0  0
  -26.2302  -15.5923   19.9416 H   0  0  0  0  0  0
  -26.7092  -32.5555   23.1168 H   0  0  0  0  0  0
  -25.0134  -33.9794   25.0537 H   0  0  0  0  0  0
  -22.6808  -31.3058   21.4120 H   0  0  0  0  0  0
  -23.3773  -35.9623   23.3232 H   0  0  0  0  0  0
  -24.3623  -36.8989   22.2060 H   0  0  0  0  0  0
  -23.7207  -37.6491   23.6678 H   0  0  0  0  0  0
  -26.0188  -31.6146   20.5865 H   0  0  0  0  0  0
  -26.8062  -30.9098   21.9712 H   0  0  0  0  0  0
  -28.0844  -29.1632   21.1762 H   0  0  0  0  0  0
  -26.1159  -25.9978   19.0068 H   0  0  0  0  0  0
  -23.9977  -27.2865   19.0310 H   0  0  0  0  0  0
  -23.6891  -30.5861   19.3996 H   0  0  0  0  0  0
  -22.7282  -29.2226   19.8857 H   0  0  0  0  0  0
  -25.1280  -36.1970   25.0836 H   0  0  0  0  0  0
  -20.9909  -28.3208   24.1473 H   0  0  0  0  0  0
  -20.5619  -26.2262   23.3633 H   0  0  0  0  0  0
  -21.6623  -26.7432   22.1256 H   0  0  0  0  0  0
  -19.6903  -25.6282   21.1262 H   0  0  0  0  0  0
  -19.6737  -27.3178   20.6754 H   0  0  0  0  0  0
  -17.4220  -26.6765   21.3918 H   0  0  0  0  0  0
  -18.0216  -26.0051   22.8911 H   0  0  0  0  0  0
  -19.7911  -30.7259   24.2266 H   0  0  0  0  0  0
  -17.4998  -31.6281   24.5128 H   0  0  0  0  0  0
  -15.5333  -30.2984   23.7672 H   0  0  0  0  0  0
  -15.8633  -28.0832   22.7064 H   0  0  0  0  0  0
  -24.5965  -30.7022   25.7883 H   0  0  0  0  0  0
  -24.8947  -32.2885   26.4883 H   0  0  0  0  0  0
  -25.8166  -30.8969   27.0265 H   0  0  0  0  0  0
  -26.2730  -29.6751   24.1205 H   0  0  0  0  0  0
  -27.4100  -29.7249   25.4485 H   0  0  0  0  0  0
  -27.8553  -30.4265   23.9100 H   0  0  0  0  0  0
  -27.2805  -33.3568   26.2012 H   0  0  0  0  0  0
  -28.3884  -32.6784   25.0173 H   0  0  0  0  0  0
  -28.0819  -31.8343   26.5270 H   0  0  0  0  0  0
  -28.2596  -38.0107   24.7553 H   0  0  0  0  0  0
  -28.1139  -36.2657   24.6154 H   0  0  0  0  0  0
  -27.2368  -37.1281   25.8849 H   0  0  0  0  0  0
  -20.9261  -29.8748   21.6997 H   0  0  0  0  0  0
  -26.0193  -38.2870   24.1478 H   0  0  0  0  0  0
  -31.2376  -26.2800   22.6559 H   0  0  0  0  0  0
  -32.1881  -22.1741   21.8809 H   0  0  0  0  0  0
  -26.9065  -20.9436   20.4316 H   0  0  0  0  0  0
  -26.1934  -20.2274   21.8661 H   0  0  0  0  0  0
  -28.2673  -20.4344   23.1131 H   0  0  0  0  0  0
  -28.2033  -21.9614   22.2733 H   0  0  0  0  0  0
  -27.2038  -18.6576   19.9021 H   0  0  0  0  0  0
  -27.4357  -18.2372   21.5911 H   0  0  0  0  0  0
  -30.3327  -20.2412   22.0944 H   0  0  0  0  0  0
  -33.1876  -25.3366   23.6474 H   0  0  0  0  0  0
  -33.9981  -24.3466   22.4345 H   0  0  0  0  0  0
  -33.2507  -23.5865   23.8448 H   0  0  0  0  0  0
  -27.3257  -24.4024   20.6500 H   0  0  0  0  0  0
  -27.7307  -22.8650   20.0059 H   0  0  0  0  0  0
  -28.2024  -24.3030   19.1176 H   0  0  0  0  0  0
  -31.5927  -21.7530   18.8152 H   0  0  0  0  0  0
  -31.0713  -20.0915   18.9675 H   0  0  0  0  0  0
  -32.1468  -20.7773   20.1696 H   0  0  0  0  0  0
  -30.1953  -17.8722   18.3124 H   0  0  0  0  0  0
  -30.3642  -16.1422   18.1392 H   0  0  0  0  0  0
  -31.5716  -17.0625   19.0376 H   0  0  0  0  0  0
  -29.3822  -27.3063   21.8053 H   0  0  0  0  0  0
  -28.0308  -26.2354   22.0884 H   0  0  0  0  0  0
  -30.9582  -18.1652   21.2051 H   0  0  0  0  0  0
  -29.5801  -17.6649   22.1419 H   0  0  0  0  0  0
  -29.2950  -21.6033   19.5706 H   0  0  0  0  0  0
  -28.6451  -16.7552   19.8255 H   0  0  0  0  0  0
  -28.9835  -15.1159   21.2079 H   0  0  0  0  0  0
  -29.3450  -19.2836   19.7141 H   0  0  0  0  0  0
  1 25  1  0  0  0
  1 30  2  0  0  0
  1 89  1  0  0  0
  2  3  1  0  0  0
  2 25  1  0  0  0
  2 91  1  0  0  0
  2 92  1  0  0  0
  3  4  1  0  0  0
  3 93  1  0  0  0
  3 94  1  0  0  0
  4  5  1  0  0  0
  4 95  1  0  0  0
  4 96  1  0  0  0
  5  6  1  0  0  0
  5 26  1  0  0  0
  5 97  1  0  0  0
  6 25  1  0  0  0
  6 98  1  0  0  0
  6 99  1  0  0  0
  7  8  2  0  0  0
  7 26  1  0  0  0
  7 29  1  0  0  0
  8  9  1  0  0  0
  8 22  1  0  0  0
  9 10  1  0  0  0
  9 27  2  0  0  0
 10 11  2  0  0  0
 10 15  1  0  0  0
 11 12  1  0  0  0
 11100  1  0  0  0
 12 13  2  0  0  0
 12101  1  0  0  0
 13 14  1  0  0  0
 13 31  1  0  0  0
 14 15  2  0  0  0
 14102  1  0  0  0
 15103  1  0  0  0
 16 17  2  0  0  0
 16 21  1  0  0  0
 16 31  1  0  0  0
 17 18  1  0  0  0
 17104  1  0  0  0
 18 19  2  0  0  0
 18105  1  0  0  0
 19 20  1  0  0  0
 19 24  1  0  0  0
 20 21  2  0  0  0
 20106  1  0  0  0
 21 23  1  0  0  0
 22 28  1  0  0  0
 22 32  2  0  0  0
 26 27  1  0  0  0
 28107  1  0  0  0
 28108  1  0  0  0
 29109  1  0  0  0
 29110  1  0  0  0
 33 34  1  0  0  0
 33 66  1  0  0  0
 33 70  2  0  0  0
 34 36  1  0  0  0
 34 59  1  0  0  0
 34111  1  0  0  0
 35 44  2  0  0  0
 35 45  1  0  0  0
 35 68  1  0  0  0
 36 56  1  0  0  0
 36112  1  0  0  0
 37 39  1  0  0  0
 37 47  1  0  0  0
 37 66  1  0  0  0
 37113  1  0  0  0
 38 43  2  0  0  0
 38 46  1  0  0  0
 38 47  1  0  0  0
 39 64  1  0  0  0
 39 67  2  0  0  0
 40 52  1  0  0  0
 40 53  2  0  0  0
 40 58  1  0  0  0
 41114  1  0  0  0
 41115  1  0  0  0
 41116  1  0  0  0
 41 48  1  0  0  0
 42 43  1  0  0  0
 42 66  1  0  0  0
 42117  1  0  0  0
 42118  1  0  0  0
 43 44  1  0  0  0
 44119  1  0  0  0
 45 46  2  0  0  0
 45120  1  0  0  0
 46121  1  0  0  0
 47122  1  0  0  0
 47123  1  0  0  0
 48 56  1  0  0  0
 48 65  1  0  0  0
 48124  1  0  0  0
 49 50  1  0  0  0
 49 53  1  0  0  0
 49 64  1  0  0  0
 49125  1  0  0  0
 50 51  1  0  0  0
 50126  1  0  0  0
 50127  1  0  0  0
 51 52  1  0  0  0
 51128  1  0  0  0
 51129  1  0  0  0
 52130  1  0  0  0
 52131  1  0  0  0
 53 54  1  0  0  0
 54 55  2  0  0  0
 54132  1  0  0  0
 55 57  1  0  0  0
 55133  1  0  0  0
 56 69  2  0  0  0
 57 58  2  0  0  0
 57134  1  0  0  0
 58135  1  0  0  0
 59 60  1  0  0  0
 59 61  1  0  0  0
 59 62  1  0  0  0
 60136  1  0  0  0
 60137  1  0  0  0
 60138  1  0  0  0
 61139  1  0  0  0
 61140  1  0  0  0
 61141  1  0  0  0
 62142  1  0  0  0
 62143  1  0  0  0
 62144  1  0  0  0
 63 65  1  0  0  0
 63145  1  0  0  0
 63146  1  0  0  0
 63147  1  0  0  0
 64148  1  0  0  0
 65149  1  0  0  0
 68 85  1  0  0  0
 71 73  2  0  0  0
 71 74  1  0  0  0
 71150  1  0  0  0
 72 73  1  0  0  0
 72 75  2  0  0  0
 72151  1  0  0  0
 73 81  1  0  0  0
 74 76  2  0  0  0
 74 85  1  0  0  0
 75 76  1  0  0  0
 75 87  1  0  0  0
 76 82  1  0  0  0
 77 78  1  0  0  0
 77 79  1  0  0  0
 77152  1  0  0  0
 77153  1  0  0  0
 78154  1  0  0  0
 78155  1  0  0  0
 78 80  1  0  0  0
 79 90  1  0  0  0
 79156  1  0  0  0
 79157  1  0  0  0
 80 87  1  0  0  0
 80 90  1  0  0  0
 80158  1  0  0  0
 81159  1  0  0  0
 81160  1  0  0  0
 81161  1  0  0  0
 82162  1  0  0  0
 82163  1  0  0  0
 82164  1  0  0  0
 83165  1  0  0  0
 83166  1  0  0  0
 83167  1  0  0  0
 83 87  1  0  0  0
 84168  1  0  0  0
 84169  1  0  0  0
 84170  1  0  0  0
 84 88  1  0  0  0
 85171  1  0  0  0
 85172  1  0  0  0
 86 88  1  0  0  0
 86173  1  0  0  0
 86174  1  0  0  0
 86 90  1  0  0  0
 87175  1  0  0  0
 88 89  1  0  0  0
 88176  1  0  0  0
 89177  1  0  0  0
 90178  1  0  0  0
M  CHG  1  90   1
M  ISO  4   1 100  68 101  85 101  89 100
M  END
> <chiral flag>
0

> <version>
0

> <s_m_source_file>
/data/baiqing/PycharmProjects/Reinvent-master-3.2/result/LINK_invent/BTK/process_docking_weight1_custom_sum_contain_oxygen_bond_distance_aromatic_linkinvent_7_9_3/rearranged_h_0147.sdf

> <i_m_source_file_index>
68

> <r_mmod_Potential_Energy-OPLS-2005>
-16.2960014343262

> <r_mmod_Stretch_Energy-OPLS-2005>
40.1209716796875

> <r_mmod_Bend_Energy-OPLS-2005>
125.538368225098

> <r_mmod_Torsional_Energy-OPLS-2005>
336.759368896484

> <r_mmod_Improper_Torsional_Energy-OPLS-2005>
10.323712348938

> <r_mmod_Van_der_Waal_Energy-OPLS-2005>
157.562973022461

> <r_mmod_Electrostatic_Energy-OPLS-2005>
-261.058502197266

> <r_mmod_Solvation_Energy-OPLS-2005>
-437.029968261719

> <b_mmod_Minimization_Converged-OPLS-2005>
0

> <r_mmod_RMS_Derivative-OPLS-2005>
2.72097110748291

$$$$
68
                    3D
 Structure written by MMmdl.
158167  0  0  1  0            999 V2000
  -30.6574  -14.5548   20.5474 C   0  0  0  0  0  0
  -30.4318  -12.3544   19.4376 C   0  0  0  0  0  0
  -29.4980  -12.5027   18.2166 C   0  0  0  0  0  0
  -28.0198  -12.3575   18.6304 C   0  0  0  0  0  0
  -27.6587  -13.2082   19.8761 C   0  0  2  0  0  0
  -28.7039  -13.0190   21.0001 C   0  0  0  0  0  0
  -25.2548  -13.8169   20.5632 C   0  0  0  0  0  0
  -24.1809  -13.0446   20.9179 C   0  0  0  0  0  0
  -24.6370  -11.6903   20.8746 C   0  0  0  0  0  0
  -23.9023  -10.4290   21.0383 C   0  0  0  0  0  0
  -24.3576   -9.4200   21.9169 C   0  0  0  0  0  0
  -23.6272   -8.2217   22.0735 C   0  0  0  0  0  0
  -22.4250   -8.0261   21.3515 C   0  0  0  0  0  0
  -21.9879   -9.0233   20.4613 C   0  0  0  0  0  0
  -22.7190  -10.2124   20.3029 C   0  0  0  0  0  0
  -21.6840   -6.0707   22.5246 C   0  0  0  0  0  0
  -21.4004   -6.5610   23.8188 C   0  0  0  0  0  0
  -21.3662   -5.6759   24.9143 C   0  0  0  0  0  0
  -21.6060   -4.3038   24.7193 C   0  0  0  0  0  0
  -21.8835   -3.8127   23.4312 C   0  0  0  0  0  0
  -21.9176   -4.6936   22.3361 C   0  0  0  0  0  0
  -22.7816  -13.5225   21.1836 C   0  0  0  0  0  0
  -22.1647   -4.2119   21.0942 F   0  0  0  0  0  0
  -21.5667   -3.4532   25.7724 F   0  0  0  0  0  0
  -30.0237  -13.3511   20.4413 N   0  0  0  0  0  0
  -26.3008  -12.9333   20.3378 N   0  0  0  0  0  0
  -25.9299  -11.6499   20.5796 N   0  0  0  0  0  0
  -22.0454  -12.8208   22.0405 N   0  0  0  0  0  0
  -25.4299  -15.1889   20.3988 N   0  0  0  0  0  0
  -31.7966  -14.7412   20.1137 O   0  0  0  0  0  0
  -21.6607   -6.8856   21.4215 O   0  0  0  0  0  0
  -22.3502  -14.5535   20.6681 O   0  0  0  0  0  0
  -24.6236  -31.8636   23.2041 C   0  0  0  0  0  0
  -25.9108  -32.4798   23.8356 C   0  0  1  0  0  0
  -27.2342  -27.3584   20.1101 C   0  0  0  0  0  0
  -25.5951  -33.8581   24.2280 N   0  0  0  0  0  0
  -23.4156  -30.4824   21.5457 C   0  0  2  0  0  0
  -24.8625  -28.9406   20.1120 C   0  0  0  0  0  0
  -22.7468  -29.4616   22.4958 C   0  0  0  0  0  0
  -18.0293  -28.1381   22.8490 C   0  0  0  0  0  0
  -24.1470  -36.7271   23.2640 C   0  0  0  0  0  0
  -25.9522  -30.8026   21.3709 C   0  0  0  0  0  0
  -26.0240  -29.4296   20.7195 C   0  0  0  0  0  0
  -27.2071  -28.6437   20.7195 C   0  0  0  0  0  0
  -26.0559  -26.9159   19.4718 C   0  0  0  0  0  0
  -24.8774  -27.6857   19.4830 C   0  0  0  0  0  0
  -23.6291  -29.8159   20.1590 C   0  0  0  0  0  0
  -25.4106  -36.3084   24.0337 C   0  0  1  0  0  0
  -20.5880  -28.3675   23.1295 C   0  0  2  0  0  0
  -20.6760  -26.9398   22.5413 C   0  0  0  0  0  0
  -19.5734  -26.6395   21.5206 C   0  0  0  0  0  0
  -18.1919  -26.7921   22.1629 C   0  0  0  0  0  0
  -19.1546  -28.8863   23.2876 C   0  0  0  0  0  0
  -18.9471  -30.1468   23.8869 C   0  0  0  0  0  0
  -17.6477  -30.6570   24.0560 C   0  0  0  0  0  0
  -25.9070  -34.9450   23.5109 C   0  0  0  0  0  0
  -16.5363  -29.9080   23.6302 C   0  0  0  0  0  0
  -16.7287  -28.6504   23.0311 C   0  0  0  0  0  0
  -26.4495  -31.6583   25.0720 C   0  0  0  0  0  0
  -25.3754  -31.3722   26.1482 C   0  0  0  0  0  0
  -27.0344  -30.3012   24.6142 C   0  0  0  0  0  0
  -27.6062  -32.4318   25.7500 C   0  0  0  0  0  0
  -27.5562  -37.1797   24.8479 C   0  0  0  0  0  0
  -21.4197  -29.3027   22.3705 N   0  0  0  0  0  0
  -26.4271  -37.3789   23.9421 N   0  0  0  0  0  0
  -24.6812  -31.0657   22.0977 N   0  0  0  0  0  0
  -23.4201  -28.8161   23.3036 O   0  0  0  0  0  0
  -28.3902  -26.5808   20.1802 O   0  0  0  0  0  0
  -26.5602  -34.8930   22.4649 O   0  0  0  0  0  0
  -23.5413  -32.1421   23.7396 O   0  0  0  0  0  0
  -25.5464  -19.9436   19.2220 C   0  0  0  0  0  0
  -25.4094  -21.3339   19.3177 C   0  0  0  0  0  0
  -26.7521  -19.3216   19.5996 C   0  0  0  0  0  0
  -26.5091  -22.0756   19.7661 C   0  0  0  0  0  0
  -27.7303  -21.4860   20.1079 C   0  0  0  0  0  0
  -27.8869  -20.0496   20.0772 C   0  0  0  0  0  0
  -26.5045  -23.5754   19.8628 C   0  0  0  0  0  0
  -28.7140  -22.6187   20.4437 C   0  0  0  0  0  0
  -27.8925  -23.9866   20.4082 C   0  0  1  0  0  0
  -28.4964  -25.2262   19.6262 C   0  0  0  0  0  0
  -30.1990  -17.0458   20.9814 C   0  0  0  0  0  0
  -28.9772  -17.8918   20.4908 C   0  0  0  0  0  0
  -29.8986  -15.5833   20.9995 N   0  0  0  0  0  0
  -29.0456  -19.3587   20.4734 O   0  0  0  0  0  0
  -31.4720  -12.4773   19.1307 H   0  0  0  0  0  0
  -30.3612  -11.3515   19.8574 H   0  0  0  0  0  0
  -29.7512  -11.7567   17.4611 H   0  0  0  0  0  0
  -29.6517  -13.4781   17.7524 H   0  0  0  0  0  0
  -27.8371  -11.3003   18.8365 H   0  0  0  0  0  0
  -27.3660  -12.6197   17.7975 H   0  0  0  0  0  0
  -27.6939  -14.2509   19.5660 H   0  0  0  0  0  0
  -28.7061  -11.9849   21.3501 H   0  0  0  0  0  0
  -28.4610  -13.6237   21.8739 H   0  0  0  0  0  0
  -25.2717   -9.5692   22.4726 H   0  0  0  0  0  0
  -24.0001   -7.4604   22.7435 H   0  0  0  0  0  0
  -21.0823   -8.8694   19.8923 H   0  0  0  0  0  0
  -22.3617  -10.9635   19.6144 H   0  0  0  0  0  0
  -21.1976   -7.6122   23.9690 H   0  0  0  0  0  0
  -21.1506   -6.0473   25.9049 H   0  0  0  0  0  0
  -22.0633   -2.7579   23.2781 H   0  0  0  0  0  0
  -22.4092  -11.9894   22.4828 H   0  0  0  0  0  0
  -21.1090  -13.1264   22.2629 H   0  0  0  0  0  0
  -24.6673  -15.8489   20.5011 H   0  0  0  0  0  0
  -26.2740  -15.6123   20.0403 H   0  0  0  0  0  0
  -26.7206  -32.5439   23.1139 H   0  0  0  0  0  0
  -25.0165  -33.9716   25.0481 H   0  0  0  0  0  0
  -22.7107  -31.3026   21.4004 H   0  0  0  0  0  0
  -23.3741  -35.9585   23.3314 H   0  0  0  0  0  0
  -24.3581  -36.8873   22.2054 H   0  0  0  0  0  0
  -23.7226  -37.6488   23.6644 H   0  0  0  0  0  0
  -26.0835  -31.5670   20.6012 H   0  0  0  0  0  0
  -26.8339  -30.8506   21.9989 H   0  0  0  0  0  0
  -28.0980  -29.0113   21.2080 H   0  0  0  0  0  0
  -26.0255  -25.9799   18.9491 H   0  0  0  0  0  0
  -23.9897  -27.3039   18.9957 H   0  0  0  0  0  0
  -23.7534  -30.5918   19.4027 H   0  0  0  0  0  0
  -22.7507  -29.2461   19.8514 H   0  0  0  0  0  0
  -25.1277  -36.1921   25.0828 H   0  0  0  0  0  0
  -20.9979  -28.3229   24.1413 H   0  0  0  0  0  0
  -20.5642  -26.2282   23.3614 H   0  0  0  0  0  0
  -21.6621  -26.7395   22.1209 H   0  0  0  0  0  0
  -19.6869  -25.6317   21.1219 H   0  0  0  0  0  0
  -19.6645  -27.3214   20.6739 H   0  0  0  0  0  0
  -17.4173  -26.6695   21.4040 H   0  0  0  0  0  0
  -18.0293  -26.0058   22.9027 H   0  0  0  0  0  0
  -19.7970  -30.7289   24.2192 H   0  0  0  0  0  0
  -17.5035  -31.6227   24.5214 H   0  0  0  0  0  0
  -15.5366  -30.2969   23.7648 H   0  0  0  0  0  0
  -15.8695  -28.0844   22.6980 H   0  0  0  0  0  0
  -24.5918  -30.7069   25.7845 H   0  0  0  0  0  0
  -24.8971  -32.2893   26.4927 H   0  0  0  0  0  0
  -25.8129  -30.8927   27.0250 H   0  0  0  0  0  0
  -26.2909  -29.6785   24.1171 H   0  0  0  0  0  0
  -27.4086  -29.7248   25.4618 H   0  0  0  0  0  0
  -27.8740  -30.4333   23.9317 H   0  0  0  0  0  0
  -27.2655  -33.3601   26.2084 H   0  0  0  0  0  0
  -28.3859  -32.6906   25.0326 H   0  0  0  0  0  0
  -28.0721  -31.8447   26.5433 H   0  0  0  0  0  0
  -28.2604  -38.0069   24.7489 H   0  0  0  0  0  0
  -28.1037  -36.2614   24.6323 H   0  0  0  0  0  0
  -27.2288  -37.1441   25.8886 H   0  0  0  0  0  0
  -20.9398  -29.8804   21.6952 H   0  0  0  0  0  0
  -26.0149  -38.2853   24.1445 H   0  0  0  0  0  0
  -24.7244  -19.3421   18.8615 H   0  0  0  0  0  0
  -24.4866  -21.8229   19.0342 H   0  0  0  0  0  0
  -26.7500  -18.2491   19.4998 H   0  0  0  0  0  0
  -25.6918  -23.9331   20.4953 H   0  0  0  0  0  0
  -26.3409  -23.9246   18.8439 H   0  0  0  0  0  0
  -29.5252  -22.6263   19.7149 H   0  0  0  0  0  0
  -29.1551  -22.4484   21.4253 H   0  0  0  0  0  0
  -27.7612  -24.2850   21.4506 H   0  0  0  0  0  0
  -28.1779  -25.2286   18.5842 H   0  0  0  0  0  0
  -29.5711  -25.0514   19.5652 H   0  0  0  0  0  0
  -30.4713  -17.3470   21.9941 H   0  0  0  0  0  0
  -31.0653  -17.2554   20.3495 H   0  0  0  0  0  0
  -28.1265  -17.5979   21.1112 H   0  0  0  0  0  0
  -28.7719  -17.5518   19.4756 H   0  0  0  0  0  0
  -28.9878  -15.3225   21.3496 H   0  0  0  0  0  0
  1 25  1  0  0  0
  1 30  2  0  0  0
  1 83  1  0  0  0
  2  3  1  0  0  0
  2 25  1  0  0  0
  2 85  1  0  0  0
  2 86  1  0  0  0
  3  4  1  0  0  0
  3 87  1  0  0  0
  3 88  1  0  0  0
  4  5  1  0  0  0
  4 89  1  0  0  0
  4 90  1  0  0  0
  5  6  1  0  0  0
  5 26  1  0  0  0
  5 91  1  0  0  0
  6 25  1  0  0  0
  6 92  1  0  0  0
  6 93  1  0  0  0
  7  8  2  0  0  0
  7 26  1  0  0  0
  7 29  1  0  0  0
  8  9  1  0  0  0
  8 22  1  0  0  0
  9 10  1  0  0  0
  9 27  2  0  0  0
 10 11  2  0  0  0
 10 15  1  0  0  0
 11 12  1  0  0  0
 11 94  1  0  0  0
 12 13  2  0  0  0
 12 95  1  0  0  0
 13 14  1  0  0  0
 13 31  1  0  0  0
 14 15  2  0  0  0
 14 96  1  0  0  0
 15 97  1  0  0  0
 16 17  2  0  0  0
 16 21  1  0  0  0
 16 31  1  0  0  0
 17 18  1  0  0  0
 17 98  1  0  0  0
 18 19  2  0  0  0
 18 99  1  0  0  0
 19 20  1  0  0  0
 19 24  1  0  0  0
 20 21  2  0  0  0
 20100  1  0  0  0
 21 23  1  0  0  0
 22 28  1  0  0  0
 22 32  2  0  0  0
 26 27  1  0  0  0
 28101  1  0  0  0
 28102  1  0  0  0
 29103  1  0  0  0
 29104  1  0  0  0
 33 34  1  0  0  0
 33 66  1  0  0  0
 33 70  2  0  0  0
 34 36  1  0  0  0
 34 59  1  0  0  0
 34105  1  0  0  0
 35 44  2  0  0  0
 35 45  1  0  0  0
 35 68  1  0  0  0
 36 56  1  0  0  0
 36106  1  0  0  0
 37 39  1  0  0  0
 37 47  1  0  0  0
 37 66  1  0  0  0
 37107  1  0  0  0
 38 43  2  0  0  0
 38 46  1  0  0  0
 38 47  1  0  0  0
 39 64  1  0  0  0
 39 67  2  0  0  0
 40 52  1  0  0  0
 40 53  2  0  0  0
 40 58  1  0  0  0
 41108  1  0  0  0
 41109  1  0  0  0
 41110  1  0  0  0
 41 48  1  0  0  0
 42 43  1  0  0  0
 42 66  1  0  0  0
 42111  1  0  0  0
 42112  1  0  0  0
 43 44  1  0  0  0
 44113  1  0  0  0
 45 46  2  0  0  0
 45114  1  0  0  0
 46115  1  0  0  0
 47116  1  0  0  0
 47117  1  0  0  0
 48 56  1  0  0  0
 48 65  1  0  0  0
 48118  1  0  0  0
 49 50  1  0  0  0
 49 53  1  0  0  0
 49 64  1  0  0  0
 49119  1  0  0  0
 50 51  1  0  0  0
 50120  1  0  0  0
 50121  1  0  0  0
 51 52  1  0  0  0
 51122  1  0  0  0
 51123  1  0  0  0
 52124  1  0  0  0
 52125  1  0  0  0
 53 54  1  0  0  0
 54 55  2  0  0  0
 54126  1  0  0  0
 55 57  1  0  0  0
 55127  1  0  0  0
 56 69  2  0  0  0
 57 58  2  0  0  0
 57128  1  0  0  0
 58129  1  0  0  0
 59 60  1  0  0  0
 59 61  1  0  0  0
 59 62  1  0  0  0
 60130  1  0  0  0
 60131  1  0  0  0
 60132  1  0  0  0
 61133  1  0  0  0
 61134  1  0  0  0
 61135  1  0  0  0
 62136  1  0  0  0
 62137  1  0  0  0
 62138  1  0  0  0
 63 65  1  0  0  0
 63139  1  0  0  0
 63140  1  0  0  0
 63141  1  0  0  0
 64142  1  0  0  0
 65143  1  0  0  0
 68 80  1  0  0  0
 71 72  2  0  0  0
 71 73  1  0  0  0
 71144  1  0  0  0
 72 74  1  0  0  0
 72145  1  0  0  0
 73 76  2  0  0  0
 73146  1  0  0  0
 74 75  2  0  0  0
 74 77  1  0  0  0
 75 76  1  0  0  0
 75 78  1  0  0  0
 76 84  1  0  0  0
 77 79  1  0  0  0
 77147  1  0  0  0
 77148  1  0  0  0
 78 79  1  0  0  0
 78149  1  0  0  0
 78150  1  0  0  0
 79 80  1  0  0  0
 79151  1  0  0  0
 80152  1  0  0  0
 80153  1  0  0  0
 81 82  1  0  0  0
 81 83  1  0  0  0
 81154  1  0  0  0
 81155  1  0  0  0
 82 84  1  0  0  0
 82156  1  0  0  0
 82157  1  0  0  0
 83158  1  0  0  0
M  ISO  4   1 100  68 101  80 101  83 100
M  END
> <chiral flag>
0

> <version>
0

> <s_m_source_file>
/data/baiqing/PycharmProjects/Reinvent-master-3.2/result/LINK_invent/BTK/process_docking_weight1_custom_sum_contain_oxygen_bond_distance_aromatic_linkinvent_7_9_3/rearranged_h_0147.sdf

> <i_m_source_file_index>
69

> <r_mmod_Potential_Energy-OPLS-2005>
-2.61864590644836

> <r_mmod_Stretch_Energy-OPLS-2005>
67.1816864013672

> <r_mmod_Bend_Energy-OPLS-2005>
177.450927734375

> <r_mmod_Torsional_Energy-OPLS-2005>
201.186157226562

> <r_mmod_Improper_Torsional_Energy-OPLS-2005>
3.98420214653015

> <r_mmod_Van_der_Waal_Energy-OPLS-2005>
151.539886474609

> <r_mmod_Electrostatic_Energy-OPLS-2005>
-415.344635009766

> <r_mmod_Solvation_Energy-OPLS-2005>
-217.320587158203

> <b_mmod_Minimization_Converged-OPLS-2005>
0

> <r_mmod_RMS_Derivative-OPLS-2005>
4.6363320350647

$$$$
69
                    3D
 Structure written by MMmdl.
174184  0  0  1  0            999 V2000
  -30.7057  -14.4497   20.5960 C   0  0  0  0  0  0
  -30.4217  -12.3017   19.4148 C   0  0  0  0  0  0
  -29.4928  -12.5103   18.2025 C   0  0  0  0  0  0
  -28.0141  -12.3685   18.6165 C   0  0  0  0  0  0
  -27.6617  -13.2012   19.8790 C   0  0  2  0  0  0
  -28.7021  -12.9667   20.9965 C   0  0  0  0  0  0
  -25.2600  -13.8060   20.5781 C   0  0  0  0  0  0
  -24.1820  -13.0366   20.9173 C   0  0  0  0  0  0
  -24.6375  -11.6840   20.8720 C   0  0  0  0  0  0
  -23.9048  -10.4248   21.0392 C   0  0  0  0  0  0
  -24.3615   -9.4179   21.9175 C   0  0  0  0  0  0
  -23.6292   -8.2222   22.0761 C   0  0  0  0  0  0
  -22.4273   -8.0263   21.3554 C   0  0  0  0  0  0
  -21.9895   -9.0222   20.4651 C   0  0  0  0  0  0
  -22.7223  -10.2094   20.3045 C   0  0  0  0  0  0
  -21.6843   -6.0740   22.5284 C   0  0  0  0  0  0
  -21.4008   -6.5647   23.8219 C   0  0  0  0  0  0
  -21.3657   -5.6802   24.9181 C   0  0  0  0  0  0
  -21.6048   -4.3065   24.7227 C   0  0  0  0  0  0
  -21.8823   -3.8154   23.4347 C   0  0  0  0  0  0
  -21.9192   -4.6972   22.3404 C   0  0  0  0  0  0
  -22.7856  -13.5195   21.1850 C   0  0  0  0  0  0
  -22.1659   -4.2162   21.0981 F   0  0  0  0  0  0
  -21.5638   -3.4545   25.7738 F   0  0  0  0  0  0
  -30.0334  -13.2764   20.4447 N   0  0  0  0  0  0
  -26.3025  -12.9249   20.3400 N   0  0  0  0  0  0
  -25.9305  -11.6406   20.5750 N   0  0  0  0  0  0
  -22.0493  -12.8172   22.0390 N   0  0  0  0  0  0
  -25.4340  -15.1753   20.4444 N   0  0  0  0  0  0
  -31.8222  -14.6430   20.1062 O   0  0  0  0  0  0
  -21.6634   -6.8867   21.4246 O   0  0  0  0  0  0
  -22.3553  -14.5525   20.6735 O   0  0  0  0  0  0
  -24.6103  -31.8691   23.2082 C   0  0  0  0  0  0
  -25.9018  -32.4830   23.8371 C   0  0  1  0  0  0
  -27.2586  -27.4651   20.0842 C   0  0  0  0  0  0
  -25.5901  -33.8618   24.2321 N   0  0  0  0  0  0
  -23.3997  -30.4897   21.5469 C   0  0  2  0  0  0
  -24.8485  -28.9494   20.1166 C   0  0  0  0  0  0
  -22.7388  -29.4664   22.4995 C   0  0  0  0  0  0
  -18.0278  -28.1361   22.8460 C   0  0  0  0  0  0
  -24.1502  -36.7294   23.2645 C   0  0  0  0  0  0
  -25.9239  -30.8410   21.3571 C   0  0  0  0  0  0
  -26.0033  -29.4766   20.7064 C   0  0  0  0  0  0
  -27.2034  -28.7389   20.6870 C   0  0  0  0  0  0
  -26.0840  -26.9405   19.4981 C   0  0  0  0  0  0
  -24.8834  -27.6794   19.5128 C   0  0  0  0  0  0
  -23.6053  -29.8099   20.1654 C   0  0  0  0  0  0
  -25.4118  -36.3104   24.0365 C   0  0  1  0  0  0
  -20.5863  -28.3635   23.1319 C   0  0  2  0  0  0
  -20.6767  -26.9379   22.5412 C   0  0  0  0  0  0
  -19.5754  -26.6371   21.5198 C   0  0  0  0  0  0
  -18.1928  -26.7913   22.1602 C   0  0  0  0  0  0
  -19.1531  -28.8815   23.2885 C   0  0  0  0  0  0
  -18.9469  -30.1409   23.8892 C   0  0  0  0  0  0
  -17.6475  -30.6573   24.0550 C   0  0  0  0  0  0
  -25.9050  -34.9481   23.5145 C   0  0  0  0  0  0
  -16.5351  -29.9072   23.6328 C   0  0  0  0  0  0
  -16.7267  -28.6502   23.0324 C   0  0  0  0  0  0
  -26.4457  -31.6599   25.0688 C   0  0  0  0  0  0
  -25.3722  -31.3731   26.1445 C   0  0  0  0  0  0
  -27.0285  -30.3060   24.6029 C   0  0  0  0  0  0
  -27.6019  -32.4317   25.7457 C   0  0  0  0  0  0
  -27.5593  -37.1787   24.8460 C   0  0  0  0  0  0
  -21.4120  -29.3021   22.3720 N   0  0  0  0  0  0
  -26.4299  -37.3788   23.9439 N   0  0  0  0  0  0
  -24.6623  -31.0822   22.0961 N   0  0  0  0  0  0
  -23.4166  -28.8221   23.3046 O   0  0  0  0  0  0
  -28.4757  -26.8174   20.0932 O   0  0  0  0  0  0
  -26.5588  -34.8923   22.4691 O   0  0  0  0  0  0
  -23.5293  -32.1425   23.7502 O   0  0  0  0  0  0
  -29.6966  -19.1382   21.3949 C   0  0  0  0  0  0
  -31.6833  -17.2031   21.6914 C   0  0  0  0  0  0
  -31.0134  -19.5630   21.6708 C   0  0  0  0  0  0
  -32.0167  -18.5707   21.8328 C   0  0  0  0  0  0
  -30.3703  -16.7976   21.3546 C   0  0  0  0  0  0
  -29.3601  -17.7742   21.2107 C   0  0  0  0  0  0
  -27.0342  -19.3002   19.6914 C   0  0  0  0  0  0
  -26.0614  -18.1524   19.7338 C   0  0  0  0  0  0
  -31.8087  -21.5757   20.3383 C   0  0  0  0  0  0
  -30.1871  -21.9782   22.2534 C   0  0  0  0  0  0
  -31.5829  -23.0891   20.1470 C   0  0  0  0  0  0
  -29.3356  -22.6407   21.1397 C   0  0  0  0  0  0
  -31.3296  -21.0717   21.7185 C   0  0  1  0  0  0
  -27.0481  -18.3351   20.8630 C   0  0  0  0  0  0
  -33.4618  -18.9298   22.1473 C   0  0  0  0  0  0
  -29.9270  -24.9280   20.2996 C   0  0  0  0  0  0
  -28.5507  -25.4255   19.7958 C   0  0  0  0  0  0
  -30.0116  -15.4268   21.2065 N   0  0  0  0  0  0
  -30.1378  -23.4553   20.1768 N   0  3  1  0  0  0
  -28.0880  -17.3569   20.8604 O   0  0  0  0  0  0
  -31.4674  -12.4015   19.1176 H   0  0  0  0  0  0
  -30.3220  -11.2875   19.8021 H   0  0  0  0  0  0
  -29.7294  -11.7907   17.4185 H   0  0  0  0  0  0
  -29.6614  -13.4991   17.7713 H   0  0  0  0  0  0
  -27.8269  -11.3104   18.8062 H   0  0  0  0  0  0
  -27.3631  -12.6454   17.7857 H   0  0  0  0  0  0
  -27.7081  -14.2530   19.5928 H   0  0  0  0  0  0
  -28.6762  -11.9266   21.3239 H   0  0  0  0  0  0
  -28.4609  -13.5519   21.8857 H   0  0  0  0  0  0
  -25.2766   -9.5668   22.4736 H   0  0  0  0  0  0
  -24.0023   -7.4613   22.7475 H   0  0  0  0  0  0
  -21.0831   -8.8714   19.8952 H   0  0  0  0  0  0
  -22.3677  -10.9629   19.6148 H   0  0  0  0  0  0
  -21.1994   -7.6154   23.9718 H   0  0  0  0  0  0
  -21.1479   -6.0537   25.9081 H   0  0  0  0  0  0
  -22.0606   -2.7619   23.2844 H   0  0  0  0  0  0
  -22.4103  -11.9804   22.4725 H   0  0  0  0  0  0
  -21.1116  -13.1198   22.2631 H   0  0  0  0  0  0
  -24.6802  -15.8320   20.6119 H   0  0  0  0  0  0
  -26.3184  -15.6268   20.2464 H   0  0  0  0  0  0
  -26.7088  -32.5546   23.1126 H   0  0  0  0  0  0
  -25.0081  -33.9770   25.0486 H   0  0  0  0  0  0
  -22.6872  -31.3057   21.3990 H   0  0  0  0  0  0
  -23.3781  -35.9602   23.3286 H   0  0  0  0  0  0
  -24.3606  -36.8906   22.2059 H   0  0  0  0  0  0
  -23.7221  -37.6489   23.6645 H   0  0  0  0  0  0
  -26.0345  -31.6092   20.5884 H   0  0  0  0  0  0
  -26.8138  -30.8923   21.9741 H   0  0  0  0  0  0
  -28.0985  -29.1478   21.1339 H   0  0  0  0  0  0
  -26.0827  -25.9752   19.0154 H   0  0  0  0  0  0
  -23.9973  -27.2649   19.0517 H   0  0  0  0  0  0
  -23.7037  -30.5766   19.3954 H   0  0  0  0  0  0
  -22.7349  -29.2193   19.8774 H   0  0  0  0  0  0
  -25.1287  -36.1964   25.0859 H   0  0  0  0  0  0
  -20.9940  -28.3180   24.1446 H   0  0  0  0  0  0
  -20.5666  -26.2232   23.3581 H   0  0  0  0  0  0
  -21.6641  -26.7416   22.1209 H   0  0  0  0  0  0
  -19.6947  -25.6299   21.1200 H   0  0  0  0  0  0
  -19.6732  -27.3189   20.6736 H   0  0  0  0  0  0
  -17.4212  -26.6638   21.4001 H   0  0  0  0  0  0
  -18.0330  -26.0055   22.8996 H   0  0  0  0  0  0
  -19.7954  -30.7214   24.2250 H   0  0  0  0  0  0
  -17.5053  -31.6250   24.5136 H   0  0  0  0  0  0
  -15.5368  -30.2976   23.7679 H   0  0  0  0  0  0
  -15.8661  -28.0841   22.7023 H   0  0  0  0  0  0
  -24.5871  -30.7115   25.7783 H   0  0  0  0  0  0
  -24.8947  -32.2910   26.4895 H   0  0  0  0  0  0
  -25.8070  -30.8890   27.0198 H   0  0  0  0  0  0
  -26.2821  -29.6830   24.1098 H   0  0  0  0  0  0
  -27.4115  -29.7296   25.4450 H   0  0  0  0  0  0
  -27.8617  -30.4432   23.9128 H   0  0  0  0  0  0
  -27.2630  -33.3603   26.2061 H   0  0  0  0  0  0
  -28.3806  -32.6905   25.0269 H   0  0  0  0  0  0
  -28.0702  -31.8430   26.5347 H   0  0  0  0  0  0
  -28.2565  -38.0125   24.7564 H   0  0  0  0  0  0
  -28.1138  -36.2665   24.6213 H   0  0  0  0  0  0
  -27.2323  -37.1320   25.8859 H   0  0  0  0  0  0
  -20.9268  -29.8724   21.6938 H   0  0  0  0  0  0
  -26.0200  -38.2873   24.1451 H   0  0  0  0  0  0
  -28.9367  -19.8879   21.2952 H   0  0  0  0  0  0
  -32.4532  -16.4576   21.8298 H   0  0  0  0  0  0
  -26.6244  -20.2955   19.8524 H   0  0  0  0  0  0
  -27.8455  -19.2400   18.9686 H   0  0  0  0  0  0
  -26.2297  -17.3568   19.0113 H   0  0  0  0  0  0
  -25.0181  -18.3826   19.9425 H   0  0  0  0  0  0
  -32.8628  -21.3318   20.2007 H   0  0  0  0  0  0
  -31.2764  -21.0516   19.5436 H   0  0  0  0  0  0
  -29.5638  -21.4496   22.9760 H   0  0  0  0  0  0
  -30.6345  -22.7926   22.8263 H   0  0  0  0  0  0
  -32.0139  -23.4098   19.1983 H   0  0  0  0  0  0
  -32.1253  -23.6300   20.9252 H   0  0  0  0  0  0
  -28.5444  -23.2311   21.6000 H   0  0  0  0  0  0
  -28.8174  -21.8840   20.5532 H   0  0  0  0  0  0
  -32.1434  -21.2103   22.4304 H   0  0  0  0  0  0
  -26.6892  -18.6398   21.8449 H   0  0  0  0  0  0
  -34.0703  -18.0348   22.2832 H   0  0  0  0  0  0
  -33.5379  -19.5093   23.0675 H   0  0  0  0  0  0
  -33.9031  -19.5057   21.3345 H   0  0  0  0  0  0
  -30.0862  -25.2264   21.3377 H   0  0  0  0  0  0
  -30.6899  -25.4437   19.7159 H   0  0  0  0  0  0
  -27.7370  -24.8916   20.2840 H   0  0  0  0  0  0
  -28.4630  -25.2745   18.7192 H   0  0  0  0  0  0
  -29.0525  -15.2032   21.4212 H   0  0  0  0  0  0
  -29.7840  -23.2021   19.2633 H   0  0  0  0  0  0
  1 25  1  0  0  0
  1 30  2  0  0  0
  1 88  1  0  0  0
  2  3  1  0  0  0
  2 25  1  0  0  0
  2 91  1  0  0  0
  2 92  1  0  0  0
  3  4  1  0  0  0
  3 93  1  0  0  0
  3 94  1  0  0  0
  4  5  1  0  0  0
  4 95  1  0  0  0
  4 96  1  0  0  0
  5  6  1  0  0  0
  5 26  1  0  0  0
  5 97  1  0  0  0
  6 25  1  0  0  0
  6 98  1  0  0  0
  6 99  1  0  0  0
  7  8  2  0  0  0
  7 26  1  0  0  0
  7 29  1  0  0  0
  8  9  1  0  0  0
  8 22  1  0  0  0
  9 10  1  0  0  0
  9 27  2  0  0  0
 10 11  2  0  0  0
 10 15  1  0  0  0
 11 12  1  0  0  0
 11100  1  0  0  0
 12 13  2  0  0  0
 12101  1  0  0  0
 13 14  1  0  0  0
 13 31  1  0  0  0
 14 15  2  0  0  0
 14102  1  0  0  0
 15103  1  0  0  0
 16 17  2  0  0  0
 16 21  1  0  0  0
 16 31  1  0  0  0
 17 18  1  0  0  0
 17104  1  0  0  0
 18 19  2  0  0  0
 18105  1  0  0  0
 19 20  1  0  0  0
 19 24  1  0  0  0
 20 21  2  0  0  0
 20106  1  0  0  0
 21 23  1  0  0  0
 22 28  1  0  0  0
 22 32  2  0  0  0
 26 27  1  0  0  0
 28107  1  0  0  0
 28108  1  0  0  0
 29109  1  0  0  0
 29110  1  0  0  0
 33 34  1  0  0  0
 33 66  1  0  0  0
 33 70  2  0  0  0
 34 36  1  0  0  0
 34 59  1  0  0  0
 34111  1  0  0  0
 35 44  2  0  0  0
 35 45  1  0  0  0
 35 68  1  0  0  0
 36 56  1  0  0  0
 36112  1  0  0  0
 37 39  1  0  0  0
 37 47  1  0  0  0
 37 66  1  0  0  0
 37113  1  0  0  0
 38 43  2  0  0  0
 38 46  1  0  0  0
 38 47  1  0  0  0
 39 64  1  0  0  0
 39 67  2  0  0  0
 40 52  1  0  0  0
 40 53  2  0  0  0
 40 58  1  0  0  0
 41114  1  0  0  0
 41115  1  0  0  0
 41116  1  0  0  0
 41 48  1  0  0  0
 42 43  1  0  0  0
 42 66  1  0  0  0
 42117  1  0  0  0
 42118  1  0  0  0
 43 44  1  0  0  0
 44119  1  0  0  0
 45 46  2  0  0  0
 45120  1  0  0  0
 46121  1  0  0  0
 47122  1  0  0  0
 47123  1  0  0  0
 48 56  1  0  0  0
 48 65  1  0  0  0
 48124  1  0  0  0
 49 50  1  0  0  0
 49 53  1  0  0  0
 49 64  1  0  0  0
 49125  1  0  0  0
 50 51  1  0  0  0
 50126  1  0  0  0
 50127  1  0  0  0
 51 52  1  0  0  0
 51128  1  0  0  0
 51129  1  0  0  0
 52130  1  0  0  0
 52131  1  0  0  0
 53 54  1  0  0  0
 54 55  2  0  0  0
 54132  1  0  0  0
 55 57  1  0  0  0
 55133  1  0  0  0
 56 69  2  0  0  0
 57 58  2  0  0  0
 57134  1  0  0  0
 58135  1  0  0  0
 59 60  1  0  0  0
 59 61  1  0  0  0
 59 62  1  0  0  0
 60136  1  0  0  0
 60137  1  0  0  0
 60138  1  0  0  0
 61139  1  0  0  0
 61140  1  0  0  0
 61141  1  0  0  0
 62142  1  0  0  0
 62143  1  0  0  0
 62144  1  0  0  0
 63 65  1  0  0  0
 63145  1  0  0  0
 63146  1  0  0  0
 63147  1  0  0  0
 64148  1  0  0  0
 65149  1  0  0  0
 68 87  1  0  0  0
 71 73  2  0  0  0
 71 76  1  0  0  0
 71150  1  0  0  0
 72 74  2  0  0  0
 72 75  1  0  0  0
 72151  1  0  0  0
 73 74  1  0  0  0
 73 83  1  0  0  0
 74 85  1  0  0  0
 75 76  2  0  0  0
 75 88  1  0  0  0
 76 90  1  0  0  0
 77 78  1  0  0  0
 77 84  1  0  0  0
 77152  1  0  0  0
 77153  1  0  0  0
 78 84  1  0  0  0
 78154  1  0  0  0
 78155  1  0  0  0
 79 81  1  0  0  0
 79 83  1  0  0  0
 79156  1  0  0  0
 79157  1  0  0  0
 80 82  1  0  0  0
 80 83  1  0  0  0
 80158  1  0  0  0
 80159  1  0  0  0
 81 89  1  0  0  0
 81160  1  0  0  0
 81161  1  0  0  0
 82 89  1  0  0  0
 82162  1  0  0  0
 82163  1  0  0  0
 83164  1  0  0  0
 84 90  1  0  0  0
 84165  1  0  0  0
 85166  1  0  0  0
 85167  1  0  0  0
 85168  1  0  0  0
 86 87  1  0  0  0
 86169  1  0  0  0
 86170  1  0  0  0
 86 89  1  0  0  0
 87171  1  0  0  0
 87172  1  0  0  0
 88173  1  0  0  0
 89174  1  0  0  0
M  CHG  1  89   1
M  ISO  4   1 100  68 101  87 101  88 100
M  END
> <chiral flag>
0

> <version>
0

> <s_m_source_file>
/data/baiqing/PycharmProjects/Reinvent-master-3.2/result/LINK_invent/BTK/process_docking_weight1_custom_sum_contain_oxygen_bond_distance_aromatic_linkinvent_7_9_3/rearranged_h_0147.sdf

> <i_m_source_file_index>
70

> <r_mmod_Potential_Energy-OPLS-2005>
-104.61376953125

> <r_mmod_Stretch_Energy-OPLS-2005>
40.1597557067871

> <r_mmod_Bend_Energy-OPLS-2005>
119.925689697266

> <r_mmod_Torsional_Energy-OPLS-2005>
290.847869873047

> <r_mmod_Improper_Torsional_Energy-OPLS-2005>
3.36080384254456

> <r_mmod_Van_der_Waal_Energy-OPLS-2005>
172.848968505859

> <r_mmod_Electrostatic_Energy-OPLS-2005>
-309.599914550781

> <r_mmod_Solvation_Energy-OPLS-2005>
-433.54296875

> <b_mmod_Minimization_Converged-OPLS-2005>
0

> <r_mmod_RMS_Derivative-OPLS-2005>
3.04124808311462

$$$$
70
                    3D
 Structure written by MMmdl.
159168  0  0  1  0            999 V2000
  -30.5133  -14.9151   20.4410 C   0  0  0  0  0  0
  -30.4514  -12.5628   19.4978 C   0  0  0  0  0  0
  -29.5258  -12.5369   18.2574 C   0  0  0  0  0  0
  -28.0581  -12.3179   18.6732 C   0  0  0  0  0  0
  -27.6379  -13.2356   19.8502 C   0  0  2  0  0  0
  -28.6807  -13.2157   20.9887 C   0  0  0  0  0  0
  -25.2471  -13.8153   20.5623 C   0  0  0  0  0  0
  -24.1797  -13.0414   20.9225 C   0  0  0  0  0  0
  -24.6397  -11.6898   20.8781 C   0  0  0  0  0  0
  -23.9074  -10.4282   21.0430 C   0  0  0  0  0  0
  -24.3622   -9.4195   21.9203 C   0  0  0  0  0  0
  -23.6288   -8.2237   22.0760 C   0  0  0  0  0  0
  -22.4270   -8.0288   21.3547 C   0  0  0  0  0  0
  -21.9910   -9.0266   20.4650 C   0  0  0  0  0  0
  -22.7247  -10.2140   20.3072 C   0  0  0  0  0  0
  -21.6852   -6.0733   22.5277 C   0  0  0  0  0  0
  -21.4014   -6.5635   23.8211 C   0  0  0  0  0  0
  -21.3659   -5.6787   24.9173 C   0  0  0  0  0  0
  -21.6042   -4.3053   24.7223 C   0  0  0  0  0  0
  -21.8816   -3.8143   23.4347 C   0  0  0  0  0  0
  -21.9189   -4.6958   22.3399 C   0  0  0  0  0  0
  -22.7820  -13.5219   21.1887 C   0  0  0  0  0  0
  -22.1660   -4.2143   21.0975 F   0  0  0  0  0  0
  -21.5622   -3.4535   25.7737 F   0  0  0  0  0  0
  -29.9660  -13.6357   20.4083 N   0  0  0  0  0  0
  -26.2917  -12.9379   20.3262 N   0  0  0  0  0  0
  -25.9338  -11.6525   20.5781 N   0  0  0  0  0  0
  -22.0451  -12.8224   22.0443 N   0  0  0  0  0  0
  -25.4079  -15.1843   20.3847 N   0  0  0  0  0  0
  -31.6993  -15.0447   20.1141 O   0  0  0  0  0  0
  -21.6635   -6.8887   21.4247 O   0  0  0  0  0  0
  -22.3519  -14.5528   20.6733 O   0  0  0  0  0  0
  -24.6409  -31.8460   23.1902 C   0  0  0  0  0  0
  -25.9182  -32.4712   23.8291 C   0  0  1  0  0  0
  -27.2235  -27.1491   20.1545 C   0  0  0  0  0  0
  -25.5936  -33.8518   24.2203 N   0  0  0  0  0  0
  -23.4458  -30.4656   21.5340 C   0  0  2  0  0  0
  -24.8972  -28.8951   20.1137 C   0  0  0  0  0  0
  -22.7561  -29.4557   22.4845 C   0  0  0  0  0  0
  -18.0308  -28.1397   22.8477 C   0  0  0  0  0  0
  -24.1487  -36.7264   23.2641 C   0  0  0  0  0  0
  -26.0013  -30.7247   21.3876 C   0  0  0  0  0  0
  -26.0749  -29.3365   20.7306 C   0  0  0  0  0  0
  -27.2393  -28.4811   20.7325 C   0  0  0  0  0  0
  -26.0176  -26.8095   19.4985 C   0  0  0  0  0  0
  -24.8810  -27.6440   19.4819 C   0  0  0  0  0  0
  -23.6740  -29.7954   20.1537 C   0  0  0  0  0  0
  -25.4116  -36.3038   24.0315 C   0  0  1  0  0  0
  -20.5921  -28.3719   23.1228 C   0  0  2  0  0  0
  -20.6783  -26.9419   22.5397 C   0  0  0  0  0  0
  -19.5755  -26.6379   21.5205 C   0  0  0  0  0  0
  -18.1942  -26.7938   22.1625 C   0  0  0  0  0  0
  -19.1566  -28.8877   23.2852 C   0  0  0  0  0  0
  -18.9481  -30.1471   23.8881 C   0  0  0  0  0  0
  -17.6478  -30.6588   24.0565 C   0  0  0  0  0  0
  -25.9067  -34.9415   23.5067 C   0  0  0  0  0  0
  -16.5370  -29.9086   23.6335 C   0  0  0  0  0  0
  -16.7290  -28.6505   23.0358 C   0  0  0  0  0  0
  -26.4508  -31.6575   25.0724 C   0  0  0  0  0  0
  -25.3696  -31.3791   26.1425 C   0  0  0  0  0  0
  -27.0356  -30.2962   24.6305 C   0  0  0  0  0  0
  -27.6040  -32.4346   25.7507 C   0  0  0  0  0  0
  -27.5578  -37.1783   24.8461 C   0  0  0  0  0  0
  -21.4253  -29.3053   22.3602 N   0  0  0  0  0  0
  -26.4283  -37.3744   23.9412 N   0  0  0  0  0  0
  -24.7159  -31.0327   22.0929 N   0  0  0  0  0  0
  -23.4205  -28.8098   23.2993 O   0  0  0  0  0  0
  -28.2867  -26.1749   20.2122 O   0  0  0  0  0  0
  -26.5661  -34.8913   22.4651 O   0  0  0  0  0  0
  -23.5529  -32.1326   23.7129 O   0  0  0  0  0  0
  -28.2276  -19.5845   21.3486 C   0  0  0  0  0  0
  -30.0734  -19.9420   19.9412 C   0  0  0  0  0  0
  -28.4945  -18.1684   21.3989 C   0  0  0  0  0  0
  -29.5651  -17.5292   20.6828 C   0  0  0  0  0  0
  -28.9672  -20.5635   20.6254 C   0  0  0  0  0  0
  -30.3657  -18.4916   19.9545 C   0  0  0  0  0  0
  -27.3275  -17.6871   23.6969 C   0  0  0  0  0  0
  -28.0003  -16.3953   23.3079 C   0  0  0  0  0  0
  -27.5410  -17.3590   22.2349 C   0  0  0  0  0  0
  -32.3381  -18.8230   18.6147 C   0  0  0  0  0  0
  -27.9833  -24.6482   20.2586 C   0  0  0  0  0  0
  -29.0121  -23.3127   20.2902 C   0  0  0  0  0  0
  -29.6435  -15.9959   20.7108 N   0  0  0  0  0  0
  -31.4071  -17.9452   19.2355 O   0  0  0  0  0  0
  -28.4518  -21.9356   20.6576 O   0  0  0  0  0  0
  -31.4860  -12.7291   19.1924 H   0  0  0  0  0  0
  -30.4422  -11.5985   20.0076 H   0  0  0  0  0  0
  -29.8402  -11.7546   17.5649 H   0  0  0  0  0  0
  -29.6163  -13.4819   17.7182 H   0  0  0  0  0  0
  -27.9537  -11.2729   18.9689 H   0  0  0  0  0  0
  -27.3944  -12.4608   17.8196 H   0  0  0  0  0  0
  -27.6148  -14.2469   19.4445 H   0  0  0  0  0  0
  -28.7574  -12.2205   21.4282 H   0  0  0  0  0  0
  -28.3817  -13.8802   21.8006 H   0  0  0  0  0  0
  -25.2771   -9.5661   22.4779 H   0  0  0  0  0  0
  -23.9983   -7.4623   22.7480 H   0  0  0  0  0  0
  -21.0832   -8.8808   19.8958 H   0  0  0  0  0  0
  -22.3720  -10.9692   19.6189 H   0  0  0  0  0  0
  -21.2012   -7.6142   23.9713 H   0  0  0  0  0  0
  -21.1481   -6.0517   25.9074 H   0  0  0  0  0  0
  -22.0592   -2.7602   23.2850 H   0  0  0  0  0  0
  -22.4064  -11.9889   22.4840 H   0  0  0  0  0  0
  -21.1082  -13.1285   22.2661 H   0  0  0  0  0  0
  -24.6213  -15.8203   20.4609 H   0  0  0  0  0  0
  -26.2131  -15.6052   19.9412 H   0  0  0  0  0  0
  -26.7250  -32.5337   23.1031 H   0  0  0  0  0  0
  -25.0037  -33.9640   25.0318 H   0  0  0  0  0  0
  -22.7467  -31.2900   21.3792 H   0  0  0  0  0  0
  -23.3752  -35.9592   23.3287 H   0  0  0  0  0  0
  -24.3565  -36.8911   22.2057 H   0  0  0  0  0  0
  -23.7244  -37.6456   23.6691 H   0  0  0  0  0  0
  -26.1535  -31.4776   20.6131 H   0  0  0  0  0  0
  -26.8730  -30.7777   22.0285 H   0  0  0  0  0  0
  -28.1374  -28.8159   21.2333 H   0  0  0  0  0  0
  -25.9117  -25.8629   18.9935 H   0  0  0  0  0  0
  -23.9827  -27.3026   18.9848 H   0  0  0  0  0  0
  -23.8127  -30.5697   19.3981 H   0  0  0  0  0  0
  -22.7902  -29.2360   19.8419 H   0  0  0  0  0  0
  -25.1299  -36.1866   25.0804 H   0  0  0  0  0  0
  -21.0021  -28.3314   24.1347 H   0  0  0  0  0  0
  -20.5649  -26.2338   23.3617 H   0  0  0  0  0  0
  -21.6653  -26.7401   22.1215 H   0  0  0  0  0  0
  -19.6910  -25.6282   21.1250 H   0  0  0  0  0  0
  -19.6696  -27.3173   20.6724 H   0  0  0  0  0  0
  -17.4202  -26.6677   21.4039 H   0  0  0  0  0  0
  -18.0354  -26.0082   22.9022 H   0  0  0  0  0  0
  -19.7957  -30.7294   24.2241 H   0  0  0  0  0  0
  -17.5030  -31.6263   24.5177 H   0  0  0  0  0  0
  -15.5368  -30.2984   23.7668 H   0  0  0  0  0  0
  -15.8693  -28.0814   22.7085 H   0  0  0  0  0  0
  -24.5841  -30.7177   25.7750 H   0  0  0  0  0  0
  -24.8933  -32.2992   26.4818 H   0  0  0  0  0  0
  -25.7962  -30.8968   27.0225 H   0  0  0  0  0  0
  -26.2958  -29.6701   24.1300 H   0  0  0  0  0  0
  -27.3936  -29.7251   25.4882 H   0  0  0  0  0  0
  -27.8885  -30.4179   23.9627 H   0  0  0  0  0  0
  -27.2612  -33.3650   26.2048 H   0  0  0  0  0  0
  -28.3863  -32.6907   25.0351 H   0  0  0  0  0  0
  -28.0689  -31.8505   26.5457 H   0  0  0  0  0  0
  -28.2582  -38.0093   24.7504 H   0  0  0  0  0  0
  -28.1087  -36.2621   24.6279 H   0  0  0  0  0  0
  -27.2302  -37.1418   25.8866 H   0  0  0  0  0  0
  -20.9455  -29.8767   21.6787 H   0  0  0  0  0  0
  -26.0152  -38.2807   24.1430 H   0  0  0  0  0  0
  -27.3711  -19.9429   21.9019 H   0  0  0  0  0  0
  -30.6867  -20.6075   19.3540 H   0  0  0  0  0  0
  -27.9520  -18.4549   24.1502 H   0  0  0  0  0  0
  -26.3176  -17.6111   24.0954 H   0  0  0  0  0  0
  -27.4256  -15.4810   23.4462 H   0  0  0  0  0  0
  -29.0671  -16.3135   23.5081 H   0  0  0  0  0  0
  -26.6493  -17.1211   21.6623 H   0  0  0  0  0  0
  -33.1350  -18.2375   18.1559 H   0  0  0  0  0  0
  -32.8008  -19.4921   19.3417 H   0  0  0  0  0  0
  -31.8705  -19.4111   17.8241 H   0  0  0  0  0  0
  -27.3506  -24.5396   21.1400 H   0  0  0  0  0  0
  -27.3296  -24.4256   19.4194 H   0  0  0  0  0  0
  -29.8059  -23.5189   21.0086 H   0  0  0  0  0  0
  -29.5069  -23.2287   19.3227 H   0  0  0  0  0  0
  -28.7684  -15.6070   21.0256 H   0  0  0  0  0  0
  1 25  1  0  0  0
  1 30  2  0  0  0
  1 83  1  0  0  0
  2  3  1  0  0  0
  2 25  1  0  0  0
  2 86  1  0  0  0
  2 87  1  0  0  0
  3  4  1  0  0  0
  3 88  1  0  0  0
  3 89  1  0  0  0
  4  5  1  0  0  0
  4 90  1  0  0  0
  4 91  1  0  0  0
  5  6  1  0  0  0
  5 26  1  0  0  0
  5 92  1  0  0  0
  6 25  1  0  0  0
  6 93  1  0  0  0
  6 94  1  0  0  0
  7  8  2  0  0  0
  7 26  1  0  0  0
  7 29  1  0  0  0
  8  9  1  0  0  0
  8 22  1  0  0  0
  9 10  1  0  0  0
  9 27  2  0  0  0
 10 11  2  0  0  0
 10 15  1  0  0  0
 11 12  1  0  0  0
 11 95  1  0  0  0
 12 13  2  0  0  0
 12 96  1  0  0  0
 13 14  1  0  0  0
 13 31  1  0  0  0
 14 15  2  0  0  0
 14 97  1  0  0  0
 15 98  1  0  0  0
 16 17  2  0  0  0
 16 21  1  0  0  0
 16 31  1  0  0  0
 17 18  1  0  0  0
 17 99  1  0  0  0
 18 19  2  0  0  0
 18100  1  0  0  0
 19 20  1  0  0  0
 19 24  1  0  0  0
 20 21  2  0  0  0
 20101  1  0  0  0
 21 23  1  0  0  0
 22 28  1  0  0  0
 22 32  2  0  0  0
 26 27  1  0  0  0
 28102  1  0  0  0
 28103  1  0  0  0
 29104  1  0  0  0
 29105  1  0  0  0
 33 34  1  0  0  0
 33 66  1  0  0  0
 33 70  2  0  0  0
 34 36  1  0  0  0
 34 59  1  0  0  0
 34106  1  0  0  0
 35 44  2  0  0  0
 35 45  1  0  0  0
 35 68  1  0  0  0
 36 56  1  0  0  0
 36107  1  0  0  0
 37 39  1  0  0  0
 37 47  1  0  0  0
 37 66  1  0  0  0
 37108  1  0  0  0
 38 43  2  0  0  0
 38 46  1  0  0  0
 38 47  1  0  0  0
 39 64  1  0  0  0
 39 67  2  0  0  0
 40 52  1  0  0  0
 40 53  2  0  0  0
 40 58  1  0  0  0
 41109  1  0  0  0
 41110  1  0  0  0
 41111  1  0  0  0
 41 48  1  0  0  0
 42 43  1  0  0  0
 42 66  1  0  0  0
 42112  1  0  0  0
 42113  1  0  0  0
 43 44  1  0  0  0
 44114  1  0  0  0
 45 46  2  0  0  0
 45115  1  0  0  0
 46116  1  0  0  0
 47117  1  0  0  0
 47118  1  0  0  0
 48 56  1  0  0  0
 48 65  1  0  0  0
 48119  1  0  0  0
 49 50  1  0  0  0
 49 53  1  0  0  0
 49 64  1  0  0  0
 49120  1  0  0  0
 50 51  1  0  0  0
 50121  1  0  0  0
 50122  1  0  0  0
 51 52  1  0  0  0
 51123  1  0  0  0
 51124  1  0  0  0
 52125  1  0  0  0
 52126  1  0  0  0
 53 54  1  0  0  0
 54 55  2  0  0  0
 54127  1  0  0  0
 55 57  1  0  0  0
 55128  1  0  0  0
 56 69  2  0  0  0
 57 58  2  0  0  0
 57129  1  0  0  0
 58130  1  0  0  0
 59 60  1  0  0  0
 59 61  1  0  0  0
 59 62  1  0  0  0
 60131  1  0  0  0
 60132  1  0  0  0
 60133  1  0  0  0
 61134  1  0  0  0
 61135  1  0  0  0
 61136  1  0  0  0
 62137  1  0  0  0
 62138  1  0  0  0
 62139  1  0  0  0
 63 65  1  0  0  0
 63140  1  0  0  0
 63141  1  0  0  0
 63142  1  0  0  0
 64143  1  0  0  0
 65144  1  0  0  0
 68 81  1  0  0  0
 71 73  2  0  0  0
 71 75  1  0  0  0
 71145  1  0  0  0
 72 75  2  0  0  0
 72 76  1  0  0  0
 72146  1  0  0  0
 73 74  1  0  0  0
 73 79  1  0  0  0
 74 76  2  0  0  0
 74 83  1  0  0  0
 75 85  1  0  0  0
 76 84  1  0  0  0
 77 78  1  0  0  0
 77 79  1  0  0  0
 77147  1  0  0  0
 77148  1  0  0  0
 78 79  1  0  0  0
 78149  1  0  0  0
 78150  1  0  0  0
 79151  1  0  0  0
 80 84  1  0  0  0
 80152  1  0  0  0
 80153  1  0  0  0
 80154  1  0  0  0
 81 82  1  0  0  0
 81155  1  0  0  0
 81156  1  0  0  0
 82 85  1  0  0  0
 82157  1  0  0  0
 82158  1  0  0  0
 83159  1  0  0  0
M  ISO  4   1 100  68 101  81 101  83 100
M  END
> <chiral flag>
0

> <version>
0

> <s_m_source_file>
/data/baiqing/PycharmProjects/Reinvent-master-3.2/result/LINK_invent/BTK/process_docking_weight1_custom_sum_contain_oxygen_bond_distance_aromatic_linkinvent_7_9_3/rearranged_h_0147.sdf

> <i_m_source_file_index>
71

> <r_mmod_Potential_Energy-OPLS-2005>
477.974731445312

> <r_mmod_Stretch_Energy-OPLS-2005>
223.718139648438

> <r_mmod_Bend_Energy-OPLS-2005>
312.576293945312

> <r_mmod_Torsional_Energy-OPLS-2005>
249.655914306641

> <r_mmod_Improper_Torsional_Energy-OPLS-2005>
4.17992353439331

> <r_mmod_Van_der_Waal_Energy-OPLS-2005>
131.335632324219

> <r_mmod_Electrostatic_Energy-OPLS-2005>
-396.304901123047

> <r_mmod_Solvation_Energy-OPLS-2005>
-221.458053588867

> <b_mmod_Minimization_Converged-OPLS-2005>
0

> <r_mmod_RMS_Derivative-OPLS-2005>
1.59411716461182

$$$$
71
                    3D
 Structure written by MMmdl.
147155  0  0  1  0            999 V2000
  -30.2883  -15.6677   20.3273 C   0  0  0  0  0  0
  -30.4214  -13.1060   19.5388 C   0  0  0  0  0  0
  -29.5511  -12.6638   18.3267 C   0  0  0  0  0  0
  -28.1266  -12.3006   18.7713 C   0  0  0  0  0  0
  -27.5937  -13.3109   19.8115 C   0  0  2  0  0  0
  -28.6074  -13.6586   20.9276 C   0  0  0  0  0  0
  -25.2313  -13.8288   20.5800 C   0  0  0  0  0  0
  -24.1708  -13.0432   20.9290 C   0  0  0  0  0  0
  -24.6414  -11.6946   20.8765 C   0  0  0  0  0  0
  -23.9119  -10.4292   21.0397 C   0  0  0  0  0  0
  -24.3654   -9.4206   21.9180 C   0  0  0  0  0  0
  -23.6313   -8.2247   22.0754 C   0  0  0  0  0  0
  -22.4294   -8.0288   21.3543 C   0  0  0  0  0  0
  -21.9940   -9.0265   20.4644 C   0  0  0  0  0  0
  -22.7285  -10.2136   20.3049 C   0  0  0  0  0  0
  -21.6859   -6.0742   22.5279 C   0  0  0  0  0  0
  -21.4020   -6.5644   23.8212 C   0  0  0  0  0  0
  -21.3660   -5.6794   24.9173 C   0  0  0  0  0  0
  -21.6043   -4.3056   24.7222 C   0  0  0  0  0  0
  -21.8819   -3.8150   23.4343 C   0  0  0  0  0  0
  -21.9194   -4.6969   22.3400 C   0  0  0  0  0  0
  -22.7719  -13.5160   21.1925 C   0  0  0  0  0  0
  -22.1661   -4.2155   21.0977 F   0  0  0  0  0  0
  -21.5628   -3.4539   25.7735 F   0  0  0  0  0  0
  -29.7750  -14.2932   20.2685 N   0  0  0  0  0  0
  -26.2764  -12.9625   20.3233 N   0  0  0  0  0  0
  -25.9361  -11.6693   20.5696 N   0  0  0  0  0  0
  -22.0384  -12.8134   22.0476 N   0  0  0  0  0  0
  -25.3900  -15.2032   20.4247 N   0  0  0  0  0  0
  -31.5250  -15.6023   20.1805 O   0  0  0  0  0  0
  -21.6648   -6.8889   21.4243 O   0  0  0  0  0  0
  -22.3394  -14.5460   20.6764 O   0  0  0  0  0  0
  -24.6873  -31.7957   23.1484 C   0  0  0  0  0  0
  -25.9437  -32.4445   23.8043 C   0  0  1  0  0  0
  -27.2269  -26.6656   20.2189 C   0  0  0  0  0  0
  -25.5999  -33.8272   24.1926 N   0  0  0  0  0  0
  -23.5148  -30.3960   21.5032 C   0  0  2  0  0  0
  -24.9722  -28.7286   20.1197 C   0  0  0  0  0  0
  -22.7781  -29.4293   22.4700 C   0  0  0  0  0  0
  -18.0342  -28.1425   22.8452 C   0  0  0  0  0  0
  -24.1498  -36.7143   23.2653 C   0  0  0  0  0  0
  -26.0970  -30.5167   21.4179 C   0  0  0  0  0  0
  -26.1621  -29.0774   20.7689 C   0  0  0  0  0  0
  -27.2729  -28.0756   20.7833 C   0  0  0  0  0  0
  -26.0026  -26.5351   19.5123 C   0  0  0  0  0  0
  -24.9336  -27.4838   19.4674 C   0  0  0  0  0  0
  -23.7707  -29.6893   20.1403 C   0  0  0  0  0  0
  -25.4149  -36.2881   24.0277 C   0  0  1  0  0  0
  -20.5979  -28.3786   23.1135 C   0  0  2  0  0  0
  -20.6805  -26.9442   22.5405 C   0  0  0  0  0  0
  -19.5782  -26.6370   21.5217 C   0  0  0  0  0  0
  -18.1965  -26.7951   22.1619 C   0  0  0  0  0  0
  -19.1609  -28.8931   23.2773 C   0  0  0  0  0  0
  -18.9514  -30.1513   23.8821 C   0  0  0  0  0  0
  -17.6503  -30.6606   24.0551 C   0  0  0  0  0  0
  -25.9131  -34.9272   23.4942 C   0  0  0  0  0  0
  -16.5392  -29.9087   23.6350 C   0  0  0  0  0  0
  -16.7321  -28.6511   23.0366 C   0  0  0  0  0  0
  -26.4603  -31.6496   25.0682 C   0  0  0  0  0  0
  -25.3660  -31.3827   26.1292 C   0  0  0  0  0  0
  -27.0538  -30.2829   24.6609 C   0  0  0  0  0  0
  -27.6043  -32.4366   25.7504 C   0  0  0  0  0  0
  -27.5562  -37.1731   24.8466 C   0  0  0  0  0  0
  -21.4425  -29.3025   22.3448 N   0  0  0  0  0  0
  -26.4273  -37.3645   23.9404 N   0  0  0  0  0  0
  -24.7903  -30.9366   22.0757 N   0  0  0  0  0  0
  -23.4208  -28.7898   23.3060 O   0  0  0  0  0  0
  -28.1927  -25.4362   20.2886 O   0  0  0  0  0  0
  -26.5777  -34.8856   22.4563 O   0  0  0  0  0  0
  -23.5885  -32.1050   23.6414 O   0  0  0  0  0  0
  -28.6884  -20.2252   19.6730 C   0  0  0  0  0  0
  -29.5498  -19.7298   21.6862 C   0  0  0  0  0  0
  -29.6313  -18.8412   20.3365 C   0  0  1  0  0  0
  -28.9265  -21.9145   20.2549 C   0  0  1  0  0  0
  -28.0065  -23.6641   20.1928 C   0  0  0  0  0  0
  -29.5209  -17.0387   20.3640 N   0  0  0  0  0  0
  -29.3954  -21.3019   21.5724 N   0  3  0  0  0  0
  -31.4115  -13.3746   19.1689 H   0  0  0  0  0  0
  -30.5919  -12.2697   20.2189 H   0  0  0  0  0  0
  -30.0116  -11.8209   17.8099 H   0  0  0  0  0  0
  -29.5067  -13.4803   17.6046 H   0  0  0  0  0  0
  -28.1587  -11.3049   19.2152 H   0  0  0  0  0  0
  -27.4582  -12.2355   17.9118 H   0  0  0  0  0  0
  -27.4509  -14.2272   19.2369 H   0  0  0  0  0  0
  -28.8758  -12.7828   21.5203 H   0  0  0  0  0  0
  -28.1668  -14.3756   21.6220 H   0  0  0  0  0  0
  -25.2793   -9.5680   22.4765 H   0  0  0  0  0  0
  -24.0013   -7.4640   22.7481 H   0  0  0  0  0  0
  -21.0869   -8.8793   19.8952 H   0  0  0  0  0  0
  -22.3742  -10.9678   19.6163 H   0  0  0  0  0  0
  -21.2014   -7.6152   23.9718 H   0  0  0  0  0  0
  -21.1483   -6.0523   25.9076 H   0  0  0  0  0  0
  -22.0595   -2.7613   23.2841 H   0  0  0  0  0  0
  -22.4023  -11.9806   22.4866 H   0  0  0  0  0  0
  -21.0993  -13.1132   22.2680 H   0  0  0  0  0  0
  -24.6166  -15.8499   20.5365 H   0  0  0  0  0  0
  -26.2272  -15.6454   20.0695 H   0  0  0  0  0  0
  -26.7521  -32.4909   23.0756 H   0  0  0  0  0  0
  -25.0047  -33.9305   25.0013 H   0  0  0  0  0  0
  -22.8420  -31.2343   21.3100 H   0  0  0  0  0  0
  -23.3775  -35.9457   23.3271 H   0  0  0  0  0  0
  -24.3560  -36.8852   22.2075 H   0  0  0  0  0  0
  -23.7246  -37.6304   23.6763 H   0  0  0  0  0  0
  -26.3037  -31.2395   20.6275 H   0  0  0  0  0  0
  -26.9463  -30.5860   22.0852 H   0  0  0  0  0  0
  -28.1686  -28.3512   21.3220 H   0  0  0  0  0  0
  -25.8285  -25.5962   19.0066 H   0  0  0  0  0  0
  -24.0364  -27.2077   18.9304 H   0  0  0  0  0  0
  -23.9504  -30.4477   19.3774 H   0  0  0  0  0  0
  -22.8744  -29.1585   19.8145 H   0  0  0  0  0  0
  -25.1362  -36.1639   25.0767 H   0  0  0  0  0  0
  -21.0062  -28.3419   24.1261 H   0  0  0  0  0  0
  -20.5666  -26.2413   23.3671 H   0  0  0  0  0  0
  -21.6666  -26.7378   22.1226 H   0  0  0  0  0  0
  -19.6938  -25.6261   21.1296 H   0  0  0  0  0  0
  -19.6727  -27.3138   20.6714 H   0  0  0  0  0  0
  -17.4234  -26.6692   21.4024 H   0  0  0  0  0  0
  -18.0355  -26.0114   22.9035 H   0  0  0  0  0  0
  -19.7989  -30.7349   24.2159 H   0  0  0  0  0  0
  -17.5052  -31.6277   24.5169 H   0  0  0  0  0  0
  -15.5390  -30.2965   23.7717 H   0  0  0  0  0  0
  -15.8722  -28.0802   22.7125 H   0  0  0  0  0  0
  -24.5872  -30.7146   25.7595 H   0  0  0  0  0  0
  -24.8821  -32.3054   26.4506 H   0  0  0  0  0  0
  -25.7831  -30.9132   27.0210 H   0  0  0  0  0  0
  -26.3261  -29.6433   24.1605 H   0  0  0  0  0  0
  -27.3951  -29.7289   25.5365 H   0  0  0  0  0  0
  -27.9248  -30.3941   24.0149 H   0  0  0  0  0  0
  -27.2575  -33.3739   26.1867 H   0  0  0  0  0  0
  -28.3965  -32.6813   25.0415 H   0  0  0  0  0  0
  -28.0590  -31.8641   26.5599 H   0  0  0  0  0  0
  -28.2551  -38.0051   24.7502 H   0  0  0  0  0  0
  -28.1085  -36.2571   24.6312 H   0  0  0  0  0  0
  -27.2271  -37.1386   25.8867 H   0  0  0  0  0  0
  -20.9741  -29.8672   21.6499 H   0  0  0  0  0  0
  -26.0096  -38.2692   24.1411 H   0  0  0  0  0  0
  -27.6363  -19.9920   19.8458 H   0  0  0  0  0  0
  -28.7865  -20.2212   18.5870 H   0  0  0  0  0  0
  -30.4037  -19.5081   22.3269 H   0  0  0  0  0  0
  -28.6804  -19.3852   22.2474 H   0  0  0  0  0  0
  -30.6359  -18.9889   19.9391 H   0  0  0  0  0  0
  -29.8564  -22.1756   19.7493 H   0  0  0  0  0  0
  -27.1627  -23.5096   20.8648 H   0  0  0  0  0  0
  -27.5483  -23.6059   19.2057 H   0  0  0  0  0  0
  -28.5424  -16.7976   20.4327 H   0  0  0  0  0  0
  -30.2854  -21.7174   21.7988 H   0  0  0  0  0  0
  -28.7660  -21.5906   22.3050 H   0  0  0  0  0  0
  1 25  1  0  0  0
  1 30  2  0  0  0
  1 76  1  0  0  0
  2  3  1  0  0  0
  2 25  1  0  0  0
  2 78  1  0  0  0
  2 79  1  0  0  0
  3  4  1  0  0  0
  3 80  1  0  0  0
  3 81  1  0  0  0
  4  5  1  0  0  0
  4 82  1  0  0  0
  4 83  1  0  0  0
  5  6  1  0  0  0
  5 26  1  0  0  0
  5 84  1  0  0  0
  6 25  1  0  0  0
  6 85  1  0  0  0
  6 86  1  0  0  0
  7  8  2  0  0  0
  7 26  1  0  0  0
  7 29  1  0  0  0
  8  9  1  0  0  0
  8 22  1  0  0  0
  9 10  1  0  0  0
  9 27  2  0  0  0
 10 11  2  0  0  0
 10 15  1  0  0  0
 11 12  1  0  0  0
 11 87  1  0  0  0
 12 13  2  0  0  0
 12 88  1  0  0  0
 13 14  1  0  0  0
 13 31  1  0  0  0
 14 15  2  0  0  0
 14 89  1  0  0  0
 15 90  1  0  0  0
 16 17  2  0  0  0
 16 21  1  0  0  0
 16 31  1  0  0  0
 17 18  1  0  0  0
 17 91  1  0  0  0
 18 19  2  0  0  0
 18 92  1  0  0  0
 19 20  1  0  0  0
 19 24  1  0  0  0
 20 21  2  0  0  0
 20 93  1  0  0  0
 21 23  1  0  0  0
 22 28  1  0  0  0
 22 32  2  0  0  0
 26 27  1  0  0  0
 28 94  1  0  0  0
 28 95  1  0  0  0
 29 96  1  0  0  0
 29 97  1  0  0  0
 33 34  1  0  0  0
 33 66  1  0  0  0
 33 70  2  0  0  0
 34 36  1  0  0  0
 34 59  1  0  0  0
 34 98  1  0  0  0
 35 44  2  0  0  0
 35 45  1  0  0  0
 35 68  1  0  0  0
 36 56  1  0  0  0
 36 99  1  0  0  0
 37 39  1  0  0  0
 37 47  1  0  0  0
 37 66  1  0  0  0
 37100  1  0  0  0
 38 43  2  0  0  0
 38 46  1  0  0  0
 38 47  1  0  0  0
 39 64  1  0  0  0
 39 67  2  0  0  0
 40 52  1  0  0  0
 40 53  2  0  0  0
 40 58  1  0  0  0
 41101  1  0  0  0
 41102  1  0  0  0
 41103  1  0  0  0
 41 48  1  0  0  0
 42 43  1  0  0  0
 42 66  1  0  0  0
 42104  1  0  0  0
 42105  1  0  0  0
 43 44  1  0  0  0
 44106  1  0  0  0
 45 46  2  0  0  0
 45107  1  0  0  0
 46108  1  0  0  0
 47109  1  0  0  0
 47110  1  0  0  0
 48 56  1  0  0  0
 48 65  1  0  0  0
 48111  1  0  0  0
 49 50  1  0  0  0
 49 53  1  0  0  0
 49 64  1  0  0  0
 49112  1  0  0  0
 50 51  1  0  0  0
 50113  1  0  0  0
 50114  1  0  0  0
 51 52  1  0  0  0
 51115  1  0  0  0
 51116  1  0  0  0
 52117  1  0  0  0
 52118  1  0  0  0
 53 54  1  0  0  0
 54 55  2  0  0  0
 54119  1  0  0  0
 55 57  1  0  0  0
 55120  1  0  0  0
 56 69  2  0  0  0
 57 58  2  0  0  0
 57121  1  0  0  0
 58122  1  0  0  0
 59 60  1  0  0  0
 59 61  1  0  0  0
 59 62  1  0  0  0
 60123  1  0  0  0
 60124  1  0  0  0
 60125  1  0  0  0
 61126  1  0  0  0
 61127  1  0  0  0
 61128  1  0  0  0
 62129  1  0  0  0
 62130  1  0  0  0
 62131  1  0  0  0
 63 65  1  0  0  0
 63132  1  0  0  0
 63133  1  0  0  0
 63134  1  0  0  0
 64135  1  0  0  0
 65136  1  0  0  0
 68 75  1  0  0  0
 71 73  1  0  0  0
 71 74  1  0  0  0
 71137  1  0  0  0
 71138  1  0  0  0
 72 73  1  0  0  0
 72 77  1  0  0  0
 72139  1  0  0  0
 72140  1  0  0  0
 73 76  1  0  0  0
 73141  1  0  0  0
 74 75  1  0  0  0
 74 77  1  0  0  0
 74142  1  0  0  0
 75143  1  0  0  0
 75144  1  0  0  0
 76145  1  0  0  0
 77146  1  0  0  0
 77147  1  0  0  0
M  CHG  1  77   1
M  ISO  4   1 100  68 101  75 101  76 100
M  END
> <chiral flag>
0

> <version>
0

> <s_m_source_file>
/data/baiqing/PycharmProjects/Reinvent-master-3.2/result/LINK_invent/BTK/process_docking_weight1_custom_sum_contain_oxygen_bond_distance_aromatic_linkinvent_7_9_3/rearranged_h_0147.sdf

> <i_m_source_file_index>
72

> <r_mmod_Potential_Energy-OPLS-2005>
2459.84741210938

> <r_mmod_Stretch_Energy-OPLS-2005>
1125.85375976562

> <r_mmod_Bend_Energy-OPLS-2005>
746.818237304688

> <r_mmod_Torsional_Energy-OPLS-2005>
267.860717773438

> <r_mmod_Improper_Torsional_Energy-OPLS-2005>
3.69451069831848

> <r_mmod_Van_der_Waal_Energy-OPLS-2005>
108.474838256836

> <r_mmod_Electrostatic_Energy-OPLS-2005>
-267.034545898438

> <r_mmod_Solvation_Energy-OPLS-2005>
-487.799255371094

> <b_mmod_Minimization_Converged-OPLS-2005>
0

> <r_mmod_RMS_Derivative-OPLS-2005>
0.326424866914749

$$$$
72
                    3D
 Structure written by MMmdl.
170179  0  0  1  0            999 V2000
  -30.7054  -14.4425   20.5774 C   0  0  0  0  0  0
  -30.4250  -12.2928   19.4125 C   0  0  0  0  0  0
  -29.4931  -12.5016   18.2011 C   0  0  0  0  0  0
  -28.0135  -12.3647   18.6148 C   0  0  0  0  0  0
  -27.6635  -13.2014   19.8744 C   0  0  2  0  0  0
  -28.7050  -12.9640   20.9917 C   0  0  0  0  0  0
  -25.2609  -13.8157   20.5688 C   0  0  0  0  0  0
  -24.1842  -13.0448   20.9166 C   0  0  0  0  0  0
  -24.6382  -11.6911   20.8723 C   0  0  0  0  0  0
  -23.9045  -10.4303   21.0398 C   0  0  0  0  0  0
  -24.3605   -9.4221   21.9177 C   0  0  0  0  0  0
  -23.6291   -8.2249   22.0749 C   0  0  0  0  0  0
  -22.4272   -8.0281   21.3540 C   0  0  0  0  0  0
  -21.9898   -9.0255   20.4648 C   0  0  0  0  0  0
  -22.7216  -10.2142   20.3059 C   0  0  0  0  0  0
  -21.6853   -6.0738   22.5280 C   0  0  0  0  0  0
  -21.4017   -6.5642   23.8216 C   0  0  0  0  0  0
  -21.3660   -5.6788   24.9173 C   0  0  0  0  0  0
  -21.6042   -4.3052   24.7214 C   0  0  0  0  0  0
  -21.8817   -3.8149   23.4333 C   0  0  0  0  0  0
  -21.9190   -4.6968   22.3395 C   0  0  0  0  0  0
  -22.7862  -13.5257   21.1822 C   0  0  0  0  0  0
  -22.1659   -4.2160   21.0971 F   0  0  0  0  0  0
  -21.5628   -3.4536   25.7724 F   0  0  0  0  0  0
  -30.0389  -13.2663   20.4425 N   0  0  0  0  0  0
  -26.3034  -12.9316   20.3363 N   0  0  0  0  0  0
  -25.9309  -11.6483   20.5747 N   0  0  0  0  0  0
  -22.0481  -12.8286   22.0390 N   0  0  0  0  0  0
  -25.4353  -15.1874   20.4131 N   0  0  0  0  0  0
  -31.8332  -14.6384   20.1142 O   0  0  0  0  0  0
  -21.6636   -6.8880   21.4241 O   0  0  0  0  0  0
  -22.3559  -14.5556   20.6650 O   0  0  0  0  0  0
  -24.6150  -31.8681   23.2122 C   0  0  0  0  0  0
  -25.9056  -32.4821   23.8396 C   0  0  1  0  0  0
  -27.2393  -27.4419   20.0834 C   0  0  0  0  0  0
  -25.5927  -33.8616   24.2336 N   0  0  0  0  0  0
  -23.4001  -30.4913   21.5531 C   0  0  2  0  0  0
  -24.8432  -28.9545   20.1214 C   0  0  0  0  0  0
  -22.7394  -29.4650   22.5015 C   0  0  0  0  0  0
  -18.0257  -28.1370   22.8486 C   0  0  0  0  0  0
  -24.1484  -36.7290   23.2639 C   0  0  0  0  0  0
  -25.9283  -30.8342   21.3637 C   0  0  0  0  0  0
  -26.0038  -29.4692   20.7102 C   0  0  0  0  0  0
  -27.2009  -28.7208   20.6849 C   0  0  0  0  0  0
  -26.0499  -26.9316   19.5085 C   0  0  0  0  0  0
  -24.8604  -27.6838   19.5233 C   0  0  0  0  0  0
  -23.6067  -29.8221   20.1685 C   0  0  0  0  0  0
  -25.4110  -36.3100   24.0338 C   0  0  1  0  0  0
  -20.5851  -28.3651   23.1327 C   0  0  2  0  0  0
  -20.6758  -26.9392   22.5415 C   0  0  0  0  0  0
  -19.5737  -26.6380   21.5208 C   0  0  0  0  0  0
  -18.1913  -26.7920   22.1613 C   0  0  0  0  0  0
  -19.1508  -28.8827   23.2902 C   0  0  0  0  0  0
  -18.9443  -30.1436   23.8910 C   0  0  0  0  0  0
  -17.6450  -30.6588   24.0555 C   0  0  0  0  0  0
  -25.9041  -34.9469   23.5123 C   0  0  0  0  0  0
  -16.5337  -29.9087   23.6332 C   0  0  0  0  0  0
  -16.7247  -28.6497   23.0361 C   0  0  0  0  0  0
  -26.4502  -31.6606   25.0715 C   0  0  0  0  0  0
  -25.3793  -31.3707   26.1482 C   0  0  0  0  0  0
  -27.0344  -30.3060   24.6082 C   0  0  0  0  0  0
  -27.6086  -32.4336   25.7461 C   0  0  0  0  0  0
  -27.5574  -37.1802   24.8472 C   0  0  0  0  0  0
  -21.4126  -29.3022   22.3750 N   0  0  0  0  0  0
  -26.4291  -37.3789   23.9409 N   0  0  0  0  0  0
  -24.6658  -31.0794   22.1013 N   0  0  0  0  0  0
  -23.4169  -28.8190   23.3054 O   0  0  0  0  0  0
  -28.4502  -26.7793   20.0514 O   0  0  0  0  0  0
  -26.5582  -34.8920   22.4670 O   0  0  0  0  0  0
  -23.5351  -32.1415   23.7544 O   0  0  0  0  0  0
  -29.5227  -17.5422   19.9884 C   0  0  0  0  0  0
  -31.1984  -17.4752   21.7827 C   0  0  0  0  0  0
  -29.7918  -18.9177   19.8573 C   0  0  0  0  0  0
  -31.4405  -18.8652   21.6427 C   0  0  0  0  0  0
  -30.2497  -16.8140   20.9616 C   0  0  0  0  0  0
  -30.7100  -19.5706   20.6619 C   0  0  0  0  0  0
  -29.2043  -19.8989   18.8969 C   0  0  0  0  0  0
  -30.1479  -21.1145   19.0932 C   0  0  1  0  0  0
  -31.8722  -20.6573   23.3862 C   0  0  0  0  0  0
  -33.6689  -20.0636   21.6798 C   0  0  0  0  0  0
  -29.2050  -22.8486   17.5052 C   0  0  0  0  0  0
  -29.9449  -24.9765   19.5111 C   0  0  0  0  0  0
  -28.4972  -25.3562   19.8925 C   0  0  0  0  0  0
  -32.4858  -19.5503   22.5155 C   0  0  0  0  0  0
  -29.4666  -22.5067   18.9896 C   0  0  2  0  0  0
  -29.9911  -15.4319   21.1383 N   0  0  0  0  0  0
  -30.3022  -23.5366   19.6705 N   0  3  0  0  0  0
  -30.7962  -20.9064   20.3645 O   0  0  0  0  0  0
  -31.4691  -12.3950   19.1097 H   0  0  0  0  0  0
  -30.3280  -11.2786   19.8022 H   0  0  0  0  0  0
  -29.7297  -11.7806   17.4173 H   0  0  0  0  0  0
  -29.6618  -13.4897   17.7684 H   0  0  0  0  0  0
  -27.8218  -11.3089   18.8091 H   0  0  0  0  0  0
  -27.3624  -12.6417   17.7852 H   0  0  0  0  0  0
  -27.7136  -14.2508   19.5832 H   0  0  0  0  0  0
  -28.6735  -11.9241   21.3198 H   0  0  0  0  0  0
  -28.4678  -13.5506   21.8803 H   0  0  0  0  0  0
  -25.2754   -9.5707   22.4745 H   0  0  0  0  0  0
  -24.0008   -7.4644   22.7474 H   0  0  0  0  0  0
  -21.0822   -8.8768   19.8962 H   0  0  0  0  0  0
  -22.3662  -10.9676   19.6172 H   0  0  0  0  0  0
  -21.2017   -7.6153   23.9725 H   0  0  0  0  0  0
  -21.1482   -6.0515   25.9077 H   0  0  0  0  0  0
  -22.0596   -2.7616   23.2821 H   0  0  0  0  0  0
  -22.4074  -11.9975   22.4844 H   0  0  0  0  0  0
  -21.1099  -13.1350   22.2555 H   0  0  0  0  0  0
  -24.6755  -15.8473   20.5404 H   0  0  0  0  0  0
  -26.2949  -15.6285   20.1128 H   0  0  0  0  0  0
  -26.7110  -32.5535   23.1148 H   0  0  0  0  0  0
  -25.0156  -33.9785   25.0534 H   0  0  0  0  0  0
  -22.6873  -31.3078   21.4173 H   0  0  0  0  0  0
  -23.3753  -35.9617   23.3312 H   0  0  0  0  0  0
  -24.3573  -36.8888   22.2049 H   0  0  0  0  0  0
  -23.7221  -37.6491   23.6647 H   0  0  0  0  0  0
  -26.0441  -31.6014   20.5968 H   0  0  0  0  0  0
  -26.8160  -30.8820   21.9834 H   0  0  0  0  0  0
  -28.1005  -29.1245   21.1281 H   0  0  0  0  0  0
  -26.0072  -25.9681   19.0251 H   0  0  0  0  0  0
  -23.9646  -27.2807   19.0705 H   0  0  0  0  0  0
  -23.7174  -30.5956   19.4076 H   0  0  0  0  0  0
  -22.7313  -29.2415   19.8731 H   0  0  0  0  0  0
  -25.1289  -36.1963   25.0835 H   0  0  0  0  0  0
  -20.9919  -28.3206   24.1457 H   0  0  0  0  0  0
  -20.5668  -26.2250   23.3594 H   0  0  0  0  0  0
  -21.6634  -26.7458   22.1208 H   0  0  0  0  0  0
  -19.6900  -25.6295   21.1231 H   0  0  0  0  0  0
  -19.6692  -27.3202   20.6748 H   0  0  0  0  0  0
  -17.4192  -26.6666   21.4007 H   0  0  0  0  0  0
  -18.0311  -26.0060   22.9009 H   0  0  0  0  0  0
  -19.7926  -30.7237   24.2292 H   0  0  0  0  0  0
  -17.5018  -31.6274   24.5142 H   0  0  0  0  0  0
  -15.5342  -30.2995   23.7666 H   0  0  0  0  0  0
  -15.8640  -28.0820   22.7090 H   0  0  0  0  0  0
  -24.5945  -30.7079   25.7826 H   0  0  0  0  0  0
  -24.9025  -32.2871   26.4979 H   0  0  0  0  0  0
  -25.8171  -30.8838   27.0207 H   0  0  0  0  0  0
  -26.2876  -29.6792   24.1198 H   0  0  0  0  0  0
  -27.4193  -29.7329   25.4529 H   0  0  0  0  0  0
  -27.8677  -30.4391   23.9175 H   0  0  0  0  0  0
  -27.2714  -33.3651   26.2024 H   0  0  0  0  0  0
  -28.3896  -32.6865   25.0279 H   0  0  0  0  0  0
  -28.0747  -31.8465   26.5389 H   0  0  0  0  0  0
  -28.2620  -38.0076   24.7521 H   0  0  0  0  0  0
  -28.1042  -36.2611   24.6308 H   0  0  0  0  0  0
  -27.2289  -37.1464   25.8875 H   0  0  0  0  0  0
  -20.9287  -29.8734   21.6967 H   0  0  0  0  0  0
  -26.0172  -38.2861   24.1435 H   0  0  0  0  0  0
  -28.7952  -17.0623   19.3490 H   0  0  0  0  0  0
  -31.7444  -16.9102   22.5252 H   0  0  0  0  0  0
  -28.1793  -20.1214   19.1952 H   0  0  0  0  0  0
  -29.2050  -19.5336   17.8703 H   0  0  0  0  0  0
  -30.9544  -21.0512   18.3594 H   0  0  0  0  0  0
  -31.0523  -20.2687   23.9907 H   0  0  0  0  0  0
  -31.4788  -21.4777   22.7871 H   0  0  0  0  0  0
  -32.6143  -21.0758   24.0673 H   0  0  0  0  0  0
  -34.1280  -19.2530   21.1132 H   0  0  0  0  0  0
  -34.4410  -20.4953   22.3171 H   0  0  0  0  0  0
  -33.3635  -20.8309   20.9682 H   0  0  0  0  0  0
  -28.6436  -22.0547   17.0107 H   0  0  0  0  0  0
  -30.1381  -22.9727   16.9546 H   0  0  0  0  0  0
  -28.6259  -23.7617   17.3765 H   0  0  0  0  0  0
  -30.6293  -25.5420   20.1450 H   0  0  0  0  0  0
  -30.1532  -25.3024   18.4924 H   0  0  0  0  0  0
  -28.2039  -24.8856   20.8316 H   0  0  0  0  0  0
  -27.8314  -24.9916   19.1155 H   0  0  0  0  0  0
  -32.8855  -18.7995   23.1991 H   0  0  0  0  0  0
  -28.5128  -22.4654   19.5181 H   0  0  0  0  0  0
  -29.0576  -15.1761   21.4211 H   0  0  0  0  0  0
  -30.3191  -23.3099   20.6554 H   0  0  0  0  0  0
  -31.2543  -23.4245   19.3543 H   0  0  0  0  0  0
  1 25  1  0  0  0
  1 30  2  0  0  0
  1 86  1  0  0  0
  2  3  1  0  0  0
  2 25  1  0  0  0
  2 89  1  0  0  0
  2 90  1  0  0  0
  3  4  1  0  0  0
  3 91  1  0  0  0
  3 92  1  0  0  0
  4  5  1  0  0  0
  4 93  1  0  0  0
  4 94  1  0  0  0
  5  6  1  0  0  0
  5 26  1  0  0  0
  5 95  1  0  0  0
  6 25  1  0  0  0
  6 96  1  0  0  0
  6 97  1  0  0  0
  7  8  2  0  0  0
  7 26  1  0  0  0
  7 29  1  0  0  0
  8  9  1  0  0  0
  8 22  1  0  0  0
  9 10  1  0  0  0
  9 27  2  0  0  0
 10 11  2  0  0  0
 10 15  1  0  0  0
 11 12  1  0  0  0
 11 98  1  0  0  0
 12 13  2  0  0  0
 12 99  1  0  0  0
 13 14  1  0  0  0
 13 31  1  0  0  0
 14 15  2  0  0  0
 14100  1  0  0  0
 15101  1  0  0  0
 16 17  2  0  0  0
 16 21  1  0  0  0
 16 31  1  0  0  0
 17 18  1  0  0  0
 17102  1  0  0  0
 18 19  2  0  0  0
 18103  1  0  0  0
 19 20  1  0  0  0
 19 24  1  0  0  0
 20 21  2  0  0  0
 20104  1  0  0  0
 21 23  1  0  0  0
 22 28  1  0  0  0
 22 32  2  0  0  0
 26 27  1  0  0  0
 28105  1  0  0  0
 28106  1  0  0  0
 29107  1  0  0  0
 29108  1  0  0  0
 33 34  1  0  0  0
 33 66  1  0  0  0
 33 70  2  0  0  0
 34 36  1  0  0  0
 34 59  1  0  0  0
 34109  1  0  0  0
 35 44  2  0  0  0
 35 45  1  0  0  0
 35 68  1  0  0  0
 36 56  1  0  0  0
 36110  1  0  0  0
 37 39  1  0  0  0
 37 47  1  0  0  0
 37 66  1  0  0  0
 37111  1  0  0  0
 38 43  2  0  0  0
 38 46  1  0  0  0
 38 47  1  0  0  0
 39 64  1  0  0  0
 39 67  2  0  0  0
 40 52  1  0  0  0
 40 53  2  0  0  0
 40 58  1  0  0  0
 41112  1  0  0  0
 41113  1  0  0  0
 41114  1  0  0  0
 41 48  1  0  0  0
 42 43  1  0  0  0
 42 66  1  0  0  0
 42115  1  0  0  0
 42116  1  0  0  0
 43 44  1  0  0  0
 44117  1  0  0  0
 45 46  2  0  0  0
 45118  1  0  0  0
 46119  1  0  0  0
 47120  1  0  0  0
 47121  1  0  0  0
 48 56  1  0  0  0
 48 65  1  0  0  0
 48122  1  0  0  0
 49 50  1  0  0  0
 49 53  1  0  0  0
 49 64  1  0  0  0
 49123  1  0  0  0
 50 51  1  0  0  0
 50124  1  0  0  0
 50125  1  0  0  0
 51 52  1  0  0  0
 51126  1  0  0  0
 51127  1  0  0  0
 52128  1  0  0  0
 52129  1  0  0  0
 53 54  1  0  0  0
 54 55  2  0  0  0
 54130  1  0  0  0
 55 57  1  0  0  0
 55131  1  0  0  0
 56 69  2  0  0  0
 57 58  2  0  0  0
 57132  1  0  0  0
 58133  1  0  0  0
 59 60  1  0  0  0
 59 61  1  0  0  0
 59 62  1  0  0  0
 60134  1  0  0  0
 60135  1  0  0  0
 60136  1  0  0  0
 61137  1  0  0  0
 61138  1  0  0  0
 61139  1  0  0  0
 62140  1  0  0  0
 62141  1  0  0  0
 62142  1  0  0  0
 63 65  1  0  0  0
 63143  1  0  0  0
 63144  1  0  0  0
 63145  1  0  0  0
 64146  1  0  0  0
 65147  1  0  0  0
 68 83  1  0  0  0
 71 73  2  0  0  0
 71 75  1  0  0  0
 71148  1  0  0  0
 72 74  1  0  0  0
 72 75  2  0  0  0
 72149  1  0  0  0
 73 76  1  0  0  0
 73 77  1  0  0  0
 74 76  2  0  0  0
 74 84  1  0  0  0
 75 86  1  0  0  0
 76 88  1  0  0  0
 77150  1  0  0  0
 77151  1  0  0  0
 77 78  1  0  0  0
 78 85  1  0  0  0
 78 88  1  0  0  0
 78152  1  0  0  0
 79153  1  0  0  0
 79154  1  0  0  0
 79155  1  0  0  0
 79 84  1  0  0  0
 80 84  1  0  0  0
 80156  1  0  0  0
 80157  1  0  0  0
 80158  1  0  0  0
 81159  1  0  0  0
 81160  1  0  0  0
 81161  1  0  0  0
 81 85  1  0  0  0
 82 83  1  0  0  0
 82 87  1  0  0  0
 82162  1  0  0  0
 82163  1  0  0  0
 83164  1  0  0  0
 83165  1  0  0  0
 84166  1  0  0  0
 85 87  1  0  0  0
 85167  1  0  0  0
 86168  1  0  0  0
 87169  1  0  0  0
 87170  1  0  0  0
M  CHG  1  87   1
M  ISO  4   1 100  68 101  83 101  86 100
M  END
> <chiral flag>
0

> <version>
0

> <s_m_source_file>
/data/baiqing/PycharmProjects/Reinvent-master-3.2/result/LINK_invent/BTK/process_docking_weight1_custom_sum_contain_oxygen_bond_distance_aromatic_linkinvent_7_9_3/rearranged_h_0147.sdf

> <i_m_source_file_index>
73

> <r_mmod_Potential_Energy-OPLS-2005>
-90.1680221557617

> <r_mmod_Stretch_Energy-OPLS-2005>
38.5873756408691

> <r_mmod_Bend_Energy-OPLS-2005>
146.915084838867

> <r_mmod_Torsional_Energy-OPLS-2005>
258.721710205078

> <r_mmod_Improper_Torsional_Energy-OPLS-2005>
4.18844223022461

> <r_mmod_Van_der_Waal_Energy-OPLS-2005>
145.464767456055

> <r_mmod_Electrostatic_Energy-OPLS-2005>
-265.317779541016

> <r_mmod_Solvation_Energy-OPLS-2005>
-429.693054199219

> <b_mmod_Minimization_Converged-OPLS-2005>
0

> <r_mmod_RMS_Derivative-OPLS-2005>
1.7050689458847

$$$$
73
                    3D
 Structure written by MMmdl.
163172  0  0  1  0            999 V2000
  -30.7029  -14.4986   20.5932 C   0  0  0  0  0  0
  -30.4221  -12.3337   19.4260 C   0  0  0  0  0  0
  -29.4941  -12.5154   18.2079 C   0  0  0  0  0  0
  -28.0173  -12.3665   18.6214 C   0  0  0  0  0  0
  -27.6592  -13.2120   19.8726 C   0  0  2  0  0  0
  -28.6988  -13.0107   20.9957 C   0  0  0  0  0  0
  -25.2582  -13.8173   20.5681 C   0  0  0  0  0  0
  -24.1835  -13.0445   20.9170 C   0  0  0  0  0  0
  -24.6394  -11.6911   20.8726 C   0  0  0  0  0  0
  -23.9063  -10.4295   21.0398 C   0  0  0  0  0  0
  -24.3614   -9.4211   21.9179 C   0  0  0  0  0  0
  -23.6291   -8.2246   22.0752 C   0  0  0  0  0  0
  -22.4272   -8.0281   21.3543 C   0  0  0  0  0  0
  -21.9906   -9.0255   20.4647 C   0  0  0  0  0  0
  -22.7232  -10.2135   20.3052 C   0  0  0  0  0  0
  -21.6854   -6.0736   22.5277 C   0  0  0  0  0  0
  -21.4015   -6.5640   23.8211 C   0  0  0  0  0  0
  -21.3659   -5.6792   24.9173 C   0  0  0  0  0  0
  -21.6044   -4.3055   24.7224 C   0  0  0  0  0  0
  -21.8820   -3.8148   23.4344 C   0  0  0  0  0  0
  -21.9192   -4.6964   22.3401 C   0  0  0  0  0  0
  -22.7858  -13.5240   21.1842 C   0  0  0  0  0  0
  -22.1663   -4.2149   21.0978 F   0  0  0  0  0  0
  -21.5629   -3.4538   25.7736 F   0  0  0  0  0  0
  -30.0272  -13.3223   20.4445 N   0  0  0  0  0  0
  -26.3015  -12.9349   20.3357 N   0  0  0  0  0  0
  -25.9322  -11.6504   20.5754 N   0  0  0  0  0  0
  -22.0500  -12.8227   22.0397 N   0  0  0  0  0  0
  -25.4321  -15.1887   20.4097 N   0  0  0  0  0  0
  -31.8034  -14.6963   20.0666 O   0  0  0  0  0  0
  -21.6639   -6.8877   21.4239 O   0  0  0  0  0  0
  -22.3542  -14.5547   20.6698 O   0  0  0  0  0  0
  -24.6173  -31.8652   23.2074 C   0  0  0  0  0  0
  -25.9058  -32.4805   23.8378 C   0  0  1  0  0  0
  -27.2325  -27.3988   20.0927 C   0  0  0  0  0  0
  -25.5903  -33.8605   24.2308 N   0  0  0  0  0  0
  -23.4063  -30.4888   21.5485 C   0  0  2  0  0  0
  -24.8508  -28.9486   20.1130 C   0  0  0  0  0  0
  -22.7422  -29.4647   22.4974 C   0  0  0  0  0  0
  -18.0275  -28.1377   22.8490 C   0  0  0  0  0  0
  -24.1486  -36.7311   23.2638 C   0  0  0  0  0  0
  -25.9383  -30.8177   21.3663 C   0  0  0  0  0  0
  -26.0117  -29.4489   20.7136 C   0  0  0  0  0  0
  -27.2005  -28.6787   20.7045 C   0  0  0  0  0  0
  -26.0459  -26.9177   19.4927 C   0  0  0  0  0  0
  -24.8639  -27.6832   19.5023 C   0  0  0  0  0  0
  -23.6156  -29.8212   20.1630 C   0  0  0  0  0  0
  -25.4107  -36.3104   24.0336 C   0  0  1  0  0  0
  -20.5866  -28.3666   23.1315 C   0  0  2  0  0  0
  -20.6763  -26.9399   22.5421 C   0  0  0  0  0  0
  -19.5746  -26.6386   21.5212 C   0  0  0  0  0  0
  -18.1923  -26.7925   22.1621 C   0  0  0  0  0  0
  -19.1525  -28.8838   23.2901 C   0  0  0  0  0  0
  -18.9450  -30.1444   23.8912 C   0  0  0  0  0  0
  -17.6453  -30.6584   24.0565 C   0  0  0  0  0  0
  -25.9038  -34.9469   23.5123 C   0  0  0  0  0  0
  -16.5344  -29.9086   23.6324 C   0  0  0  0  0  0
  -16.7263  -28.6503   23.0345 C   0  0  0  0  0  0
  -26.4479  -31.6595   25.0718 C   0  0  0  0  0  0
  -25.3743  -31.3709   26.1469 C   0  0  0  0  0  0
  -27.0312  -30.3034   24.6114 C   0  0  0  0  0  0
  -27.6054  -32.4320   25.7477 C   0  0  0  0  0  0
  -27.5581  -37.1808   24.8463 C   0  0  0  0  0  0
  -21.4147  -29.3031   22.3719 N   0  0  0  0  0  0
  -26.4293  -37.3789   23.9408 N   0  0  0  0  0  0
  -24.6725  -31.0727   22.0988 N   0  0  0  0  0  0
  -23.4183  -28.8192   23.3029 O   0  0  0  0  0  0
  -28.4091  -26.6643   20.1252 O   0  0  0  0  0  0
  -26.5606  -34.8928   22.4687 O   0  0  0  0  0  0
  -23.5362  -32.1420   23.7455 O   0  0  0  0  0  0
  -30.3452  -20.3428   22.1164 C   0  0  0  0  0  0
  -30.0513  -21.7134   22.0086 C   0  0  0  0  0  0
  -29.8800  -19.4211   21.1480 C   0  0  0  0  0  0
  -29.1043  -19.9852   20.0899 C   0  0  0  0  0  0
  -29.2801  -22.1743   20.9358 C   0  0  0  0  0  0
  -30.3495  -17.4062   22.7256 C   0  0  0  0  0  0
  -29.6696  -16.7514   20.5679 C   0  0  0  0  0  0
  -30.3578  -17.9379   21.2931 C   0  0  1  0  0  0
  -30.5875  -15.8971   22.5815 C   0  0  1  0  0  0
  -28.5796  -19.1672   18.9263 C   0  0  0  0  0  0
  -29.9743  -15.0799   23.7303 C   0  0  0  0  0  0
  -28.5705  -25.4715   19.3214 C   0  0  0  0  0  0
  -28.0987  -24.1076   19.9181 C   0  0  0  0  0  0
  -28.8055  -21.3149   20.0029 N   0  0  0  0  0  0
  -30.0647  -15.4982   21.2639 N   0  0  0  0  0  0
  -29.0638  -23.5459   20.8272 O   0  0  0  0  0  0
  -31.4662  -12.4355   19.1236 H   0  0  0  0  0  0
  -30.3290  -11.3251   19.8313 H   0  0  0  0  0  0
  -29.7402  -11.7877   17.4335 H   0  0  0  0  0  0
  -29.6546  -13.4995   17.7641 H   0  0  0  0  0  0
  -27.8346  -11.3108   18.8242 H   0  0  0  0  0  0
  -27.3645  -12.6323   17.7892 H   0  0  0  0  0  0
  -27.6995  -14.2585   19.5698 H   0  0  0  0  0  0
  -28.6820  -11.9808   21.3543 H   0  0  0  0  0  0
  -28.4451  -13.6265   21.8581 H   0  0  0  0  0  0
  -25.2763   -9.5691   22.4749 H   0  0  0  0  0  0
  -24.0006   -7.4637   22.7469 H   0  0  0  0  0  0
  -21.0839   -8.8772   19.8950 H   0  0  0  0  0  0
  -22.3692  -10.9672   19.6160 H   0  0  0  0  0  0
  -21.2008   -7.6147   23.9714 H   0  0  0  0  0  0
  -21.1481   -6.0522   25.9075 H   0  0  0  0  0  0
  -22.0599   -2.7611   23.2843 H   0  0  0  0  0  0
  -22.4115  -11.9878   22.4773 H   0  0  0  0  0  0
  -21.1121  -13.1258   22.2611 H   0  0  0  0  0  0
  -24.6727  -15.8507   20.5240 H   0  0  0  0  0  0
  -26.2974  -15.6235   20.1162 H   0  0  0  0  0  0
  -26.7124  -32.5499   23.1133 H   0  0  0  0  0  0
  -25.0052  -33.9761   25.0453 H   0  0  0  0  0  0
  -22.6970  -31.3072   21.4089 H   0  0  0  0  0  0
  -23.3745  -35.9647   23.3310 H   0  0  0  0  0  0
  -24.3580  -36.8916   22.2051 H   0  0  0  0  0  0
  -23.7248  -37.6523   23.6647 H   0  0  0  0  0  0
  -26.0574  -31.5818   20.5970 H   0  0  0  0  0  0
  -26.8245  -30.8699   21.9873 H   0  0  0  0  0  0
  -28.0967  -29.0616   21.1724 H   0  0  0  0  0  0
  -26.0048  -25.9452   19.0256 H   0  0  0  0  0  0
  -23.9683  -27.2898   19.0413 H   0  0  0  0  0  0
  -23.7288  -30.5962   19.4040 H   0  0  0  0  0  0
  -22.7374  -29.2452   19.8653 H   0  0  0  0  0  0
  -25.1283  -36.1966   25.0830 H   0  0  0  0  0  0
  -20.9959  -28.3232   24.1435 H   0  0  0  0  0  0
  -20.5661  -26.2271   23.3608 H   0  0  0  0  0  0
  -21.6637  -26.7439   22.1220 H   0  0  0  0  0  0
  -19.6908  -25.6300   21.1234 H   0  0  0  0  0  0
  -19.6690  -27.3203   20.6748 H   0  0  0  0  0  0
  -17.4196  -26.6679   21.4019 H   0  0  0  0  0  0
  -18.0319  -26.0062   22.9011 H   0  0  0  0  0  0
  -19.7927  -30.7255   24.2290 H   0  0  0  0  0  0
  -17.5009  -31.6266   24.5165 H   0  0  0  0  0  0
  -15.5345  -30.2993   23.7641 H   0  0  0  0  0  0
  -15.8663  -28.0830   22.7047 H   0  0  0  0  0  0
  -24.5908  -30.7064   25.7809 H   0  0  0  0  0  0
  -24.8943  -32.2867   26.4929 H   0  0  0  0  0  0
  -25.8098  -30.8871   27.0220 H   0  0  0  0  0  0
  -26.2858  -29.6792   24.1170 H   0  0  0  0  0  0
  -27.4077  -29.7276   25.4579 H   0  0  0  0  0  0
  -27.8697  -30.4347   23.9270 H   0  0  0  0  0  0
  -27.2673  -33.3613   26.2075 H   0  0  0  0  0  0
  -28.3847  -32.6892   25.0292 H   0  0  0  0  0  0
  -28.0740  -31.8432   26.5373 H   0  0  0  0  0  0
  -28.2602  -38.0102   24.7509 H   0  0  0  0  0  0
  -28.1075  -36.2634   24.6285 H   0  0  0  0  0  0
  -27.2306  -37.1463   25.8868 H   0  0  0  0  0  0
  -20.9307  -29.8752   21.6941 H   0  0  0  0  0  0
  -26.0181  -38.2869   24.1404 H   0  0  0  0  0  0
  -30.9652  -20.0202   22.9393 H   0  0  0  0  0  0
  -30.4326  -22.4099   22.7421 H   0  0  0  0  0  0
  -29.3740  -17.5904   23.1794 H   0  0  0  0  0  0
  -31.1042  -17.8639   23.3657 H   0  0  0  0  0  0
  -29.9159  -16.7215   19.5053 H   0  0  0  0  0  0
  -28.5857  -16.8227   20.6586 H   0  0  0  0  0  0
  -31.3967  -17.9436   20.9569 H   0  0  0  0  0  0
  -31.6694  -15.7391   22.5927 H   0  0  0  0  0  0
  -29.3946  -18.6469   18.4247 H   0  0  0  0  0  0
  -28.0978  -19.7998   18.1800 H   0  0  0  0  0  0
  -27.8371  -18.4447   19.2615 H   0  0  0  0  0  0
  -28.8893  -15.1857   23.7637 H   0  0  0  0  0  0
  -30.3664  -15.4086   24.6933 H   0  0  0  0  0  0
  -30.2054  -14.0184   23.6328 H   0  0  0  0  0  0
  -28.0968  -25.6259   18.3512 H   0  0  0  0  0  0
  -29.6310  -25.3855   19.0842 H   0  0  0  0  0  0
  -27.9222  -23.4393   19.0759 H   0  0  0  0  0  0
  -27.1414  -24.2179   20.4269 H   0  0  0  0  0  0
  1 25  1  0  0  0
  1 30  2  0  0  0
  1 85  1  0  0  0
  2  3  1  0  0  0
  2 25  1  0  0  0
  2 87  1  0  0  0
  2 88  1  0  0  0
  3  4  1  0  0  0
  3 89  1  0  0  0
  3 90  1  0  0  0
  4  5  1  0  0  0
  4 91  1  0  0  0
  4 92  1  0  0  0
  5  6  1  0  0  0
  5 26  1  0  0  0
  5 93  1  0  0  0
  6 25  1  0  0  0
  6 94  1  0  0  0
  6 95  1  0  0  0
  7  8  2  0  0  0
  7 26  1  0  0  0
  7 29  1  0  0  0
  8  9  1  0  0  0
  8 22  1  0  0  0
  9 10  1  0  0  0
  9 27  2  0  0  0
 10 11  2  0  0  0
 10 15  1  0  0  0
 11 12  1  0  0  0
 11 96  1  0  0  0
 12 13  2  0  0  0
 12 97  1  0  0  0
 13 14  1  0  0  0
 13 31  1  0  0  0
 14 15  2  0  0  0
 14 98  1  0  0  0
 15 99  1  0  0  0
 16 17  2  0  0  0
 16 21  1  0  0  0
 16 31  1  0  0  0
 17 18  1  0  0  0
 17100  1  0  0  0
 18 19  2  0  0  0
 18101  1  0  0  0
 19 20  1  0  0  0
 19 24  1  0  0  0
 20 21  2  0  0  0
 20102  1  0  0  0
 21 23  1  0  0  0
 22 28  1  0  0  0
 22 32  2  0  0  0
 26 27  1  0  0  0
 28103  1  0  0  0
 28104  1  0  0  0
 29105  1  0  0  0
 29106  1  0  0  0
 33 34  1  0  0  0
 33 66  1  0  0  0
 33 70  2  0  0  0
 34 36  1  0  0  0
 34 59  1  0  0  0
 34107  1  0  0  0
 35 44  2  0  0  0
 35 45  1  0  0  0
 35 68  1  0  0  0
 36 56  1  0  0  0
 36108  1  0  0  0
 37 39  1  0  0  0
 37 47  1  0  0  0
 37 66  1  0  0  0
 37109  1  0  0  0
 38 43  2  0  0  0
 38 46  1  0  0  0
 38 47  1  0  0  0
 39 64  1  0  0  0
 39 67  2  0  0  0
 40 52  1  0  0  0
 40 53  2  0  0  0
 40 58  1  0  0  0
 41110  1  0  0  0
 41111  1  0  0  0
 41112  1  0  0  0
 41 48  1  0  0  0
 42 43  1  0  0  0
 42 66  1  0  0  0
 42113  1  0  0  0
 42114  1  0  0  0
 43 44  1  0  0  0
 44115  1  0  0  0
 45 46  2  0  0  0
 45116  1  0  0  0
 46117  1  0  0  0
 47118  1  0  0  0
 47119  1  0  0  0
 48 56  1  0  0  0
 48 65  1  0  0  0
 48120  1  0  0  0
 49 50  1  0  0  0
 49 53  1  0  0  0
 49 64  1  0  0  0
 49121  1  0  0  0
 50 51  1  0  0  0
 50122  1  0  0  0
 50123  1  0  0  0
 51 52  1  0  0  0
 51124  1  0  0  0
 51125  1  0  0  0
 52126  1  0  0  0
 52127  1  0  0  0
 53 54  1  0  0  0
 54 55  2  0  0  0
 54128  1  0  0  0
 55 57  1  0  0  0
 55129  1  0  0  0
 56 69  2  0  0  0
 57 58  2  0  0  0
 57130  1  0  0  0
 58131  1  0  0  0
 59 60  1  0  0  0
 59 61  1  0  0  0
 59 62  1  0  0  0
 60132  1  0  0  0
 60133  1  0  0  0
 60134  1  0  0  0
 61135  1  0  0  0
 61136  1  0  0  0
 61137  1  0  0  0
 62138  1  0  0  0
 62139  1  0  0  0
 62140  1  0  0  0
 63 65  1  0  0  0
 63141  1  0  0  0
 63142  1  0  0  0
 63143  1  0  0  0
 64144  1  0  0  0
 65145  1  0  0  0
 68 82  1  0  0  0
 71 72  2  0  0  0
 71 73  1  0  0  0
 71146  1  0  0  0
 72 75  1  0  0  0
 72147  1  0  0  0
 73 74  2  0  0  0
 73 78  1  0  0  0
 74 80  1  0  0  0
 74 84  1  0  0  0
 75 84  2  0  0  0
 75 86  1  0  0  0
 76 78  1  0  0  0
 76 79  1  0  0  0
 76148  1  0  0  0
 76149  1  0  0  0
 77 78  1  0  0  0
 77 85  1  0  0  0
 77150  1  0  0  0
 77151  1  0  0  0
 78152  1  0  0  0
 79 81  1  0  0  0
 79 85  1  0  0  0
 79153  1  0  0  0
 80154  1  0  0  0
 80155  1  0  0  0
 80156  1  0  0  0
 81157  1  0  0  0
 81158  1  0  0  0
 81159  1  0  0  0
 82 83  1  0  0  0
 82160  1  0  0  0
 82161  1  0  0  0
 83 86  1  0  0  0
 83162  1  0  0  0
 83163  1  0  0  0
M  ISO  4   1 100  68 101  82 101  85 100
M  END
> <chiral flag>
0

> <version>
0

> <s_m_source_file>
/data/baiqing/PycharmProjects/Reinvent-master-3.2/result/LINK_invent/BTK/process_docking_weight1_custom_sum_contain_oxygen_bond_distance_aromatic_linkinvent_7_9_3/rearranged_h_0147.sdf

> <i_m_source_file_index>
74

> <r_mmod_Potential_Energy-OPLS-2005>
14.4998245239258

> <r_mmod_Stretch_Energy-OPLS-2005>
50.4839210510254

> <r_mmod_Bend_Energy-OPLS-2005>
169.95198059082

> <r_mmod_Torsional_Energy-OPLS-2005>
305.834625244141

> <r_mmod_Improper_Torsional_Energy-OPLS-2005>
7.08395528793335

> <r_mmod_Van_der_Waal_Energy-OPLS-2005>
152.350646972656

> <r_mmod_Electrostatic_Energy-OPLS-2005>
-488.303039550781

> <r_mmod_Solvation_Energy-OPLS-2005>
-199.357849121094

> <b_mmod_Minimization_Converged-OPLS-2005>
0

> <r_mmod_RMS_Derivative-OPLS-2005>
0.574223220348358

$$$$
74
                    3D
 Structure written by MMmdl.
183193  0  0  1  0            999 V2000
  -30.6022  -14.5843   20.5838 C   0  0  0  0  0  0
  -30.4343  -12.3810   19.4268 C   0  0  0  0  0  0
  -29.5027  -12.5236   18.2026 C   0  0  0  0  0  0
  -28.0195  -12.3591   18.6047 C   0  0  0  0  0  0
  -27.6455  -13.1996   19.8532 C   0  0  2  0  0  0
  -28.6845  -12.9953   20.9777 C   0  0  0  0  0  0
  -25.2427  -13.7998   20.5447 C   0  0  0  0  0  0
  -24.1771  -13.0345   20.9270 C   0  0  0  0  0  0
  -24.6364  -11.6831   20.8775 C   0  0  0  0  0  0
  -23.9031  -10.4216   21.0465 C   0  0  0  0  0  0
  -24.3583   -9.4096   21.9193 C   0  0  0  0  0  0
  -23.6214   -8.2163   22.0778 C   0  0  0  0  0  0
  -22.4194   -8.0256   21.3580 C   0  0  0  0  0  0
  -21.9826   -9.0253   20.4709 C   0  0  0  0  0  0
  -22.7186  -10.2107   20.3119 C   0  0  0  0  0  0
  -21.6803   -6.0676   22.5286 C   0  0  0  0  0  0
  -21.3981   -6.5573   23.8207 C   0  0  0  0  0  0
  -21.3700   -5.6771   24.9205 C   0  0  0  0  0  0
  -21.6035   -4.3032   24.7275 C   0  0  0  0  0  0
  -21.8822   -3.8104   23.4395 C   0  0  0  0  0  0
  -21.9195   -4.6908   22.3432 C   0  0  0  0  0  0
  -22.7826  -13.5215   21.1924 C   0  0  0  0  0  0
  -22.1732   -4.2101   21.1028 F   0  0  0  0  0  0
  -21.5566   -3.4544   25.7805 F   0  0  0  0  0  0
  -30.0038  -13.3630   20.4364 N   0  0  0  0  0  0
  -26.2907  -12.9207   20.3142 N   0  0  0  0  0  0
  -25.9254  -11.6389   20.5722 N   0  0  0  0  0  0
  -22.0324  -12.8193   22.0341 N   0  0  0  0  0  0
  -25.3963  -15.1564   20.3328 N   0  0  0  0  0  0
  -31.7468  -14.7950   20.1719 O   0  0  0  0  0  0
  -21.6568   -6.8839   21.4250 O   0  0  0  0  0  0
  -22.3579  -14.5611   20.6891 O   0  0  0  0  0  0
  -24.6163  -31.8711   23.2129 C   0  0  0  0  0  0
  -25.9053  -32.4847   23.8420 C   0  0  1  0  0  0
  -27.2391  -27.4527   20.0930 C   0  0  0  0  0  0
  -25.5882  -33.8643   24.2331 N   0  0  0  0  0  0
  -23.4042  -30.4948   21.5548 C   0  0  2  0  0  0
  -24.8513  -28.9584   20.1217 C   0  0  0  0  0  0
  -22.7438  -29.4674   22.5034 C   0  0  0  0  0  0
  -18.0287  -28.1420   22.8530 C   0  0  0  0  0  0
  -24.1469  -36.7325   23.2614 C   0  0  0  0  0  0
  -25.9303  -30.8393   21.3654 C   0  0  0  0  0  0
  -26.0079  -29.4697   20.7238 C   0  0  0  0  0  0
  -27.2060  -28.7186   20.7221 C   0  0  0  0  0  0
  -26.0733  -26.9532   19.4796 C   0  0  0  0  0  0
  -24.8760  -27.6943   19.5028 C   0  0  0  0  0  0
  -23.6131  -29.8279   20.1683 C   0  0  0  0  0  0
  -25.4074  -36.3136   24.0345 C   0  0  1  0  0  0
  -20.5873  -28.3695   23.1360 C   0  0  2  0  0  0
  -20.6768  -26.9433   22.5449 C   0  0  0  0  0  0
  -19.5734  -26.6428   21.5252 C   0  0  0  0  0  0
  -18.1910  -26.7960   22.1662 C   0  0  0  0  0  0
  -19.1536  -28.8885   23.2932 C   0  0  0  0  0  0
  -18.9453  -30.1483   23.8957 C   0  0  0  0  0  0
  -17.6449  -30.6598   24.0625 C   0  0  0  0  0  0
  -25.9043  -34.9509   23.5143 C   0  0  0  0  0  0
  -16.5351  -29.9122   23.6333 C   0  0  0  0  0  0
  -16.7274  -28.6551   23.0337 C   0  0  0  0  0  0
  -26.4476  -31.6610   25.0734 C   0  0  0  0  0  0
  -25.3744  -31.3728   26.1499 C   0  0  0  0  0  0
  -27.0231  -30.3043   24.6063 C   0  0  0  0  0  0
  -27.6128  -32.4291   25.7409 C   0  0  0  0  0  0
  -27.5629  -37.1727   24.8396 C   0  0  0  0  0  0
  -21.4167  -29.3043   22.3765 N   0  0  0  0  0  0
  -26.4229  -37.3864   23.9503 N   0  0  0  0  0  0
  -24.6686  -31.0814   22.1038 N   0  0  0  0  0  0
  -23.4196  -28.8229   23.3102 O   0  0  0  0  0  0
  -28.3842  -26.6927   20.0340 O   0  0  0  0  0  0
  -26.5650  -34.8977   22.4732 O   0  0  0  0  0  0
  -23.5368  -32.1471   23.7525 O   0  0  0  0  0  0
  -30.1644  -19.4663   22.5293 C   0  0  0  0  0  0
  -29.0367  -18.7321   22.9119 C   0  0  0  0  0  0
  -28.8416  -17.4819   22.2587 C   0  0  0  0  0  0
  -30.9065  -19.0519   21.4160 C   0  0  0  0  0  0
  -29.8714  -16.9362   21.4204 C   0  0  0  0  0  0
  -26.3046  -21.1507   23.0083 C   0  0  0  0  0  0
  -26.6358  -21.6005   24.3982 C   0  0  0  0  0  0
  -31.2935  -22.4104   21.4584 C   0  0  0  0  0  0
  -29.8536  -21.4735   19.6119 C   0  0  0  0  0  0
  -32.2277  -21.1767   21.2879 C   0  0  0  0  0  0
  -30.9134  -20.3629   19.3974 C   0  0  0  0  0  0
  -27.6633  -20.8126   23.5996 C   0  0  0  0  0  0
  -30.4636  -22.7648   20.2011 C   0  0  0  0  0  0
  -26.4814  -17.7190   21.4942 C   0  0  0  0  0  0
  -28.5666  -19.2326   25.3741 C   0  0  0  0  0  0
  -27.4547  -16.8545   22.3258 C   0  0  0  0  0  0
  -29.8827  -25.0641   21.0821 C   0  0  0  0  0  0
  -28.7650  -26.1111   21.2801 C   0  0  0  0  0  0
  -28.0463  -19.3596   23.9354 C   0  0  2  0  0  0
  -30.8315  -17.7790   20.9456 N   0  0  0  0  0  0
  -31.5993  -20.0136   20.6453 N   0  0  0  0  0  0
  -29.7568  -15.5381   21.0746 N   0  0  0  0  0  0
  -29.4085  -23.7892   20.4761 N   0  3  0  0  0  0
  -31.4750  -12.5191   19.1277 H   0  0  0  0  0  0
  -30.3654  -11.3726   19.8363 H   0  0  0  0  0  0
  -29.7607  -11.7845   17.4404 H   0  0  0  0  0  0
  -29.6565  -13.5000   17.7387 H   0  0  0  0  0  0
  -27.8444  -11.3020   18.8018 H   0  0  0  0  0  0
  -27.3729  -12.6183   17.7657 H   0  0  0  0  0  0
  -27.6870  -14.2445   19.5450 H   0  0  0  0  0  0
  -28.7008  -11.9501   21.2876 H   0  0  0  0  0  0
  -28.4152  -13.5617   21.8688 H   0  0  0  0  0  0
  -25.2755   -9.5482   22.4734 H   0  0  0  0  0  0
  -23.9910   -7.4519   22.7484 H   0  0  0  0  0  0
  -21.0712   -8.8784   19.9044 H   0  0  0  0  0  0
  -22.3639  -10.9673   19.6278 H   0  0  0  0  0  0
  -21.1953   -7.6079   23.9692 H   0  0  0  0  0  0
  -21.1558   -6.0528   25.9100 H   0  0  0  0  0  0
  -22.0559   -2.7549   23.2956 H   0  0  0  0  0  0
  -22.3731  -11.9866   22.4911 H   0  0  0  0  0  0
  -21.0966  -13.1400   22.2345 H   0  0  0  0  0  0
  -24.6620  -15.8245   20.5373 H   0  0  0  0  0  0
  -26.2101  -15.5857   19.9146 H   0  0  0  0  0  0
  -26.7125  -32.5601   23.1190 H   0  0  0  0  0  0
  -24.9939  -33.9793   25.0412 H   0  0  0  0  0  0
  -22.6919  -31.3106   21.4171 H   0  0  0  0  0  0
  -23.3801  -35.9573   23.3102 H   0  0  0  0  0  0
  -24.3631  -36.9129   22.2072 H   0  0  0  0  0  0
  -23.7107  -37.6420   23.6750 H   0  0  0  0  0  0
  -26.0292  -31.5975   20.5877 H   0  0  0  0  0  0
  -26.8243  -30.9081   21.9721 H   0  0  0  0  0  0
  -28.1002  -29.1139   21.1840 H   0  0  0  0  0  0
  -26.0922  -25.9922   18.9824 H   0  0  0  0  0  0
  -23.9890  -27.2935   19.0303 H   0  0  0  0  0  0
  -23.7316  -30.6062   19.4136 H   0  0  0  0  0  0
  -22.7349  -29.2534   19.8681 H   0  0  0  0  0  0
  -25.1194  -36.1965   25.0825 H   0  0  0  0  0  0
  -20.9971  -28.3262   24.1478 H   0  0  0  0  0  0
  -20.5707  -26.2304   23.3632 H   0  0  0  0  0  0
  -21.6637  -26.7494   22.1227 H   0  0  0  0  0  0
  -19.6878  -25.6351   21.1248 H   0  0  0  0  0  0
  -19.6634  -27.3288   20.6816 H   0  0  0  0  0  0
  -17.4180  -26.6782   21.4043 H   0  0  0  0  0  0
  -18.0248  -26.0075   22.9031 H   0  0  0  0  0  0
  -19.7929  -30.7306   24.2322 H   0  0  0  0  0  0
  -17.5001  -31.6265   24.5247 H   0  0  0  0  0  0
  -15.5355  -30.3043   23.7606 H   0  0  0  0  0  0
  -15.8678  -28.0895   22.6984 H   0  0  0  0  0  0
  -24.5870  -30.7125   25.7828 H   0  0  0  0  0  0
  -24.8986  -32.2890   26.5024 H   0  0  0  0  0  0
  -25.8088  -30.8821   27.0215 H   0  0  0  0  0  0
  -26.2700  -29.6828   24.1204 H   0  0  0  0  0  0
  -27.4067  -29.7284   25.4489 H   0  0  0  0  0  0
  -27.8540  -30.4338   23.9122 H   0  0  0  0  0  0
  -27.2842  -33.3613   26.2019 H   0  0  0  0  0  0
  -28.3870  -32.6805   25.0139 H   0  0  0  0  0  0
  -28.0863  -31.8377   26.5255 H   0  0  0  0  0  0
  -28.2424  -38.0244   24.7865 H   0  0  0  0  0  0
  -28.1343  -36.2849   24.5644 H   0  0  0  0  0  0
  -27.2454  -37.0696   25.8787 H   0  0  0  0  0  0
  -20.9346  -29.8736   21.6940 H   0  0  0  0  0  0
  -26.0107  -38.2874   24.1762 H   0  0  0  0  0  0
  -30.3346  -20.4170   22.9939 H   0  0  0  0  0  0
  -26.2640  -21.9080   22.2296 H   0  0  0  0  0  0
  -25.5451  -20.3754   22.9319 H   0  0  0  0  0  0
  -26.0800  -21.1202   25.2007 H   0  0  0  0  0  0
  -26.8093  -22.6668   24.5330 H   0  0  0  0  0  0
  -31.9312  -23.2515   21.7213 H   0  0  0  0  0  0
  -30.6205  -22.2989   22.3054 H   0  0  0  0  0  0
  -29.0659  -21.0966   20.2686 H   0  0  0  0  0  0
  -29.3720  -21.6978   18.6588 H   0  0  0  0  0  0
  -32.6702  -20.8942   22.2453 H   0  0  0  0  0  0
  -33.0618  -21.4724   20.6506 H   0  0  0  0  0  0
  -31.6583  -20.7105   18.6819 H   0  0  0  0  0  0
  -30.4478  -19.4811   18.9534 H   0  0  0  0  0  0
  -28.4993  -21.4394   23.3004 H   0  0  0  0  0  0
  -31.1329  -23.1882   19.4509 H   0  0  0  0  0  0
  -25.4419  -17.4581   21.6954 H   0  0  0  0  0  0
  -26.6660  -17.6122   20.4246 H   0  0  0  0  0  0
  -26.5849  -18.7810   21.6966 H   0  0  0  0  0  0
  -28.7586  -18.1874   25.6185 H   0  0  0  0  0  0
  -27.8334  -19.6063   26.0911 H   0  0  0  0  0  0
  -29.4906  -19.7862   25.5288 H   0  0  0  0  0  0
  -27.1154  -16.7659   23.3558 H   0  0  0  0  0  0
  -27.4359  -15.8381   21.9469 H   0  0  0  0  0  0
  -30.2937  -24.8537   22.0690 H   0  0  0  0  0  0
  -30.6924  -25.4879   20.4874 H   0  0  0  0  0  0
  -29.1377  -26.9024   21.9303 H   0  0  0  0  0  0
  -27.9098  -25.6588   21.7900 H   0  0  0  0  0  0
  -27.1120  -18.8084   23.9404 H   0  0  0  0  0  0
  -28.8659  -15.1458   21.3195 H   0  0  0  0  0  0
  -28.7035  -23.3891   21.0790 H   0  0  0  0  0  0
  -28.9477  -24.0126   19.6060 H   0  0  0  0  0  0
  1 25  1  0  0  0
  1 30  2  0  0  0
  1 92  1  0  0  0
  2  3  1  0  0  0
  2 25  1  0  0  0
  2 94  1  0  0  0
  2 95  1  0  0  0
  3  4  1  0  0  0
  3 96  1  0  0  0
  3 97  1  0  0  0
  4  5  1  0  0  0
  4 98  1  0  0  0
  4 99  1  0  0  0
  5  6  1  0  0  0
  5 26  1  0  0  0
  5100  1  0  0  0
  6 25  1  0  0  0
  6101  1  0  0  0
  6102  1  0  0  0
  7  8  2  0  0  0
  7 26  1  0  0  0
  7 29  1  0  0  0
  8  9  1  0  0  0
  8 22  1  0  0  0
  9 10  1  0  0  0
  9 27  2  0  0  0
 10 11  2  0  0  0
 10 15  1  0  0  0
 11 12  1  0  0  0
 11103  1  0  0  0
 12 13  2  0  0  0
 12104  1  0  0  0
 13 14  1  0  0  0
 13 31  1  0  0  0
 14 15  2  0  0  0
 14105  1  0  0  0
 15106  1  0  0  0
 16 17  2  0  0  0
 16 21  1  0  0  0
 16 31  1  0  0  0
 17 18  1  0  0  0
 17107  1  0  0  0
 18 19  2  0  0  0
 18108  1  0  0  0
 19 20  1  0  0  0
 19 24  1  0  0  0
 20 21  2  0  0  0
 20109  1  0  0  0
 21 23  1  0  0  0
 22 28  1  0  0  0
 22 32  2  0  0  0
 26 27  1  0  0  0
 28110  1  0  0  0
 28111  1  0  0  0
 29112  1  0  0  0
 29113  1  0  0  0
 33 34  1  0  0  0
 33 66  1  0  0  0
 33 70  2  0  0  0
 34 36  1  0  0  0
 34 59  1  0  0  0
 34114  1  0  0  0
 35 44  2  0  0  0
 35 45  1  0  0  0
 35 68  1  0  0  0
 36 56  1  0  0  0
 36115  1  0  0  0
 37 39  1  0  0  0
 37 47  1  0  0  0
 37 66  1  0  0  0
 37116  1  0  0  0
 38 43  2  0  0  0
 38 46  1  0  0  0
 38 47  1  0  0  0
 39 64  1  0  0  0
 39 67  2  0  0  0
 40 52  1  0  0  0
 40 53  2  0  0  0
 40 58  1  0  0  0
 41117  1  0  0  0
 41118  1  0  0  0
 41119  1  0  0  0
 41 48  1  0  0  0
 42 43  1  0  0  0
 42 66  1  0  0  0
 42120  1  0  0  0
 42121  1  0  0  0
 43 44  1  0  0  0
 44122  1  0  0  0
 45 46  2  0  0  0
 45123  1  0  0  0
 46124  1  0  0  0
 47125  1  0  0  0
 47126  1  0  0  0
 48 56  1  0  0  0
 48 65  1  0  0  0
 48127  1  0  0  0
 49 50  1  0  0  0
 49 53  1  0  0  0
 49 64  1  0  0  0
 49128  1  0  0  0
 50 51  1  0  0  0
 50129  1  0  0  0
 50130  1  0  0  0
 51 52  1  0  0  0
 51131  1  0  0  0
 51132  1  0  0  0
 52133  1  0  0  0
 52134  1  0  0  0
 53 54  1  0  0  0
 54 55  2  0  0  0
 54135  1  0  0  0
 55 57  1  0  0  0
 55136  1  0  0  0
 56 69  2  0  0  0
 57 58  2  0  0  0
 57137  1  0  0  0
 58138  1  0  0  0
 59 60  1  0  0  0
 59 61  1  0  0  0
 59 62  1  0  0  0
 60139  1  0  0  0
 60140  1  0  0  0
 60141  1  0  0  0
 61142  1  0  0  0
 61143  1  0  0  0
 61144  1  0  0  0
 62145  1  0  0  0
 62146  1  0  0  0
 62147  1  0  0  0
 63 65  1  0  0  0
 63148  1  0  0  0
 63149  1  0  0  0
 63150  1  0  0  0
 64151  1  0  0  0
 65152  1  0  0  0
 68 88  1  0  0  0
 71 72  2  0  0  0
 71 74  1  0  0  0
 71153  1  0  0  0
 72 73  1  0  0  0
 72 89  1  0  0  0
 73 75  2  0  0  0
 73 86  1  0  0  0
 74 90  2  0  0  0
 74 91  1  0  0  0
 75 90  1  0  0  0
 75 92  1  0  0  0
 76 77  1  0  0  0
 76154  1  0  0  0
 76155  1  0  0  0
 76 82  1  0  0  0
 77 82  1  0  0  0
 77156  1  0  0  0
 77157  1  0  0  0
 78 80  1  0  0  0
 78 83  1  0  0  0
 78158  1  0  0  0
 78159  1  0  0  0
 79 81  1  0  0  0
 79 83  1  0  0  0
 79160  1  0  0  0
 79161  1  0  0  0
 80 91  1  0  0  0
 80162  1  0  0  0
 80163  1  0  0  0
 81 91  1  0  0  0
 81164  1  0  0  0
 81165  1  0  0  0
 82 89  1  0  0  0
 82166  1  0  0  0
 83 93  1  0  0  0
 83167  1  0  0  0
 84 86  1  0  0  0
 84168  1  0  0  0
 84169  1  0  0  0
 84170  1  0  0  0
 85171  1  0  0  0
 85172  1  0  0  0
 85173  1  0  0  0
 85 89  1  0  0  0
 86174  1  0  0  0
 86175  1  0  0  0
 87 88  1  0  0  0
 87 93  1  0  0  0
 87176  1  0  0  0
 87177  1  0  0  0
 88178  1  0  0  0
 88179  1  0  0  0
 89180  1  0  0  0
 92181  1  0  0  0
 93182  1  0  0  0
 93183  1  0  0  0
M  CHG  1  93   1
M  ISO  4   1 100  68 101  88 101  92 100
M  END
> <chiral flag>
0

> <version>
0

> <s_m_source_file>
/data/baiqing/PycharmProjects/Reinvent-master-3.2/result/LINK_invent/BTK/process_docking_weight1_custom_sum_contain_oxygen_bond_distance_aromatic_linkinvent_7_9_3/rearranged_h_0147.sdf

> <i_m_source_file_index>
75

> <r_mmod_Potential_Energy-OPLS-2005>
-197.297149658203

> <r_mmod_Stretch_Energy-OPLS-2005>
51.3356590270996

> <r_mmod_Bend_Energy-OPLS-2005>
134.377548217773

> <r_mmod_Torsional_Energy-OPLS-2005>
361.659027099609

> <r_mmod_Improper_Torsional_Energy-OPLS-2005>
9.61377048492432

> <r_mmod_Van_der_Waal_Energy-OPLS-2005>
162.526397705078

> <r_mmod_Electrostatic_Energy-OPLS-2005>
-452.781677246094

> <r_mmod_Solvation_Energy-OPLS-2005>
-488.887115478516

> <b_mmod_Minimization_Converged-OPLS-2005>
0

> <r_mmod_RMS_Derivative-OPLS-2005>
6.2513313293457

$$$$
75
                    3D
 Structure written by MMmdl.
165175  0  0  1  0            999 V2000
  -30.6943  -14.6156   20.5287 C   0  0  0  0  0  0
  -30.4120  -12.3929   19.4497 C   0  0  0  0  0  0
  -29.4892  -12.4996   18.2188 C   0  0  0  0  0  0
  -28.0177  -12.3206   18.6355 C   0  0  0  0  0  0
  -27.6389  -13.2043   19.8512 C   0  0  2  0  0  0
  -28.6875  -13.0983   20.9853 C   0  0  0  0  0  0
  -25.2478  -13.8125   20.5643 C   0  0  0  0  0  0
  -24.1767  -13.0405   20.9203 C   0  0  0  0  0  0
  -24.6342  -11.6880   20.8760 C   0  0  0  0  0  0
  -23.9026  -10.4269   21.0420 C   0  0  0  0  0  0
  -24.3591   -9.4191   21.9193 C   0  0  0  0  0  0
  -23.6274   -8.2223   22.0753 C   0  0  0  0  0  0
  -22.4259   -8.0258   21.3545 C   0  0  0  0  0  0
  -21.9887   -9.0225   20.4647 C   0  0  0  0  0  0
  -22.7205  -10.2113   20.3061 C   0  0  0  0  0  0
  -21.6842   -6.0722   22.5283 C   0  0  0  0  0  0
  -21.4003   -6.5634   23.8214 C   0  0  0  0  0  0
  -21.3657   -5.6788   24.9179 C   0  0  0  0  0  0
  -21.6043   -4.3054   24.7228 C   0  0  0  0  0  0
  -21.8817   -3.8138   23.4351 C   0  0  0  0  0  0
  -21.9187   -4.6951   22.3406 C   0  0  0  0  0  0
  -22.7795  -13.5208   21.1864 C   0  0  0  0  0  0
  -22.1658   -4.2137   21.0983 F   0  0  0  0  0  0
  -21.5640   -3.4537   25.7743 F   0  0  0  0  0  0
  -29.9961  -13.4376   20.4121 N   0  0  0  0  0  0
  -26.2897  -12.9293   20.3283 N   0  0  0  0  0  0
  -25.9259  -11.6466   20.5773 N   0  0  0  0  0  0
  -22.0432  -12.8219   22.0431 N   0  0  0  0  0  0
  -25.4106  -15.1839   20.3968 N   0  0  0  0  0  0
  -31.8649  -14.6697   20.1385 O   0  0  0  0  0  0
  -21.6630   -6.8853   21.4239 O   0  0  0  0  0  0
  -22.3493  -14.5513   20.6700 O   0  0  0  0  0  0
  -24.6206  -31.8621   23.2038 C   0  0  0  0  0  0
  -25.9073  -32.4788   23.8358 C   0  0  1  0  0  0
  -27.2339  -27.3627   20.1031 C   0  0  0  0  0  0
  -25.5905  -33.8590   24.2286 N   0  0  0  0  0  0
  -23.4125  -30.4850   21.5451 C   0  0  2  0  0  0
  -24.8592  -28.9424   20.1110 C   0  0  0  0  0  0
  -22.7445  -29.4633   22.4949 C   0  0  0  0  0  0
  -18.0280  -28.1374   22.8493 C   0  0  0  0  0  0
  -24.1491  -36.7308   23.2640 C   0  0  0  0  0  0
  -25.9482  -30.8056   21.3676 C   0  0  0  0  0  0
  -26.0227  -29.4348   20.7129 C   0  0  0  0  0  0
  -27.2083  -28.6519   20.7065 C   0  0  0  0  0  0
  -26.0388  -26.8973   19.5061 C   0  0  0  0  0  0
  -24.8657  -27.6761   19.5041 C   0  0  0  0  0  0
  -23.6242  -29.8158   20.1604 C   0  0  0  0  0  0
  -25.4115  -36.3096   24.0331 C   0  0  1  0  0  0
  -20.5877  -28.3673   23.1295 C   0  0  2  0  0  0
  -20.6766  -26.9400   22.5411 C   0  0  0  0  0  0
  -19.5744  -26.6380   21.5212 C   0  0  0  0  0  0
  -18.1925  -26.7921   22.1621 C   0  0  0  0  0  0
  -19.1532  -28.8842   23.2891 C   0  0  0  0  0  0
  -18.9458  -30.1446   23.8903 C   0  0  0  0  0  0
  -17.6457  -30.6580   24.0561 C   0  0  0  0  0  0
  -25.9042  -34.9460   23.5110 C   0  0  0  0  0  0
  -16.5349  -29.9080   23.6326 C   0  0  0  0  0  0
  -16.7267  -28.6494   23.0353 C   0  0  0  0  0  0
  -26.4480  -31.6592   25.0717 C   0  0  0  0  0  0
  -25.3729  -31.3722   26.1459 C   0  0  0  0  0  0
  -27.0309  -30.3019   24.6139 C   0  0  0  0  0  0
  -27.6049  -32.4320   25.7483 C   0  0  0  0  0  0
  -27.5578  -37.1814   24.8466 C   0  0  0  0  0  0
  -21.4166  -29.3036   22.3696 N   0  0  0  0  0  0
  -26.4300  -37.3779   23.9395 N   0  0  0  0  0  0
  -24.6791  -31.0670   22.0966 N   0  0  0  0  0  0
  -23.4189  -28.8172   23.3014 O   0  0  0  0  0  0
  -28.3937  -26.5888   20.1580 O   0  0  0  0  0  0
  -26.5612  -34.8925   22.4677 O   0  0  0  0  0  0
  -23.5380  -32.1401   23.7393 O   0  0  0  0  0  0
  -28.2440  -22.8608   19.2472 C   0  0  0  0  0  0
  -28.5029  -21.5404   19.7092 C   0  0  0  0  0  0
  -29.4176  -23.7759   21.1418 C   0  0  0  0  0  0
  -29.6750  -22.4580   21.6199 C   0  0  0  0  0  0
  -28.7051  -24.0074   19.9436 C   0  0  0  0  0  0
  -29.2407  -21.3090   20.8972 C   0  0  0  0  0  0
  -29.8720  -21.6469   24.1100 C   0  0  0  0  0  0
  -30.1956  -23.1221   24.1134 C   0  0  0  0  0  0
  -31.0067  -18.1405   20.8894 C   0  0  0  0  0  0
  -28.5205  -17.8200   20.9799 C   0  0  0  0  0  0
  -30.9405  -16.8030   21.6960 C   0  0  0  0  0  0
  -28.8111  -16.3251   20.5922 C   0  0  0  0  0  0
  -30.4725  -22.2889   22.8809 C   0  0  0  0  0  0
  -29.6397  -18.8303   20.6238 C   0  0  0  0  0  0
  -28.5797  -25.4219   19.3019 C   0  0  0  0  0  0
  -30.1058  -15.7540   21.0547 N   0  0  0  0  0  0
  -29.5408  -20.0435   21.4225 O   0  0  0  0  0  0
  -31.4547  -12.4876   19.1424 H   0  0  0  0  0  0
  -30.3313  -11.4041   19.9039 H   0  0  0  0  0  0
  -29.7609  -11.7484   17.4762 H   0  0  0  0  0  0
  -29.6203  -13.4694   17.7367 H   0  0  0  0  0  0
  -27.8703  -11.2688   18.8823 H   0  0  0  0  0  0
  -27.3552  -12.5298   17.7946 H   0  0  0  0  0  0
  -27.6349  -14.2176   19.4605 H   0  0  0  0  0  0
  -28.7080  -12.0851   21.3893 H   0  0  0  0  0  0
  -28.4373  -13.7413   21.8289 H   0  0  0  0  0  0
  -25.2724   -9.5681   22.4782 H   0  0  0  0  0  0
  -23.9984   -7.4614   22.7474 H   0  0  0  0  0  0
  -21.0817   -8.8735   19.8952 H   0  0  0  0  0  0
  -22.3647  -10.9655   19.6186 H   0  0  0  0  0  0
  -21.1994   -7.6141   23.9715 H   0  0  0  0  0  0
  -21.1487   -6.0523   25.9087 H   0  0  0  0  0  0
  -22.0598   -2.7601   23.2855 H   0  0  0  0  0  0
  -22.4040  -11.9893   22.4847 H   0  0  0  0  0  0
  -21.1051  -13.1257   22.2627 H   0  0  0  0  0  0
  -24.6355  -15.8292   20.5032 H   0  0  0  0  0  0
  -26.2515  -15.6269   20.0524 H   0  0  0  0  0  0
  -26.7142  -32.5474   23.1113 H   0  0  0  0  0  0
  -25.0055  -33.9739   25.0432 H   0  0  0  0  0  0
  -22.7047  -31.3040   21.4009 H   0  0  0  0  0  0
  -23.3737  -35.9658   23.3334 H   0  0  0  0  0  0
  -24.3572  -36.8891   22.2046 H   0  0  0  0  0  0
  -23.7267  -37.6533   23.6636 H   0  0  0  0  0  0
  -26.0707  -31.5685   20.5980 H   0  0  0  0  0  0
  -26.8316  -30.8571   21.9922 H   0  0  0  0  0  0
  -28.1041  -29.0281   21.1810 H   0  0  0  0  0  0
  -25.9717  -25.9148   19.0654 H   0  0  0  0  0  0
  -23.9675  -27.2855   19.0459 H   0  0  0  0  0  0
  -23.7359  -30.5887   19.3993 H   0  0  0  0  0  0
  -22.7476  -29.2370   19.8645 H   0  0  0  0  0  0
  -25.1300  -36.1956   25.0825 H   0  0  0  0  0  0
  -20.9970  -28.3236   24.1415 H   0  0  0  0  0  0
  -20.5660  -26.2282   23.3604 H   0  0  0  0  0  0
  -21.6634  -26.7431   22.1197 H   0  0  0  0  0  0
  -19.6900  -25.6289   21.1242 H   0  0  0  0  0  0
  -19.6687  -27.3195   20.6744 H   0  0  0  0  0  0
  -17.4195  -26.6674   21.4024 H   0  0  0  0  0  0
  -18.0326  -26.0055   22.9012 H   0  0  0  0  0  0
  -19.7933  -30.7261   24.2268 H   0  0  0  0  0  0
  -17.5013  -31.6264   24.5156 H   0  0  0  0  0  0
  -15.5350  -30.2985   23.7644 H   0  0  0  0  0  0
  -15.8666  -28.0816   22.7067 H   0  0  0  0  0  0
  -24.5887  -30.7094   25.7789 H   0  0  0  0  0  0
  -24.8948  -32.2891   26.4915 H   0  0  0  0  0  0
  -25.8064  -30.8873   27.0213 H   0  0  0  0  0  0
  -26.2863  -29.6780   24.1182 H   0  0  0  0  0  0
  -27.4040  -29.7265   25.4621 H   0  0  0  0  0  0
  -27.8721  -30.4314   23.9325 H   0  0  0  0  0  0
  -27.2665  -33.3620   26.2062 H   0  0  0  0  0  0
  -28.3859  -32.6873   25.0310 H   0  0  0  0  0  0
  -28.0715  -31.8441   26.5397 H   0  0  0  0  0  0
  -28.2618  -38.0088   24.7473 H   0  0  0  0  0  0
  -28.1052  -36.2616   24.6347 H   0  0  0  0  0  0
  -27.2287  -37.1526   25.8868 H   0  0  0  0  0  0
  -20.9331  -29.8774   21.6930 H   0  0  0  0  0  0
  -26.0190  -38.2864   24.1367 H   0  0  0  0  0  0
  -27.7062  -22.9884   18.3184 H   0  0  0  0  0  0
  -28.1245  -20.7097   19.1316 H   0  0  0  0  0  0
  -29.8080  -24.6259   21.6848 H   0  0  0  0  0  0
  -28.8221  -21.3627   24.0735 H   0  0  0  0  0  0
  -30.5119  -20.9995   24.7069 H   0  0  0  0  0  0
  -31.0438  -23.4352   24.7193 H   0  0  0  0  0  0
  -29.3557  -23.8142   24.0918 H   0  0  0  0  0  0
  -31.4858  -17.9367   19.9308 H   0  0  0  0  0  0
  -31.6729  -18.8385   21.3974 H   0  0  0  0  0  0
  -28.3493  -17.8615   22.0563 H   0  0  0  0  0  0
  -27.5815  -18.1445   20.5304 H   0  0  0  0  0  0
  -30.5346  -16.9977   22.6898 H   0  0  0  0  0  0
  -31.9570  -16.4503   21.8791 H   0  0  0  0  0  0
  -28.7562  -16.2275   19.5064 H   0  0  0  0  0  0
  -28.0008  -15.7412   21.0174 H   0  0  0  0  0  0
  -31.5113  -22.0581   22.6500 H   0  0  0  0  0  0
  -29.5913  -19.0676   19.5608 H   0  0  0  0  0  0
  -27.8948  -25.3911   18.4571 H   0  0  0  0  0  0
  -29.5464  -25.5892   18.8258 H   0  0  0  0  0  0
  1 25  1  0  0  0
  1 30  2  0  0  0
  1 86  1  0  0  0
  2  3  1  0  0  0
  2 25  1  0  0  0
  2 88  1  0  0  0
  2 89  1  0  0  0
  3  4  1  0  0  0
  3 90  1  0  0  0
  3 91  1  0  0  0
  4  5  1  0  0  0
  4 92  1  0  0  0
  4 93  1  0  0  0
  5  6  1  0  0  0
  5 26  1  0  0  0
  5 94  1  0  0  0
  6 25  1  0  0  0
  6 95  1  0  0  0
  6 96  1  0  0  0
  7  8  2  0  0  0
  7 26  1  0  0  0
  7 29  1  0  0  0
  8  9  1  0  0  0
  8 22  1  0  0  0
  9 10  1  0  0  0
  9 27  2  0  0  0
 10 11  2  0  0  0
 10 15  1  0  0  0
 11 12  1  0  0  0
 11 97  1  0  0  0
 12 13  2  0  0  0
 12 98  1  0  0  0
 13 14  1  0  0  0
 13 31  1  0  0  0
 14 15  2  0  0  0
 14 99  1  0  0  0
 15100  1  0  0  0
 16 17  2  0  0  0
 16 21  1  0  0  0
 16 31  1  0  0  0
 17 18  1  0  0  0
 17101  1  0  0  0
 18 19  2  0  0  0
 18102  1  0  0  0
 19 20  1  0  0  0
 19 24  1  0  0  0
 20 21  2  0  0  0
 20103  1  0  0  0
 21 23  1  0  0  0
 22 28  1  0  0  0
 22 32  2  0  0  0
 26 27  1  0  0  0
 28104  1  0  0  0
 28105  1  0  0  0
 29106  1  0  0  0
 29107  1  0  0  0
 33 34  1  0  0  0
 33 66  1  0  0  0
 33 70  2  0  0  0
 34 36  1  0  0  0
 34 59  1  0  0  0
 34108  1  0  0  0
 35 44  2  0  0  0
 35 45  1  0  0  0
 35 68  1  0  0  0
 36 56  1  0  0  0
 36109  1  0  0  0
 37 39  1  0  0  0
 37 47  1  0  0  0
 37 66  1  0  0  0
 37110  1  0  0  0
 38 43  2  0  0  0
 38 46  1  0  0  0
 38 47  1  0  0  0
 39 64  1  0  0  0
 39 67  2  0  0  0
 40 52  1  0  0  0
 40 53  2  0  0  0
 40 58  1  0  0  0
 41111  1  0  0  0
 41112  1  0  0  0
 41113  1  0  0  0
 41 48  1  0  0  0
 42 43  1  0  0  0
 42 66  1  0  0  0
 42114  1  0  0  0
 42115  1  0  0  0
 43 44  1  0  0  0
 44116  1  0  0  0
 45 46  2  0  0  0
 45117  1  0  0  0
 46118  1  0  0  0
 47119  1  0  0  0
 47120  1  0  0  0
 48 56  1  0  0  0
 48 65  1  0  0  0
 48121  1  0  0  0
 49 50  1  0  0  0
 49 53  1  0  0  0
 49 64  1  0  0  0
 49122  1  0  0  0
 50 51  1  0  0  0
 50123  1  0  0  0
 50124  1  0  0  0
 51 52  1  0  0  0
 51125  1  0  0  0
 51126  1  0  0  0
 52127  1  0  0  0
 52128  1  0  0  0
 53 54  1  0  0  0
 54 55  2  0  0  0
 54129  1  0  0  0
 55 57  1  0  0  0
 55130  1  0  0  0
 56 69  2  0  0  0
 57 58  2  0  0  0
 57131  1  0  0  0
 58132  1  0  0  0
 59 60  1  0  0  0
 59 61  1  0  0  0
 59 62  1  0  0  0
 60133  1  0  0  0
 60134  1  0  0  0
 60135  1  0  0  0
 61136  1  0  0  0
 61137  1  0  0  0
 61138  1  0  0  0
 62139  1  0  0  0
 62140  1  0  0  0
 62141  1  0  0  0
 63 65  1  0  0  0
 63142  1  0  0  0
 63143  1  0  0  0
 63144  1  0  0  0
 64145  1  0  0  0
 65146  1  0  0  0
 68 85  1  0  0  0
 71 72  2  0  0  0
 71 75  1  0  0  0
 71147  1  0  0  0
 72 76  1  0  0  0
 72148  1  0  0  0
 73 74  1  0  0  0
 73 75  2  0  0  0
 73149  1  0  0  0
 74 76  2  0  0  0
 74 83  1  0  0  0
 75 85  1  0  0  0
 76 87  1  0  0  0
 77 78  1  0  0  0
 77 83  1  0  0  0
 77150  1  0  0  0
 77151  1  0  0  0
 78 83  1  0  0  0
 78152  1  0  0  0
 78153  1  0  0  0
 79 81  1  0  0  0
 79 84  1  0  0  0
 79154  1  0  0  0
 79155  1  0  0  0
 80 82  1  0  0  0
 80 84  1  0  0  0
 80156  1  0  0  0
 80157  1  0  0  0
 81 86  1  0  0  0
 81158  1  0  0  0
 81159  1  0  0  0
 82 86  1  0  0  0
 82160  1  0  0  0
 82161  1  0  0  0
 83162  1  0  0  0
 84 87  1  0  0  0
 84163  1  0  0  0
 85164  1  0  0  0
 85165  1  0  0  0
M  ISO  4   1 100  68 101  85 101  86 100
M  END
> <chiral flag>
0

> <version>
0

> <s_m_source_file>
/data/baiqing/PycharmProjects/Reinvent-master-3.2/result/LINK_invent/BTK/process_docking_weight1_custom_sum_contain_oxygen_bond_distance_aromatic_linkinvent_7_9_3/rearranged_h_0147.sdf

> <i_m_source_file_index>
76

> <r_mmod_Potential_Energy-OPLS-2005>
300.848876953125

> <r_mmod_Stretch_Energy-OPLS-2005>
66.093391418457

> <r_mmod_Bend_Energy-OPLS-2005>
154.563079833984

> <r_mmod_Torsional_Energy-OPLS-2005>
364.417388916016

> <r_mmod_Improper_Torsional_Energy-OPLS-2005>
4.12351846694946

> <r_mmod_Van_der_Waal_Energy-OPLS-2005>
155.422836303711

> <r_mmod_Electrostatic_Energy-OPLS-2005>
-280.393829345703

> <r_mmod_Solvation_Energy-OPLS-2005>
-200.911254882812

> <b_mmod_Minimization_Converged-OPLS-2005>
0

> <r_mmod_RMS_Derivative-OPLS-2005>
0.979969799518585

$$$$
76
                    3D
 Structure written by MMmdl.
169178  0  0  1  0            999 V2000
  -30.6671  -14.5041   20.5767 C   0  0  0  0  0  0
  -30.4359  -12.3269   19.4235 C   0  0  0  0  0  0
  -29.5021  -12.5143   18.2079 C   0  0  0  0  0  0
  -28.0211  -12.3714   18.6182 C   0  0  0  0  0  0
  -27.6641  -13.2039   19.8791 C   0  0  2  0  0  0
  -28.7063  -12.9718   20.9964 C   0  0  0  0  0  0
  -25.2599  -13.8148   20.5668 C   0  0  0  0  0  0
  -24.1846  -13.0436   20.9171 C   0  0  0  0  0  0
  -24.6388  -11.6898   20.8729 C   0  0  0  0  0  0
  -23.9039  -10.4292   21.0402 C   0  0  0  0  0  0
  -24.3599   -9.4206   21.9179 C   0  0  0  0  0  0
  -23.6283   -8.2234   22.0746 C   0  0  0  0  0  0
  -22.4268   -8.0275   21.3541 C   0  0  0  0  0  0
  -21.9894   -9.0244   20.4645 C   0  0  0  0  0  0
  -22.7209  -10.2128   20.3055 C   0  0  0  0  0  0
  -21.6851   -6.0725   22.5281 C   0  0  0  0  0  0
  -21.4008   -6.5632   23.8215 C   0  0  0  0  0  0
  -21.3658   -5.6783   24.9172 C   0  0  0  0  0  0
  -21.6046   -4.3040   24.7221 C   0  0  0  0  0  0
  -21.8823   -3.8133   23.4342 C   0  0  0  0  0  0
  -21.9193   -4.6956   22.3398 C   0  0  0  0  0  0
  -22.7878  -13.5250   21.1839 C   0  0  0  0  0  0
  -22.1668   -4.2141   21.0976 F   0  0  0  0  0  0
  -21.5628   -3.4518   25.7735 F   0  0  0  0  0  0
  -30.0344  -13.3020   20.4501 N   0  0  0  0  0  0
  -26.3037  -12.9302   20.3374 N   0  0  0  0  0  0
  -25.9318  -11.6468   20.5767 N   0  0  0  0  0  0
  -22.0495  -12.8260   22.0391 N   0  0  0  0  0  0
  -25.4337  -15.1861   20.4069 N   0  0  0  0  0  0
  -31.7919  -14.7054   20.1116 O   0  0  0  0  0  0
  -21.6644   -6.8865   21.4241 O   0  0  0  0  0  0
  -22.3576  -14.5554   20.6674 O   0  0  0  0  0  0
  -24.6198  -31.8669   23.2087 C   0  0  0  0  0  0
  -25.9082  -32.4820   23.8385 C   0  0  1  0  0  0
  -27.2199  -27.3992   20.1092 C   0  0  0  0  0  0
  -25.5956  -33.8617   24.2334 N   0  0  0  0  0  0
  -23.4097  -30.4912   21.5483 C   0  0  2  0  0  0
  -24.8559  -28.9593   20.1083 C   0  0  0  0  0  0
  -22.7448  -29.4659   22.4960 C   0  0  0  0  0  0
  -18.0276  -28.1391   22.8483 C   0  0  0  0  0  0
  -24.1501  -36.7288   23.2634 C   0  0  0  0  0  0
  -25.9431  -30.8229   21.3679 C   0  0  0  0  0  0
  -26.0189  -29.4565   20.7107 C   0  0  0  0  0  0
  -27.2088  -28.6847   20.7070 C   0  0  0  0  0  0
  -26.0477  -26.9406   19.4697 C   0  0  0  0  0  0
  -24.8677  -27.7040   19.4789 C   0  0  0  0  0  0
  -23.6197  -29.8285   20.1617 C   0  0  0  0  0  0
  -25.4122  -36.3107   24.0344 C   0  0  1  0  0  0
  -20.5874  -28.3679   23.1310 C   0  0  2  0  0  0
  -20.6769  -26.9410   22.5422 C   0  0  0  0  0  0
  -19.5759  -26.6385   21.5216 C   0  0  0  0  0  0
  -18.1928  -26.7945   22.1605 C   0  0  0  0  0  0
  -19.1525  -28.8851   23.2894 C   0  0  0  0  0  0
  -18.9446  -30.1452   23.8901 C   0  0  0  0  0  0
  -17.6450  -30.6592   24.0555 C   0  0  0  0  0  0
  -25.9046  -34.9474   23.5126 C   0  0  0  0  0  0
  -16.5339  -29.9085   23.6335 C   0  0  0  0  0  0
  -16.7263  -28.6507   23.0348 C   0  0  0  0  0  0
  -26.4485  -31.6608   25.0724 C   0  0  0  0  0  0
  -25.3753  -31.3786   26.1493 C   0  0  0  0  0  0
  -27.0249  -30.3020   24.6123 C   0  0  0  0  0  0
  -27.6117  -32.4286   25.7436 C   0  0  0  0  0  0
  -27.5599  -37.1793   24.8460 C   0  0  0  0  0  0
  -21.4166  -29.3041   22.3713 N   0  0  0  0  0  0
  -26.4300  -37.3800   23.9421 N   0  0  0  0  0  0
  -24.6757  -31.0751   22.0995 N   0  0  0  0  0  0
  -23.4214  -28.8197   23.3008 O   0  0  0  0  0  0
  -28.3351  -26.5810   20.1518 O   0  0  0  0  0  0
  -26.5561  -34.8935   22.4658 O   0  0  0  0  0  0
  -23.5384  -32.1405   23.7472 O   0  0  0  0  0  0
  -28.9877  -19.0639   21.7400 C   0  0  0  0  0  0
  -28.9241  -17.6572   21.6087 C   0  0  0  0  0  0
  -31.2164  -17.6205   20.8364 C   0  0  0  0  0  0
  -30.1763  -19.7754   21.4557 C   0  0  0  0  0  0
  -31.2920  -19.0318   20.9734 C   0  0  0  0  0  0
  -30.0413  -16.9067   21.1755 C   0  0  0  0  0  0
  -28.5552  -22.6714   20.6160 C   0  0  0  0  0  0
  -28.9981  -24.1209   20.3378 C   0  0  2  0  0  0
  -30.2533  -23.7084   21.1292 C   0  0  2  0  0  0
  -32.6153  -19.7045   20.6450 C   0  0  0  0  0  0
  -31.6742  -25.7737   20.8268 C   0  0  0  0  0  0
  -32.8032  -23.6233   21.4422 C   0  0  0  0  0  0
  -30.2659  -21.2758   21.8383 C   0  0  0  0  0  0
  -28.1014  -25.2982   20.7952 C   0  0  0  0  0  0
  -31.6235  -24.2440   20.6755 C   0  0  0  0  0  0
  -29.9075  -15.4748   21.1391 N   0  0  0  0  0  0
  -29.9656  -22.2937   20.7790 N   0  3  1  0  0  0
  -31.4781  -12.4453   19.1217 H   0  0  0  0  0  0
  -30.3545  -11.3123   19.8170 H   0  0  0  0  0  0
  -29.7475  -11.7895   17.4302 H   0  0  0  0  0  0
  -29.6654  -13.4988   17.7675 H   0  0  0  0  0  0
  -27.8310  -11.3152   18.8086 H   0  0  0  0  0  0
  -27.3716  -12.6511   17.7876 H   0  0  0  0  0  0
  -27.7114  -14.2538   19.5897 H   0  0  0  0  0  0
  -28.6930  -11.9277   21.3133 H   0  0  0  0  0  0
  -28.4611  -13.5444   21.8921 H   0  0  0  0  0  0
  -25.2751   -9.5688   22.4739 H   0  0  0  0  0  0
  -24.0004   -7.4626   22.7460 H   0  0  0  0  0  0
  -21.0818   -8.8748   19.8961 H   0  0  0  0  0  0
  -22.3660  -10.9656   19.6154 H   0  0  0  0  0  0
  -21.1993   -7.6145   23.9714 H   0  0  0  0  0  0
  -21.1482   -6.0510   25.9081 H   0  0  0  0  0  0
  -22.0597   -2.7598   23.2840 H   0  0  0  0  0  0
  -22.4095  -11.9935   22.4818 H   0  0  0  0  0  0
  -21.1117  -13.1313   22.2571 H   0  0  0  0  0  0
  -24.6607  -15.8367   20.4972 H   0  0  0  0  0  0
  -26.2759  -15.6187   20.0494 H   0  0  0  0  0  0
  -26.7165  -32.5521   23.1155 H   0  0  0  0  0  0
  -25.0257  -33.9778   25.0587 H   0  0  0  0  0  0
  -22.6994  -31.3094   21.4107 H   0  0  0  0  0  0
  -23.3795  -35.9587   23.3267 H   0  0  0  0  0  0
  -24.3624  -36.8910   22.2056 H   0  0  0  0  0  0
  -23.7206  -37.6472   23.6644 H   0  0  0  0  0  0
  -26.0641  -31.5913   20.6036 H   0  0  0  0  0  0
  -26.8291  -30.8711   21.9891 H   0  0  0  0  0  0
  -28.1039  -29.0520   21.1902 H   0  0  0  0  0  0
  -26.0365  -25.9805   18.9725 H   0  0  0  0  0  0
  -23.9788  -27.3232   18.9957 H   0  0  0  0  0  0
  -23.7299  -30.6047   19.4033 H   0  0  0  0  0  0
  -22.7433  -29.2501   19.8644 H   0  0  0  0  0  0
  -25.1305  -36.1962   25.0839 H   0  0  0  0  0  0
  -20.9961  -28.3238   24.1433 H   0  0  0  0  0  0
  -20.5678  -26.2284   23.3608 H   0  0  0  0  0  0
  -21.6640  -26.7465   22.1210 H   0  0  0  0  0  0
  -19.6921  -25.6290   21.1263 H   0  0  0  0  0  0
  -19.6735  -27.3176   20.6735 H   0  0  0  0  0  0
  -17.4223  -26.6710   21.3978 H   0  0  0  0  0  0
  -18.0304  -26.0079   22.8987 H   0  0  0  0  0  0
  -19.7920  -30.7266   24.2278 H   0  0  0  0  0  0
  -17.5006  -31.6271   24.5146 H   0  0  0  0  0  0
  -15.5343  -30.2981   23.7678 H   0  0  0  0  0  0
  -15.8660  -28.0836   22.7057 H   0  0  0  0  0  0
  -24.5900  -30.7144   25.7864 H   0  0  0  0  0  0
  -24.8976  -32.2969   26.4916 H   0  0  0  0  0  0
  -25.8100  -30.8979   27.0263 H   0  0  0  0  0  0
  -26.2746  -29.6816   24.1200 H   0  0  0  0  0  0
  -27.3990  -29.7256   25.4592 H   0  0  0  0  0  0
  -27.8634  -30.4290   23.9273 H   0  0  0  0  0  0
  -27.2830  -33.3647   26.1959 H   0  0  0  0  0  0
  -28.3936  -32.6711   25.0228 H   0  0  0  0  0  0
  -28.0753  -31.8410   26.5367 H   0  0  0  0  0  0
  -28.2623  -38.0086   24.7528 H   0  0  0  0  0  0
  -28.1087  -36.2625   24.6252 H   0  0  0  0  0  0
  -27.2331  -37.1402   25.8865 H   0  0  0  0  0  0
  -20.9329  -29.8777   21.6947 H   0  0  0  0  0  0
  -26.0194  -38.2879   24.1432 H   0  0  0  0  0  0
  -28.1211  -19.5895   22.1182 H   0  0  0  0  0  0
  -28.0049  -17.1535   21.8760 H   0  0  0  0  0  0
  -32.0940  -17.0880   20.5003 H   0  0  0  0  0  0
  -28.0587  -22.1683   19.7863 H   0  0  0  0  0  0
  -27.9757  -22.5757   21.5374 H   0  0  0  0  0  0
  -29.2292  -24.2039   19.2725 H   0  0  0  0  0  0
  -30.0857  -23.8709   22.1976 H   0  0  0  0  0  0
  -33.2329  -19.0704   20.0074 H   0  0  0  0  0  0
  -33.1788  -19.9043   21.5571 H   0  0  0  0  0  0
  -32.4654  -20.6391   20.1078 H   0  0  0  0  0  0
  -30.9072  -26.2621   20.2269 H   0  0  0  0  0  0
  -32.6340  -26.1773   20.5035 H   0  0  0  0  0  0
  -31.5222  -26.0738   21.8650 H   0  0  0  0  0  0
  -32.9431  -22.5753   21.1906 H   0  0  0  0  0  0
  -32.6678  -23.6967   22.5220 H   0  0  0  0  0  0
  -33.7408  -24.1216   21.1943 H   0  0  0  0  0  0
  -31.2661  -21.4536   22.2264 H   0  0  0  0  0  0
  -29.6201  -21.4521   22.6988 H   0  0  0  0  0  0
  -28.2287  -25.4545   21.8661 H   0  0  0  0  0  0
  -27.0658  -24.9756   20.6958 H   0  0  0  0  0  0
  -31.7647  -24.0284   19.6153 H   0  0  0  0  0  0
  -29.0255  -15.1261   21.4805 H   0  0  0  0  0  0
  -30.3773  -22.0503   19.8919 H   0  0  0  0  0  0
  1 25  1  0  0  0
  1 30  2  0  0  0
  1 86  1  0  0  0
  2  3  1  0  0  0
  2 25  1  0  0  0
  2 88  1  0  0  0
  2 89  1  0  0  0
  3  4  1  0  0  0
  3 90  1  0  0  0
  3 91  1  0  0  0
  4  5  1  0  0  0
  4 92  1  0  0  0
  4 93  1  0  0  0
  5  6  1  0  0  0
  5 26  1  0  0  0
  5 94  1  0  0  0
  6 25  1  0  0  0
  6 95  1  0  0  0
  6 96  1  0  0  0
  7  8  2  0  0  0
  7 26  1  0  0  0
  7 29  1  0  0  0
  8  9  1  0  0  0
  8 22  1  0  0  0
  9 10  1  0  0  0
  9 27  2  0  0  0
 10 11  2  0  0  0
 10 15  1  0  0  0
 11 12  1  0  0  0
 11 97  1  0  0  0
 12 13  2  0  0  0
 12 98  1  0  0  0
 13 14  1  0  0  0
 13 31  1  0  0  0
 14 15  2  0  0  0
 14 99  1  0  0  0
 15100  1  0  0  0
 16 17  2  0  0  0
 16 21  1  0  0  0
 16 31  1  0  0  0
 17 18  1  0  0  0
 17101  1  0  0  0
 18 19  2  0  0  0
 18102  1  0  0  0
 19 20  1  0  0  0
 19 24  1  0  0  0
 20 21  2  0  0  0
 20103  1  0  0  0
 21 23  1  0  0  0
 22 28  1  0  0  0
 22 32  2  0  0  0
 26 27  1  0  0  0
 28104  1  0  0  0
 28105  1  0  0  0
 29106  1  0  0  0
 29107  1  0  0  0
 33 34  1  0  0  0
 33 66  1  0  0  0
 33 70  2  0  0  0
 34 36  1  0  0  0
 34 59  1  0  0  0
 34108  1  0  0  0
 35 44  2  0  0  0
 35 45  1  0  0  0
 35 68  1  0  0  0
 36 56  1  0  0  0
 36109  1  0  0  0
 37 39  1  0  0  0
 37 47  1  0  0  0
 37 66  1  0  0  0
 37110  1  0  0  0
 38 43  2  0  0  0
 38 46  1  0  0  0
 38 47  1  0  0  0
 39 64  1  0  0  0
 39 67  2  0  0  0
 40 52  1  0  0  0
 40 53  2  0  0  0
 40 58  1  0  0  0
 41111  1  0  0  0
 41112  1  0  0  0
 41113  1  0  0  0
 41 48  1  0  0  0
 42 43  1  0  0  0
 42 66  1  0  0  0
 42114  1  0  0  0
 42115  1  0  0  0
 43 44  1  0  0  0
 44116  1  0  0  0
 45 46  2  0  0  0
 45117  1  0  0  0
 46118  1  0  0  0
 47119  1  0  0  0
 47120  1  0  0  0
 48 56  1  0  0  0
 48 65  1  0  0  0
 48121  1  0  0  0
 49 50  1  0  0  0
 49 53  1  0  0  0
 49 64  1  0  0  0
 49122  1  0  0  0
 50 51  1  0  0  0
 50123  1  0  0  0
 50124  1  0  0  0
 51 52  1  0  0  0
 51125  1  0  0  0
 51126  1  0  0  0
 52127  1  0  0  0
 52128  1  0  0  0
 53 54  1  0  0  0
 54 55  2  0  0  0
 54129  1  0  0  0
 55 57  1  0  0  0
 55130  1  0  0  0
 56 69  2  0  0  0
 57 58  2  0  0  0
 57131  1  0  0  0
 58132  1  0  0  0
 59 60  1  0  0  0
 59 61  1  0  0  0
 59 62  1  0  0  0
 60133  1  0  0  0
 60134  1  0  0  0
 60135  1  0  0  0
 61136  1  0  0  0
 61137  1  0  0  0
 61138  1  0  0  0
 62139  1  0  0  0
 62140  1  0  0  0
 62141  1  0  0  0
 63 65  1  0  0  0
 63142  1  0  0  0
 63143  1  0  0  0
 63144  1  0  0  0
 64145  1  0  0  0
 65146  1  0  0  0
 68 84  1  0  0  0
 71 72  2  0  0  0
 71 74  1  0  0  0
 71147  1  0  0  0
 72 76  1  0  0  0
 72148  1  0  0  0
 73 75  1  0  0  0
 73 76  2  0  0  0
 73149  1  0  0  0
 74 75  2  0  0  0
 74 83  1  0  0  0
 75 80  1  0  0  0
 76 86  1  0  0  0
 77 78  1  0  0  0
 77 87  1  0  0  0
 77150  1  0  0  0
 77151  1  0  0  0
 78 79  1  0  0  0
 78 84  1  0  0  0
 78152  1  0  0  0
 79 85  1  0  0  0
 79 87  1  0  0  0
 79153  1  0  0  0
 80154  1  0  0  0
 80155  1  0  0  0
 80156  1  0  0  0
 81157  1  0  0  0
 81158  1  0  0  0
 81159  1  0  0  0
 81 85  1  0  0  0
 82 85  1  0  0  0
 82160  1  0  0  0
 82161  1  0  0  0
 82162  1  0  0  0
 83163  1  0  0  0
 83164  1  0  0  0
 83 87  1  0  0  0
 84165  1  0  0  0
 84166  1  0  0  0
 85167  1  0  0  0
 86168  1  0  0  0
 87169  1  0  0  0
M  CHG  1  87   1
M  ISO  4   1 100  68 101  84 101  86 100
M  END
> <chiral flag>
0

> <version>
0

> <s_m_source_file>
/data/baiqing/PycharmProjects/Reinvent-master-3.2/result/LINK_invent/BTK/process_docking_weight1_custom_sum_contain_oxygen_bond_distance_aromatic_linkinvent_7_9_3/rearranged_h_0147.sdf

> <i_m_source_file_index>
77

> <r_mmod_Potential_Energy-OPLS-2005>
-100.103050231934

> <r_mmod_Stretch_Energy-OPLS-2005>
48.109619140625

> <r_mmod_Bend_Energy-OPLS-2005>
124.59619140625

> <r_mmod_Torsional_Energy-OPLS-2005>
259.934020996094

> <r_mmod_Improper_Torsional_Energy-OPLS-2005>
4.04106426239014

> <r_mmod_Van_der_Waal_Energy-OPLS-2005>
147.247955322266

> <r_mmod_Electrostatic_Energy-OPLS-2005>
-268.34033203125

> <r_mmod_Solvation_Energy-OPLS-2005>
-435.805694580078

> <b_mmod_Minimization_Converged-OPLS-2005>
0

> <r_mmod_RMS_Derivative-OPLS-2005>
2.03018736839294

$$$$
77
                    3D
 Structure written by MMmdl.
169179  0  0  1  0            999 V2000
  -30.5800  -14.5371   20.5384 C   0  0  0  0  0  0
  -30.4426  -12.3334   19.4025 C   0  0  0  0  0  0
  -29.4843  -12.4824   18.1939 C   0  0  0  0  0  0
  -28.0124  -12.2792   18.6196 C   0  0  0  0  0  0
  -27.6496  -13.1489   19.8451 C   0  0  2  0  0  0
  -28.7020  -12.9412   20.9658 C   0  0  0  0  0  0
  -25.2657  -13.8017   20.5649 C   0  0  0  0  0  0
  -24.1835  -13.0363   20.9226 C   0  0  0  0  0  0
  -24.6375  -11.6821   20.8833 C   0  0  0  0  0  0
  -23.9041  -10.4225   21.0509 C   0  0  0  0  0  0
  -24.3595   -9.4117   21.9260 C   0  0  0  0  0  0
  -23.6261   -8.2171   22.0806 C   0  0  0  0  0  0
  -22.4245   -8.0232   21.3588 C   0  0  0  0  0  0
  -21.9879   -9.0243   20.4713 C   0  0  0  0  0  0
  -22.7225  -10.2111   20.3136 C   0  0  0  0  0  0
  -21.6801   -6.0698   22.5325 C   0  0  0  0  0  0
  -21.3973   -6.5638   23.8221 C   0  0  0  0  0  0
  -21.3661   -5.6803   24.9212 C   0  0  0  0  0  0
  -21.6057   -4.3076   24.7256 C   0  0  0  0  0  0
  -21.8811   -3.8149   23.4393 C   0  0  0  0  0  0
  -21.9177   -4.6956   22.3419 C   0  0  0  0  0  0
  -22.7913  -13.5247   21.1865 C   0  0  0  0  0  0
  -22.1660   -4.2133   21.1008 F   0  0  0  0  0  0
  -21.5648   -3.4580   25.7782 F   0  0  0  0  0  0
  -30.0171  -13.2982   20.4296 N   0  0  0  0  0  0
  -26.2948  -12.9038   20.3248 N   0  0  0  0  0  0
  -25.9237  -11.6289   20.5791 N   0  0  0  0  0  0
  -22.0511  -12.8278   22.0400 N   0  0  0  0  0  0
  -25.4531  -15.1678   20.4015 N   0  0  0  0  0  0
  -31.7646  -14.7252   20.2365 O   0  0  0  0  0  0
  -21.6602   -6.8848   21.4261 O   0  0  0  0  0  0
  -22.3646  -14.5563   20.6674 O   0  0  0  0  0  0
  -24.6225  -31.8634   23.1966 C   0  0  0  0  0  0
  -25.9118  -32.4738   23.8345 C   0  0  1  0  0  0
  -27.2341  -27.3745   20.1333 C   0  0  0  0  0  0
  -25.5978  -33.8558   24.2271 N   0  0  0  0  0  0
  -23.4070  -30.4845   21.5427 C   0  0  2  0  0  0
  -24.8528  -28.9429   20.1053 C   0  0  0  0  0  0
  -22.7439  -29.4632   22.4996 C   0  0  0  0  0  0
  -18.0300  -28.1372   22.8427 C   0  0  0  0  0  0
  -24.1502  -36.7328   23.2636 C   0  0  0  0  0  0
  -25.9377  -30.8163   21.3454 C   0  0  0  0  0  0
  -26.0171  -29.4433   20.7042 C   0  0  0  0  0  0
  -27.2070  -28.6745   20.7064 C   0  0  0  0  0  0
  -26.0488  -26.9066   19.5144 C   0  0  0  0  0  0
  -24.8719  -27.6764   19.4957 C   0  0  0  0  0  0
  -23.6089  -29.8058   20.1593 C   0  0  0  0  0  0
  -25.4099  -36.3070   24.0345 C   0  0  1  0  0  0
  -20.5885  -28.3647   23.1288 C   0  0  2  0  0  0
  -20.6774  -26.9371   22.5424 C   0  0  0  0  0  0
  -19.5779  -26.6377   21.5189 C   0  0  0  0  0  0
  -18.1950  -26.7885   22.1591 C   0  0  0  0  0  0
  -19.1543  -28.8825   23.2811 C   0  0  0  0  0  0
  -18.9499  -30.1446   23.8770 C   0  0  0  0  0  0
  -17.6507  -30.6529   24.0522 C   0  0  0  0  0  0
  -25.9079  -34.9439   23.5084 C   0  0  0  0  0  0
  -16.5392  -29.9017   23.6346 C   0  0  0  0  0  0
  -16.7303  -28.6494   23.0251 C   0  0  0  0  0  0
  -26.4457  -31.6507   25.0701 C   0  0  0  0  0  0
  -25.3712  -31.3664   26.1428 C   0  0  0  0  0  0
  -27.0182  -30.2930   24.6022 C   0  0  0  0  0  0
  -27.6044  -32.4157   25.7488 C   0  0  0  0  0  0
  -27.5541  -37.1792   24.8462 C   0  0  0  0  0  0
  -21.4198  -29.2985   22.3721 N   0  0  0  0  0  0
  -26.4263  -37.3775   23.9428 N   0  0  0  0  0  0
  -24.6731  -31.0682   22.0863 N   0  0  0  0  0  0
  -23.4207  -28.8177   23.3065 O   0  0  0  0  0  0
  -28.3798  -26.5822   20.2224 O   0  0  0  0  0  0
  -26.5632  -34.8919   22.4659 O   0  0  0  0  0  0
  -23.5421  -32.1437   23.7400 O   0  0  0  0  0  0
  -27.3846  -20.1497   24.6592 C   0  0  0  0  0  0
  -26.7136  -21.2502   25.1936 C   0  0  0  0  0  0
  -27.5321  -22.6188   23.3826 C   0  0  0  0  0  0
  -28.1782  -20.2349   23.4921 C   0  0  0  0  0  0
  -26.7674  -22.4983   24.5615 C   0  0  0  0  0  0
  -28.2720  -21.5202   22.8438 C   0  0  0  0  0  0
  -29.9287  -16.9595   19.9830 C   0  0  0  0  0  0
  -28.9623  -18.9514   23.1819 C   0  0  2  0  0  0
  -29.6039  -15.7121   20.7757 C   0  0  2  0  0  0
  -29.8904  -17.0453   21.4930 C   0  0  2  0  0  0
  -28.7348  -17.8707   22.1080 C   0  0  1  0  0  0
  -28.2670  -17.6254   23.5213 C   0  0  1  0  0  0
  -25.9873  -23.6627   25.1710 C   0  0  0  0  0  0
  -28.8742  -16.6089   24.4748 C   0  0  0  0  0  0
  -29.1871  -24.2039   20.9205 C   0  0  0  0  0  0
  -28.1856  -25.1403   20.1637 C   0  0  0  0  0  0
  -28.7622  -22.7007   20.7632 C   0  0  0  0  0  0
  -29.1220  -21.7170   21.7666 O   0  0  0  0  0  0
  -31.4788  -12.4801   19.0908 H   0  0  0  0  0  0
  -30.3971  -11.3165   19.7914 H   0  0  0  0  0  0
  -29.7421  -11.7653   17.4096 H   0  0  0  0  0  0
  -29.6004  -13.4708   17.7429 H   0  0  0  0  0  0
  -27.8783  -11.2218   18.8579 H   0  0  0  0  0  0
  -27.3341  -12.4900   17.7895 H   0  0  0  0  0  0
  -27.6657  -14.1610   19.4528 H   0  0  0  0  0  0
  -28.7204  -11.8939   21.2800 H   0  0  0  0  0  0
  -28.4680  -13.5009   21.8682 H   0  0  0  0  0  0
  -25.2751   -9.5548   22.4803 H   0  0  0  0  0  0
  -23.9980   -7.4548   22.7495 H   0  0  0  0  0  0
  -21.0814   -8.8773   19.9021 H   0  0  0  0  0  0
  -22.3743  -10.9661   19.6236 H   0  0  0  0  0  0
  -21.1922   -7.6141   23.9723 H   0  0  0  0  0  0
  -21.1514   -6.0559   25.9109 H   0  0  0  0  0  0
  -22.0579   -2.7615   23.2919 H   0  0  0  0  0  0
  -22.4131  -11.9918   22.4751 H   0  0  0  0  0  0
  -21.1171  -13.1384   22.2622 H   0  0  0  0  0  0
  -24.7021  -15.8356   20.5277 H   0  0  0  0  0  0
  -26.3026  -15.5968   20.0598 H   0  0  0  0  0  0
  -26.7165  -32.5385   23.1108 H   0  0  0  0  0  0
  -25.0123  -33.9689   25.0388 H   0  0  0  0  0  0
  -22.6932  -31.2979   21.3956 H   0  0  0  0  0  0
  -23.3746  -35.9683   23.3271 H   0  0  0  0  0  0
  -24.3583  -36.8986   22.2055 H   0  0  0  0  0  0
  -23.7331  -37.6559   23.6655 H   0  0  0  0  0  0
  -26.0517  -31.5615   20.5566 H   0  0  0  0  0  0
  -26.8259  -30.8805   21.9607 H   0  0  0  0  0  0
  -28.1005  -29.0523   21.1862 H   0  0  0  0  0  0
  -26.0009  -25.9286   19.0533 H   0  0  0  0  0  0
  -23.9871  -27.2700   19.0220 H   0  0  0  0  0  0
  -23.6887  -30.5689   19.3844 H   0  0  0  0  0  0
  -22.7317  -29.2158   19.8863 H   0  0  0  0  0  0
  -25.1287  -36.1884   25.0851 H   0  0  0  0  0  0
  -20.9965  -28.3234   24.1411 H   0  0  0  0  0  0
  -20.5703  -26.2243   23.3614 H   0  0  0  0  0  0
  -21.6639  -26.7428   22.1181 H   0  0  0  0  0  0
  -19.6948  -25.6301   21.1178 H   0  0  0  0  0  0
  -19.6703  -27.3212   20.6731 H   0  0  0  0  0  0
  -17.4222  -26.6644   21.3989 H   0  0  0  0  0  0
  -18.0285  -26.0037   22.9007 H   0  0  0  0  0  0
  -19.8010  -30.7295   24.2024 H   0  0  0  0  0  0
  -17.5074  -31.6181   24.5210 H   0  0  0  0  0  0
  -15.5369  -30.2855   23.7748 H   0  0  0  0  0  0
  -15.8719  -28.0822   22.6878 H   0  0  0  0  0  0
  -24.5832  -30.7019   25.7839 H   0  0  0  0  0  0
  -24.8931  -32.2819   26.4885 H   0  0  0  0  0  0
  -25.8065  -30.8848   27.0180 H   0  0  0  0  0  0
  -26.2692  -29.6787   24.0957 H   0  0  0  0  0  0
  -27.3819  -29.7019   25.4429 H   0  0  0  0  0  0
  -27.8583  -30.4241   23.9184 H   0  0  0  0  0  0
  -27.2731  -33.3524   26.1971 H   0  0  0  0  0  0
  -28.3940  -32.6599   25.0374 H   0  0  0  0  0  0
  -28.0569  -31.8315   26.5508 H   0  0  0  0  0  0
  -28.2549  -38.0089   24.7477 H   0  0  0  0  0  0
  -28.1021  -36.2615   24.6247 H   0  0  0  0  0  0
  -27.2247  -37.1398   25.8865 H   0  0  0  0  0  0
  -20.9391  -29.8699   21.6899 H   0  0  0  0  0  0
  -26.0122  -38.2862   24.1396 H   0  0  0  0  0  0
  -27.3014  -19.2335   25.2243 H   0  0  0  0  0  0
  -26.1721  -21.0959   26.1124 H   0  0  0  0  0  0
  -27.5711  -23.5932   22.9297 H   0  0  0  0  0  0
  -29.1002  -17.3472   19.3821 H   0  0  0  0  0  0
  -30.9038  -17.0294   19.5028 H   0  0  0  0  0  0
  -29.9699  -19.0711   23.5729 H   0  0  0  0  0  0
  -28.5521  -15.4698   20.8081 H   0  0  0  0  0  0
  -30.8559  -17.1333   21.9974 H   0  0  0  0  0  0
  -27.8838  -18.0094   21.4438 H   0  0  0  0  0  0
  -27.1826  -17.6450   23.5997 H   0  0  0  0  0  0
  -25.8024  -23.4848   26.2368 H   0  0  0  0  0  0
  -25.0159  -23.7641   24.6847 H   0  0  0  0  0  0
  -26.5000  -24.6228   25.1169 H   0  0  0  0  0  0
  -29.8657  -16.9123   24.8100 H   0  0  0  0  0  0
  -28.9417  -15.6326   23.9966 H   0  0  0  0  0  0
  -28.2376  -16.5016   25.3590 H   0  0  0  0  0  0
  -30.2040  -24.3379   20.5443 H   0  0  0  0  0  0
  -29.2261  -24.4841   21.9691 H   0  0  0  0  0  0
  -28.1379  -24.8444   19.1125 H   0  0  0  0  0  0
  -27.2150  -24.9007   20.5948 H   0  0  0  0  0  0
  -29.2054  -22.3377   19.8370 H   0  0  0  0  0  0
  -27.6885  -22.6257   20.5944 H   0  0  0  0  0  0
  1 25  1  0  0  0
  1 30  2  0  0  0
  1 79  1  0  0  0
  2  3  1  0  0  0
  2 25  1  0  0  0
  2 89  1  0  0  0
  2 90  1  0  0  0
  3  4  1  0  0  0
  3 91  1  0  0  0
  3 92  1  0  0  0
  4  5  1  0  0  0
  4 93  1  0  0  0
  4 94  1  0  0  0
  5  6  1  0  0  0
  5 26  1  0  0  0
  5 95  1  0  0  0
  6 25  1  0  0  0
  6 96  1  0  0  0
  6 97  1  0  0  0
  7  8  2  0  0  0
  7 26  1  0  0  0
  7 29  1  0  0  0
  8  9  1  0  0  0
  8 22  1  0  0  0
  9 10  1  0  0  0
  9 27  2  0  0  0
 10 11  2  0  0  0
 10 15  1  0  0  0
 11 12  1  0  0  0
 11 98  1  0  0  0
 12 13  2  0  0  0
 12 99  1  0  0  0
 13 14  1  0  0  0
 13 31  1  0  0  0
 14 15  2  0  0  0
 14100  1  0  0  0
 15101  1  0  0  0
 16 17  2  0  0  0
 16 21  1  0  0  0
 16 31  1  0  0  0
 17 18  1  0  0  0
 17102  1  0  0  0
 18 19  2  0  0  0
 18103  1  0  0  0
 19 20  1  0  0  0
 19 24  1  0  0  0
 20 21  2  0  0  0
 20104  1  0  0  0
 21 23  1  0  0  0
 22 28  1  0  0  0
 22 32  2  0  0  0
 26 27  1  0  0  0
 28105  1  0  0  0
 28106  1  0  0  0
 29107  1  0  0  0
 29108  1  0  0  0
 33 34  1  0  0  0
 33 66  1  0  0  0
 33 70  2  0  0  0
 34 36  1  0  0  0
 34 59  1  0  0  0
 34109  1  0  0  0
 35 44  2  0  0  0
 35 45  1  0  0  0
 35 68  1  0  0  0
 36 56  1  0  0  0
 36110  1  0  0  0
 37 39  1  0  0  0
 37 47  1  0  0  0
 37 66  1  0  0  0
 37111  1  0  0  0
 38 43  2  0  0  0
 38 46  1  0  0  0
 38 47  1  0  0  0
 39 64  1  0  0  0
 39 67  2  0  0  0
 40 52  1  0  0  0
 40 53  2  0  0  0
 40 58  1  0  0  0
 41112  1  0  0  0
 41113  1  0  0  0
 41114  1  0  0  0
 41 48  1  0  0  0
 42 43  1  0  0  0
 42 66  1  0  0  0
 42115  1  0  0  0
 42116  1  0  0  0
 43 44  1  0  0  0
 44117  1  0  0  0
 45 46  2  0  0  0
 45118  1  0  0  0
 46119  1  0  0  0
 47120  1  0  0  0
 47121  1  0  0  0
 48 56  1  0  0  0
 48 65  1  0  0  0
 48122  1  0  0  0
 49 50  1  0  0  0
 49 53  1  0  0  0
 49 64  1  0  0  0
 49123  1  0  0  0
 50 51  1  0  0  0
 50124  1  0  0  0
 50125  1  0  0  0
 51 52  1  0  0  0
 51126  1  0  0  0
 51127  1  0  0  0
 52128  1  0  0  0
 52129  1  0  0  0
 53 54  1  0  0  0
 54 55  2  0  0  0
 54130  1  0  0  0
 55 57  1  0  0  0
 55131  1  0  0  0
 56 69  2  0  0  0
 57 58  2  0  0  0
 57132  1  0  0  0
 58133  1  0  0  0
 59 60  1  0  0  0
 59 61  1  0  0  0
 59 62  1  0  0  0
 60134  1  0  0  0
 60135  1  0  0  0
 60136  1  0  0  0
 61137  1  0  0  0
 61138  1  0  0  0
 61139  1  0  0  0
 62140  1  0  0  0
 62141  1  0  0  0
 62142  1  0  0  0
 63 65  1  0  0  0
 63143  1  0  0  0
 63144  1  0  0  0
 63145  1  0  0  0
 64146  1  0  0  0
 65147  1  0  0  0
 68 86  1  0  0  0
 71 72  2  0  0  0
 71 74  1  0  0  0
 71148  1  0  0  0
 72 75  1  0  0  0
 72149  1  0  0  0
 73 75  2  0  0  0
 73 76  1  0  0  0
 73150  1  0  0  0
 74 76  2  0  0  0
 74 78  1  0  0  0
 75 83  1  0  0  0
 76 88  1  0  0  0
 77 79  1  0  0  0
 77151  1  0  0  0
 77152  1  0  0  0
 77 80  1  0  0  0
 78 81  1  0  0  0
 78 82  1  0  0  0
 78153  1  0  0  0
 79 80  1  0  0  0
 79154  1  0  0  0
 80155  1  0  0  0
 80 81  1  0  0  0
 81 82  1  0  0  0
 81156  1  0  0  0
 82 84  1  0  0  0
 82157  1  0  0  0
 83158  1  0  0  0
 83159  1  0  0  0
 83160  1  0  0  0
 84161  1  0  0  0
 84162  1  0  0  0
 84163  1  0  0  0
 85 86  1  0  0  0
 85 87  1  0  0  0
 85164  1  0  0  0
 85165  1  0  0  0
 86166  1  0  0  0
 86167  1  0  0  0
 87 88  1  0  0  0
 87168  1  0  0  0
 87169  1  0  0  0
M  ISO  4   1 100  68 101  79 100  86 101
M  END
> <chiral flag>
0

> <version>
0

> <s_m_source_file>
/data/baiqing/PycharmProjects/Reinvent-master-3.2/result/LINK_invent/BTK/process_docking_weight1_custom_sum_contain_oxygen_bond_distance_aromatic_linkinvent_7_9_3/rearranged_h_0147.sdf

> <i_m_source_file_index>
78

> <r_mmod_Potential_Energy-OPLS-2005>
180.620361328125

> <r_mmod_Stretch_Energy-OPLS-2005>
61.3262710571289

> <r_mmod_Bend_Energy-OPLS-2005>
155.86279296875

> <r_mmod_Torsional_Energy-OPLS-2005>
277.670684814453

> <r_mmod_Improper_Torsional_Energy-OPLS-2005>
6.91889810562134

> <r_mmod_Van_der_Waal_Energy-OPLS-2005>
155.613357543945

> <r_mmod_Electrostatic_Energy-OPLS-2005>
-317.398681640625

> <r_mmod_Solvation_Energy-OPLS-2005>
-192.694702148438

> <b_mmod_Minimization_Converged-OPLS-2005>
0

> <r_mmod_RMS_Derivative-OPLS-2005>
9.71484661102295

$$$$
78
                    3D
 Structure written by MMmdl.
170180  0  0  1  0            999 V2000
  -30.7084  -14.4575   20.3590 C   0  0  0  0  0  0
  -30.3615  -12.2516   19.4141 C   0  0  0  0  0  0
  -29.4440  -12.4510   18.1962 C   0  0  0  0  0  0
  -27.9751  -12.3309   18.6273 C   0  0  0  0  0  0
  -27.6357  -13.2111   19.8614 C   0  0  2  0  0  0
  -28.6909  -13.0871   20.9840 C   0  0  0  0  0  0
  -25.2435  -13.8228   20.5642 C   0  0  0  0  0  0
  -24.1719  -13.0477   20.9247 C   0  0  0  0  0  0
  -24.6300  -11.6950   20.8841 C   0  0  0  0  0  0
  -23.9024  -10.4296   21.0439 C   0  0  0  0  0  0
  -24.3592   -9.4186   21.9201 C   0  0  0  0  0  0
  -23.6262   -8.2219   22.0756 C   0  0  0  0  0  0
  -22.4262   -8.0266   21.3505 C   0  0  0  0  0  0
  -21.9887   -9.0267   20.4625 C   0  0  0  0  0  0
  -22.7224  -10.2140   20.3044 C   0  0  0  0  0  0
  -21.6837   -6.0701   22.5230 C   0  0  0  0  0  0
  -21.4046   -6.5611   23.8171 C   0  0  0  0  0  0
  -21.3659   -5.6760   24.9138 C   0  0  0  0  0  0
  -21.6059   -4.3021   24.7195 C   0  0  0  0  0  0
  -21.8827   -3.8114   23.4317 C   0  0  0  0  0  0
  -21.9185   -4.6925   22.3354 C   0  0  0  0  0  0
  -22.7736  -13.5255   21.1863 C   0  0  0  0  0  0
  -22.1620   -4.2099   21.0932 F   0  0  0  0  0  0
  -21.5652   -3.4518   25.7720 F   0  0  0  0  0  0
  -30.0142  -13.2995   20.3806 N   0  0  0  0  0  0
  -26.2852  -12.9368   20.3414 N   0  0  0  0  0  0
  -25.9223  -11.6539   20.5934 N   0  0  0  0  0  0
  -22.0401  -12.8203   22.0408 N   0  0  0  0  0  0
  -25.4234  -15.1946   20.3855 N   0  0  0  0  0  0
  -31.9234  -14.4983   20.1465 O   0  0  0  0  0  0
  -21.6617   -6.8855   21.4201 O   0  0  0  0  0  0
  -22.3344  -14.5488   20.6644 O   0  0  0  0  0  0
  -24.6139  -31.8647   23.2075 C   0  0  0  0  0  0
  -25.9047  -32.4765   23.8359 C   0  0  1  0  0  0
  -27.2171  -27.4216   20.0746 C   0  0  0  0  0  0
  -25.5913  -33.8576   24.2296 N   0  0  0  0  0  0
  -23.4036  -30.4900   21.5494 C   0  0  2  0  0  0
  -24.8459  -28.9583   20.0972 C   0  0  0  0  0  0
  -22.7438  -29.4673   22.5001 C   0  0  0  0  0  0
  -18.0269  -28.1342   22.8407 C   0  0  0  0  0  0
  -24.1525  -36.7297   23.2651 C   0  0  0  0  0  0
  -25.9375  -30.8161   21.3743 C   0  0  0  0  0  0
  -26.0103  -29.4565   20.7048 C   0  0  0  0  0  0
  -27.2019  -28.6940   20.6920 C   0  0  0  0  0  0
  -26.0473  -26.9417   19.4579 C   0  0  0  0  0  0
  -24.8647  -27.7037   19.4651 C   0  0  0  0  0  0
  -23.6080  -29.8276   20.1606 C   0  0  0  0  0  0
  -25.4141  -36.3094   24.0344 C   0  0  1  0  0  0
  -20.5850  -28.3674   23.1277 C   0  0  2  0  0  0
  -20.6802  -26.9408   22.5377 C   0  0  0  0  0  0
  -19.5812  -26.6367   21.5166 C   0  0  0  0  0  0
  -18.1956  -26.7856   22.1536 C   0  0  0  0  0  0
  -19.1495  -28.8807   23.2825 C   0  0  0  0  0  0
  -18.9438  -30.1394   23.8861 C   0  0  0  0  0  0
  -17.6453  -30.6530   24.0545 C   0  0  0  0  0  0
  -25.9036  -34.9444   23.5114 C   0  0  0  0  0  0
  -16.5343  -29.9035   23.6320 C   0  0  0  0  0  0
  -16.7249  -28.6466   23.0297 C   0  0  0  0  0  0
  -26.4456  -31.6523   25.0676 C   0  0  0  0  0  0
  -25.3723  -31.3579   26.1419 C   0  0  0  0  0  0
  -27.0319  -30.2960   24.6071 C   0  0  0  0  0  0
  -27.6030  -32.4270   25.7388 C   0  0  0  0  0  0
  -27.5621  -37.1812   24.8469 C   0  0  0  0  0  0
  -21.4141  -29.3039   22.3729 N   0  0  0  0  0  0
  -26.4354  -37.3763   23.9375 N   0  0  0  0  0  0
  -24.6688  -31.0747   22.0985 N   0  0  0  0  0  0
  -23.4203  -28.8218   23.3060 O   0  0  0  0  0  0
  -28.3494  -26.6387   20.0722 O   0  0  0  0  0  0
  -26.5615  -34.8909   22.4681 O   0  0  0  0  0  0
  -23.5336  -32.1414   23.7477 O   0  0  0  0  0  0
  -29.0816  -20.7581   22.7515 C   0  0  0  0  0  0
  -30.6519  -18.9839   22.2048 C   0  0  0  0  0  0
  -30.1489  -19.9278   23.1321 C   0  0  0  0  0  0
  -30.0253  -18.9038   20.9309 C   0  0  0  0  0  0
  -28.6029  -20.6797   21.4317 C   0  0  0  0  0  0
  -31.8912  -16.6845   22.5014 C   0  0  0  0  0  0
  -32.0257  -17.3803   23.8153 C   0  0  0  0  0  0
  -30.2316  -18.4710   18.3058 C   0  0  0  0  0  0
  -29.4430  -17.1539   18.2747 C   0  0  0  0  0  0
  -31.8893  -18.1868   22.5341 C   0  0  0  0  0  0
  -30.6546  -18.1186   19.7603 C   0  0  2  0  0  0
  -30.4780  -16.6443   19.2749 C   0  0  2  0  0  0
  -30.8203  -20.1554   24.4754 C   0  0  0  0  0  0
  -28.0429  -24.1084   20.2786 C   0  0  0  0  0  0
  -28.2745  -25.4943   20.9436 C   0  0  0  0  0  0
  -28.0118  -22.9919   21.3508 C   0  0  0  0  0  0
  -28.9963  -19.7143   20.5843 N   0  0  0  0  0  0
  -29.9736  -15.5741   20.1587 N   0  0  0  0  0  0
  -27.8421  -21.6640   20.8342 O   0  0  0  0  0  0
  -31.4018  -12.2911   19.0888 H   0  0  0  0  0  0
  -30.1993  -11.2689   19.8608 H   0  0  0  0  0  0
  -29.6616  -11.7028   17.4308 H   0  0  0  0  0  0
  -29.6191  -13.4319   17.7460 H   0  0  0  0  0  0
  -27.7970  -11.2802   18.8607 H   0  0  0  0  0  0
  -27.3073  -12.5679   17.7991 H   0  0  0  0  0  0
  -27.6519  -14.2405   19.5063 H   0  0  0  0  0  0
  -28.6473  -12.1054   21.4537 H   0  0  0  0  0  0
  -28.4932  -13.8187   21.7695 H   0  0  0  0  0  0
  -25.2782   -9.5606   22.4740 H   0  0  0  0  0  0
  -23.9972   -7.4580   22.7444 H   0  0  0  0  0  0
  -21.0861   -8.8839   19.8866 H   0  0  0  0  0  0
  -22.3788  -10.9712   19.6123 H   0  0  0  0  0  0
  -21.2050   -7.6122   23.9655 H   0  0  0  0  0  0
  -21.1488   -6.0494   25.9032 H   0  0  0  0  0  0
  -22.0604   -2.7585   23.2824 H   0  0  0  0  0  0
  -22.4114  -11.9948   22.4861 H   0  0  0  0  0  0
  -21.0977  -13.1140   22.2607 H   0  0  0  0  0  0
  -24.6798  -15.8792   20.4814 H   0  0  0  0  0  0
  -26.2903  -15.6029   20.0600 H   0  0  0  0  0  0
  -26.7126  -32.5393   23.1125 H   0  0  0  0  0  0
  -25.0057  -33.9686   25.0449 H   0  0  0  0  0  0
  -22.6915  -31.3049   21.4164 H   0  0  0  0  0  0
  -23.3769  -35.9638   23.3293 H   0  0  0  0  0  0
  -24.3629  -36.8906   22.2067 H   0  0  0  0  0  0
  -23.7296  -37.6520   23.6655 H   0  0  0  0  0  0
  -26.0831  -31.5959   20.6269 H   0  0  0  0  0  0
  -26.8159  -30.8354   22.0080 H   0  0  0  0  0  0
  -28.1059  -29.0657   21.1595 H   0  0  0  0  0  0
  -26.0533  -25.9864   18.9547 H   0  0  0  0  0  0
  -23.9824  -27.3236   18.9676 H   0  0  0  0  0  0
  -23.7086  -30.6065   19.4037 H   0  0  0  0  0  0
  -22.7272  -29.2448   19.8804 H   0  0  0  0  0  0
  -25.1334  -36.1982   25.0854 H   0  0  0  0  0  0
  -20.9884  -28.3253   24.1411 H   0  0  0  0  0  0
  -20.5739  -26.2269   23.3568 H   0  0  0  0  0  0
  -21.6684  -26.7480   22.1168 H   0  0  0  0  0  0
  -19.7005  -25.6290   21.1168 H   0  0  0  0  0  0
  -19.6759  -27.3191   20.6721 H   0  0  0  0  0  0
  -17.4251  -26.6545   21.3926 H   0  0  0  0  0  0
  -18.0377  -25.9986   22.8940 H   0  0  0  0  0  0
  -19.7932  -30.7158   24.2257 H   0  0  0  0  0  0
  -17.5028  -31.6208   24.5139 H   0  0  0  0  0  0
  -15.5329  -30.2927   23.7703 H   0  0  0  0  0  0
  -15.8628  -28.0810   22.7013 H   0  0  0  0  0  0
  -24.5944  -30.6880   25.7711 H   0  0  0  0  0  0
  -24.8805  -32.2687   26.4856 H   0  0  0  0  0  0
  -25.8086  -30.8752   27.0170 H   0  0  0  0  0  0
  -26.2882  -29.6617   24.1226 H   0  0  0  0  0  0
  -27.4186  -29.7333   25.4564 H   0  0  0  0  0  0
  -27.8661  -30.4196   23.9144 H   0  0  0  0  0  0
  -27.2690  -33.3605   26.1929 H   0  0  0  0  0  0
  -28.3805  -32.6743   25.0139 H   0  0  0  0  0  0
  -28.0726  -31.8394   26.5275 H   0  0  0  0  0  0
  -28.2658  -38.0110   24.7544 H   0  0  0  0  0  0
  -28.1135  -36.2653   24.6304 H   0  0  0  0  0  0
  -27.2313  -37.1445   25.8868 H   0  0  0  0  0  0
  -20.9333  -29.8653   21.6829 H   0  0  0  0  0  0
  -26.0247  -38.2855   24.1308 H   0  0  0  0  0  0
  -28.7188  -21.5141   23.4346 H   0  0  0  0  0  0
  -30.9408  -16.1842   22.3743 H   0  0  0  0  0  0
  -32.7732  -16.1850   22.0941 H   0  0  0  0  0  0
  -33.0058  -17.3249   24.2853 H   0  0  0  0  0  0
  -31.1704  -17.2955   24.4838 H   0  0  0  0  0  0
  -29.6438  -19.3792   18.1575 H   0  0  0  0  0  0
  -31.0707  -18.4626   17.6072 H   0  0  0  0  0  0
  -29.4384  -16.6434   17.3106 H   0  0  0  0  0  0
  -28.4387  -17.2299   18.6956 H   0  0  0  0  0  0
  -32.7801  -18.7134   22.1989 H   0  0  0  0  0  0
  -31.7230  -18.3281   19.8529 H   0  0  0  0  0  0
  -31.3626  -16.3483   18.7052 H   0  0  0  0  0  0
  -30.6253  -21.1534   24.8664 H   0  0  0  0  0  0
  -31.9066  -20.0684   24.3837 H   0  0  0  0  0  0
  -30.4728  -19.4264   25.2087 H   0  0  0  0  0  0
  -28.8478  -23.8999   19.5753 H   0  0  0  0  0  0
  -27.1167  -24.1015   19.7082 H   0  0  0  0  0  0
  -29.2252  -25.4568   21.4790 H   0  0  0  0  0  0
  -27.5090  -25.6442   21.7107 H   0  0  0  0  0  0
  -28.9517  -23.0947   21.8967 H   0  0  0  0  0  0
  -27.2089  -23.1697   22.0654 H   0  0  0  0  0  0
  -28.9797  -15.5300   20.3166 H   0  0  0  0  0  0
  1 25  1  0  0  0
  1 30  2  0  0  0
  1 88  1  0  0  0
  2  3  1  0  0  0
  2 25  1  0  0  0
  2 90  1  0  0  0
  2 91  1  0  0  0
  3  4  1  0  0  0
  3 92  1  0  0  0
  3 93  1  0  0  0
  4  5  1  0  0  0
  4 94  1  0  0  0
  4 95  1  0  0  0
  5  6  1  0  0  0
  5 26  1  0  0  0
  5 96  1  0  0  0
  6 25  1  0  0  0
  6 97  1  0  0  0
  6 98  1  0  0  0
  7  8  2  0  0  0
  7 26  1  0  0  0
  7 29  1  0  0  0
  8  9  1  0  0  0
  8 22  1  0  0  0
  9 10  1  0  0  0
  9 27  2  0  0  0
 10 11  2  0  0  0
 10 15  1  0  0  0
 11 12  1  0  0  0
 11 99  1  0  0  0
 12 13  2  0  0  0
 12100  1  0  0  0
 13 14  1  0  0  0
 13 31  1  0  0  0
 14 15  2  0  0  0
 14101  1  0  0  0
 15102  1  0  0  0
 16 17  2  0  0  0
 16 21  1  0  0  0
 16 31  1  0  0  0
 17 18  1  0  0  0
 17103  1  0  0  0
 18 19  2  0  0  0
 18104  1  0  0  0
 19 20  1  0  0  0
 19 24  1  0  0  0
 20 21  2  0  0  0
 20105  1  0  0  0
 21 23  1  0  0  0
 22 28  1  0  0  0
 22 32  2  0  0  0
 26 27  1  0  0  0
 28106  1  0  0  0
 28107  1  0  0  0
 29108  1  0  0  0
 29109  1  0  0  0
 33 34  1  0  0  0
 33 66  1  0  0  0
 33 70  2  0  0  0
 34 36  1  0  0  0
 34 59  1  0  0  0
 34110  1  0  0  0
 35 44  2  0  0  0
 35 45  1  0  0  0
 35 68  1  0  0  0
 36 56  1  0  0  0
 36111  1  0  0  0
 37 39  1  0  0  0
 37 47  1  0  0  0
 37 66  1  0  0  0
 37112  1  0  0  0
 38 43  2  0  0  0
 38 46  1  0  0  0
 38 47  1  0  0  0
 39 64  1  0  0  0
 39 67  2  0  0  0
 40 52  1  0  0  0
 40 53  2  0  0  0
 40 58  1  0  0  0
 41113  1  0  0  0
 41114  1  0  0  0
 41115  1  0  0  0
 41 48  1  0  0  0
 42 43  1  0  0  0
 42 66  1  0  0  0
 42116  1  0  0  0
 42117  1  0  0  0
 43 44  1  0  0  0
 44118  1  0  0  0
 45 46  2  0  0  0
 45119  1  0  0  0
 46120  1  0  0  0
 47121  1  0  0  0
 47122  1  0  0  0
 48 56  1  0  0  0
 48 65  1  0  0  0
 48123  1  0  0  0
 49 50  1  0  0  0
 49 53  1  0  0  0
 49 64  1  0  0  0
 49124  1  0  0  0
 50 51  1  0  0  0
 50125  1  0  0  0
 50126  1  0  0  0
 51 52  1  0  0  0
 51127  1  0  0  0
 51128  1  0  0  0
 52129  1  0  0  0
 52130  1  0  0  0
 53 54  1  0  0  0
 54 55  2  0  0  0
 54131  1  0  0  0
 55 57  1  0  0  0
 55132  1  0  0  0
 56 69  2  0  0  0
 57 58  2  0  0  0
 57133  1  0  0  0
 58134  1  0  0  0
 59 60  1  0  0  0
 59 61  1  0  0  0
 59 62  1  0  0  0
 60135  1  0  0  0
 60136  1  0  0  0
 60137  1  0  0  0
 61138  1  0  0  0
 61139  1  0  0  0
 61140  1  0  0  0
 62141  1  0  0  0
 62142  1  0  0  0
 62143  1  0  0  0
 63 65  1  0  0  0
 63144  1  0  0  0
 63145  1  0  0  0
 63146  1  0  0  0
 64147  1  0  0  0
 65148  1  0  0  0
 68 85  1  0  0  0
 71 73  2  0  0  0
 71 75  1  0  0  0
 71149  1  0  0  0
 72 73  1  0  0  0
 72 74  2  0  0  0
 72 80  1  0  0  0
 73 83  1  0  0  0
 74 87  1  0  0  0
 74 81  1  0  0  0
 75 87  2  0  0  0
 75 89  1  0  0  0
 76 77  1  0  0  0
 76 80  1  0  0  0
 76150  1  0  0  0
 76151  1  0  0  0
 77 80  1  0  0  0
 77152  1  0  0  0
 77153  1  0  0  0
 78 79  1  0  0  0
 78 81  1  0  0  0
 78154  1  0  0  0
 78155  1  0  0  0
 79 82  1  0  0  0
 79156  1  0  0  0
 79157  1  0  0  0
 80158  1  0  0  0
 81 82  1  0  0  0
 81159  1  0  0  0
 82 88  1  0  0  0
 82160  1  0  0  0
 83161  1  0  0  0
 83162  1  0  0  0
 83163  1  0  0  0
 84 85  1  0  0  0
 84 86  1  0  0  0
 84164  1  0  0  0
 84165  1  0  0  0
 85166  1  0  0  0
 85167  1  0  0  0
 86 89  1  0  0  0
 86168  1  0  0  0
 86169  1  0  0  0
 88170  1  0  0  0
M  ISO  4   1 100  68 101  85 101  88 100
M  END
> <chiral flag>
0

> <version>
0

> <s_m_source_file>
/data/baiqing/PycharmProjects/Reinvent-master-3.2/result/LINK_invent/BTK/process_docking_weight1_custom_sum_contain_oxygen_bond_distance_aromatic_linkinvent_7_9_3/rearranged_h_0147.sdf

> <i_m_source_file_index>
79

> <r_mmod_Potential_Energy-OPLS-2005>
26.7583255767822

> <r_mmod_Stretch_Energy-OPLS-2005>
40.1690979003906

> <r_mmod_Bend_Energy-OPLS-2005>
148.845977783203

> <r_mmod_Torsional_Energy-OPLS-2005>
326.2275390625

> <r_mmod_Improper_Torsional_Energy-OPLS-2005>
16.1414031982422

> <r_mmod_Van_der_Waal_Energy-OPLS-2005>
171.582626342773

> <r_mmod_Electrostatic_Energy-OPLS-2005>
-496.221771240234

> <r_mmod_Solvation_Energy-OPLS-2005>
-212.344650268555

> <b_mmod_Minimization_Converged-OPLS-2005>
0

> <r_mmod_RMS_Derivative-OPLS-2005>
7.52287149429321

$$$$
79
                    3D
 Structure written by MMmdl.
166176  0  0  1  0            999 V2000
  -30.5002  -14.9316   20.3857 C   0  0  0  0  0  0
  -30.4498  -12.5649   19.4871 C   0  0  0  0  0  0
  -29.5227  -12.5276   18.2491 C   0  0  0  0  0  0
  -28.0540  -12.3164   18.6667 C   0  0  0  0  0  0
  -27.6336  -13.2378   19.8420 C   0  0  2  0  0  0
  -28.6817  -13.2363   20.9760 C   0  0  0  0  0  0
  -25.2488  -13.8193   20.5712 C   0  0  0  0  0  0
  -24.1787  -13.0439   20.9240 C   0  0  0  0  0  0
  -24.6388  -11.6916   20.8776 C   0  0  0  0  0  0
  -23.9067  -10.4298   21.0440 C   0  0  0  0  0  0
  -24.3617   -9.4213   21.9222 C   0  0  0  0  0  0
  -23.6284   -8.2252   22.0785 C   0  0  0  0  0  0
  -22.4272   -8.0297   21.3560 C   0  0  0  0  0  0
  -21.9911   -9.0279   20.4667 C   0  0  0  0  0  0
  -22.7253  -10.2148   20.3084 C   0  0  0  0  0  0
  -21.6849   -6.0737   22.5288 C   0  0  0  0  0  0
  -21.4026   -6.5643   23.8220 C   0  0  0  0  0  0
  -21.3663   -5.6801   24.9181 C   0  0  0  0  0  0
  -21.6044   -4.3061   24.7229 C   0  0  0  0  0  0
  -21.8807   -3.8149   23.4349 C   0  0  0  0  0  0
  -21.9181   -4.6968   22.3401 C   0  0  0  0  0  0
  -22.7813  -13.5245   21.1872 C   0  0  0  0  0  0
  -22.1652   -4.2154   21.0975 F   0  0  0  0  0  0
  -21.5617   -3.4542   25.7738 F   0  0  0  0  0  0
  -29.9598  -13.6501   20.3788 N   0  0  0  0  0  0
  -26.2908  -12.9398   20.3259 N   0  0  0  0  0  0
  -25.9312  -11.6541   20.5741 N   0  0  0  0  0  0
  -22.0414  -12.8287   22.0427 N   0  0  0  0  0  0
  -25.4169  -15.1917   20.4117 N   0  0  0  0  0  0
  -31.7070  -15.0542   20.1369 O   0  0  0  0  0  0
  -21.6640   -6.8902   21.4255 O   0  0  0  0  0  0
  -22.3537  -14.5549   20.6703 O   0  0  0  0  0  0
  -24.6420  -31.8481   23.1902 C   0  0  0  0  0  0
  -25.9203  -32.4709   23.8291 C   0  0  1  0  0  0
  -27.2201  -27.1590   20.1486 C   0  0  0  0  0  0
  -25.5967  -33.8511   24.2232 N   0  0  0  0  0  0
  -23.4449  -30.4698   21.5350 C   0  0  2  0  0  0
  -24.8947  -28.9021   20.1050 C   0  0  0  0  0  0
  -22.7578  -29.4575   22.4852 C   0  0  0  0  0  0
  -18.0306  -28.1401   22.8468 C   0  0  0  0  0  0
  -24.1493  -36.7271   23.2641 C   0  0  0  0  0  0
  -25.9989  -30.7294   21.3840 C   0  0  0  0  0  0
  -26.0704  -29.3418   20.7271 C   0  0  0  0  0  0
  -27.2336  -28.4871   20.7331 C   0  0  0  0  0  0
  -26.0215  -26.8212   19.4801 C   0  0  0  0  0  0
  -24.8836  -27.6556   19.4620 C   0  0  0  0  0  0
  -23.6717  -29.8052   20.1502 C   0  0  0  0  0  0
  -25.4116  -36.3047   24.0330 C   0  0  1  0  0  0
  -20.5920  -28.3734   23.1230 C   0  0  2  0  0  0
  -20.6785  -26.9440   22.5390 C   0  0  0  0  0  0
  -19.5750  -26.6385   21.5203 C   0  0  0  0  0  0
  -18.1939  -26.7939   22.1618 C   0  0  0  0  0  0
  -19.1563  -28.8881   23.2844 C   0  0  0  0  0  0
  -18.9478  -30.1470   23.8890 C   0  0  0  0  0  0
  -17.6472  -30.6585   24.0565 C   0  0  0  0  0  0
  -25.9069  -34.9415   23.5089 C   0  0  0  0  0  0
  -16.5366  -29.9088   23.6311 C   0  0  0  0  0  0
  -16.7290  -28.6502   23.0339 C   0  0  0  0  0  0
  -26.4520  -31.6534   25.0700 C   0  0  0  0  0  0
  -25.3725  -31.3690   26.1407 C   0  0  0  0  0  0
  -27.0369  -30.2943   24.6216 C   0  0  0  0  0  0
  -27.6088  -32.4257   25.7467 C   0  0  0  0  0  0
  -27.5582  -37.1794   24.8464 C   0  0  0  0  0  0
  -21.4269  -29.3073   22.3623 N   0  0  0  0  0  0
  -26.4287  -37.3755   23.9413 N   0  0  0  0  0  0
  -24.7156  -31.0366   22.0925 N   0  0  0  0  0  0
  -23.4231  -28.8112   23.2988 O   0  0  0  0  0  0
  -28.2740  -26.1806   20.2310 O   0  0  0  0  0  0
  -26.5651  -34.8914   22.4664 O   0  0  0  0  0  0
  -23.5546  -32.1349   23.7137 O   0  0  0  0  0  0
  -28.3973  -19.5585   19.2362 C   0  0  0  0  0  0
  -29.8996  -19.9811   20.9915 C   0  0  0  0  0  0
  -28.6702  -18.1398   19.2905 C   0  0  0  0  0  0
  -29.5763  -17.5414   20.2338 C   0  0  0  0  0  0
  -28.9629  -20.5672   20.0719 C   0  0  0  0  0  0
  -30.1876  -18.5367   21.0821 C   0  0  0  0  0  0
  -28.5807  -16.3066   17.3792 C   0  0  0  0  0  0
  -28.0137  -17.5928   16.8299 C   0  0  0  0  0  0
  -31.1605  -17.7026   25.6004 C   0  0  0  0  0  0
  -31.0068  -16.5903   24.5949 C   0  0  0  0  0  0
  -27.9096  -17.2932   18.3099 C   0  0  0  0  0  0
  -31.8149  -17.8217   24.2421 C   0  0  0  0  0  0
  -31.2946  -18.7795   23.1928 C   0  0  0  0  0  0
  -27.9778  -24.6659   20.0589 C   0  0  0  0  0  0
  -28.9321  -23.3157   20.3826 C   0  0  0  0  0  0
  -29.6020  -16.0232   20.4489 N   0  0  0  0  0  0
  -31.0380  -18.0142   22.0266 O   0  0  0  0  0  0
  -28.4783  -21.9384   19.8909 O   0  0  0  0  0  0
  -31.4842  -12.7319   19.1804 H   0  0  0  0  0  0
  -30.4378  -11.6072   20.0071 H   0  0  0  0  0  0
  -29.8314  -11.7394   17.5620 H   0  0  0  0  0  0
  -29.6193  -13.4636   17.6993 H   0  0  0  0  0  0
  -27.9404  -11.2729   18.9612 H   0  0  0  0  0  0
  -27.3941  -12.4670   17.8113 H   0  0  0  0  0  0
  -27.5996  -14.2434   19.4253 H   0  0  0  0  0  0
  -28.7608  -12.2482   21.4308 H   0  0  0  0  0  0
  -28.3910  -13.9209   21.7759 H   0  0  0  0  0  0
  -25.2745   -9.5696   22.4811 H   0  0  0  0  0  0
  -23.9971   -7.4642   22.7519 H   0  0  0  0  0  0
  -21.0833   -8.8826   19.8969 H   0  0  0  0  0  0
  -22.3724  -10.9703   19.6200 H   0  0  0  0  0  0
  -21.2044   -7.6154   23.9734 H   0  0  0  0  0  0
  -21.1498   -6.0526   25.9088 H   0  0  0  0  0  0
  -22.0573   -2.7608   23.2846 H   0  0  0  0  0  0
  -22.3938  -11.9902   22.4805 H   0  0  0  0  0  0
  -21.1053  -13.1396   22.2610 H   0  0  0  0  0  0
  -24.6535  -15.8465   20.5425 H   0  0  0  0  0  0
  -26.2493  -15.6288   20.0418 H   0  0  0  0  0  0
  -26.7278  -32.5333   23.1037 H   0  0  0  0  0  0
  -25.0114  -33.9617   25.0381 H   0  0  0  0  0  0
  -22.7449  -31.2947   21.3852 H   0  0  0  0  0  0
  -23.3757  -35.9599   23.3273 H   0  0  0  0  0  0
  -24.3596  -36.8916   22.2060 H   0  0  0  0  0  0
  -23.7226  -37.6461   23.6679 H   0  0  0  0  0  0
  -26.1514  -31.4820   20.6087 H   0  0  0  0  0  0
  -26.8719  -30.7836   22.0222 H   0  0  0  0  0  0
  -28.1264  -28.8226   21.2416 H   0  0  0  0  0  0
  -25.9283  -25.8715   18.9763 H   0  0  0  0  0  0
  -23.9927  -27.3169   18.9505 H   0  0  0  0  0  0
  -23.8195  -30.5875   19.4047 H   0  0  0  0  0  0
  -22.7826  -29.2594   19.8281 H   0  0  0  0  0  0
  -25.1282  -36.1909   25.0820 H   0  0  0  0  0  0
  -21.0003  -28.3324   24.1357 H   0  0  0  0  0  0
  -20.5669  -26.2364   23.3618 H   0  0  0  0  0  0
  -21.6657  -26.7440   22.1202 H   0  0  0  0  0  0
  -19.6916  -25.6289   21.1247 H   0  0  0  0  0  0
  -19.6664  -27.3183   20.6722 H   0  0  0  0  0  0
  -17.4204  -26.6680   21.4029 H   0  0  0  0  0  0
  -18.0339  -26.0086   22.9016 H   0  0  0  0  0  0
  -19.7952  -30.7284   24.2272 H   0  0  0  0  0  0
  -17.5021  -31.6258   24.5176 H   0  0  0  0  0  0
  -15.5370  -30.2993   23.7613 H   0  0  0  0  0  0
  -15.8691  -28.0813   22.7061 H   0  0  0  0  0  0
  -24.5935  -30.6996   25.7737 H   0  0  0  0  0  0
  -24.8873  -32.2845   26.4797 H   0  0  0  0  0  0
  -25.8031  -30.8903   27.0207 H   0  0  0  0  0  0
  -26.2953  -29.6663   24.1267 H   0  0  0  0  0  0
  -27.4069  -29.7229   25.4737 H   0  0  0  0  0  0
  -27.8827  -30.4197   23.9455 H   0  0  0  0  0  0
  -27.2744  -33.3610   26.1965 H   0  0  0  0  0  0
  -28.3937  -32.6702   25.0298 H   0  0  0  0  0  0
  -28.0700  -31.8407   26.5434 H   0  0  0  0  0  0
  -28.2584  -38.0109   24.7528 H   0  0  0  0  0  0
  -28.1095  -36.2640   24.6256 H   0  0  0  0  0  0
  -27.2316  -37.1401   25.8872 H   0  0  0  0  0  0
  -20.9489  -29.8860   21.6861 H   0  0  0  0  0  0
  -26.0166  -38.2838   24.1383 H   0  0  0  0  0  0
  -27.6771  -19.8963   18.5031 H   0  0  0  0  0  0
  -30.3813  -20.6644   21.6740 H   0  0  0  0  0  0
  -29.6633  -16.2083   17.4285 H   0  0  0  0  0  0
  -28.0387  -15.3961   17.1299 H   0  0  0  0  0  0
  -27.1062  -17.5182   16.2319 H   0  0  0  0  0  0
  -28.7212  -18.3577   16.5135 H   0  0  0  0  0  0
  -31.8094  -17.5259   26.4551 H   0  0  0  0  0  0
  -30.2782  -18.3062   25.8047 H   0  0  0  0  0  0
  -30.0280  -16.4740   24.1312 H   0  0  0  0  0  0
  -31.5493  -15.6648   24.7770 H   0  0  0  0  0  0
  -26.9152  -17.0621   18.6864 H   0  0  0  0  0  0
  -32.8896  -17.6573   24.1837 H   0  0  0  0  0  0
  -32.0333  -19.5611   23.0024 H   0  0  0  0  0  0
  -30.3798  -19.2455   23.5626 H   0  0  0  0  0  0
  -27.0502  -24.4885   20.6070 H   0  0  0  0  0  0
  -27.7141  -24.5639   19.0065 H   0  0  0  0  0  0
  -29.1050  -23.2541   21.4572 H   0  0  0  0  0  0
  -29.9102  -23.4941   19.9368 H   0  0  0  0  0  0
  -28.6676  -15.6551   20.5211 H   0  0  0  0  0  0
  1 25  1  0  0  0
  1 30  2  0  0  0
  1 86  1  0  0  0
  2  3  1  0  0  0
  2 25  1  0  0  0
  2 89  1  0  0  0
  2 90  1  0  0  0
  3  4  1  0  0  0
  3 91  1  0  0  0
  3 92  1  0  0  0
  4  5  1  0  0  0
  4 93  1  0  0  0
  4 94  1  0  0  0
  5  6  1  0  0  0
  5 26  1  0  0  0
  5 95  1  0  0  0
  6 25  1  0  0  0
  6 96  1  0  0  0
  6 97  1  0  0  0
  7  8  2  0  0  0
  7 26  1  0  0  0
  7 29  1  0  0  0
  8  9  1  0  0  0
  8 22  1  0  0  0
  9 10  1  0  0  0
  9 27  2  0  0  0
 10 11  2  0  0  0
 10 15  1  0  0  0
 11 12  1  0  0  0
 11 98  1  0  0  0
 12 13  2  0  0  0
 12 99  1  0  0  0
 13 14  1  0  0  0
 13 31  1  0  0  0
 14 15  2  0  0  0
 14100  1  0  0  0
 15101  1  0  0  0
 16 17  2  0  0  0
 16 21  1  0  0  0
 16 31  1  0  0  0
 17 18  1  0  0  0
 17102  1  0  0  0
 18 19  2  0  0  0
 18103  1  0  0  0
 19 20  1  0  0  0
 19 24  1  0  0  0
 20 21  2  0  0  0
 20104  1  0  0  0
 21 23  1  0  0  0
 22 28  1  0  0  0
 22 32  2  0  0  0
 26 27  1  0  0  0
 28105  1  0  0  0
 28106  1  0  0  0
 29107  1  0  0  0
 29108  1  0  0  0
 33 34  1  0  0  0
 33 66  1  0  0  0
 33 70  2  0  0  0
 34 36  1  0  0  0
 34 59  1  0  0  0
 34109  1  0  0  0
 35 44  2  0  0  0
 35 45  1  0  0  0
 35 68  1  0  0  0
 36 56  1  0  0  0
 36110  1  0  0  0
 37 39  1  0  0  0
 37 47  1  0  0  0
 37 66  1  0  0  0
 37111  1  0  0  0
 38 43  2  0  0  0
 38 46  1  0  0  0
 38 47  1  0  0  0
 39 64  1  0  0  0
 39 67  2  0  0  0
 40 52  1  0  0  0
 40 53  2  0  0  0
 40 58  1  0  0  0
 41112  1  0  0  0
 41113  1  0  0  0
 41114  1  0  0  0
 41 48  1  0  0  0
 42 43  1  0  0  0
 42 66  1  0  0  0
 42115  1  0  0  0
 42116  1  0  0  0
 43 44  1  0  0  0
 44117  1  0  0  0
 45 46  2  0  0  0
 45118  1  0  0  0
 46119  1  0  0  0
 47120  1  0  0  0
 47121  1  0  0  0
 48 56  1  0  0  0
 48 65  1  0  0  0
 48122  1  0  0  0
 49 50  1  0  0  0
 49 53  1  0  0  0
 49 64  1  0  0  0
 49123  1  0  0  0
 50 51  1  0  0  0
 50124  1  0  0  0
 50125  1  0  0  0
 51 52  1  0  0  0
 51126  1  0  0  0
 51127  1  0  0  0
 52128  1  0  0  0
 52129  1  0  0  0
 53 54  1  0  0  0
 54 55  2  0  0  0
 54130  1  0  0  0
 55 57  1  0  0  0
 55131  1  0  0  0
 56 69  2  0  0  0
 57 58  2  0  0  0
 57132  1  0  0  0
 58133  1  0  0  0
 59 60  1  0  0  0
 59 61  1  0  0  0
 59 62  1  0  0  0
 60134  1  0  0  0
 60135  1  0  0  0
 60136  1  0  0  0
 61137  1  0  0  0
 61138  1  0  0  0
 61139  1  0  0  0
 62140  1  0  0  0
 62141  1  0  0  0
 62142  1  0  0  0
 63 65  1  0  0  0
 63143  1  0  0  0
 63144  1  0  0  0
 63145  1  0  0  0
 64146  1  0  0  0
 65147  1  0  0  0
 68 84  1  0  0  0
 71 73  2  0  0  0
 71 75  1  0  0  0
 71148  1  0  0  0
 72 75  2  0  0  0
 72 76  1  0  0  0
 72149  1  0  0  0
 73 74  1  0  0  0
 73 81  1  0  0  0
 74 76  2  0  0  0
 74 86  1  0  0  0
 75 88  1  0  0  0
 76 87  1  0  0  0
 77 78  1  0  0  0
 77 81  1  0  0  0
 77150  1  0  0  0
 77151  1  0  0  0
 78 81  1  0  0  0
 78152  1  0  0  0
 78153  1  0  0  0
 79 80  1  0  0  0
 79 82  1  0  0  0
 79154  1  0  0  0
 79155  1  0  0  0
 80 82  1  0  0  0
 80156  1  0  0  0
 80157  1  0  0  0
 81158  1  0  0  0
 82 83  1  0  0  0
 82159  1  0  0  0
 83 87  1  0  0  0
 83160  1  0  0  0
 83161  1  0  0  0
 84 85  1  0  0  0
 84162  1  0  0  0
 84163  1  0  0  0
 85 88  1  0  0  0
 85164  1  0  0  0
 85165  1  0  0  0
 86166  1  0  0  0
M  ISO  4   1 100  68 101  84 101  86 100
M  END
> <chiral flag>
0

> <version>
0

> <s_m_source_file>
/data/baiqing/PycharmProjects/Reinvent-master-3.2/result/LINK_invent/BTK/process_docking_weight1_custom_sum_contain_oxygen_bond_distance_aromatic_linkinvent_7_9_3/rearranged_h_0147.sdf

> <i_m_source_file_index>
80

> <r_mmod_Potential_Energy-OPLS-2005>
522.589477539062

> <r_mmod_Stretch_Energy-OPLS-2005>
217.374557495117

> <r_mmod_Bend_Energy-OPLS-2005>
293.980926513672

> <r_mmod_Torsional_Energy-OPLS-2005>
314.252563476562

> <r_mmod_Improper_Torsional_Energy-OPLS-2005>
7.72188758850098

> <r_mmod_Van_der_Waal_Energy-OPLS-2005>
118.860412597656

> <r_mmod_Electrostatic_Energy-OPLS-2005>
-390.883178710938

> <r_mmod_Solvation_Energy-OPLS-2005>
-220.134246826172

> <b_mmod_Minimization_Converged-OPLS-2005>
0

> <r_mmod_RMS_Derivative-OPLS-2005>
2.85658669471741

$$$$
80
                    3D
 Structure written by MMmdl.
166176  0  0  1  0            999 V2000
  -30.5973  -14.7504   20.4738 C   0  0  0  0  0  0
  -30.4358  -12.4637   19.4591 C   0  0  0  0  0  0
  -29.5066  -12.5042   18.2261 C   0  0  0  0  0  0
  -28.0337  -12.3241   18.6445 C   0  0  0  0  0  0
  -27.6372  -13.2264   19.8438 C   0  0  2  0  0  0
  -28.6849  -13.1631   20.9751 C   0  0  0  0  0  0
  -25.2493  -13.8176   20.5683 C   0  0  0  0  0  0
  -24.1783  -13.0426   20.9214 C   0  0  0  0  0  0
  -24.6372  -11.6905   20.8744 C   0  0  0  0  0  0
  -23.9047  -10.4283   21.0395 C   0  0  0  0  0  0
  -24.3607   -9.4203   21.9170 C   0  0  0  0  0  0
  -23.6291   -8.2233   22.0743 C   0  0  0  0  0  0
  -22.4273   -8.0262   21.3536 C   0  0  0  0  0  0
  -21.9895   -9.0233   20.4638 C   0  0  0  0  0  0
  -22.7219  -10.2117   20.3044 C   0  0  0  0  0  0
  -21.6859   -6.0721   22.5273 C   0  0  0  0  0  0
  -21.4021   -6.5629   23.8205 C   0  0  0  0  0  0
  -21.3658   -5.6786   24.9169 C   0  0  0  0  0  0
  -21.6041   -4.3050   24.7221 C   0  0  0  0  0  0
  -21.8820   -3.8135   23.4346 C   0  0  0  0  0  0
  -21.9198   -4.6948   22.3398 C   0  0  0  0  0  0
  -22.7805  -13.5206   21.1877 C   0  0  0  0  0  0
  -22.1664   -4.2131   21.0978 F   0  0  0  0  0  0
  -21.5630   -3.4538   25.7736 F   0  0  0  0  0  0
  -29.9779  -13.5243   20.3823 N   0  0  0  0  0  0
  -26.2907  -12.9370   20.3259 N   0  0  0  0  0  0
  -25.9299  -11.6524   20.5753 N   0  0  0  0  0  0
  -22.0462  -12.8194   22.0442 N   0  0  0  0  0  0
  -25.4158  -15.1901   20.4077 N   0  0  0  0  0  0
  -31.8066  -14.8392   20.2316 O   0  0  0  0  0  0
  -21.6645   -6.8857   21.4231 O   0  0  0  0  0  0
  -22.3484  -14.5514   20.6729 O   0  0  0  0  0  0
  -24.6303  -31.8548   23.1969 C   0  0  0  0  0  0
  -25.9124  -32.4756   23.8321 C   0  0  1  0  0  0
  -27.2266  -27.2635   20.1515 C   0  0  0  0  0  0
  -25.5924  -33.8559   24.2247 N   0  0  0  0  0  0
  -23.4272  -30.4736   21.5410 C   0  0  2  0  0  0
  -24.8745  -28.9065   20.1256 C   0  0  0  0  0  0
  -22.7501  -29.4595   22.4935 C   0  0  0  0  0  0
  -18.0293  -28.1384   22.8489 C   0  0  0  0  0  0
  -24.1485  -36.7283   23.2641 C   0  0  0  0  0  0
  -25.9701  -30.7693   21.3738 C   0  0  0  0  0  0
  -26.0447  -29.3855   20.7300 C   0  0  0  0  0  0
  -27.2266  -28.5796   20.7226 C   0  0  0  0  0  0
  -26.0342  -26.8370   19.5353 C   0  0  0  0  0  0
  -24.8725  -27.6379   19.5193 C   0  0  0  0  0  0
  -23.6469  -29.7972   20.1613 C   0  0  0  0  0  0
  -25.4114  -36.3072   24.0325 C   0  0  1  0  0  0
  -20.5892  -28.3688   23.1280 C   0  0  2  0  0  0
  -20.6779  -26.9408   22.5413 C   0  0  0  0  0  0
  -19.5752  -26.6381   21.5217 C   0  0  0  0  0  0
  -18.1935  -26.7926   22.1629 C   0  0  0  0  0  0
  -19.1546  -28.8855   23.2877 C   0  0  0  0  0  0
  -18.9466  -30.1457   23.8890 C   0  0  0  0  0  0
  -17.6462  -30.6582   24.0563 C   0  0  0  0  0  0
  -25.9055  -34.9441   23.5090 C   0  0  0  0  0  0
  -16.5354  -29.9077   23.6333 C   0  0  0  0  0  0
  -16.7280  -28.6497   23.0354 C   0  0  0  0  0  0
  -26.4492  -31.6586   25.0711 C   0  0  0  0  0  0
  -25.3715  -31.3732   26.1432 C   0  0  0  0  0  0
  -27.0342  -30.3008   24.6190 C   0  0  0  0  0  0
  -27.6051  -32.4323   25.7484 C   0  0  0  0  0  0
  -27.5577  -37.1801   24.8466 C   0  0  0  0  0  0
  -21.4212  -29.3035   22.3676 N   0  0  0  0  0  0
  -26.4291  -37.3772   23.9408 N   0  0  0  0  0  0
  -24.6951  -31.0518   22.0939 N   0  0  0  0  0  0
  -23.4202  -28.8161   23.3054 O   0  0  0  0  0  0
  -28.3641  -26.4419   20.0451 O   0  0  0  0  0  0
  -26.5635  -34.8919   22.4662 O   0  0  0  0  0  0
  -23.5457  -32.1364   23.7268 O   0  0  0  0  0  0
  -30.2558  -19.8430   22.0826 C   0  0  0  0  0  0
  -29.5100  -18.4415   20.2756 C   0  0  0  0  0  0
  -29.6529  -19.7880   20.8128 C   0  0  0  0  0  0
  -30.7167  -18.6691   22.7050 C   0  0  0  0  0  0
  -30.0031  -17.2563   20.9674 C   0  0  0  0  0  0
  -30.4285  -23.6690   17.8824 C   0  0  0  0  0  0
  -31.8951  -23.6074   18.2414 C   0  0  0  0  0  0
  -28.0724  -22.8784   21.7486 C   0  0  0  0  0  0
  -31.0059  -22.4131   18.4889 C   0  0  0  0  0  0
  -27.8833  -23.7361   20.4831 C   0  0  1  0  0  0
  -28.1786  -22.1250   20.4857 C   0  0  1  0  0  0
  -31.4242  -18.7518   24.0408 C   0  0  0  0  0  0
  -30.7150  -21.9633   19.9106 C   0  0  0  0  0  0
  -28.5558  -25.1561   20.7895 C   0  0  0  0  0  0
  -29.3894  -21.1741   20.0517 C   0  0  1  0  0  0
  -30.6018  -17.4339   22.1670 N   0  0  0  0  0  0
  -29.7816  -15.8765   20.4913 N   0  0  0  0  0  0
  -31.4739  -12.6057   19.1541 H   0  0  0  0  0  0
  -30.3936  -11.4878   19.9446 H   0  0  0  0  0  0
  -29.7905  -11.7288   17.5134 H   0  0  0  0  0  0
  -29.6282  -13.4570   17.7082 H   0  0  0  0  0  0
  -27.8964  -11.2768   18.9144 H   0  0  0  0  0  0
  -27.3722  -12.5066   17.7964 H   0  0  0  0  0  0
  -27.6258  -14.2452   19.4584 H   0  0  0  0  0  0
  -28.7263  -12.1642   21.4124 H   0  0  0  0  0  0
  -28.4215  -13.8458   21.7845 H   0  0  0  0  0  0
  -25.2747   -9.5699   22.4748 H   0  0  0  0  0  0
  -24.0007   -7.4627   22.7462 H   0  0  0  0  0  0
  -21.0825   -8.8736   19.8950 H   0  0  0  0  0  0
  -22.3654  -10.9649   19.6156 H   0  0  0  0  0  0
  -21.2013   -7.6139   23.9705 H   0  0  0  0  0  0
  -21.1484   -6.0517   25.9075 H   0  0  0  0  0  0
  -22.0605   -2.7595   23.2855 H   0  0  0  0  0  0
  -22.4106  -11.9870   22.4834 H   0  0  0  0  0  0
  -21.1069  -13.1190   22.2644 H   0  0  0  0  0  0
  -24.6420  -15.8370   20.5173 H   0  0  0  0  0  0
  -26.2507  -15.6369   20.0527 H   0  0  0  0  0  0
  -26.7196  -32.5407   23.1072 H   0  0  0  0  0  0
  -25.0060  -33.9695   25.0384 H   0  0  0  0  0  0
  -22.7225  -31.2944   21.3904 H   0  0  0  0  0  0
  -23.3750  -35.9615   23.3304 H   0  0  0  0  0  0
  -24.3572  -36.8904   22.2058 H   0  0  0  0  0  0
  -23.7238  -37.6482   23.6666 H   0  0  0  0  0  0
  -26.1005  -31.5231   20.5963 H   0  0  0  0  0  0
  -26.8509  -30.8264   22.0026 H   0  0  0  0  0  0
  -28.1354  -28.9579   21.1689 H   0  0  0  0  0  0
  -26.0058  -25.8724   19.0497 H   0  0  0  0  0  0
  -23.9776  -27.2658   19.0395 H   0  0  0  0  0  0
  -23.7737  -30.5664   19.3983 H   0  0  0  0  0  0
  -22.7648  -29.2290   19.8592 H   0  0  0  0  0  0
  -25.1300  -36.1920   25.0820 H   0  0  0  0  0  0
  -20.9981  -28.3253   24.1399 H   0  0  0  0  0  0
  -20.5679  -26.2298   23.3614 H   0  0  0  0  0  0
  -21.6650  -26.7430   22.1207 H   0  0  0  0  0  0
  -19.6909  -25.6293   21.1245 H   0  0  0  0  0  0
  -19.6687  -27.3194   20.6748 H   0  0  0  0  0  0
  -17.4209  -26.6682   21.4024 H   0  0  0  0  0  0
  -18.0324  -26.0064   22.9021 H   0  0  0  0  0  0
  -19.7940  -30.7284   24.2249 H   0  0  0  0  0  0
  -17.5014  -31.6264   24.5165 H   0  0  0  0  0  0
  -15.5353  -30.2978   23.7656 H   0  0  0  0  0  0
  -15.8684  -28.0815   22.7062 H   0  0  0  0  0  0
  -24.5890  -30.7084   25.7748 H   0  0  0  0  0  0
  -24.8906  -32.2900   26.4853 H   0  0  0  0  0  0
  -25.8028  -30.8904   27.0211 H   0  0  0  0  0  0
  -26.2920  -29.6760   24.1210 H   0  0  0  0  0  0
  -27.4021  -29.7269   25.4706 H   0  0  0  0  0  0
  -27.8797  -30.4286   23.9427 H   0  0  0  0  0  0
  -27.2664  -33.3631   26.2049 H   0  0  0  0  0  0
  -28.3872  -32.6874   25.0318 H   0  0  0  0  0  0
  -28.0713  -31.8457   26.5411 H   0  0  0  0  0  0
  -28.2603  -38.0092   24.7511 H   0  0  0  0  0  0
  -28.1066  -36.2623   24.6296 H   0  0  0  0  0  0
  -27.2295  -37.1456   25.8870 H   0  0  0  0  0  0
  -20.9403  -29.8743   21.6866 H   0  0  0  0  0  0
  -26.0165  -38.2846   24.1408 H   0  0  0  0  0  0
  -30.4276  -20.7995   22.5575 H   0  0  0  0  0  0
  -29.0525  -18.3191   19.3036 H   0  0  0  0  0  0
  -30.1678  -23.6381   16.8261 H   0  0  0  0  0  0
  -29.7917  -24.3007   18.4930 H   0  0  0  0  0  0
  -32.2228  -24.1889   19.1024 H   0  0  0  0  0  0
  -32.6125  -23.5384   17.4261 H   0  0  0  0  0  0
  -27.1929  -22.7078   22.3672 H   0  0  0  0  0  0
  -28.9935  -23.0056   22.3150 H   0  0  0  0  0  0
  -31.1344  -21.5828   17.7961 H   0  0  0  0  0  0
  -26.8543  -23.9141   20.1784 H   0  0  0  0  0  0
  -27.2684  -21.5714   20.2642 H   0  0  0  0  0  0
  -32.4122  -19.1942   23.9141 H   0  0  0  0  0  0
  -31.5472  -17.7687   24.4963 H   0  0  0  0  0  0
  -30.8604  -19.3758   24.7348 H   0  0  0  0  0  0
  -30.7443  -22.8127   20.5938 H   0  0  0  0  0  0
  -31.5565  -21.3321   20.1986 H   0  0  0  0  0  0
  -28.3140  -25.4010   21.8250 H   0  0  0  0  0  0
  -29.6333  -24.9904   20.7946 H   0  0  0  0  0  0
  -29.1244  -20.8443   19.0458 H   0  0  0  0  0  0
  -28.8164  -15.6713   20.2983 H   0  0  0  0  0  0
  1 25  1  0  0  0
  1 30  2  0  0  0
  1 87  1  0  0  0
  2  3  1  0  0  0
  2 25  1  0  0  0
  2 88  1  0  0  0
  2 89  1  0  0  0
  3  4  1  0  0  0
  3 90  1  0  0  0
  3 91  1  0  0  0
  4  5  1  0  0  0
  4 92  1  0  0  0
  4 93  1  0  0  0
  5  6  1  0  0  0
  5 26  1  0  0  0
  5 94  1  0  0  0
  6 25  1  0  0  0
  6 95  1  0  0  0
  6 96  1  0  0  0
  7  8  2  0  0  0
  7 26  1  0  0  0
  7 29  1  0  0  0
  8  9  1  0  0  0
  8 22  1  0  0  0
  9 10  1  0  0  0
  9 27  2  0  0  0
 10 11  2  0  0  0
 10 15  1  0  0  0
 11 12  1  0  0  0
 11 97  1  0  0  0
 12 13  2  0  0  0
 12 98  1  0  0  0
 13 14  1  0  0  0
 13 31  1  0  0  0
 14 15  2  0  0  0
 14 99  1  0  0  0
 15100  1  0  0  0
 16 17  2  0  0  0
 16 21  1  0  0  0
 16 31  1  0  0  0
 17 18  1  0  0  0
 17101  1  0  0  0
 18 19  2  0  0  0
 18102  1  0  0  0
 19 20  1  0  0  0
 19 24  1  0  0  0
 20 21  2  0  0  0
 20103  1  0  0  0
 21 23  1  0  0  0
 22 28  1  0  0  0
 22 32  2  0  0  0
 26 27  1  0  0  0
 28104  1  0  0  0
 28105  1  0  0  0
 29106  1  0  0  0
 29107  1  0  0  0
 33 34  1  0  0  0
 33 66  1  0  0  0
 33 70  2  0  0  0
 34 36  1  0  0  0
 34 59  1  0  0  0
 34108  1  0  0  0
 35 44  2  0  0  0
 35 45  1  0  0  0
 35 68  1  0  0  0
 36 56  1  0  0  0
 36109  1  0  0  0
 37 39  1  0  0  0
 37 47  1  0  0  0
 37 66  1  0  0  0
 37110  1  0  0  0
 38 43  2  0  0  0
 38 46  1  0  0  0
 38 47  1  0  0  0
 39 64  1  0  0  0
 39 67  2  0  0  0
 40 52  1  0  0  0
 40 53  2  0  0  0
 40 58  1  0  0  0
 41111  1  0  0  0
 41112  1  0  0  0
 41113  1  0  0  0
 41 48  1  0  0  0
 42 43  1  0  0  0
 42 66  1  0  0  0
 42114  1  0  0  0
 42115  1  0  0  0
 43 44  1  0  0  0
 44116  1  0  0  0
 45 46  2  0  0  0
 45117  1  0  0  0
 46118  1  0  0  0
 47119  1  0  0  0
 47120  1  0  0  0
 48 56  1  0  0  0
 48 65  1  0  0  0
 48121  1  0  0  0
 49 50  1  0  0  0
 49 53  1  0  0  0
 49 64  1  0  0  0
 49122  1  0  0  0
 50 51  1  0  0  0
 50123  1  0  0  0
 50124  1  0  0  0
 51 52  1  0  0  0
 51125  1  0  0  0
 51126  1  0  0  0
 52127  1  0  0  0
 52128  1  0  0  0
 53 54  1  0  0  0
 54 55  2  0  0  0
 54129  1  0  0  0
 55 57  1  0  0  0
 55130  1  0  0  0
 56 69  2  0  0  0
 57 58  2  0  0  0
 57131  1  0  0  0
 58132  1  0  0  0
 59 60  1  0  0  0
 59 61  1  0  0  0
 59 62  1  0  0  0
 60133  1  0  0  0
 60134  1  0  0  0
 60135  1  0  0  0
 61136  1  0  0  0
 61137  1  0  0  0
 61138  1  0  0  0
 62139  1  0  0  0
 62140  1  0  0  0
 62141  1  0  0  0
 63 65  1  0  0  0
 63142  1  0  0  0
 63143  1  0  0  0
 63144  1  0  0  0
 64145  1  0  0  0
 65146  1  0  0  0
 68 84  1  0  0  0
 71 73  2  0  0  0
 71 74  1  0  0  0
 71147  1  0  0  0
 72 73  1  0  0  0
 72 75  2  0  0  0
 72148  1  0  0  0
 73 85  1  0  0  0
 74 82  1  0  0  0
 74 86  2  0  0  0
 75 86  1  0  0  0
 75 87  1  0  0  0
 76 77  1  0  0  0
 76 79  1  0  0  0
 76149  1  0  0  0
 76150  1  0  0  0
 77 79  1  0  0  0
 77151  1  0  0  0
 77152  1  0  0  0
 78 80  1  0  0  0
 78153  1  0  0  0
 78154  1  0  0  0
 78 81  1  0  0  0
 79 83  1  0  0  0
 79155  1  0  0  0
 80 81  1  0  0  0
 80 84  1  0  0  0
 80156  1  0  0  0
 81 85  1  0  0  0
 81157  1  0  0  0
 82158  1  0  0  0
 82159  1  0  0  0
 82160  1  0  0  0
 83161  1  0  0  0
 83162  1  0  0  0
 83 85  1  0  0  0
 84163  1  0  0  0
 84164  1  0  0  0
 85165  1  0  0  0
 87166  1  0  0  0
M  ISO  4   1 100  68 101  84 101  87 100
M  END
> <chiral flag>
0

> <version>
0

> <s_m_source_file>
/data/baiqing/PycharmProjects/Reinvent-master-3.2/result/LINK_invent/BTK/process_docking_weight1_custom_sum_contain_oxygen_bond_distance_aromatic_linkinvent_7_9_3/rearranged_h_0147.sdf

> <i_m_source_file_index>
81

> <r_mmod_Potential_Energy-OPLS-2005>
235.914306640625

> <r_mmod_Stretch_Energy-OPLS-2005>
130.216552734375

> <r_mmod_Bend_Energy-OPLS-2005>
258.394897460938

> <r_mmod_Torsional_Energy-OPLS-2005>
348.637756347656

> <r_mmod_Improper_Torsional_Energy-OPLS-2005>
11.0588340759277

> <r_mmod_Van_der_Waal_Energy-OPLS-2005>
123.931617736816

> <r_mmod_Electrostatic_Energy-OPLS-2005>
-498.652099609375

> <r_mmod_Solvation_Energy-OPLS-2005>
-218.583953857422

> <b_mmod_Minimization_Converged-OPLS-2005>
0

> <r_mmod_RMS_Derivative-OPLS-2005>
1.26426863670349

$$$$
81
                    3D
 Structure written by MMmdl.
154163  0  0  1  0            999 V2000
  -30.4728  -15.1966   20.3835 C   0  0  0  0  0  0
  -30.4372  -12.7626   19.5137 C   0  0  0  0  0  0
  -29.5293  -12.5635   18.2757 C   0  0  0  0  0  0
  -28.0750  -12.3011   18.7052 C   0  0  0  0  0  0
  -27.6139  -13.2702   19.8231 C   0  0  2  0  0  0
  -28.6521  -13.4209   20.9548 C   0  0  0  0  0  0
  -25.2403  -13.8242   20.5748 C   0  0  0  0  0  0
  -24.1749  -13.0436   20.9258 C   0  0  0  0  0  0
  -24.6397  -11.6932   20.8762 C   0  0  0  0  0  0
  -23.9091  -10.4293   21.0408 C   0  0  0  0  0  0
  -24.3633   -9.4205   21.9187 C   0  0  0  0  0  0
  -23.6301   -8.2243   22.0755 C   0  0  0  0  0  0
  -22.4284   -8.0281   21.3544 C   0  0  0  0  0  0
  -21.9926   -9.0257   20.4646 C   0  0  0  0  0  0
  -22.7262  -10.2134   20.3056 C   0  0  0  0  0  0
  -21.6856   -6.0738   22.5278 C   0  0  0  0  0  0
  -21.4014   -6.5641   23.8211 C   0  0  0  0  0  0
  -21.3658   -5.6793   24.9173 C   0  0  0  0  0  0
  -21.6045   -4.3055   24.7224 C   0  0  0  0  0  0
  -21.8819   -3.8147   23.4344 C   0  0  0  0  0  0
  -21.9193   -4.6965   22.3401 C   0  0  0  0  0  0
  -22.7766  -13.5192   21.1902 C   0  0  0  0  0  0
  -22.1662   -4.2149   21.0979 F   0  0  0  0  0  0
  -21.5628   -3.4538   25.7737 F   0  0  0  0  0  0
  -29.8905  -13.9057   20.3266 N   0  0  0  0  0  0
  -26.2827  -12.9510   20.3226 N   0  0  0  0  0  0
  -25.9332  -11.6620   20.5726 N   0  0  0  0  0  0
  -22.0422  -12.8171   22.0454 N   0  0  0  0  0  0
  -25.4039  -15.1976   20.4179 N   0  0  0  0  0  0
  -31.6946  -15.1906   20.1837 O   0  0  0  0  0  0
  -21.6643   -6.8882   21.4241 O   0  0  0  0  0  0
  -22.3446  -14.5496   20.6746 O   0  0  0  0  0  0
  -24.6607  -31.8269   23.1744 C   0  0  0  0  0  0
  -25.9301  -32.4607   23.8192 C   0  0  1  0  0  0
  -27.2151  -26.9593   20.1774 C   0  0  0  0  0  0
  -25.5981  -33.8421   24.2099 N   0  0  0  0  0  0
  -23.4736  -30.4417   21.5227 C   0  0  2  0  0  0
  -24.9268  -28.8396   20.1120 C   0  0  0  0  0  0
  -22.7657  -29.4460   22.4788 C   0  0  0  0  0  0
  -18.0320  -28.1410   22.8466 C   0  0  0  0  0  0
  -24.1491  -36.7214   23.2648 C   0  0  0  0  0  0
  -26.0426  -30.6447   21.4001 C   0  0  0  0  0  0
  -26.1115  -29.2384   20.7442 C   0  0  0  0  0  0
  -27.2519  -28.3191   20.7542 C   0  0  0  0  0  0
  -26.0015  -26.7129   19.4936 C   0  0  0  0  0  0
  -24.8965  -27.5962   19.4662 C   0  0  0  0  0  0
  -23.7117  -29.7625   20.1475 C   0  0  0  0  0  0
  -25.4132  -36.2979   24.0302 C   0  0  1  0  0  0
  -20.5945  -28.3751   23.1192 C   0  0  2  0  0  0
  -20.6797  -26.9433   22.5400 C   0  0  0  0  0  0
  -19.5771  -26.6380   21.5213 C   0  0  0  0  0  0
  -18.1953  -26.7944   22.1620 C   0  0  0  0  0  0
  -19.1581  -28.8899   23.2820 C   0  0  0  0  0  0
  -18.9494  -30.1489   23.8855 C   0  0  0  0  0  0
  -17.6488  -30.6599   24.0553 C   0  0  0  0  0  0
  -25.9095  -34.9360   23.5018 C   0  0  0  0  0  0
  -16.5378  -29.9086   23.6343 C   0  0  0  0  0  0
  -16.7302  -28.6506   23.0363 C   0  0  0  0  0  0
  -26.4562  -31.6541   25.0704 C   0  0  0  0  0  0
  -25.3694  -31.3783   26.1363 C   0  0  0  0  0  0
  -27.0449  -30.2912   24.6408 C   0  0  0  0  0  0
  -27.6063  -32.4340   25.7502 C   0  0  0  0  0  0
  -27.5562  -37.1772   24.8473 C   0  0  0  0  0  0
  -21.4327  -29.3049   22.3543 N   0  0  0  0  0  0
  -26.4278  -37.3711   23.9403 N   0  0  0  0  0  0
  -24.7469  -30.9968   22.0864 N   0  0  0  0  0  0
  -23.4217  -28.8016   23.3009 O   0  0  0  0  0  0
  -28.2025  -25.8486   20.2536 O   0  0  0  0  0  0
  -26.5695  -34.8886   22.4607 O   0  0  0  0  0  0
  -23.5681  -32.1221   23.6856 O   0  0  0  0  0  0
  -28.7430  -20.2470   19.2011 C   0  0  0  0  0  0
  -28.3634  -21.6831   19.1664 C   0  0  0  0  0  0
  -29.1962  -22.0077   21.3039 C   0  0  0  0  0  0
  -29.3726  -19.5771   20.3176 C   0  0  0  0  0  0
  -29.5779  -20.5667   21.3285 C   0  0  0  0  0  0
  -28.5505  -22.7103   20.1942 C   0  0  0  0  0  0
  -30.3161  -19.8794   22.4589 C   0  0  0  0  0  0
  -30.1123  -18.0639   20.6087 C   0  0  1  0  0  0
  -30.5374  -18.3595   22.0873 C   0  0  1  0  0  0
  -31.9619  -17.8884   22.4207 C   0  0  0  0  0  0
  -27.7897  -24.2774   20.1125 C   0  0  0  0  0  0
  -29.7260  -16.4643   20.4689 N   0  0  0  0  0  0
  -31.4595  -12.9539   19.1849 H   0  0  0  0  0  0
  -30.4870  -11.8496   20.1093 H   0  0  0  0  0  0
  -29.8952  -11.7385   17.6631 H   0  0  0  0  0  0
  -29.5704  -13.4543   17.6471 H   0  0  0  0  0  0
  -28.0209  -11.2740   19.0675 H   0  0  0  0  0  0
  -27.4053  -12.3580   17.8464 H   0  0  0  0  0  0
  -27.5359  -14.2433   19.3366 H   0  0  0  0  0  0
  -28.8054  -12.4804   21.4851 H   0  0  0  0  0  0
  -28.3063  -14.1442   21.6949 H   0  0  0  0  0  0
  -25.2774   -9.5681   22.4767 H   0  0  0  0  0  0
  -24.0005   -7.4635   22.7475 H   0  0  0  0  0  0
  -21.0856   -8.8780   19.8948 H   0  0  0  0  0  0
  -22.3719  -10.9676   19.6165 H   0  0  0  0  0  0
  -21.2005   -7.6147   23.9715 H   0  0  0  0  0  0
  -21.1481   -6.0522   25.9076 H   0  0  0  0  0  0
  -22.0599   -2.7610   23.2845 H   0  0  0  0  0  0
  -22.4050  -11.9835   22.4840 H   0  0  0  0  0  0
  -21.1032  -13.1177   22.2657 H   0  0  0  0  0  0
  -24.6329  -15.8471   20.5293 H   0  0  0  0  0  0
  -26.2431  -15.6391   20.0659 H   0  0  0  0  0  0
  -26.7362  -32.5154   23.0902 H   0  0  0  0  0  0
  -25.0096  -33.9508   25.0225 H   0  0  0  0  0  0
  -22.7858  -31.2731   21.3545 H   0  0  0  0  0  0
  -23.3756  -35.9545   23.3312 H   0  0  0  0  0  0
  -24.3560  -36.8852   22.2060 H   0  0  0  0  0  0
  -23.7251  -37.6408   23.6699 H   0  0  0  0  0  0
  -26.2179  -31.3869   20.6203 H   0  0  0  0  0  0
  -26.9057  -30.7016   22.0515 H   0  0  0  0  0  0
  -28.1468  -28.6212   21.2798 H   0  0  0  0  0  0
  -25.8586  -25.7702   18.9899 H   0  0  0  0  0  0
  -23.9985  -27.2861   18.9497 H   0  0  0  0  0  0
  -23.8639  -30.5326   19.3902 H   0  0  0  0  0  0
  -22.8226  -29.2150   19.8298 H   0  0  0  0  0  0
  -25.1331  -36.1782   25.0794 H   0  0  0  0  0  0
  -21.0036  -28.3350   24.1317 H   0  0  0  0  0  0
  -20.5684  -26.2363   23.3635 H   0  0  0  0  0  0
  -21.6657  -26.7413   22.1199 H   0  0  0  0  0  0
  -19.6932  -25.6283   21.1263 H   0  0  0  0  0  0
  -19.6712  -27.3167   20.6727 H   0  0  0  0  0  0
  -17.4219  -26.6689   21.4025 H   0  0  0  0  0  0
  -18.0347  -26.0104   22.9032 H   0  0  0  0  0  0
  -19.7973  -30.7315   24.2208 H   0  0  0  0  0  0
  -17.5040  -31.6278   24.5161 H   0  0  0  0  0  0
  -15.5375  -30.2973   23.7701 H   0  0  0  0  0  0
  -15.8703  -28.0808   22.7112 H   0  0  0  0  0  0
  -24.5908  -30.7092   25.7679 H   0  0  0  0  0  0
  -24.8843  -32.2975   26.4660 H   0  0  0  0  0  0
  -25.7935  -30.9046   27.0225 H   0  0  0  0  0  0
  -26.3104  -29.6605   24.1387 H   0  0  0  0  0  0
  -27.3967  -29.7262   25.5052 H   0  0  0  0  0  0
  -27.9052  -30.4111   23.9822 H   0  0  0  0  0  0
  -27.2653  -33.3703   26.1938 H   0  0  0  0  0  0
  -28.3953  -32.6799   25.0379 H   0  0  0  0  0  0
  -28.0639  -31.8549   26.5536 H   0  0  0  0  0  0
  -28.2587  -38.0057   24.7478 H   0  0  0  0  0  0
  -28.1047  -36.2583   24.6356 H   0  0  0  0  0  0
  -27.2269  -37.1473   25.8873 H   0  0  0  0  0  0
  -20.9576  -29.8751   21.6685 H   0  0  0  0  0  0
  -26.0132  -38.2774   24.1397 H   0  0  0  0  0  0
  -28.5489  -19.6587   18.3147 H   0  0  0  0  0  0
  -27.8594  -22.0080   18.2667 H   0  0  0  0  0  0
  -29.3941  -22.5865   22.1956 H   0  0  0  0  0  0
  -29.7527  -19.9760   23.3877 H   0  0  0  0  0  0
  -31.2692  -20.3892   22.6063 H   0  0  0  0  0  0
  -31.0043  -18.1413   19.9849 H   0  0  0  0  0  0
  -29.8471  -17.8030   22.7227 H   0  0  0  0  0  0
  -32.7010  -18.3796   21.7869 H   0  0  0  0  0  0
  -32.0699  -16.8134   22.2861 H   0  0  0  0  0  0
  -32.2139  -18.1087   23.4583 H   0  0  0  0  0  0
  -26.9458  -24.1732   20.7952 H   0  0  0  0  0  0
  -27.3423  -24.2322   19.1208 H   0  0  0  0  0  0
  -28.7312  -16.3073   20.5212 H   0  0  0  0  0  0
  1 25  1  0  0  0
  1 30  2  0  0  0
  1 82  1  0  0  0
  2  3  1  0  0  0
  2 25  1  0  0  0
  2 83  1  0  0  0
  2 84  1  0  0  0
  3  4  1  0  0  0
  3 85  1  0  0  0
  3 86  1  0  0  0
  4  5  1  0  0  0
  4 87  1  0  0  0
  4 88  1  0  0  0
  5  6  1  0  0  0
  5 26  1  0  0  0
  5 89  1  0  0  0
  6 25  1  0  0  0
  6 90  1  0  0  0
  6 91  1  0  0  0
  7  8  2  0  0  0
  7 26  1  0  0  0
  7 29  1  0  0  0
  8  9  1  0  0  0
  8 22  1  0  0  0
  9 10  1  0  0  0
  9 27  2  0  0  0
 10 11  2  0  0  0
 10 15  1  0  0  0
 11 12  1  0  0  0
 11 92  1  0  0  0
 12 13  2  0  0  0
 12 93  1  0  0  0
 13 14  1  0  0  0
 13 31  1  0  0  0
 14 15  2  0  0  0
 14 94  1  0  0  0
 15 95  1  0  0  0
 16 17  2  0  0  0
 16 21  1  0  0  0
 16 31  1  0  0  0
 17 18  1  0  0  0
 17 96  1  0  0  0
 18 19  2  0  0  0
 18 97  1  0  0  0
 19 20  1  0  0  0
 19 24  1  0  0  0
 20 21  2  0  0  0
 20 98  1  0  0  0
 21 23  1  0  0  0
 22 28  1  0  0  0
 22 32  2  0  0  0
 26 27  1  0  0  0
 28 99  1  0  0  0
 28100  1  0  0  0
 29101  1  0  0  0
 29102  1  0  0  0
 33 34  1  0  0  0
 33 66  1  0  0  0
 33 70  2  0  0  0
 34 36  1  0  0  0
 34 59  1  0  0  0
 34103  1  0  0  0
 35 44  2  0  0  0
 35 45  1  0  0  0
 35 68  1  0  0  0
 36 56  1  0  0  0
 36104  1  0  0  0
 37 39  1  0  0  0
 37 47  1  0  0  0
 37 66  1  0  0  0
 37105  1  0  0  0
 38 43  2  0  0  0
 38 46  1  0  0  0
 38 47  1  0  0  0
 39 64  1  0  0  0
 39 67  2  0  0  0
 40 52  1  0  0  0
 40 53  2  0  0  0
 40 58  1  0  0  0
 41106  1  0  0  0
 41107  1  0  0  0
 41108  1  0  0  0
 41 48  1  0  0  0
 42 43  1  0  0  0
 42 66  1  0  0  0
 42109  1  0  0  0
 42110  1  0  0  0
 43 44  1  0  0  0
 44111  1  0  0  0
 45 46  2  0  0  0
 45112  1  0  0  0
 46113  1  0  0  0
 47114  1  0  0  0
 47115  1  0  0  0
 48 56  1  0  0  0
 48 65  1  0  0  0
 48116  1  0  0  0
 49 50  1  0  0  0
 49 53  1  0  0  0
 49 64  1  0  0  0
 49117  1  0  0  0
 50 51  1  0  0  0
 50118  1  0  0  0
 50119  1  0  0  0
 51 52  1  0  0  0
 51120  1  0  0  0
 51121  1  0  0  0
 52122  1  0  0  0
 52123  1  0  0  0
 53 54  1  0  0  0
 54 55  2  0  0  0
 54124  1  0  0  0
 55 57  1  0  0  0
 55125  1  0  0  0
 56 69  2  0  0  0
 57 58  2  0  0  0
 57126  1  0  0  0
 58127  1  0  0  0
 59 60  1  0  0  0
 59 61  1  0  0  0
 59 62  1  0  0  0
 60128  1  0  0  0
 60129  1  0  0  0
 60130  1  0  0  0
 61131  1  0  0  0
 61132  1  0  0  0
 61133  1  0  0  0
 62134  1  0  0  0
 62135  1  0  0  0
 62136  1  0  0  0
 63 65  1  0  0  0
 63137  1  0  0  0
 63138  1  0  0  0
 63139  1  0  0  0
 64140  1  0  0  0
 65141  1  0  0  0
 68 81  1  0  0  0
 71 72  2  0  0  0
 71 74  1  0  0  0
 71142  1  0  0  0
 72 76  1  0  0  0
 72143  1  0  0  0
 73 75  1  0  0  0
 73 76  2  0  0  0
 73144  1  0  0  0
 74 75  2  0  0  0
 74 78  1  0  0  0
 75 77  1  0  0  0
 76 81  1  0  0  0
 77 79  1  0  0  0
 77145  1  0  0  0
 77146  1  0  0  0
 78 79  1  0  0  0
 78 82  1  0  0  0
 78147  1  0  0  0
 79 80  1  0  0  0
 79148  1  0  0  0
 80149  1  0  0  0
 80150  1  0  0  0
 80151  1  0  0  0
 81152  1  0  0  0
 81153  1  0  0  0
 82154  1  0  0  0
M  ISO  4   1 100  68 101  81 101  82 100
M  END
> <chiral flag>
0

> <version>
0

> <s_m_source_file>
/data/baiqing/PycharmProjects/Reinvent-master-3.2/result/LINK_invent/BTK/process_docking_weight1_custom_sum_contain_oxygen_bond_distance_aromatic_linkinvent_7_9_3/rearranged_h_0147.sdf

> <i_m_source_file_index>
82

> <r_mmod_Potential_Energy-OPLS-2005>
1079.14599609375

> <r_mmod_Stretch_Energy-OPLS-2005>
447.505279541016

> <r_mmod_Bend_Energy-OPLS-2005>
467.858093261719

> <r_mmod_Torsional_Energy-OPLS-2005>
228.417495727539

> <r_mmod_Improper_Torsional_Energy-OPLS-2005>
7.96067810058594

> <r_mmod_Van_der_Waal_Energy-OPLS-2005>
127.332550048828

> <r_mmod_Electrostatic_Energy-OPLS-2005>
-394.064544677734

> <r_mmod_Solvation_Energy-OPLS-2005>
-208.056869506836

> <b_mmod_Minimization_Converged-OPLS-2005>
0

> <r_mmod_RMS_Derivative-OPLS-2005>
0.805101871490479

$$$$
82
                    3D
 Structure written by MMmdl.
163172  0  0  1  0            999 V2000
  -29.5689  -14.4626   19.2260 C   0  0  0  0  0  0
  -31.1435  -12.7922   19.5220 C   0  0  0  0  0  0
  -30.4192  -12.1205   18.3887 C   0  0  0  0  0  0
  -29.2611  -11.6900   19.1951 C   0  0  0  0  0  0
  -28.4699  -12.5584   20.6022 C   0  0  2  0  0  0
  -29.5107  -13.1736   21.3542 C   0  0  0  0  0  0
  -26.1454  -14.2627   21.2903 C   0  0  0  0  0  0
  -24.0673  -13.5976   21.0454 C   0  0  0  0  0  0
  -23.9940  -12.0298   20.4842 C   0  0  0  0  0  0
  -23.4281  -10.6615   20.8895 C   0  0  0  0  0  0
  -23.9813   -9.6683   21.8031 C   0  0  0  0  0  0
  -23.4535   -8.3603   21.9402 C   0  0  0  0  0  0
  -22.2676   -8.0414   21.2603 C   0  0  0  0  0  0
  -21.7164   -8.9882   20.3807 C   0  0  0  0  0  0
  -22.3002  -10.2535   20.1754 C   0  0  0  0  0  0
  -21.6692   -6.0611   22.5069 C   0  0  0  0  0  0
  -21.3895   -6.5643   23.7971 C   0  0  0  0  0  0
  -21.3678   -5.6875   24.9041 C   0  0  0  0  0  0
  -21.6105   -4.3135   24.7196 C   0  0  0  0  0  0
  -21.8917   -3.8123   23.4369 C   0  0  0  0  0  0
  -21.9202   -4.6872   22.3352 C   0  0  0  0  0  0
  -22.6186  -13.9407   21.2682 C   0  0  0  0  0  0
  -22.1631   -4.1984   21.0954 F   0  0  0  0  0  0
  -21.5740   -3.4656   25.7759 F   0  0  0  0  0  0
  -30.1914  -13.6951   20.1799 N   0  0  0  0  0  0
  -26.9981  -12.9020   20.7514 N   0  0  0  0  0  0
  -25.2949  -11.6264   20.1610 N   0  0  0  0  0  0
  -21.9411  -13.1087   22.0718 N   0  0  0  0  0  0
  -26.9626  -15.3770   21.4695 N   0  0  0  0  0  0
  -30.4295  -15.3445   19.0148 O   0  0  0  0  0  0
  -21.6044   -6.8394   21.3754 O   0  0  0  0  0  0
  -22.0713  -14.8246   20.6416 O   0  0  0  0  0  0
  -24.6580  -31.8288   23.1962 C   0  0  0  0  0  0
  -25.9347  -32.4525   23.8329 C   0  0  1  0  0  0
  -26.8509  -26.8186   20.2696 C   0  0  0  0  0  0
  -25.6101  -33.8366   24.2189 N   0  0  0  0  0  0
  -23.4595  -30.4799   21.5402 C   0  0  2  0  0  0
  -24.8622  -28.9114   20.0772 C   0  0  0  0  0  0
  -22.7657  -29.4498   22.4718 C   0  0  0  0  0  0
  -18.0330  -28.1393   22.8484 C   0  0  0  0  0  0
  -24.1494  -36.7092   23.2665 C   0  0  0  0  0  0
  -26.0319  -30.6118   21.4427 C   0  0  0  0  0  0
  -26.0381  -29.2058   20.7775 C   0  0  0  0  0  0
  -27.0606  -28.1606   20.8639 C   0  0  0  0  0  0
  -25.7735  -26.7612   19.3888 C   0  0  0  0  0  0
  -24.7677  -27.7294   19.3426 C   0  0  0  0  0  0
  -23.6863  -29.8670   20.1361 C   0  0  0  0  0  0
  -25.4135  -36.2885   24.0311 C   0  0  1  0  0  0
  -20.5971  -28.3727   23.1203 C   0  0  2  0  0  0
  -20.6802  -26.9403   22.5415 C   0  0  0  0  0  0
  -19.5747  -26.6364   21.5240 C   0  0  0  0  0  0
  -18.1936  -26.7929   22.1654 C   0  0  0  0  0  0
  -19.1600  -28.8876   23.2837 C   0  0  0  0  0  0
  -18.9499  -30.1478   23.8853 C   0  0  0  0  0  0
  -17.6486  -30.6585   24.0544 C   0  0  0  0  0  0
  -25.9127  -34.9281   23.5016 C   0  0  0  0  0  0
  -16.5377  -29.9067   23.6334 C   0  0  0  0  0  0
  -16.7316  -28.6488   23.0364 C   0  0  0  0  0  0
  -26.4637  -31.6482   25.0845 C   0  0  0  0  0  0
  -25.3803  -31.3647   26.1503 C   0  0  0  0  0  0
  -27.0562  -30.2844   24.6604 C   0  0  0  0  0  0
  -27.6085  -32.4360   25.7621 C   0  0  0  0  0  0
  -27.5544  -37.1713   24.8484 C   0  0  0  0  0  0
  -21.4336  -29.3042   22.3541 N   0  0  0  0  0  0
  -26.4238  -37.3651   23.9436 N   0  0  0  0  0  0
  -24.7394  -31.0028   22.1090 N   0  0  0  0  0  0
  -23.4263  -28.8002   23.2864 O   0  0  0  0  0  0
  -27.4361  -25.4790   20.4742 O   0  0  0  0  0  0
  -26.5701  -34.8806   22.4581 O   0  0  0  0  0  0
  -23.5688  -32.1319   23.7109 O   0  0  0  0  0  0
  -24.9762  -13.7334   23.2771 C   0  0  0  0  0  0
  -24.5582  -15.3758   22.6877 C   0  0  0  0  0  0
  -24.9413  -15.3198   19.5482 C   0  0  0  0  0  0
  -25.4918  -12.4164   22.2177 C   0  0  0  0  0  0
  -25.4674  -13.6380   19.3586 C   0  0  0  0  0  0
  -24.5897  -16.1568   21.0677 C   0  0  0  0  0  0
  -26.7228  -10.8732   21.8891 C   0  0  0  0  0  0
  -27.2292  -10.6318   19.8224 C   0  0  0  0  0  0
  -26.9202  -12.6359   18.5171 C   0  0  2  0  0  0
  -24.5330  -17.9371   21.0010 C   0  0  0  0  0  0
  -26.6140  -22.2754   20.6238 C   0  0  0  0  0  0
  -25.4433  -20.8826   20.8675 C   0  0  0  0  0  0
  -26.4814  -24.0986   20.6899 C   0  0  0  0  0  0
  -28.2489  -13.9498   18.4800 N   0  0  0  0  0  0
  -25.6444  -19.2019   20.8597 N   0  3  0  0  0  0
  -31.9950  -13.3487   19.1270 H   0  0  0  0  0  0
  -31.5642  -12.0768   20.2306 H   0  0  0  0  0  0
  -30.9909  -11.2688   18.0148 H   0  0  0  0  0  0
  -30.1998  -12.7187   17.5009 H   0  0  0  0  0  0
  -29.7382  -10.8302   19.6783 H   0  0  0  0  0  0
  -28.7503  -11.2779   18.3177 H   0  0  0  0  0  0
  -28.1369  -13.5533   20.6634 H   0  0  0  0  0  0
  -30.1133  -12.4225   21.8619 H   0  0  0  0  0  0
  -29.2758  -13.9399   22.1018 H   0  0  0  0  0  0
  -24.7373   -9.8674   22.5333 H   0  0  0  0  0  0
  -23.9092   -7.6352   22.5968 H   0  0  0  0  0  0
  -20.8002   -8.7438   19.8544 H   0  0  0  0  0  0
  -21.8155  -10.9389   19.4873 H   0  0  0  0  0  0
  -21.1643   -7.6107   23.9356 H   0  0  0  0  0  0
  -21.1522   -6.0684   25.8907 H   0  0  0  0  0  0
  -22.0800   -2.7610   23.2943 H   0  0  0  0  0  0
  -22.4147  -12.3587   22.5523 H   0  0  0  0  0  0
  -20.9544  -13.2537   22.2198 H   0  0  0  0  0  0
  -26.5377  -16.0637   22.0770 H   0  0  0  0  0  0
  -27.8955  -15.1753   21.7919 H   0  0  0  0  0  0
  -26.7364  -32.5017   23.0989 H   0  0  0  0  0  0
  -25.0191  -33.9471   25.0303 H   0  0  0  0  0  0
  -22.7665  -31.3146   21.4125 H   0  0  0  0  0  0
  -23.3779  -35.9392   23.3285 H   0  0  0  0  0  0
  -24.3598  -36.8771   22.2092 H   0  0  0  0  0  0
  -23.7231  -37.6243   23.6767 H   0  0  0  0  0  0
  -26.2357  -31.3595   20.6761 H   0  0  0  0  0  0
  -26.8884  -30.6509   22.1003 H   0  0  0  0  0  0
  -27.9134  -28.3261   21.5023 H   0  0  0  0  0  0
  -25.5927  -25.8706   18.8098 H   0  0  0  0  0  0
  -23.8830  -27.5358   18.7463 H   0  0  0  0  0  0
  -23.8830  -30.6644   19.4174 H   0  0  0  0  0  0
  -22.7850  -29.3620   19.7821 H   0  0  0  0  0  0
  -25.1332  -36.1619   25.0799 H   0  0  0  0  0  0
  -21.0061  -28.3304   24.1327 H   0  0  0  0  0  0
  -20.5706  -26.2309   23.3642 H   0  0  0  0  0  0
  -21.6652  -26.7376   22.1191 H   0  0  0  0  0  0
  -19.6883  -25.6269   21.1262 H   0  0  0  0  0  0
  -19.6675  -27.3188   20.6776 H   0  0  0  0  0  0
  -17.4211  -26.6702   21.4050 H   0  0  0  0  0  0
  -18.0309  -26.0077   22.9051 H   0  0  0  0  0  0
  -19.7970  -30.7325   24.2194 H   0  0  0  0  0  0
  -17.5026  -31.6264   24.5155 H   0  0  0  0  0  0
  -15.5370  -30.2947   23.7683 H   0  0  0  0  0  0
  -15.8724  -28.0788   22.7103 H   0  0  0  0  0  0
  -24.5967  -30.7024   25.7799 H   0  0  0  0  0  0
  -24.9045  -32.2812   26.4979 H   0  0  0  0  0  0
  -25.8100  -30.8747   27.0245 H   0  0  0  0  0  0
  -26.3215  -29.6452   24.1670 H   0  0  0  0  0  0
  -27.4134  -29.7242   25.5265 H   0  0  0  0  0  0
  -27.9180  -30.4014   24.0024 H   0  0  0  0  0  0
  -27.2561  -33.3657   26.2081 H   0  0  0  0  0  0
  -28.3928  -32.6920   25.0496 H   0  0  0  0  0  0
  -28.0713  -31.8600   26.5632 H   0  0  0  0  0  0
  -28.2477  -38.0089   24.7561 H   0  0  0  0  0  0
  -28.1129  -36.2598   24.6261 H   0  0  0  0  0  0
  -27.2281  -37.1269   25.8900 H   0  0  0  0  0  0
  -20.9558  -29.8750   21.6715 H   0  0  0  0  0  0
  -26.0014  -38.2639   24.1579 H   0  0  0  0  0  0
  -25.0195  -13.5722   24.3447 H   0  0  0  0  0  0
  -24.3688  -16.0571   23.5032 H   0  0  0  0  0  0
  -25.0722  -15.9610   18.6856 H   0  0  0  0  0  0
  -26.7228   -9.9480   22.4701 H   0  0  0  0  0  0
  -27.6287  -11.2111   22.4065 H   0  0  0  0  0  0
  -26.5389   -9.8860   19.4005 H   0  0  0  0  0  0
  -28.0105   -9.8692   19.7114 H   0  0  0  0  0  0
  -26.6614  -12.3795   17.4944 H   0  0  0  0  0  0
  -23.9337  -18.2150   21.8699 H   0  0  0  0  0  0
  -23.8620  -18.1224   20.1619 H   0  0  0  0  0  0
  -27.0612  -22.0731   19.6501 H   0  0  0  0  0  0
  -27.4126  -22.0654   21.3324 H   0  0  0  0  0  0
  -24.6374  -21.0626   20.1517 H   0  0  0  0  0  0
  -24.9746  -21.0907   21.8322 H   0  0  0  0  0  0
  -26.1480  -24.2431   21.7190 H   0  0  0  0  0  0
  -25.5613  -24.2765   20.1375 H   0  0  0  0  0  0
  -28.0299  -14.6009   17.7425 H   0  0  0  0  0  0
  -26.1006  -19.0158   19.9839 H   0  0  0  0  0  0
  -26.3265  -19.0300   21.5784 H   0  0  0  0  0  0
  1 25  1  0  0  0
  1 30  2  0  0  0
  1 84  1  0  0  0
  2  3  1  0  0  0
  2 25  1  0  0  0
  2 86  1  0  0  0
  2 87  1  0  0  0
  3  4  1  0  0  0
  3 88  1  0  0  0
  3 89  1  0  0  0
  4  5  1  0  0  0
  4 90  1  0  0  0
  4 91  1  0  0  0
  5  6  1  0  0  0
  5 26  1  0  0  0
  5 92  1  0  0  0
  6 25  1  0  0  0
  6 93  1  0  0  0
  6 94  1  0  0  0
  7  8  2  0  0  0
  7 26  1  0  0  0
  7 29  1  0  0  0
  8  9  1  0  0  0
  8 22  1  0  0  0
  9 10  1  0  0  0
  9 27  2  0  0  0
 10 11  2  0  0  0
 10 15  1  0  0  0
 11 12  1  0  0  0
 11 95  1  0  0  0
 12 13  2  0  0  0
 12 96  1  0  0  0
 13 14  1  0  0  0
 13 31  1  0  0  0
 14 15  2  0  0  0
 14 97  1  0  0  0
 15 98  1  0  0  0
 16 17  2  0  0  0
 16 21  1  0  0  0
 16 31  1  0  0  0
 17 18  1  0  0  0
 17 99  1  0  0  0
 18 19  2  0  0  0
 18100  1  0  0  0
 19 20  1  0  0  0
 19 24  1  0  0  0
 20 21  2  0  0  0
 20101  1  0  0  0
 21 23  1  0  0  0
 22 28  1  0  0  0
 22 32  2  0  0  0
 26 27  1  0  0  0
 28102  1  0  0  0
 28103  1  0  0  0
 29104  1  0  0  0
 29105  1  0  0  0
 33 34  1  0  0  0
 33 66  1  0  0  0
 33 70  2  0  0  0
 34 36  1  0  0  0
 34 59  1  0  0  0
 34106  1  0  0  0
 35 44  2  0  0  0
 35 45  1  0  0  0
 35 68  1  0  0  0
 36 56  1  0  0  0
 36107  1  0  0  0
 37 39  1  0  0  0
 37 47  1  0  0  0
 37 66  1  0  0  0
 37108  1  0  0  0
 38 43  2  0  0  0
 38 46  1  0  0  0
 38 47  1  0  0  0
 39 64  1  0  0  0
 39 67  2  0  0  0
 40 52  1  0  0  0
 40 53  2  0  0  0
 40 58  1  0  0  0
 41109  1  0  0  0
 41110  1  0  0  0
 41111  1  0  0  0
 41 48  1  0  0  0
 42 43  1  0  0  0
 42 66  1  0  0  0
 42112  1  0  0  0
 42113  1  0  0  0
 43 44  1  0  0  0
 44114  1  0  0  0
 45 46  2  0  0  0
 45115  1  0  0  0
 46116  1  0  0  0
 47117  1  0  0  0
 47118  1  0  0  0
 48 56  1  0  0  0
 48 65  1  0  0  0
 48119  1  0  0  0
 49 50  1  0  0  0
 49 53  1  0  0  0
 49 64  1  0  0  0
 49120  1  0  0  0
 50 51  1  0  0  0
 50121  1  0  0  0
 50122  1  0  0  0
 51 52  1  0  0  0
 51123  1  0  0  0
 51124  1  0  0  0
 52125  1  0  0  0
 52126  1  0  0  0
 53 54  1  0  0  0
 54 55  2  0  0  0
 54127  1  0  0  0
 55 57  1  0  0  0
 55128  1  0  0  0
 56 69  2  0  0  0
 57 58  2  0  0  0
 57129  1  0  0  0
 58130  1  0  0  0
 59 60  1  0  0  0
 59 61  1  0  0  0
 59 62  1  0  0  0
 60131  1  0  0  0
 60132  1  0  0  0
 60133  1  0  0  0
 61134  1  0  0  0
 61135  1  0  0  0
 61136  1  0  0  0
 62137  1  0  0  0
 62138  1  0  0  0
 62139  1  0  0  0
 63 65  1  0  0  0
 63140  1  0  0  0
 63141  1  0  0  0
 63142  1  0  0  0
 64143  1  0  0  0
 65144  1  0  0  0
 68 83  1  0  0  0
 71 72  2  0  0  0
 71 74  1  0  0  0
 71145  1  0  0  0
 72 76  1  0  0  0
 72146  1  0  0  0
 73 75  1  0  0  0
 73 76  2  0  0  0
 73147  1  0  0  0
 74 75  2  0  0  0
 74 77  1  0  0  0
 75 79  1  0  0  0
 76 80  1  0  0  0
 77 78  1  0  0  0
 77148  1  0  0  0
 77149  1  0  0  0
 78 79  1  0  0  0
 78150  1  0  0  0
 78151  1  0  0  0
 79 84  1  0  0  0
 79152  1  0  0  0
 80 85  1  0  0  0
 80153  1  0  0  0
 80154  1  0  0  0
 81 82  1  0  0  0
 81 83  1  0  0  0
 81155  1  0  0  0
 81156  1  0  0  0
 82 85  1  0  0  0
 82157  1  0  0  0
 82158  1  0  0  0
 83159  1  0  0  0
 83160  1  0  0  0
 84161  1  0  0  0
 85162  1  0  0  0
 85163  1  0  0  0
M  CHG  1  85   1
M  ISO  4   1 100  68 101  83 101  84 100
M  END
> <chiral flag>
0

> <version>
0

> <s_m_source_file>
/data/baiqing/PycharmProjects/Reinvent-master-3.2/result/LINK_invent/BTK/process_docking_weight1_custom_sum_contain_oxygen_bond_distance_aromatic_linkinvent_7_9_3/rearranged_h_0147.sdf

> <i_m_source_file_index>
83

> <r_mmod_Potential_Energy-OPLS-2005>
23048.1875

> <r_mmod_Stretch_Energy-OPLS-2005>
13321.833984375

> <r_mmod_Bend_Energy-OPLS-2005>
1466.00427246094

> <r_mmod_Torsional_Energy-OPLS-2005>
489.09912109375

> <r_mmod_Improper_Torsional_Energy-OPLS-2005>
68.3666229248047

> <r_mmod_Van_der_Waal_Energy-OPLS-2005>
5827.70703125

> <r_mmod_Electrostatic_Energy-OPLS-2005>
-345.41162109375

> <r_mmod_Solvation_Energy-OPLS-2005>
-487.297302246094

> <b_mmod_Minimization_Converged-OPLS-2005>
0

> <r_mmod_RMS_Derivative-OPLS-2005>
23.1744480133057

$$$$
83
                    3D
 Structure written by MMmdl.
169178  0  0  1  0            999 V2000
  -30.7269  -14.4306   20.6068 C   0  0  0  0  0  0
  -30.4168  -12.2985   19.4020 C   0  0  0  0  0  0
  -29.4818  -12.5032   18.1934 C   0  0  0  0  0  0
  -28.0074  -12.3466   18.6135 C   0  0  0  0  0  0
  -27.6553  -13.1860   19.8682 C   0  0  2  0  0  0
  -28.6999  -12.9724   20.9868 C   0  0  0  0  0  0
  -25.2599  -13.8107   20.5675 C   0  0  0  0  0  0
  -24.1832  -13.0419   20.9171 C   0  0  0  0  0  0
  -24.6357  -11.6875   20.8742 C   0  0  0  0  0  0
  -23.9024  -10.4280   21.0419 C   0  0  0  0  0  0
  -24.3589   -9.4200   21.9193 C   0  0  0  0  0  0
  -23.6271   -8.2236   22.0760 C   0  0  0  0  0  0
  -22.4257   -8.0272   21.3545 C   0  0  0  0  0  0
  -21.9886   -9.0241   20.4648 C   0  0  0  0  0  0
  -22.7204  -10.2127   20.3064 C   0  0  0  0  0  0
  -21.6842   -6.0733   22.5278 C   0  0  0  0  0  0
  -21.4006   -6.5636   23.8211 C   0  0  0  0  0  0
  -21.3655   -5.6788   24.9172 C   0  0  0  0  0  0
  -21.6042   -4.3052   24.7225 C   0  0  0  0  0  0
  -21.8820   -3.8144   23.4347 C   0  0  0  0  0  0
  -21.9190   -4.6960   22.3402 C   0  0  0  0  0  0
  -22.7868  -13.5241   21.1836 C   0  0  0  0  0  0
  -22.1663   -4.2150   21.0978 F   0  0  0  0  0  0
  -21.5626   -3.4539   25.7741 F   0  0  0  0  0  0
  -30.0324  -13.2732   20.4332 N   0  0  0  0  0  0
  -26.2988  -12.9222   20.3344 N   0  0  0  0  0  0
  -25.9269  -11.6407   20.5758 N   0  0  0  0  0  0
  -22.0493  -12.8245   22.0386 N   0  0  0  0  0  0
  -25.4365  -15.1829   20.4094 N   0  0  0  0  0  0
  -31.8441  -14.6262   20.1165 O   0  0  0  0  0  0
  -21.6622   -6.8876   21.4239 O   0  0  0  0  0  0
  -22.3573  -14.5554   20.6689 O   0  0  0  0  0  0
  -24.6114  -31.8699   23.2120 C   0  0  0  0  0  0
  -25.9024  -32.4828   23.8408 C   0  0  1  0  0  0
  -27.2390  -27.4700   20.0767 C   0  0  0  0  0  0
  -25.5913  -33.8628   24.2346 N   0  0  0  0  0  0
  -23.3978  -30.4922   21.5522 C   0  0  2  0  0  0
  -24.8440  -28.9591   20.1165 C   0  0  0  0  0  0
  -22.7384  -29.4666   22.5011 C   0  0  0  0  0  0
  -18.0271  -28.1380   22.8483 C   0  0  0  0  0  0
  -24.1483  -36.7303   23.2619 C   0  0  0  0  0  0
  -25.9230  -30.8411   21.3630 C   0  0  0  0  0  0
  -26.0006  -29.4763   20.7139 C   0  0  0  0  0  0
  -27.1988  -28.7316   20.7045 C   0  0  0  0  0  0
  -26.0643  -26.9490   19.4933 C   0  0  0  0  0  0
  -24.8670  -27.6896   19.5109 C   0  0  0  0  0  0
  -23.6043  -29.8223   20.1669 C   0  0  0  0  0  0
  -25.4095  -36.3111   24.0342 C   0  0  1  0  0  0
  -20.5854  -28.3662   23.1326 C   0  0  2  0  0  0
  -20.6759  -26.9398   22.5433 C   0  0  0  0  0  0
  -19.5759  -26.6385   21.5210 C   0  0  0  0  0  0
  -18.1919  -26.7945   22.1582 C   0  0  0  0  0  0
  -19.1518  -28.8839   23.2905 C   0  0  0  0  0  0
  -18.9448  -30.1447   23.8913 C   0  0  0  0  0  0
  -17.6452  -30.6581   24.0573 C   0  0  0  0  0  0
  -25.9044  -34.9482   23.5137 C   0  0  0  0  0  0
  -16.5345  -29.9082   23.6332 C   0  0  0  0  0  0
  -16.7263  -28.6506   23.0341 C   0  0  0  0  0  0
  -26.4470  -31.6596   25.0721 C   0  0  0  0  0  0
  -25.3757  -31.3703   26.1491 C   0  0  0  0  0  0
  -27.0276  -30.3038   24.6079 C   0  0  0  0  0  0
  -27.6072  -32.4303   25.7454 C   0  0  0  0  0  0
  -27.5633  -37.1733   24.8415 C   0  0  0  0  0  0
  -21.4121  -29.3026   22.3731 N   0  0  0  0  0  0
  -26.4255  -37.3824   23.9495 N   0  0  0  0  0  0
  -24.6618  -31.0815   22.1011 N   0  0  0  0  0  0
  -23.4161  -28.8224   23.3061 O   0  0  0  0  0  0
  -28.4068  -26.7498   20.0749 O   0  0  0  0  0  0
  -26.5594  -34.8931   22.4690 O   0  0  0  0  0  0
  -23.5317  -32.1453   23.7530 O   0  0  0  0  0  0
  -31.5874  -21.2734   19.6235 C   0  0  0  0  0  0
  -29.5553  -21.0529   20.9351 C   0  0  0  0  0  0
  -31.0577  -22.4032   18.9651 C   0  0  0  0  0  0
  -29.0222  -22.1957   20.2994 C   0  0  0  0  0  0
  -30.8492  -20.5907   20.6088 C   0  0  0  0  0  0
  -29.7764  -22.8940   19.3285 C   0  0  0  0  0  0
  -31.4525  -17.2461   22.2890 C   0  0  0  0  0  0
  -30.0169  -17.6709   20.2703 C   0  0  0  0  0  0
  -30.6500  -15.9507   22.5428 C   0  0  0  0  0  0
  -29.2481  -16.3765   20.5885 C   0  0  0  0  0  0
  -30.6179  -18.3023   21.5389 C   0  0  0  0  0  0
  -31.8772  -23.0268   17.8486 C   0  0  0  0  0  0
  -27.6307  -22.6793   20.6664 C   0  0  0  0  0  0
  -28.9159  -26.4077   18.7893 C   0  0  0  0  0  0
  -29.9013  -25.2355   18.9099 C   0  0  0  0  0  0
  -30.0903  -15.4020   21.2999 N   0  0  0  0  0  0
  -31.4346  -19.4703   21.2192 N   0  0  0  0  0  0
  -29.2040  -24.0006   18.7437 O   0  0  0  0  0  0
  -31.4592  -12.4001   19.0947 H   0  0  0  0  0  0
  -30.3209  -11.2839   19.7918 H   0  0  0  0  0  0
  -29.7219  -11.7886   17.4050 H   0  0  0  0  0  0
  -29.6380  -13.4945   17.7650 H   0  0  0  0  0  0
  -27.8293  -11.2895   18.8139 H   0  0  0  0  0  0
  -27.3492  -12.6129   17.7852 H   0  0  0  0  0  0
  -27.6831  -14.2243   19.5538 H   0  0  0  0  0  0
  -28.6763  -11.9384   21.3332 H   0  0  0  0  0  0
  -28.4563  -13.5774   21.8611 H   0  0  0  0  0  0
  -25.2739   -9.5677   22.4759 H   0  0  0  0  0  0
  -23.9983   -7.4631   22.7485 H   0  0  0  0  0  0
  -21.0818   -8.8753   19.8955 H   0  0  0  0  0  0
  -22.3661  -10.9666   19.6174 H   0  0  0  0  0  0
  -21.1995   -7.6142   23.9715 H   0  0  0  0  0  0
  -21.1471   -6.0518   25.9075 H   0  0  0  0  0  0
  -22.0602   -2.7609   23.2845 H   0  0  0  0  0  0
  -22.4090  -11.9892   22.4757 H   0  0  0  0  0  0
  -21.1128  -13.1308   22.2603 H   0  0  0  0  0  0
  -24.6757  -15.8435   20.5236 H   0  0  0  0  0  0
  -26.2987  -15.6193   20.1093 H   0  0  0  0  0  0
  -26.7095  -32.5550   23.1177 H   0  0  0  0  0  0
  -25.0116  -33.9807   25.0524 H   0  0  0  0  0  0
  -22.6861  -31.3084   21.4120 H   0  0  0  0  0  0
  -23.3822  -35.9546   23.3102 H   0  0  0  0  0  0
  -24.3640  -36.9100   22.2075 H   0  0  0  0  0  0
  -23.7108  -37.6394   23.6747 H   0  0  0  0  0  0
  -26.0314  -31.6065   20.5935 H   0  0  0  0  0  0
  -26.8120  -30.8962   21.9788 H   0  0  0  0  0  0
  -28.0943  -29.1271   21.1633 H   0  0  0  0  0  0
  -26.0691  -25.9692   19.0371 H   0  0  0  0  0  0
  -23.9732  -27.2791   19.0613 H   0  0  0  0  0  0
  -23.7088  -30.5962   19.4056 H   0  0  0  0  0  0
  -22.7295  -29.2387   19.8735 H   0  0  0  0  0  0
  -25.1235  -36.1945   25.0823 H   0  0  0  0  0  0
  -20.9939  -28.3236   24.1449 H   0  0  0  0  0  0
  -20.5644  -26.2271   23.3623 H   0  0  0  0  0  0
  -21.6639  -26.7431   22.1256 H   0  0  0  0  0  0
  -19.6922  -25.6293   21.1245 H   0  0  0  0  0  0
  -19.6733  -27.3192   20.6742 H   0  0  0  0  0  0
  -17.4219  -26.6746   21.3945 H   0  0  0  0  0  0
  -18.0266  -26.0058   22.8936 H   0  0  0  0  0  0
  -19.7923  -30.7268   24.2281 H   0  0  0  0  0  0
  -17.5001  -31.6261   24.5179 H   0  0  0  0  0  0
  -15.5345  -30.2988   23.7651 H   0  0  0  0  0  0
  -15.8665  -28.0837   22.7033 H   0  0  0  0  0  0
  -24.5955  -30.7005   25.7859 H   0  0  0  0  0  0
  -24.8918  -32.2848   26.4923 H   0  0  0  0  0  0
  -25.8143  -30.8913   27.0255 H   0  0  0  0  0  0
  -26.2787  -29.6795   24.1191 H   0  0  0  0  0  0
  -27.4108  -29.7281   25.4517 H   0  0  0  0  0  0
  -27.8604  -30.4353   23.9164 H   0  0  0  0  0  0
  -27.2735  -33.3611   26.2048 H   0  0  0  0  0  0
  -28.3856  -32.6841   25.0244 H   0  0  0  0  0  0
  -28.0768  -31.8410   26.5341 H   0  0  0  0  0  0
  -28.2443  -38.0228   24.7794 H   0  0  0  0  0  0
  -28.1326  -36.2801   24.5790 H   0  0  0  0  0  0
  -27.2437  -37.0846   25.8811 H   0  0  0  0  0  0
  -20.9282  -29.8730   21.6940 H   0  0  0  0  0  0
  -26.0130  -38.2841   24.1729 H   0  0  0  0  0  0
  -32.5690  -20.9156   19.3449 H   0  0  0  0  0  0
  -28.9631  -20.5457   21.6829 H   0  0  0  0  0  0
  -32.3513  -17.0025   21.7201 H   0  0  0  0  0  0
  -31.7948  -17.6510   23.2427 H   0  0  0  0  0  0
  -29.3424  -18.3721   19.7772 H   0  0  0  0  0  0
  -30.8087  -17.4524   19.5517 H   0  0  0  0  0  0
  -29.8285  -16.1532   23.2315 H   0  0  0  0  0  0
  -31.2819  -15.2100   23.0369 H   0  0  0  0  0  0
  -28.8878  -15.9724   19.6436 H   0  0  0  0  0  0
  -28.3664  -16.5956   21.1921 H   0  0  0  0  0  0
  -29.8059  -18.6058   22.2009 H   0  0  0  0  0  0
  -32.5095  -22.2806   17.3666 H   0  0  0  0  0  0
  -32.5230  -23.8119   18.2417 H   0  0  0  0  0  0
  -31.2380  -23.4461   17.0719 H   0  0  0  0  0  0
  -27.1935  -22.0785   21.4641 H   0  0  0  0  0  0
  -26.9698  -22.6231   19.8008 H   0  0  0  0  0  0
  -27.6624  -23.7162   21.0028 H   0  0  0  0  0  0
  -28.1447  -26.1767   18.0534 H   0  0  0  0  0  0
  -29.4468  -27.2844   18.4155 H   0  0  0  0  0  0
  -30.4378  -25.2792   19.8596 H   0  0  0  0  0  0
  -30.6402  -25.3444   18.1191 H   0  0  0  0  0  0
  -32.3849  -19.2614   20.9254 H   0  0  0  0  0  0
  1 25  1  0  0  0
  1 30  2  0  0  0
  1 86  1  0  0  0
  2  3  1  0  0  0
  2 25  1  0  0  0
  2 89  1  0  0  0
  2 90  1  0  0  0
  3  4  1  0  0  0
  3 91  1  0  0  0
  3 92  1  0  0  0
  4  5  1  0  0  0
  4 93  1  0  0  0
  4 94  1  0  0  0
  5  6  1  0  0  0
  5 26  1  0  0  0
  5 95  1  0  0  0
  6 25  1  0  0  0
  6 96  1  0  0  0
  6 97  1  0  0  0
  7  8  2  0  0  0
  7 26  1  0  0  0
  7 29  1  0  0  0
  8  9  1  0  0  0
  8 22  1  0  0  0
  9 10  1  0  0  0
  9 27  2  0  0  0
 10 11  2  0  0  0
 10 15  1  0  0  0
 11 12  1  0  0  0
 11 98  1  0  0  0
 12 13  2  0  0  0
 12 99  1  0  0  0
 13 14  1  0  0  0
 13 31  1  0  0  0
 14 15  2  0  0  0
 14100  1  0  0  0
 15101  1  0  0  0
 16 17  2  0  0  0
 16 21  1  0  0  0
 16 31  1  0  0  0
 17 18  1  0  0  0
 17102  1  0  0  0
 18 19  2  0  0  0
 18103  1  0  0  0
 19 20  1  0  0  0
 19 24  1  0  0  0
 20 21  2  0  0  0
 20104  1  0  0  0
 21 23  1  0  0  0
 22 28  1  0  0  0
 22 32  2  0  0  0
 26 27  1  0  0  0
 28105  1  0  0  0
 28106  1  0  0  0
 29107  1  0  0  0
 29108  1  0  0  0
 33 34  1  0  0  0
 33 66  1  0  0  0
 33 70  2  0  0  0
 34 36  1  0  0  0
 34 59  1  0  0  0
 34109  1  0  0  0
 35 44  2  0  0  0
 35 45  1  0  0  0
 35 68  1  0  0  0
 36 56  1  0  0  0
 36110  1  0  0  0
 37 39  1  0  0  0
 37 47  1  0  0  0
 37 66  1  0  0  0
 37111  1  0  0  0
 38 43  2  0  0  0
 38 46  1  0  0  0
 38 47  1  0  0  0
 39 64  1  0  0  0
 39 67  2  0  0  0
 40 52  1  0  0  0
 40 53  2  0  0  0
 40 58  1  0  0  0
 41112  1  0  0  0
 41113  1  0  0  0
 41114  1  0  0  0
 41 48  1  0  0  0
 42 43  1  0  0  0
 42 66  1  0  0  0
 42115  1  0  0  0
 42116  1  0  0  0
 43 44  1  0  0  0
 44117  1  0  0  0
 45 46  2  0  0  0
 45118  1  0  0  0
 46119  1  0  0  0
 47120  1  0  0  0
 47121  1  0  0  0
 48 56  1  0  0  0
 48 65  1  0  0  0
 48122  1  0  0  0
 49 50  1  0  0  0
 49 53  1  0  0  0
 49 64  1  0  0  0
 49123  1  0  0  0
 50 51  1  0  0  0
 50124  1  0  0  0
 50125  1  0  0  0
 51 52  1  0  0  0
 51126  1  0  0  0
 51127  1  0  0  0
 52128  1  0  0  0
 52129  1  0  0  0
 53 54  1  0  0  0
 54 55  2  0  0  0
 54130  1  0  0  0
 55 57  1  0  0  0
 55131  1  0  0  0
 56 69  2  0  0  0
 57 58  2  0  0  0
 57132  1  0  0  0
 58133  1  0  0  0
 59 60  1  0  0  0
 59 61  1  0  0  0
 59 62  1  0  0  0
 60134  1  0  0  0
 60135  1  0  0  0
 60136  1  0  0  0
 61137  1  0  0  0
 61138  1  0  0  0
 61139  1  0  0  0
 62140  1  0  0  0
 62141  1  0  0  0
 62142  1  0  0  0
 63 65  1  0  0  0
 63143  1  0  0  0
 63144  1  0  0  0
 63145  1  0  0  0
 64146  1  0  0  0
 65147  1  0  0  0
 68 84  1  0  0  0
 71 73  2  0  0  0
 71 75  1  0  0  0
 71148  1  0  0  0
 72 74  1  0  0  0
 72 75  2  0  0  0
 72149  1  0  0  0
 73 76  1  0  0  0
 73 82  1  0  0  0
 74 76  2  0  0  0
 74 83  1  0  0  0
 75 87  1  0  0  0
 76 88  1  0  0  0
 77 79  1  0  0  0
 77 81  1  0  0  0
 77150  1  0  0  0
 77151  1  0  0  0
 78 80  1  0  0  0
 78 81  1  0  0  0
 78152  1  0  0  0
 78153  1  0  0  0
 79 86  1  0  0  0
 79154  1  0  0  0
 79155  1  0  0  0
 80 86  1  0  0  0
 80156  1  0  0  0
 80157  1  0  0  0
 81 87  1  0  0  0
 81158  1  0  0  0
 82159  1  0  0  0
 82160  1  0  0  0
 82161  1  0  0  0
 83162  1  0  0  0
 83163  1  0  0  0
 83164  1  0  0  0
 84 85  1  0  0  0
 84165  1  0  0  0
 84166  1  0  0  0
 85 88  1  0  0  0
 85167  1  0  0  0
 85168  1  0  0  0
 87169  1  0  0  0
M  ISO  4   1 100  68 101  84 101  86 100
M  END
> <chiral flag>
0

> <version>
0

> <s_m_source_file>
/data/baiqing/PycharmProjects/Reinvent-master-3.2/result/LINK_invent/BTK/process_docking_weight1_custom_sum_contain_oxygen_bond_distance_aromatic_linkinvent_7_9_3/rearranged_h_0147.sdf

> <i_m_source_file_index>
84

> <r_mmod_Potential_Energy-OPLS-2005>
126.686187744141

> <r_mmod_Stretch_Energy-OPLS-2005>
34.6193351745605

> <r_mmod_Bend_Energy-OPLS-2005>
100.64022064209

> <r_mmod_Torsional_Energy-OPLS-2005>
356.330017089844

> <r_mmod_Improper_Torsional_Energy-OPLS-2005>
7.02155160903931

> <r_mmod_Van_der_Waal_Energy-OPLS-2005>
155.493957519531

> <r_mmod_Electrostatic_Energy-OPLS-2005>
-330.366607666016

> <r_mmod_Solvation_Energy-OPLS-2005>
-207.015899658203

> <b_mmod_Minimization_Converged-OPLS-2005>
0

> <r_mmod_RMS_Derivative-OPLS-2005>
1.04139363765717

$$$$
84
                    3D
 Structure written by MMmdl.
160169  0  0  1  0            999 V2000
  -30.6109  -14.7636   20.4359 C   0  0  0  0  0  0
  -30.4264  -12.4614   19.4815 C   0  0  0  0  0  0
  -29.5098  -12.5026   18.2395 C   0  0  0  0  0  0
  -28.0356  -12.3288   18.6516 C   0  0  0  0  0  0
  -27.6368  -13.2341   19.8470 C   0  0  2  0  0  0
  -28.6810  -13.1890   20.9838 C   0  0  0  0  0  0
  -25.2490  -13.8207   20.5701 C   0  0  0  0  0  0
  -24.1795  -13.0445   20.9236 C   0  0  0  0  0  0
  -24.6393  -11.6926   20.8774 C   0  0  0  0  0  0
  -23.9084  -10.4302   21.0427 C   0  0  0  0  0  0
  -24.3629   -9.4212   21.9206 C   0  0  0  0  0  0
  -23.6300   -8.2243   22.0761 C   0  0  0  0  0  0
  -22.4284   -8.0281   21.3543 C   0  0  0  0  0  0
  -21.9926   -9.0264   20.4652 C   0  0  0  0  0  0
  -22.7258  -10.2144   20.3070 C   0  0  0  0  0  0
  -21.6856   -6.0750   22.5284 C   0  0  0  0  0  0
  -21.4015   -6.5652   23.8218 C   0  0  0  0  0  0
  -21.3654   -5.6803   24.9180 C   0  0  0  0  0  0
  -21.6034   -4.3067   24.7232 C   0  0  0  0  0  0
  -21.8813   -3.8158   23.4357 C   0  0  0  0  0  0
  -21.9192   -4.6975   22.3413 C   0  0  0  0  0  0
  -22.7815  -13.5218   21.1893 C   0  0  0  0  0  0
  -22.1656   -4.2160   21.0989 F   0  0  0  0  0  0
  -21.5628   -3.4551   25.7747 F   0  0  0  0  0  0
  -29.9778  -13.5389   20.3949 N   0  0  0  0  0  0
  -26.2907  -12.9413   20.3276 N   0  0  0  0  0  0
  -25.9323  -11.6556   20.5772 N   0  0  0  0  0  0
  -22.0461  -12.8192   22.0437 N   0  0  0  0  0  0
  -25.4160  -15.1936   20.4081 N   0  0  0  0  0  0
  -31.8141  -14.7999   20.1549 O   0  0  0  0  0  0
  -21.6632   -6.8888   21.4241 O   0  0  0  0  0  0
  -22.3501  -14.5525   20.6741 O   0  0  0  0  0  0
  -24.6315  -31.8560   23.1995 C   0  0  0  0  0  0
  -25.9147  -32.4748   23.8345 C   0  0  1  0  0  0
  -27.2152  -27.2689   20.1358 C   0  0  0  0  0  0
  -25.5938  -33.8552   24.2266 N   0  0  0  0  0  0
  -23.4262  -30.4776   21.5430 C   0  0  2  0  0  0
  -24.8730  -28.9210   20.1150 C   0  0  0  0  0  0
  -22.7499  -29.4602   22.4935 C   0  0  0  0  0  0
  -18.0285  -28.1384   22.8491 C   0  0  0  0  0  0
  -24.1492  -36.7279   23.2643 C   0  0  0  0  0  0
  -25.9707  -30.7738   21.3749 C   0  0  0  0  0  0
  -26.0444  -29.3958   20.7186 C   0  0  0  0  0  0
  -27.2236  -28.5837   20.7113 C   0  0  0  0  0  0
  -26.0225  -26.8499   19.5156 C   0  0  0  0  0  0
  -24.8658  -27.6562   19.5026 C   0  0  0  0  0  0
  -23.6431  -29.8085   20.1604 C   0  0  0  0  0  0
  -25.4119  -36.3062   24.0323 C   0  0  1  0  0  0
  -20.5888  -28.3693   23.1293 C   0  0  2  0  0  0
  -20.6777  -26.9409   22.5423 C   0  0  0  0  0  0
  -19.5750  -26.6378   21.5232 C   0  0  0  0  0  0
  -18.1919  -26.7927   22.1626 C   0  0  0  0  0  0
  -19.1537  -28.8856   23.2886 C   0  0  0  0  0  0
  -18.9469  -30.1461   23.8900 C   0  0  0  0  0  0
  -17.6469  -30.6593   24.0554 C   0  0  0  0  0  0
  -25.9067  -34.9432   23.5095 C   0  0  0  0  0  0
  -16.5360  -29.9084   23.6336 C   0  0  0  0  0  0
  -16.7273  -28.6500   23.0361 C   0  0  0  0  0  0
  -26.4519  -31.6575   25.0735 C   0  0  0  0  0  0
  -25.3732  -31.3703   26.1454 C   0  0  0  0  0  0
  -27.0377  -30.2993   24.6224 C   0  0  0  0  0  0
  -27.6085  -32.4325   25.7487 C   0  0  0  0  0  0
  -27.5575  -37.1784   24.8463 C   0  0  0  0  0  0
  -21.4205  -29.3036   22.3687 N   0  0  0  0  0  0
  -26.4287  -37.3772   23.9415 N   0  0  0  0  0  0
  -24.6950  -31.0534   22.0960 N   0  0  0  0  0  0
  -23.4212  -28.8164   23.3049 O   0  0  0  0  0  0
  -28.3136  -26.3874   20.1312 O   0  0  0  0  0  0
  -26.5645  -34.8901   22.4670 O   0  0  0  0  0  0
  -23.5465  -32.1388   23.7294 O   0  0  0  0  0  0
  -29.2280  -18.4553   20.3757 C   0  0  0  0  0  0
  -31.8506  -18.9835   19.9873 C   0  0  0  0  0  0
  -30.9586  -20.0674   19.8724 C   0  0  0  0  0  0
  -29.5836  -19.8518   20.1367 C   0  0  0  0  0  0
  -30.1971  -17.3646   20.4050 C   0  0  0  0  0  0
  -30.3260  -21.7573   17.0287 C   0  0  0  0  0  0
  -31.4914  -22.7123   17.0690 C   0  0  0  0  0  0
  -31.5620  -21.4031   17.8258 C   0  0  0  0  0  0
  -31.5362  -21.3788   19.3456 C   0  0  0  0  0  0
  -28.4763  -23.6380   19.8755 C   0  0  0  0  0  0
  -28.1588  -25.0026   20.6948 C   0  0  0  0  0  0
  -28.6790  -22.2316   20.6760 C   0  0  0  0  0  0
  -31.4924  -17.7117   20.2479 N   0  0  0  0  0  0
  -29.8431  -15.9245   20.5780 N   0  0  0  0  0  0
  -28.6261  -20.9029   19.9837 O   0  0  0  0  0  0
  -31.4685  -12.5770   19.1795 H   0  0  0  0  0  0
  -30.3670  -11.4912   19.9782 H   0  0  0  0  0  0
  -29.7951  -11.7208   17.5352 H   0  0  0  0  0  0
  -29.6371  -13.4511   17.7148 H   0  0  0  0  0  0
  -27.8970  -11.2821   18.9234 H   0  0  0  0  0  0
  -27.3782  -12.5122   17.8013 H   0  0  0  0  0  0
  -27.6243  -14.2511   19.4551 H   0  0  0  0  0  0
  -28.7223  -12.1986   21.4404 H   0  0  0  0  0  0
  -28.4181  -13.8851   21.7819 H   0  0  0  0  0  0
  -25.2772   -9.5680   22.4791 H   0  0  0  0  0  0
  -24.0010   -7.4632   22.7476 H   0  0  0  0  0  0
  -21.0861   -8.8787   19.8958 H   0  0  0  0  0  0
  -22.3727  -10.9687   19.6181 H   0  0  0  0  0  0
  -21.2004   -7.6161   23.9725 H   0  0  0  0  0  0
  -21.1477   -6.0539   25.9080 H   0  0  0  0  0  0
  -22.0597   -2.7620   23.2859 H   0  0  0  0  0  0
  -22.4068  -11.9851   22.4818 H   0  0  0  0  0  0
  -21.1071  -13.1202   22.2638 H   0  0  0  0  0  0
  -24.6408  -15.8405   20.5058 H   0  0  0  0  0  0
  -26.2451  -15.6293   20.0267 H   0  0  0  0  0  0
  -26.7201  -32.5410   23.1079 H   0  0  0  0  0  0
  -25.0055  -33.9711   25.0383 H   0  0  0  0  0  0
  -22.7211  -31.2984   21.3958 H   0  0  0  0  0  0
  -23.3757  -35.9605   23.3304 H   0  0  0  0  0  0
  -24.3583  -36.8929   22.2059 H   0  0  0  0  0  0
  -23.7252  -37.6470   23.6694 H   0  0  0  0  0  0
  -26.1069  -31.5353   20.6054 H   0  0  0  0  0  0
  -26.8486  -30.8250   22.0073 H   0  0  0  0  0  0
  -28.1267  -28.9437   21.1847 H   0  0  0  0  0  0
  -25.9827  -25.8772   19.0452 H   0  0  0  0  0  0
  -23.9658  -27.2899   19.0296 H   0  0  0  0  0  0
  -23.7642  -30.5843   19.4035 H   0  0  0  0  0  0
  -22.7595  -29.2432   19.8578 H   0  0  0  0  0  0
  -25.1290  -36.1896   25.0812 H   0  0  0  0  0  0
  -20.9982  -28.3290   24.1415 H   0  0  0  0  0  0
  -20.5710  -26.2301   23.3634 H   0  0  0  0  0  0
  -21.6637  -26.7453   22.1188 H   0  0  0  0  0  0
  -19.6934  -25.6297   21.1253 H   0  0  0  0  0  0
  -19.6693  -27.3197   20.6773 H   0  0  0  0  0  0
  -17.4196  -26.6702   21.4014 H   0  0  0  0  0  0
  -18.0290  -26.0058   22.9012 H   0  0  0  0  0  0
  -19.7951  -30.7265   24.2269 H   0  0  0  0  0  0
  -17.5021  -31.6273   24.5159 H   0  0  0  0  0  0
  -15.5361  -30.2981   23.7664 H   0  0  0  0  0  0
  -15.8670  -28.0816   22.7086 H   0  0  0  0  0  0
  -24.5956  -30.7002   25.7785 H   0  0  0  0  0  0
  -24.8846  -32.2834   26.4858 H   0  0  0  0  0  0
  -25.8037  -30.8917   27.0256 H   0  0  0  0  0  0
  -26.2962  -29.6716   24.1269 H   0  0  0  0  0  0
  -27.4087  -29.7299   25.4756 H   0  0  0  0  0  0
  -27.8823  -30.4278   23.9450 H   0  0  0  0  0  0
  -27.2741  -33.3671   26.2004 H   0  0  0  0  0  0
  -28.3910  -32.6826   25.0307 H   0  0  0  0  0  0
  -28.0729  -31.8479   26.5436 H   0  0  0  0  0  0
  -28.2575  -38.0094   24.7518 H   0  0  0  0  0  0
  -28.1081  -36.2623   24.6268 H   0  0  0  0  0  0
  -27.2287  -37.1411   25.8863 H   0  0  0  0  0  0
  -20.9413  -29.8727   21.6850 H   0  0  0  0  0  0
  -26.0157  -38.2843   24.1425 H   0  0  0  0  0  0
  -28.1816  -18.2188   20.5101 H   0  0  0  0  0  0
  -32.9045  -19.1270   19.8002 H   0  0  0  0  0  0
  -30.1558  -21.2107   16.1038 H   0  0  0  0  0  0
  -29.4262  -22.0320   17.5732 H   0  0  0  0  0  0
  -31.3771  -23.6294   17.6446 H   0  0  0  0  0  0
  -32.0856  -22.8072   16.1617 H   0  0  0  0  0  0
  -32.2005  -20.6386   17.3863 H   0  0  0  0  0  0
  -32.5618  -21.4812   19.7020 H   0  0  0  0  0  0
  -31.0225  -22.2578   19.7149 H   0  0  0  0  0  0
  -29.3651  -23.8109   19.2705 H   0  0  0  0  0  0
  -27.6659  -23.5035   19.1595 H   0  0  0  0  0  0
  -28.8258  -24.9934   21.5579 H   0  0  0  0  0  0
  -27.1644  -24.9055   21.1323 H   0  0  0  0  0  0
  -27.8641  -22.1790   21.3990 H   0  0  0  0  0  0
  -29.5697  -22.2899   21.3009 H   0  0  0  0  0  0
  -28.8686  -15.7488   20.7606 H   0  0  0  0  0  0
  1 25  1  0  0  0
  1 30  2  0  0  0
  1 84  1  0  0  0
  2  3  1  0  0  0
  2 25  1  0  0  0
  2 86  1  0  0  0
  2 87  1  0  0  0
  3  4  1  0  0  0
  3 88  1  0  0  0
  3 89  1  0  0  0
  4  5  1  0  0  0
  4 90  1  0  0  0
  4 91  1  0  0  0
  5  6  1  0  0  0
  5 26  1  0  0  0
  5 92  1  0  0  0
  6 25  1  0  0  0
  6 93  1  0  0  0
  6 94  1  0  0  0
  7  8  2  0  0  0
  7 26  1  0  0  0
  7 29  1  0  0  0
  8  9  1  0  0  0
  8 22  1  0  0  0
  9 10  1  0  0  0
  9 27  2  0  0  0
 10 11  2  0  0  0
 10 15  1  0  0  0
 11 12  1  0  0  0
 11 95  1  0  0  0
 12 13  2  0  0  0
 12 96  1  0  0  0
 13 14  1  0  0  0
 13 31  1  0  0  0
 14 15  2  0  0  0
 14 97  1  0  0  0
 15 98  1  0  0  0
 16 17  2  0  0  0
 16 21  1  0  0  0
 16 31  1  0  0  0
 17 18  1  0  0  0
 17 99  1  0  0  0
 18 19  2  0  0  0
 18100  1  0  0  0
 19 20  1  0  0  0
 19 24  1  0  0  0
 20 21  2  0  0  0
 20101  1  0  0  0
 21 23  1  0  0  0
 22 28  1  0  0  0
 22 32  2  0  0  0
 26 27  1  0  0  0
 28102  1  0  0  0
 28103  1  0  0  0
 29104  1  0  0  0
 29105  1  0  0  0
 33 34  1  0  0  0
 33 66  1  0  0  0
 33 70  2  0  0  0
 34 36  1  0  0  0
 34 59  1  0  0  0
 34106  1  0  0  0
 35 44  2  0  0  0
 35 45  1  0  0  0
 35 68  1  0  0  0
 36 56  1  0  0  0
 36107  1  0  0  0
 37 39  1  0  0  0
 37 47  1  0  0  0
 37 66  1  0  0  0
 37108  1  0  0  0
 38 43  2  0  0  0
 38 46  1  0  0  0
 38 47  1  0  0  0
 39 64  1  0  0  0
 39 67  2  0  0  0
 40 52  1  0  0  0
 40 53  2  0  0  0
 40 58  1  0  0  0
 41109  1  0  0  0
 41110  1  0  0  0
 41111  1  0  0  0
 41 48  1  0  0  0
 42 43  1  0  0  0
 42 66  1  0  0  0
 42112  1  0  0  0
 42113  1  0  0  0
 43 44  1  0  0  0
 44114  1  0  0  0
 45 46  2  0  0  0
 45115  1  0  0  0
 46116  1  0  0  0
 47117  1  0  0  0
 47118  1  0  0  0
 48 56  1  0  0  0
 48 65  1  0  0  0
 48119  1  0  0  0
 49 50  1  0  0  0
 49 53  1  0  0  0
 49 64  1  0  0  0
 49120  1  0  0  0
 50 51  1  0  0  0
 50121  1  0  0  0
 50122  1  0  0  0
 51 52  1  0  0  0
 51123  1  0  0  0
 51124  1  0  0  0
 52125  1  0  0  0
 52126  1  0  0  0
 53 54  1  0  0  0
 54 55  2  0  0  0
 54127  1  0  0  0
 55 57  1  0  0  0
 55128  1  0  0  0
 56 69  2  0  0  0
 57 58  2  0  0  0
 57129  1  0  0  0
 58130  1  0  0  0
 59 60  1  0  0  0
 59 61  1  0  0  0
 59 62  1  0  0  0
 60131  1  0  0  0
 60132  1  0  0  0
 60133  1  0  0  0
 61134  1  0  0  0
 61135  1  0  0  0
 61136  1  0  0  0
 62137  1  0  0  0
 62138  1  0  0  0
 62139  1  0  0  0
 63 65  1  0  0  0
 63140  1  0  0  0
 63141  1  0  0  0
 63142  1  0  0  0
 64143  1  0  0  0
 65144  1  0  0  0
 68 81  1  0  0  0
 71 74  2  0  0  0
 71 75  1  0  0  0
 71145  1  0  0  0
 72 73  2  0  0  0
 72 83  1  0  0  0
 72146  1  0  0  0
 73 74  1  0  0  0
 73 79  1  0  0  0
 74 85  1  0  0  0
 75 83  2  0  0  0
 75 84  1  0  0  0
 76 77  1  0  0  0
 76 78  1  0  0  0
 76147  1  0  0  0
 76148  1  0  0  0
 77 78  1  0  0  0
 77149  1  0  0  0
 77150  1  0  0  0
 78 79  1  0  0  0
 78151  1  0  0  0
 79152  1  0  0  0
 79153  1  0  0  0
 80 81  1  0  0  0
 80 82  1  0  0  0
 80154  1  0  0  0
 80155  1  0  0  0
 81156  1  0  0  0
 81157  1  0  0  0
 82 85  1  0  0  0
 82158  1  0  0  0
 82159  1  0  0  0
 84160  1  0  0  0
M  ISO  4   1 100  68 101  81 101  84 100
M  END
> <chiral flag>
0

> <version>
0

> <s_m_source_file>
/data/baiqing/PycharmProjects/Reinvent-master-3.2/result/LINK_invent/BTK/process_docking_weight1_custom_sum_contain_oxygen_bond_distance_aromatic_linkinvent_7_9_3/rearranged_h_0147.sdf

> <i_m_source_file_index>
85

> <r_mmod_Potential_Energy-OPLS-2005>
88.1233215332031

> <r_mmod_Stretch_Energy-OPLS-2005>
129.961212158203

> <r_mmod_Bend_Energy-OPLS-2005>
184.051330566406

> <r_mmod_Torsional_Energy-OPLS-2005>
285.298645019531

> <r_mmod_Improper_Torsional_Energy-OPLS-2005>
6.17242097854614

> <r_mmod_Van_der_Waal_Energy-OPLS-2005>
135.50373840332

> <r_mmod_Electrostatic_Energy-OPLS-2005>
-503.214111328125

> <r_mmod_Solvation_Energy-OPLS-2005>
-236.001663208008

> <b_mmod_Minimization_Converged-OPLS-2005>
0

> <r_mmod_RMS_Derivative-OPLS-2005>
2.01087284088135

$$$$
85
                    3D
 Structure written by MMmdl.
180189  0  0  1  0            999 V2000
  -30.6606  -14.4411   20.5284 C   0  0  0  0  0  0
  -30.4215  -12.2695   19.4240 C   0  0  0  0  0  0
  -29.4945  -12.4977   18.2086 C   0  0  0  0  0  0
  -28.0109  -12.3649   18.6129 C   0  0  0  0  0  0
  -27.6600  -13.1881   19.8801 C   0  0  2  0  0  0
  -28.6994  -12.9439   21.0009 C   0  0  0  0  0  0
  -25.2586  -13.8096   20.5668 C   0  0  0  0  0  0
  -24.1838  -13.0400   20.9159 C   0  0  0  0  0  0
  -24.6374  -11.6867   20.8745 C   0  0  0  0  0  0
  -23.9027  -10.4274   21.0423 C   0  0  0  0  0  0
  -24.3589   -9.4194   21.9195 C   0  0  0  0  0  0
  -23.6274   -8.2228   22.0756 C   0  0  0  0  0  0
  -22.4253   -8.0266   21.3544 C   0  0  0  0  0  0
  -21.9889   -9.0239   20.4643 C   0  0  0  0  0  0
  -22.7207  -10.2122   20.3057 C   0  0  0  0  0  0
  -21.6850   -6.0721   22.5280 C   0  0  0  0  0  0
  -21.4010   -6.5634   23.8212 C   0  0  0  0  0  0
  -21.3658   -5.6787   24.9174 C   0  0  0  0  0  0
  -21.6039   -4.3052   24.7228 C   0  0  0  0  0  0
  -21.8821   -3.8141   23.4352 C   0  0  0  0  0  0
  -21.9190   -4.6951   22.3403 C   0  0  0  0  0  0
  -22.7857  -13.5234   21.1835 C   0  0  0  0  0  0
  -22.1661   -4.2142   21.0980 F   0  0  0  0  0  0
  -21.5629   -3.4535   25.7743 F   0  0  0  0  0  0
  -30.0353  -13.2388   20.4569 N   0  0  0  0  0  0
  -26.3006  -12.9231   20.3372 N   0  0  0  0  0  0
  -25.9291  -11.6409   20.5772 N   0  0  0  0  0  0
  -22.0503  -12.8219   22.0400 N   0  0  0  0  0  0
  -25.4312  -15.1808   20.4030 N   0  0  0  0  0  0
  -31.8042  -14.6438   20.1115 O   0  0  0  0  0  0
  -21.6620   -6.8862   21.4244 O   0  0  0  0  0  0
  -22.3559  -14.5552   20.6717 O   0  0  0  0  0  0
  -24.6142  -31.8726   23.2151 C   0  0  0  0  0  0
  -25.9039  -32.4843   23.8460 C   0  0  1  0  0  0
  -27.2304  -27.4522   20.1164 C   0  0  0  0  0  0
  -25.5935  -33.8644   24.2404 N   0  0  0  0  0  0
  -23.4031  -30.5009   21.5541 C   0  0  2  0  0  0
  -24.8522  -28.9746   20.1126 C   0  0  0  0  0  0
  -22.7420  -29.4686   22.4999 C   0  0  0  0  0  0
  -18.0256  -28.1387   22.8469 C   0  0  0  0  0  0
  -24.1467  -36.7293   23.2654 C   0  0  0  0  0  0
  -25.9321  -30.8449   21.3681 C   0  0  0  0  0  0
  -26.0079  -29.4797   20.7211 C   0  0  0  0  0  0
  -27.1996  -28.7217   20.7305 C   0  0  0  0  0  0
  -26.0757  -26.9851   19.4518 C   0  0  0  0  0  0
  -24.8810  -27.7242   19.4734 C   0  0  0  0  0  0
  -23.6107  -29.8381   20.1687 C   0  0  0  0  0  0
  -25.4086  -36.3112   24.0382 C   0  0  1  0  0  0
  -20.5848  -28.3665   23.1321 C   0  0  2  0  0  0
  -20.6753  -26.9406   22.5435 C   0  0  0  0  0  0
  -19.5729  -26.6394   21.5233 C   0  0  0  0  0  0
  -18.1892  -26.7937   22.1617 C   0  0  0  0  0  0
  -19.1505  -28.8841   23.2888 C   0  0  0  0  0  0
  -18.9445  -30.1445   23.8915 C   0  0  0  0  0  0
  -17.6452  -30.6599   24.0552 C   0  0  0  0  0  0
  -25.9048  -34.9487   23.5191 C   0  0  0  0  0  0
  -16.5333  -29.9093   23.6365 C   0  0  0  0  0  0
  -16.7248  -28.6512   23.0373 C   0  0  0  0  0  0
  -26.4465  -31.6594   25.0771 C   0  0  0  0  0  0
  -25.3714  -31.3627   26.1507 C   0  0  0  0  0  0
  -27.0345  -30.3052   24.6133 C   0  0  0  0  0  0
  -27.6087  -32.4290   25.7465 C   0  0  0  0  0  0
  -27.5560  -37.1795   24.8489 C   0  0  0  0  0  0
  -21.4145  -29.3046   22.3759 N   0  0  0  0  0  0
  -26.4270  -37.3800   23.9455 N   0  0  0  0  0  0
  -24.6681  -31.0863   22.1043 N   0  0  0  0  0  0
  -23.4204  -28.8219   23.3037 O   0  0  0  0  0  0
  -28.3697  -26.6846   20.1475 O   0  0  0  0  0  0
  -26.5568  -34.8934   22.4722 O   0  0  0  0  0  0
  -23.5333  -32.1429   23.7572 O   0  0  0  0  0  0
  -29.2767  -18.6388   21.7530 C   0  0  0  0  0  0
  -31.6034  -18.2594   21.1475 C   0  0  0  0  0  0
  -31.0047  -20.1871   22.4969 C   0  0  0  0  0  0
  -30.2517  -17.8899   21.0619 C   0  0  0  0  0  0
  -29.6375  -19.8467   22.3981 C   0  0  0  0  0  0
  -31.9955  -19.3831   21.8873 C   0  0  0  0  0  0
  -26.9334  -20.6899   21.1550 C   0  0  0  0  0  0
  -26.6658  -21.8214   23.3639 C   0  0  0  0  0  0
  -27.4370  -21.9708   20.4681 C   0  0  0  0  0  0
  -26.5254  -23.0882   22.4779 C   0  0  0  0  0  0
  -27.3301  -20.6263   22.6474 C   0  0  2  0  0  0
  -36.0972  -20.0847   24.3907 C   0  0  0  0  0  0
  -28.5792  -17.0143   19.3458 C   0  0  0  0  0  0
  -35.2310  -19.4898   23.2783 C   0  0  0  0  0  0
  -27.4485  -24.4212   20.5924 C   0  0  0  0  0  0
  -33.9014  -20.2283   23.0699 C   0  0  0  0  0  0
  -28.3363  -25.5882   21.0869 C   0  0  0  0  0  0
  -29.8793  -16.7496   20.1296 C   0  0  2  0  0  0
  -29.8233  -15.4534   20.7997 N   0  0  0  0  0  0
  -27.5265  -23.1516   21.3754 N   0  3  2  0  0  0
  -28.7339  -20.7669   22.8906 O   0  0  0  0  0  0
  -33.3383  -19.6625   21.8977 O   0  0  0  0  0  0
  -31.4690  -12.3635   19.1317 H   0  0  0  0  0  0
  -30.3089  -11.2550   19.8085 H   0  0  0  0  0  0
  -29.7309  -11.7884   17.4142 H   0  0  0  0  0  0
  -29.6702  -13.4916   17.7925 H   0  0  0  0  0  0
  -27.8051  -11.3086   18.7860 H   0  0  0  0  0  0
  -27.3698  -12.6629   17.7830 H   0  0  0  0  0  0
  -27.7039  -14.2346   19.5896 H   0  0  0  0  0  0
  -28.6648  -11.9035   21.3267 H   0  0  0  0  0  0
  -28.4748  -13.5367   21.8892 H   0  0  0  0  0  0
  -25.2743   -9.5656   22.4767 H   0  0  0  0  0  0
  -23.9979   -7.4602   22.7472 H   0  0  0  0  0  0
  -21.0818   -8.8750   19.8942 H   0  0  0  0  0  0
  -22.3682  -10.9655   19.6154 H   0  0  0  0  0  0
  -21.2005   -7.6143   23.9714 H   0  0  0  0  0  0
  -21.1483   -6.0519   25.9074 H   0  0  0  0  0  0
  -22.0601   -2.7608   23.2855 H   0  0  0  0  0  0
  -22.4124  -11.9870   22.4763 H   0  0  0  0  0  0
  -21.1129  -13.1266   22.2635 H   0  0  0  0  0  0
  -24.6560  -15.8282   20.4906 H   0  0  0  0  0  0
  -26.2648  -15.6093   20.0256 H   0  0  0  0  0  0
  -26.7136  -32.5555   23.1253 H   0  0  0  0  0  0
  -25.0100  -33.9821   25.0544 H   0  0  0  0  0  0
  -22.6843  -31.3132   21.4176 H   0  0  0  0  0  0
  -23.3757  -35.9601   23.3316 H   0  0  0  0  0  0
  -24.3518  -36.8878   22.2060 H   0  0  0  0  0  0
  -23.7214  -37.6520   23.6632 H   0  0  0  0  0  0
  -26.0470  -31.6111   20.6005 H   0  0  0  0  0  0
  -26.8202  -30.8953   21.9870 H   0  0  0  0  0  0
  -28.0874  -29.0985   21.2200 H   0  0  0  0  0  0
  -26.0891  -26.0463   18.9183 H   0  0  0  0  0  0
  -24.0007  -27.3359   18.9805 H   0  0  0  0  0  0
  -23.7076  -30.6169   19.4100 H   0  0  0  0  0  0
  -22.7359  -29.2562   19.8794 H   0  0  0  0  0  0
  -25.1227  -36.1990   25.0880 H   0  0  0  0  0  0
  -20.9906  -28.3218   24.1451 H   0  0  0  0  0  0
  -20.5710  -26.2246   23.3608 H   0  0  0  0  0  0
  -21.6598  -26.7519   22.1158 H   0  0  0  0  0  0
  -19.6914  -25.6331   21.1223 H   0  0  0  0  0  0
  -19.6656  -27.3244   20.6798 H   0  0  0  0  0  0
  -17.4176  -26.6709   21.4013 H   0  0  0  0  0  0
  -18.0240  -26.0091   22.9020 H   0  0  0  0  0  0
  -19.7919  -30.7234   24.2297 H   0  0  0  0  0  0
  -17.5015  -31.6285   24.5133 H   0  0  0  0  0  0
  -15.5332  -30.2985   23.7719 H   0  0  0  0  0  0
  -15.8626  -28.0837   22.7109 H   0  0  0  0  0  0
  -24.5959  -30.6905   25.7800 H   0  0  0  0  0  0
  -24.8796  -32.2728   26.4973 H   0  0  0  0  0  0
  -25.8057  -30.8798   27.0261 H   0  0  0  0  0  0
  -26.2900  -29.6721   24.1312 H   0  0  0  0  0  0
  -27.4274  -29.7374   25.4573 H   0  0  0  0  0  0
  -27.8624  -30.4399   23.9164 H   0  0  0  0  0  0
  -27.2842  -33.3648   26.2001 H   0  0  0  0  0  0
  -28.3893  -32.6757   25.0258 H   0  0  0  0  0  0
  -28.0754  -31.8423   26.5373 H   0  0  0  0  0  0
  -28.2624  -38.0053   24.7537 H   0  0  0  0  0  0
  -28.1013  -36.2601   24.6297 H   0  0  0  0  0  0
  -27.2264  -37.1434   25.8887 H   0  0  0  0  0  0
  -20.9325  -29.8720   21.6913 H   0  0  0  0  0  0
  -26.0159  -38.2890   24.1434 H   0  0  0  0  0  0
  -28.2484  -18.3140   21.7168 H   0  0  0  0  0  0
  -32.3547  -17.6840   20.6245 H   0  0  0  0  0  0
  -31.2829  -21.1005   23.0016 H   0  0  0  0  0  0
  -27.2601  -19.8301   20.5744 H   0  0  0  0  0  0
  -25.8434  -20.6578   21.0873 H   0  0  0  0  0  0
  -25.6659  -21.5241   23.6819 H   0  0  0  0  0  0
  -27.1977  -22.0559   24.2875 H   0  0  0  0  0  0
  -26.7626  -22.1727   19.6329 H   0  0  0  0  0  0
  -28.4219  -21.8008   20.0324 H   0  0  0  0  0  0
  -26.5763  -23.9862   23.0940 H   0  0  0  0  0  0
  -25.5317  -23.0857   22.0297 H   0  0  0  0  0  0
  -26.9827  -19.6938   23.0952 H   0  0  0  0  0  0
  -37.0182  -19.5111   24.5036 H   0  0  0  0  0  0
  -35.5773  -20.0731   25.3500 H   0  0  0  0  0  0
  -36.3727  -21.1165   24.1625 H   0  0  0  0  0  0
  -28.6291  -17.9660   18.8142 H   0  0  0  0  0  0
  -27.6941  -17.0430   19.9811 H   0  0  0  0  0  0
  -28.4140  -16.2456   18.5904 H   0  0  0  0  0  0
  -35.0264  -18.4411   23.4999 H   0  0  0  0  0  0
  -35.7981  -19.4960   22.3450 H   0  0  0  0  0  0
  -27.7312  -24.2346   19.5569 H   0  0  0  0  0  0
  -26.3987  -24.7119   20.5775 H   0  0  0  0  0  0
  -34.0598  -21.2960   22.9128 H   0  0  0  0  0  0
  -33.2674  -20.1063   23.9493 H   0  0  0  0  0  0
  -29.3645  -25.2394   21.2082 H   0  0  0  0  0  0
  -28.0075  -25.9350   22.0689 H   0  0  0  0  0  0
  -30.6551  -16.7234   19.3613 H   0  0  0  0  0  0
  -28.9306  -15.1850   21.1797 H   0  0  0  0  0  0
  -28.4382  -23.1044   21.8117 H   0  0  0  0  0  0
  1 25  1  0  0  0
  1 30  2  0  0  0
  1 89  1  0  0  0
  2  3  1  0  0  0
  2 25  1  0  0  0
  2 93  1  0  0  0
  2 94  1  0  0  0
  3  4  1  0  0  0
  3 95  1  0  0  0
  3 96  1  0  0  0
  4  5  1  0  0  0
  4 97  1  0  0  0
  4 98  1  0  0  0
  5  6  1  0  0  0
  5 26  1  0  0  0
  5 99  1  0  0  0
  6 25  1  0  0  0
  6100  1  0  0  0
  6101  1  0  0  0
  7  8  2  0  0  0
  7 26  1  0  0  0
  7 29  1  0  0  0
  8  9  1  0  0  0
  8 22  1  0  0  0
  9 10  1  0  0  0
  9 27  2  0  0  0
 10 11  2  0  0  0
 10 15  1  0  0  0
 11 12  1  0  0  0
 11102  1  0  0  0
 12 13  2  0  0  0
 12103  1  0  0  0
 13 14  1  0  0  0
 13 31  1  0  0  0
 14 15  2  0  0  0
 14104  1  0  0  0
 15105  1  0  0  0
 16 17  2  0  0  0
 16 21  1  0  0  0
 16 31  1  0  0  0
 17 18  1  0  0  0
 17106  1  0  0  0
 18 19  2  0  0  0
 18107  1  0  0  0
 19 20  1  0  0  0
 19 24  1  0  0  0
 20 21  2  0  0  0
 20108  1  0  0  0
 21 23  1  0  0  0
 22 28  1  0  0  0
 22 32  2  0  0  0
 26 27  1  0  0  0
 28109  1  0  0  0
 28110  1  0  0  0
 29111  1  0  0  0
 29112  1  0  0  0
 33 34  1  0  0  0
 33 66  1  0  0  0
 33 70  2  0  0  0
 34 36  1  0  0  0
 34 59  1  0  0  0
 34113  1  0  0  0
 35 44  2  0  0  0
 35 45  1  0  0  0
 35 68  1  0  0  0
 36 56  1  0  0  0
 36114  1  0  0  0
 37 39  1  0  0  0
 37 47  1  0  0  0
 37 66  1  0  0  0
 37115  1  0  0  0
 38 43  2  0  0  0
 38 46  1  0  0  0
 38 47  1  0  0  0
 39 64  1  0  0  0
 39 67  2  0  0  0
 40 52  1  0  0  0
 40 53  2  0  0  0
 40 58  1  0  0  0
 41116  1  0  0  0
 41117  1  0  0  0
 41118  1  0  0  0
 41 48  1  0  0  0
 42 43  1  0  0  0
 42 66  1  0  0  0
 42119  1  0  0  0
 42120  1  0  0  0
 43 44  1  0  0  0
 44121  1  0  0  0
 45 46  2  0  0  0
 45122  1  0  0  0
 46123  1  0  0  0
 47124  1  0  0  0
 47125  1  0  0  0
 48 56  1  0  0  0
 48 65  1  0  0  0
 48126  1  0  0  0
 49 50  1  0  0  0
 49 53  1  0  0  0
 49 64  1  0  0  0
 49127  1  0  0  0
 50 51  1  0  0  0
 50128  1  0  0  0
 50129  1  0  0  0
 51 52  1  0  0  0
 51130  1  0  0  0
 51131  1  0  0  0
 52132  1  0  0  0
 52133  1  0  0  0
 53 54  1  0  0  0
 54 55  2  0  0  0
 54134  1  0  0  0
 55 57  1  0  0  0
 55135  1  0  0  0
 56 69  2  0  0  0
 57 58  2  0  0  0
 57136  1  0  0  0
 58137  1  0  0  0
 59 60  1  0  0  0
 59 61  1  0  0  0
 59 62  1  0  0  0
 60138  1  0  0  0
 60139  1  0  0  0
 60140  1  0  0  0
 61141  1  0  0  0
 61142  1  0  0  0
 61143  1  0  0  0
 62144  1  0  0  0
 62145  1  0  0  0
 62146  1  0  0  0
 63 65  1  0  0  0
 63147  1  0  0  0
 63148  1  0  0  0
 63149  1  0  0  0
 64150  1  0  0  0
 65151  1  0  0  0
 68 87  1  0  0  0
 71 74  2  0  0  0
 71 75  1  0  0  0
 71152  1  0  0  0
 72 74  1  0  0  0
 72 76  2  0  0  0
 72153  1  0  0  0
 73 75  2  0  0  0
 73 76  1  0  0  0
 73154  1  0  0  0
 74 88  1  0  0  0
 75 91  1  0  0  0
 76 92  1  0  0  0
 77 79  1  0  0  0
 77 81  1  0  0  0
 77155  1  0  0  0
 77156  1  0  0  0
 78 80  1  0  0  0
 78 81  1  0  0  0
 78157  1  0  0  0
 78158  1  0  0  0
 79 90  1  0  0  0
 79159  1  0  0  0
 79160  1  0  0  0
 80 90  1  0  0  0
 80161  1  0  0  0
 80162  1  0  0  0
 81 91  1  0  0  0
 81163  1  0  0  0
 82 84  1  0  0  0
 82164  1  0  0  0
 82165  1  0  0  0
 82166  1  0  0  0
 83167  1  0  0  0
 83168  1  0  0  0
 83169  1  0  0  0
 83 88  1  0  0  0
 84 86  1  0  0  0
 84170  1  0  0  0
 84171  1  0  0  0
 85 87  1  0  0  0
 85172  1  0  0  0
 85173  1  0  0  0
 85 90  1  0  0  0
 86 92  1  0  0  0
 86174  1  0  0  0
 86175  1  0  0  0
 87176  1  0  0  0
 87177  1  0  0  0
 88 89  1  0  0  0
 88178  1  0  0  0
 89179  1  0  0  0
 90180  1  0  0  0
M  CHG  1  90   1
M  ISO  4   1 100  68 101  87 101  89 100
M  END
> <chiral flag>
0

> <version>
0

> <s_m_source_file>
/data/baiqing/PycharmProjects/Reinvent-master-3.2/result/LINK_invent/BTK/process_docking_weight1_custom_sum_contain_oxygen_bond_distance_aromatic_linkinvent_7_9_3/rearranged_h_0147.sdf

> <i_m_source_file_index>
86

> <r_mmod_Potential_Energy-OPLS-2005>
-86.2154235839844

> <r_mmod_Stretch_Energy-OPLS-2005>
36.9123916625977

> <r_mmod_Bend_Energy-OPLS-2005>
120.365325927734

> <r_mmod_Torsional_Energy-OPLS-2005>
319.8076171875

> <r_mmod_Improper_Torsional_Energy-OPLS-2005>
10.2222261428833

> <r_mmod_Van_der_Waal_Energy-OPLS-2005>
171.124145507812

> <r_mmod_Electrostatic_Energy-OPLS-2005>
-334.826141357422

> <r_mmod_Solvation_Energy-OPLS-2005>
-423.495513916016

> <b_mmod_Minimization_Converged-OPLS-2005>
0

> <r_mmod_RMS_Derivative-OPLS-2005>
4.60426950454712

$$$$
86
                    3D
 Structure written by MMmdl.
167177  0  0  1  0            999 V2000
  -30.5191  -15.3120   20.3162 C   0  0  0  0  0  0
  -30.4255  -12.8594   19.4510 C   0  0  0  0  0  0
  -29.4895  -12.4852   18.2695 C   0  0  0  0  0  0
  -28.0603  -12.2334   18.7517 C   0  0  0  0  0  0
  -27.6021  -13.2673   19.8064 C   0  0  2  0  0  0
  -28.6669  -13.5355   20.8925 C   0  0  0  0  0  0
  -25.2424  -13.8271   20.5834 C   0  0  0  0  0  0
  -24.1746  -13.0467   20.9314 C   0  0  0  0  0  0
  -24.6382  -11.6956   20.8837 C   0  0  0  0  0  0
  -23.9079  -10.4309   21.0437 C   0  0  0  0  0  0
  -24.3633   -9.4211   21.9196 C   0  0  0  0  0  0
  -23.6311   -8.2241   22.0745 C   0  0  0  0  0  0
  -22.4292   -8.0284   21.3539 C   0  0  0  0  0  0
  -21.9938   -9.0262   20.4639 C   0  0  0  0  0  0
  -22.7264  -10.2147   20.3068 C   0  0  0  0  0  0
  -21.6859   -6.0736   22.5272 C   0  0  0  0  0  0
  -21.4013   -6.5634   23.8206 C   0  0  0  0  0  0
  -21.3664   -5.6788   24.9170 C   0  0  0  0  0  0
  -21.6052   -4.3051   24.7222 C   0  0  0  0  0  0
  -21.8824   -3.8143   23.4341 C   0  0  0  0  0  0
  -21.9198   -4.6962   22.3398 C   0  0  0  0  0  0
  -22.7761  -13.5208   21.1928 C   0  0  0  0  0  0
  -22.1664   -4.2143   21.0977 F   0  0  0  0  0  0
  -21.5639   -3.4535   25.7735 F   0  0  0  0  0  0
  -29.8513  -14.0551   20.1746 N   0  0  0  0  0  0
  -26.2836  -12.9522   20.3378 N   0  0  0  0  0  0
  -25.9324  -11.6638   20.5878 N   0  0  0  0  0  0
  -22.0403  -12.8170   22.0458 N   0  0  0  0  0  0
  -25.4133  -15.1991   20.4216 N   0  0  0  0  0  0
  -31.7421  -15.1480   20.4339 O   0  0  0  0  0  0
  -21.6651   -6.8882   21.4235 O   0  0  0  0  0  0
  -22.3443  -14.5511   20.6770 O   0  0  0  0  0  0
  -24.6636  -31.8221   23.1718 C   0  0  0  0  0  0
  -25.9319  -32.4579   23.8182 C   0  0  1  0  0  0
  -27.2155  -26.9194   20.1866 C   0  0  0  0  0  0
  -25.5995  -33.8398   24.2084 N   0  0  0  0  0  0
  -23.4786  -30.4341   21.5204 C   0  0  2  0  0  0
  -24.9328  -28.8216   20.1102 C   0  0  0  0  0  0
  -22.7672  -29.4430   22.4783 C   0  0  0  0  0  0
  -18.0322  -28.1408   22.8467 C   0  0  0  0  0  0
  -24.1490  -36.7186   23.2645 C   0  0  0  0  0  0
  -26.0480  -30.6258   21.4051 C   0  0  0  0  0  0
  -26.1151  -29.2152   20.7489 C   0  0  0  0  0  0
  -27.2492  -28.2837   20.7656 C   0  0  0  0  0  0
  -26.0100  -26.6870   19.4858 C   0  0  0  0  0  0
  -24.9066  -27.5788   19.4573 C   0  0  0  0  0  0
  -23.7192  -29.7501   20.1461 C   0  0  0  0  0  0
  -25.4134  -36.2954   24.0296 C   0  0  1  0  0  0
  -20.5950  -28.3749   23.1190 C   0  0  2  0  0  0
  -20.6800  -26.9433   22.5402 C   0  0  0  0  0  0
  -19.5775  -26.6379   21.5212 C   0  0  0  0  0  0
  -18.1957  -26.7941   22.1619 C   0  0  0  0  0  0
  -19.1585  -28.8900   23.2814 C   0  0  0  0  0  0
  -18.9493  -30.1493   23.8847 C   0  0  0  0  0  0
  -17.6484  -30.6597   24.0553 C   0  0  0  0  0  0
  -25.9104  -34.9339   23.5002 C   0  0  0  0  0  0
  -16.5377  -29.9081   23.6346 C   0  0  0  0  0  0
  -16.7305  -28.6501   23.0367 C   0  0  0  0  0  0
  -26.4574  -31.6534   25.0717 C   0  0  0  0  0  0
  -25.3701  -31.3773   26.1371 C   0  0  0  0  0  0
  -27.0484  -30.2905   24.6464 C   0  0  0  0  0  0
  -27.6066  -32.4353   25.7514 C   0  0  0  0  0  0
  -27.5566  -37.1752   24.8473 C   0  0  0  0  0  0
  -21.4342  -29.3033   22.3533 N   0  0  0  0  0  0
  -26.4275  -37.3697   23.9414 N   0  0  0  0  0  0
  -24.7511  -30.9881   22.0856 N   0  0  0  0  0  0
  -23.4216  -28.7996   23.3026 O   0  0  0  0  0  0
  -28.2042  -25.8020   20.2998 O   0  0  0  0  0  0
  -26.5707  -34.8873   22.4597 O   0  0  0  0  0  0
  -23.5705  -32.1196   23.6807 O   0  0  0  0  0  0
  -27.5144  -19.0333   18.4628 C   0  0  0  0  0  0
  -29.4108  -19.4958   20.3730 C   0  0  0  0  0  0
  -28.4020  -17.9937   18.7955 C   0  0  0  0  0  0
  -28.5847  -20.7526   19.9464 C   0  0  0  0  0  0
  -27.5520  -20.3291   19.0363 C   0  0  0  0  0  0
  -29.2691  -18.0206   19.8969 C   0  0  0  0  0  0
  -29.4019  -22.9544   18.9289 C   0  0  0  0  0  0
  -28.6999  -22.5094   20.2432 C   0  0  2  0  0  0
  -28.8024  -16.9057   17.8087 C   0  0  2  0  0  0
  -28.4144  -24.0510   18.5104 C   0  0  1  0  0  0
  -27.9826  -24.1932   19.9670 C   0  0  2  0  0  0
  -30.2590  -16.6963   18.2619 C   0  0  2  0  0  0
  -26.4743  -21.2531   18.4794 C   0  0  0  0  0  0
  -28.6845  -17.3016   16.3262 C   0  0  0  0  0  0
  -28.9714  -25.2335   17.7198 C   0  0  0  0  0  0
  -31.1743  -15.7252   17.4818 C   0  0  0  0  0  0
  -30.0945  -16.6308   19.7285 N   0  0  0  0  0  0
  -31.4209  -13.0772   19.0604 H   0  0  0  0  0  0
  -30.5595  -12.0134   20.1269 H   0  0  0  0  0  0
  -29.8696  -11.6024   17.7542 H   0  0  0  0  0  0
  -29.4294  -13.2637   17.5158 H   0  0  0  0  0  0
  -28.0436  -11.2343   19.1878 H   0  0  0  0  0  0
  -27.3670  -12.2099   17.9098 H   0  0  0  0  0  0
  -27.4844  -14.1982   19.2515 H   0  0  0  0  0  0
  -28.8880  -12.6405   21.4765 H   0  0  0  0  0  0
  -28.3090  -14.2899   21.5952 H   0  0  0  0  0  0
  -25.2775   -9.5684   22.4778 H   0  0  0  0  0  0
  -24.0026   -7.4627   22.7455 H   0  0  0  0  0  0
  -21.0875   -8.8788   19.8934 H   0  0  0  0  0  0
  -22.3727  -10.9696   19.6185 H   0  0  0  0  0  0
  -21.1990   -7.6140   23.9703 H   0  0  0  0  0  0
  -21.1486   -6.0519   25.9073 H   0  0  0  0  0  0
  -22.0601   -2.7604   23.2842 H   0  0  0  0  0  0
  -22.4029  -11.9836   22.4856 H   0  0  0  0  0  0
  -21.1003  -13.1159   22.2630 H   0  0  0  0  0  0
  -24.6558  -15.8629   20.5404 H   0  0  0  0  0  0
  -26.2785  -15.6362   20.1303 H   0  0  0  0  0  0
  -26.7387  -32.5100   23.0893 H   0  0  0  0  0  0
  -25.0125  -33.9489   25.0223 H   0  0  0  0  0  0
  -22.7919  -31.2660   21.3497 H   0  0  0  0  0  0
  -23.3770  -35.9500   23.3282 H   0  0  0  0  0  0
  -24.3557  -36.8858   22.2064 H   0  0  0  0  0  0
  -23.7231  -37.6358   23.6720 H   0  0  0  0  0  0
  -26.2331  -31.3674   20.6267 H   0  0  0  0  0  0
  -26.9058  -30.6797   22.0636 H   0  0  0  0  0  0
  -28.1393  -28.5779   21.3040 H   0  0  0  0  0  0
  -25.8801  -25.7437   18.9772 H   0  0  0  0  0  0
  -24.0111  -27.2742   18.9333 H   0  0  0  0  0  0
  -23.8757  -30.5185   19.3887 H   0  0  0  0  0  0
  -22.8289  -29.2062   19.8257 H   0  0  0  0  0  0
  -25.1335  -36.1742   25.0788 H   0  0  0  0  0  0
  -21.0039  -28.3353   24.1315 H   0  0  0  0  0  0
  -20.5685  -26.2370   23.3643 H   0  0  0  0  0  0
  -21.6662  -26.7410   22.1207 H   0  0  0  0  0  0
  -19.6934  -25.6277   21.1273 H   0  0  0  0  0  0
  -19.6711  -27.3160   20.6719 H   0  0  0  0  0  0
  -17.4230  -26.6693   21.4020 H   0  0  0  0  0  0
  -18.0347  -26.0089   22.9021 H   0  0  0  0  0  0
  -19.7968  -30.7329   24.2194 H   0  0  0  0  0  0
  -17.5031  -31.6270   24.5166 H   0  0  0  0  0  0
  -15.5373  -30.2962   23.7701 H   0  0  0  0  0  0
  -15.8708  -28.0797   22.7117 H   0  0  0  0  0  0
  -24.5908  -30.7102   25.7670 H   0  0  0  0  0  0
  -24.8862  -32.2963   26.4682 H   0  0  0  0  0  0
  -25.7929  -30.9014   27.0227 H   0  0  0  0  0  0
  -26.3162  -29.6573   24.1446 H   0  0  0  0  0  0
  -27.3988  -29.7281   25.5127 H   0  0  0  0  0  0
  -27.9108  -30.4091   23.9904 H   0  0  0  0  0  0
  -27.2643  -33.3706   26.1953 H   0  0  0  0  0  0
  -28.3941  -32.6833   25.0387 H   0  0  0  0  0  0
  -28.0668  -31.8578   26.5542 H   0  0  0  0  0  0
  -28.2569  -38.0062   24.7521 H   0  0  0  0  0  0
  -28.1075  -36.2587   24.6298 H   0  0  0  0  0  0
  -27.2281  -37.1386   25.8876 H   0  0  0  0  0  0
  -20.9609  -29.8711   21.6644 H   0  0  0  0  0  0
  -26.0112  -38.2750   24.1435 H   0  0  0  0  0  0
  -26.8370  -18.8668   17.6371 H   0  0  0  0  0  0
  -30.2456  -19.6943   21.0297 H   0  0  0  0  0  0
  -29.4988  -22.1863   18.1599 H   0  0  0  0  0  0
  -30.3936  -23.3543   19.1458 H   0  0  0  0  0  0
  -27.6679  -22.3340   20.5182 H   0  0  0  0  0  0
  -28.2061  -16.0120   17.9952 H   0  0  0  0  0  0
  -27.5921  -23.6106   17.9546 H   0  0  0  0  0  0
  -26.8985  -24.0929   20.0516 H   0  0  0  0  0  0
  -30.7841  -17.6409   18.0817 H   0  0  0  0  0  0
  -25.5574  -20.6915   18.2955 H   0  0  0  0  0  0
  -26.7901  -21.6486   17.5151 H   0  0  0  0  0  0
  -26.1789  -22.0714   19.1291 H   0  0  0  0  0  0
  -29.2757  -18.1904   16.1004 H   0  0  0  0  0  0
  -27.6511  -17.5013   16.0452 H   0  0  0  0  0  0
  -29.0330  -16.4981   15.6778 H   0  0  0  0  0  0
  -29.7772  -25.7362   18.2554 H   0  0  0  0  0  0
  -28.2008  -25.9749   17.5094 H   0  0  0  0  0  0
  -29.3791  -24.9079   16.7626 H   0  0  0  0  0  0
  -30.8350  -14.7049   17.4693 H   0  0  0  0  0  0
  -32.1875  -15.7298   17.8850 H   0  0  0  0  0  0
  -31.2625  -16.0369   16.4410 H   0  0  0  0  0  0
  1 25  1  0  0  0
  1 30  2  0  0  0
  1 87  1  0  0  0
  2  3  1  0  0  0
  2 25  1  0  0  0
  2 88  1  0  0  0
  2 89  1  0  0  0
  3  4  1  0  0  0
  3 90  1  0  0  0
  3 91  1  0  0  0
  4  5  1  0  0  0
  4 92  1  0  0  0
  4 93  1  0  0  0
  5  6  1  0  0  0
  5 26  1  0  0  0
  5 94  1  0  0  0
  6 25  1  0  0  0
  6 95  1  0  0  0
  6 96  1  0  0  0
  7  8  2  0  0  0
  7 26  1  0  0  0
  7 29  1  0  0  0
  8  9  1  0  0  0
  8 22  1  0  0  0
  9 10  1  0  0  0
  9 27  2  0  0  0
 10 11  2  0  0  0
 10 15  1  0  0  0
 11 12  1  0  0  0
 11 97  1  0  0  0
 12 13  2  0  0  0
 12 98  1  0  0  0
 13 14  1  0  0  0
 13 31  1  0  0  0
 14 15  2  0  0  0
 14 99  1  0  0  0
 15100  1  0  0  0
 16 17  2  0  0  0
 16 21  1  0  0  0
 16 31  1  0  0  0
 17 18  1  0  0  0
 17101  1  0  0  0
 18 19  2  0  0  0
 18102  1  0  0  0
 19 20  1  0  0  0
 19 24  1  0  0  0
 20 21  2  0  0  0
 20103  1  0  0  0
 21 23  1  0  0  0
 22 28  1  0  0  0
 22 32  2  0  0  0
 26 27  1  0  0  0
 28104  1  0  0  0
 28105  1  0  0  0
 29106  1  0  0  0
 29107  1  0  0  0
 33 34  1  0  0  0
 33 66  1  0  0  0
 33 70  2  0  0  0
 34 36  1  0  0  0
 34 59  1  0  0  0
 34108  1  0  0  0
 35 44  2  0  0  0
 35 45  1  0  0  0
 35 68  1  0  0  0
 36 56  1  0  0  0
 36109  1  0  0  0
 37 39  1  0  0  0
 37 47  1  0  0  0
 37 66  1  0  0  0
 37110  1  0  0  0
 38 43  2  0  0  0
 38 46  1  0  0  0
 38 47  1  0  0  0
 39 64  1  0  0  0
 39 67  2  0  0  0
 40 52  1  0  0  0
 40 53  2  0  0  0
 40 58  1  0  0  0
 41111  1  0  0  0
 41112  1  0  0  0
 41113  1  0  0  0
 41 48  1  0  0  0
 42 43  1  0  0  0
 42 66  1  0  0  0
 42114  1  0  0  0
 42115  1  0  0  0
 43 44  1  0  0  0
 44116  1  0  0  0
 45 46  2  0  0  0
 45117  1  0  0  0
 46118  1  0  0  0
 47119  1  0  0  0
 47120  1  0  0  0
 48 56  1  0  0  0
 48 65  1  0  0  0
 48121  1  0  0  0
 49 50  1  0  0  0
 49 53  1  0  0  0
 49 64  1  0  0  0
 49122  1  0  0  0
 50 51  1  0  0  0
 50123  1  0  0  0
 50124  1  0  0  0
 51 52  1  0  0  0
 51125  1  0  0  0
 51126  1  0  0  0
 52127  1  0  0  0
 52128  1  0  0  0
 53 54  1  0  0  0
 54 55  2  0  0  0
 54129  1  0  0  0
 55 57  1  0  0  0
 55130  1  0  0  0
 56 69  2  0  0  0
 57 58  2  0  0  0
 57131  1  0  0  0
 58132  1  0  0  0
 59 60  1  0  0  0
 59 61  1  0  0  0
 59 62  1  0  0  0
 60133  1  0  0  0
 60134  1  0  0  0
 60135  1  0  0  0
 61136  1  0  0  0
 61137  1  0  0  0
 61138  1  0  0  0
 62139  1  0  0  0
 62140  1  0  0  0
 62141  1  0  0  0
 63 65  1  0  0  0
 63142  1  0  0  0
 63143  1  0  0  0
 63144  1  0  0  0
 64145  1  0  0  0
 65146  1  0  0  0
 68 81  1  0  0  0
 71 73  2  0  0  0
 71 75  1  0  0  0
 71147  1  0  0  0
 72 74  1  0  0  0
 72 76  2  0  0  0
 72148  1  0  0  0
 73 76  1  0  0  0
 73 79  1  0  0  0
 74 75  2  0  0  0
 74 78  1  0  0  0
 75 83  1  0  0  0
 76 87  1  0  0  0
 77 78  1  0  0  0
 77 80  1  0  0  0
 77149  1  0  0  0
 77150  1  0  0  0
 78 81  1  0  0  0
 78151  1  0  0  0
 79 82  1  0  0  0
 79 84  1  0  0  0
 79152  1  0  0  0
 80 81  1  0  0  0
 80 85  1  0  0  0
 80153  1  0  0  0
 81154  1  0  0  0
 82 86  1  0  0  0
 82 87  1  0  0  0
 82155  1  0  0  0
 83156  1  0  0  0
 83157  1  0  0  0
 83158  1  0  0  0
 84159  1  0  0  0
 84160  1  0  0  0
 84161  1  0  0  0
 85162  1  0  0  0
 85163  1  0  0  0
 85164  1  0  0  0
 86165  1  0  0  0
 86166  1  0  0  0
 86167  1  0  0  0
M  ISO  4   1 100  68 101  81 101  87 100
M  END
> <chiral flag>
0

> <version>
0

> <s_m_source_file>
/data/baiqing/PycharmProjects/Reinvent-master-3.2/result/LINK_invent/BTK/process_docking_weight1_custom_sum_contain_oxygen_bond_distance_aromatic_linkinvent_7_9_3/rearranged_h_0147.sdf

> <i_m_source_file_index>
87

> <r_mmod_Potential_Energy-OPLS-2005>
2090.46728515625

> <r_mmod_Stretch_Energy-OPLS-2005>
656.036987304688

> <r_mmod_Bend_Energy-OPLS-2005>
793.091064453125

> <r_mmod_Torsional_Energy-OPLS-2005>
414.788055419922

> <r_mmod_Improper_Torsional_Energy-OPLS-2005>
41.2319183349609

> <r_mmod_Van_der_Waal_Energy-OPLS-2005>
146.656097412109

> <r_mmod_Electrostatic_Energy-OPLS-2005>
-294.774566650391

> <r_mmod_Solvation_Energy-OPLS-2005>
-180.268417358398

> <b_mmod_Minimization_Converged-OPLS-2005>
0

> <r_mmod_RMS_Derivative-OPLS-2005>
1.18420398235321

$$$$
87
                    3D
 Structure written by MMmdl.
168177  0  0  1  0            999 V2000
  -30.6999  -14.4608   20.5671 C   0  0  0  0  0  0
  -30.4202  -12.2967   19.4257 C   0  0  0  0  0  0
  -29.4948  -12.5046   18.2086 C   0  0  0  0  0  0
  -28.0146  -12.3702   18.6176 C   0  0  0  0  0  0
  -27.6622  -13.2066   19.8772 C   0  0  2  0  0  0
  -28.7011  -12.9797   20.9985 C   0  0  0  0  0  0
  -25.2586  -13.8161   20.5679 C   0  0  0  0  0  0
  -24.1832  -13.0440   20.9166 C   0  0  0  0  0  0
  -24.6384  -11.6906   20.8724 C   0  0  0  0  0  0
  -23.9052  -10.4289   21.0399 C   0  0  0  0  0  0
  -24.3607   -9.4210   21.9181 C   0  0  0  0  0  0
  -23.6286   -8.2244   22.0752 C   0  0  0  0  0  0
  -22.4270   -8.0274   21.3542 C   0  0  0  0  0  0
  -21.9901   -9.0245   20.4644 C   0  0  0  0  0  0
  -22.7227  -10.2128   20.3052 C   0  0  0  0  0  0
  -21.6852   -6.0732   22.5279 C   0  0  0  0  0  0
  -21.4010   -6.5636   23.8209 C   0  0  0  0  0  0
  -21.3661   -5.6791   24.9172 C   0  0  0  0  0  0
  -21.6045   -4.3053   24.7225 C   0  0  0  0  0  0
  -21.8821   -3.8144   23.4347 C   0  0  0  0  0  0
  -21.9193   -4.6959   22.3401 C   0  0  0  0  0  0
  -22.7856  -13.5240   21.1838 C   0  0  0  0  0  0
  -22.1662   -4.2146   21.0980 F   0  0  0  0  0  0
  -21.5632   -3.4542   25.7741 F   0  0  0  0  0  0
  -30.0359  -13.2790   20.4516 N   0  0  0  0  0  0
  -26.3022  -12.9330   20.3376 N   0  0  0  0  0  0
  -25.9312  -11.6489   20.5764 N   0  0  0  0  0  0
  -22.0497  -12.8225   22.0393 N   0  0  0  0  0  0
  -25.4319  -15.1877   20.4093 N   0  0  0  0  0  0
  -31.8292  -14.6286   20.1007 O   0  0  0  0  0  0
  -21.6639   -6.8870   21.4239 O   0  0  0  0  0  0
  -22.3540  -14.5551   20.6700 O   0  0  0  0  0  0
  -24.6116  -31.8703   23.2123 C   0  0  0  0  0  0
  -25.9022  -32.4832   23.8415 C   0  0  1  0  0  0
  -27.2411  -27.4516   20.1040 C   0  0  0  0  0  0
  -25.5890  -33.8629   24.2349 N   0  0  0  0  0  0
  -23.3993  -30.4930   21.5509 C   0  0  2  0  0  0
  -24.8496  -28.9582   20.1200 C   0  0  0  0  0  0
  -22.7391  -29.4673   22.4998 C   0  0  0  0  0  0
  -18.0267  -28.1379   22.8495 C   0  0  0  0  0  0
  -24.1486  -36.7322   23.2637 C   0  0  0  0  0  0
  -25.9245  -30.8404   21.3640 C   0  0  0  0  0  0
  -26.0047  -29.4709   20.7242 C   0  0  0  0  0  0
  -27.2029  -28.7230   20.7260 C   0  0  0  0  0  0
  -26.0750  -26.9570   19.4873 C   0  0  0  0  0  0
  -24.8771  -27.6961   19.5019 C   0  0  0  0  0  0
  -23.6091  -29.8219   20.1663 C   0  0  0  0  0  0
  -25.4101  -36.3118   24.0343 C   0  0  1  0  0  0
  -20.5857  -28.3664   23.1322 C   0  0  2  0  0  0
  -20.6759  -26.9402   22.5416 C   0  0  0  0  0  0
  -19.5736  -26.6388   21.5213 C   0  0  0  0  0  0
  -18.1914  -26.7929   22.1621 C   0  0  0  0  0  0
  -19.1516  -28.8837   23.2908 C   0  0  0  0  0  0
  -18.9447  -30.1447   23.8914 C   0  0  0  0  0  0
  -17.6450  -30.6587   24.0569 C   0  0  0  0  0  0
  -25.9027  -34.9480   23.5144 C   0  0  0  0  0  0
  -16.5341  -29.9090   23.6330 C   0  0  0  0  0  0
  -16.7258  -28.6508   23.0349 C   0  0  0  0  0  0
  -26.4464  -31.6590   25.0725 C   0  0  0  0  0  0
  -25.3744  -31.3680   26.1486 C   0  0  0  0  0  0
  -27.0288  -30.3036   24.6073 C   0  0  0  0  0  0
  -27.6050  -32.4298   25.7482 C   0  0  0  0  0  0
  -27.5584  -37.1810   24.8459 C   0  0  0  0  0  0
  -21.4122  -29.3039   22.3733 N   0  0  0  0  0  0
  -26.4285  -37.3803   23.9418 N   0  0  0  0  0  0
  -24.6631  -31.0823   22.1014 N   0  0  0  0  0  0
  -23.4173  -28.8213   23.3032 O   0  0  0  0  0  0
  -28.3666  -26.6643   20.0173 O   0  0  0  0  0  0
  -26.5592  -34.8927   22.4707 O   0  0  0  0  0  0
  -23.5313  -32.1442   23.7530 O   0  0  0  0  0  0
  -29.2374  -19.0961   21.5467 C   0  0  0  0  0  0
  -31.0492  -17.5128   20.1054 C   0  0  0  0  0  0
  -30.1606  -19.7286   20.6815 C   0  0  0  0  0  0
  -30.1205  -16.8799   20.9684 C   0  0  0  0  0  0
  -31.0809  -18.9258   19.9593 C   0  0  0  0  0  0
  -29.2169  -17.6914   21.6841 C   0  0  0  0  0  0
  -28.8696  -22.0305   20.7016 C   0  0  0  0  0  0
  -29.0473  -23.5345   20.3582 C   0  0  0  0  0  0
  -31.4434  -23.4123   20.9463 C   0  0  0  0  0  0
  -30.1952  -21.2601   20.5083 C   0  0  1  0  0  0
  -31.2946  -21.9344   21.3529 C   0  0  2  0  0  0
  -32.8562  -18.8003   18.3306 C   0  0  0  0  0  0
  -30.3804  -25.6198   20.8320 C   0  0  0  0  0  0
  -29.2056  -26.5678   21.1642 C   0  0  0  0  0  0
  -29.9975  -15.4605   21.1360 N   0  0  0  0  0  0
  -30.1689  -24.1652   21.1161 N   0  3  1  0  0  0
  -30.9780  -21.8758   22.7378 O   0  0  0  0  0  0
  -31.9780  -19.5771   19.1364 O   0  0  0  0  0  0
  -28.3102  -17.1105   22.5065 F   0  0  0  0  0  0
  -31.4659  -12.3884   19.1261 H   0  0  0  0  0  0
  -30.3143  -11.2841   19.8185 H   0  0  0  0  0  0
  -29.7329  -11.7820   17.4272 H   0  0  0  0  0  0
  -29.6681  -13.4914   17.7752 H   0  0  0  0  0  0
  -27.8200  -11.3139   18.8085 H   0  0  0  0  0  0
  -27.3668  -12.6511   17.7865 H   0  0  0  0  0  0
  -27.7093  -14.2565   19.5861 H   0  0  0  0  0  0
  -28.6705  -11.9425   21.3359 H   0  0  0  0  0  0
  -28.4619  -13.5762   21.8799 H   0  0  0  0  0  0
  -25.2751   -9.5693   22.4754 H   0  0  0  0  0  0
  -24.0001   -7.4638   22.7471 H   0  0  0  0  0  0
  -21.0835   -8.8756   19.8947 H   0  0  0  0  0  0
  -22.3681  -10.9660   19.6157 H   0  0  0  0  0  0
  -21.1997   -7.6143   23.9712 H   0  0  0  0  0  0
  -21.1484   -6.0520   25.9074 H   0  0  0  0  0  0
  -22.0599   -2.7605   23.2850 H   0  0  0  0  0  0
  -22.4108  -11.9881   22.4771 H   0  0  0  0  0  0
  -21.1113  -13.1246   22.2600 H   0  0  0  0  0  0
  -24.6722  -15.8482   20.5313 H   0  0  0  0  0  0
  -26.2964  -15.6282   20.1220 H   0  0  0  0  0  0
  -26.7099  -32.5566   23.1192 H   0  0  0  0  0  0
  -25.0051  -33.9799   25.0501 H   0  0  0  0  0  0
  -22.6869  -31.3084   21.4101 H   0  0  0  0  0  0
  -23.3751  -35.9650   23.3277 H   0  0  0  0  0  0
  -24.3591  -36.8961   22.2056 H   0  0  0  0  0  0
  -23.7221  -37.6516   23.6662 H   0  0  0  0  0  0
  -26.0292  -31.6000   20.5881 H   0  0  0  0  0  0
  -26.8149  -30.9040   21.9769 H   0  0  0  0  0  0
  -28.0874  -29.1419   21.1835 H   0  0  0  0  0  0
  -26.0952  -25.9929   18.9990 H   0  0  0  0  0  0
  -23.9907  -27.2951   19.0295 H   0  0  0  0  0  0
  -23.7130  -30.5944   19.4032 H   0  0  0  0  0  0
  -22.7349  -29.2369   19.8736 H   0  0  0  0  0  0
  -25.1272  -36.1991   25.0834 H   0  0  0  0  0  0
  -20.9949  -28.3230   24.1441 H   0  0  0  0  0  0
  -20.5665  -26.2273   23.3603 H   0  0  0  0  0  0
  -21.6630  -26.7452   22.1204 H   0  0  0  0  0  0
  -19.6896  -25.6301   21.1236 H   0  0  0  0  0  0
  -19.6679  -27.3207   20.6750 H   0  0  0  0  0  0
  -17.4187  -26.6691   21.4018 H   0  0  0  0  0  0
  -18.0308  -26.0062   22.9006 H   0  0  0  0  0  0
  -19.7921  -30.7262   24.2287 H   0  0  0  0  0  0
  -17.5003  -31.6271   24.5164 H   0  0  0  0  0  0
  -15.5342  -30.2998   23.7642 H   0  0  0  0  0  0
  -15.8657  -28.0836   22.7050 H   0  0  0  0  0  0
  -24.5896  -30.7056   25.7819 H   0  0  0  0  0  0
  -24.8968  -32.2832   26.4993 H   0  0  0  0  0  0
  -25.8108  -30.8796   27.0207 H   0  0  0  0  0  0
  -26.2819  -29.6798   24.1147 H   0  0  0  0  0  0
  -27.4090  -29.7267   25.4515 H   0  0  0  0  0  0
  -27.8643  -30.4365   23.9194 H   0  0  0  0  0  0
  -27.2687  -33.3599   26.2075 H   0  0  0  0  0  0
  -28.3854  -32.6848   25.0299 H   0  0  0  0  0  0
  -28.0718  -31.8405   26.5385 H   0  0  0  0  0  0
  -28.2582  -38.0130   24.7545 H   0  0  0  0  0  0
  -28.1102  -36.2665   24.6230 H   0  0  0  0  0  0
  -27.2312  -37.1395   25.8865 H   0  0  0  0  0  0
  -20.9274  -29.8767   21.6963 H   0  0  0  0  0  0
  -26.0178  -38.2881   24.1436 H   0  0  0  0  0  0
  -28.5269  -19.6782   22.1132 H   0  0  0  0  0  0
  -31.7375  -16.9101   19.5386 H   0  0  0  0  0  0
  -28.0955  -21.6047   20.0626 H   0  0  0  0  0  0
  -28.5084  -21.9342   21.7257 H   0  0  0  0  0  0
  -28.1139  -24.0565   20.5717 H   0  0  0  0  0  0
  -29.2270  -23.6511   19.2882 H   0  0  0  0  0  0
  -31.7698  -23.4769   19.9063 H   0  0  0  0  0  0
  -32.2330  -23.8719   21.5423 H   0  0  0  0  0  0
  -30.4559  -21.4193   19.4603 H   0  0  0  0  0  0
  -32.2495  -21.4308   21.1882 H   0  0  0  0  0  0
  -33.4603  -19.4626   17.7108 H   0  0  0  0  0  0
  -32.3033  -18.1407   17.6605 H   0  0  0  0  0  0
  -33.5398  -18.2072   18.9394 H   0  0  0  0  0  0
  -31.2254  -25.9464   21.4398 H   0  0  0  0  0  0
  -30.6886  -25.7630   19.7956 H   0  0  0  0  0  0
  -29.6156  -27.5513   21.3939 H   0  0  0  0  0  0
  -28.6496  -26.2340   22.0420 H   0  0  0  0  0  0
  -29.1559  -15.1723   21.6124 H   0  0  0  0  0  0
  -29.9491  -24.0622   22.0983 H   0  0  0  0  0  0
  -30.9472  -20.9560   22.9845 H   0  0  0  0  0  0
  1 25  1  0  0  0
  1 30  2  0  0  0
  1 85  1  0  0  0
  2  3  1  0  0  0
  2 25  1  0  0  0
  2 90  1  0  0  0
  2 91  1  0  0  0
  3  4  1  0  0  0
  3 92  1  0  0  0
  3 93  1  0  0  0
  4  5  1  0  0  0
  4 94  1  0  0  0
  4 95  1  0  0  0
  5  6  1  0  0  0
  5 26  1  0  0  0
  5 96  1  0  0  0
  6 25  1  0  0  0
  6 97  1  0  0  0
  6 98  1  0  0  0
  7  8  2  0  0  0
  7 26  1  0  0  0
  7 29  1  0  0  0
  8  9  1  0  0  0
  8 22  1  0  0  0
  9 10  1  0  0  0
  9 27  2  0  0  0
 10 11  2  0  0  0
 10 15  1  0  0  0
 11 12  1  0  0  0
 11 99  1  0  0  0
 12 13  2  0  0  0
 12100  1  0  0  0
 13 14  1  0  0  0
 13 31  1  0  0  0
 14 15  2  0  0  0
 14101  1  0  0  0
 15102  1  0  0  0
 16 17  2  0  0  0
 16 21  1  0  0  0
 16 31  1  0  0  0
 17 18  1  0  0  0
 17103  1  0  0  0
 18 19  2  0  0  0
 18104  1  0  0  0
 19 20  1  0  0  0
 19 24  1  0  0  0
 20 21  2  0  0  0
 20105  1  0  0  0
 21 23  1  0  0  0
 22 28  1  0  0  0
 22 32  2  0  0  0
 26 27  1  0  0  0
 28106  1  0  0  0
 28107  1  0  0  0
 29108  1  0  0  0
 29109  1  0  0  0
 33 34  1  0  0  0
 33 66  1  0  0  0
 33 70  2  0  0  0
 34 36  1  0  0  0
 34 59  1  0  0  0
 34110  1  0  0  0
 35 44  2  0  0  0
 35 45  1  0  0  0
 35 68  1  0  0  0
 36 56  1  0  0  0
 36111  1  0  0  0
 37 39  1  0  0  0
 37 47  1  0  0  0
 37 66  1  0  0  0
 37112  1  0  0  0
 38 43  2  0  0  0
 38 46  1  0  0  0
 38 47  1  0  0  0
 39 64  1  0  0  0
 39 67  2  0  0  0
 40 52  1  0  0  0
 40 53  2  0  0  0
 40 58  1  0  0  0
 41113  1  0  0  0
 41114  1  0  0  0
 41115  1  0  0  0
 41 48  1  0  0  0
 42 43  1  0  0  0
 42 66  1  0  0  0
 42116  1  0  0  0
 42117  1  0  0  0
 43 44  1  0  0  0
 44118  1  0  0  0
 45 46  2  0  0  0
 45119  1  0  0  0
 46120  1  0  0  0
 47121  1  0  0  0
 47122  1  0  0  0
 48 56  1  0  0  0
 48 65  1  0  0  0
 48123  1  0  0  0
 49 50  1  0  0  0
 49 53  1  0  0  0
 49 64  1  0  0  0
 49124  1  0  0  0
 50 51  1  0  0  0
 50125  1  0  0  0
 50126  1  0  0  0
 51 52  1  0  0  0
 51127  1  0  0  0
 51128  1  0  0  0
 52129  1  0  0  0
 52130  1  0  0  0
 53 54  1  0  0  0
 54 55  2  0  0  0
 54131  1  0  0  0
 55 57  1  0  0  0
 55132  1  0  0  0
 56 69  2  0  0  0
 57 58  2  0  0  0
 57133  1  0  0  0
 58134  1  0  0  0
 59 60  1  0  0  0
 59 61  1  0  0  0
 59 62  1  0  0  0
 60135  1  0  0  0
 60136  1  0  0  0
 60137  1  0  0  0
 61138  1  0  0  0
 61139  1  0  0  0
 61140  1  0  0  0
 62141  1  0  0  0
 62142  1  0  0  0
 62143  1  0  0  0
 63 65  1  0  0  0
 63144  1  0  0  0
 63145  1  0  0  0
 63146  1  0  0  0
 64147  1  0  0  0
 65148  1  0  0  0
 68 84  1  0  0  0
 71 73  2  0  0  0
 71 76  1  0  0  0
 71149  1  0  0  0
 72 74  1  0  0  0
 72 75  2  0  0  0
 72150  1  0  0  0
 73 75  1  0  0  0
 73 80  1  0  0  0
 74 76  2  0  0  0
 74 85  1  0  0  0
 75 88  1  0  0  0
 76 89  1  0  0  0
 77 78  1  0  0  0
 77 80  1  0  0  0
 77151  1  0  0  0
 77152  1  0  0  0
 78 86  1  0  0  0
 78153  1  0  0  0
 78154  1  0  0  0
 79 81  1  0  0  0
 79 86  1  0  0  0
 79155  1  0  0  0
 79156  1  0  0  0
 80 81  1  0  0  0
 80157  1  0  0  0
 81 87  1  0  0  0
 81158  1  0  0  0
 82 88  1  0  0  0
 82159  1  0  0  0
 82160  1  0  0  0
 82161  1  0  0  0
 83 84  1  0  0  0
 83162  1  0  0  0
 83163  1  0  0  0
 83 86  1  0  0  0
 84164  1  0  0  0
 84165  1  0  0  0
 85166  1  0  0  0
 86167  1  0  0  0
 87168  1  0  0  0
M  CHG  1  86   1
M  ISO  4   1 100  68 101  84 101  85 100
M  END
> <chiral flag>
0

> <version>
0

> <s_m_source_file>
/data/baiqing/PycharmProjects/Reinvent-master-3.2/result/LINK_invent/BTK/process_docking_weight1_custom_sum_contain_oxygen_bond_distance_aromatic_linkinvent_7_9_3/rearranged_h_0147.sdf

> <i_m_source_file_index>
88

> <r_mmod_Potential_Energy-OPLS-2005>
-159.986221313477

> <r_mmod_Stretch_Energy-OPLS-2005>
40.4738006591797

> <r_mmod_Bend_Energy-OPLS-2005>
119.509231567383

> <r_mmod_Torsional_Energy-OPLS-2005>
263.995697021484

> <r_mmod_Improper_Torsional_Energy-OPLS-2005>
3.05048489570618

> <r_mmod_Van_der_Waal_Energy-OPLS-2005>
169.311172485352

> <r_mmod_Electrostatic_Energy-OPLS-2005>
-360.831115722656

> <r_mmod_Solvation_Energy-OPLS-2005>
-406.194793701172

> <b_mmod_Minimization_Converged-OPLS-2005>
0

> <r_mmod_RMS_Derivative-OPLS-2005>
0.751981675624847

$$$$
88
                    3D
 Structure written by MMmdl.
186196  0  0  1  0            999 V2000
  -30.7433  -14.3945   20.6588 C   0  0  0  0  0  0
  -30.4146  -12.2918   19.4070 C   0  0  0  0  0  0
  -29.4892  -12.4965   18.1938 C   0  0  0  0  0  0
  -28.0079  -12.3763   18.6049 C   0  0  0  0  0  0
  -27.6611  -13.2053   19.8713 C   0  0  2  0  0  0
  -28.6953  -12.9594   20.9894 C   0  0  0  0  0  0
  -25.2567  -13.8166   20.5647 C   0  0  0  0  0  0
  -24.1820  -13.0449   20.9157 C   0  0  0  0  0  0
  -24.6373  -11.6919   20.8711 C   0  0  0  0  0  0
  -23.9043  -10.4306   21.0389 C   0  0  0  0  0  0
  -24.3591   -9.4230   21.9172 C   0  0  0  0  0  0
  -23.6285   -8.2256   22.0750 C   0  0  0  0  0  0
  -22.4270   -8.0276   21.3539 C   0  0  0  0  0  0
  -21.9894   -9.0247   20.4641 C   0  0  0  0  0  0
  -22.7212  -10.2139   20.3047 C   0  0  0  0  0  0
  -21.6853   -6.0732   22.5277 C   0  0  0  0  0  0
  -21.4015   -6.5637   23.8210 C   0  0  0  0  0  0
  -21.3658   -5.6787   24.9174 C   0  0  0  0  0  0
  -21.6057   -4.3051   24.7224 C   0  0  0  0  0  0
  -21.8821   -3.8148   23.4342 C   0  0  0  0  0  0
  -21.9189   -4.6960   22.3397 C   0  0  0  0  0  0
  -22.7848  -13.5241   21.1837 C   0  0  0  0  0  0
  -22.1658   -4.2139   21.0978 F   0  0  0  0  0  0
  -21.5632   -3.4536   25.7740 F   0  0  0  0  0  0
  -30.0330  -13.2565   20.4491 N   0  0  0  0  0  0
  -26.3003  -12.9337   20.3324 N   0  0  0  0  0  0
  -25.9291  -11.6501   20.5714 N   0  0  0  0  0  0
  -22.0484  -12.8241   22.0397 N   0  0  0  0  0  0
  -25.4311  -15.1879   20.4101 N   0  0  0  0  0  0
  -31.7948  -14.6438   20.0646 O   0  0  0  0  0  0
  -21.6646   -6.8869   21.4238 O   0  0  0  0  0  0
  -22.3546  -14.5549   20.6676 O   0  0  0  0  0  0
  -24.6125  -31.8699   23.2124 C   0  0  0  0  0  0
  -25.9023  -32.4838   23.8412 C   0  0  1  0  0  0
  -27.2350  -27.4400   20.0891 C   0  0  0  0  0  0
  -25.5877  -33.8636   24.2342 N   0  0  0  0  0  0
  -23.3995  -30.4944   21.5544 C   0  0  2  0  0  0
  -24.8445  -28.9584   20.1233 C   0  0  0  0  0  0
  -22.7396  -29.4678   22.5014 C   0  0  0  0  0  0
  -18.0273  -28.1369   22.8518 C   0  0  0  0  0  0
  -24.1484  -36.7332   23.2636 C   0  0  0  0  0  0
  -25.9283  -30.8347   21.3655 C   0  0  0  0  0  0
  -26.0046  -29.4678   20.7177 C   0  0  0  0  0  0
  -27.2020  -28.7161   20.6975 C   0  0  0  0  0  0
  -26.0559  -26.9513   19.4815 C   0  0  0  0  0  0
  -24.8641  -27.6981   19.5048 C   0  0  0  0  0  0
  -23.6069  -29.8265   20.1704 C   0  0  0  0  0  0
  -25.4104  -36.3130   24.0335 C   0  0  1  0  0  0
  -20.5865  -28.3658   23.1330 C   0  0  2  0  0  0
  -20.6762  -26.9393   22.5428 C   0  0  0  0  0  0
  -19.5737  -26.6386   21.5225 C   0  0  0  0  0  0
  -18.1915  -26.7920   22.1637 C   0  0  0  0  0  0
  -19.1519  -28.8830   23.2921 C   0  0  0  0  0  0
  -18.9445  -30.1445   23.8919 C   0  0  0  0  0  0
  -17.6440  -30.6582   24.0574 C   0  0  0  0  0  0
  -25.9034  -34.9489   23.5145 C   0  0  0  0  0  0
  -16.5341  -29.9085   23.6320 C   0  0  0  0  0  0
  -16.7260  -28.6503   23.0351 C   0  0  0  0  0  0
  -26.4452  -31.6611   25.0726 C   0  0  0  0  0  0
  -25.3717  -31.3697   26.1464 C   0  0  0  0  0  0
  -27.0281  -30.3062   24.6086 C   0  0  0  0  0  0
  -27.6038  -32.4316   25.7477 C   0  0  0  0  0  0
  -27.5587  -37.1817   24.8459 C   0  0  0  0  0  0
  -21.4127  -29.3031   22.3741 N   0  0  0  0  0  0
  -26.4301  -37.3804   23.9401 N   0  0  0  0  0  0
  -24.6653  -31.0806   22.1025 N   0  0  0  0  0  0
  -23.4174  -28.8206   23.3042 O   0  0  0  0  0  0
  -28.4304  -26.7558   20.0237 O   0  0  0  0  0  0
  -26.5610  -34.8926   22.4713 O   0  0  0  0  0  0
  -23.5321  -32.1447   23.7524 O   0  0  0  0  0  0
  -29.1878  -17.6632   17.0420 C   0  0  0  0  0  0
  -29.5850  -16.5132   17.9305 C   0  0  0  0  0  0
  -28.8556  -20.8068   18.2371 C   0  0  0  0  0  0
  -29.3883  -20.9730   20.6657 C   0  0  0  0  0  0
  -32.9059  -17.3295   23.3893 C   0  0  0  0  0  0
  -31.8393  -18.7440   21.6160 C   0  0  0  0  0  0
  -28.1189  -22.1533   18.3277 C   0  0  0  0  0  0
  -28.6183  -22.3128   20.7217 C   0  0  0  0  0  0
  -28.8896  -17.7146   18.5249 C   0  0  0  0  0  0
  -28.8426  -20.0308   19.5722 C   0  0  2  0  0  0
  -33.1746  -18.3082   22.2382 C   0  0  1  0  0  0
  -32.1720  -16.0770   22.8865 C   0  0  2  0  0  0
  -30.8521  -16.4342   22.1430 C   0  0  1  0  0  0
  -31.0132  -17.5568   21.0758 C   0  0  1  0  0  0
  -34.0041  -19.5116   22.7088 C   0  0  0  0  0  0
  -31.9319  -15.0909   24.0437 C   0  0  0  0  0  0
  -27.9760  -24.3543   19.3995 C   0  0  0  0  0  0
  -28.4815  -25.3823   20.4453 C   0  0  0  0  0  0
  -29.6137  -18.6849   19.4498 C   0  0  1  0  0  0
  -30.2367  -15.2219   21.5844 N   0  0  0  0  0  0
  -28.6536  -23.0216   19.4119 N   0  3  2  0  0  0
  -29.7092  -18.0322   20.7176 O   0  0  0  0  0  0
  -31.4596  -12.3875   19.1061 H   0  0  0  0  0  0
  -30.3104  -11.2765   19.7925 H   0  0  0  0  0  0
  -29.7208  -11.7599   17.4225 H   0  0  0  0  0  0
  -29.6796  -13.4704   17.7446 H   0  0  0  0  0  0
  -27.8039  -11.3211   18.7885 H   0  0  0  0  0  0
  -27.3630  -12.6692   17.7756 H   0  0  0  0  0  0
  -27.7171  -14.2588   19.5954 H   0  0  0  0  0  0
  -28.6598  -11.9174   21.3118 H   0  0  0  0  0  0
  -28.4394  -13.5436   21.8736 H   0  0  0  0  0  0
  -25.2735   -9.5714   22.4733 H   0  0  0  0  0  0
  -23.9999   -7.4653   22.7479 H   0  0  0  0  0  0
  -21.0822   -8.8760   19.8949 H   0  0  0  0  0  0
  -22.3657  -10.9665   19.6150 H   0  0  0  0  0  0
  -21.2009   -7.6142   23.9720 H   0  0  0  0  0  0
  -21.1477   -6.0518   25.9084 H   0  0  0  0  0  0
  -22.0593   -2.7609   23.2857 H   0  0  0  0  0  0
  -22.4094  -11.9910   22.4803 H   0  0  0  0  0  0
  -21.1099  -13.1260   22.2582 H   0  0  0  0  0  0
  -24.6698  -15.8464   20.5299 H   0  0  0  0  0  0
  -26.2964  -15.6281   20.1249 H   0  0  0  0  0  0
  -26.7087  -32.5558   23.1176 H   0  0  0  0  0  0
  -25.0015  -33.9810   25.0476 H   0  0  0  0  0  0
  -22.6881  -31.3112   21.4161 H   0  0  0  0  0  0
  -23.3747  -35.9668   23.3310 H   0  0  0  0  0  0
  -24.3568  -36.8940   22.2049 H   0  0  0  0  0  0
  -23.7242  -37.6536   23.6651 H   0  0  0  0  0  0
  -26.0359  -31.5966   20.5922 H   0  0  0  0  0  0
  -26.8181  -30.8928   21.9812 H   0  0  0  0  0  0
  -28.1020  -29.1152   21.1439 H   0  0  0  0  0  0
  -26.0402  -26.0218   18.9398 H   0  0  0  0  0  0
  -23.9764  -27.3102   19.0245 H   0  0  0  0  0  0
  -23.7133  -30.5998   19.4087 H   0  0  0  0  0  0
  -22.7305  -29.2455   19.8769 H   0  0  0  0  0  0
  -25.1284  -36.2008   25.0830 H   0  0  0  0  0  0
  -20.9967  -28.3215   24.1448 H   0  0  0  0  0  0
  -20.5685  -26.2255   23.3610 H   0  0  0  0  0  0
  -21.6623  -26.7440   22.1206 H   0  0  0  0  0  0
  -19.6900  -25.6305   21.1231 H   0  0  0  0  0  0
  -19.6675  -27.3211   20.6769 H   0  0  0  0  0  0
  -17.4197  -26.6695   21.4029 H   0  0  0  0  0  0
  -18.0300  -26.0038   22.9009 H   0  0  0  0  0  0
  -19.7911  -30.7264   24.2287 H   0  0  0  0  0  0
  -17.4993  -31.6256   24.5181 H   0  0  0  0  0  0
  -15.5342  -30.3002   23.7614 H   0  0  0  0  0  0
  -15.8663  -28.0829   22.7047 H   0  0  0  0  0  0
  -24.5898  -30.7041   25.7787 H   0  0  0  0  0  0
  -24.8884  -32.2838   26.4915 H   0  0  0  0  0  0
  -25.8055  -30.8857   27.0224 H   0  0  0  0  0  0
  -26.2824  -29.6825   24.1140 H   0  0  0  0  0  0
  -27.4065  -29.7288   25.4533 H   0  0  0  0  0  0
  -27.8648  -30.4395   23.9223 H   0  0  0  0  0  0
  -27.2681  -33.3618   26.2069 H   0  0  0  0  0  0
  -28.3824  -32.6871   25.0280 H   0  0  0  0  0  0
  -28.0723  -31.8424   26.5367 H   0  0  0  0  0  0
  -28.2611  -38.0116   24.7519 H   0  0  0  0  0  0
  -28.1089  -36.2644   24.6287 H   0  0  0  0  0  0
  -27.2303  -37.1464   25.8865 H   0  0  0  0  0  0
  -20.9282  -29.8768   21.6977 H   0  0  0  0  0  0
  -26.0204  -38.2891   24.1392 H   0  0  0  0  0  0
  -28.3470  -17.5142   16.3669 H   0  0  0  0  0  0
  -29.9881  -18.2945   16.6602 H   0  0  0  0  0  0
  -30.6475  -16.3805   18.1198 H   0  0  0  0  0  0
  -29.0042  -15.5989   17.8467 H   0  0  0  0  0  0
  -29.8835  -20.9720   17.9124 H   0  0  0  0  0  0
  -28.3816  -20.2173   17.4527 H   0  0  0  0  0  0
  -29.3196  -20.4869   21.6395 H   0  0  0  0  0  0
  -30.4468  -21.1709   20.4938 H   0  0  0  0  0  0
  -32.3266  -17.8193   24.1741 H   0  0  0  0  0  0
  -33.8517  -17.0353   23.8459 H   0  0  0  0  0  0
  -32.0361  -19.4528   20.8113 H   0  0  0  0  0  0
  -31.2571  -19.2758   22.3688 H   0  0  0  0  0  0
  -27.0549  -21.9742   18.4941 H   0  0  0  0  0  0
  -28.1993  -22.6671   17.3689 H   0  0  0  0  0  0
  -29.0594  -22.9351   21.5009 H   0  0  0  0  0  0
  -27.5821  -22.1367   21.0157 H   0  0  0  0  0  0
  -27.8513  -17.5462   18.8049 H   0  0  0  0  0  0
  -27.8072  -19.7995   19.8286 H   0  0  0  0  0  0
  -33.7557  -17.7871   21.4745 H   0  0  0  0  0  0
  -32.8528  -15.5934   22.1856 H   0  0  0  0  0  0
  -30.1586  -16.8131   22.8963 H   0  0  0  0  0  0
  -31.5282  -17.1578   20.2026 H   0  0  0  0  0  0
  -33.4840  -20.0834   23.4785 H   0  0  0  0  0  0
  -34.2218  -20.1864   21.8803 H   0  0  0  0  0  0
  -34.9606  -19.1922   23.1246 H   0  0  0  0  0  0
  -31.2303  -15.5015   24.7705 H   0  0  0  0  0  0
  -32.8593  -14.8695   24.5717 H   0  0  0  0  0  0
  -31.5291  -14.1415   23.6909 H   0  0  0  0  0  0
  -28.1090  -24.7828   18.4054 H   0  0  0  0  0  0
  -26.9078  -24.1909   19.5339 H   0  0  0  0  0  0
  -29.5347  -25.1900   20.6529 H   0  0  0  0  0  0
  -27.9622  -25.2561   21.3969 H   0  0  0  0  0  0
  -30.6044  -18.8880   19.0388 H   0  0  0  0  0  0
  -29.3630  -14.9380   21.9981 H   0  0  0  0  0  0
  -29.6274  -23.1870   19.1951 H   0  0  0  0  0  0
  1 25  1  0  0  0
  1 30  2  0  0  0
  1 90  1  0  0  0
  2  3  1  0  0  0
  2 25  1  0  0  0
  2 93  1  0  0  0
  2 94  1  0  0  0
  3  4  1  0  0  0
  3 95  1  0  0  0
  3 96  1  0  0  0
  4  5  1  0  0  0
  4 97  1  0  0  0
  4 98  1  0  0  0
  5  6  1  0  0  0
  5 26  1  0  0  0
  5 99  1  0  0  0
  6 25  1  0  0  0
  6100  1  0  0  0
  6101  1  0  0  0
  7  8  2  0  0  0
  7 26  1  0  0  0
  7 29  1  0  0  0
  8  9  1  0  0  0
  8 22  1  0  0  0
  9 10  1  0  0  0
  9 27  2  0  0  0
 10 11  2  0  0  0
 10 15  1  0  0  0
 11 12  1  0  0  0
 11102  1  0  0  0
 12 13  2  0  0  0
 12103  1  0  0  0
 13 14  1  0  0  0
 13 31  1  0  0  0
 14 15  2  0  0  0
 14104  1  0  0  0
 15105  1  0  0  0
 16 17  2  0  0  0
 16 21  1  0  0  0
 16 31  1  0  0  0
 17 18  1  0  0  0
 17106  1  0  0  0
 18 19  2  0  0  0
 18107  1  0  0  0
 19 20  1  0  0  0
 19 24  1  0  0  0
 20 21  2  0  0  0
 20108  1  0  0  0
 21 23  1  0  0  0
 22 28  1  0  0  0
 22 32  2  0  0  0
 26 27  1  0  0  0
 28109  1  0  0  0
 28110  1  0  0  0
 29111  1  0  0  0
 29112  1  0  0  0
 33 34  1  0  0  0
 33 66  1  0  0  0
 33 70  2  0  0  0
 34 36  1  0  0  0
 34 59  1  0  0  0
 34113  1  0  0  0
 35 44  2  0  0  0
 35 45  1  0  0  0
 35 68  1  0  0  0
 36 56  1  0  0  0
 36114  1  0  0  0
 37 39  1  0  0  0
 37 47  1  0  0  0
 37 66  1  0  0  0
 37115  1  0  0  0
 38 43  2  0  0  0
 38 46  1  0  0  0
 38 47  1  0  0  0
 39 64  1  0  0  0
 39 67  2  0  0  0
 40 52  1  0  0  0
 40 53  2  0  0  0
 40 58  1  0  0  0
 41116  1  0  0  0
 41117  1  0  0  0
 41118  1  0  0  0
 41 48  1  0  0  0
 42 43  1  0  0  0
 42 66  1  0  0  0
 42119  1  0  0  0
 42120  1  0  0  0
 43 44  1  0  0  0
 44121  1  0  0  0
 45 46  2  0  0  0
 45122  1  0  0  0
 46123  1  0  0  0
 47124  1  0  0  0
 47125  1  0  0  0
 48 56  1  0  0  0
 48 65  1  0  0  0
 48126  1  0  0  0
 49 50  1  0  0  0
 49 53  1  0  0  0
 49 64  1  0  0  0
 49127  1  0  0  0
 50 51  1  0  0  0
 50128  1  0  0  0
 50129  1  0  0  0
 51 52  1  0  0  0
 51130  1  0  0  0
 51131  1  0  0  0
 52132  1  0  0  0
 52133  1  0  0  0
 53 54  1  0  0  0
 54 55  2  0  0  0
 54134  1  0  0  0
 55 57  1  0  0  0
 55135  1  0  0  0
 56 69  2  0  0  0
 57 58  2  0  0  0
 57136  1  0  0  0
 58137  1  0  0  0
 59 60  1  0  0  0
 59 61  1  0  0  0
 59 62  1  0  0  0
 60138  1  0  0  0
 60139  1  0  0  0
 60140  1  0  0  0
 61141  1  0  0  0
 61142  1  0  0  0
 61143  1  0  0  0
 62144  1  0  0  0
 62145  1  0  0  0
 62146  1  0  0  0
 63 65  1  0  0  0
 63147  1  0  0  0
 63148  1  0  0  0
 63149  1  0  0  0
 64150  1  0  0  0
 65151  1  0  0  0
 68 88  1  0  0  0
 71 72  1  0  0  0
 71152  1  0  0  0
 71153  1  0  0  0
 71 79  1  0  0  0
 72 79  1  0  0  0
 72154  1  0  0  0
 72155  1  0  0  0
 73 77  1  0  0  0
 73156  1  0  0  0
 73157  1  0  0  0
 73 80  1  0  0  0
 74 78  1  0  0  0
 74 80  1  0  0  0
 74158  1  0  0  0
 74159  1  0  0  0
 75 81  1  0  0  0
 75 82  1  0  0  0
 75160  1  0  0  0
 75161  1  0  0  0
 76 81  1  0  0  0
 76 84  1  0  0  0
 76162  1  0  0  0
 76163  1  0  0  0
 77 91  1  0  0  0
 77164  1  0  0  0
 77165  1  0  0  0
 78 91  1  0  0  0
 78166  1  0  0  0
 78167  1  0  0  0
 79 89  1  0  0  0
 79168  1  0  0  0
 80 89  1  0  0  0
 80169  1  0  0  0
 81 85  1  0  0  0
 81170  1  0  0  0
 82 83  1  0  0  0
 82 86  1  0  0  0
 82171  1  0  0  0
 83 84  1  0  0  0
 83 90  1  0  0  0
 83172  1  0  0  0
 84 92  1  0  0  0
 84173  1  0  0  0
 85174  1  0  0  0
 85175  1  0  0  0
 85176  1  0  0  0
 86177  1  0  0  0
 86178  1  0  0  0
 86179  1  0  0  0
 87 88  1  0  0  0
 87180  1  0  0  0
 87181  1  0  0  0
 87 91  1  0  0  0
 88182  1  0  0  0
 88183  1  0  0  0
 89 92  1  0  0  0
 89184  1  0  0  0
 90185  1  0  0  0
 91186  1  0  0  0
M  CHG  1  91   1
M  ISO  4   1 100  68 101  88 101  90 100
M  END
> <chiral flag>
0

> <version>
0

> <s_m_source_file>
/data/baiqing/PycharmProjects/Reinvent-master-3.2/result/LINK_invent/BTK/process_docking_weight1_custom_sum_contain_oxygen_bond_distance_aromatic_linkinvent_7_9_3/rearranged_h_0147.sdf

> <i_m_source_file_index>
89

> <r_mmod_Potential_Energy-OPLS-2005>
-130.704299926758

> <r_mmod_Stretch_Energy-OPLS-2005>
38.3835144042969

> <r_mmod_Bend_Energy-OPLS-2005>
113.545227050781

> <r_mmod_Torsional_Energy-OPLS-2005>
322.584625244141

> <r_mmod_Improper_Torsional_Energy-OPLS-2005>
1.92660331726074

> <r_mmod_Van_der_Waal_Energy-OPLS-2005>
129.686538696289

> <r_mmod_Electrostatic_Energy-OPLS-2005>
-338.992767333984

> <r_mmod_Solvation_Energy-OPLS-2005>
-405.761108398438

> <b_mmod_Minimization_Converged-OPLS-2005>
0

> <r_mmod_RMS_Derivative-OPLS-2005>
2.02699089050293

$$$$
89
                    3D
 Structure written by MMmdl.
156165  0  0  1  0            999 V2000
  -30.5582  -14.7239   20.5346 C   0  0  0  0  0  0
  -30.4426  -12.4474   19.4902 C   0  0  0  0  0  0
  -29.5326  -12.5147   18.2431 C   0  0  0  0  0  0
  -28.0509  -12.3453   18.6408 C   0  0  0  0  0  0
  -27.6543  -13.2144   19.8641 C   0  0  2  0  0  0
  -28.6855  -13.0888   21.0048 C   0  0  0  0  0  0
  -25.2586  -13.8146   20.5598 C   0  0  0  0  0  0
  -24.1849  -13.0440   20.9118 C   0  0  0  0  0  0
  -24.6400  -11.6895   20.8712 C   0  0  0  0  0  0
  -23.9065  -10.4292   21.0393 C   0  0  0  0  0  0
  -24.3634   -9.4203   21.9162 C   0  0  0  0  0  0
  -23.6315   -8.2242   22.0744 C   0  0  0  0  0  0
  -22.4302   -8.0276   21.3549 C   0  0  0  0  0  0
  -21.9928   -9.0247   20.4654 C   0  0  0  0  0  0
  -22.7248  -10.2123   20.3043 C   0  0  0  0  0  0
  -21.6870   -6.0737   22.5252 C   0  0  0  0  0  0
  -21.4031   -6.5642   23.8177 C   0  0  0  0  0  0
  -21.3660   -5.6791   24.9132 C   0  0  0  0  0  0
  -21.6053   -4.3046   24.7201 C   0  0  0  0  0  0
  -21.8815   -3.8145   23.4328 C   0  0  0  0  0  0
  -21.9195   -4.6956   22.3371 C   0  0  0  0  0  0
  -22.7884  -13.5220   21.1757 C   0  0  0  0  0  0
  -22.1639   -4.2156   21.0957 F   0  0  0  0  0  0
  -21.5658   -3.4507   25.7695 F   0  0  0  0  0  0
  -29.9839  -13.4808   20.4441 N   0  0  0  0  0  0
  -26.3004  -12.9313   20.3255 N   0  0  0  0  0  0
  -25.9325  -11.6493   20.5732 N   0  0  0  0  0  0
  -22.0517  -12.8272   22.0344 N   0  0  0  0  0  0
  -25.4341  -15.1869   20.3961 N   0  0  0  0  0  0
  -31.7261  -14.9019   20.1692 O   0  0  0  0  0  0
  -21.6671   -6.8863   21.4222 O   0  0  0  0  0  0
  -22.3568  -14.5511   20.6539 O   0  0  0  0  0  0
  -24.6305  -31.8564   23.1946 C   0  0  0  0  0  0
  -25.9126  -32.4759   23.8306 C   0  0  1  0  0  0
  -27.2316  -27.2681   20.1699 C   0  0  0  0  0  0
  -25.5938  -33.8560   24.2281 N   0  0  0  0  0  0
  -23.4269  -30.4763   21.5396 C   0  0  2  0  0  0
  -24.8767  -28.9112   20.1188 C   0  0  0  0  0  0
  -22.7506  -29.4610   22.4930 C   0  0  0  0  0  0
  -18.0293  -28.1359   22.8469 C   0  0  0  0  0  0
  -24.1492  -36.7328   23.2631 C   0  0  0  0  0  0
  -25.9644  -30.7796   21.3571 C   0  0  0  0  0  0
  -26.0445  -29.3929   20.7255 C   0  0  0  0  0  0
  -27.2248  -28.5854   20.7375 C   0  0  0  0  0  0
  -26.0488  -26.8476   19.5256 C   0  0  0  0  0  0
  -24.8848  -27.6468   19.5032 C   0  0  0  0  0  0
  -23.6456  -29.8011   20.1584 C   0  0  0  0  0  0
  -25.4092  -36.3084   24.0342 C   0  0  1  0  0  0
  -20.5897  -28.3676   23.1263 C   0  0  2  0  0  0
  -20.6773  -26.9392   22.5412 C   0  0  0  0  0  0
  -19.5750  -26.6371   21.5204 C   0  0  0  0  0  0
  -18.1932  -26.7894   22.1617 C   0  0  0  0  0  0
  -19.1546  -28.8830   23.2856 C   0  0  0  0  0  0
  -18.9469  -30.1440   23.8848 C   0  0  0  0  0  0
  -17.6466  -30.6547   24.0549 C   0  0  0  0  0  0
  -25.9027  -34.9454   23.5109 C   0  0  0  0  0  0
  -16.5349  -29.9043   23.6312 C   0  0  0  0  0  0
  -16.7289  -28.6483   23.0283 C   0  0  0  0  0  0
  -26.4492  -31.6545   25.0674 C   0  0  0  0  0  0
  -25.3781  -31.3645   26.1451 C   0  0  0  0  0  0
  -27.0314  -30.2999   24.6045 C   0  0  0  0  0  0
  -27.6090  -32.4216   25.7427 C   0  0  0  0  0  0
  -27.5575  -37.1810   24.8460 C   0  0  0  0  0  0
  -21.4214  -29.3063   22.3697 N   0  0  0  0  0  0
  -26.4273  -37.3788   23.9422 N   0  0  0  0  0  0
  -24.6948  -31.0542   22.0899 N   0  0  0  0  0  0
  -23.4202  -28.8164   23.3018 O   0  0  0  0  0  0
  -28.3387  -26.3942   20.1943 O   0  0  0  0  0  0
  -26.5605  -34.8936   22.4672 O   0  0  0  0  0  0
  -23.5469  -32.1363   23.7280 O   0  0  0  0  0  0
  -28.7623  -21.0529   19.9667 C   0  0  0  0  0  0
  -29.4835  -20.5694   21.9768 C   0  0  0  0  0  0
  -29.1004  -19.9327   20.7539 C   0  0  0  0  0  0
  -29.4527  -21.9219   21.8507 C   0  0  0  0  0  0
  -29.9409  -20.3122   23.3544 C   0  0  0  0  0  0
  -29.9699  -22.6336   23.0451 C   0  0  0  0  0  0
  -29.0224  -18.3750   20.3974 C   0  0  0  0  0  0
  -28.8574  -23.7248   19.9944 C   0  0  0  0  0  0
  -29.9864  -17.2752   21.0928 C   0  0  0  0  0  0
  -28.1963  -24.9992   20.7527 C   0  0  0  0  0  0
  -28.9682  -22.3179   20.6099 N   0  0  0  0  0  0
  -30.2012  -21.4918   23.9359 N   0  0  0  0  0  0
  -29.7336  -15.7796   20.8872 N   0  0  0  0  0  0
  -30.0506  -19.2120   23.8948 O   0  0  0  0  0  0
  -31.4886  -12.5882   19.2176 H   0  0  0  0  0  0
  -30.3829  -11.4620   19.9526 H   0  0  0  0  0  0
  -29.8242  -11.7430   17.5297 H   0  0  0  0  0  0
  -29.6727  -13.4733   17.7370 H   0  0  0  0  0  0
  -27.8900  -11.2913   18.8748 H   0  0  0  0  0  0
  -27.4073  -12.5714   17.7900 H   0  0  0  0  0  0
  -27.6729  -14.2502   19.5255 H   0  0  0  0  0  0
  -28.7305  -12.0646   21.3747 H   0  0  0  0  0  0
  -28.4110  -13.7052   21.8640 H   0  0  0  0  0  0
  -25.2792   -9.5705   22.4701 H   0  0  0  0  0  0
  -24.0010   -7.4688   22.7527 H   0  0  0  0  0  0
  -21.0828   -8.8779   19.9025 H   0  0  0  0  0  0
  -22.3678  -10.9662   19.6154 H   0  0  0  0  0  0
  -21.1998   -7.6157   23.9671 H   0  0  0  0  0  0
  -21.1508   -6.0526   25.9041 H   0  0  0  0  0  0
  -22.0604   -2.7619   23.2799 H   0  0  0  0  0  0
  -22.4143  -11.9960   22.4779 H   0  0  0  0  0  0
  -21.1143  -13.1358   22.2525 H   0  0  0  0  0  0
  -24.6670  -15.8433   20.4911 H   0  0  0  0  0  0
  -26.2653  -15.6103   20.0074 H   0  0  0  0  0  0
  -26.7198  -32.5442   23.1047 H   0  0  0  0  0  0
  -25.0087  -33.9700   25.0430 H   0  0  0  0  0  0
  -22.7211  -31.2958   21.3907 H   0  0  0  0  0  0
  -23.3738  -35.9678   23.3249 H   0  0  0  0  0  0
  -24.3621  -36.8983   22.2058 H   0  0  0  0  0  0
  -23.7256  -37.6531   23.6665 H   0  0  0  0  0  0
  -26.0622  -31.5157   20.5575 H   0  0  0  0  0  0
  -26.8591  -30.8655   21.9619 H   0  0  0  0  0  0
  -28.1150  -28.9582   21.2276 H   0  0  0  0  0  0
  -26.0212  -25.8770   19.0501 H   0  0  0  0  0  0
  -23.9980  -27.2652   19.0160 H   0  0  0  0  0  0
  -23.7678  -30.5726   19.3968 H   0  0  0  0  0  0
  -22.7621  -29.2348   19.8609 H   0  0  0  0  0  0
  -25.1262  -36.1927   25.0839 H   0  0  0  0  0  0
  -20.9971  -28.3234   24.1377 H   0  0  0  0  0  0
  -20.5639  -26.2287   23.3625 H   0  0  0  0  0  0
  -21.6642  -26.7408   22.1214 H   0  0  0  0  0  0
  -19.6903  -25.6294   21.1196 H   0  0  0  0  0  0
  -19.6652  -27.3204   20.6751 H   0  0  0  0  0  0
  -17.4217  -26.6650   21.4009 H   0  0  0  0  0  0
  -18.0309  -26.0040   22.9014 H   0  0  0  0  0  0
  -19.7954  -30.7279   24.2165 H   0  0  0  0  0  0
  -17.5021  -31.6203   24.5178 H   0  0  0  0  0  0
  -15.5347  -30.2899   23.7695 H   0  0  0  0  0  0
  -15.8703  -28.0837   22.6898 H   0  0  0  0  0  0
  -24.5932  -30.6987   25.7828 H   0  0  0  0  0  0
  -24.8982  -32.2780   26.4977 H   0  0  0  0  0  0
  -25.8194  -30.8784   27.0163 H   0  0  0  0  0  0
  -26.2845  -29.6710   24.1185 H   0  0  0  0  0  0
  -27.4185  -29.7280   25.4480 H   0  0  0  0  0  0
  -27.8621  -30.4328   23.9113 H   0  0  0  0  0  0
  -27.2774  -33.3529   26.2018 H   0  0  0  0  0  0
  -28.3898  -32.6721   25.0237 H   0  0  0  0  0  0
  -28.0726  -31.8282   26.5312 H   0  0  0  0  0  0
  -28.2595  -38.0111   24.7516 H   0  0  0  0  0  0
  -28.1075  -36.2651   24.6242 H   0  0  0  0  0  0
  -27.2330  -37.1409   25.8876 H   0  0  0  0  0  0
  -20.9381  -29.8838   21.6977 H   0  0  0  0  0  0
  -26.0150  -38.2877   24.1389 H   0  0  0  0  0  0
  -28.3896  -21.0590   18.9496 H   0  0  0  0  0  0
  -29.2560  -23.3387   23.4702 H   0  0  0  0  0  0
  -30.9151  -23.1348   22.8305 H   0  0  0  0  0  0
  -29.1633  -18.3043   19.3176 H   0  0  0  0  0  0
  -27.9860  -18.0723   20.5655 H   0  0  0  0  0  0
  -29.8725  -24.0130   19.7223 H   0  0  0  0  0  0
  -28.3357  -23.6071   19.0459 H   0  0  0  0  0  0
  -29.8780  -17.4043   22.1674 H   0  0  0  0  0  0
  -31.0250  -17.5140   20.8527 H   0  0  0  0  0  0
  -28.6602  -25.0561   21.7365 H   0  0  0  0  0  0
  -27.1490  -24.7771   20.9543 H   0  0  0  0  0  0
  -30.4863  -21.5931   24.8991 H   0  0  0  0  0  0
  -28.8156  -15.4797   21.1866 H   0  0  0  0  0  0
  1 25  1  0  0  0
  1 30  2  0  0  0
  1 83  1  0  0  0
  2  3  1  0  0  0
  2 25  1  0  0  0
  2 85  1  0  0  0
  2 86  1  0  0  0
  3  4  1  0  0  0
  3 87  1  0  0  0
  3 88  1  0  0  0
  4  5  1  0  0  0
  4 89  1  0  0  0
  4 90  1  0  0  0
  5  6  1  0  0  0
  5 26  1  0  0  0
  5 91  1  0  0  0
  6 25  1  0  0  0
  6 92  1  0  0  0
  6 93  1  0  0  0
  7  8  2  0  0  0
  7 26  1  0  0  0
  7 29  1  0  0  0
  8  9  1  0  0  0
  8 22  1  0  0  0
  9 10  1  0  0  0
  9 27  2  0  0  0
 10 11  2  0  0  0
 10 15  1  0  0  0
 11 12  1  0  0  0
 11 94  1  0  0  0
 12 13  2  0  0  0
 12 95  1  0  0  0
 13 14  1  0  0  0
 13 31  1  0  0  0
 14 15  2  0  0  0
 14 96  1  0  0  0
 15 97  1  0  0  0
 16 17  2  0  0  0
 16 21  1  0  0  0
 16 31  1  0  0  0
 17 18  1  0  0  0
 17 98  1  0  0  0
 18 19  2  0  0  0
 18 99  1  0  0  0
 19 20  1  0  0  0
 19 24  1  0  0  0
 20 21  2  0  0  0
 20100  1  0  0  0
 21 23  1  0  0  0
 22 28  1  0  0  0
 22 32  2  0  0  0
 26 27  1  0  0  0
 28101  1  0  0  0
 28102  1  0  0  0
 29103  1  0  0  0
 29104  1  0  0  0
 33 34  1  0  0  0
 33 66  1  0  0  0
 33 70  2  0  0  0
 34 36  1  0  0  0
 34 59  1  0  0  0
 34105  1  0  0  0
 35 44  2  0  0  0
 35 45  1  0  0  0
 35 68  1  0  0  0
 36 56  1  0  0  0
 36106  1  0  0  0
 37 39  1  0  0  0
 37 47  1  0  0  0
 37 66  1  0  0  0
 37107  1  0  0  0
 38 43  2  0  0  0
 38 46  1  0  0  0
 38 47  1  0  0  0
 39 64  1  0  0  0
 39 67  2  0  0  0
 40 52  1  0  0  0
 40 53  2  0  0  0
 40 58  1  0  0  0
 41108  1  0  0  0
 41109  1  0  0  0
 41110  1  0  0  0
 41 48  1  0  0  0
 42 43  1  0  0  0
 42 66  1  0  0  0
 42111  1  0  0  0
 42112  1  0  0  0
 43 44  1  0  0  0
 44113  1  0  0  0
 45 46  2  0  0  0
 45114  1  0  0  0
 46115  1  0  0  0
 47116  1  0  0  0
 47117  1  0  0  0
 48 56  1  0  0  0
 48 65  1  0  0  0
 48118  1  0  0  0
 49 50  1  0  0  0
 49 53  1  0  0  0
 49 64  1  0  0  0
 49119  1  0  0  0
 50 51  1  0  0  0
 50120  1  0  0  0
 50121  1  0  0  0
 51 52  1  0  0  0
 51122  1  0  0  0
 51123  1  0  0  0
 52124  1  0  0  0
 52125  1  0  0  0
 53 54  1  0  0  0
 54 55  2  0  0  0
 54126  1  0  0  0
 55 57  1  0  0  0
 55127  1  0  0  0
 56 69  2  0  0  0
 57 58  2  0  0  0
 57128  1  0  0  0
 58129  1  0  0  0
 59 60  1  0  0  0
 59 61  1  0  0  0
 59 62  1  0  0  0
 60130  1  0  0  0
 60131  1  0  0  0
 60132  1  0  0  0
 61133  1  0  0  0
 61134  1  0  0  0
 61135  1  0  0  0
 62136  1  0  0  0
 62137  1  0  0  0
 62138  1  0  0  0
 63 65  1  0  0  0
 63139  1  0  0  0
 63140  1  0  0  0
 63141  1  0  0  0
 64142  1  0  0  0
 65143  1  0  0  0
 68 80  1  0  0  0
 71 73  2  0  0  0
 71 81  1  0  0  0
 71144  1  0  0  0
 72 73  1  0  0  0
 72 74  2  0  0  0
 72 75  1  0  0  0
 73 77  1  0  0  0
 74 76  1  0  0  0
 74 81  1  0  0  0
 75 82  1  0  0  0
 75 84  2  0  0  0
 76 82  1  0  0  0
 76145  1  0  0  0
 76146  1  0  0  0
 77 79  1  0  0  0
 77147  1  0  0  0
 77148  1  0  0  0
 78 80  1  0  0  0
 78 81  1  0  0  0
 78149  1  0  0  0
 78150  1  0  0  0
 79 83  1  0  0  0
 79151  1  0  0  0
 79152  1  0  0  0
 80153  1  0  0  0
 80154  1  0  0  0
 82155  1  0  0  0
 83156  1  0  0  0
M  ISO  4   1 100  68 101  80 101  83 100
M  END
> <chiral flag>
0

> <version>
0

> <s_m_source_file>
/data/baiqing/PycharmProjects/Reinvent-master-3.2/result/LINK_invent/BTK/process_docking_weight1_custom_sum_contain_oxygen_bond_distance_aromatic_linkinvent_7_9_3/rearranged_h_0147.sdf

> <i_m_source_file_index>
90

> <r_mmod_Potential_Energy-OPLS-2005>
164.940414428711

> <r_mmod_Stretch_Energy-OPLS-2005>
121.609573364258

> <r_mmod_Bend_Energy-OPLS-2005>
275.464965820312

> <r_mmod_Torsional_Energy-OPLS-2005>
242.032333374023

> <r_mmod_Improper_Torsional_Energy-OPLS-2005>
5.09499788284302

> <r_mmod_Van_der_Waal_Energy-OPLS-2005>
104.011093139648

> <r_mmod_Electrostatic_Energy-OPLS-2005>
-403.453552246094

> <r_mmod_Solvation_Energy-OPLS-2005>
-258.056732177734

> <b_mmod_Minimization_Converged-OPLS-2005>
0

> <r_mmod_RMS_Derivative-OPLS-2005>
6.1004376411438

$$$$
90
                    3D
 Structure written by MMmdl.
170179  0  0  1  0            999 V2000
  -30.7930  -14.3412   20.7111 C   0  0  0  0  0  0
  -30.4121  -12.2938   19.3876 C   0  0  0  0  0  0
  -29.4797  -12.5338   18.1876 C   0  0  0  0  0  0
  -28.0057  -12.3846   18.6076 C   0  0  0  0  0  0
  -27.6650  -13.2056   19.8783 C   0  0  2  0  0  0
  -28.7033  -12.9549   20.9948 C   0  0  0  0  0  0
  -25.2585  -13.8162   20.5669 C   0  0  0  0  0  0
  -24.1835  -13.0438   20.9174 C   0  0  0  0  0  0
  -24.6386  -11.6905   20.8732 C   0  0  0  0  0  0
  -23.9048  -10.4291   21.0404 C   0  0  0  0  0  0
  -24.3608   -9.4210   21.9183 C   0  0  0  0  0  0
  -23.6293   -8.2242   22.0754 C   0  0  0  0  0  0
  -22.4273   -8.0275   21.3552 C   0  0  0  0  0  0
  -21.9905   -9.0245   20.4651 C   0  0  0  0  0  0
  -22.7222  -10.2129   20.3055 C   0  0  0  0  0  0
  -21.6857   -6.0728   22.5284 C   0  0  0  0  0  0
  -21.4011   -6.5632   23.8216 C   0  0  0  0  0  0
  -21.3661   -5.6785   24.9178 C   0  0  0  0  0  0
  -21.6050   -4.3049   24.7226 C   0  0  0  0  0  0
  -21.8820   -3.8139   23.4348 C   0  0  0  0  0  0
  -21.9192   -4.6956   22.3402 C   0  0  0  0  0  0
  -22.7856  -13.5238   21.1845 C   0  0  0  0  0  0
  -22.1657   -4.2141   21.0979 F   0  0  0  0  0  0
  -21.5635   -3.4529   25.7738 F   0  0  0  0  0  0
  -30.0503  -13.2337   20.4595 N   0  0  0  0  0  0
  -26.3034  -12.9333   20.3376 N   0  0  0  0  0  0
  -25.9311  -11.6491   20.5754 N   0  0  0  0  0  0
  -22.0494  -12.8242   22.0410 N   0  0  0  0  0  0
  -25.4305  -15.1874   20.4058 N   0  0  0  0  0  0
  -31.7769  -14.6701   20.0426 O   0  0  0  0  0  0
  -21.6646   -6.8868   21.4247 O   0  0  0  0  0  0
  -22.3539  -14.5540   20.6682 O   0  0  0  0  0  0
  -24.6133  -31.8703   23.2134 C   0  0  0  0  0  0
  -25.9036  -32.4831   23.8414 C   0  0  1  0  0  0
  -27.2353  -27.4496   20.0706 C   0  0  0  0  0  0
  -25.5906  -33.8631   24.2346 N   0  0  0  0  0  0
  -23.3992  -30.4968   21.5539 C   0  0  2  0  0  0
  -24.8427  -28.9678   20.1146 C   0  0  0  0  0  0
  -22.7400  -29.4674   22.4999 C   0  0  0  0  0  0
  -18.0269  -28.1377   22.8490 C   0  0  0  0  0  0
  -24.1488  -36.7318   23.2638 C   0  0  0  0  0  0
  -25.9289  -30.8355   21.3681 C   0  0  0  0  0  0
  -26.0021  -29.4715   20.7143 C   0  0  0  0  0  0
  -27.1943  -28.7137   20.7026 C   0  0  0  0  0  0
  -26.0460  -26.9563   19.4778 C   0  0  0  0  0  0
  -24.8579  -27.7061   19.5010 C   0  0  0  0  0  0
  -23.6056  -29.8336   20.1668 C   0  0  0  0  0  0
  -25.4108  -36.3118   24.0342 C   0  0  1  0  0  0
  -20.5860  -28.3662   23.1321 C   0  0  2  0  0  0
  -20.6762  -26.9401   22.5415 C   0  0  0  0  0  0
  -19.5741  -26.6385   21.5211 C   0  0  0  0  0  0
  -18.1920  -26.7922   22.1622 C   0  0  0  0  0  0
  -19.1518  -28.8833   23.2901 C   0  0  0  0  0  0
  -18.9448  -30.1444   23.8909 C   0  0  0  0  0  0
  -17.6452  -30.6586   24.0564 C   0  0  0  0  0  0
  -25.9036  -34.9481   23.5139 C   0  0  0  0  0  0
  -16.5341  -29.9085   23.6325 C   0  0  0  0  0  0
  -16.7259  -28.6506   23.0345 C   0  0  0  0  0  0
  -26.4469  -31.6602   25.0733 C   0  0  0  0  0  0
  -25.3748  -31.3704   26.1492 C   0  0  0  0  0  0
  -27.0293  -30.3045   24.6099 C   0  0  0  0  0  0
  -27.6057  -32.4312   25.7483 C   0  0  0  0  0  0
  -27.5585  -37.1812   24.8465 C   0  0  0  0  0  0
  -21.4133  -29.3034   22.3732 N   0  0  0  0  0  0
  -26.4296  -37.3799   23.9411 N   0  0  0  0  0  0
  -24.6650  -31.0815   22.1031 N   0  0  0  0  0  0
  -23.4184  -28.8209   23.3023 O   0  0  0  0  0  0
  -28.4216  -26.7411   20.1031 O   0  0  0  0  0  0
  -26.5591  -34.8926   22.4697 O   0  0  0  0  0  0
  -23.5329  -32.1454   23.7538 O   0  0  0  0  0  0
  -26.8149  -20.2922   22.2736 C   0  0  0  0  0  0
  -29.5422  -20.0781   21.6341 C   0  0  0  0  0  0
  -27.5178  -21.4163   21.8006 C   0  0  0  0  0  0
  -28.8935  -21.3287   21.4997 C   0  0  0  0  0  0
  -27.4746  -19.0578   22.4285 C   0  0  0  0  0  0
  -28.8423  -18.9342   22.1014 C   0  0  0  0  0  0
  -26.7954  -22.7186   21.5634 C   0  0  0  0  0  0
  -27.4364  -23.4687   20.3935 C   0  0  0  0  0  0
  -29.6891  -22.5602   21.0239 C   0  0  2  0  0  0
  -26.7039  -17.8519   22.9345 C   0  0  0  0  0  0
  -30.7541  -22.9378   22.0700 C   0  0  0  0  0  0
  -31.2201  -16.1106   22.4093 C   0  0  0  0  0  0
  -29.5364  -24.6078   19.6126 C   0  0  0  0  0  0
  -30.7678  -17.4877   21.8998 C   0  0  0  0  0  0
  -28.7219  -25.8022   19.0640 C   0  0  0  0  0  0
  -30.4579  -15.0103   21.8185 N   0  0  0  0  0  0
  -28.8685  -23.7670   20.6610 N   0  3  1  0  0  0
  -29.4092  -17.6871   22.2707 O   0  0  0  0  0  0
  -31.4554  -12.3933   19.0832 H   0  0  0  0  0  0
  -30.3080  -11.2692   19.7473 H   0  0  0  0  0  0
  -29.7134  -11.8330   17.3843 H   0  0  0  0  0  0
  -29.6489  -13.5325   17.7826 H   0  0  0  0  0  0
  -27.8153  -11.3260   18.7876 H   0  0  0  0  0  0
  -27.3482  -12.6751   17.7871 H   0  0  0  0  0  0
  -27.7210  -14.2598   19.6058 H   0  0  0  0  0  0
  -28.6615  -11.9163   21.3260 H   0  0  0  0  0  0
  -28.4488  -13.5483   21.8724 H   0  0  0  0  0  0
  -25.2760   -9.5683   22.4747 H   0  0  0  0  0  0
  -24.0014   -7.4633   22.7462 H   0  0  0  0  0  0
  -21.0841   -8.8751   19.8957 H   0  0  0  0  0  0
  -22.3681  -10.9663   19.6152 H   0  0  0  0  0  0
  -21.2006   -7.6142   23.9713 H   0  0  0  0  0  0
  -21.1481   -6.0515   25.9081 H   0  0  0  0  0  0
  -22.0600   -2.7602   23.2846 H   0  0  0  0  0  0
  -22.4096  -11.9901   22.4809 H   0  0  0  0  0  0
  -21.1104  -13.1264   22.2592 H   0  0  0  0  0  0
  -24.6669  -15.8453   20.5169 H   0  0  0  0  0  0
  -26.2926  -15.6257   20.1066 H   0  0  0  0  0  0
  -26.7106  -32.5544   23.1176 H   0  0  0  0  0  0
  -25.0069  -33.9796   25.0499 H   0  0  0  0  0  0
  -22.6866  -31.3134   21.4191 H   0  0  0  0  0  0
  -23.3746  -35.9656   23.3308 H   0  0  0  0  0  0
  -24.3584  -36.8919   22.2051 H   0  0  0  0  0  0
  -23.7240  -37.6529   23.6638 H   0  0  0  0  0  0
  -26.0444  -31.6019   20.6001 H   0  0  0  0  0  0
  -26.8166  -30.8845   21.9872 H   0  0  0  0  0  0
  -28.0882  -29.1003   21.1724 H   0  0  0  0  0  0
  -25.9811  -25.9915   19.0028 H   0  0  0  0  0  0
  -23.9623  -27.3075   19.0443 H   0  0  0  0  0  0
  -23.7133  -30.6103   19.4088 H   0  0  0  0  0  0
  -22.7293  -29.2542   19.8711 H   0  0  0  0  0  0
  -25.1281  -36.1987   25.0834 H   0  0  0  0  0  0
  -20.9955  -28.3226   24.1440 H   0  0  0  0  0  0
  -20.5671  -26.2271   23.3600 H   0  0  0  0  0  0
  -21.6633  -26.7450   22.1205 H   0  0  0  0  0  0
  -19.6905  -25.6300   21.1228 H   0  0  0  0  0  0
  -19.6684  -27.3204   20.6748 H   0  0  0  0  0  0
  -17.4194  -26.6670   21.4021 H   0  0  0  0  0  0
  -18.0322  -26.0061   22.9017 H   0  0  0  0  0  0
  -19.7927  -30.7249   24.2285 H   0  0  0  0  0  0
  -17.5012  -31.6267   24.5162 H   0  0  0  0  0  0
  -15.5342  -30.2993   23.7647 H   0  0  0  0  0  0
  -15.8660  -28.0831   22.7046 H   0  0  0  0  0  0
  -24.5896  -30.7080   25.7829 H   0  0  0  0  0  0
  -24.8972  -32.2863   26.4984 H   0  0  0  0  0  0
  -25.8110  -30.8834   27.0224 H   0  0  0  0  0  0
  -26.2830  -29.6808   24.1164 H   0  0  0  0  0  0
  -27.4077  -29.7273   25.4545 H   0  0  0  0  0  0
  -27.8663  -30.4358   23.9237 H   0  0  0  0  0  0
  -27.2686  -33.3603   26.2090 H   0  0  0  0  0  0
  -28.3849  -32.6884   25.0296 H   0  0  0  0  0  0
  -28.0746  -31.8419   26.5373 H   0  0  0  0  0  0
  -28.2603  -38.0109   24.7517 H   0  0  0  0  0  0
  -28.1076  -36.2640   24.6279 H   0  0  0  0  0  0
  -27.2306  -37.1455   25.8869 H   0  0  0  0  0  0
  -20.9289  -29.8768   21.6970 H   0  0  0  0  0  0
  -26.0187  -38.2881   24.1404 H   0  0  0  0  0  0
  -25.7620  -20.3750   22.5068 H   0  0  0  0  0  0
  -30.5887  -20.0214   21.3742 H   0  0  0  0  0  0
  -26.8209  -23.3197   22.4733 H   0  0  0  0  0  0
  -25.7447  -22.5267   21.3411 H   0  0  0  0  0  0
  -26.8692  -24.3849   20.2638 H   0  0  0  0  0  0
  -27.3426  -22.8917   19.4719 H   0  0  0  0  0  0
  -30.2046  -22.2224   20.1231 H   0  0  0  0  0  0
  -25.6553  -18.0873   23.1170 H   0  0  0  0  0  0
  -27.1367  -17.4892   23.8671 H   0  0  0  0  0  0
  -26.7446  -17.0437   22.2045 H   0  0  0  0  0  0
  -30.2953  -23.2277   23.0157 H   0  0  0  0  0  0
  -31.3807  -23.7641   21.7364 H   0  0  0  0  0  0
  -31.4231  -22.1020   22.2761 H   0  0  0  0  0  0
  -31.1056  -16.0676   23.4931 H   0  0  0  0  0  0
  -32.2870  -15.9818   22.2166 H   0  0  0  0  0  0
  -30.4800  -24.9866   20.0054 H   0  0  0  0  0  0
  -29.7946  -23.9757   18.7620 H   0  0  0  0  0  0
  -30.8830  -17.5627   20.8173 H   0  0  0  0  0  0
  -31.4078  -18.2413   22.3608 H   0  0  0  0  0  0
  -27.8750  -25.4325   18.4935 H   0  0  0  0  0  0
  -29.3325  -26.3309   18.3312 H   0  0  0  0  0  0
  -29.6484  -14.6833   22.3253 H   0  0  0  0  0  0
  -28.8460  -24.3325   21.4970 H   0  0  0  0  0  0
  1 25  1  0  0  0
  1 30  2  0  0  0
  1 86  1  0  0  0
  2  3  1  0  0  0
  2 25  1  0  0  0
  2 89  1  0  0  0
  2 90  1  0  0  0
  3  4  1  0  0  0
  3 91  1  0  0  0
  3 92  1  0  0  0
  4  5  1  0  0  0
  4 93  1  0  0  0
  4 94  1  0  0  0
  5  6  1  0  0  0
  5 26  1  0  0  0
  5 95  1  0  0  0
  6 25  1  0  0  0
  6 96  1  0  0  0
  6 97  1  0  0  0
  7  8  2  0  0  0
  7 26  1  0  0  0
  7 29  1  0  0  0
  8  9  1  0  0  0
  8 22  1  0  0  0
  9 10  1  0  0  0
  9 27  2  0  0  0
 10 11  2  0  0  0
 10 15  1  0  0  0
 11 12  1  0  0  0
 11 98  1  0  0  0
 12 13  2  0  0  0
 12 99  1  0  0  0
 13 14  1  0  0  0
 13 31  1  0  0  0
 14 15  2  0  0  0
 14100  1  0  0  0
 15101  1  0  0  0
 16 17  2  0  0  0
 16 21  1  0  0  0
 16 31  1  0  0  0
 17 18  1  0  0  0
 17102  1  0  0  0
 18 19  2  0  0  0
 18103  1  0  0  0
 19 20  1  0  0  0
 19 24  1  0  0  0
 20 21  2  0  0  0
 20104  1  0  0  0
 21 23  1  0  0  0
 22 28  1  0  0  0
 22 32  2  0  0  0
 26 27  1  0  0  0
 28105  1  0  0  0
 28106  1  0  0  0
 29107  1  0  0  0
 29108  1  0  0  0
 33 34  1  0  0  0
 33 66  1  0  0  0
 33 70  2  0  0  0
 34 36  1  0  0  0
 34 59  1  0  0  0
 34109  1  0  0  0
 35 44  2  0  0  0
 35 45  1  0  0  0
 35 68  1  0  0  0
 36 56  1  0  0  0
 36110  1  0  0  0
 37 39  1  0  0  0
 37 47  1  0  0  0
 37 66  1  0  0  0
 37111  1  0  0  0
 38 43  2  0  0  0
 38 46  1  0  0  0
 38 47  1  0  0  0
 39 64  1  0  0  0
 39 67  2  0  0  0
 40 52  1  0  0  0
 40 53  2  0  0  0
 40 58  1  0  0  0
 41112  1  0  0  0
 41113  1  0  0  0
 41114  1  0  0  0
 41 48  1  0  0  0
 42 43  1  0  0  0
 42 66  1  0  0  0
 42115  1  0  0  0
 42116  1  0  0  0
 43 44  1  0  0  0
 44117  1  0  0  0
 45 46  2  0  0  0
 45118  1  0  0  0
 46119  1  0  0  0
 47120  1  0  0  0
 47121  1  0  0  0
 48 56  1  0  0  0
 48 65  1  0  0  0
 48122  1  0  0  0
 49 50  1  0  0  0
 49 53  1  0  0  0
 49 64  1  0  0  0
 49123  1  0  0  0
 50 51  1  0  0  0
 50124  1  0  0  0
 50125  1  0  0  0
 51 52  1  0  0  0
 51126  1  0  0  0
 51127  1  0  0  0
 52128  1  0  0  0
 52129  1  0  0  0
 53 54  1  0  0  0
 54 55  2  0  0  0
 54130  1  0  0  0
 55 57  1  0  0  0
 55131  1  0  0  0
 56 69  2  0  0  0
 57 58  2  0  0  0
 57132  1  0  0  0
 58133  1  0  0  0
 59 60  1  0  0  0
 59 61  1  0  0  0
 59 62  1  0  0  0
 60134  1  0  0  0
 60135  1  0  0  0
 60136  1  0  0  0
 61137  1  0  0  0
 61138  1  0  0  0
 61139  1  0  0  0
 62140  1  0  0  0
 62141  1  0  0  0
 62142  1  0  0  0
 63 65  1  0  0  0
 63143  1  0  0  0
 63144  1  0  0  0
 63145  1  0  0  0
 64146  1  0  0  0
 65147  1  0  0  0
 68 85  1  0  0  0
 71 73  2  0  0  0
 71 75  1  0  0  0
 71148  1  0  0  0
 72 74  2  0  0  0
 72 76  1  0  0  0
 72149  1  0  0  0
 73 74  1  0  0  0
 73 77  1  0  0  0
 74 79  1  0  0  0
 75 76  2  0  0  0
 75 80  1  0  0  0
 76 88  1  0  0  0
 77 78  1  0  0  0
 77150  1  0  0  0
 77151  1  0  0  0
 78 87  1  0  0  0
 78152  1  0  0  0
 78153  1  0  0  0
 79 81  1  0  0  0
 79 87  1  0  0  0
 79154  1  0  0  0
 80155  1  0  0  0
 80156  1  0  0  0
 80157  1  0  0  0
 81158  1  0  0  0
 81159  1  0  0  0
 81160  1  0  0  0
 82 84  1  0  0  0
 82 86  1  0  0  0
 82161  1  0  0  0
 82162  1  0  0  0
 83 85  1  0  0  0
 83163  1  0  0  0
 83164  1  0  0  0
 83 87  1  0  0  0
 84 88  1  0  0  0
 84165  1  0  0  0
 84166  1  0  0  0
 85167  1  0  0  0
 85168  1  0  0  0
 86169  1  0  0  0
 87170  1  0  0  0
M  CHG  1  87   1
M  ISO  4   1 100  68 101  85 101  86 100
M  END
> <chiral flag>
0

> <version>
0

> <s_m_source_file>
/data/baiqing/PycharmProjects/Reinvent-master-3.2/result/LINK_invent/BTK/process_docking_weight1_custom_sum_contain_oxygen_bond_distance_aromatic_linkinvent_7_9_3/rearranged_h_0147.sdf

> <i_m_source_file_index>
91

> <r_mmod_Potential_Energy-OPLS-2005>
-229.542373657227

> <r_mmod_Stretch_Energy-OPLS-2005>
38.2947120666504

> <r_mmod_Bend_Energy-OPLS-2005>
114.169067382812

> <r_mmod_Torsional_Energy-OPLS-2005>
228.948196411133

> <r_mmod_Improper_Torsional_Energy-OPLS-2005>
2.46001243591309

> <r_mmod_Van_der_Waal_Energy-OPLS-2005>
166.064651489258

> <r_mmod_Electrostatic_Energy-OPLS-2005>
-376.575042724609

> <r_mmod_Solvation_Energy-OPLS-2005>
-411.483734130859

> <b_mmod_Minimization_Converged-OPLS-2005>
0

> <r_mmod_RMS_Derivative-OPLS-2005>
1.0442863702774

$$$$
91
                    3D
 Structure written by MMmdl.
165175  0  0  1  0            999 V2000
  -30.6255  -14.5890   20.5322 C   0  0  0  0  0  0
  -30.4526  -12.3716   19.4264 C   0  0  0  0  0  0
  -29.5081  -12.4886   18.2119 C   0  0  0  0  0  0
  -28.0225  -12.3490   18.6175 C   0  0  0  0  0  0
  -27.6522  -13.2056   19.8535 C   0  0  2  0  0  0
  -28.7012  -13.0176   20.9665 C   0  0  0  0  0  0
  -25.2515  -13.8125   20.5605 C   0  0  0  0  0  0
  -24.1823  -13.0422   20.9239 C   0  0  0  0  0  0
  -24.6398  -11.6894   20.8839 C   0  0  0  0  0  0
  -23.9058  -10.4275   21.0479 C   0  0  0  0  0  0
  -24.3602   -9.4168   21.9227 C   0  0  0  0  0  0
  -23.6266   -8.2216   22.0779 C   0  0  0  0  0  0
  -22.4253   -8.0264   21.3561 C   0  0  0  0  0  0
  -21.9902   -9.0251   20.4670 C   0  0  0  0  0  0
  -22.7246  -10.2123   20.3095 C   0  0  0  0  0  0
  -21.6845   -6.0711   22.5275 C   0  0  0  0  0  0
  -21.4012   -6.5619   23.8207 C   0  0  0  0  0  0
  -21.3666   -5.6782   24.9175 C   0  0  0  0  0  0
  -21.6044   -4.3040   24.7235 C   0  0  0  0  0  0
  -21.8814   -3.8123   23.4352 C   0  0  0  0  0  0
  -21.9186   -4.6939   22.3404 C   0  0  0  0  0  0
  -22.7823  -13.5210   21.1864 C   0  0  0  0  0  0
  -22.1646   -4.2123   21.0982 F   0  0  0  0  0  0
  -21.5646   -3.4532   25.7753 F   0  0  0  0  0  0
  -30.0150  -13.3733   20.4091 N   0  0  0  0  0  0
  -26.2985  -12.9316   20.3293 N   0  0  0  0  0  0
  -25.9312  -11.6491   20.5800 N   0  0  0  0  0  0
  -22.0442  -12.8262   22.0425 N   0  0  0  0  0  0
  -25.4047  -15.1812   20.3747 N   0  0  0  0  0  0
  -31.8119  -14.7706   20.2462 O   0  0  0  0  0  0
  -21.6618   -6.8861   21.4237 O   0  0  0  0  0  0
  -22.3519  -14.5508   20.6666 O   0  0  0  0  0  0
  -24.6257  -31.8632   23.2087 C   0  0  0  0  0  0
  -25.9119  -32.4793   23.8383 C   0  0  1  0  0  0
  -27.1965  -27.3437   20.0867 C   0  0  0  0  0  0
  -25.5946  -33.8584   24.2318 N   0  0  0  0  0  0
  -23.4138  -30.5000   21.5526 C   0  0  2  0  0  0
  -24.8495  -28.9689   20.1073 C   0  0  0  0  0  0
  -22.7473  -29.4678   22.4933 C   0  0  0  0  0  0
  -18.0305  -28.1385   22.8517 C   0  0  0  0  0  0
  -24.1479  -36.7298   23.2628 C   0  0  0  0  0  0
  -25.9566  -30.8027   21.3767 C   0  0  0  0  0  0
  -26.0231  -29.4357   20.7140 C   0  0  0  0  0  0
  -27.2037  -28.6341   20.6988 C   0  0  0  0  0  0
  -25.9958  -26.9430   19.4463 C   0  0  0  0  0  0
  -24.8365  -27.7269   19.4659 C   0  0  0  0  0  0
  -23.6220  -29.8493   20.1623 C   0  0  0  0  0  0
  -25.4095  -36.3078   24.0334 C   0  0  1  0  0  0
  -20.5912  -28.3705   23.1279 C   0  0  2  0  0  0
  -20.6787  -26.9424   22.5409 C   0  0  0  0  0  0
  -19.5756  -26.6354   21.5227 C   0  0  0  0  0  0
  -18.1947  -26.7916   22.1658 C   0  0  0  0  0  0
  -19.1555  -28.8851   23.2927 C   0  0  0  0  0  0
  -18.9482  -30.1465   23.8925 C   0  0  0  0  0  0
  -17.6479  -30.6597   24.0589 C   0  0  0  0  0  0
  -25.9031  -34.9453   23.5098 C   0  0  0  0  0  0
  -16.5380  -29.9105   23.6337 C   0  0  0  0  0  0
  -16.7292  -28.6509   23.0379 C   0  0  0  0  0  0
  -26.4515  -31.6579   25.0726 C   0  0  0  0  0  0
  -25.3782  -31.3693   26.1471 C   0  0  0  0  0  0
  -27.0346  -30.3008   24.6129 C   0  0  0  0  0  0
  -27.6083  -32.4298   25.7515 C   0  0  0  0  0  0
  -27.5583  -37.1798   24.8472 C   0  0  0  0  0  0
  -21.4193  -29.3059   22.3668 N   0  0  0  0  0  0
  -26.4273  -37.3770   23.9421 N   0  0  0  0  0  0
  -24.6853  -31.0699   22.1033 N   0  0  0  0  0  0
  -23.4215  -28.8169   23.2966 O   0  0  0  0  0  0
  -28.2937  -26.4679   20.1272 O   0  0  0  0  0  0
  -26.5582  -34.8898   22.4652 O   0  0  0  0  0  0
  -23.5426  -32.1413   23.7455 O   0  0  0  0  0  0
  -26.5000  -20.1207   23.8766 C   0  0  0  0  0  0
  -26.6132  -18.7395   23.8247 C   0  0  0  0  0  0
  -27.2056  -20.9040   22.9632 C   0  0  0  0  0  0
  -27.4331  -18.1192   22.8630 C   0  0  0  0  0  0
  -28.2006  -18.9057   21.9322 C   0  0  0  0  0  0
  -28.0798  -20.3602   21.9721 C   0  0  0  0  0  0
  -26.7118  -15.7203   23.8570 C   0  0  0  0  0  0
  -28.2172  -15.7945   23.8151 C   0  0  0  0  0  0
  -30.3745  -18.1746   20.4070 C   0  0  0  0  0  0
  -27.4045  -16.6042   22.8306 C   0  0  0  0  0  0
  -28.9459  -18.0615   20.8772 C   0  0  1  0  0  0
  -30.0010  -16.9816   21.2695 C   0  0  1  0  0  0
  -28.9545  -23.8491   20.3191 C   0  0  0  0  0  0
  -27.9358  -25.0370   20.1024 C   0  0  0  0  0  0
  -28.3109  -22.6723   21.1483 C   0  0  0  0  0  0
  -29.7716  -15.6160   20.7899 N   0  0  0  0  0  0
  -28.7354  -21.2594   21.0942 O   0  0  0  0  0  0
  -31.4877  -12.5261   19.1190 H   0  0  0  0  0  0
  -30.4127  -11.3710   19.8605 H   0  0  0  0  0  0
  -29.7644  -11.7366   17.4652 H   0  0  0  0  0  0
  -29.6559  -13.4578   17.7323 H   0  0  0  0  0  0
  -27.8320  -11.2962   18.8241 H   0  0  0  0  0  0
  -27.3792  -12.6103   17.7771 H   0  0  0  0  0  0
  -27.6789  -14.2438   19.5269 H   0  0  0  0  0  0
  -28.7157  -11.9857   21.3156 H   0  0  0  0  0  0
  -28.4447  -13.6112   21.8371 H   0  0  0  0  0  0
  -25.2751   -9.5623   22.4787 H   0  0  0  0  0  0
  -23.9972   -7.4599   22.7484 H   0  0  0  0  0  0
  -21.0837   -8.8768   19.8967 H   0  0  0  0  0  0
  -22.3720  -10.9661   19.6188 H   0  0  0  0  0  0
  -21.1997   -7.6128   23.9711 H   0  0  0  0  0  0
  -21.1506   -6.0509   25.9084 H   0  0  0  0  0  0
  -22.0591   -2.7580   23.2864 H   0  0  0  0  0  0
  -22.4050  -11.9917   22.4830 H   0  0  0  0  0  0
  -21.1056  -13.1305   22.2621 H   0  0  0  0  0  0
  -24.6102  -15.8053   20.4625 H   0  0  0  0  0  0
  -26.1984  -15.6135   19.9221 H   0  0  0  0  0  0
  -26.7186  -32.5470   23.1135 H   0  0  0  0  0  0
  -25.0180  -33.9727   25.0524 H   0  0  0  0  0  0
  -22.7037  -31.3213   21.4212 H   0  0  0  0  0  0
  -23.3737  -35.9635   23.3279 H   0  0  0  0  0  0
  -24.3588  -36.8913   22.2043 H   0  0  0  0  0  0
  -23.7232  -37.6493   23.6653 H   0  0  0  0  0  0
  -26.0817  -31.5724   20.6127 H   0  0  0  0  0  0
  -26.8382  -30.8437   22.0044 H   0  0  0  0  0  0
  -28.1052  -28.9832   21.1848 H   0  0  0  0  0  0
  -25.8987  -26.0150   18.9066 H   0  0  0  0  0  0
  -23.9408  -27.3742   18.9729 H   0  0  0  0  0  0
  -23.7402  -30.6296   19.4110 H   0  0  0  0  0  0
  -22.7376  -29.2860   19.8604 H   0  0  0  0  0  0
  -25.1272  -36.1914   25.0829 H   0  0  0  0  0  0
  -21.0059  -28.3266   24.1376 H   0  0  0  0  0  0
  -20.5714  -26.2319   23.3616 H   0  0  0  0  0  0
  -21.6641  -26.7411   22.1213 H   0  0  0  0  0  0
  -19.6905  -25.6262   21.1256 H   0  0  0  0  0  0
  -19.6688  -27.3118   20.6719 H   0  0  0  0  0  0
  -17.4184  -26.6630   21.4103 H   0  0  0  0  0  0
  -18.0383  -26.0033   22.9042 H   0  0  0  0  0  0
  -19.7926  -30.7309   24.2334 H   0  0  0  0  0  0
  -17.5010  -31.6274   24.5212 H   0  0  0  0  0  0
  -15.5391  -30.3016   23.7651 H   0  0  0  0  0  0
  -15.8686  -28.0830   22.7097 H   0  0  0  0  0  0
  -24.5993  -30.6976   25.7831 H   0  0  0  0  0  0
  -24.8945  -32.2848   26.4878 H   0  0  0  0  0  0
  -25.8147  -30.8921   27.0255 H   0  0  0  0  0  0
  -26.2887  -29.6767   24.1182 H   0  0  0  0  0  0
  -27.4105  -29.7215   25.4571 H   0  0  0  0  0  0
  -27.8736  -30.4295   23.9289 H   0  0  0  0  0  0
  -27.2703  -33.3606   26.2073 H   0  0  0  0  0  0
  -28.3929  -32.6826   25.0381 H   0  0  0  0  0  0
  -28.0713  -31.8429   26.5453 H   0  0  0  0  0  0
  -28.2574  -38.0122   24.7514 H   0  0  0  0  0  0
  -28.1106  -36.2639   24.6288 H   0  0  0  0  0  0
  -27.2308  -37.1430   25.8879 H   0  0  0  0  0  0
  -20.9366  -29.8808   21.6900 H   0  0  0  0  0  0
  -26.0160  -38.2839   24.1422 H   0  0  0  0  0  0
  -25.8520  -20.5835   24.6080 H   0  0  0  0  0  0
  -26.0203  -18.1728   24.5246 H   0  0  0  0  0  0
  -27.0052  -21.9552   23.0816 H   0  0  0  0  0  0
  -26.2437  -16.1281   24.7468 H   0  0  0  0  0  0
  -26.2480  -14.8081   23.4862 H   0  0  0  0  0  0
  -28.7383  -14.9067   23.4720 H   0  0  0  0  0  0
  -28.7297  -16.3476   24.5976 H   0  0  0  0  0  0
  -30.9891  -18.9502   20.8634 H   0  0  0  0  0  0
  -30.5784  -17.9747   19.3571 H   0  0  0  0  0  0
  -27.3115  -16.2471   21.8099 H   0  0  0  0  0  0
  -28.2303  -17.8015   20.0995 H   0  0  0  0  0  0
  -30.3921  -17.0412   22.2836 H   0  0  0  0  0  0
  -29.8541  -24.2054   20.8201 H   0  0  0  0  0  0
  -29.2702  -23.4767   19.3458 H   0  0  0  0  0  0
  -27.1300  -24.9165   20.8300 H   0  0  0  0  0  0
  -27.5012  -24.8084   19.1319 H   0  0  0  0  0  0
  -27.2447  -22.6598   20.9148 H   0  0  0  0  0  0
  -28.4343  -23.0327   22.1711 H   0  0  0  0  0  0
  -28.8151  -15.3071   20.8546 H   0  0  0  0  0  0
  1 25  1  0  0  0
  1 30  2  0  0  0
  1 86  1  0  0  0
  2  3  1  0  0  0
  2 25  1  0  0  0
  2 88  1  0  0  0
  2 89  1  0  0  0
  3  4  1  0  0  0
  3 90  1  0  0  0
  3 91  1  0  0  0
  4  5  1  0  0  0
  4 92  1  0  0  0
  4 93  1  0  0  0
  5  6  1  0  0  0
  5 26  1  0  0  0
  5 94  1  0  0  0
  6 25  1  0  0  0
  6 95  1  0  0  0
  6 96  1  0  0  0
  7  8  2  0  0  0
  7 26  1  0  0  0
  7 29  1  0  0  0
  8  9  1  0  0  0
  8 22  1  0  0  0
  9 10  1  0  0  0
  9 27  2  0  0  0
 10 11  2  0  0  0
 10 15  1  0  0  0
 11 12  1  0  0  0
 11 97  1  0  0  0
 12 13  2  0  0  0
 12 98  1  0  0  0
 13 14  1  0  0  0
 13 31  1  0  0  0
 14 15  2  0  0  0
 14 99  1  0  0  0
 15100  1  0  0  0
 16 17  2  0  0  0
 16 21  1  0  0  0
 16 31  1  0  0  0
 17 18  1  0  0  0
 17101  1  0  0  0
 18 19  2  0  0  0
 18102  1  0  0  0
 19 20  1  0  0  0
 19 24  1  0  0  0
 20 21  2  0  0  0
 20103  1  0  0  0
 21 23  1  0  0  0
 22 28  1  0  0  0
 22 32  2  0  0  0
 26 27  1  0  0  0
 28104  1  0  0  0
 28105  1  0  0  0
 29106  1  0  0  0
 29107  1  0  0  0
 33 34  1  0  0  0
 33 66  1  0  0  0
 33 70  2  0  0  0
 34 36  1  0  0  0
 34 59  1  0  0  0
 34108  1  0  0  0
 35 44  2  0  0  0
 35 45  1  0  0  0
 35 68  1  0  0  0
 36 56  1  0  0  0
 36109  1  0  0  0
 37 39  1  0  0  0
 37 47  1  0  0  0
 37 66  1  0  0  0
 37110  1  0  0  0
 38 43  2  0  0  0
 38 46  1  0  0  0
 38 47  1  0  0  0
 39 64  1  0  0  0
 39 67  2  0  0  0
 40 52  1  0  0  0
 40 53  2  0  0  0
 40 58  1  0  0  0
 41111  1  0  0  0
 41112  1  0  0  0
 41113  1  0  0  0
 41 48  1  0  0  0
 42 43  1  0  0  0
 42 66  1  0  0  0
 42114  1  0  0  0
 42115  1  0  0  0
 43 44  1  0  0  0
 44116  1  0  0  0
 45 46  2  0  0  0
 45117  1  0  0  0
 46118  1  0  0  0
 47119  1  0  0  0
 47120  1  0  0  0
 48 56  1  0  0  0
 48 65  1  0  0  0
 48121  1  0  0  0
 49 50  1  0  0  0
 49 53  1  0  0  0
 49 64  1  0  0  0
 49122  1  0  0  0
 50 51  1  0  0  0
 50123  1  0  0  0
 50124  1  0  0  0
 51 52  1  0  0  0
 51125  1  0  0  0
 51126  1  0  0  0
 52127  1  0  0  0
 52128  1  0  0  0
 53 54  1  0  0  0
 54 55  2  0  0  0
 54129  1  0  0  0
 55 57  1  0  0  0
 55130  1  0  0  0
 56 69  2  0  0  0
 57 58  2  0  0  0
 57131  1  0  0  0
 58132  1  0  0  0
 59 60  1  0  0  0
 59 61  1  0  0  0
 59 62  1  0  0  0
 60133  1  0  0  0
 60134  1  0  0  0
 60135  1  0  0  0
 61136  1  0  0  0
 61137  1  0  0  0
 61138  1  0  0  0
 62139  1  0  0  0
 62140  1  0  0  0
 62141  1  0  0  0
 63 65  1  0  0  0
 63142  1  0  0  0
 63143  1  0  0  0
 63144  1  0  0  0
 64145  1  0  0  0
 65146  1  0  0  0
 68 84  1  0  0  0
 71 72  2  0  0  0
 71 73  1  0  0  0
 71147  1  0  0  0
 72 74  1  0  0  0
 72148  1  0  0  0
 73 76  2  0  0  0
 73149  1  0  0  0
 74 75  2  0  0  0
 74 80  1  0  0  0
 75 76  1  0  0  0
 75 81  1  0  0  0
 76 87  1  0  0  0
 77 78  1  0  0  0
 77 80  1  0  0  0
 77150  1  0  0  0
 77151  1  0  0  0
 78 80  1  0  0  0
 78152  1  0  0  0
 78153  1  0  0  0
 79 81  1  0  0  0
 79 82  1  0  0  0
 79154  1  0  0  0
 79155  1  0  0  0
 80156  1  0  0  0
 81 82  1  0  0  0
 81157  1  0  0  0
 82 86  1  0  0  0
 82158  1  0  0  0
 83 84  1  0  0  0
 83 85  1  0  0  0
 83159  1  0  0  0
 83160  1  0  0  0
 84161  1  0  0  0
 84162  1  0  0  0
 85 87  1  0  0  0
 85163  1  0  0  0
 85164  1  0  0  0
 86165  1  0  0  0
M  ISO  4   1 100  68 101  84 101  86 100
M  END
> <chiral flag>
0

> <version>
0

> <s_m_source_file>
/data/baiqing/PycharmProjects/Reinvent-master-3.2/result/LINK_invent/BTK/process_docking_weight1_custom_sum_contain_oxygen_bond_distance_aromatic_linkinvent_7_9_3/rearranged_h_0147.sdf

> <i_m_source_file_index>
92

> <r_mmod_Potential_Energy-OPLS-2005>
195.581329345703

> <r_mmod_Stretch_Energy-OPLS-2005>
81.8506317138672

> <r_mmod_Bend_Energy-OPLS-2005>
170.788284301758

> <r_mmod_Torsional_Energy-OPLS-2005>
322.144348144531

> <r_mmod_Improper_Torsional_Energy-OPLS-2005>
6.43826913833618

> <r_mmod_Van_der_Waal_Energy-OPLS-2005>
166.944885253906

> <r_mmod_Electrostatic_Energy-OPLS-2005>
-385.245330810547

> <r_mmod_Solvation_Energy-OPLS-2005>
-211.413635253906

> <b_mmod_Minimization_Converged-OPLS-2005>
0

> <r_mmod_RMS_Derivative-OPLS-2005>
4.61843872070312

$$$$
92
                    3D
 Structure written by MMmdl.
163172  0  0  1  0            999 V2000
  -30.6080  -14.7246   20.4209 C   0  0  0  0  0  0
  -30.4444  -12.4193   19.4785 C   0  0  0  0  0  0
  -29.5155  -12.4004   18.2427 C   0  0  0  0  0  0
  -28.0386  -12.2789   18.6648 C   0  0  0  0  0  0
  -27.6423  -13.2104   19.8426 C   0  0  2  0  0  0
  -28.6893  -13.1693   20.9733 C   0  0  0  0  0  0
  -25.2542  -13.8172   20.5683 C   0  0  0  0  0  0
  -24.1801  -13.0461   20.9202 C   0  0  0  0  0  0
  -24.6355  -11.6926   20.8760 C   0  0  0  0  0  0
  -23.9026  -10.4320   21.0417 C   0  0  0  0  0  0
  -24.3577   -9.4231   21.9185 C   0  0  0  0  0  0
  -23.6276   -8.2254   22.0748 C   0  0  0  0  0  0
  -22.4258   -8.0295   21.3544 C   0  0  0  0  0  0
  -21.9885   -9.0271   20.4649 C   0  0  0  0  0  0
  -22.7207  -10.2154   20.3066 C   0  0  0  0  0  0
  -21.6873   -6.0729   22.5268 C   0  0  0  0  0  0
  -21.4055   -6.5630   23.8207 C   0  0  0  0  0  0
  -21.3653   -5.6766   24.9156 C   0  0  0  0  0  0
  -21.6039   -4.3030   24.7205 C   0  0  0  0  0  0
  -21.8830   -3.8137   23.4325 C   0  0  0  0  0  0
  -21.9211   -4.6959   22.3387 C   0  0  0  0  0  0
  -22.7821  -13.5273   21.1824 C   0  0  0  0  0  0
  -22.1660   -4.2143   21.0961 F   0  0  0  0  0  0
  -21.5599   -3.4506   25.7709 F   0  0  0  0  0  0
  -29.9860  -13.5028   20.3732 N   0  0  0  0  0  0
  -26.2933  -12.9319   20.3279 N   0  0  0  0  0  0
  -25.9278  -11.6493   20.5796 N   0  0  0  0  0  0
  -22.0442  -12.8305   22.0396 N   0  0  0  0  0  0
  -25.4334  -15.1881   20.4075 N   0  0  0  0  0  0
  -31.8313  -14.8076   20.2680 O   0  0  0  0  0  0
  -21.6655   -6.8870   21.4227 O   0  0  0  0  0  0
  -22.3512  -14.5560   20.6617 O   0  0  0  0  0  0
  -24.6244  -31.8599   23.1994 C   0  0  0  0  0  0
  -25.9103  -32.4774   23.8330 C   0  0  1  0  0  0
  -27.2133  -27.3234   20.1245 C   0  0  0  0  0  0
  -25.5899  -33.8576   24.2238 N   0  0  0  0  0  0
  -23.4159  -30.4824   21.5454 C   0  0  2  0  0  0
  -24.8588  -28.9288   20.1185 C   0  0  0  0  0  0
  -22.7461  -29.4641   22.4979 C   0  0  0  0  0  0
  -18.0270  -28.1397   22.8506 C   0  0  0  0  0  0
  -24.1477  -36.7298   23.2642 C   0  0  0  0  0  0
  -25.9552  -30.7947   21.3638 C   0  0  0  0  0  0
  -26.0296  -29.4207   20.7090 C   0  0  0  0  0  0
  -27.2172  -28.6332   20.6916 C   0  0  0  0  0  0
  -26.0222  -26.8657   19.5328 C   0  0  0  0  0  0
  -24.8545  -27.6558   19.5225 C   0  0  0  0  0  0
  -23.6257  -29.8078   20.1647 C   0  0  0  0  0  0
  -25.4103  -36.3078   24.0321 C   0  0  1  0  0  0
  -20.5873  -28.3685   23.1311 C   0  0  2  0  0  0
  -20.6762  -26.9418   22.5431 C   0  0  0  0  0  0
  -19.5740  -26.6396   21.5240 C   0  0  0  0  0  0
  -18.1915  -26.7945   22.1644 C   0  0  0  0  0  0
  -19.1535  -28.8858   23.2900 C   0  0  0  0  0  0
  -18.9457  -30.1470   23.8910 C   0  0  0  0  0  0
  -17.6465  -30.6605   24.0574 C   0  0  0  0  0  0
  -25.9045  -34.9451   23.5078 C   0  0  0  0  0  0
  -16.5342  -29.9114   23.6340 C   0  0  0  0  0  0
  -16.7266  -28.6524   23.0359 C   0  0  0  0  0  0
  -26.4472  -31.6607   25.0720 C   0  0  0  0  0  0
  -25.3683  -31.3809   26.1444 C   0  0  0  0  0  0
  -27.0289  -30.3008   24.6204 C   0  0  0  0  0  0
  -27.6011  -32.4376   25.7481 C   0  0  0  0  0  0
  -27.5575  -37.1798   24.8464 C   0  0  0  0  0  0
  -21.4175  -29.3040   22.3713 N   0  0  0  0  0  0
  -26.4278  -37.3779   23.9410 N   0  0  0  0  0  0
  -24.6842  -31.0628   22.0932 N   0  0  0  0  0  0
  -23.4194  -28.8191   23.3074 O   0  0  0  0  0  0
  -28.3321  -26.4885   20.1051 O   0  0  0  0  0  0
  -26.5657  -34.8924   22.4672 O   0  0  0  0  0  0
  -23.5419  -32.1402   23.7354 O   0  0  0  0  0  0
  -30.4047  -17.2106   18.2062 C   0  0  0  0  0  0
  -30.3527  -18.5501   18.9579 C   0  0  0  0  0  0
  -30.5928  -22.6895   20.7794 C   0  0  0  0  0  0
  -29.4837  -16.1305   18.8052 C   0  0  0  0  0  0
  -29.7914  -17.1569   21.0042 C   0  0  0  0  0  0
  -30.5189  -21.7237   19.5977 C   0  0  0  0  0  0
  -29.4373  -18.5191   20.1956 C   0  0  1  0  0  0
  -29.0706  -22.5976   20.7943 C   0  0  1  0  0  0
  -29.4036  -19.9431   20.9652 C   0  0  0  0  0  0
  -28.3415  -23.7928   20.0151 C   0  0  0  0  0  0
  -28.2496  -25.1847   20.7960 C   0  0  0  0  0  0
  -29.8091  -15.8504   20.2144 N   0  0  0  0  0  0
  -29.2404  -21.2281   20.1277 N   0  3  2  0  0  0
  -31.4817  -12.5512   19.1653 H   0  0  0  0  0  0
  -30.4083  -11.4625   20.0038 H   0  0  0  0  0  0
  -29.7780  -11.5535   17.6087 H   0  0  0  0  0  0
  -29.6670  -13.2723   17.6134 H   0  0  0  0  0  0
  -27.8911  -11.2440   18.9684 H   0  0  0  0  0  0
  -27.3791  -12.4347   17.8103 H   0  0  0  0  0  0
  -27.6271  -14.2192   19.4373 H   0  0  0  0  0  0
  -28.7252  -12.1873   21.4463 H   0  0  0  0  0  0
  -28.4306  -13.8832   21.7558 H   0  0  0  0  0  0
  -25.2716   -9.5710   22.4762 H   0  0  0  0  0  0
  -24.0005   -7.4645   22.7454 H   0  0  0  0  0  0
  -21.0826   -8.8787   19.8954 H   0  0  0  0  0  0
  -22.3667  -10.9684   19.6172 H   0  0  0  0  0  0
  -21.2086   -7.6145   23.9710 H   0  0  0  0  0  0
  -21.1440   -6.0488   25.9052 H   0  0  0  0  0  0
  -22.0622   -2.7607   23.2807 H   0  0  0  0  0  0
  -22.4041  -12.0004   22.4866 H   0  0  0  0  0  0
  -21.1058  -13.1362   22.2562 H   0  0  0  0  0  0
  -24.6786  -15.8564   20.5187 H   0  0  0  0  0  0
  -26.2902  -15.6101   20.0753 H   0  0  0  0  0  0
  -26.7170  -32.5438   23.1079 H   0  0  0  0  0  0
  -24.9922  -33.9705   25.0297 H   0  0  0  0  0  0
  -22.7094  -31.3024   21.4027 H   0  0  0  0  0  0
  -23.3725  -35.9647   23.3302 H   0  0  0  0  0  0
  -24.3561  -36.8935   22.2058 H   0  0  0  0  0  0
  -23.7251  -37.6506   23.6671 H   0  0  0  0  0  0
  -26.0800  -31.5569   20.5940 H   0  0  0  0  0  0
  -26.8375  -30.8476   21.9882 H   0  0  0  0  0  0
  -28.1238  -29.0137   21.1393 H   0  0  0  0  0  0
  -25.9886  -25.8825   19.0850 H   0  0  0  0  0  0
  -23.9521  -27.2686   19.0706 H   0  0  0  0  0  0
  -23.7357  -30.5779   19.4009 H   0  0  0  0  0  0
  -22.7447  -29.2325   19.8737 H   0  0  0  0  0  0
  -25.1284  -36.1905   25.0814 H   0  0  0  0  0  0
  -20.9968  -28.3259   24.1434 H   0  0  0  0  0  0
  -20.5677  -26.2302   23.3622 H   0  0  0  0  0  0
  -21.6619  -26.7462   22.1216 H   0  0  0  0  0  0
  -19.6883  -25.6313   21.1260 H   0  0  0  0  0  0
  -19.6661  -27.3207   20.6770 H   0  0  0  0  0  0
  -17.4184  -26.6714   21.4039 H   0  0  0  0  0  0
  -18.0295  -26.0088   22.9037 H   0  0  0  0  0  0
  -19.7934  -30.7292   24.2273 H   0  0  0  0  0  0
  -17.5014  -31.6283   24.5186 H   0  0  0  0  0  0
  -15.5352  -30.3013   23.7667 H   0  0  0  0  0  0
  -15.8661  -28.0853   22.7066 H   0  0  0  0  0  0
  -24.5806  -30.7218   25.7790 H   0  0  0  0  0  0
  -24.8928  -32.3013   26.4854 H   0  0  0  0  0  0
  -25.7972  -30.8987   27.0234 H   0  0  0  0  0  0
  -26.2871  -29.6800   24.1166 H   0  0  0  0  0  0
  -27.3882  -29.7251   25.4749 H   0  0  0  0  0  0
  -27.8787  -30.4267   23.9484 H   0  0  0  0  0  0
  -27.2572  -33.3654   26.2067 H   0  0  0  0  0  0
  -28.3785  -32.7006   25.0297 H   0  0  0  0  0  0
  -28.0710  -31.8521   26.5390 H   0  0  0  0  0  0
  -28.2601  -38.0089   24.7487 H   0  0  0  0  0  0
  -28.1056  -36.2615   24.6285 H   0  0  0  0  0  0
  -27.2295  -37.1453   25.8873 H   0  0  0  0  0  0
  -20.9360  -29.8729   21.6879 H   0  0  0  0  0  0
  -26.0147  -38.2850   24.1421 H   0  0  0  0  0  0
  -30.1561  -17.3637   17.1560 H   0  0  0  0  0  0
  -31.4346  -16.8480   18.2134 H   0  0  0  0  0  0
  -30.0258  -19.3234   18.2611 H   0  0  0  0  0  0
  -31.3649  -18.8146   19.2637 H   0  0  0  0  0  0
  -30.9910  -23.6743   20.5286 H   0  0  0  0  0  0
  -31.0750  -22.2707   21.6640 H   0  0  0  0  0  0
  -29.5842  -15.2465   18.1874 H   0  0  0  0  0  0
  -28.4342  -16.4118   18.7090 H   0  0  0  0  0  0
  -29.0730  -17.0299   21.8139 H   0  0  0  0  0  0
  -30.7631  -17.2760   21.4867 H   0  0  0  0  0  0
  -31.3427  -21.0152   19.5745 H   0  0  0  0  0  0
  -30.4021  -22.2155   18.6313 H   0  0  0  0  0  0
  -28.4184  -18.3993   19.8292 H   0  0  0  0  0  0
  -28.6775  -22.4758   21.8029 H   0  0  0  0  0  0
  -30.3027  -20.0247   21.5769 H   0  0  0  0  0  0
  -28.5770  -19.9220   21.6750 H   0  0  0  0  0  0
  -27.3356  -23.4952   19.7169 H   0  0  0  0  0  0
  -28.8662  -23.9800   19.0775 H   0  0  0  0  0  0
  -29.0899  -25.2061   21.4905 H   0  0  0  0  0  0
  -27.3697  -25.1658   21.4417 H   0  0  0  0  0  0
  -28.5495  -21.0792   19.4074 H   0  0  0  0  0  0
  1 25  1  0  0  0
  1 30  2  0  0  0
  1 82  1  0  0  0
  2  3  1  0  0  0
  2 25  1  0  0  0
  2 84  1  0  0  0
  2 85  1  0  0  0
  3  4  1  0  0  0
  3 86  1  0  0  0
  3 87  1  0  0  0
  4  5  1  0  0  0
  4 88  1  0  0  0
  4 89  1  0  0  0
  5  6  1  0  0  0
  5 26  1  0  0  0
  5 90  1  0  0  0
  6 25  1  0  0  0
  6 91  1  0  0  0
  6 92  1  0  0  0
  7  8  2  0  0  0
  7 26  1  0  0  0
  7 29  1  0  0  0
  8  9  1  0  0  0
  8 22  1  0  0  0
  9 10  1  0  0  0
  9 27  2  0  0  0
 10 11  2  0  0  0
 10 15  1  0  0  0
 11 12  1  0  0  0
 11 93  1  0  0  0
 12 13  2  0  0  0
 12 94  1  0  0  0
 13 14  1  0  0  0
 13 31  1  0  0  0
 14 15  2  0  0  0
 14 95  1  0  0  0
 15 96  1  0  0  0
 16 17  2  0  0  0
 16 21  1  0  0  0
 16 31  1  0  0  0
 17 18  1  0  0  0
 17 97  1  0  0  0
 18 19  2  0  0  0
 18 98  1  0  0  0
 19 20  1  0  0  0
 19 24  1  0  0  0
 20 21  2  0  0  0
 20 99  1  0  0  0
 21 23  1  0  0  0
 22 28  1  0  0  0
 22 32  2  0  0  0
 26 27  1  0  0  0
 28100  1  0  0  0
 28101  1  0  0  0
 29102  1  0  0  0
 29103  1  0  0  0
 33 34  1  0  0  0
 33 66  1  0  0  0
 33 70  2  0  0  0
 34 36  1  0  0  0
 34 59  1  0  0  0
 34104  1  0  0  0
 35 44  2  0  0  0
 35 45  1  0  0  0
 35 68  1  0  0  0
 36 56  1  0  0  0
 36105  1  0  0  0
 37 39  1  0  0  0
 37 47  1  0  0  0
 37 66  1  0  0  0
 37106  1  0  0  0
 38 43  2  0  0  0
 38 46  1  0  0  0
 38 47  1  0  0  0
 39 64  1  0  0  0
 39 67  2  0  0  0
 40 52  1  0  0  0
 40 53  2  0  0  0
 40 58  1  0  0  0
 41107  1  0  0  0
 41108  1  0  0  0
 41109  1  0  0  0
 41 48  1  0  0  0
 42 43  1  0  0  0
 42 66  1  0  0  0
 42110  1  0  0  0
 42111  1  0  0  0
 43 44  1  0  0  0
 44112  1  0  0  0
 45 46  2  0  0  0
 45113  1  0  0  0
 46114  1  0  0  0
 47115  1  0  0  0
 47116  1  0  0  0
 48 56  1  0  0  0
 48 65  1  0  0  0
 48117  1  0  0  0
 49 50  1  0  0  0
 49 53  1  0  0  0
 49 64  1  0  0  0
 49118  1  0  0  0
 50 51  1  0  0  0
 50119  1  0  0  0
 50120  1  0  0  0
 51 52  1  0  0  0
 51121  1  0  0  0
 51122  1  0  0  0
 52123  1  0  0  0
 52124  1  0  0  0
 53 54  1  0  0  0
 54 55  2  0  0  0
 54125  1  0  0  0
 55 57  1  0  0  0
 55126  1  0  0  0
 56 69  2  0  0  0
 57 58  2  0  0  0
 57127  1  0  0  0
 58128  1  0  0  0
 59 60  1  0  0  0
 59 61  1  0  0  0
 59 62  1  0  0  0
 60129  1  0  0  0
 60130  1  0  0  0
 60131  1  0  0  0
 61132  1  0  0  0
 61133  1  0  0  0
 61134  1  0  0  0
 62135  1  0  0  0
 62136  1  0  0  0
 62137  1  0  0  0
 63 65  1  0  0  0
 63138  1  0  0  0
 63139  1  0  0  0
 63140  1  0  0  0
 64141  1  0  0  0
 65142  1  0  0  0
 68 81  1  0  0  0
 71 72  1  0  0  0
 71 74  1  0  0  0
 71143  1  0  0  0
 71144  1  0  0  0
 72 77  1  0  0  0
 72145  1  0  0  0
 72146  1  0  0  0
 73 76  1  0  0  0
 73 78  1  0  0  0
 73147  1  0  0  0
 73148  1  0  0  0
 74 82  1  0  0  0
 74149  1  0  0  0
 74150  1  0  0  0
 75 77  1  0  0  0
 75 82  1  0  0  0
 75151  1  0  0  0
 75152  1  0  0  0
 76 83  1  0  0  0
 76153  1  0  0  0
 76154  1  0  0  0
 77 79  1  0  0  0
 77155  1  0  0  0
 78 80  1  0  0  0
 78 83  1  0  0  0
 78156  1  0  0  0
 79157  1  0  0  0
 79158  1  0  0  0
 79 83  1  0  0  0
 80 81  1  0  0  0
 80159  1  0  0  0
 80160  1  0  0  0
 81161  1  0  0  0
 81162  1  0  0  0
 83163  1  0  0  0
M  CHG  1  83   1
M  ISO  4   1 100  68 101  81 101  82 100
M  END
> <chiral flag>
0

> <version>
0

> <s_m_source_file>
/data/baiqing/PycharmProjects/Reinvent-master-3.2/result/LINK_invent/BTK/process_docking_weight1_custom_sum_contain_oxygen_bond_distance_aromatic_linkinvent_7_9_3/rearranged_h_0147.sdf

> <i_m_source_file_index>
93

> <r_mmod_Potential_Energy-OPLS-2005>
340.916778564453

> <r_mmod_Stretch_Energy-OPLS-2005>
109.311882019043

> <r_mmod_Bend_Energy-OPLS-2005>
170.81086730957

> <r_mmod_Torsional_Energy-OPLS-2005>
423.489013671875

> <r_mmod_Improper_Torsional_Energy-OPLS-2005>
14.4030637741089

> <r_mmod_Van_der_Waal_Energy-OPLS-2005>
132.698577880859

> <r_mmod_Electrostatic_Energy-OPLS-2005>
-143.720855712891

> <r_mmod_Solvation_Energy-OPLS-2005>
-439.809814453125

> <b_mmod_Minimization_Converged-OPLS-2005>
0

> <r_mmod_RMS_Derivative-OPLS-2005>
3.58943390846252

$$$$
93
                    3D
 Structure written by MMmdl.
171180  0  0  1  0            999 V2000
  -30.7053  -14.3997   20.6780 C   0  0  0  0  0  0
  -30.4309  -12.3088   19.3801 C   0  0  0  0  0  0
  -29.4818  -12.5209   18.1828 C   0  0  0  0  0  0
  -28.0051  -12.3740   18.6051 C   0  0  0  0  0  0
  -27.6636  -13.1915   19.8770 C   0  0  2  0  0  0
  -28.7028  -12.9020   20.9794 C   0  0  0  0  0  0
  -25.2600  -13.8130   20.5660 C   0  0  0  0  0  0
  -24.1835  -13.0421   20.9143 C   0  0  0  0  0  0
  -24.6373  -11.6877   20.8715 C   0  0  0  0  0  0
  -23.9043  -10.4276   21.0389 C   0  0  0  0  0  0
  -24.3585   -9.4198   21.9180 C   0  0  0  0  0  0
  -23.6261   -8.2237   22.0758 C   0  0  0  0  0  0
  -22.4255   -8.0274   21.3544 C   0  0  0  0  0  0
  -21.9888   -9.0240   20.4648 C   0  0  0  0  0  0
  -22.7209  -10.2117   20.3048 C   0  0  0  0  0  0
  -21.6859   -6.0725   22.5272 C   0  0  0  0  0  0
  -21.4017   -6.5628   23.8202 C   0  0  0  0  0  0
  -21.3662   -5.6780   24.9170 C   0  0  0  0  0  0
  -21.6049   -4.3049   24.7222 C   0  0  0  0  0  0
  -21.8813   -3.8135   23.4342 C   0  0  0  0  0  0
  -21.9184   -4.6949   22.3399 C   0  0  0  0  0  0
  -22.7867  -13.5240   21.1815 C   0  0  0  0  0  0
  -22.1661   -4.2133   21.0983 F   0  0  0  0  0  0
  -21.5625   -3.4537   25.7740 F   0  0  0  0  0  0
  -30.0371  -13.2398   20.4448 N   0  0  0  0  0  0
  -26.3030  -12.9260   20.3359 N   0  0  0  0  0  0
  -25.9289  -11.6445   20.5740 N   0  0  0  0  0  0
  -22.0499  -12.8251   22.0370 N   0  0  0  0  0  0
  -25.4353  -15.1838   20.4091 N   0  0  0  0  0  0
  -31.7802  -14.6982   20.1467 O   0  0  0  0  0  0
  -21.6637   -6.8857   21.4233 O   0  0  0  0  0  0
  -22.3559  -14.5544   20.6656 O   0  0  0  0  0  0
  -24.6134  -31.8690   23.2145 C   0  0  0  0  0  0
  -25.9056  -32.4821   23.8399 C   0  0  1  0  0  0
  -27.2377  -27.4687   20.0673 C   0  0  0  0  0  0
  -25.5936  -33.8623   24.2353 N   0  0  0  0  0  0
  -23.3978  -30.4954   21.5524 C   0  0  2  0  0  0
  -24.8427  -28.9644   20.1150 C   0  0  0  0  0  0
  -22.7383  -29.4664   22.4975 C   0  0  0  0  0  0
  -18.0270  -28.1399   22.8518 C   0  0  0  0  0  0
  -24.1443  -36.7208   23.2641 C   0  0  0  0  0  0
  -25.9271  -30.8312   21.3738 C   0  0  0  0  0  0
  -25.9972  -29.4696   20.7224 C   0  0  0  0  0  0
  -27.1925  -28.7192   20.7149 C   0  0  0  0  0  0
  -26.0607  -26.9613   19.4713 C   0  0  0  0  0  0
  -24.8649  -27.7030   19.4942 C   0  0  0  0  0  0
  -23.6055  -29.8322   20.1654 C   0  0  0  0  0  0
  -25.4072  -36.3076   24.0359 C   0  0  1  0  0  0
  -20.5852  -28.3660   23.1322 C   0  0  2  0  0  0
  -20.6743  -26.9394   22.5435 C   0  0  0  0  0  0
  -19.5719  -26.6401   21.5230 C   0  0  0  0  0  0
  -18.1901  -26.7942   22.1643 C   0  0  0  0  0  0
  -19.1526  -28.8841   23.2914 C   0  0  0  0  0  0
  -18.9480  -30.1454   23.8909 C   0  0  0  0  0  0
  -17.6483  -30.6613   24.0582 C   0  0  0  0  0  0
  -25.9038  -34.9470   23.5133 C   0  0  0  0  0  0
  -16.5359  -29.9132   23.6345 C   0  0  0  0  0  0
  -16.7266  -28.6542   23.0364 C   0  0  0  0  0  0
  -26.4517  -31.6596   25.0717 C   0  0  0  0  0  0
  -25.3843  -31.3692   26.1497 C   0  0  0  0  0  0
  -27.0365  -30.3041   24.6090 C   0  0  0  0  0  0
  -27.6099  -32.4321   25.7474 C   0  0  0  0  0  0
  -27.5526  -37.1743   24.8499 C   0  0  0  0  0  0
  -21.4120  -29.3005   22.3693 N   0  0  0  0  0  0
  -26.4222  -37.3794   23.9485 N   0  0  0  0  0  0
  -24.6626  -31.0828   22.1021 N   0  0  0  0  0  0
  -23.4172  -28.8219   23.3012 O   0  0  0  0  0  0
  -28.4358  -26.7903   20.0368 O   0  0  0  0  0  0
  -26.5609  -34.8929   22.4688 O   0  0  0  0  0  0
  -23.5330  -32.1436   23.7555 O   0  0  0  0  0  0
  -29.6376  -21.2439   21.7246 C   0  0  0  0  0  0
  -29.5091  -20.8021   23.0664 C   0  0  0  0  0  0
  -29.9621  -20.1615   20.9671 C   0  0  0  0  0  0
  -29.8240  -19.4653   23.0929 C   0  0  0  0  0  0
  -29.4576  -22.6342   21.1637 C   0  0  0  0  0  0
  -30.1530  -20.1814   19.4808 C   0  0  0  0  0  0
  -30.2905  -21.6246   18.9526 C   0  0  0  0  0  0
  -29.3084  -22.6064   19.6283 C   0  0  2  0  0  0
  -29.1143  -21.6681   24.2367 C   0  0  0  0  0  0
  -29.8899  -18.6093   24.3222 C   0  0  0  0  0  0
  -27.9414  -24.2111   17.3933 C   0  0  0  0  0  0
  -30.3111  -17.6927   21.1941 C   0  0  0  0  0  0
  -30.4750  -16.4750   22.1324 C   0  0  0  0  0  0
  -28.7842  -26.1595   18.8032 C   0  0  0  0  0  0
  -28.4105  -24.6622   18.7850 C   0  0  2  0  0  0
  -30.0518  -19.0317   21.7730 N   0  0  0  0  0  0
  -30.0657  -15.2116   21.5275 N   0  0  0  0  0  0
  -29.5691  -23.9109   19.1245 O   0  0  0  0  0  0
  -31.4669  -12.4510   19.0681 H   0  0  0  0  0  0
  -30.3651  -11.2801   19.7410 H   0  0  0  0  0  0
  -29.7137  -11.8101   17.3893 H   0  0  0  0  0  0
  -29.6396  -13.5141   17.7577 H   0  0  0  0  0  0
  -27.8125  -11.3153   18.7871 H   0  0  0  0  0  0
  -27.3480  -12.6631   17.7868 H   0  0  0  0  0  0
  -27.7304  -14.2474   19.6125 H   0  0  0  0  0  0
  -28.6807  -11.8426   21.2422 H   0  0  0  0  0  0
  -28.4431  -13.4187   21.9037 H   0  0  0  0  0  0
  -25.2721   -9.5686   22.4763 H   0  0  0  0  0  0
  -23.9973   -7.4631   22.7485 H   0  0  0  0  0  0
  -21.0818   -8.8740   19.8958 H   0  0  0  0  0  0
  -22.3654  -10.9646   19.6158 H   0  0  0  0  0  0
  -21.2029   -7.6139   23.9699 H   0  0  0  0  0  0
  -21.1495   -6.0526   25.9069 H   0  0  0  0  0  0
  -22.0596   -2.7600   23.2849 H   0  0  0  0  0  0
  -22.4101  -11.9895   22.4745 H   0  0  0  0  0  0
  -21.1125  -13.1294   22.2581 H   0  0  0  0  0  0
  -24.6695  -15.8397   20.5140 H   0  0  0  0  0  0
  -26.2979  -15.6253   20.1132 H   0  0  0  0  0  0
  -26.7097  -32.5567   23.1136 H   0  0  0  0  0  0
  -25.0172  -33.9788   25.0544 H   0  0  0  0  0  0
  -22.6856  -31.3114   21.4166 H   0  0  0  0  0  0
  -23.3751  -35.9500   23.3388 H   0  0  0  0  0  0
  -24.3516  -36.8728   22.2035 H   0  0  0  0  0  0
  -23.7122  -37.6400   23.6607 H   0  0  0  0  0  0
  -26.0566  -31.5952   20.6062 H   0  0  0  0  0  0
  -26.8058  -30.8705   22.0054 H   0  0  0  0  0  0
  -28.0837  -29.1086   21.1870 H   0  0  0  0  0  0
  -26.0448  -26.0007   18.9818 H   0  0  0  0  0  0
  -23.9763  -27.3037   19.0251 H   0  0  0  0  0  0
  -23.7193  -30.6098   19.4088 H   0  0  0  0  0  0
  -22.7281  -29.2545   19.8658 H   0  0  0  0  0  0
  -25.1227  -36.1897   25.0842 H   0  0  0  0  0  0
  -20.9976  -28.3235   24.1429 H   0  0  0  0  0  0
  -20.5658  -26.2266   23.3620 H   0  0  0  0  0  0
  -21.6606  -26.7450   22.1214 H   0  0  0  0  0  0
  -19.6888  -25.6329   21.1225 H   0  0  0  0  0  0
  -19.6668  -27.3249   20.6791 H   0  0  0  0  0  0
  -17.4170  -26.6733   21.4050 H   0  0  0  0  0  0
  -18.0294  -26.0072   22.9014 H   0  0  0  0  0  0
  -19.7960  -30.7269   24.2284 H   0  0  0  0  0  0
  -17.5058  -31.6319   24.5171 H   0  0  0  0  0  0
  -15.5367  -30.3066   23.7675 H   0  0  0  0  0  0
  -15.8645  -28.0900   22.7067 H   0  0  0  0  0  0
  -24.6021  -30.7021   25.7848 H   0  0  0  0  0  0
  -24.9060  -32.2857   26.4965 H   0  0  0  0  0  0
  -25.8240  -30.8866   27.0232 H   0  0  0  0  0  0
  -26.2924  -29.6785   24.1143 H   0  0  0  0  0  0
  -27.4137  -29.7270   25.4541 H   0  0  0  0  0  0
  -27.8765  -30.4372   23.9270 H   0  0  0  0  0  0
  -27.2727  -33.3612   26.2078 H   0  0  0  0  0  0
  -28.3893  -32.6871   25.0289 H   0  0  0  0  0  0
  -28.0800  -31.8445   26.5362 H   0  0  0  0  0  0
  -28.2582  -37.9996   24.7523 H   0  0  0  0  0  0
  -28.0961  -36.2531   24.6348 H   0  0  0  0  0  0
  -27.2277  -37.1419   25.8910 H   0  0  0  0  0  0
  -20.9277  -29.8678   21.6869 H   0  0  0  0  0  0
  -26.0092  -38.2841   24.1576 H   0  0  0  0  0  0
  -30.3376  -23.2178   21.4375 H   0  0  0  0  0  0
  -28.6001  -23.1245   21.6220 H   0  0  0  0  0  0
  -29.2914  -19.7108   19.0058 H   0  0  0  0  0  0
  -31.0274  -19.6011   19.1884 H   0  0  0  0  0  0
  -30.1725  -21.6423   17.8675 H   0  0  0  0  0  0
  -31.3056  -21.9679   19.1564 H   0  0  0  0  0  0
  -28.2978  -22.2676   19.3900 H   0  0  0  0  0  0
  -28.4531  -22.4739   23.9163 H   0  0  0  0  0  0
  -29.9986  -22.1107   24.6942 H   0  0  0  0  0  0
  -28.5783  -21.0921   24.9917 H   0  0  0  0  0  0
  -30.0042  -19.2175   25.2195 H   0  0  0  0  0  0
  -30.7513  -17.9443   24.3157 H   0  0  0  0  0  0
  -28.9739  -18.0316   24.4453 H   0  0  0  0  0  0
  -27.1067  -24.8183   17.0392 H   0  0  0  0  0  0
  -27.6052  -23.1744   17.3920 H   0  0  0  0  0  0
  -28.7496  -24.2953   16.6655 H   0  0  0  0  0  0
  -29.4976  -17.4927   20.4957 H   0  0  0  0  0  0
  -31.2128  -17.7616   20.5848 H   0  0  0  0  0  0
  -29.7889  -16.5350   22.9687 H   0  0  0  0  0  0
  -31.4889  -16.4152   22.5314 H   0  0  0  0  0  0
  -28.3235  -26.6885   17.9679 H   0  0  0  0  0  0
  -29.8572  -26.2791   18.6536 H   0  0  0  0  0  0
  -27.6192  -24.4864   19.5169 H   0  0  0  0  0  0
  -29.1703  -14.8628   21.8349 H   0  0  0  0  0  0
  1 25  1  0  0  0
  1 30  2  0  0  0
  1 87  1  0  0  0
  2  3  1  0  0  0
  2 25  1  0  0  0
  2 89  1  0  0  0
  2 90  1  0  0  0
  3  4  1  0  0  0
  3 91  1  0  0  0
  3 92  1  0  0  0
  4  5  1  0  0  0
  4 93  1  0  0  0
  4 94  1  0  0  0
  5  6  1  0  0  0
  5 26  1  0  0  0
  5 95  1  0  0  0
  6 25  1  0  0  0
  6 96  1  0  0  0
  6 97  1  0  0  0
  7  8  2  0  0  0
  7 26  1  0  0  0
  7 29  1  0  0  0
  8  9  1  0  0  0
  8 22  1  0  0  0
  9 10  1  0  0  0
  9 27  2  0  0  0
 10 11  2  0  0  0
 10 15  1  0  0  0
 11 12  1  0  0  0
 11 98  1  0  0  0
 12 13  2  0  0  0
 12 99  1  0  0  0
 13 14  1  0  0  0
 13 31  1  0  0  0
 14 15  2  0  0  0
 14100  1  0  0  0
 15101  1  0  0  0
 16 17  2  0  0  0
 16 21  1  0  0  0
 16 31  1  0  0  0
 17 18  1  0  0  0
 17102  1  0  0  0
 18 19  2  0  0  0
 18103  1  0  0  0
 19 20  1  0  0  0
 19 24  1  0  0  0
 20 21  2  0  0  0
 20104  1  0  0  0
 21 23  1  0  0  0
 22 28  1  0  0  0
 22 32  2  0  0  0
 26 27  1  0  0  0
 28105  1  0  0  0
 28106  1  0  0  0
 29107  1  0  0  0
 29108  1  0  0  0
 33 34  1  0  0  0
 33 66  1  0  0  0
 33 70  2  0  0  0
 34 36  1  0  0  0
 34 59  1  0  0  0
 34109  1  0  0  0
 35 44  2  0  0  0
 35 45  1  0  0  0
 35 68  1  0  0  0
 36 56  1  0  0  0
 36110  1  0  0  0
 37 39  1  0  0  0
 37 47  1  0  0  0
 37 66  1  0  0  0
 37111  1  0  0  0
 38 43  2  0  0  0
 38 46  1  0  0  0
 38 47  1  0  0  0
 39 64  1  0  0  0
 39 67  2  0  0  0
 40 52  1  0  0  0
 40 53  2  0  0  0
 40 58  1  0  0  0
 41112  1  0  0  0
 41113  1  0  0  0
 41114  1  0  0  0
 41 48  1  0  0  0
 42 43  1  0  0  0
 42 66  1  0  0  0
 42115  1  0  0  0
 42116  1  0  0  0
 43 44  1  0  0  0
 44117  1  0  0  0
 45 46  2  0  0  0
 45118  1  0  0  0
 46119  1  0  0  0
 47120  1  0  0  0
 47121  1  0  0  0
 48 56  1  0  0  0
 48 65  1  0  0  0
 48122  1  0  0  0
 49 50  1  0  0  0
 49 53  1  0  0  0
 49 64  1  0  0  0
 49123  1  0  0  0
 50 51  1  0  0  0
 50124  1  0  0  0
 50125  1  0  0  0
 51 52  1  0  0  0
 51126  1  0  0  0
 51127  1  0  0  0
 52128  1  0  0  0
 52129  1  0  0  0
 53 54  1  0  0  0
 54 55  2  0  0  0
 54130  1  0  0  0
 55 57  1  0  0  0
 55131  1  0  0  0
 56 69  2  0  0  0
 57 58  2  0  0  0
 57132  1  0  0  0
 58133  1  0  0  0
 59 60  1  0  0  0
 59 61  1  0  0  0
 59 62  1  0  0  0
 60134  1  0  0  0
 60135  1  0  0  0
 60136  1  0  0  0
 61137  1  0  0  0
 61138  1  0  0  0
 61139  1  0  0  0
 62140  1  0  0  0
 62141  1  0  0  0
 62142  1  0  0  0
 63 65  1  0  0  0
 63143  1  0  0  0
 63144  1  0  0  0
 63145  1  0  0  0
 64146  1  0  0  0
 65147  1  0  0  0
 68 84  1  0  0  0
 71 72  1  0  0  0
 71 73  2  0  0  0
 71 75  1  0  0  0
 72 74  2  0  0  0
 72 79  1  0  0  0
 73 76  1  0  0  0
 73 86  1  0  0  0
 74 80  1  0  0  0
 74 86  1  0  0  0
 75 78  1  0  0  0
 75148  1  0  0  0
 75149  1  0  0  0
 76 77  1  0  0  0
 76150  1  0  0  0
 76151  1  0  0  0
 77 78  1  0  0  0
 77152  1  0  0  0
 77153  1  0  0  0
 78 88  1  0  0  0
 78154  1  0  0  0
 79155  1  0  0  0
 79156  1  0  0  0
 79157  1  0  0  0
 80158  1  0  0  0
 80159  1  0  0  0
 80160  1  0  0  0
 81161  1  0  0  0
 81162  1  0  0  0
 81163  1  0  0  0
 81 85  1  0  0  0
 82 83  1  0  0  0
 82 86  1  0  0  0
 82164  1  0  0  0
 82165  1  0  0  0
 83 87  1  0  0  0
 83166  1  0  0  0
 83167  1  0  0  0
 84 85  1  0  0  0
 84168  1  0  0  0
 84169  1  0  0  0
 85 88  1  0  0  0
 85170  1  0  0  0
 87171  1  0  0  0
M  ISO  4   1 100  68 101  84 101  87 100
M  END
> <chiral flag>
0

> <version>
0

> <s_m_source_file>
/data/baiqing/PycharmProjects/Reinvent-master-3.2/result/LINK_invent/BTK/process_docking_weight1_custom_sum_contain_oxygen_bond_distance_aromatic_linkinvent_7_9_3/rearranged_h_0147.sdf

> <i_m_source_file_index>
94

> <r_mmod_Potential_Energy-OPLS-2005>
-102.82373046875

> <r_mmod_Stretch_Energy-OPLS-2005>
34.8254470825195

> <r_mmod_Bend_Energy-OPLS-2005>
128.17546081543

> <r_mmod_Torsional_Energy-OPLS-2005>
229.964019775391

> <r_mmod_Improper_Torsional_Energy-OPLS-2005>
1.79276251792908

> <r_mmod_Van_der_Waal_Energy-OPLS-2005>
147.061935424805

> <r_mmod_Electrostatic_Energy-OPLS-2005>
-434.719177246094

> <r_mmod_Solvation_Energy-OPLS-2005>
-219.714965820312

> <b_mmod_Minimization_Converged-OPLS-2005>
0

> <r_mmod_RMS_Derivative-OPLS-2005>
3.48579859733582

$$$$
94
                    3D
 Structure written by MMmdl.
153162  0  0  1  0            999 V2000
  -30.4133  -15.3189   20.3701 C   0  0  0  0  0  0
  -30.4438  -12.8556   19.5039 C   0  0  0  0  0  0
  -29.5281  -12.5584   18.2874 C   0  0  0  0  0  0
  -28.0942  -12.2532   18.7503 C   0  0  0  0  0  0
  -27.6065  -13.2637   19.8154 C   0  0  2  0  0  0
  -28.6441  -13.4777   20.9380 C   0  0  0  0  0  0
  -25.2397  -13.8217   20.5767 C   0  0  0  0  0  0
  -24.1729  -13.0416   20.9282 C   0  0  0  0  0  0
  -24.6362  -11.6913   20.8785 C   0  0  0  0  0  0
  -23.9056  -10.4278   21.0423 C   0  0  0  0  0  0
  -24.3611   -9.4191   21.9187 C   0  0  0  0  0  0
  -23.6283   -8.2224   22.0743 C   0  0  0  0  0  0
  -22.4270   -8.0269   21.3530 C   0  0  0  0  0  0
  -21.9908   -9.0240   20.4633 C   0  0  0  0  0  0
  -22.7239  -10.2120   20.3054 C   0  0  0  0  0  0
  -21.6848   -6.0732   22.5268 C   0  0  0  0  0  0
  -21.4015   -6.5635   23.8205 C   0  0  0  0  0  0
  -21.3650   -5.6785   24.9164 C   0  0  0  0  0  0
  -21.6033   -4.3049   24.7221 C   0  0  0  0  0  0
  -21.8826   -3.8146   23.4344 C   0  0  0  0  0  0
  -21.9191   -4.6955   22.3404 C   0  0  0  0  0  0
  -22.7756  -13.5192   21.1917 C   0  0  0  0  0  0
  -22.1663   -4.2139   21.0982 F   0  0  0  0  0  0
  -21.5622   -3.4540   25.7741 F   0  0  0  0  0  0
  -29.8550  -14.0072   20.2865 N   0  0  0  0  0  0
  -26.2793  -12.9447   20.3237 N   0  0  0  0  0  0
  -25.9295  -11.6568   20.5749 N   0  0  0  0  0  0
  -22.0398  -12.8168   22.0458 N   0  0  0  0  0  0
  -25.4067  -15.1941   20.4234 N   0  0  0  0  0  0
  -31.6489  -15.2941   20.2490 O   0  0  0  0  0  0
  -21.6629   -6.8871   21.4230 O   0  0  0  0  0  0
  -22.3449  -14.5487   20.6746 O   0  0  0  0  0  0
  -24.6695  -31.8161   23.1619 C   0  0  0  0  0  0
  -25.9351  -32.4538   23.8111 C   0  0  1  0  0  0
  -27.2137  -26.8719   20.1859 C   0  0  0  0  0  0
  -25.6003  -33.8353   24.2025 N   0  0  0  0  0  0
  -23.4871  -30.4227   21.5129 C   0  0  2  0  0  0
  -24.9376  -28.7988   20.1129 C   0  0  0  0  0  0
  -22.7702  -29.4388   22.4730 C   0  0  0  0  0  0
  -18.0328  -28.1427   22.8443 C   0  0  0  0  0  0
  -24.1506  -36.7198   23.2641 C   0  0  0  0  0  0
  -26.0559  -30.6083   21.3957 C   0  0  0  0  0  0
  -26.1242  -29.1892   20.7462 C   0  0  0  0  0  0
  -27.2579  -28.2490   20.7523 C   0  0  0  0  0  0
  -25.9952  -26.6445   19.5067 C   0  0  0  0  0  0
  -24.9014  -27.5500   19.4714 C   0  0  0  0  0  0
  -23.7290  -29.7348   20.1415 C   0  0  0  0  0  0
  -25.4142  -36.2929   24.0274 C   0  0  1  0  0  0
  -20.5957  -28.3769   23.1161 C   0  0  2  0  0  0
  -20.6811  -26.9448   22.5382 C   0  0  0  0  0  0
  -19.5788  -26.6403   21.5190 C   0  0  0  0  0  0
  -18.1965  -26.7962   22.1596 C   0  0  0  0  0  0
  -19.1596  -28.8913   23.2793 C   0  0  0  0  0  0
  -18.9514  -30.1495   23.8838 C   0  0  0  0  0  0
  -17.6512  -30.6603   24.0560 C   0  0  0  0  0  0
  -25.9109  -34.9316   23.4968 C   0  0  0  0  0  0
  -16.5396  -29.9101   23.6358 C   0  0  0  0  0  0
  -16.7311  -28.6535   23.0345 C   0  0  0  0  0  0
  -26.4605  -31.6492   25.0645 C   0  0  0  0  0  0
  -25.3710  -31.3780   26.1286 C   0  0  0  0  0  0
  -27.0494  -30.2851   24.6374 C   0  0  0  0  0  0
  -27.6092  -32.4303   25.7455 C   0  0  0  0  0  0
  -27.5562  -37.1745   24.8478 C   0  0  0  0  0  0
  -21.4359  -29.3057   22.3508 N   0  0  0  0  0  0
  -26.4290  -37.3660   23.9397 N   0  0  0  0  0  0
  -24.7598  -30.9769   22.0781 N   0  0  0  0  0  0
  -23.4211  -28.7945   23.2995 O   0  0  0  0  0  0
  -28.2236  -25.7558   20.2105 O   0  0  0  0  0  0
  -26.5718  -34.8861   22.4567 O   0  0  0  0  0  0
  -23.5758  -32.1149   23.6680 O   0  0  0  0  0  0
  -29.0840  -19.4707   20.0527 C   0  0  0  0  0  0
  -29.3044  -20.9443   20.4898 C   0  0  0  0  0  0
  -30.3274  -20.9409   21.4462 C   0  0  0  0  0  0
  -30.9556  -19.7677   21.9463 C   0  0  0  0  0  0
  -29.7934  -18.1866   20.5818 C   0  0  0  0  0  0
  -30.8355  -22.3366   21.7214 C   0  0  0  0  0  0
  -30.4310  -23.1614   20.4866 C   0  0  0  0  0  0
  -29.0701  -22.6345   19.9828 C   0  0  2  0  0  0
  -32.0587  -19.8826   22.9802 C   0  0  0  0  0  0
  -28.0110  -24.0903   20.3101 C   0  0  0  0  0  0
  -30.6969  -18.4948   21.5409 N   0  0  0  0  0  0
  -29.6308  -16.5951   20.2877 N   0  0  0  0  0  0
  -31.4456  -13.0949   19.1425 H   0  0  0  0  0  0
  -30.5636  -11.9728   20.1361 H   0  0  0  0  0  0
  -29.9236  -11.7202   17.7121 H   0  0  0  0  0  0
  -29.5144  -13.4181   17.6170 H   0  0  0  0  0  0
  -28.1046  -11.2571   19.1950 H   0  0  0  0  0  0
  -27.4072  -12.2012   17.9047 H   0  0  0  0  0  0
  -27.5084  -14.2078   19.2791 H   0  0  0  0  0  0
  -28.8384  -12.5536   21.4841 H   0  0  0  0  0  0
  -28.2755  -14.2004   21.6677 H   0  0  0  0  0  0
  -25.2742   -9.5669   22.4792 H   0  0  0  0  0  0
  -23.9974   -7.4623   22.7476 H   0  0  0  0  0  0
  -21.0831   -8.8770   19.8955 H   0  0  0  0  0  0
  -22.3683  -10.9666   19.6186 H   0  0  0  0  0  0
  -21.2012   -7.6149   23.9705 H   0  0  0  0  0  0
  -21.1460   -6.0521   25.9063 H   0  0  0  0  0  0
  -22.0615   -2.7611   23.2853 H   0  0  0  0  0  0
  -22.4011  -11.9828   22.4845 H   0  0  0  0  0  0
  -21.1009  -13.1184   22.2645 H   0  0  0  0  0  0
  -24.6475  -15.8530   20.5601 H   0  0  0  0  0  0
  -26.2496  -15.6309   20.0769 H   0  0  0  0  0  0
  -26.7411  -32.5062   23.0812 H   0  0  0  0  0  0
  -25.0115  -33.9430   25.0153 H   0  0  0  0  0  0
  -22.8051  -31.2557   21.3351 H   0  0  0  0  0  0
  -23.3748  -35.9558   23.3300 H   0  0  0  0  0  0
  -24.3581  -36.8870   22.2066 H   0  0  0  0  0  0
  -23.7317  -37.6395   23.6723 H   0  0  0  0  0  0
  -26.2274  -31.3447   20.6104 H   0  0  0  0  0  0
  -26.9202  -30.6779   22.0439 H   0  0  0  0  0  0
  -28.1609  -28.5456   21.2673 H   0  0  0  0  0  0
  -25.8566  -25.6961   19.0076 H   0  0  0  0  0  0
  -24.0042  -27.2515   18.9479 H   0  0  0  0  0  0
  -23.8917  -30.5020   19.3822 H   0  0  0  0  0  0
  -22.8397  -29.1910   19.8194 H   0  0  0  0  0  0
  -25.1349  -36.1702   25.0766 H   0  0  0  0  0  0
  -21.0018  -28.3377   24.1300 H   0  0  0  0  0  0
  -20.5709  -26.2372   23.3619 H   0  0  0  0  0  0
  -21.6664  -26.7448   22.1168 H   0  0  0  0  0  0
  -19.6966  -25.6320   21.1235 H   0  0  0  0  0  0
  -19.6737  -27.3195   20.6702 H   0  0  0  0  0  0
  -17.4233  -26.6695   21.4003 H   0  0  0  0  0  0
  -18.0367  -26.0123   22.9014 H   0  0  0  0  0  0
  -19.8000  -30.7302   24.2190 H   0  0  0  0  0  0
  -17.5087  -31.6277   24.5172 H   0  0  0  0  0  0
  -15.5400  -30.2983   23.7735 H   0  0  0  0  0  0
  -15.8713  -28.0848   22.7072 H   0  0  0  0  0  0
  -24.5963  -30.7041   25.7610 H   0  0  0  0  0  0
  -24.8811  -32.2988   26.4458 H   0  0  0  0  0  0
  -25.7926  -30.9154   27.0216 H   0  0  0  0  0  0
  -26.3156  -29.6513   24.1368 H   0  0  0  0  0  0
  -27.4025  -29.7219   25.5022 H   0  0  0  0  0  0
  -27.9101  -30.4022   23.9783 H   0  0  0  0  0  0
  -27.2684  -33.3690   26.1831 H   0  0  0  0  0  0
  -28.4014  -32.6696   25.0351 H   0  0  0  0  0  0
  -28.0623  -31.8537   26.5542 H   0  0  0  0  0  0
  -28.2543  -38.0060   24.7460 H   0  0  0  0  0  0
  -28.1077  -36.2563   24.6373 H   0  0  0  0  0  0
  -27.2256  -37.1459   25.8877 H   0  0  0  0  0  0
  -20.9624  -29.8793   21.6671 H   0  0  0  0  0  0
  -26.0123  -38.2708   24.1421 H   0  0  0  0  0  0
  -28.3842  -19.3162   19.2410 H   0  0  0  0  0  0
  -31.9167  -22.3633   21.8629 H   0  0  0  0  0  0
  -30.3667  -22.7251   22.6269 H   0  0  0  0  0  0
  -31.1670  -22.9589   19.7080 H   0  0  0  0  0  0
  -30.4695  -24.2360   20.6671 H   0  0  0  0  0  0
  -29.1202  -22.5799   18.8958 H   0  0  0  0  0  0
  -31.7411  -20.5216   23.8053 H   0  0  0  0  0  0
  -32.9518  -20.3192   22.5306 H   0  0  0  0  0  0
  -32.3306  -18.9108   23.3956 H   0  0  0  0  0  0
  -27.6641  -23.9526   21.3352 H   0  0  0  0  0  0
  -27.1175  -23.9013   19.7142 H   0  0  0  0  0  0
  -28.6785  -16.3744   20.0497 H   0  0  0  0  0  0
  1 25  1  0  0  0
  1 30  2  0  0  0
  1 82  1  0  0  0
  2  3  1  0  0  0
  2 25  1  0  0  0
  2 83  1  0  0  0
  2 84  1  0  0  0
  3  4  1  0  0  0
  3 85  1  0  0  0
  3 86  1  0  0  0
  4  5  1  0  0  0
  4 87  1  0  0  0
  4 88  1  0  0  0
  5  6  1  0  0  0
  5 26  1  0  0  0
  5 89  1  0  0  0
  6 25  1  0  0  0
  6 90  1  0  0  0
  6 91  1  0  0  0
  7  8  2  0  0  0
  7 26  1  0  0  0
  7 29  1  0  0  0
  8  9  1  0  0  0
  8 22  1  0  0  0
  9 10  1  0  0  0
  9 27  2  0  0  0
 10 11  2  0  0  0
 10 15  1  0  0  0
 11 12  1  0  0  0
 11 92  1  0  0  0
 12 13  2  0  0  0
 12 93  1  0  0  0
 13 14  1  0  0  0
 13 31  1  0  0  0
 14 15  2  0  0  0
 14 94  1  0  0  0
 15 95  1  0  0  0
 16 17  2  0  0  0
 16 21  1  0  0  0
 16 31  1  0  0  0
 17 18  1  0  0  0
 17 96  1  0  0  0
 18 19  2  0  0  0
 18 97  1  0  0  0
 19 20  1  0  0  0
 19 24  1  0  0  0
 20 21  2  0  0  0
 20 98  1  0  0  0
 21 23  1  0  0  0
 22 28  1  0  0  0
 22 32  2  0  0  0
 26 27  1  0  0  0
 28 99  1  0  0  0
 28100  1  0  0  0
 29101  1  0  0  0
 29102  1  0  0  0
 33 34  1  0  0  0
 33 66  1  0  0  0
 33 70  2  0  0  0
 34 36  1  0  0  0
 34 59  1  0  0  0
 34103  1  0  0  0
 35 44  2  0  0  0
 35 45  1  0  0  0
 35 68  1  0  0  0
 36 56  1  0  0  0
 36104  1  0  0  0
 37 39  1  0  0  0
 37 47  1  0  0  0
 37 66  1  0  0  0
 37105  1  0  0  0
 38 43  2  0  0  0
 38 46  1  0  0  0
 38 47  1  0  0  0
 39 64  1  0  0  0
 39 67  2  0  0  0
 40 52  1  0  0  0
 40 53  2  0  0  0
 40 58  1  0  0  0
 41106  1  0  0  0
 41107  1  0  0  0
 41108  1  0  0  0
 41 48  1  0  0  0
 42 43  1  0  0  0
 42 66  1  0  0  0
 42109  1  0  0  0
 42110  1  0  0  0
 43 44  1  0  0  0
 44111  1  0  0  0
 45 46  2  0  0  0
 45112  1  0  0  0
 46113  1  0  0  0
 47114  1  0  0  0
 47115  1  0  0  0
 48 56  1  0  0  0
 48 65  1  0  0  0
 48116  1  0  0  0
 49 50  1  0  0  0
 49 53  1  0  0  0
 49 64  1  0  0  0
 49117  1  0  0  0
 50 51  1  0  0  0
 50118  1  0  0  0
 50119  1  0  0  0
 51 52  1  0  0  0
 51120  1  0  0  0
 51121  1  0  0  0
 52122  1  0  0  0
 52123  1  0  0  0
 53 54  1  0  0  0
 54 55  2  0  0  0
 54124  1  0  0  0
 55 57  1  0  0  0
 55125  1  0  0  0
 56 69  2  0  0  0
 57 58  2  0  0  0
 57126  1  0  0  0
 58127  1  0  0  0
 59 60  1  0  0  0
 59 61  1  0  0  0
 59 62  1  0  0  0
 60128  1  0  0  0
 60129  1  0  0  0
 60130  1  0  0  0
 61131  1  0  0  0
 61132  1  0  0  0
 61133  1  0  0  0
 62134  1  0  0  0
 62135  1  0  0  0
 62136  1  0  0  0
 63 65  1  0  0  0
 63137  1  0  0  0
 63138  1  0  0  0
 63139  1  0  0  0
 64140  1  0  0  0
 65141  1  0  0  0
 68 80  1  0  0  0
 71 72  2  0  0  0
 71 75  1  0  0  0
 71142  1  0  0  0
 72 73  1  0  0  0
 72 78  1  0  0  0
 73 74  2  0  0  0
 73 76  1  0  0  0
 74 79  1  0  0  0
 74 81  1  0  0  0
 75 81  2  0  0  0
 75 82  1  0  0  0
 76 77  1  0  0  0
 76143  1  0  0  0
 76144  1  0  0  0
 77 78  1  0  0  0
 77145  1  0  0  0
 77146  1  0  0  0
 78 80  1  0  0  0
 78147  1  0  0  0
 79148  1  0  0  0
 79149  1  0  0  0
 79150  1  0  0  0
 80151  1  0  0  0
 80152  1  0  0  0
 82153  1  0  0  0
M  ISO  4   1 100  68 101  80 101  82 100
M  END
> <chiral flag>
0

> <version>
0

> <s_m_source_file>
/data/baiqing/PycharmProjects/Reinvent-master-3.2/result/LINK_invent/BTK/process_docking_weight1_custom_sum_contain_oxygen_bond_distance_aromatic_linkinvent_7_9_3/rearranged_h_0147.sdf

> <i_m_source_file_index>
95

> <r_mmod_Potential_Energy-OPLS-2005>
1371.90991210938

> <r_mmod_Stretch_Energy-OPLS-2005>
650.390380859375

> <r_mmod_Bend_Energy-OPLS-2005>
535.209594726562

> <r_mmod_Torsional_Energy-OPLS-2005>
254.783187866211

> <r_mmod_Improper_Torsional_Energy-OPLS-2005>
13.0674266815186

> <r_mmod_Van_der_Waal_Energy-OPLS-2005>
126.31169128418

> <r_mmod_Electrostatic_Energy-OPLS-2005>
-495.707092285156

> <r_mmod_Solvation_Energy-OPLS-2005>
-239.45166015625

> <b_mmod_Minimization_Converged-OPLS-2005>
0

> <r_mmod_RMS_Derivative-OPLS-2005>
3.11446213722229

$$$$
95
                    3D
 Structure written by MMmdl.
168178  0  0  1  0            999 V2000
  -30.5283  -15.0615   20.4512 C   0  0  0  0  0  0
  -30.4425  -12.6742   19.5067 C   0  0  0  0  0  0
  -29.5174  -12.5277   18.2724 C   0  0  0  0  0  0
  -28.0659  -12.2783   18.7178 C   0  0  0  0  0  0
  -27.6189  -13.2552   19.8330 C   0  0  2  0  0  0
  -28.6623  -13.3508   20.9686 C   0  0  0  0  0  0
  -25.2412  -13.8174   20.5725 C   0  0  0  0  0  0
  -24.1744  -13.0407   20.9284 C   0  0  0  0  0  0
  -24.6379  -11.6913   20.8789 C   0  0  0  0  0  0
  -23.9053  -10.4279   21.0447 C   0  0  0  0  0  0
  -24.3590   -9.4195   21.9212 C   0  0  0  0  0  0
  -23.6276   -8.2231   22.0755 C   0  0  0  0  0  0
  -22.4258   -8.0262   21.3552 C   0  0  0  0  0  0
  -21.9889   -9.0238   20.4635 C   0  0  0  0  0  0
  -22.7220  -10.2132   20.3069 C   0  0  0  0  0  0
  -21.6850   -6.0713   22.5264 C   0  0  0  0  0  0
  -21.3998   -6.5634   23.8192 C   0  0  0  0  0  0
  -21.3650   -5.6808   24.9156 C   0  0  0  0  0  0
  -21.6039   -4.3056   24.7232 C   0  0  0  0  0  0
  -21.8807   -3.8135   23.4359 C   0  0  0  0  0  0
  -21.9188   -4.6949   22.3401 C   0  0  0  0  0  0
  -22.7770  -13.5188   21.1972 C   0  0  0  0  0  0
  -22.1663   -4.2125   21.0977 F   0  0  0  0  0  0
  -21.5625   -3.4547   25.7742 F   0  0  0  0  0  0
  -29.9225  -13.7964   20.3527 N   0  0  0  0  0  0
  -26.2838  -12.9465   20.3274 N   0  0  0  0  0  0
  -25.9306  -11.6581   20.5770 N   0  0  0  0  0  0
  -22.0461  -12.8110   22.0496 N   0  0  0  0  0  0
  -25.4075  -15.1900   20.4100 N   0  0  0  0  0  0
  -31.7494  -15.0889   20.2632 O   0  0  0  0  0  0
  -21.6632   -6.8856   21.4220 O   0  0  0  0  0  0
  -22.3472  -14.5532   20.6864 O   0  0  0  0  0  0
  -24.6485  -31.8374   23.1795 C   0  0  0  0  0  0
  -25.9220  -32.4683   23.8241 C   0  0  1  0  0  0
  -27.2271  -27.0591   20.2143 C   0  0  0  0  0  0
  -25.5987  -33.8496   24.2177 N   0  0  0  0  0  0
  -23.4627  -30.4509   21.5187 C   0  0  2  0  0  0
  -24.9213  -28.8698   20.1003 C   0  0  0  0  0  0
  -22.7653  -29.4488   22.4752 C   0  0  0  0  0  0
  -18.0330  -28.1445   22.8494 C   0  0  0  0  0  0
  -24.1477  -36.7237   23.2659 C   0  0  0  0  0  0
  -26.0189  -30.6932   21.3832 C   0  0  0  0  0  0
  -26.0917  -29.2940   20.7372 C   0  0  0  0  0  0
  -27.2357  -28.4100   20.7808 C   0  0  0  0  0  0
  -26.0414  -26.7608   19.5059 C   0  0  0  0  0  0
  -24.9135  -27.6187   19.4614 C   0  0  0  0  0  0
  -23.7046  -29.7846   20.1361 C   0  0  0  0  0  0
  -25.4104  -36.3012   24.0327 C   0  0  1  0  0  0
  -20.5966  -28.3757   23.1231 C   0  0  2  0  0  0
  -20.6815  -26.9440   22.5417 C   0  0  0  0  0  0
  -19.5791  -26.6385   21.5275 C   0  0  0  0  0  0
  -18.1946  -26.7989   22.1613 C   0  0  0  0  0  0
  -19.1580  -28.8910   23.2864 C   0  0  0  0  0  0
  -18.9517  -30.1541   23.8884 C   0  0  0  0  0  0
  -17.6517  -30.6638   24.0600 C   0  0  0  0  0  0
  -25.9087  -34.9387   23.5046 C   0  0  0  0  0  0
  -16.5388  -29.9112   23.6357 C   0  0  0  0  0  0
  -16.7313  -28.6546   23.0369 C   0  0  0  0  0  0
  -26.4559  -31.6574   25.0695 C   0  0  0  0  0  0
  -25.3734  -31.3705   26.1365 C   0  0  0  0  0  0
  -27.0471  -30.3016   24.6176 C   0  0  0  0  0  0
  -27.6120  -32.4358   25.7425 C   0  0  0  0  0  0
  -27.5546  -37.1766   24.8501 C   0  0  0  0  0  0
  -21.4312  -29.3083   22.3589 N   0  0  0  0  0  0
  -26.4250  -37.3738   23.9447 N   0  0  0  0  0  0
  -24.7293  -31.0166   22.0839 N   0  0  0  0  0  0
  -23.4269  -28.8051   23.2943 O   0  0  0  0  0  0
  -28.2502  -26.0301   20.3933 O   0  0  0  0  0  0
  -26.5667  -34.8898   22.4620 O   0  0  0  0  0  0
  -23.5579  -32.1246   23.6945 O   0  0  0  0  0  0
  -28.7656  -23.1170   20.8192 C   0  0  0  0  0  0
  -29.1570  -22.6064   22.1249 C   0  0  0  0  0  0
  -29.0414  -21.9276   19.9960 C   0  0  0  0  0  0
  -29.8895  -21.4272   21.8552 C   0  0  0  0  0  0
  -31.3629  -21.4842   21.5596 C   0  0  0  0  0  0
  -31.5557  -22.1731   20.1492 C   0  0  0  0  0  0
  -30.4246  -20.8025   18.2259 C   0  0  0  0  0  0
  -30.5145  -19.4505   18.9756 C   0  0  0  0  0  0
  -30.3200  -22.0323   19.1569 C   0  0  1  0  0  0
  -29.5384  -19.2796   20.1596 C   0  0  1  0  0  0
  -29.3789  -22.1758   24.5999 C   0  0  0  0  0  0
  -27.5997  -23.7898   23.7399 C   0  0  0  0  0  0
  -28.0390  -24.4821   20.1052 C   0  0  0  0  0  0
  -30.0059  -17.8291   20.9840 C   0  0  0  0  0  0
  -29.0105  -23.2212   23.5187 C   0  0  0  0  0  0
  -29.2734  -20.7573   20.7904 N   0  0  0  0  0  0
  -29.7629  -16.2798   20.5716 N   0  0  0  0  0  0
  -31.4720  -12.8441   19.1837 H   0  0  0  0  0  0
  -30.4614  -11.7459   20.0820 H   0  0  0  0  0  0
  -29.8561  -11.6985   17.6479 H   0  0  0  0  0  0
  -29.5619  -13.4257   17.6576 H   0  0  0  0  0  0
  -28.0201  -11.2579   19.1065 H   0  0  0  0  0  0
  -27.3767  -12.3120   17.8713 H   0  0  0  0  0  0
  -27.5628  -14.2342   19.3562 H   0  0  0  0  0  0
  -28.7817  -12.3941   21.4810 H   0  0  0  0  0  0
  -28.3396  -14.0663   21.7289 H   0  0  0  0  0  0
  -25.2733   -9.5685   22.4794 H   0  0  0  0  0  0
  -24.0006   -7.4607   22.7456 H   0  0  0  0  0  0
  -21.0829   -8.8713   19.8917 H   0  0  0  0  0  0
  -22.3668  -10.9651   19.6159 H   0  0  0  0  0  0
  -21.1981   -7.6148   23.9681 H   0  0  0  0  0  0
  -21.1490   -6.0543   25.9057 H   0  0  0  0  0  0
  -22.0603   -2.7592   23.2863 H   0  0  0  0  0  0
  -22.4124  -11.9739   22.4765 H   0  0  0  0  0  0
  -21.1059  -13.1044   22.2798 H   0  0  0  0  0  0
  -24.6359  -15.8407   20.5135 H   0  0  0  0  0  0
  -26.2347  -15.6103   20.0056 H   0  0  0  0  0  0
  -26.7262  -32.5245   23.0950 H   0  0  0  0  0  0
  -25.0301  -33.9677   25.0432 H   0  0  0  0  0  0
  -22.7658  -31.2736   21.3540 H   0  0  0  0  0  0
  -23.3759  -35.9559   23.3319 H   0  0  0  0  0  0
  -24.3580  -36.8846   22.2089 H   0  0  0  0  0  0
  -23.7188  -37.6395   23.6711 H   0  0  0  0  0  0
  -26.1665  -31.4322   20.5936 H   0  0  0  0  0  0
  -26.8967  -30.7623   22.0137 H   0  0  0  0  0  0
  -28.1037  -28.7362   21.3319 H   0  0  0  0  0  0
  -25.9470  -25.8020   19.0103 H   0  0  0  0  0  0
  -24.0207  -27.2915   18.9491 H   0  0  0  0  0  0
  -23.8499  -30.5645   19.3841 H   0  0  0  0  0  0
  -22.8231  -29.2230   19.8240 H   0  0  0  0  0  0
  -25.1254  -36.1855   25.0814 H   0  0  0  0  0  0
  -21.0054  -28.3310   24.1361 H   0  0  0  0  0  0
  -20.5821  -26.2330   23.3619 H   0  0  0  0  0  0
  -21.6654  -26.7488   22.1143 H   0  0  0  0  0  0
  -19.6959  -25.6296   21.1299 H   0  0  0  0  0  0
  -19.6775  -27.3223   20.6846 H   0  0  0  0  0  0
  -17.4255  -26.6882   21.3968 H   0  0  0  0  0  0
  -18.0215  -26.0141   22.8992 H   0  0  0  0  0  0
  -19.8018  -30.7382   24.2192 H   0  0  0  0  0  0
  -17.5072  -31.6310   24.5207 H   0  0  0  0  0  0
  -15.5413  -30.3037   23.7713 H   0  0  0  0  0  0
  -15.8702  -28.0892   22.7058 H   0  0  0  0  0  0
  -24.6054  -30.6883   25.7660 H   0  0  0  0  0  0
  -24.8775  -32.2856   26.4619 H   0  0  0  0  0  0
  -25.8043  -30.9025   27.0236 H   0  0  0  0  0  0
  -26.3088  -29.6716   24.1159 H   0  0  0  0  0  0
  -27.4222  -29.7266   25.4659 H   0  0  0  0  0  0
  -27.8894  -30.4368   23.9377 H   0  0  0  0  0  0
  -27.2801  -33.3803   26.1702 H   0  0  0  0  0  0
  -28.4020  -32.6642   25.0281 H   0  0  0  0  0  0
  -28.0625  -31.8633   26.5526 H   0  0  0  0  0  0
  -28.2551  -38.0068   24.7489 H   0  0  0  0  0  0
  -28.1036  -36.2591   24.6350 H   0  0  0  0  0  0
  -27.2279  -37.1365   25.8903 H   0  0  0  0  0  0
  -20.9505  -29.8820   21.6772 H   0  0  0  0  0  0
  -26.0111  -38.2788   24.1494 H   0  0  0  0  0  0
  -31.7986  -20.4853   21.5736 H   0  0  0  0  0  0
  -31.8929  -22.0472   22.3320 H   0  0  0  0  0  0
  -32.5106  -21.9189   19.6853 H   0  0  0  0  0  0
  -31.6315  -23.2412   20.3642 H   0  0  0  0  0  0
  -29.5468  -20.7968   17.5766 H   0  0  0  0  0  0
  -31.2853  -20.9042   17.5633 H   0  0  0  0  0  0
  -31.5307  -19.3552   19.3556 H   0  0  0  0  0  0
  -30.3799  -18.6310   18.2695 H   0  0  0  0  0  0
  -30.2675  -22.9332   18.5401 H   0  0  0  0  0  0
  -28.5681  -19.0328   19.7279 H   0  0  0  0  0  0
  -30.4188  -21.8620   24.5061 H   0  0  0  0  0  0
  -28.7676  -21.2750   24.5045 H   0  0  0  0  0  0
  -29.2609  -22.5532   25.6185 H   0  0  0  0  0  0
  -27.4077  -24.6212   23.0621 H   0  0  0  0  0  0
  -27.4680  -24.1651   24.7534 H   0  0  0  0  0  0
  -26.8320  -23.0381   23.5537 H   0  0  0  0  0  0
  -26.9755  -24.2741   20.2371 H   0  0  0  0  0  0
  -28.2031  -24.3840   19.0304 H   0  0  0  0  0  0
  -29.5437  -17.9056   21.9671 H   0  0  0  0  0  0
  -31.0711  -17.9136   21.2075 H   0  0  0  0  0  0
  -29.7221  -24.0455   23.6013 H   0  0  0  0  0  0
  -28.7768  -16.0744   20.5298 H   0  0  0  0  0  0
  1 25  1  0  0  0
  1 30  2  0  0  0
  1 87  1  0  0  0
  2  3  1  0  0  0
  2 25  1  0  0  0
  2 88  1  0  0  0
  2 89  1  0  0  0
  3  4  1  0  0  0
  3 90  1  0  0  0
  3 91  1  0  0  0
  4  5  1  0  0  0
  4 92  1  0  0  0
  4 93  1  0  0  0
  5  6  1  0  0  0
  5 26  1  0  0  0
  5 94  1  0  0  0
  6 25  1  0  0  0
  6 95  1  0  0  0
  6 96  1  0  0  0
  7  8  2  0  0  0
  7 26  1  0  0  0
  7 29  1  0  0  0
  8  9  1  0  0  0
  8 22  1  0  0  0
  9 10  1  0  0  0
  9 27  2  0  0  0
 10 11  2  0  0  0
 10 15  1  0  0  0
 11 12  1  0  0  0
 11 97  1  0  0  0
 12 13  2  0  0  0
 12 98  1  0  0  0
 13 14  1  0  0  0
 13 31  1  0  0  0
 14 15  2  0  0  0
 14 99  1  0  0  0
 15100  1  0  0  0
 16 17  2  0  0  0
 16 21  1  0  0  0
 16 31  1  0  0  0
 17 18  1  0  0  0
 17101  1  0  0  0
 18 19  2  0  0  0
 18102  1  0  0  0
 19 20  1  0  0  0
 19 24  1  0  0  0
 20 21  2  0  0  0
 20103  1  0  0  0
 21 23  1  0  0  0
 22 28  1  0  0  0
 22 32  2  0  0  0
 26 27  1  0  0  0
 28104  1  0  0  0
 28105  1  0  0  0
 29106  1  0  0  0
 29107  1  0  0  0
 33 34  1  0  0  0
 33 66  1  0  0  0
 33 70  2  0  0  0
 34 36  1  0  0  0
 34 59  1  0  0  0
 34108  1  0  0  0
 35 44  2  0  0  0
 35 45  1  0  0  0
 35 68  1  0  0  0
 36 56  1  0  0  0
 36109  1  0  0  0
 37 39  1  0  0  0
 37 47  1  0  0  0
 37 66  1  0  0  0
 37110  1  0  0  0
 38 43  2  0  0  0
 38 46  1  0  0  0
 38 47  1  0  0  0
 39 64  1  0  0  0
 39 67  2  0  0  0
 40 52  1  0  0  0
 40 53  2  0  0  0
 40 58  1  0  0  0
 41111  1  0  0  0
 41112  1  0  0  0
 41113  1  0  0  0
 41 48  1  0  0  0
 42 43  1  0  0  0
 42 66  1  0  0  0
 42114  1  0  0  0
 42115  1  0  0  0
 43 44  1  0  0  0
 44116  1  0  0  0
 45 46  2  0  0  0
 45117  1  0  0  0
 46118  1  0  0  0
 47119  1  0  0  0
 47120  1  0  0  0
 48 56  1  0  0  0
 48 65  1  0  0  0
 48121  1  0  0  0
 49 50  1  0  0  0
 49 53  1  0  0  0
 49 64  1  0  0  0
 49122  1  0  0  0
 50 51  1  0  0  0
 50123  1  0  0  0
 50124  1  0  0  0
 51 52  1  0  0  0
 51125  1  0  0  0
 51126  1  0  0  0
 52127  1  0  0  0
 52128  1  0  0  0
 53 54  1  0  0  0
 54 55  2  0  0  0
 54129  1  0  0  0
 55 57  1  0  0  0
 55130  1  0  0  0
 56 69  2  0  0  0
 57 58  2  0  0  0
 57131  1  0  0  0
 58132  1  0  0  0
 59 60  1  0  0  0
 59 61  1  0  0  0
 59 62  1  0  0  0
 60133  1  0  0  0
 60134  1  0  0  0
 60135  1  0  0  0
 61136  1  0  0  0
 61137  1  0  0  0
 61138  1  0  0  0
 62139  1  0  0  0
 62140  1  0  0  0
 62141  1  0  0  0
 63 65  1  0  0  0
 63142  1  0  0  0
 63143  1  0  0  0
 63144  1  0  0  0
 64145  1  0  0  0
 65146  1  0  0  0
 68 83  1  0  0  0
 71 72  1  0  0  0
 71 73  2  0  0  0
 71 83  1  0  0  0
 72 74  2  0  0  0
 72 85  1  0  0  0
 73 79  1  0  0  0
 73 86  1  0  0  0
 74 75  1  0  0  0
 74 86  1  0  0  0
 75 76  1  0  0  0
 75147  1  0  0  0
 75148  1  0  0  0
 76149  1  0  0  0
 76150  1  0  0  0
 76 79  1  0  0  0
 77 78  1  0  0  0
 77 79  1  0  0  0
 77151  1  0  0  0
 77152  1  0  0  0
 78 80  1  0  0  0
 78153  1  0  0  0
 78154  1  0  0  0
 79155  1  0  0  0
 80 84  1  0  0  0
 80 86  1  0  0  0
 80156  1  0  0  0
 81157  1  0  0  0
 81158  1  0  0  0
 81159  1  0  0  0
 81 85  1  0  0  0
 82 85  1  0  0  0
 82160  1  0  0  0
 82161  1  0  0  0
 82162  1  0  0  0
 83163  1  0  0  0
 83164  1  0  0  0
 84 87  1  0  0  0
 84165  1  0  0  0
 84166  1  0  0  0
 85167  1  0  0  0
 87168  1  0  0  0
M  ISO  4   1 100  68 101  83 101  87 100
M  END
> <chiral flag>
0

> <version>
0

> <s_m_source_file>
/data/baiqing/PycharmProjects/Reinvent-master-3.2/result/LINK_invent/BTK/process_docking_weight1_custom_sum_contain_oxygen_bond_distance_aromatic_linkinvent_7_9_3/rearranged_h_0147.sdf

> <i_m_source_file_index>
96

> <r_mmod_Potential_Energy-OPLS-2005>
1212.65173339844

> <r_mmod_Stretch_Energy-OPLS-2005>
361.344909667969

> <r_mmod_Bend_Energy-OPLS-2005>
458.933074951172

> <r_mmod_Torsional_Energy-OPLS-2005>
552.945007324219

> <r_mmod_Improper_Torsional_Energy-OPLS-2005>
62.7243690490723

> <r_mmod_Van_der_Waal_Energy-OPLS-2005>
129.322860717773

> <r_mmod_Electrostatic_Energy-OPLS-2005>
-426.498413085938

> <r_mmod_Solvation_Energy-OPLS-2005>
-213.31623840332

> <b_mmod_Minimization_Converged-OPLS-2005>
0

> <r_mmod_RMS_Derivative-OPLS-2005>
8.32136535644531

$$$$
96
                    3D
 Structure written by MMmdl.
165175  0  0  1  0            999 V2000
  -30.5969  -14.7232   20.4737 C   0  0  0  0  0  0
  -30.4425  -12.4512   19.4511 C   0  0  0  0  0  0
  -29.5090  -12.4915   18.2212 C   0  0  0  0  0  0
  -28.0356  -12.3115   18.6446 C   0  0  0  0  0  0
  -27.6389  -13.2187   19.8413 C   0  0  2  0  0  0
  -28.6862  -13.1391   20.9710 C   0  0  0  0  0  0
  -25.2491  -13.8164   20.5665 C   0  0  0  0  0  0
  -24.1781  -13.0394   20.9198 C   0  0  0  0  0  0
  -24.6377  -11.6889   20.8711 C   0  0  0  0  0  0
  -23.9066  -10.4255   21.0389 C   0  0  0  0  0  0
  -24.3611   -9.4184   21.9179 C   0  0  0  0  0  0
  -23.6288   -8.2218   22.0744 C   0  0  0  0  0  0
  -22.4273   -8.0253   21.3546 C   0  0  0  0  0  0
  -21.9916   -9.0219   20.4647 C   0  0  0  0  0  0
  -22.7237  -10.2107   20.3052 C   0  0  0  0  0  0
  -21.6847   -6.0720   22.5281 C   0  0  0  0  0  0
  -21.4003   -6.5620   23.8211 C   0  0  0  0  0  0
  -21.3672   -5.6774   24.9166 C   0  0  0  0  0  0
  -21.6048   -4.3037   24.7223 C   0  0  0  0  0  0
  -21.8835   -3.8140   23.4341 C   0  0  0  0  0  0
  -21.9194   -4.6953   22.3397 C   0  0  0  0  0  0
  -22.7813  -13.5189   21.1880 C   0  0  0  0  0  0
  -22.1660   -4.2139   21.0973 F   0  0  0  0  0  0
  -21.5644   -3.4522   25.7739 F   0  0  0  0  0  0
  -29.9832  -13.4965   20.3859 N   0  0  0  0  0  0
  -26.2891  -12.9340   20.3208 N   0  0  0  0  0  0
  -25.9285  -11.6498   20.5664 N   0  0  0  0  0  0
  -22.0463  -12.8160   22.0440 N   0  0  0  0  0  0
  -25.4090  -15.1894   20.4088 N   0  0  0  0  0  0
  -31.8014  -14.8341   20.2294 O   0  0  0  0  0  0
  -21.6636   -6.8860   21.4242 O   0  0  0  0  0  0
  -22.3496  -14.5495   20.6760 O   0  0  0  0  0  0
  -24.6318  -31.8597   23.1966 C   0  0  0  0  0  0
  -25.9147  -32.4762   23.8343 C   0  0  1  0  0  0
  -27.1997  -27.2778   20.1362 C   0  0  0  0  0  0
  -25.5951  -33.8578   24.2296 N   0  0  0  0  0  0
  -23.4262  -30.4763   21.5467 C   0  0  2  0  0  0
  -24.8640  -28.9279   20.1027 C   0  0  0  0  0  0
  -22.7577  -29.4572   22.4998 C   0  0  0  0  0  0
  -18.0368  -28.1322   22.8537 C   0  0  0  0  0  0
  -24.1506  -36.7274   23.2632 C   0  0  0  0  0  0
  -25.9700  -30.7812   21.3700 C   0  0  0  0  0  0
  -26.0359  -29.4044   20.7076 C   0  0  0  0  0  0
  -27.2073  -28.5921   20.7037 C   0  0  0  0  0  0
  -26.0124  -26.8565   19.4962 C   0  0  0  0  0  0
  -24.8596  -27.6668   19.4809 C   0  0  0  0  0  0
  -23.6400  -29.8163   20.1589 C   0  0  0  0  0  0
  -25.4133  -36.3072   24.0336 C   0  0  1  0  0  0
  -20.5946  -28.3734   23.1421 C   0  0  2  0  0  0
  -20.6848  -26.9445   22.5555 C   0  0  0  0  0  0
  -19.5902  -26.6266   21.5343 C   0  0  0  0  0  0
  -18.2062  -26.7865   22.1653 C   0  0  0  0  0  0
  -19.1568  -28.8855   23.2913 C   0  0  0  0  0  0
  -18.9426  -30.1451   23.8885 C   0  0  0  0  0  0
  -17.6407  -30.6543   24.0490 C   0  0  0  0  0  0
  -25.9048  -34.9452   23.5114 C   0  0  0  0  0  0
  -16.5319  -29.8953   23.6392 C   0  0  0  0  0  0
  -16.7335  -28.6364   23.0450 C   0  0  0  0  0  0
  -26.4531  -31.6548   25.0724 C   0  0  0  0  0  0
  -25.3726  -31.3629   26.1403 C   0  0  0  0  0  0
  -27.0427  -30.2985   24.6197 C   0  0  0  0  0  0
  -27.6098  -32.4322   25.7449 C   0  0  0  0  0  0
  -27.5608  -37.1818   24.8474 C   0  0  0  0  0  0
  -21.4266  -29.3156   22.3914 N   0  0  0  0  0  0
  -26.4305  -37.3772   23.9412 N   0  0  0  0  0  0
  -24.6958  -31.0548   22.0950 N   0  0  0  0  0  0
  -23.4336  -28.8004   23.2913 O   0  0  0  0  0  0
  -28.3098  -26.4244   20.2576 O   0  0  0  0  0  0
  -26.5645  -34.8934   22.4690 O   0  0  0  0  0  0
  -23.5480  -32.1470   23.7265 O   0  0  0  0  0  0
  -31.2780  -18.9565   22.0868 C   0  0  0  0  0  0
  -31.0631  -17.6108   21.7143 C   0  0  0  0  0  0
  -30.4543  -19.9926   21.5996 C   0  0  0  0  0  0
  -25.4341  -21.5190   23.0948 C   0  0  0  0  0  0
  -26.7476  -20.1504   21.6080 C   0  0  0  0  0  0
  -29.1940  -18.3411   20.3389 C   0  0  0  0  0  0
  -26.1071  -22.6365   22.5780 C   0  0  0  0  0  0
  -27.0550  -22.5948   21.5242 C   0  0  0  0  0  0
  -25.7341  -20.2601   22.5730 C   0  0  0  0  0  0
  -30.0231  -17.2532   20.8225 C   0  0  0  0  0  0
  -29.3813  -19.7289   20.7255 C   0  0  0  0  0  0
  -27.5055  -21.2531   21.1160 C   0  0  0  0  0  0
  -25.8598  -24.0123   23.1359 C   0  0  0  0  0  0
  -26.9015  -24.8784   22.4349 C   0  0  0  0  0  0
  -27.2039  -24.1377   21.1177 C   0  0  1  0  0  0
  -25.0257  -19.0243   23.0993 C   0  0  0  0  0  0
  -28.2462  -24.9242   20.2071 C   0  0  0  0  0  0
  -29.7660  -15.8289   20.5223 N   0  0  0  0  0  0
  -28.5861  -20.8410   20.3194 O   0  0  0  0  0  0
  -31.4776  -12.6042   19.1413 H   0  0  0  0  0  0
  -30.4102  -11.4745   19.9361 H   0  0  0  0  0  0
  -29.7934  -11.7141   17.5091 H   0  0  0  0  0  0
  -29.6306  -13.4429   17.6970 H   0  0  0  0  0  0
  -27.9059  -11.2631   18.9206 H   0  0  0  0  0  0
  -27.3661  -12.4834   17.7995 H   0  0  0  0  0  0
  -27.6310  -14.2388   19.4566 H   0  0  0  0  0  0
  -28.7263  -12.1316   21.3867 H   0  0  0  0  0  0
  -28.4264  -13.8072   21.7936 H   0  0  0  0  0  0
  -25.2758   -9.5655   22.4749 H   0  0  0  0  0  0
  -24.0005   -7.4607   22.7457 H   0  0  0  0  0  0
  -21.0848   -8.8737   19.8937 H   0  0  0  0  0  0
  -22.3699  -10.9640   19.6152 H   0  0  0  0  0  0
  -21.1977   -7.6126   23.9707 H   0  0  0  0  0  0
  -21.1486   -6.0501   25.9072 H   0  0  0  0  0  0
  -22.0613   -2.7601   23.2845 H   0  0  0  0  0  0
  -22.4092  -11.9840   22.4860 H   0  0  0  0  0  0
  -21.1071  -13.1168   22.2640 H   0  0  0  0  0  0
  -24.6238  -15.8231   20.5184 H   0  0  0  0  0  0
  -26.2429  -15.6513   20.0728 H   0  0  0  0  0  0
  -26.7192  -32.5417   23.1084 H   0  0  0  0  0  0
  -25.0152  -33.9702   25.0475 H   0  0  0  0  0  0
  -22.7210  -31.2989   21.4140 H   0  0  0  0  0  0
  -23.3759  -35.9597   23.3313 H   0  0  0  0  0  0
  -24.3556  -36.8892   22.2024 H   0  0  0  0  0  0
  -23.7295  -37.6502   23.6636 H   0  0  0  0  0  0
  -26.1290  -31.5482   20.6067 H   0  0  0  0  0  0
  -26.8470  -30.8150   22.0086 H   0  0  0  0  0  0
  -28.1046  -28.9502   21.1886 H   0  0  0  0  0  0
  -25.9542  -25.8849   19.0257 H   0  0  0  0  0  0
  -23.9557  -27.3114   19.0032 H   0  0  0  0  0  0
  -23.7773  -30.6035   19.4175 H   0  0  0  0  0  0
  -22.7592  -29.2639   19.8293 H   0  0  0  0  0  0
  -25.1315  -36.1919   25.0824 H   0  0  0  0  0  0
  -20.9950  -28.3268   24.1595 H   0  0  0  0  0  0
  -20.5893  -26.2407   23.3788 H   0  0  0  0  0  0
  -21.6709  -26.7457   22.1348 H   0  0  0  0  0  0
  -19.7131  -25.6063   21.1618 H   0  0  0  0  0  0
  -19.6956  -27.2959   20.6782 H   0  0  0  0  0  0
  -17.4393  -26.6604   21.4037 H   0  0  0  0  0  0
  -18.0491  -26.0014   22.9029 H   0  0  0  0  0  0
  -19.7842  -30.7330   24.2259 H   0  0  0  0  0  0
  -17.4932  -31.6216   24.5096 H   0  0  0  0  0  0
  -15.5291  -30.2665   23.7993 H   0  0  0  0  0  0
  -15.8755  -28.0517   22.7433 H   0  0  0  0  0  0
  -24.5948  -30.6995   25.7629 H   0  0  0  0  0  0
  -24.8877  -32.2756   26.4829 H   0  0  0  0  0  0
  -25.7965  -30.8762   27.0187 H   0  0  0  0  0  0
  -26.3019  -29.6687   24.1292 H   0  0  0  0  0  0
  -27.4224  -29.7283   25.4679 H   0  0  0  0  0  0
  -27.8803  -30.4306   23.9370 H   0  0  0  0  0  0
  -27.2694  -33.3592   26.2052 H   0  0  0  0  0  0
  -28.3771  -32.6969   25.0172 H   0  0  0  0  0  0
  -28.0910  -31.8510   26.5317 H   0  0  0  0  0  0
  -28.2636  -38.0122   24.7546 H   0  0  0  0  0  0
  -28.1139  -36.2675   24.6276 H   0  0  0  0  0  0
  -27.2328  -37.1407   25.8883 H   0  0  0  0  0  0
  -20.9441  -29.9299   21.7506 H   0  0  0  0  0  0
  -26.0194  -38.2849   24.1403 H   0  0  0  0  0  0
  -32.0808  -19.1984   22.7728 H   0  0  0  0  0  0
  -31.6953  -16.8487   22.1514 H   0  0  0  0  0  0
  -30.6345  -21.0084   21.9199 H   0  0  0  0  0  0
  -24.6845  -21.6257   23.8696 H   0  0  0  0  0  0
  -26.9563  -19.1510   21.2630 H   0  0  0  0  0  0
  -28.3755  -18.1081   19.6749 H   0  0  0  0  0  0
  -25.9648  -24.0354   24.2206 H   0  0  0  0  0  0
  -24.8466  -24.3241   22.8863 H   0  0  0  0  0  0
  -27.8138  -24.8938   23.0293 H   0  0  0  0  0  0
  -26.5618  -25.9060   22.3251 H   0  0  0  0  0  0
  -26.2976  -24.2587   20.5236 H   0  0  0  0  0  0
  -24.0129  -19.2480   23.4384 H   0  0  0  0  0  0
  -25.5799  -18.6142   23.9439 H   0  0  0  0  0  0
  -24.9657  -18.2494   22.3344 H   0  0  0  0  0  0
  -28.0957  -24.6223   19.1719 H   0  0  0  0  0  0
  -29.2499  -24.5800   20.4684 H   0  0  0  0  0  0
  -28.7992  -15.6101   20.3446 H   0  0  0  0  0  0
  1 25  1  0  0  0
  1 30  2  0  0  0
  1 88  1  0  0  0
  2  3  1  0  0  0
  2 25  1  0  0  0
  2 90  1  0  0  0
  2 91  1  0  0  0
  3  4  1  0  0  0
  3 92  1  0  0  0
  3 93  1  0  0  0
  4  5  1  0  0  0
  4 94  1  0  0  0
  4 95  1  0  0  0
  5  6  1  0  0  0
  5 26  1  0  0  0
  5 96  1  0  0  0
  6 25  1  0  0  0
  6 97  1  0  0  0
  6 98  1  0  0  0
  7  8  2  0  0  0
  7 26  1  0  0  0
  7 29  1  0  0  0
  8  9  1  0  0  0
  8 22  1  0  0  0
  9 10  1  0  0  0
  9 27  2  0  0  0
 10 11  2  0  0  0
 10 15  1  0  0  0
 11 12  1  0  0  0
 11 99  1  0  0  0
 12 13  2  0  0  0
 12100  1  0  0  0
 13 14  1  0  0  0
 13 31  1  0  0  0
 14 15  2  0  0  0
 14101  1  0  0  0
 15102  1  0  0  0
 16 17  2  0  0  0
 16 21  1  0  0  0
 16 31  1  0  0  0
 17 18  1  0  0  0
 17103  1  0  0  0
 18 19  2  0  0  0
 18104  1  0  0  0
 19 20  1  0  0  0
 19 24  1  0  0  0
 20 21  2  0  0  0
 20105  1  0  0  0
 21 23  1  0  0  0
 22 28  1  0  0  0
 22 32  2  0  0  0
 26 27  1  0  0  0
 28106  1  0  0  0
 28107  1  0  0  0
 29108  1  0  0  0
 29109  1  0  0  0
 33 34  1  0  0  0
 33 66  1  0  0  0
 33 70  2  0  0  0
 34 36  1  0  0  0
 34 59  1  0  0  0
 34110  1  0  0  0
 35 44  2  0  0  0
 35 45  1  0  0  0
 35 68  1  0  0  0
 36 56  1  0  0  0
 36111  1  0  0  0
 37 39  1  0  0  0
 37 47  1  0  0  0
 37 66  1  0  0  0
 37112  1  0  0  0
 38 43  2  0  0  0
 38 46  1  0  0  0
 38 47  1  0  0  0
 39 64  1  0  0  0
 39 67  2  0  0  0
 40 52  1  0  0  0
 40 53  2  0  0  0
 40 58  1  0  0  0
 41113  1  0  0  0
 41114  1  0  0  0
 41115  1  0  0  0
 41 48  1  0  0  0
 42 43  1  0  0  0
 42 66  1  0  0  0
 42116  1  0  0  0
 42117  1  0  0  0
 43 44  1  0  0  0
 44118  1  0  0  0
 45 46  2  0  0  0
 45119  1  0  0  0
 46120  1  0  0  0
 47121  1  0  0  0
 47122  1  0  0  0
 48 56  1  0  0  0
 48 65  1  0  0  0
 48123  1  0  0  0
 49 50  1  0  0  0
 49 53  1  0  0  0
 49 64  1  0  0  0
 49124  1  0  0  0
 50 51  1  0  0  0
 50125  1  0  0  0
 50126  1  0  0  0
 51 52  1  0  0  0
 51127  1  0  0  0
 51128  1  0  0  0
 52129  1  0  0  0
 52130  1  0  0  0
 53 54  1  0  0  0
 54 55  2  0  0  0
 54131  1  0  0  0
 55 57  1  0  0  0
 55132  1  0  0  0
 56 69  2  0  0  0
 57 58  2  0  0  0
 57133  1  0  0  0
 58134  1  0  0  0
 59 60  1  0  0  0
 59 61  1  0  0  0
 59 62  1  0  0  0
 60135  1  0  0  0
 60136  1  0  0  0
 60137  1  0  0  0
 61138  1  0  0  0
 61139  1  0  0  0
 61140  1  0  0  0
 62141  1  0  0  0
 62142  1  0  0  0
 62143  1  0  0  0
 63 65  1  0  0  0
 63144  1  0  0  0
 63145  1  0  0  0
 63146  1  0  0  0
 64147  1  0  0  0
 65148  1  0  0  0
 68 87  1  0  0  0
 71 72  2  0  0  0
 71 73  1  0  0  0
 71149  1  0  0  0
 72 80  1  0  0  0
 72150  1  0  0  0
 73 81  2  0  0  0
 73151  1  0  0  0
 74 77  2  0  0  0
 74 79  1  0  0  0
 74152  1  0  0  0
 75 79  2  0  0  0
 75 82  1  0  0  0
 75153  1  0  0  0
 76 80  2  0  0  0
 76 81  1  0  0  0
 76154  1  0  0  0
 77 78  1  0  0  0
 77 83  1  0  0  0
 78 82  2  0  0  0
 78 85  1  0  0  0
 79 86  1  0  0  0
 80 88  1  0  0  0
 81 89  1  0  0  0
 82 89  1  0  0  0
 83 84  1  0  0  0
 83155  1  0  0  0
 83156  1  0  0  0
 84 85  1  0  0  0
 84157  1  0  0  0
 84158  1  0  0  0
 85 87  1  0  0  0
 85159  1  0  0  0
 86160  1  0  0  0
 86161  1  0  0  0
 86162  1  0  0  0
 87163  1  0  0  0
 87164  1  0  0  0
 88165  1  0  0  0
M  ISO  4   1 100  68 101  87 101  88 100
M  END
> <chiral flag>
0

> <version>
0

> <s_m_source_file>
/data/baiqing/PycharmProjects/Reinvent-master-3.2/result/LINK_invent/BTK/process_docking_weight1_custom_sum_contain_oxygen_bond_distance_aromatic_linkinvent_7_9_3/rearranged_h_0147.sdf

> <i_m_source_file_index>
97

> <r_mmod_Potential_Energy-OPLS-2005>
343.961944580078

> <r_mmod_Stretch_Energy-OPLS-2005>
114.047668457031

> <r_mmod_Bend_Energy-OPLS-2005>
296.662353515625

> <r_mmod_Torsional_Energy-OPLS-2005>
262.192047119141

> <r_mmod_Improper_Torsional_Energy-OPLS-2005>
8.55000495910645

> <r_mmod_Van_der_Waal_Energy-OPLS-2005>
149.256500244141

> <r_mmod_Electrostatic_Energy-OPLS-2005>
-359.109588623047

> <r_mmod_Solvation_Energy-OPLS-2005>
-208.977142333984

> <b_mmod_Minimization_Converged-OPLS-2005>
0

> <r_mmod_RMS_Derivative-OPLS-2005>
6.55147361755371

$$$$
97
                    3D
 Structure written by MMmdl.
179190  0  0  1  0            999 V2000
  -30.7771  -14.4174   20.5789 C   0  0  0  0  0  0
  -30.3997  -12.2789   19.4205 C   0  0  0  0  0  0
  -29.4842  -12.5056   18.2019 C   0  0  0  0  0  0
  -28.0074  -12.3724   18.6131 C   0  0  0  0  0  0
  -27.6580  -13.2127   19.8702 C   0  0  2  0  0  0
  -28.7011  -13.0200   20.9976 C   0  0  0  0  0  0
  -25.2587  -13.8165   20.5680 C   0  0  0  0  0  0
  -24.1842  -13.0445   20.9175 C   0  0  0  0  0  0
  -24.6406  -11.6914   20.8733 C   0  0  0  0  0  0
  -23.9076  -10.4298   21.0413 C   0  0  0  0  0  0
  -24.3627   -9.4214   21.9187 C   0  0  0  0  0  0
  -23.6304   -8.2255   22.0752 C   0  0  0  0  0  0
  -22.4293   -8.0292   21.3546 C   0  0  0  0  0  0
  -21.9928   -9.0257   20.4647 C   0  0  0  0  0  0
  -22.7255  -10.2134   20.3061 C   0  0  0  0  0  0
  -21.6864   -6.0753   22.5280 C   0  0  0  0  0  0
  -21.4007   -6.5650   23.8209 C   0  0  0  0  0  0
  -21.3656   -5.6798   24.9173 C   0  0  0  0  0  0
  -21.6056   -4.3062   24.7228 C   0  0  0  0  0  0
  -21.8816   -3.8160   23.4343 C   0  0  0  0  0  0
  -21.9192   -4.6982   22.3400 C   0  0  0  0  0  0
  -22.7875  -13.5250   21.1851 C   0  0  0  0  0  0
  -22.1666   -4.2165   21.0978 F   0  0  0  0  0  0
  -21.5631   -3.4548   25.7746 F   0  0  0  0  0  0
  -30.0412  -13.2766   20.4441 N   0  0  0  0  0  0
  -26.3016  -12.9346   20.3356 N   0  0  0  0  0  0
  -25.9335  -11.6505   20.5764 N   0  0  0  0  0  0
  -22.0512  -12.8226   22.0391 N   0  0  0  0  0  0
  -25.4308  -15.1873   20.4065 N   0  0  0  0  0  0
  -31.8971  -14.5239   20.0634 O   0  0  0  0  0  0
  -21.6646   -6.8901   21.4250 O   0  0  0  0  0  0
  -22.3574  -14.5581   20.6737 O   0  0  0  0  0  0
  -24.6151  -31.8704   23.2102 C   0  0  0  0  0  0
  -25.9046  -32.4835   23.8412 C   0  0  1  0  0  0
  -27.2408  -27.4537   20.0811 C   0  0  0  0  0  0
  -25.5902  -33.8634   24.2337 N   0  0  0  0  0  0
  -23.4002  -30.4936   21.5523 C   0  0  2  0  0  0
  -24.8442  -28.9636   20.1184 C   0  0  0  0  0  0
  -22.7399  -29.4681   22.5023 C   0  0  0  0  0  0
  -18.0252  -28.1387   22.8528 C   0  0  0  0  0  0
  -24.1478  -36.7317   23.2632 C   0  0  0  0  0  0
  -25.9270  -30.8412   21.3587 C   0  0  0  0  0  0
  -26.0043  -29.4765   20.7091 C   0  0  0  0  0  0
  -27.2029  -28.7295   20.6861 C   0  0  0  0  0  0
  -26.0495  -26.9483   19.5028 C   0  0  0  0  0  0
  -24.8604  -27.6971   19.5163 C   0  0  0  0  0  0
  -23.6051  -29.8240   20.1679 C   0  0  0  0  0  0
  -25.4094  -36.3117   24.0332 C   0  0  1  0  0  0
  -20.5851  -28.3660   23.1346 C   0  0  2  0  0  0
  -20.6750  -26.9394   22.5444 C   0  0  0  0  0  0
  -19.5717  -26.6388   21.5258 C   0  0  0  0  0  0
  -18.1884  -26.7937   22.1646 C   0  0  0  0  0  0
  -19.1509  -28.8840   23.2940 C   0  0  0  0  0  0
  -18.9434  -30.1451   23.8939 C   0  0  0  0  0  0
  -17.6438  -30.6590   24.0587 C   0  0  0  0  0  0
  -25.9030  -34.9481   23.5120 C   0  0  0  0  0  0
  -16.5331  -29.9090   23.6350 C   0  0  0  0  0  0
  -16.7242  -28.6512   23.0369 C   0  0  0  0  0  0
  -26.4460  -31.6605   25.0733 C   0  0  0  0  0  0
  -25.3745  -31.3720   26.1508 C   0  0  0  0  0  0
  -27.0247  -30.3029   24.6118 C   0  0  0  0  0  0
  -27.6078  -32.4285   25.7457 C   0  0  0  0  0  0
  -27.5598  -37.1777   24.8431 C   0  0  0  0  0  0
  -21.4116  -29.3041   22.3763 N   0  0  0  0  0  0
  -26.4259  -37.3825   23.9450 N   0  0  0  0  0  0
  -24.6658  -31.0830   22.0987 N   0  0  0  0  0  0
  -23.4180  -28.8225   23.3062 O   0  0  0  0  0  0
  -28.4437  -26.7703   20.0700 O   0  0  0  0  0  0
  -26.5631  -34.8926   22.4705 O   0  0  0  0  0  0
  -23.5343  -32.1449   23.7494 O   0  0  0  0  0  0
  -31.4691  -19.5059   20.7198 C   0  0  0  0  0  0
  -29.6944  -17.8984   21.1047 C   0  0  0  0  0  0
  -30.1059  -19.2127   20.8942 C   0  0  0  0  0  0
  -32.3816  -18.4341   20.7164 C   0  0  0  0  0  0
  -30.6187  -16.8262   21.0943 C   0  0  0  0  0  0
  -28.2021  -17.8452   21.2027 C   0  0  0  0  0  0
  -35.7405  -17.9690   19.0251 C   0  0  0  0  0  0
  -36.0957  -17.6628   20.4889 C   0  0  0  0  0  0
  -34.2147  -18.0672   18.9853 C   0  0  0  0  0  0
  -34.8516  -18.0040   21.3308 C   0  0  0  0  0  0
  -29.8766  -23.4230   19.0442 C   0  0  0  0  0  0
  -27.9121  -23.0574   20.6202 C   0  0  0  0  0  0
  -29.8781  -24.9176   19.4162 C   0  0  0  0  0  0
  -27.9388  -24.5548   20.9560 C   0  0  0  0  0  0
  -27.8134  -19.3095   20.9073 C   0  0  0  0  0  0
  -33.8460  -18.6334   20.3574 C   0  0  0  0  0  0
  -29.2882  -22.5287   20.1585 C   0  0  1  0  0  0
  -28.4538  -25.3751   19.7585 C   0  0  1  0  0  0
  -29.1650  -21.0721   19.6727 C   0  0  0  0  0  0
  -31.9264  -17.1716   20.9073 N   0  3  0  0  0  0
  -29.0380  -20.1196   20.7792 N   0  0  0  0  0  0
  -30.1888  -15.4606   21.1961 N   0  0  0  0  0  0
  -31.4473  -12.3268   19.1187 H   0  0  0  0  0  0
  -30.2567  -11.2717   19.8159 H   0  0  0  0  0  0
  -29.7175  -11.7886   17.4141 H   0  0  0  0  0  0
  -29.6635  -13.4934   17.7749 H   0  0  0  0  0  0
  -27.8107  -11.3169   18.8018 H   0  0  0  0  0  0
  -27.3597  -12.6554   17.7825 H   0  0  0  0  0  0
  -27.6945  -14.2582   19.5643 H   0  0  0  0  0  0
  -28.6588  -12.0008   21.3839 H   0  0  0  0  0  0
  -28.4676  -13.6594   21.8512 H   0  0  0  0  0  0
  -25.2767   -9.5689   22.4772 H   0  0  0  0  0  0
  -24.0013   -7.4658   22.7485 H   0  0  0  0  0  0
  -21.0855   -8.8785   19.8961 H   0  0  0  0  0  0
  -22.3722  -10.9682   19.6178 H   0  0  0  0  0  0
  -21.1981   -7.6156   23.9723 H   0  0  0  0  0  0
  -21.1483   -6.0530   25.9073 H   0  0  0  0  0  0
  -22.0597   -2.7626   23.2852 H   0  0  0  0  0  0
  -22.4127  -11.9840   22.4708 H   0  0  0  0  0  0
  -21.1138  -13.1252   22.2628 H   0  0  0  0  0  0
  -24.6501  -15.8305   20.4827 H   0  0  0  0  0  0
  -26.2507  -15.6111   19.9948 H   0  0  0  0  0  0
  -26.7134  -32.5539   23.1201 H   0  0  0  0  0  0
  -25.0020  -33.9820   25.0451 H   0  0  0  0  0  0
  -22.6890  -31.3094   21.4086 H   0  0  0  0  0  0
  -23.3810  -35.9569   23.3109 H   0  0  0  0  0  0
  -24.3623  -36.9154   22.2091 H   0  0  0  0  0  0
  -23.7110  -37.6392   23.6797 H   0  0  0  0  0  0
  -26.0359  -31.6061   20.5882 H   0  0  0  0  0  0
  -26.8176  -30.8998   21.9717 H   0  0  0  0  0  0
  -28.1022  -29.1306   21.1321 H   0  0  0  0  0  0
  -25.9995  -25.9829   19.0250 H   0  0  0  0  0  0
  -23.9666  -27.2935   19.0605 H   0  0  0  0  0  0
  -23.7059  -30.5944   19.4033 H   0  0  0  0  0  0
  -22.7329  -29.2368   19.8763 H   0  0  0  0  0  0
  -25.1260  -36.1959   25.0821 H   0  0  0  0  0  0
  -20.9947  -28.3219   24.1467 H   0  0  0  0  0  0
  -20.5679  -26.2267   23.3635 H   0  0  0  0  0  0
  -21.6610  -26.7450   22.1211 H   0  0  0  0  0  0
  -19.6862  -25.6311   21.1254 H   0  0  0  0  0  0
  -19.6643  -27.3246   20.6830 H   0  0  0  0  0  0
  -17.4170  -26.6763   21.4018 H   0  0  0  0  0  0
  -18.0205  -26.0044   22.8994 H   0  0  0  0  0  0
  -19.7893  -30.7286   24.2305 H   0  0  0  0  0  0
  -17.4962  -31.6261   24.5188 H   0  0  0  0  0  0
  -15.5329  -30.3008   23.7627 H   0  0  0  0  0  0
  -15.8641  -28.0842   22.7070 H   0  0  0  0  0  0
  -24.5842  -30.7173   25.7812 H   0  0  0  0  0  0
  -24.9059  -32.2898   26.5082 H   0  0  0  0  0  0
  -25.8104  -30.8742   27.0188 H   0  0  0  0  0  0
  -26.2753  -29.6784   24.1246 H   0  0  0  0  0  0
  -27.4046  -29.7287   25.4582 H   0  0  0  0  0  0
  -27.8592  -30.4290   23.9213 H   0  0  0  0  0  0
  -27.2800  -33.3664   26.1943 H   0  0  0  0  0  0
  -28.3941  -32.6703   25.0292 H   0  0  0  0  0  0
  -28.0674  -31.8440   26.5435 H   0  0  0  0  0  0
  -28.2494  -38.0197   24.7683 H   0  0  0  0  0  0
  -28.1219  -36.2750   24.5983 H   0  0  0  0  0  0
  -27.2359  -37.1082   25.8833 H   0  0  0  0  0  0
  -20.9258  -29.8799   21.7024 H   0  0  0  0  0  0
  -26.0126  -38.2858   24.1616 H   0  0  0  0  0  0
  -31.8009  -20.5168   20.5375 H   0  0  0  0  0  0
  -27.8915  -17.5434   22.2044 H   0  0  0  0  0  0
  -27.7749  -17.1619   20.4673 H   0  0  0  0  0  0
  -36.1248  -17.2170   18.3335 H   0  0  0  0  0  0
  -36.1735  -18.9295   18.7360 H   0  0  0  0  0  0
  -36.9633  -18.2463   20.8004 H   0  0  0  0  0  0
  -36.3558  -16.6094   20.6111 H   0  0  0  0  0  0
  -33.7925  -17.0689   18.8601 H   0  0  0  0  0  0
  -33.8478  -18.6839   18.1635 H   0  0  0  0  0  0
  -35.0765  -18.6685   22.1656 H   0  0  0  0  0  0
  -34.4602  -17.0806   21.7584 H   0  0  0  0  0  0
  -30.8943  -23.1049   18.8157 H   0  0  0  0  0  0
  -29.3048  -23.2836   18.1253 H   0  0  0  0  0  0
  -27.1703  -22.8883   19.8380 H   0  0  0  0  0  0
  -27.5700  -22.4937   21.4890 H   0  0  0  0  0  0
  -30.2696  -25.5021   18.5816 H   0  0  0  0  0  0
  -30.5460  -25.0936   20.2603 H   0  0  0  0  0  0
  -28.5807  -24.7241   21.8213 H   0  0  0  0  0  0
  -26.9397  -24.8783   21.2452 H   0  0  0  0  0  0
  -27.1845  -19.7106   21.7037 H   0  0  0  0  0  0
  -27.2268  -19.3575   19.9887 H   0  0  0  0  0  0
  -34.0484  -19.7059   20.3310 H   0  0  0  0  0  0
  -29.9792  -22.5631   21.0027 H   0  0  0  0  0  0
  -27.8661  -25.1688   18.8649 H   0  0  0  0  0  0
  -30.0221  -20.8233   19.0425 H   0  0  0  0  0  0
  -28.3080  -20.9836   19.0023 H   0  0  0  0  0  0
  -32.6102  -16.4078   20.8227 H   0  0  0  0  0  0
  -29.2807  -15.2824   21.5858 H   0  0  0  0  0  0
  1 25  1  0  0  0
  1 30  2  0  0  0
  1 92  1  0  0  0
  2  3  1  0  0  0
  2 25  1  0  0  0
  2 93  1  0  0  0
  2 94  1  0  0  0
  3  4  1  0  0  0
  3 95  1  0  0  0
  3 96  1  0  0  0
  4  5  1  0  0  0
  4 97  1  0  0  0
  4 98  1  0  0  0
  5  6  1  0  0  0
  5 26  1  0  0  0
  5 99  1  0  0  0
  6 25  1  0  0  0
  6100  1  0  0  0
  6101  1  0  0  0
  7  8  2  0  0  0
  7 26  1  0  0  0
  7 29  1  0  0  0
  8  9  1  0  0  0
  8 22  1  0  0  0
  9 10  1  0  0  0
  9 27  2  0  0  0
 10 11  2  0  0  0
 10 15  1  0  0  0
 11 12  1  0  0  0
 11102  1  0  0  0
 12 13  2  0  0  0
 12103  1  0  0  0
 13 14  1  0  0  0
 13 31  1  0  0  0
 14 15  2  0  0  0
 14104  1  0  0  0
 15105  1  0  0  0
 16 17  2  0  0  0
 16 21  1  0  0  0
 16 31  1  0  0  0
 17 18  1  0  0  0
 17106  1  0  0  0
 18 19  2  0  0  0
 18107  1  0  0  0
 19 20  1  0  0  0
 19 24  1  0  0  0
 20 21  2  0  0  0
 20108  1  0  0  0
 21 23  1  0  0  0
 22 28  1  0  0  0
 22 32  2  0  0  0
 26 27  1  0  0  0
 28109  1  0  0  0
 28110  1  0  0  0
 29111  1  0  0  0
 29112  1  0  0  0
 33 34  1  0  0  0
 33 66  1  0  0  0
 33 70  2  0  0  0
 34 36  1  0  0  0
 34 59  1  0  0  0
 34113  1  0  0  0
 35 44  2  0  0  0
 35 45  1  0  0  0
 35 68  1  0  0  0
 36 56  1  0  0  0
 36114  1  0  0  0
 37 39  1  0  0  0
 37 47  1  0  0  0
 37 66  1  0  0  0
 37115  1  0  0  0
 38 43  2  0  0  0
 38 46  1  0  0  0
 38 47  1  0  0  0
 39 64  1  0  0  0
 39 67  2  0  0  0
 40 52  1  0  0  0
 40 53  2  0  0  0
 40 58  1  0  0  0
 41116  1  0  0  0
 41117  1  0  0  0
 41118  1  0  0  0
 41 48  1  0  0  0
 42 43  1  0  0  0
 42 66  1  0  0  0
 42119  1  0  0  0
 42120  1  0  0  0
 43 44  1  0  0  0
 44121  1  0  0  0
 45 46  2  0  0  0
 45122  1  0  0  0
 46123  1  0  0  0
 47124  1  0  0  0
 47125  1  0  0  0
 48 56  1  0  0  0
 48 65  1  0  0  0
 48126  1  0  0  0
 49 50  1  0  0  0
 49 53  1  0  0  0
 49 64  1  0  0  0
 49127  1  0  0  0
 50 51  1  0  0  0
 50128  1  0  0  0
 50129  1  0  0  0
 51 52  1  0  0  0
 51130  1  0  0  0
 51131  1  0  0  0
 52132  1  0  0  0
 52133  1  0  0  0
 53 54  1  0  0  0
 54 55  2  0  0  0
 54134  1  0  0  0
 55 57  1  0  0  0
 55135  1  0  0  0
 56 69  2  0  0  0
 57 58  2  0  0  0
 57136  1  0  0  0
 58137  1  0  0  0
 59 60  1  0  0  0
 59 61  1  0  0  0
 59 62  1  0  0  0
 60138  1  0  0  0
 60139  1  0  0  0
 60140  1  0  0  0
 61141  1  0  0  0
 61142  1  0  0  0
 61143  1  0  0  0
 62144  1  0  0  0
 62145  1  0  0  0
 62146  1  0  0  0
 63 65  1  0  0  0
 63147  1  0  0  0
 63148  1  0  0  0
 63149  1  0  0  0
 64150  1  0  0  0
 65151  1  0  0  0
 68 88  1  0  0  0
 71 73  2  0  0  0
 71 74  1  0  0  0
 71152  1  0  0  0
 72 73  1  0  0  0
 72 75  2  0  0  0
 72 76  1  0  0  0
 73 91  1  0  0  0
 74 90  2  0  0  0
 74 86  1  0  0  0
 75 90  1  0  0  0
 75 92  1  0  0  0
 76 85  1  0  0  0
 76153  1  0  0  0
 76154  1  0  0  0
 77 78  1  0  0  0
 77 79  1  0  0  0
 77155  1  0  0  0
 77156  1  0  0  0
 78 80  1  0  0  0
 78157  1  0  0  0
 78158  1  0  0  0
 79 86  1  0  0  0
 79159  1  0  0  0
 79160  1  0  0  0
 80 86  1  0  0  0
 80161  1  0  0  0
 80162  1  0  0  0
 81 83  1  0  0  0
 81 87  1  0  0  0
 81163  1  0  0  0
 81164  1  0  0  0
 82 84  1  0  0  0
 82 87  1  0  0  0
 82165  1  0  0  0
 82166  1  0  0  0
 83 88  1  0  0  0
 83167  1  0  0  0
 83168  1  0  0  0
 84 88  1  0  0  0
 84169  1  0  0  0
 84170  1  0  0  0
 85 91  1  0  0  0
 85171  1  0  0  0
 85172  1  0  0  0
 86173  1  0  0  0
 87 89  1  0  0  0
 87174  1  0  0  0
 88175  1  0  0  0
 89 91  1  0  0  0
 89176  1  0  0  0
 89177  1  0  0  0
 90178  1  0  0  0
 92179  1  0  0  0
M  CHG  1  90   1
M  ISO  4   1 100  68 101  88 101  92 100
M  END
> <chiral flag>
0

> <version>
0

> <s_m_source_file>
/data/baiqing/PycharmProjects/Reinvent-master-3.2/result/LINK_invent/BTK/process_docking_weight1_custom_sum_contain_oxygen_bond_distance_aromatic_linkinvent_7_9_3/rearranged_h_0147.sdf

> <i_m_source_file_index>
98

> <r_mmod_Potential_Energy-OPLS-2005>
67.9687652587891

> <r_mmod_Stretch_Energy-OPLS-2005>
38.8393173217773

> <r_mmod_Bend_Energy-OPLS-2005>
163.596954345703

> <r_mmod_Torsional_Energy-OPLS-2005>
288.870727539062

> <r_mmod_Improper_Torsional_Energy-OPLS-2005>
9.18936157226562

> <r_mmod_Van_der_Waal_Energy-OPLS-2005>
160.318420410156

> <r_mmod_Electrostatic_Energy-OPLS-2005>
-201.004348754883

> <r_mmod_Solvation_Energy-OPLS-2005>
-405.031036376953

> <b_mmod_Minimization_Converged-OPLS-2005>
0

> <r_mmod_RMS_Derivative-OPLS-2005>
2.74908494949341

$$$$
