0
                    3D
 Structure written by MMmdl.
161170  0  0  1  0            999 V2000
  -30.7018  -14.6241   20.4790 C   0  0  0  0  0  0
  -30.4216  -12.3859   19.4470 C   0  0  0  0  0  0
  -29.4959  -12.4899   18.2178 C   0  0  0  0  0  0
  -28.0238  -12.3256   18.6403 C   0  0  0  0  0  0
  -27.6435  -13.2138   19.8547 C   0  0  2  0  0  0
  -28.6988  -13.1408   20.9816 C   0  0  0  0  0  0
  -25.2543  -13.8142   20.5728 C   0  0  0  0  0  0
  -24.1808  -13.0418   20.9215 C   0  0  0  0  0  0
  -24.6381  -11.6890   20.8770 C   0  0  0  0  0  0
  -23.9048  -10.4278   21.0418 C   0  0  0  0  0  0
  -24.3602   -9.4195   21.9191 C   0  0  0  0  0  0
  -23.6281   -8.2231   22.0751 C   0  0  0  0  0  0
  -22.4259   -8.0268   21.3542 C   0  0  0  0  0  0
  -21.9898   -9.0243   20.4652 C   0  0  0  0  0  0
  -22.7222  -10.2124   20.3062 C   0  0  0  0  0  0
  -21.6848   -6.0729   22.5277 C   0  0  0  0  0  0
  -21.4016   -6.5635   23.8211 C   0  0  0  0  0  0
  -21.3665   -5.6782   24.9170 C   0  0  0  0  0  0
  -21.6038   -4.3041   24.7224 C   0  0  0  0  0  0
  -21.8820   -3.8145   23.4342 C   0  0  0  0  0  0
  -21.9197   -4.6959   22.3397 C   0  0  0  0  0  0
  -22.7835  -13.5229   21.1858 C   0  0  0  0  0  0
  -22.1660   -4.2143   21.0973 F   0  0  0  0  0  0
  -21.5635   -3.4530   25.7748 F   0  0  0  0  0  0
  -30.0106  -13.4430   20.3919 N   0  0  0  0  0  0
  -26.2953  -12.9317   20.3347 N   0  0  0  0  0  0
  -25.9309  -11.6476   20.5795 N   0  0  0  0  0  0
  -22.0458  -12.8234   22.0410 N   0  0  0  0  0  0
  -25.4279  -15.1865   20.4153 N   0  0  0  0  0  0
  -31.8908  -14.6929   20.1612 O   0  0  0  0  0  0
  -21.6623   -6.8866   21.4235 O   0  0  0  0  0  0
  -22.3539  -14.5547   20.6714 O   0  0  0  0  0  0
  -24.6247  -31.8624   23.2066 C   0  0  0  0  0  0
  -25.9104  -32.4792   23.8379 C   0  0  1  0  0  0
  -27.2205  -27.3337   20.1070 C   0  0  0  0  0  0
  -25.5932  -33.8598   24.2301 N   0  0  0  0  0  0
  -23.4173  -30.4892   21.5497 C   0  0  2  0  0  0
  -24.8628  -28.9562   20.1079 C   0  0  0  0  0  0
  -22.7474  -29.4635   22.4948 C   0  0  0  0  0  0
  -18.0288  -28.1380   22.8484 C   0  0  0  0  0  0
  -24.1494  -36.7304   23.2637 C   0  0  0  0  0  0
  -25.9594  -30.7971   21.3789 C   0  0  0  0  0  0
  -26.0324  -29.4282   20.7166 C   0  0  0  0  0  0
  -27.2131  -28.6279   20.7114 C   0  0  0  0  0  0
  -26.0276  -26.9293   19.4544 C   0  0  0  0  0  0
  -24.8621  -27.7111   19.4683 C   0  0  0  0  0  0
  -23.6303  -29.8326   20.1623 C   0  0  0  0  0  0
  -25.4117  -36.3095   24.0330 C   0  0  1  0  0  0
  -20.5887  -28.3686   23.1291 C   0  0  2  0  0  0
  -20.6777  -26.9411   22.5416 C   0  0  0  0  0  0
  -19.5756  -26.6380   21.5215 C   0  0  0  0  0  0
  -18.1932  -26.7926   22.1615 C   0  0  0  0  0  0
  -19.1538  -28.8851   23.2881 C   0  0  0  0  0  0
  -18.9460  -30.1452   23.8896 C   0  0  0  0  0  0
  -17.6459  -30.6585   24.0562 C   0  0  0  0  0  0
  -25.9051  -34.9460   23.5112 C   0  0  0  0  0  0
  -16.5351  -29.9081   23.6330 C   0  0  0  0  0  0
  -16.7273  -28.6498   23.0351 C   0  0  0  0  0  0
  -26.4495  -31.6598   25.0741 C   0  0  0  0  0  0
  -25.3739  -31.3738   26.1478 C   0  0  0  0  0  0
  -27.0327  -30.3018   24.6186 C   0  0  0  0  0  0
  -27.6057  -32.4334   25.7502 C   0  0  0  0  0  0
  -27.5586  -37.1805   24.8463 C   0  0  0  0  0  0
  -21.4191  -29.3039   22.3690 N   0  0  0  0  0  0
  -26.4296  -37.3785   23.9406 N   0  0  0  0  0  0
  -24.6859  -31.0653   22.1017 N   0  0  0  0  0  0
  -23.4206  -28.8164   23.3016 O   0  0  0  0  0  0
  -28.3259  -26.4676   20.1866 O   0  0  0  0  0  0
  -26.5611  -34.8917   22.4674 O   0  0  0  0  0  0
  -23.5413  -32.1421   23.7405 O   0  0  0  0  0  0
  -28.8630  -22.5713   19.8160 C   0  0  0  0  0  0
  -29.6699  -21.5204   20.3295 C   0  0  0  0  0  0
  -28.9960  -23.8863   20.3435 C   0  0  0  0  0  0
  -30.5908  -23.0565   21.7783 C   0  0  0  0  0  0
  -30.4805  -16.7783   21.7067 C   0  0  0  0  0  0
  -29.4921  -16.5085   19.5047 C   0  0  0  0  0  0
  -30.6630  -18.2723   21.2178 C   0  0  0  0  0  0
  -28.6789  -17.7986   19.8458 C   0  0  0  0  0  0
  -31.5827  -23.3322   22.8882 C   0  0  0  0  0  0
  -29.7301  -20.0971   19.6873 C   0  0  0  0  0  0
  -28.0641  -25.0470   19.8685 C   0  0  0  0  0  0
  -30.5230  -21.7963   21.3356 N   0  0  0  0  0  0
  -29.8823  -24.1001   21.3384 N   0  0  0  0  0  0
  -30.0016  -15.7898   20.6954 N   0  0  0  0  0  0
  -29.4675  -18.8684   20.5383 N   0  3  0  0  0  0
  -31.4648  -12.4798   19.1402 H   0  0  0  0  0  0
  -30.3329  -11.4039   19.9137 H   0  0  0  0  0  0
  -29.7616  -11.7296   17.4808 H   0  0  0  0  0  0
  -29.6343  -13.4532   17.7248 H   0  0  0  0  0  0
  -27.8720  -11.2751   18.8919 H   0  0  0  0  0  0
  -27.3642  -12.5354   17.7971 H   0  0  0  0  0  0
  -27.6274  -14.2325   19.4823 H   0  0  0  0  0  0
  -28.7101  -12.1511   21.4406 H   0  0  0  0  0  0
  -28.4551  -13.8465   21.7776 H   0  0  0  0  0  0
  -25.2746   -9.5675   22.4764 H   0  0  0  0  0  0
  -24.0001   -7.4627   22.7463 H   0  0  0  0  0  0
  -21.0832   -8.8759   19.8960 H   0  0  0  0  0  0
  -22.3681  -10.9664   19.6176 H   0  0  0  0  0  0
  -21.1993   -7.6145   23.9712 H   0  0  0  0  0  0
  -21.1492   -6.0508   25.9070 H   0  0  0  0  0  0
  -22.0602   -2.7611   23.2833 H   0  0  0  0  0  0
  -22.4059  -11.9897   22.4806 H   0  0  0  0  0  0
  -21.1085  -13.1293   22.2602 H   0  0  0  0  0  0
  -24.6630  -15.8434   20.5236 H   0  0  0  0  0  0
  -26.2837  -15.6185   20.0963 H   0  0  0  0  0  0
  -26.7168  -32.5465   23.1123 H   0  0  0  0  0  0
  -25.0090  -33.9749   25.0453 H   0  0  0  0  0  0
  -22.7092  -31.3092   21.4123 H   0  0  0  0  0  0
  -23.3750  -35.9642   23.3308 H   0  0  0  0  0  0
  -24.3584  -36.8915   22.2050 H   0  0  0  0  0  0
  -23.7249  -37.6512   23.6651 H   0  0  0  0  0  0
  -26.0925  -31.5643   20.6149 H   0  0  0  0  0  0
  -26.8390  -30.8406   22.0096 H   0  0  0  0  0  0
  -28.1061  -28.9848   21.2050 H   0  0  0  0  0  0
  -25.9476  -25.9903   18.9284 H   0  0  0  0  0  0
  -23.9683  -27.3491   18.9789 H   0  0  0  0  0  0
  -23.7469  -30.6127   19.4091 H   0  0  0  0  0  0
  -22.7506  -29.2614   19.8600 H   0  0  0  0  0  0
  -25.1293  -36.1954   25.0823 H   0  0  0  0  0  0
  -20.9967  -28.3258   24.1417 H   0  0  0  0  0  0
  -20.5681  -26.2298   23.3616 H   0  0  0  0  0  0
  -21.6648  -26.7445   22.1214 H   0  0  0  0  0  0
  -19.6921  -25.6291   21.1250 H   0  0  0  0  0  0
  -19.6697  -27.3189   20.6745 H   0  0  0  0  0  0
  -17.4210  -26.6685   21.4007 H   0  0  0  0  0  0
  -18.0316  -26.0064   22.9005 H   0  0  0  0  0  0
  -19.7936  -30.7268   24.2264 H   0  0  0  0  0  0
  -17.5015  -31.6264   24.5166 H   0  0  0  0  0  0
  -15.5351  -30.2981   23.7655 H   0  0  0  0  0  0
  -15.8672  -28.0814   22.7067 H   0  0  0  0  0  0
  -24.5900  -30.7097   25.7818 H   0  0  0  0  0  0
  -24.8946  -32.2909   26.4916 H   0  0  0  0  0  0
  -25.8074  -30.8909   27.0245 H   0  0  0  0  0  0
  -26.2890  -29.6777   24.1214 H   0  0  0  0  0  0
  -27.4026  -29.7265   25.4683 H   0  0  0  0  0  0
  -27.8766  -30.4296   23.9403 H   0  0  0  0  0  0
  -27.2659  -33.3622   26.2096 H   0  0  0  0  0  0
  -28.3850  -32.6921   25.0321 H   0  0  0  0  0  0
  -28.0748  -31.8457   26.5403 H   0  0  0  0  0  0
  -28.2608  -38.0098   24.7505 H   0  0  0  0  0  0
  -28.1074  -36.2628   24.6290 H   0  0  0  0  0  0
  -27.2304  -37.1463   25.8867 H   0  0  0  0  0  0
  -20.9371  -29.8771   21.6905 H   0  0  0  0  0  0
  -26.0184  -38.2863   24.1403 H   0  0  0  0  0  0
  -28.1654  -22.3857   19.0091 H   0  0  0  0  0  0
  -29.7652  -16.7619   22.5293 H   0  0  0  0  0  0
  -31.4228  -16.4456   22.1456 H   0  0  0  0  0  0
  -30.3288  -16.7683   18.8533 H   0  0  0  0  0  0
  -28.8710  -15.8500   18.9028 H   0  0  0  0  0  0
  -31.5091  -18.2953   20.5304 H   0  0  0  0  0  0
  -30.9442  -18.9104   22.0571 H   0  0  0  0  0  0
  -27.8607  -17.5193   20.5108 H   0  0  0  0  0  0
  -28.1895  -18.1683   18.9450 H   0  0  0  0  0  0
  -32.1562  -22.4401   23.1417 H   0  0  0  0  0  0
  -31.0647  -23.6668   23.7864 H   0  0  0  0  0  0
  -32.2871  -24.1077   22.5873 H   0  0  0  0  0  0
  -30.6869  -19.9898   19.1763 H   0  0  0  0  0  0
  -28.9981  -20.1312   18.8822 H   0  0  0  0  0  0
  -27.1045  -24.7603   20.3009 H   0  0  0  0  0  0
  -27.9707  -24.9571   18.7854 H   0  0  0  0  0  0
  -28.8631  -19.2217   21.2651 H   0  0  0  0  0  0
  1 25  1  0  0  0
  1 30  2  0  0  0
  1 84  1  0  0  0
  2  3  1  0  0  0
  2 25  1  0  0  0
  2 86  1  0  0  0
  2 87  1  0  0  0
  3  4  1  0  0  0
  3 88  1  0  0  0
  3 89  1  0  0  0
  4  5  1  0  0  0
  4 90  1  0  0  0
  4 91  1  0  0  0
  5  6  1  0  0  0
  5 26  1  0  0  0
  5 92  1  0  0  0
  6 25  1  0  0  0
  6 93  1  0  0  0
  6 94  1  0  0  0
  7  8  2  0  0  0
  7 26  1  0  0  0
  7 29  1  0  0  0
  8  9  1  0  0  0
  8 22  1  0  0  0
  9 10  1  0  0  0
  9 27  2  0  0  0
 10 11  2  0  0  0
 10 15  1  0  0  0
 11 12  1  0  0  0
 11 95  1  0  0  0
 12 13  2  0  0  0
 12 96  1  0  0  0
 13 14  1  0  0  0
 13 31  1  0  0  0
 14 15  2  0  0  0
 14 97  1  0  0  0
 15 98  1  0  0  0
 16 17  2  0  0  0
 16 21  1  0  0  0
 16 31  1  0  0  0
 17 18  1  0  0  0
 17 99  1  0  0  0
 18 19  2  0  0  0
 18100  1  0  0  0
 19 20  1  0  0  0
 19 24  1  0  0  0
 20 21  2  0  0  0
 20101  1  0  0  0
 21 23  1  0  0  0
 22 28  1  0  0  0
 22 32  2  0  0  0
 26 27  1  0  0  0
 28102  1  0  0  0
 28103  1  0  0  0
 29104  1  0  0  0
 29105  1  0  0  0
 33 34  1  0  0  0
 33 66  1  0  0  0
 33 70  2  0  0  0
 34 36  1  0  0  0
 34 59  1  0  0  0
 34106  1  0  0  0
 35 44  2  0  0  0
 35 45  1  0  0  0
 35 68  1  0  0  0
 36 56  1  0  0  0
 36107  1  0  0  0
 37 39  1  0  0  0
 37 47  1  0  0  0
 37 66  1  0  0  0
 37108  1  0  0  0
 38 43  2  0  0  0
 38 46  1  0  0  0
 38 47  1  0  0  0
 39 64  1  0  0  0
 39 67  2  0  0  0
 40 52  1  0  0  0
 40 53  2  0  0  0
 40 58  1  0  0  0
 41109  1  0  0  0
 41110  1  0  0  0
 41111  1  0  0  0
 41 48  1  0  0  0
 42 43  1  0  0  0
 42 66  1  0  0  0
 42112  1  0  0  0
 42113  1  0  0  0
 43 44  1  0  0  0
 44114  1  0  0  0
 45 46  2  0  0  0
 45115  1  0  0  0
 46116  1  0  0  0
 47117  1  0  0  0
 47118  1  0  0  0
 48 56  1  0  0  0
 48 65  1  0  0  0
 48119  1  0  0  0
 49 50  1  0  0  0
 49 53  1  0  0  0
 49 64  1  0  0  0
 49120  1  0  0  0
 50 51  1  0  0  0
 50121  1  0  0  0
 50122  1  0  0  0
 51 52  1  0  0  0
 51123  1  0  0  0
 51124  1  0  0  0
 52125  1  0  0  0
 52126  1  0  0  0
 53 54  1  0  0  0
 54 55  2  0  0  0
 54127  1  0  0  0
 55 57  1  0  0  0
 55128  1  0  0  0
 56 69  2  0  0  0
 57 58  2  0  0  0
 57129  1  0  0  0
 58130  1  0  0  0
 59 60  1  0  0  0
 59 61  1  0  0  0
 59 62  1  0  0  0
 60131  1  0  0  0
 60132  1  0  0  0
 60133  1  0  0  0
 61134  1  0  0  0
 61135  1  0  0  0
 61136  1  0  0  0
 62137  1  0  0  0
 62138  1  0  0  0
 62139  1  0  0  0
 63 65  1  0  0  0
 63140  1  0  0  0
 63141  1  0  0  0
 63142  1  0  0  0
 64143  1  0  0  0
 65144  1  0  0  0
 68 81  1  0  0  0
 71 72  2  0  0  0
 71 73  1  0  0  0
 71145  1  0  0  0
 72 80  1  0  0  0
 72 82  1  0  0  0
 73 81  1  0  0  0
 73 83  2  0  0  0
 74 79  1  0  0  0
 74 82  2  0  0  0
 74 83  1  0  0  0
 75 77  1  0  0  0
 75 84  1  0  0  0
 75146  1  0  0  0
 75147  1  0  0  0
 76 78  1  0  0  0
 76 84  1  0  0  0
 76148  1  0  0  0
 76149  1  0  0  0
 77 85  1  0  0  0
 77150  1  0  0  0
 77151  1  0  0  0
 78 85  1  0  0  0
 78152  1  0  0  0
 78153  1  0  0  0
 79154  1  0  0  0
 79155  1  0  0  0
 79156  1  0  0  0
 80157  1  0  0  0
 80158  1  0  0  0
 80 85  1  0  0  0
 81159  1  0  0  0
 81160  1  0  0  0
 85161  1  0  0  0
M  CHG  1  85   1
M  ISO  4   1 100  68 101  81 101  84 100
M  END
> <chiral flag>
0

> <version>
0

> <s_m_source_file>
/data/baiqing/PycharmProjects/Reinvent-master-3.2/result/LINK_invent/BTK/process_docking_weight1_custom_sum_contain_oxygen_bond_distance_aromatic_linkinvent_7_9_3/rearranged_h_0176.sdf

> <i_m_source_file_index>
1

> <r_mmod_Potential_Energy-OPLS-2005>
-327.876800537109

> <r_mmod_Stretch_Energy-OPLS-2005>
71.7117691040039

> <r_mmod_Bend_Energy-OPLS-2005>
144.898056030273

> <r_mmod_Torsional_Energy-OPLS-2005>
395.342407226562

> <r_mmod_Improper_Torsional_Energy-OPLS-2005>
9.4833812713623

> <r_mmod_Van_der_Waal_Energy-OPLS-2005>
170.064422607422

> <r_mmod_Electrostatic_Energy-OPLS-2005>
-690.801025390625

> <r_mmod_Solvation_Energy-OPLS-2005>
-479.623931884766

> <b_mmod_Minimization_Converged-OPLS-2005>
0

> <r_mmod_RMS_Derivative-OPLS-2005>
1.49051856994629

$$$$
1
                    3D
 Structure written by MMmdl.
156165  0  0  1  0            999 V2000
  -30.4041  -15.3354   20.3691 C   0  0  0  0  0  0
  -30.4351  -12.8608   19.5218 C   0  0  0  0  0  0
  -29.5347  -12.5878   18.2894 C   0  0  0  0  0  0
  -28.0892  -12.2908   18.7239 C   0  0  0  0  0  0
  -27.6041  -13.2757   19.8155 C   0  0  2  0  0  0
  -28.6349  -13.4821   20.9450 C   0  0  0  0  0  0
  -25.2353  -13.8235   20.5729 C   0  0  0  0  0  0
  -24.1719  -13.0427   20.9273 C   0  0  0  0  0  0
  -24.6378  -11.6923   20.8766 C   0  0  0  0  0  0
  -23.9066  -10.4292   21.0407 C   0  0  0  0  0  0
  -24.3623   -9.4204   21.9174 C   0  0  0  0  0  0
  -23.6304   -8.2236   22.0743 C   0  0  0  0  0  0
  -22.4289   -8.0266   21.3534 C   0  0  0  0  0  0
  -21.9918   -9.0235   20.4638 C   0  0  0  0  0  0
  -22.7242  -10.2120   20.3047 C   0  0  0  0  0  0
  -21.6857   -6.0734   22.5278 C   0  0  0  0  0  0
  -21.4014   -6.5637   23.8211 C   0  0  0  0  0  0
  -21.3666   -5.6787   24.9174 C   0  0  0  0  0  0
  -21.6047   -4.3050   24.7224 C   0  0  0  0  0  0
  -21.8818   -3.8144   23.4346 C   0  0  0  0  0  0
  -21.9189   -4.6960   22.3403 C   0  0  0  0  0  0
  -22.7738  -13.5176   21.1924 C   0  0  0  0  0  0
  -22.1653   -4.2144   21.0981 F   0  0  0  0  0  0
  -21.5631   -3.4537   25.7741 F   0  0  0  0  0  0
  -29.8510  -14.0153   20.3063 N   0  0  0  0  0  0
  -26.2777  -12.9507   20.3189 N   0  0  0  0  0  0
  -25.9315  -11.6615   20.5705 N   0  0  0  0  0  0
  -22.0393  -12.8163   22.0479 N   0  0  0  0  0  0
  -25.3976  -15.1971   20.4128 N   0  0  0  0  0  0
  -31.6370  -15.3069   20.2058 O   0  0  0  0  0  0
  -21.6641   -6.8875   21.4241 O   0  0  0  0  0  0
  -22.3417  -14.5471   20.6751 O   0  0  0  0  0  0
  -24.6674  -31.8181   23.1656 C   0  0  0  0  0  0
  -25.9336  -32.4556   23.8136 C   0  0  1  0  0  0
  -27.2151  -26.8806   20.2063 C   0  0  0  0  0  0
  -25.5981  -33.8368   24.2040 N   0  0  0  0  0  0
  -23.4841  -30.4274   21.5171 C   0  0  2  0  0  0
  -24.9354  -28.7998   20.1208 C   0  0  0  0  0  0
  -22.7687  -29.4409   22.4778 C   0  0  0  0  0  0
  -18.0327  -28.1417   22.8469 C   0  0  0  0  0  0
  -24.1495  -36.7198   23.2646 C   0  0  0  0  0  0
  -26.0548  -30.6122   21.4002 C   0  0  0  0  0  0
  -26.1215  -29.1943   20.7531 C   0  0  0  0  0  0
  -27.2573  -28.2597   20.7607 C   0  0  0  0  0  0
  -25.9972  -26.6429   19.5312 C   0  0  0  0  0  0
  -24.9010  -27.5463   19.4881 C   0  0  0  0  0  0
  -23.7261  -29.7359   20.1470 C   0  0  0  0  0  0
  -25.4137  -36.2947   24.0292 C   0  0  1  0  0  0
  -20.5954  -28.3757   23.1187 C   0  0  2  0  0  0
  -20.6802  -26.9432   22.5407 C   0  0  0  0  0  0
  -19.5773  -26.6381   21.5219 C   0  0  0  0  0  0
  -18.1957  -26.7952   22.1625 C   0  0  0  0  0  0
  -19.1588  -28.8910   23.2815 C   0  0  0  0  0  0
  -18.9497  -30.1505   23.8840 C   0  0  0  0  0  0
  -17.6486  -30.6599   24.0559 C   0  0  0  0  0  0
  -25.9103  -34.9330   23.4992 C   0  0  0  0  0  0
  -16.5378  -29.9085   23.6347 C   0  0  0  0  0  0
  -16.7308  -28.6513   23.0355 C   0  0  0  0  0  0
  -26.4574  -31.6524   25.0689 C   0  0  0  0  0  0
  -25.3687  -31.3784   26.1336 C   0  0  0  0  0  0
  -27.0480  -30.2889   24.6450 C   0  0  0  0  0  0
  -27.6053  -32.4348   25.7495 C   0  0  0  0  0  0
  -27.5568  -37.1754   24.8464 C   0  0  0  0  0  0
  -21.4352  -29.3033   22.3528 N   0  0  0  0  0  0
  -26.4276  -37.3690   23.9409 N   0  0  0  0  0  0
  -24.7574  -30.9810   22.0814 N   0  0  0  0  0  0
  -23.4216  -28.7983   23.3036 O   0  0  0  0  0  0
  -28.2370  -25.7799   20.2100 O   0  0  0  0  0  0
  -26.5716  -34.8878   22.4589 O   0  0  0  0  0  0
  -23.5737  -32.1153   23.6740 O   0  0  0  0  0  0
  -28.9589  -19.4789   20.1885 C   0  0  0  0  0  0
  -29.3097  -20.9831   20.3621 C   0  0  0  0  0  0
  -30.6417  -21.0511   20.7836 C   0  0  0  0  0  0
  -31.4421  -19.9134   21.0873 C   0  0  0  0  0  0
  -29.8455  -18.2307   20.4869 C   0  0  0  0  0  0
  -31.1794  -22.4574   20.6519 C   0  0  0  0  0  0
  -30.2766  -23.1244   19.5956 C   0  0  0  0  0  0
  -28.8326  -22.6108   19.8227 C   0  0  2  0  0  0
  -32.8855  -20.0888   21.5204 C   0  0  0  0  0  0
  -28.0862  -22.4113   18.4959 C   0  0  0  0  0  0
  -28.0992  -24.1363   20.5203 C   0  0  0  0  0  0
  -31.0552  -18.6129   20.9629 N   0  0  0  0  0  0
  -29.6185  -16.6176   20.3670 N   0  0  0  0  0  0
  -31.4488  -13.0802   19.1828 H   0  0  0  0  0  0
  -30.5232  -11.9688   20.1450 H   0  0  0  0  0  0
  -29.9314  -11.7571   17.7051 H   0  0  0  0  0  0
  -29.5441  -13.4592   17.6329 H   0  0  0  0  0  0
  -28.0652  -11.2737   19.1166 H   0  0  0  0  0  0
  -27.4195  -12.3021   17.8633 H   0  0  0  0  0  0
  -27.5076  -14.2305   19.2981 H   0  0  0  0  0  0
  -28.8226  -12.5559   21.4897 H   0  0  0  0  0  0
  -28.2596  -14.2026   21.6738 H   0  0  0  0  0  0
  -25.2760   -9.5686   22.4755 H   0  0  0  0  0  0
  -24.0005   -7.4628   22.7463 H   0  0  0  0  0  0
  -21.0847   -8.8757   19.8954 H   0  0  0  0  0  0
  -22.3685  -10.9654   19.6160 H   0  0  0  0  0  0
  -21.2005   -7.6145   23.9720 H   0  0  0  0  0  0
  -21.1487   -6.0516   25.9080 H   0  0  0  0  0  0
  -22.0594   -2.7604   23.2852 H   0  0  0  0  0  0
  -22.4023  -11.9840   22.4891 H   0  0  0  0  0  0
  -21.0996  -13.1160   22.2667 H   0  0  0  0  0  0
  -24.6205  -15.8408   20.5136 H   0  0  0  0  0  0
  -26.2237  -15.6349   20.0283 H   0  0  0  0  0  0
  -26.7401  -32.5092   23.0844 H   0  0  0  0  0  0
  -25.0080  -33.9421   25.0159 H   0  0  0  0  0  0
  -22.8006  -31.2606   21.3419 H   0  0  0  0  0  0
  -23.3767  -35.9518   23.3271 H   0  0  0  0  0  0
  -24.3568  -36.8887   22.2067 H   0  0  0  0  0  0
  -23.7242  -37.6369   23.6733 H   0  0  0  0  0  0
  -26.2359  -31.3476   20.6152 H   0  0  0  0  0  0
  -26.9130  -30.6743   22.0571 H   0  0  0  0  0  0
  -28.1618  -28.5687   21.2647 H   0  0  0  0  0  0
  -25.8716  -25.6880   19.0404 H   0  0  0  0  0  0
  -24.0020  -27.2394   18.9715 H   0  0  0  0  0  0
  -23.8894  -30.4988   19.3854 H   0  0  0  0  0  0
  -22.8351  -29.1927   19.8277 H   0  0  0  0  0  0
  -25.1342  -36.1730   25.0782 H   0  0  0  0  0  0
  -21.0038  -28.3365   24.1312 H   0  0  0  0  0  0
  -20.5689  -26.2365   23.3650 H   0  0  0  0  0  0
  -21.6664  -26.7411   22.1204 H   0  0  0  0  0  0
  -19.6924  -25.6278   21.1278 H   0  0  0  0  0  0
  -19.6716  -27.3165   20.6731 H   0  0  0  0  0  0
  -17.4228  -26.6696   21.4028 H   0  0  0  0  0  0
  -18.0348  -26.0112   22.9037 H   0  0  0  0  0  0
  -19.7968  -30.7349   24.2170 H   0  0  0  0  0  0
  -17.5030  -31.6266   24.5180 H   0  0  0  0  0  0
  -15.5373  -30.2962   23.7706 H   0  0  0  0  0  0
  -15.8714  -28.0817   22.7084 H   0  0  0  0  0  0
  -24.5892  -30.7109   25.7643 H   0  0  0  0  0  0
  -24.8851  -32.2987   26.4621 H   0  0  0  0  0  0
  -25.7905  -30.9043   27.0208 H   0  0  0  0  0  0
  -26.3151  -29.6551   24.1441 H   0  0  0  0  0  0
  -27.3985  -29.7273   25.5122 H   0  0  0  0  0  0
  -27.9105  -30.4070   23.9887 H   0  0  0  0  0  0
  -27.2610  -33.3704   26.1915 H   0  0  0  0  0  0
  -28.3938  -32.6812   25.0373 H   0  0  0  0  0  0
  -28.0635  -31.8578   26.5539 H   0  0  0  0  0  0
  -28.2562  -38.0072   24.7515 H   0  0  0  0  0  0
  -28.1087  -36.2595   24.6292 H   0  0  0  0  0  0
  -27.2282  -37.1397   25.8866 H   0  0  0  0  0  0
  -20.9622  -29.8707   21.6632 H   0  0  0  0  0  0
  -26.0121  -38.2746   24.1425 H   0  0  0  0  0  0
  -27.9909  -19.2711   19.7527 H   0  0  0  0  0  0
  -32.2258  -22.4785   20.3444 H   0  0  0  0  0  0
  -31.0983  -22.9668   21.6132 H   0  0  0  0  0  0
  -30.6217  -22.7845   18.6176 H   0  0  0  0  0  0
  -30.3772  -24.2098   19.5846 H   0  0  0  0  0  0
  -33.5063  -20.3633   20.6673 H   0  0  0  0  0  0
  -33.2943  -19.1732   21.9493 H   0  0  0  0  0  0
  -32.9659  -20.8713   22.2741 H   0  0  0  0  0  0
  -27.9213  -23.3607   17.9851 H   0  0  0  0  0  0
  -27.1116  -21.9549   18.6730 H   0  0  0  0  0  0
  -28.6349  -21.7575   17.8189 H   0  0  0  0  0  0
  -28.4198  -24.0997   21.5619 H   0  0  0  0  0  0
  -27.0274  -23.9483   20.5843 H   0  0  0  0  0  0
  -28.6380  -16.3999   20.2959 H   0  0  0  0  0  0
  1 25  1  0  0  0
  1 30  2  0  0  0
  1 83  1  0  0  0
  2  3  1  0  0  0
  2 25  1  0  0  0
  2 84  1  0  0  0
  2 85  1  0  0  0
  3  4  1  0  0  0
  3 86  1  0  0  0
  3 87  1  0  0  0
  4  5  1  0  0  0
  4 88  1  0  0  0
  4 89  1  0  0  0
  5  6  1  0  0  0
  5 26  1  0  0  0
  5 90  1  0  0  0
  6 25  1  0  0  0
  6 91  1  0  0  0
  6 92  1  0  0  0
  7  8  2  0  0  0
  7 26  1  0  0  0
  7 29  1  0  0  0
  8  9  1  0  0  0
  8 22  1  0  0  0
  9 10  1  0  0  0
  9 27  2  0  0  0
 10 11  2  0  0  0
 10 15  1  0  0  0
 11 12  1  0  0  0
 11 93  1  0  0  0
 12 13  2  0  0  0
 12 94  1  0  0  0
 13 14  1  0  0  0
 13 31  1  0  0  0
 14 15  2  0  0  0
 14 95  1  0  0  0
 15 96  1  0  0  0
 16 17  2  0  0  0
 16 21  1  0  0  0
 16 31  1  0  0  0
 17 18  1  0  0  0
 17 97  1  0  0  0
 18 19  2  0  0  0
 18 98  1  0  0  0
 19 20  1  0  0  0
 19 24  1  0  0  0
 20 21  2  0  0  0
 20 99  1  0  0  0
 21 23  1  0  0  0
 22 28  1  0  0  0
 22 32  2  0  0  0
 26 27  1  0  0  0
 28100  1  0  0  0
 28101  1  0  0  0
 29102  1  0  0  0
 29103  1  0  0  0
 33 34  1  0  0  0
 33 66  1  0  0  0
 33 70  2  0  0  0
 34 36  1  0  0  0
 34 59  1  0  0  0
 34104  1  0  0  0
 35 44  2  0  0  0
 35 45  1  0  0  0
 35 68  1  0  0  0
 36 56  1  0  0  0
 36105  1  0  0  0
 37 39  1  0  0  0
 37 47  1  0  0  0
 37 66  1  0  0  0
 37106  1  0  0  0
 38 43  2  0  0  0
 38 46  1  0  0  0
 38 47  1  0  0  0
 39 64  1  0  0  0
 39 67  2  0  0  0
 40 52  1  0  0  0
 40 53  2  0  0  0
 40 58  1  0  0  0
 41107  1  0  0  0
 41108  1  0  0  0
 41109  1  0  0  0
 41 48  1  0  0  0
 42 43  1  0  0  0
 42 66  1  0  0  0
 42110  1  0  0  0
 42111  1  0  0  0
 43 44  1  0  0  0
 44112  1  0  0  0
 45 46  2  0  0  0
 45113  1  0  0  0
 46114  1  0  0  0
 47115  1  0  0  0
 47116  1  0  0  0
 48 56  1  0  0  0
 48 65  1  0  0  0
 48117  1  0  0  0
 49 50  1  0  0  0
 49 53  1  0  0  0
 49 64  1  0  0  0
 49118  1  0  0  0
 50 51  1  0  0  0
 50119  1  0  0  0
 50120  1  0  0  0
 51 52  1  0  0  0
 51121  1  0  0  0
 51122  1  0  0  0
 52123  1  0  0  0
 52124  1  0  0  0
 53 54  1  0  0  0
 54 55  2  0  0  0
 54125  1  0  0  0
 55 57  1  0  0  0
 55126  1  0  0  0
 56 69  2  0  0  0
 57 58  2  0  0  0
 57127  1  0  0  0
 58128  1  0  0  0
 59 60  1  0  0  0
 59 61  1  0  0  0
 59 62  1  0  0  0
 60129  1  0  0  0
 60130  1  0  0  0
 60131  1  0  0  0
 61132  1  0  0  0
 61133  1  0  0  0
 61134  1  0  0  0
 62135  1  0  0  0
 62136  1  0  0  0
 62137  1  0  0  0
 63 65  1  0  0  0
 63138  1  0  0  0
 63139  1  0  0  0
 63140  1  0  0  0
 64141  1  0  0  0
 65142  1  0  0  0
 68 81  1  0  0  0
 71 72  2  0  0  0
 71 75  1  0  0  0
 71143  1  0  0  0
 72 73  1  0  0  0
 72 78  1  0  0  0
 73 74  2  0  0  0
 73 76  1  0  0  0
 74 79  1  0  0  0
 74 82  1  0  0  0
 75 82  2  0  0  0
 75 83  1  0  0  0
 76 77  1  0  0  0
 76144  1  0  0  0
 76145  1  0  0  0
 77 78  1  0  0  0
 77146  1  0  0  0
 77147  1  0  0  0
 78 80  1  0  0  0
 78 81  1  0  0  0
 79148  1  0  0  0
 79149  1  0  0  0
 79150  1  0  0  0
 80151  1  0  0  0
 80152  1  0  0  0
 80153  1  0  0  0
 81154  1  0  0  0
 81155  1  0  0  0
 83156  1  0  0  0
M  ISO  4   1 100  68 101  81 101  83 100
M  END
> <chiral flag>
0

> <version>
0

> <s_m_source_file>
/data/baiqing/PycharmProjects/Reinvent-master-3.2/result/LINK_invent/BTK/process_docking_weight1_custom_sum_contain_oxygen_bond_distance_aromatic_linkinvent_7_9_3/rearranged_h_0176.sdf

> <i_m_source_file_index>
2

> <r_mmod_Potential_Energy-OPLS-2005>
1360.83142089844

> <r_mmod_Stretch_Energy-OPLS-2005>
656.638061523438

> <r_mmod_Bend_Energy-OPLS-2005>
540.753967285156

> <r_mmod_Torsional_Energy-OPLS-2005>
254.41943359375

> <r_mmod_Improper_Torsional_Energy-OPLS-2005>
11.9708776473999

> <r_mmod_Van_der_Waal_Energy-OPLS-2005>
124.251365661621

> <r_mmod_Electrostatic_Energy-OPLS-2005>
-514.004638671875

> <r_mmod_Solvation_Energy-OPLS-2005>
-237.83984375

> <b_mmod_Minimization_Converged-OPLS-2005>
0

> <r_mmod_RMS_Derivative-OPLS-2005>
1.53757679462433

$$$$
2
                    3D
 Structure written by MMmdl.
155164  0  0  1  0            999 V2000
  -30.5569  -15.0023   20.4057 C   0  0  0  0  0  0
  -30.4360  -12.6243   19.4976 C   0  0  0  0  0  0
  -29.5189  -12.5352   18.2568 C   0  0  0  0  0  0
  -28.0575  -12.3050   18.6843 C   0  0  0  0  0  0
  -27.6253  -13.2547   19.8313 C   0  0  2  0  0  0
  -28.6687  -13.3311   20.9668 C   0  0  0  0  0  0
  -25.2456  -13.8223   20.5768 C   0  0  0  0  0  0
  -24.1766  -13.0438   20.9243 C   0  0  0  0  0  0
  -24.6377  -11.6926   20.8761 C   0  0  0  0  0  0
  -23.9058  -10.4302   21.0420 C   0  0  0  0  0  0
  -24.3607   -9.4225   21.9190 C   0  0  0  0  0  0
  -23.6308   -8.2236   22.0746 C   0  0  0  0  0  0
  -22.4294   -8.0274   21.3537 C   0  0  0  0  0  0
  -21.9927   -9.0250   20.4642 C   0  0  0  0  0  0
  -22.7224  -10.2140   20.3060 C   0  0  0  0  0  0
  -21.6852   -6.0760   22.5287 C   0  0  0  0  0  0
  -21.4011   -6.5663   23.8223 C   0  0  0  0  0  0
  -21.3646   -5.6794   24.9183 C   0  0  0  0  0  0
  -21.6043   -4.3064   24.7223 C   0  0  0  0  0  0
  -21.8814   -3.8158   23.4334 C   0  0  0  0  0  0
  -21.9191   -4.6985   22.3398 C   0  0  0  0  0  0
  -22.7782  -13.5241   21.1891 C   0  0  0  0  0  0
  -22.1669   -4.2179   21.0971 F   0  0  0  0  0  0
  -21.5618   -3.4530   25.7729 F   0  0  0  0  0  0
  -29.9416  -13.7449   20.3550 N   0  0  0  0  0  0
  -26.2877  -12.9461   20.3244 N   0  0  0  0  0  0
  -25.9324  -11.6583   20.5738 N   0  0  0  0  0  0
  -22.0417  -12.8226   22.0436 N   0  0  0  0  0  0
  -25.4123  -15.1969   20.4304 N   0  0  0  0  0  0
  -31.7748  -15.0062   20.1755 O   0  0  0  0  0  0
  -21.6631   -6.8891   21.4246 O   0  0  0  0  0  0
  -22.3480  -14.5547   20.6747 O   0  0  0  0  0  0
  -24.6466  -31.8397   23.1827 C   0  0  0  0  0  0
  -25.9222  -32.4678   23.8242 C   0  0  1  0  0  0
  -27.2306  -27.1147   20.1530 C   0  0  0  0  0  0
  -25.5945  -33.8488   24.2178 N   0  0  0  0  0  0
  -23.4524  -30.4569   21.5287 C   0  0  2  0  0  0
  -24.9046  -28.8751   20.1059 C   0  0  0  0  0  0
  -22.7557  -29.4559   22.4835 C   0  0  0  0  0  0
  -18.0276  -28.1413   22.8464 C   0  0  0  0  0  0
  -24.1468  -36.7242   23.2635 C   0  0  0  0  0  0
  -26.0072  -30.7074   21.3842 C   0  0  0  0  0  0
  -26.0804  -29.3149   20.7288 C   0  0  0  0  0  0
  -27.2405  -28.4491   20.7407 C   0  0  0  0  0  0
  -26.0305  -26.7881   19.4814 C   0  0  0  0  0  0
  -24.8932  -27.6257   19.4679 C   0  0  0  0  0  0
  -23.6813  -29.7788   20.1493 C   0  0  0  0  0  0
  -25.4099  -36.3027   24.0325 C   0  0  1  0  0  0
  -20.5894  -28.3735   23.1191 C   0  0  2  0  0  0
  -20.6778  -26.9437   22.5380 C   0  0  0  0  0  0
  -19.5758  -26.6378   21.5181 C   0  0  0  0  0  0
  -18.1929  -26.7938   22.1589 C   0  0  0  0  0  0
  -19.1541  -28.8891   23.2820 C   0  0  0  0  0  0
  -18.9477  -30.1483   23.8859 C   0  0  0  0  0  0
  -17.6481  -30.6609   24.0560 C   0  0  0  0  0  0
  -25.9058  -34.9399   23.5063 C   0  0  0  0  0  0
  -16.5367  -29.9115   23.6342 C   0  0  0  0  0  0
  -16.7259  -28.6524   23.0364 C   0  0  0  0  0  0
  -26.4538  -31.6556   25.0710 C   0  0  0  0  0  0
  -25.3739  -31.3779   26.1429 C   0  0  0  0  0  0
  -27.0398  -30.2937   24.6340 C   0  0  0  0  0  0
  -27.6086  -32.4309   25.7490 C   0  0  0  0  0  0
  -27.5555  -37.1772   24.8465 C   0  0  0  0  0  0
  -21.4242  -29.3064   22.3570 N   0  0  0  0  0  0
  -26.4246  -37.3758   23.9432 N   0  0  0  0  0  0
  -24.7222  -31.0224   22.0882 N   0  0  0  0  0  0
  -23.4171  -28.8120   23.3021 O   0  0  0  0  0  0
  -28.2807  -26.1185   20.2448 O   0  0  0  0  0  0
  -26.5619  -34.8901   22.4632 O   0  0  0  0  0  0
  -23.5567  -32.1287   23.7004 O   0  0  0  0  0  0
  -29.1375  -18.8534   20.3138 C   0  0  0  0  0  0
  -29.5020  -20.2968   20.3507 C   0  0  0  0  0  0
  -30.0941  -17.7338   20.5002 C   0  0  0  0  0  0
  -31.6398  -19.4888   20.7602 C   0  0  0  0  0  0
  -27.1743  -21.4133   19.5574 C   0  0  0  0  0  0
  -28.1935  -21.5707   18.4645 C   0  0  0  0  0  0
  -28.6301  -21.6498   19.9106 C   0  0  0  0  0  0
  -33.0824  -19.8350   21.0715 C   0  0  0  0  0  0
  -28.9631  -23.2157   20.4251 C   0  0  0  0  0  0
  -28.0319  -24.5869   20.0093 C   0  0  0  0  0  0
  -30.8134  -20.5209   20.5580 N   0  0  0  0  0  0
  -31.3489  -18.1794   20.7368 N   0  0  0  0  0  0
  -29.7896  -16.2158   20.4674 N   0  0  0  0  0  0
  -31.4668  -12.7753   19.1753 H   0  0  0  0  0  0
  -30.4331  -11.6868   20.0548 H   0  0  0  0  0  0
  -29.8524  -11.7362   17.5967 H   0  0  0  0  0  0
  -29.5931  -13.4587   17.6825 H   0  0  0  0  0  0
  -27.9690  -11.2697   19.0179 H   0  0  0  0  0  0
  -27.3881  -12.4020   17.8294 H   0  0  0  0  0  0
  -27.5744  -14.2460   19.3790 H   0  0  0  0  0  0
  -28.7647  -12.3756   21.4838 H   0  0  0  0  0  0
  -28.3515  -14.0570   21.7187 H   0  0  0  0  0  0
  -25.2754   -9.5718   22.4769 H   0  0  0  0  0  0
  -24.0029   -7.4627   22.7463 H   0  0  0  0  0  0
  -21.0853   -8.8755   19.8965 H   0  0  0  0  0  0
  -22.3666  -10.9677   19.6172 H   0  0  0  0  0  0
  -21.1994   -7.6173   23.9740 H   0  0  0  0  0  0
  -21.1487   -6.0523   25.9091 H   0  0  0  0  0  0
  -22.0604   -2.7627   23.2809 H   0  0  0  0  0  0
  -22.4024  -11.9901   22.4852 H   0  0  0  0  0  0
  -21.1035  -13.1263   22.2635 H   0  0  0  0  0  0
  -24.6442  -15.8450   20.5676 H   0  0  0  0  0  0
  -26.2633  -15.6517   20.1269 H   0  0  0  0  0  0
  -26.7333  -32.5285   23.1007 H   0  0  0  0  0  0
  -25.0196  -33.9592   25.0397 H   0  0  0  0  0  0
  -22.7588  -31.2850   21.3690 H   0  0  0  0  0  0
  -23.3736  -35.9571   23.3272 H   0  0  0  0  0  0
  -24.3550  -36.8872   22.2050 H   0  0  0  0  0  0
  -23.7207  -37.6435   23.6669 H   0  0  0  0  0  0
  -26.1539  -31.4596   20.6060 H   0  0  0  0  0  0
  -26.8812  -30.7665   22.0232 H   0  0  0  0  0  0
  -28.1270  -28.7736   21.2655 H   0  0  0  0  0  0
  -25.9414  -25.8362   18.9772 H   0  0  0  0  0  0
  -23.9977  -27.2786   18.9674 H   0  0  0  0  0  0
  -23.8175  -30.5535   19.3927 H   0  0  0  0  0  0
  -22.7962  -29.2190   19.8390 H   0  0  0  0  0  0
  -25.1300  -36.1844   25.0823 H   0  0  0  0  0  0
  -20.9987  -28.3335   24.1308 H   0  0  0  0  0  0
  -20.5626  -26.2393   23.3625 H   0  0  0  0  0  0
  -21.6664  -26.7426   22.1238 H   0  0  0  0  0  0
  -19.6935  -25.6268   21.1252 H   0  0  0  0  0  0
  -19.6706  -27.3163   20.6677 H   0  0  0  0  0  0
  -17.4219  -26.6652   21.3977 H   0  0  0  0  0  0
  -18.0346  -26.0097   22.9003 H   0  0  0  0  0  0
  -19.7965  -30.7285   24.2230 H   0  0  0  0  0  0
  -17.5049  -31.6279   24.5176 H   0  0  0  0  0  0
  -15.5373  -30.3027   23.7678 H   0  0  0  0  0  0
  -15.8644  -28.0828   22.7127 H   0  0  0  0  0  0
  -24.5956  -30.7050   25.7809 H   0  0  0  0  0  0
  -24.8898  -32.2983   26.4692 H   0  0  0  0  0  0
  -25.8062  -30.9106   27.0285 H   0  0  0  0  0  0
  -26.3021  -29.6661   24.1345 H   0  0  0  0  0  0
  -27.3964  -29.7253   25.4937 H   0  0  0  0  0  0
  -27.8956  -30.4127   23.9703 H   0  0  0  0  0  0
  -27.2685  -33.3634   26.1989 H   0  0  0  0  0  0
  -28.3943  -32.6781   25.0349 H   0  0  0  0  0  0
  -28.0729  -31.8485   26.5461 H   0  0  0  0  0  0
  -28.2603  -38.0038   24.7518 H   0  0  0  0  0  0
  -28.1012  -36.2584   24.6286 H   0  0  0  0  0  0
  -27.2287  -37.1435   25.8867 H   0  0  0  0  0  0
  -20.9426  -29.8787   21.6776 H   0  0  0  0  0  0
  -26.0101  -38.2820   24.1448 H   0  0  0  0  0  0
  -28.1109  -18.6046   20.0873 H   0  0  0  0  0  0
  -26.7637  -20.4240   19.7391 H   0  0  0  0  0  0
  -26.4630  -22.2306   19.6685 H   0  0  0  0  0  0
  -28.1742  -22.4920   17.8874 H   0  0  0  0  0  0
  -28.4634  -20.6788   17.9033 H   0  0  0  0  0  0
  -33.2581  -20.9078   20.9956 H   0  0  0  0  0  0
  -33.7660  -19.3291   20.3896 H   0  0  0  0  0  0
  -33.3220  -19.5252   22.0890 H   0  0  0  0  0  0
  -29.9898  -23.4126   20.1171 H   0  0  0  0  0  0
  -29.0041  -23.1777   21.5137 H   0  0  0  0  0  0
  -27.0599  -24.3953   20.4631 H   0  0  0  0  0  0
  -27.8572  -24.5129   18.9364 H   0  0  0  0  0  0
  -28.8025  -16.0231   20.4768 H   0  0  0  0  0  0
  1 25  1  0  0  0
  1 30  2  0  0  0
  1 83  1  0  0  0
  2  3  1  0  0  0
  2 25  1  0  0  0
  2 84  1  0  0  0
  2 85  1  0  0  0
  3  4  1  0  0  0
  3 86  1  0  0  0
  3 87  1  0  0  0
  4  5  1  0  0  0
  4 88  1  0  0  0
  4 89  1  0  0  0
  5  6  1  0  0  0
  5 26  1  0  0  0
  5 90  1  0  0  0
  6 25  1  0  0  0
  6 91  1  0  0  0
  6 92  1  0  0  0
  7  8  2  0  0  0
  7 26  1  0  0  0
  7 29  1  0  0  0
  8  9  1  0  0  0
  8 22  1  0  0  0
  9 10  1  0  0  0
  9 27  2  0  0  0
 10 11  2  0  0  0
 10 15  1  0  0  0
 11 12  1  0  0  0
 11 93  1  0  0  0
 12 13  2  0  0  0
 12 94  1  0  0  0
 13 14  1  0  0  0
 13 31  1  0  0  0
 14 15  2  0  0  0
 14 95  1  0  0  0
 15 96  1  0  0  0
 16 17  2  0  0  0
 16 21  1  0  0  0
 16 31  1  0  0  0
 17 18  1  0  0  0
 17 97  1  0  0  0
 18 19  2  0  0  0
 18 98  1  0  0  0
 19 20  1  0  0  0
 19 24  1  0  0  0
 20 21  2  0  0  0
 20 99  1  0  0  0
 21 23  1  0  0  0
 22 28  1  0  0  0
 22 32  2  0  0  0
 26 27  1  0  0  0
 28100  1  0  0  0
 28101  1  0  0  0
 29102  1  0  0  0
 29103  1  0  0  0
 33 34  1  0  0  0
 33 66  1  0  0  0
 33 70  2  0  0  0
 34 36  1  0  0  0
 34 59  1  0  0  0
 34104  1  0  0  0
 35 44  2  0  0  0
 35 45  1  0  0  0
 35 68  1  0  0  0
 36 56  1  0  0  0
 36105  1  0  0  0
 37 39  1  0  0  0
 37 47  1  0  0  0
 37 66  1  0  0  0
 37106  1  0  0  0
 38 43  2  0  0  0
 38 46  1  0  0  0
 38 47  1  0  0  0
 39 64  1  0  0  0
 39 67  2  0  0  0
 40 52  1  0  0  0
 40 53  2  0  0  0
 40 58  1  0  0  0
 41107  1  0  0  0
 41108  1  0  0  0
 41109  1  0  0  0
 41 48  1  0  0  0
 42 43  1  0  0  0
 42 66  1  0  0  0
 42110  1  0  0  0
 42111  1  0  0  0
 43 44  1  0  0  0
 44112  1  0  0  0
 45 46  2  0  0  0
 45113  1  0  0  0
 46114  1  0  0  0
 47115  1  0  0  0
 47116  1  0  0  0
 48 56  1  0  0  0
 48 65  1  0  0  0
 48117  1  0  0  0
 49 50  1  0  0  0
 49 53  1  0  0  0
 49 64  1  0  0  0
 49118  1  0  0  0
 50 51  1  0  0  0
 50119  1  0  0  0
 50120  1  0  0  0
 51 52  1  0  0  0
 51121  1  0  0  0
 51122  1  0  0  0
 52123  1  0  0  0
 52124  1  0  0  0
 53 54  1  0  0  0
 54 55  2  0  0  0
 54125  1  0  0  0
 55 57  1  0  0  0
 55126  1  0  0  0
 56 69  2  0  0  0
 57 58  2  0  0  0
 57127  1  0  0  0
 58128  1  0  0  0
 59 60  1  0  0  0
 59 61  1  0  0  0
 59 62  1  0  0  0
 60129  1  0  0  0
 60130  1  0  0  0
 60131  1  0  0  0
 61132  1  0  0  0
 61133  1  0  0  0
 61134  1  0  0  0
 62135  1  0  0  0
 62136  1  0  0  0
 62137  1  0  0  0
 63 65  1  0  0  0
 63138  1  0  0  0
 63139  1  0  0  0
 63140  1  0  0  0
 64141  1  0  0  0
 65142  1  0  0  0
 68 80  1  0  0  0
 71 72  2  0  0  0
 71 73  1  0  0  0
 71143  1  0  0  0
 72 77  1  0  0  0
 72 81  1  0  0  0
 73 82  2  0  0  0
 73 83  1  0  0  0
 74 78  1  0  0  0
 74 81  2  0  0  0
 74 82  1  0  0  0
 75 76  1  0  0  0
 75 77  1  0  0  0
 75144  1  0  0  0
 75145  1  0  0  0
 76 77  1  0  0  0
 76146  1  0  0  0
 76147  1  0  0  0
 77 79  1  0  0  0
 78148  1  0  0  0
 78149  1  0  0  0
 78150  1  0  0  0
 79 80  1  0  0  0
 79151  1  0  0  0
 79152  1  0  0  0
 80153  1  0  0  0
 80154  1  0  0  0
 83155  1  0  0  0
M  ISO  4   1 100  68 101  80 101  83 100
M  END
> <chiral flag>
0

> <version>
0

> <s_m_source_file>
/data/baiqing/PycharmProjects/Reinvent-master-3.2/result/LINK_invent/BTK/process_docking_weight1_custom_sum_contain_oxygen_bond_distance_aromatic_linkinvent_7_9_3/rearranged_h_0176.sdf

> <i_m_source_file_index>
3

> <r_mmod_Potential_Energy-OPLS-2005>
137.651031494141

> <r_mmod_Stretch_Energy-OPLS-2005>
294.656311035156

> <r_mmod_Bend_Energy-OPLS-2005>
267.545745849609

> <r_mmod_Torsional_Energy-OPLS-2005>
247.968231201172

> <r_mmod_Improper_Torsional_Energy-OPLS-2005>
6.34409427642822

> <r_mmod_Van_der_Waal_Energy-OPLS-2005>
135.770080566406

> <r_mmod_Electrostatic_Energy-OPLS-2005>
-787.050537109375

> <r_mmod_Solvation_Energy-OPLS-2005>
-250.587387084961

> <b_mmod_Minimization_Converged-OPLS-2005>
0

> <r_mmod_RMS_Derivative-OPLS-2005>
4.23596572875977

$$$$
3
                    3D
 Structure written by MMmdl.
160169  0  0  1  0            999 V2000
  -30.4620  -15.3138   20.2755 C   0  0  0  0  0  0
  -30.4411  -12.8314   19.5091 C   0  0  0  0  0  0
  -29.5413  -12.5749   18.2750 C   0  0  0  0  0  0
  -28.0901  -12.2833   18.7029 C   0  0  0  0  0  0
  -27.6086  -13.2758   19.7987 C   0  0  2  0  0  0
  -28.6512  -13.4952   20.9207 C   0  0  0  0  0  0
  -25.2375  -13.8141   20.5728 C   0  0  0  0  0  0
  -24.1769  -13.0362   20.9288 C   0  0  0  0  0  0
  -24.6420  -11.6850   20.8741 C   0  0  0  0  0  0
  -23.9088  -10.4283   21.0412 C   0  0  0  0  0  0
  -24.3652   -9.4189   21.9160 C   0  0  0  0  0  0
  -23.6300   -8.2242   22.0771 C   0  0  0  0  0  0
  -22.4288   -8.0265   21.3541 C   0  0  0  0  0  0
  -21.9918   -9.0251   20.4658 C   0  0  0  0  0  0
  -22.7280  -10.2118   20.3032 C   0  0  0  0  0  0
  -21.6856   -6.0732   22.5314 C   0  0  0  0  0  0
  -21.4004   -6.5647   23.8206 C   0  0  0  0  0  0
  -21.3651   -5.6812   24.9189 C   0  0  0  0  0  0
  -21.6058   -4.3057   24.7244 C   0  0  0  0  0  0
  -21.8813   -3.8150   23.4340 C   0  0  0  0  0  0
  -21.9186   -4.6992   22.3405 C   0  0  0  0  0  0
  -22.7785  -13.5140   21.1901 C   0  0  0  0  0  0
  -22.1666   -4.2155   21.0975 F   0  0  0  0  0  0
  -21.5634   -3.4537   25.7736 F   0  0  0  0  0  0
  -29.8794  -14.0082   20.2739 N   0  0  0  0  0  0
  -26.2824  -12.9457   20.3105 N   0  0  0  0  0  0
  -25.9356  -11.6586   20.5642 N   0  0  0  0  0  0
  -22.0406  -12.8153   22.0436 N   0  0  0  0  0  0
  -25.3857  -15.1872   20.4170 N   0  0  0  0  0  0
  -31.6890  -15.2724   20.0818 O   0  0  0  0  0  0
  -21.6639   -6.8888   21.4240 O   0  0  0  0  0  0
  -22.3446  -14.5440   20.6734 O   0  0  0  0  0  0
  -24.6674  -31.8221   23.1648 C   0  0  0  0  0  0
  -25.9374  -32.4532   23.8131 C   0  0  1  0  0  0
  -27.2538  -26.9299   20.1701 C   0  0  0  0  0  0
  -25.6031  -33.8362   24.2040 N   0  0  0  0  0  0
  -23.4880  -30.4271   21.5111 C   0  0  2  0  0  0
  -24.9462  -28.8120   20.1107 C   0  0  0  0  0  0
  -22.7691  -29.4376   22.4752 C   0  0  0  0  0  0
  -18.0396  -28.1419   22.8512 C   0  0  0  0  0  0
  -24.1494  -36.7193   23.2665 C   0  0  0  0  0  0
  -26.0568  -30.6204   21.3955 C   0  0  0  0  0  0
  -26.1283  -29.2100   20.7440 C   0  0  0  0  0  0
  -27.2785  -28.2974   20.7412 C   0  0  0  0  0  0
  -26.0304  -26.6716   19.5104 C   0  0  0  0  0  0
  -24.9242  -27.5627   19.4709 C   0  0  0  0  0  0
  -23.7316  -29.7382   20.1396 C   0  0  0  0  0  0
  -25.4138  -36.2919   24.0295 C   0  0  1  0  0  0
  -20.6022  -28.3652   23.1156 C   0  0  2  0  0  0
  -20.6782  -26.9318   22.5321 C   0  0  0  0  0  0
  -19.5684  -26.6367   21.5153 C   0  0  0  0  0  0
  -18.1908  -26.7939   22.1654 C   0  0  0  0  0  0
  -19.1706  -28.8851   23.2811 C   0  0  0  0  0  0
  -18.9737  -30.1454   23.8752 C   0  0  0  0  0  0
  -17.6764  -30.6631   24.0657 C   0  0  0  0  0  0
  -25.9098  -34.9316   23.4977 C   0  0  0  0  0  0
  -16.5582  -29.9167   23.6585 C   0  0  0  0  0  0
  -16.7431  -28.6558   23.0516 C   0  0  0  0  0  0
  -26.4615  -31.6478   25.0666 C   0  0  0  0  0  0
  -25.3754  -31.3765   26.1317 C   0  0  0  0  0  0
  -27.0528  -30.2853   24.6416 C   0  0  0  0  0  0
  -27.6032  -32.4313   25.7478 C   0  0  0  0  0  0
  -27.5551  -37.1750   24.8473 C   0  0  0  0  0  0
  -21.4378  -29.3023   22.3533 N   0  0  0  0  0  0
  -26.4251  -37.3676   23.9412 N   0  0  0  0  0  0
  -24.7598  -30.9843   22.0773 N   0  0  0  0  0  0
  -23.4212  -28.8000   23.3037 O   0  0  0  0  0  0
  -28.2975  -25.8624   20.1758 O   0  0  0  0  0  0
  -26.5699  -34.8877   22.4566 O   0  0  0  0  0  0
  -23.5694  -32.1238   23.6705 O   0  0  0  0  0  0
  -28.7719  -21.4097   21.9303 C   0  0  0  0  0  0
  -27.8331  -20.5784   22.5593 C   0  0  0  0  0  0
  -29.0887  -21.2012   20.5700 C   0  0  0  0  0  0
  -27.2075  -19.5380   21.8359 C   0  0  0  0  0  0
  -28.9746  -19.6787   20.1814 C   0  0  0  0  0  0
  -27.7094  -19.1930   20.5627 C   0  0  0  0  0  0
  -29.3558  -22.7224   18.3246 C   0  0  0  0  0  0
  -30.4564  -23.1643   19.2373 C   0  0  0  0  0  0
  -29.1032  -22.7850   19.8173 C   0  0  0  0  0  0
  -26.0749  -18.7603   22.4903 C   0  0  0  0  0  0
  -26.9918  -18.2214   19.6417 C   0  0  0  0  0  0
  -30.0431  -18.2800   20.1672 C   0  0  0  0  0  0
  -28.1058  -24.2175   20.2172 C   0  0  0  0  0  0
  -29.7389  -16.6218   20.2757 N   0  0  0  0  0  0
  -31.4683  -13.0078   19.1818 H   0  0  0  0  0  0
  -30.4789  -11.9477   20.1494 H   0  0  0  0  0  0
  -29.9421  -11.7513   17.6816 H   0  0  0  0  0  0
  -29.5513  -13.4567   17.6309 H   0  0  0  0  0  0
  -28.0643  -11.2631   19.0934 H   0  0  0  0  0  0
  -27.4209  -12.3063   17.8385 H   0  0  0  0  0  0
  -27.4958  -14.2277   19.2732 H   0  0  0  0  0  0
  -28.8426  -12.5698   21.4658 H   0  0  0  0  0  0
  -28.2824  -14.2145   21.6536 H   0  0  0  0  0  0
  -25.2792   -9.5681   22.4740 H   0  0  0  0  0  0
  -24.0027   -7.4628   22.7485 H   0  0  0  0  0  0
  -21.0849   -8.8773   19.8947 H   0  0  0  0  0  0
  -22.3726  -10.9663   19.6158 H   0  0  0  0  0  0
  -21.1986   -7.6139   23.9736 H   0  0  0  0  0  0
  -21.1490   -6.0508   25.9081 H   0  0  0  0  0  0
  -22.0594   -2.7604   23.2840 H   0  0  0  0  0  0
  -22.4018  -11.9837   22.4910 H   0  0  0  0  0  0
  -21.0997  -13.1163   22.2616 H   0  0  0  0  0  0
  -24.5926  -15.8067   20.5336 H   0  0  0  0  0  0
  -26.2044  -15.6472   20.0526 H   0  0  0  0  0  0
  -26.7479  -32.5073   23.0845 H   0  0  0  0  0  0
  -25.0035  -33.9368   25.0098 H   0  0  0  0  0  0
  -22.7963  -31.2543   21.3335 H   0  0  0  0  0  0
  -23.3740  -35.9531   23.3254 H   0  0  0  0  0  0
  -24.3574  -36.8914   22.2089 H   0  0  0  0  0  0
  -23.7253  -37.6365   23.6753 H   0  0  0  0  0  0
  -26.2415  -31.3584   20.6115 H   0  0  0  0  0  0
  -26.9090  -30.6840   22.0549 H   0  0  0  0  0  0
  -28.1804  -28.6091   21.2474 H   0  0  0  0  0  0
  -25.9091  -25.7209   19.0185 H   0  0  0  0  0  0
  -24.0312  -27.2520   18.9490 H   0  0  0  0  0  0
  -23.8843  -30.5062   19.3836 H   0  0  0  0  0  0
  -22.8464  -29.1875   19.8182 H   0  0  0  0  0  0
  -25.1339  -36.1668   25.0776 H   0  0  0  0  0  0
  -21.0124  -28.3178   24.1262 H   0  0  0  0  0  0
  -20.5775  -26.2198   23.3541 H   0  0  0  0  0  0
  -21.6653  -26.7412   22.1079 H   0  0  0  0  0  0
  -19.6900  -25.6275   21.1229 H   0  0  0  0  0  0
  -19.6666  -27.3138   20.6639 H   0  0  0  0  0  0
  -17.4058  -26.6586   21.4176 H   0  0  0  0  0  0
  -18.0497  -26.0173   22.9194 H   0  0  0  0  0  0
  -19.8304  -30.7167   24.2068 H   0  0  0  0  0  0
  -17.5491  -31.6257   24.5398 H   0  0  0  0  0  0
  -15.5612  -30.3102   23.8036 H   0  0  0  0  0  0
  -15.8768  -28.0949   22.7288 H   0  0  0  0  0  0
  -24.5940  -30.7104   25.7653 H   0  0  0  0  0  0
  -24.8988  -32.2988   26.4628 H   0  0  0  0  0  0
  -25.8038  -30.9029   27.0169 H   0  0  0  0  0  0
  -26.3229  -29.6523   24.1361 H   0  0  0  0  0  0
  -27.3986  -29.7212   25.5095 H   0  0  0  0  0  0
  -27.9189  -30.4027   23.9909 H   0  0  0  0  0  0
  -27.2532  -33.3638   26.1909 H   0  0  0  0  0  0
  -28.3905  -32.6842   25.0374 H   0  0  0  0  0  0
  -28.0590  -31.8555   26.5515 H   0  0  0  0  0  0
  -28.2536  -38.0076   24.7491 H   0  0  0  0  0  0
  -28.1064  -36.2593   24.6296 H   0  0  0  0  0  0
  -27.2258  -37.1384   25.8876 H   0  0  0  0  0  0
  -20.9718  -29.8516   21.6422 H   0  0  0  0  0  0
  -26.0075  -38.2715   24.1449 H   0  0  0  0  0  0
  -29.0398  -22.3427   22.4186 H   0  0  0  0  0  0
  -27.4914  -20.8473   23.5466 H   0  0  0  0  0  0
  -29.4292  -21.7347   17.8654 H   0  0  0  0  0  0
  -28.8622  -23.4823   17.7169 H   0  0  0  0  0  0
  -30.7217  -24.2210   19.2396 H   0  0  0  0  0  0
  -31.2933  -22.4791   19.3753 H   0  0  0  0  0  0
  -26.0510  -18.9675   23.5612 H   0  0  0  0  0  0
  -25.0897  -18.9938   22.0829 H   0  0  0  0  0  0
  -26.2393  -17.6835   22.3766 H   0  0  0  0  0  0
  -27.4854  -18.1886   18.6714 H   0  0  0  0  0  0
  -25.9592  -18.5601   19.4858 H   0  0  0  0  0  0
  -27.0017  -17.2202   20.0706 H   0  0  0  0  0  0
  -30.7390  -18.4725   20.9839 H   0  0  0  0  0  0
  -30.6503  -18.3830   19.2570 H   0  0  0  0  0  0
  -27.7134  -24.0238   21.2138 H   0  0  0  0  0  0
  -27.2486  -24.0661   19.5590 H   0  0  0  0  0  0
  -28.7494  -16.4762   20.2582 H   0  0  0  0  0  0
  1 25  1  0  0  0
  1 30  2  0  0  0
  1 84  1  0  0  0
  2  3  1  0  0  0
  2 25  1  0  0  0
  2 85  1  0  0  0
  2 86  1  0  0  0
  3  4  1  0  0  0
  3 87  1  0  0  0
  3 88  1  0  0  0
  4  5  1  0  0  0
  4 89  1  0  0  0
  4 90  1  0  0  0
  5  6  1  0  0  0
  5 26  1  0  0  0
  5 91  1  0  0  0
  6 25  1  0  0  0
  6 92  1  0  0  0
  6 93  1  0  0  0
  7  8  2  0  0  0
  7 26  1  0  0  0
  7 29  1  0  0  0
  8  9  1  0  0  0
  8 22  1  0  0  0
  9 10  1  0  0  0
  9 27  2  0  0  0
 10 11  2  0  0  0
 10 15  1  0  0  0
 11 12  1  0  0  0
 11 94  1  0  0  0
 12 13  2  0  0  0
 12 95  1  0  0  0
 13 14  1  0  0  0
 13 31  1  0  0  0
 14 15  2  0  0  0
 14 96  1  0  0  0
 15 97  1  0  0  0
 16 17  2  0  0  0
 16 21  1  0  0  0
 16 31  1  0  0  0
 17 18  1  0  0  0
 17 98  1  0  0  0
 18 19  2  0  0  0
 18 99  1  0  0  0
 19 20  1  0  0  0
 19 24  1  0  0  0
 20 21  2  0  0  0
 20100  1  0  0  0
 21 23  1  0  0  0
 22 28  1  0  0  0
 22 32  2  0  0  0
 26 27  1  0  0  0
 28101  1  0  0  0
 28102  1  0  0  0
 29103  1  0  0  0
 29104  1  0  0  0
 33 34  1  0  0  0
 33 66  1  0  0  0
 33 70  2  0  0  0
 34 36  1  0  0  0
 34 59  1  0  0  0
 34105  1  0  0  0
 35 44  2  0  0  0
 35 45  1  0  0  0
 35 68  1  0  0  0
 36 56  1  0  0  0
 36106  1  0  0  0
 37 39  1  0  0  0
 37 47  1  0  0  0
 37 66  1  0  0  0
 37107  1  0  0  0
 38 43  2  0  0  0
 38 46  1  0  0  0
 38 47  1  0  0  0
 39 64  1  0  0  0
 39 67  2  0  0  0
 40 52  1  0  0  0
 40 53  2  0  0  0
 40 58  1  0  0  0
 41108  1  0  0  0
 41109  1  0  0  0
 41110  1  0  0  0
 41 48  1  0  0  0
 42 43  1  0  0  0
 42 66  1  0  0  0
 42111  1  0  0  0
 42112  1  0  0  0
 43 44  1  0  0  0
 44113  1  0  0  0
 45 46  2  0  0  0
 45114  1  0  0  0
 46115  1  0  0  0
 47116  1  0  0  0
 47117  1  0  0  0
 48 56  1  0  0  0
 48 65  1  0  0  0
 48118  1  0  0  0
 49 50  1  0  0  0
 49 53  1  0  0  0
 49 64  1  0  0  0
 49119  1  0  0  0
 50 51  1  0  0  0
 50120  1  0  0  0
 50121  1  0  0  0
 51 52  1  0  0  0
 51122  1  0  0  0
 51123  1  0  0  0
 52124  1  0  0  0
 52125  1  0  0  0
 53 54  1  0  0  0
 54 55  2  0  0  0
 54126  1  0  0  0
 55 57  1  0  0  0
 55127  1  0  0  0
 56 69  2  0  0  0
 57 58  2  0  0  0
 57128  1  0  0  0
 58129  1  0  0  0
 59 60  1  0  0  0
 59 61  1  0  0  0
 59 62  1  0  0  0
 60130  1  0  0  0
 60131  1  0  0  0
 60132  1  0  0  0
 61133  1  0  0  0
 61134  1  0  0  0
 61135  1  0  0  0
 62136  1  0  0  0
 62137  1  0  0  0
 62138  1  0  0  0
 63 65  1  0  0  0
 63139  1  0  0  0
 63140  1  0  0  0
 63141  1  0  0  0
 64142  1  0  0  0
 65143  1  0  0  0
 68 83  1  0  0  0
 71 72  2  0  0  0
 71 73  1  0  0  0
 71144  1  0  0  0
 72 74  1  0  0  0
 72145  1  0  0  0
 73 75  2  0  0  0
 73 79  1  0  0  0
 74 76  2  0  0  0
 74 80  1  0  0  0
 75 76  1  0  0  0
 75 82  1  0  0  0
 76 81  1  0  0  0
 77 78  1  0  0  0
 77 79  1  0  0  0
 77146  1  0  0  0
 77147  1  0  0  0
 78 79  1  0  0  0
 78148  1  0  0  0
 78149  1  0  0  0
 79 83  1  0  0  0
 80150  1  0  0  0
 80151  1  0  0  0
 80152  1  0  0  0
 81153  1  0  0  0
 81154  1  0  0  0
 81155  1  0  0  0
 82 84  1  0  0  0
 82156  1  0  0  0
 82157  1  0  0  0
 83158  1  0  0  0
 83159  1  0  0  0
 84160  1  0  0  0
M  ISO  4   1 100  68 101  83 101  84 100
M  END
> <chiral flag>
0

> <version>
0

> <s_m_source_file>
/data/baiqing/PycharmProjects/Reinvent-master-3.2/result/LINK_invent/BTK/process_docking_weight1_custom_sum_contain_oxygen_bond_distance_aromatic_linkinvent_7_9_3/rearranged_h_0176.sdf

> <i_m_source_file_index>
4

> <r_mmod_Potential_Energy-OPLS-2005>
1596.53686523438

> <r_mmod_Stretch_Energy-OPLS-2005>
650.523193359375

> <r_mmod_Bend_Energy-OPLS-2005>
465.486907958984

> <r_mmod_Torsional_Energy-OPLS-2005>
474.717132568359

> <r_mmod_Improper_Torsional_Energy-OPLS-2005>
21.6405067443848

> <r_mmod_Van_der_Waal_Energy-OPLS-2005>
121.555374145508

> <r_mmod_Electrostatic_Energy-OPLS-2005>
-410.871337890625

> <r_mmod_Solvation_Energy-OPLS-2005>
-207.302612304688

> <b_mmod_Minimization_Converged-OPLS-2005>
0

> <r_mmod_RMS_Derivative-OPLS-2005>
12.7713766098022

$$$$
4
                    3D
 Structure written by MMmdl.
164173  0  0  1  0            999 V2000
  -30.6056  -14.8325   20.2631 C   0  0  0  0  0  0
  -30.4410  -12.4601   19.4815 C   0  0  0  0  0  0
  -29.5154  -12.3187   18.2503 C   0  0  0  0  0  0
  -28.0232  -12.2731   18.6531 C   0  0  0  0  0  0
  -27.6270  -13.2242   19.8178 C   0  0  2  0  0  0
  -28.6890  -13.2792   20.9329 C   0  0  0  0  0  0
  -25.2521  -13.8196   20.5765 C   0  0  0  0  0  0
  -24.1808  -13.0449   20.9205 C   0  0  0  0  0  0
  -24.6375  -11.6913   20.8752 C   0  0  0  0  0  0
  -23.9051  -10.4307   21.0424 C   0  0  0  0  0  0
  -24.3610   -9.4222   21.9187 C   0  0  0  0  0  0
  -23.6267   -8.2271   22.0769 C   0  0  0  0  0  0
  -22.4246   -8.0309   21.3570 C   0  0  0  0  0  0
  -21.9878   -9.0284   20.4670 C   0  0  0  0  0  0
  -22.7233  -10.2140   20.3060 C   0  0  0  0  0  0
  -21.6869   -6.0728   22.5273 C   0  0  0  0  0  0
  -21.4040   -6.5639   23.8197 C   0  0  0  0  0  0
  -21.3652   -5.6802   24.9156 C   0  0  0  0  0  0
  -21.6026   -4.3058   24.7212 C   0  0  0  0  0  0
  -21.8835   -3.8138   23.4342 C   0  0  0  0  0  0
  -21.9216   -4.6951   22.3393 C   0  0  0  0  0  0
  -22.7829  -13.5223   21.1882 C   0  0  0  0  0  0
  -22.1671   -4.2125   21.0969 F   0  0  0  0  0  0
  -21.5581   -3.4566   25.7734 F   0  0  0  0  0  0
  -29.9657  -13.6063   20.2874 N   0  0  0  0  0  0
  -26.2909  -12.9364   20.3262 N   0  0  0  0  0  0
  -25.9309  -11.6531   20.5801 N   0  0  0  0  0  0
  -22.0489  -12.8229   22.0445 N   0  0  0  0  0  0
  -25.4300  -15.1932   20.4287 N   0  0  0  0  0  0
  -31.8387  -14.8585   20.2522 O   0  0  0  0  0  0
  -21.6625   -6.8895   21.4250 O   0  0  0  0  0  0
  -22.3527  -14.5556   20.6738 O   0  0  0  0  0  0
  -24.6323  -31.8503   23.1935 C   0  0  0  0  0  0
  -25.9140  -32.4725   23.8277 C   0  0  1  0  0  0
  -27.2208  -27.2647   20.1056 C   0  0  0  0  0  0
  -25.5924  -33.8528   24.2212 N   0  0  0  0  0  0
  -23.4305  -30.4741   21.5349 C   0  0  2  0  0  0
  -24.8741  -28.9174   20.1041 C   0  0  0  0  0  0
  -22.7518  -29.4582   22.4855 C   0  0  0  0  0  0
  -18.0294  -28.1433   22.8484 C   0  0  0  0  0  0
  -24.1490  -36.7274   23.2638 C   0  0  0  0  0  0
  -25.9753  -30.7629   21.3692 C   0  0  0  0  0  0
  -26.0436  -29.3854   20.7134 C   0  0  0  0  0  0
  -27.2169  -28.5668   20.7070 C   0  0  0  0  0  0
  -26.0207  -26.8514   19.4848 C   0  0  0  0  0  0
  -24.8646  -27.6577   19.4850 C   0  0  0  0  0  0
  -23.6466  -29.8049   20.1515 C   0  0  0  0  0  0
  -25.4110  -36.3048   24.0327 C   0  0  1  0  0  0
  -20.5903  -28.3716   23.1280 C   0  0  2  0  0  0
  -20.6778  -26.9425   22.5414 C   0  0  0  0  0  0
  -19.5737  -26.6418   21.5225 C   0  0  0  0  0  0
  -18.1928  -26.7974   22.1637 C   0  0  0  0  0  0
  -19.1557  -28.8892   23.2881 C   0  0  0  0  0  0
  -18.9477  -30.1505   23.8884 C   0  0  0  0  0  0
  -17.6474  -30.6608   24.0592 C   0  0  0  0  0  0
  -25.9059  -34.9428   23.5074 C   0  0  0  0  0  0
  -16.5361  -29.9115   23.6352 C   0  0  0  0  0  0
  -16.7286  -28.6556   23.0326 C   0  0  0  0  0  0
  -26.4498  -31.6570   25.0691 C   0  0  0  0  0  0
  -25.3750  -31.3764   26.1451 C   0  0  0  0  0  0
  -27.0289  -30.2962   24.6180 C   0  0  0  0  0  0
  -27.6046  -32.4316   25.7469 C   0  0  0  0  0  0
  -27.5567  -37.1783   24.8468 C   0  0  0  0  0  0
  -21.4216  -29.3065   22.3659 N   0  0  0  0  0  0
  -26.4271  -37.3757   23.9424 N   0  0  0  0  0  0
  -24.6994  -31.0498   22.0881 N   0  0  0  0  0  0
  -23.4241  -28.8115   23.2928 O   0  0  0  0  0  0
  -28.3197  -26.3840   20.2024 O   0  0  0  0  0  0
  -26.5632  -34.8910   22.4645 O   0  0  0  0  0  0
  -23.5468  -32.1300   23.7232 O   0  0  0  0  0  0
  -28.4773  -25.0925   18.1333 C   0  0  0  0  0  0
  -28.9149  -22.8028   18.1411 C   0  0  0  0  0  0
  -28.8221  -22.7350   19.5636 C   0  0  0  0  0  0
  -28.4151  -25.1268   19.5424 C   0  0  0  0  0  0
  -30.0289  -17.0937   17.6630 C   0  0  0  0  0  0
  -30.9761  -17.7596   18.6334 C   0  0  0  0  0  0
  -29.4096  -15.9443   18.4709 C   0  0  0  0  0  0
  -30.3366  -17.4709   19.9961 C   0  0  1  0  0  0
  -29.2376  -21.5968   17.2744 C   0  0  0  0  0  0
  -27.8266  -18.3611   19.9278 C   0  0  0  0  0  0
  -28.7240  -21.3216   20.3217 C   0  0  0  0  0  0
  -29.2703  -18.6659   20.3820 C   0  0  2  0  0  0
  -28.7370  -23.9563   17.4458 N   0  0  0  0  0  0
  -28.5933  -23.9347   20.2517 N   0  0  0  0  0  0
  -29.8836  -15.9901   19.8830 N   0  0  0  0  0  0
  -29.6811  -20.1344   20.0664 N   0  3  0  0  0  0
  -31.4757  -12.5850   19.1534 H   0  0  0  0  0  0
  -30.4233  -11.5507   20.0859 H   0  0  0  0  0  0
  -29.7599  -11.3856   17.7412 H   0  0  0  0  0  0
  -29.7108  -13.0739   17.4986 H   0  0  0  0  0  0
  -27.8218  -11.2431   18.9513 H   0  0  0  0  0  0
  -27.3880  -12.4585   17.7859 H   0  0  0  0  0  0
  -27.5714  -14.2141   19.3782 H   0  0  0  0  0  0
  -28.7526  -12.3356   21.4780 H   0  0  0  0  0  0
  -28.4298  -14.0551   21.6558 H   0  0  0  0  0  0
  -25.2778   -9.5683   22.4725 H   0  0  0  0  0  0
  -23.9993   -7.4657   22.7477 H   0  0  0  0  0  0
  -21.0819   -8.8826   19.8957 H   0  0  0  0  0  0
  -22.3753  -10.9665   19.6136 H   0  0  0  0  0  0
  -21.2062   -7.6147   23.9687 H   0  0  0  0  0  0
  -21.1442   -6.0527   25.9051 H   0  0  0  0  0  0
  -22.0618   -2.7599   23.2850 H   0  0  0  0  0  0
  -22.4101  -11.9865   22.4789 H   0  0  0  0  0  0
  -21.1134  -13.1269   22.2724 H   0  0  0  0  0  0
  -24.6910  -15.8664   20.6010 H   0  0  0  0  0  0
  -26.3016  -15.6267   20.1544 H   0  0  0  0  0  0
  -26.7197  -32.5374   23.0993 H   0  0  0  0  0  0
  -25.0067  -33.9643   25.0360 H   0  0  0  0  0  0
  -22.7272  -31.2964   21.3848 H   0  0  0  0  0  0
  -23.3748  -35.9612   23.3273 H   0  0  0  0  0  0
  -24.3573  -36.8909   22.2058 H   0  0  0  0  0  0
  -23.7249  -37.6467   23.6677 H   0  0  0  0  0  0
  -26.1116  -31.5147   20.5927 H   0  0  0  0  0  0
  -26.8548  -30.8140   21.9999 H   0  0  0  0  0  0
  -28.1133  -28.9078   21.2039 H   0  0  0  0  0  0
  -25.9395  -25.8755   19.0257 H   0  0  0  0  0  0
  -23.9608  -27.2936   19.0156 H   0  0  0  0  0  0
  -23.7752  -30.5766   19.3903 H   0  0  0  0  0  0
  -22.7640  -29.2381   19.8474 H   0  0  0  0  0  0
  -25.1289  -36.1851   25.0817 H   0  0  0  0  0  0
  -21.0022  -28.3289   24.1390 H   0  0  0  0  0  0
  -20.5710  -26.2307   23.3609 H   0  0  0  0  0  0
  -21.6641  -26.7453   22.1185 H   0  0  0  0  0  0
  -19.6894  -25.6345   21.1223 H   0  0  0  0  0  0
  -19.6693  -27.3264   20.6795 H   0  0  0  0  0  0
  -17.4204  -26.6740   21.4044 H   0  0  0  0  0  0
  -18.0313  -26.0132   22.9052 H   0  0  0  0  0  0
  -19.7953  -30.7356   24.2209 H   0  0  0  0  0  0
  -17.5021  -31.6272   24.5222 H   0  0  0  0  0  0
  -15.5365  -30.3009   23.7715 H   0  0  0  0  0  0
  -15.8685  -28.0918   22.6975 H   0  0  0  0  0  0
  -24.5931  -30.7065   25.7845 H   0  0  0  0  0  0
  -24.8956  -32.2957   26.4833 H   0  0  0  0  0  0
  -25.8129  -30.9012   27.0243 H   0  0  0  0  0  0
  -26.2827  -29.6741   24.1228 H   0  0  0  0  0  0
  -27.3947  -29.7204   25.4691 H   0  0  0  0  0  0
  -27.8732  -30.4172   23.9391 H   0  0  0  0  0  0
  -27.2656  -33.3691   26.1884 H   0  0  0  0  0  0
  -28.3952  -32.6731   25.0358 H   0  0  0  0  0  0
  -28.0576  -31.8525   26.5518 H   0  0  0  0  0  0
  -28.2577  -38.0089   24.7500 H   0  0  0  0  0  0
  -28.1059  -36.2612   24.6291 H   0  0  0  0  0  0
  -27.2282  -37.1424   25.8870 H   0  0  0  0  0  0
  -20.9387  -29.8784   21.6861 H   0  0  0  0  0  0
  -26.0127  -38.2811   24.1464 H   0  0  0  0  0  0
  -28.3495  -25.9979   17.5582 H   0  0  0  0  0  0
  -30.5471  -16.7423   16.7671 H   0  0  0  0  0  0
  -29.2628  -17.7946   17.3314 H   0  0  0  0  0  0
  -31.1456  -18.8099   18.4001 H   0  0  0  0  0  0
  -31.9499  -17.2702   18.5865 H   0  0  0  0  0  0
  -29.6930  -15.0379   17.9562 H   0  0  0  0  0  0
  -28.3246  -15.9953   18.4093 H   0  0  0  0  0  0
  -31.1337  -17.5169   20.7408 H   0  0  0  0  0  0
  -28.6415  -20.7228   17.5295 H   0  0  0  0  0  0
  -30.2949  -21.3472   17.3773 H   0  0  0  0  0  0
  -29.0579  -21.8035   16.2174 H   0  0  0  0  0  0
  -27.6687  -18.5629   18.8673 H   0  0  0  0  0  0
  -27.1027  -18.9457   20.4977 H   0  0  0  0  0  0
  -27.5640  -17.3234   20.1247 H   0  0  0  0  0  0
  -27.7181  -20.9881   20.0719 H   0  0  0  0  0  0
  -28.7026  -21.5097   21.3925 H   0  0  0  0  0  0
  -29.2052  -18.6270   21.4688 H   0  0  0  0  0  0
  -30.5139  -20.3367   20.5993 H   0  0  0  0  0  0
  -29.9582  -20.1664   19.0998 H   0  0  0  0  0  0
  1 25  1  0  0  0
  1 30  2  0  0  0
  1 85  1  0  0  0
  2  3  1  0  0  0
  2 25  1  0  0  0
  2 87  1  0  0  0
  2 88  1  0  0  0
  3  4  1  0  0  0
  3 89  1  0  0  0
  3 90  1  0  0  0
  4  5  1  0  0  0
  4 91  1  0  0  0
  4 92  1  0  0  0
  5  6  1  0  0  0
  5 26  1  0  0  0
  5 93  1  0  0  0
  6 25  1  0  0  0
  6 94  1  0  0  0
  6 95  1  0  0  0
  7  8  2  0  0  0
  7 26  1  0  0  0
  7 29  1  0  0  0
  8  9  1  0  0  0
  8 22  1  0  0  0
  9 10  1  0  0  0
  9 27  2  0  0  0
 10 11  2  0  0  0
 10 15  1  0  0  0
 11 12  1  0  0  0
 11 96  1  0  0  0
 12 13  2  0  0  0
 12 97  1  0  0  0
 13 14  1  0  0  0
 13 31  1  0  0  0
 14 15  2  0  0  0
 14 98  1  0  0  0
 15 99  1  0  0  0
 16 17  2  0  0  0
 16 21  1  0  0  0
 16 31  1  0  0  0
 17 18  1  0  0  0
 17100  1  0  0  0
 18 19  2  0  0  0
 18101  1  0  0  0
 19 20  1  0  0  0
 19 24  1  0  0  0
 20 21  2  0  0  0
 20102  1  0  0  0
 21 23  1  0  0  0
 22 28  1  0  0  0
 22 32  2  0  0  0
 26 27  1  0  0  0
 28103  1  0  0  0
 28104  1  0  0  0
 29105  1  0  0  0
 29106  1  0  0  0
 33 34  1  0  0  0
 33 66  1  0  0  0
 33 70  2  0  0  0
 34 36  1  0  0  0
 34 59  1  0  0  0
 34107  1  0  0  0
 35 44  2  0  0  0
 35 45  1  0  0  0
 35 68  1  0  0  0
 36 56  1  0  0  0
 36108  1  0  0  0
 37 39  1  0  0  0
 37 47  1  0  0  0
 37 66  1  0  0  0
 37109  1  0  0  0
 38 43  2  0  0  0
 38 46  1  0  0  0
 38 47  1  0  0  0
 39 64  1  0  0  0
 39 67  2  0  0  0
 40 52  1  0  0  0
 40 53  2  0  0  0
 40 58  1  0  0  0
 41110  1  0  0  0
 41111  1  0  0  0
 41112  1  0  0  0
 41 48  1  0  0  0
 42 43  1  0  0  0
 42 66  1  0  0  0
 42113  1  0  0  0
 42114  1  0  0  0
 43 44  1  0  0  0
 44115  1  0  0  0
 45 46  2  0  0  0
 45116  1  0  0  0
 46117  1  0  0  0
 47118  1  0  0  0
 47119  1  0  0  0
 48 56  1  0  0  0
 48 65  1  0  0  0
 48120  1  0  0  0
 49 50  1  0  0  0
 49 53  1  0  0  0
 49 64  1  0  0  0
 49121  1  0  0  0
 50 51  1  0  0  0
 50122  1  0  0  0
 50123  1  0  0  0
 51 52  1  0  0  0
 51124  1  0  0  0
 51125  1  0  0  0
 52126  1  0  0  0
 52127  1  0  0  0
 53 54  1  0  0  0
 54 55  2  0  0  0
 54128  1  0  0  0
 55 57  1  0  0  0
 55129  1  0  0  0
 56 69  2  0  0  0
 57 58  2  0  0  0
 57130  1  0  0  0
 58131  1  0  0  0
 59 60  1  0  0  0
 59 61  1  0  0  0
 59 62  1  0  0  0
 60132  1  0  0  0
 60133  1  0  0  0
 60134  1  0  0  0
 61135  1  0  0  0
 61136  1  0  0  0
 61137  1  0  0  0
 62138  1  0  0  0
 62139  1  0  0  0
 62140  1  0  0  0
 63 65  1  0  0  0
 63141  1  0  0  0
 63142  1  0  0  0
 63143  1  0  0  0
 64144  1  0  0  0
 65145  1  0  0  0
 68 74  1  0  0  0
 71 74  2  0  0  0
 71 83  1  0  0  0
 71146  1  0  0  0
 72 73  1  0  0  0
 72 79  1  0  0  0
 72 83  2  0  0  0
 73 81  1  0  0  0
 73 84  2  0  0  0
 74 84  1  0  0  0
 75 76  1  0  0  0
 75 77  1  0  0  0
 75147  1  0  0  0
 75148  1  0  0  0
 76149  1  0  0  0
 76150  1  0  0  0
 76 78  1  0  0  0
 77 85  1  0  0  0
 77151  1  0  0  0
 77152  1  0  0  0
 78 82  1  0  0  0
 78 85  1  0  0  0
 78153  1  0  0  0
 79154  1  0  0  0
 79155  1  0  0  0
 79156  1  0  0  0
 80157  1  0  0  0
 80158  1  0  0  0
 80159  1  0  0  0
 80 82  1  0  0  0
 81 86  1  0  0  0
 81160  1  0  0  0
 81161  1  0  0  0
 82 86  1  0  0  0
 82162  1  0  0  0
 86163  1  0  0  0
 86164  1  0  0  0
M  CHG  1  86   1
M  ISO  4   1 100  68 101  74 101  85 100
M  END
> <chiral flag>
0

> <version>
0

> <s_m_source_file>
/data/baiqing/PycharmProjects/Reinvent-master-3.2/result/LINK_invent/BTK/process_docking_weight1_custom_sum_contain_oxygen_bond_distance_aromatic_linkinvent_7_9_3/rearranged_h_0176.sdf

> <i_m_source_file_index>
5

> <r_mmod_Potential_Energy-OPLS-2005>
409.662475585938

> <r_mmod_Stretch_Energy-OPLS-2005>
148.093627929688

> <r_mmod_Bend_Energy-OPLS-2005>
218.589096069336

> <r_mmod_Torsional_Energy-OPLS-2005>
397.239990234375

> <r_mmod_Improper_Torsional_Energy-OPLS-2005>
16.5225791931152

> <r_mmod_Van_der_Waal_Energy-OPLS-2005>
141.189102172852

> <r_mmod_Electrostatic_Energy-OPLS-2005>
-162.772018432617

> <r_mmod_Solvation_Energy-OPLS-2005>
-481.295806884766

> <b_mmod_Minimization_Converged-OPLS-2005>
0

> <r_mmod_RMS_Derivative-OPLS-2005>
4.49985933303833

$$$$
5
                    3D
 Structure written by MMmdl.
166175  0  0  1  0            999 V2000
  -30.7205  -14.4979   20.5354 C   0  0  0  0  0  0
  -30.4193  -12.3116   19.4424 C   0  0  0  0  0  0
  -29.5005  -12.4891   18.2177 C   0  0  0  0  0  0
  -28.0237  -12.3457   18.6325 C   0  0  0  0  0  0
  -27.6607  -13.2109   19.8712 C   0  0  2  0  0  0
  -28.7032  -13.0549   20.9999 C   0  0  0  0  0  0
  -25.2616  -13.8181   20.5692 C   0  0  0  0  0  0
  -24.1858  -13.0459   20.9162 C   0  0  0  0  0  0
  -24.6413  -11.6918   20.8725 C   0  0  0  0  0  0
  -23.9058  -10.4305   21.0409 C   0  0  0  0  0  0
  -24.3613   -9.4218   21.9197 C   0  0  0  0  0  0
  -23.6290   -8.2250   22.0771 C   0  0  0  0  0  0
  -22.4277   -8.0287   21.3537 C   0  0  0  0  0  0
  -21.9901   -9.0266   20.4645 C   0  0  0  0  0  0
  -22.7223  -10.2156   20.3061 C   0  0  0  0  0  0
  -21.6865   -6.0731   22.5277 C   0  0  0  0  0  0
  -21.4013   -6.5630   23.8208 C   0  0  0  0  0  0
  -21.3660   -5.6782   24.9171 C   0  0  0  0  0  0
  -21.6050   -4.3047   24.7229 C   0  0  0  0  0  0
  -21.8816   -3.8138   23.4352 C   0  0  0  0  0  0
  -21.9201   -4.6955   22.3406 C   0  0  0  0  0  0
  -22.7881  -13.5280   21.1796 C   0  0  0  0  0  0
  -22.1655   -4.2129   21.0989 F   0  0  0  0  0  0
  -21.5635   -3.4534   25.7746 F   0  0  0  0  0  0
  -30.0269  -13.3312   20.4275 N   0  0  0  0  0  0
  -26.3041  -12.9355   20.3388 N   0  0  0  0  0  0
  -25.9351  -11.6508   20.5800 N   0  0  0  0  0  0
  -22.0483  -12.8315   22.0365 N   0  0  0  0  0  0
  -25.4390  -15.1906   20.4090 N   0  0  0  0  0  0
  -31.8908  -14.5997   20.1515 O   0  0  0  0  0  0
  -21.6647   -6.8881   21.4240 O   0  0  0  0  0  0
  -22.3576  -14.5569   20.6618 O   0  0  0  0  0  0
  -24.6151  -31.8682   23.2128 C   0  0  0  0  0  0
  -25.9032  -32.4834   23.8432 C   0  0  1  0  0  0
  -27.2325  -27.4171   20.0803 C   0  0  0  0  0  0
  -25.5876  -33.8633   24.2339 N   0  0  0  0  0  0
  -23.4041  -30.4945   21.5544 C   0  0  2  0  0  0
  -24.8486  -28.9653   20.1093 C   0  0  0  0  0  0
  -22.7411  -29.4661   22.5002 C   0  0  0  0  0  0
  -18.0265  -28.1376   22.8519 C   0  0  0  0  0  0
  -24.1462  -36.7325   23.2648 C   0  0  0  0  0  0
  -25.9384  -30.8212   21.3779 C   0  0  0  0  0  0
  -26.0110  -29.4582   20.7147 C   0  0  0  0  0  0
  -27.1989  -28.6885   20.7058 C   0  0  0  0  0  0
  -26.0399  -26.9384   19.4843 C   0  0  0  0  0  0
  -24.8597  -27.7043   19.4932 C   0  0  0  0  0  0
  -23.6123  -29.8360   20.1655 C   0  0  0  0  0  0
  -25.4098  -36.3133   24.0342 C   0  0  1  0  0  0
  -20.5856  -28.3654   23.1332 C   0  0  2  0  0  0
  -20.6746  -26.9389   22.5426 C   0  0  0  0  0  0
  -19.5718  -26.6379   21.5229 C   0  0  0  0  0  0
  -18.1900  -26.7926   22.1641 C   0  0  0  0  0  0
  -19.1513  -28.8830   23.2924 C   0  0  0  0  0  0
  -18.9446  -30.1445   23.8923 C   0  0  0  0  0  0
  -17.6446  -30.6593   24.0559 C   0  0  0  0  0  0
  -25.9029  -34.9487   23.5147 C   0  0  0  0  0  0
  -16.5339  -29.9091   23.6332 C   0  0  0  0  0  0
  -16.7254  -28.6501   23.0371 C   0  0  0  0  0  0
  -26.4441  -31.6626   25.0774 C   0  0  0  0  0  0
  -25.3707  -31.3751   26.1527 C   0  0  0  0  0  0
  -27.0268  -30.3057   24.6195 C   0  0  0  0  0  0
  -27.6014  -32.4356   25.7532 C   0  0  0  0  0  0
  -27.5575  -37.1822   24.8453 C   0  0  0  0  0  0
  -21.4123  -29.3025   22.3731 N   0  0  0  0  0  0
  -26.4295  -37.3805   23.9399 N   0  0  0  0  0  0
  -24.6706  -31.0756   22.1049 N   0  0  0  0  0  0
  -23.4186  -28.8206   23.3047 O   0  0  0  0  0  0
  -28.3972  -26.6656   20.1149 O   0  0  0  0  0  0
  -26.5615  -34.8920   22.4724 O   0  0  0  0  0  0
  -23.5334  -32.1458   23.7496 O   0  0  0  0  0  0
  -27.8465  -21.6665   20.0018 C   0  0  0  0  0  0
  -30.2346  -22.6661   20.7687 C   0  0  0  0  0  0
  -29.3586  -23.4264   19.9364 C   0  0  0  0  0  0
  -28.7117  -20.9139   20.8366 C   0  0  0  0  0  0
  -29.1001  -17.8232   19.7984 C   0  0  0  0  0  0
  -29.0626  -17.4341   22.2391 C   0  0  0  0  0  0
  -30.0747  -16.6330   19.6489 C   0  0  0  0  0  0
  -30.0569  -16.2594   22.0631 C   0  0  0  0  0  0
  -29.2649  -18.5164   21.1593 C   0  0  0  0  0  0
  -31.6244  -23.1473   21.1537 C   0  0  0  0  0  0
  -30.4916  -24.3721   17.9125 C   0  0  0  0  0  0
  -28.6988  -25.8098   18.9972 C   0  0  0  0  0  0
  -29.8017  -24.7321   19.2414 C   0  0  1  0  0  0
  -28.1734  -22.8976   19.5357 N   0  0  0  0  0  0
  -29.9085  -21.4222   21.2187 N   0  0  0  0  0  0
  -29.9839  -15.6264   20.7327 N   0  0  0  0  0  0
  -28.3350  -19.6419   21.3097 N   0  0  0  0  0  0
  -31.4664  -12.3846   19.1442 H   0  0  0  0  0  0
  -30.3046  -11.3146   19.8706 H   0  0  0  0  0  0
  -29.7483  -11.7535   17.4514 H   0  0  0  0  0  0
  -29.6683  -13.4690   17.7687 H   0  0  0  0  0  0
  -27.8512  -11.2935   18.8595 H   0  0  0  0  0  0
  -27.3680  -12.5855   17.7945 H   0  0  0  0  0  0
  -27.6851  -14.2495   19.5425 H   0  0  0  0  0  0
  -28.6836  -12.0483   21.4202 H   0  0  0  0  0  0
  -28.4793  -13.7329   21.8256 H   0  0  0  0  0  0
  -25.2763   -9.5690   22.4759 H   0  0  0  0  0  0
  -23.9983   -7.4663   22.7512 H   0  0  0  0  0  0
  -21.0824   -8.8800   19.8959 H   0  0  0  0  0  0
  -22.3698  -10.9698   19.6160 H   0  0  0  0  0  0
  -21.1990   -7.6131   23.9716 H   0  0  0  0  0  0
  -21.1482   -6.0504   25.9075 H   0  0  0  0  0  0
  -22.0600   -2.7595   23.2874 H   0  0  0  0  0  0
  -22.4034  -11.9977   22.4781 H   0  0  0  0  0  0
  -21.1099  -13.1387   22.2499 H   0  0  0  0  0  0
  -24.6884  -15.8602   20.5311 H   0  0  0  0  0  0
  -26.3152  -15.6186   20.1393 H   0  0  0  0  0  0
  -26.7103  -32.5514   23.1194 H   0  0  0  0  0  0
  -24.9913  -33.9809   25.0408 H   0  0  0  0  0  0
  -22.6946  -31.3135   21.4208 H   0  0  0  0  0  0
  -23.3719  -35.9658   23.3324 H   0  0  0  0  0  0
  -24.3550  -36.8941   22.2058 H   0  0  0  0  0  0
  -23.7200  -37.6526   23.6663 H   0  0  0  0  0  0
  -26.0685  -31.5940   20.6202 H   0  0  0  0  0  0
  -26.8190  -30.8614   22.0078 H   0  0  0  0  0  0
  -28.0937  -29.0658   21.1814 H   0  0  0  0  0  0
  -25.9750  -25.9617   19.0327 H   0  0  0  0  0  0
  -23.9645  -27.3150   19.0285 H   0  0  0  0  0  0
  -23.7216  -30.6189   19.4132 H   0  0  0  0  0  0
  -22.7326  -29.2635   19.8654 H   0  0  0  0  0  0
  -25.1274  -36.2021   25.0839 H   0  0  0  0  0  0
  -20.9963  -28.3203   24.1450 H   0  0  0  0  0  0
  -20.5638  -26.2261   23.3612 H   0  0  0  0  0  0
  -21.6612  -26.7429   22.1208 H   0  0  0  0  0  0
  -19.6857  -25.6293   21.1236 H   0  0  0  0  0  0
  -19.6663  -27.3206   20.6775 H   0  0  0  0  0  0
  -17.4175  -26.6724   21.4029 H   0  0  0  0  0  0
  -18.0276  -26.0056   22.9017 H   0  0  0  0  0  0
  -19.7922  -30.7258   24.2303 H   0  0  0  0  0  0
  -17.4998  -31.6284   24.5134 H   0  0  0  0  0  0
  -15.5336  -30.3003   23.7624 H   0  0  0  0  0  0
  -15.8652  -28.0808   22.7105 H   0  0  0  0  0  0
  -24.5823  -30.7175   25.7848 H   0  0  0  0  0  0
  -24.8973  -32.2922   26.5044 H   0  0  0  0  0  0
  -25.8048  -30.8837   27.0246 H   0  0  0  0  0  0
  -26.2845  -29.6865   24.1140 H   0  0  0  0  0  0
  -27.3879  -29.7261   25.4701 H   0  0  0  0  0  0
  -27.8750  -30.4350   23.9471 H   0  0  0  0  0  0
  -27.2607  -33.3606   26.2198 H   0  0  0  0  0  0
  -28.3771  -32.7017   25.0340 H   0  0  0  0  0  0
  -28.0738  -31.8439   26.5384 H   0  0  0  0  0  0
  -28.2599  -38.0111   24.7499 H   0  0  0  0  0  0
  -28.1073  -36.2652   24.6285 H   0  0  0  0  0  0
  -27.2305  -37.1467   25.8859 H   0  0  0  0  0  0
  -20.9265  -29.8797   21.7003 H   0  0  0  0  0  0
  -26.0189  -38.2888   24.1405 H   0  0  0  0  0  0
  -26.8937  -21.2717   19.6827 H   0  0  0  0  0  0
  -28.0745  -17.4743   19.6705 H   0  0  0  0  0  0
  -29.2823  -18.5337   18.9906 H   0  0  0  0  0  0
  -29.1908  -17.8725   23.2303 H   0  0  0  0  0  0
  -28.0418  -17.0487   22.2085 H   0  0  0  0  0  0
  -31.0949  -17.0229   19.6020 H   0  0  0  0  0  0
  -29.8914  -16.1467   18.6876 H   0  0  0  0  0  0
  -29.8772  -15.5130   22.8381 H   0  0  0  0  0  0
  -31.0731  -16.6266   22.2185 H   0  0  0  0  0  0
  -30.2883  -18.8891   21.2425 H   0  0  0  0  0  0
  -32.1404  -23.5960   20.3061 H   0  0  0  0  0  0
  -32.2540  -22.3269   21.4998 H   0  0  0  0  0  0
  -31.5680  -23.8915   21.9475 H   0  0  0  0  0  0
  -31.3698  -23.7474   18.0757 H   0  0  0  0  0  0
  -30.8288  -25.2576   17.3781 H   0  0  0  0  0  0
  -29.8136  -23.8221   17.2569 H   0  0  0  0  0  0
  -27.8409  -25.3211   18.5461 H   0  0  0  0  0  0
  -29.0611  -26.4961   18.2312 H   0  0  0  0  0  0
  -30.5452  -25.2129   19.8761 H   0  0  0  0  0  0
  -27.3714  -19.4108   21.0887 H   0  0  0  0  0  0
  1 25  1  0  0  0
  1 30  2  0  0  0
  1 86  1  0  0  0
  2  3  1  0  0  0
  2 25  1  0  0  0
  2 88  1  0  0  0
  2 89  1  0  0  0
  3  4  1  0  0  0
  3 90  1  0  0  0
  3 91  1  0  0  0
  4  5  1  0  0  0
  4 92  1  0  0  0
  4 93  1  0  0  0
  5  6  1  0  0  0
  5 26  1  0  0  0
  5 94  1  0  0  0
  6 25  1  0  0  0
  6 95  1  0  0  0
  6 96  1  0  0  0
  7  8  2  0  0  0
  7 26  1  0  0  0
  7 29  1  0  0  0
  8  9  1  0  0  0
  8 22  1  0  0  0
  9 10  1  0  0  0
  9 27  2  0  0  0
 10 11  2  0  0  0
 10 15  1  0  0  0
 11 12  1  0  0  0
 11 97  1  0  0  0
 12 13  2  0  0  0
 12 98  1  0  0  0
 13 14  1  0  0  0
 13 31  1  0  0  0
 14 15  2  0  0  0
 14 99  1  0  0  0
 15100  1  0  0  0
 16 17  2  0  0  0
 16 21  1  0  0  0
 16 31  1  0  0  0
 17 18  1  0  0  0
 17101  1  0  0  0
 18 19  2  0  0  0
 18102  1  0  0  0
 19 20  1  0  0  0
 19 24  1  0  0  0
 20 21  2  0  0  0
 20103  1  0  0  0
 21 23  1  0  0  0
 22 28  1  0  0  0
 22 32  2  0  0  0
 26 27  1  0  0  0
 28104  1  0  0  0
 28105  1  0  0  0
 29106  1  0  0  0
 29107  1  0  0  0
 33 34  1  0  0  0
 33 66  1  0  0  0
 33 70  2  0  0  0
 34 36  1  0  0  0
 34 59  1  0  0  0
 34108  1  0  0  0
 35 44  2  0  0  0
 35 45  1  0  0  0
 35 68  1  0  0  0
 36 56  1  0  0  0
 36109  1  0  0  0
 37 39  1  0  0  0
 37 47  1  0  0  0
 37 66  1  0  0  0
 37110  1  0  0  0
 38 43  2  0  0  0
 38 46  1  0  0  0
 38 47  1  0  0  0
 39 64  1  0  0  0
 39 67  2  0  0  0
 40 52  1  0  0  0
 40 53  2  0  0  0
 40 58  1  0  0  0
 41111  1  0  0  0
 41112  1  0  0  0
 41113  1  0  0  0
 41 48  1  0  0  0
 42 43  1  0  0  0
 42 66  1  0  0  0
 42114  1  0  0  0
 42115  1  0  0  0
 43 44  1  0  0  0
 44116  1  0  0  0
 45 46  2  0  0  0
 45117  1  0  0  0
 46118  1  0  0  0
 47119  1  0  0  0
 47120  1  0  0  0
 48 56  1  0  0  0
 48 65  1  0  0  0
 48121  1  0  0  0
 49 50  1  0  0  0
 49 53  1  0  0  0
 49 64  1  0  0  0
 49122  1  0  0  0
 50 51  1  0  0  0
 50123  1  0  0  0
 50124  1  0  0  0
 51 52  1  0  0  0
 51125  1  0  0  0
 51126  1  0  0  0
 52127  1  0  0  0
 52128  1  0  0  0
 53 54  1  0  0  0
 54 55  2  0  0  0
 54129  1  0  0  0
 55 57  1  0  0  0
 55130  1  0  0  0
 56 69  2  0  0  0
 57 58  2  0  0  0
 57131  1  0  0  0
 58132  1  0  0  0
 59 60  1  0  0  0
 59 61  1  0  0  0
 59 62  1  0  0  0
 60133  1  0  0  0
 60134  1  0  0  0
 60135  1  0  0  0
 61136  1  0  0  0
 61137  1  0  0  0
 61138  1  0  0  0
 62139  1  0  0  0
 62140  1  0  0  0
 62141  1  0  0  0
 63 65  1  0  0  0
 63142  1  0  0  0
 63143  1  0  0  0
 63144  1  0  0  0
 64145  1  0  0  0
 65146  1  0  0  0
 68 82  1  0  0  0
 71 74  2  0  0  0
 71 84  1  0  0  0
 71147  1  0  0  0
 72 73  1  0  0  0
 72 80  1  0  0  0
 72 85  2  0  0  0
 73 83  1  0  0  0
 73 84  2  0  0  0
 74 85  1  0  0  0
 74 87  1  0  0  0
 75 77  1  0  0  0
 75 79  1  0  0  0
 75148  1  0  0  0
 75149  1  0  0  0
 76 78  1  0  0  0
 76 79  1  0  0  0
 76150  1  0  0  0
 76151  1  0  0  0
 77 86  1  0  0  0
 77152  1  0  0  0
 77153  1  0  0  0
 78 86  1  0  0  0
 78154  1  0  0  0
 78155  1  0  0  0
 79 87  1  0  0  0
 79156  1  0  0  0
 80157  1  0  0  0
 80158  1  0  0  0
 80159  1  0  0  0
 81160  1  0  0  0
 81161  1  0  0  0
 81162  1  0  0  0
 81 83  1  0  0  0
 82 83  1  0  0  0
 82163  1  0  0  0
 82164  1  0  0  0
 83165  1  0  0  0
 87166  1  0  0  0
M  ISO  4   1 100  68 101  82 101  86 100
M  END
> <chiral flag>
0

> <version>
0

> <s_m_source_file>
/data/baiqing/PycharmProjects/Reinvent-master-3.2/result/LINK_invent/BTK/process_docking_weight1_custom_sum_contain_oxygen_bond_distance_aromatic_linkinvent_7_9_3/rearranged_h_0176.sdf

> <i_m_source_file_index>
6

> <r_mmod_Potential_Energy-OPLS-2005>
198.87451171875

> <r_mmod_Stretch_Energy-OPLS-2005>
46.16064453125

> <r_mmod_Bend_Energy-OPLS-2005>
121.94799041748

> <r_mmod_Torsional_Energy-OPLS-2005>
317.222839355469

> <r_mmod_Improper_Torsional_Energy-OPLS-2005>
18.7968368530273

> <r_mmod_Van_der_Waal_Energy-OPLS-2005>
160.495269775391

> <r_mmod_Electrostatic_Energy-OPLS-2005>
-269.365264892578

> <r_mmod_Solvation_Energy-OPLS-2005>
-216.889556884766

> <b_mmod_Minimization_Converged-OPLS-2005>
0

> <r_mmod_RMS_Derivative-OPLS-2005>
3.17803502082825

$$$$
6
                    3D
 Structure written by MMmdl.
164173  0  0  1  0            999 V2000
  -30.7265  -14.7040   20.4769 C   0  0  0  0  0  0
  -30.4069  -12.4571   19.4554 C   0  0  0  0  0  0
  -29.4843  -12.4944   18.2235 C   0  0  0  0  0  0
  -28.0197  -12.3153   18.6556 C   0  0  0  0  0  0
  -27.6339  -13.2279   19.8497 C   0  0  2  0  0  0
  -28.6913  -13.1936   20.9752 C   0  0  0  0  0  0
  -25.2494  -13.8200   20.5739 C   0  0  0  0  0  0
  -24.1786  -13.0453   20.9228 C   0  0  0  0  0  0
  -24.6372  -11.6925   20.8786 C   0  0  0  0  0  0
  -23.9056  -10.4295   21.0415 C   0  0  0  0  0  0
  -24.3619   -9.4209   21.9179 C   0  0  0  0  0  0
  -23.6295   -8.2247   22.0743 C   0  0  0  0  0  0
  -22.4273   -8.0286   21.3543 C   0  0  0  0  0  0
  -21.9909   -9.0255   20.4649 C   0  0  0  0  0  0
  -22.7230  -10.2133   20.3062 C   0  0  0  0  0  0
  -21.6861   -6.0725   22.5273 C   0  0  0  0  0  0
  -21.4019   -6.5629   23.8204 C   0  0  0  0  0  0
  -21.3660   -5.6779   24.9166 C   0  0  0  0  0  0
  -21.6052   -4.3044   24.7217 C   0  0  0  0  0  0
  -21.8828   -3.8137   23.4338 C   0  0  0  0  0  0
  -21.9200   -4.6954   22.3393 C   0  0  0  0  0  0
  -22.7805  -13.5228   21.1857 C   0  0  0  0  0  0
  -22.1661   -4.2142   21.0968 F   0  0  0  0  0  0
  -21.5632   -3.4532   25.7729 F   0  0  0  0  0  0
  -29.9720  -13.5543   20.3581 N   0  0  0  0  0  0
  -26.2915  -12.9397   20.3365 N   0  0  0  0  0  0
  -25.9305  -11.6546   20.5834 N   0  0  0  0  0  0
  -22.0459  -12.8222   22.0421 N   0  0  0  0  0  0
  -25.4189  -15.1923   20.4119 N   0  0  0  0  0  0
  -31.9333  -14.5953   20.2431 O   0  0  0  0  0  0
  -21.6649   -6.8874   21.4238 O   0  0  0  0  0  0
  -22.3485  -14.5520   20.6670 O   0  0  0  0  0  0
  -24.6286  -31.8590   23.2043 C   0  0  0  0  0  0
  -25.9131  -32.4768   23.8360 C   0  0  1  0  0  0
  -27.2021  -27.2990   20.1092 C   0  0  0  0  0  0
  -25.5954  -33.8573   24.2279 N   0  0  0  0  0  0
  -23.4207  -30.4881   21.5463 C   0  0  2  0  0  0
  -24.8640  -28.9518   20.1052 C   0  0  0  0  0  0
  -22.7474  -29.4621   22.4900 C   0  0  0  0  0  0
  -18.0291  -28.1381   22.8477 C   0  0  0  0  0  0
  -24.1493  -36.7304   23.2630 C   0  0  0  0  0  0
  -25.9664  -30.7832   21.3801 C   0  0  0  0  0  0
  -26.0369  -29.4121   20.7178 C   0  0  0  0  0  0
  -27.2114  -28.5966   20.7138 C   0  0  0  0  0  0
  -26.0074  -26.9139   19.4531 C   0  0  0  0  0  0
  -24.8521  -27.7084   19.4646 C   0  0  0  0  0  0
  -23.6365  -29.8349   20.1587 C   0  0  0  0  0  0
  -25.4119  -36.3079   24.0315 C   0  0  1  0  0  0
  -20.5891  -28.3684   23.1268 C   0  0  2  0  0  0
  -20.6781  -26.9403   22.5407 C   0  0  0  0  0  0
  -19.5763  -26.6381   21.5198 C   0  0  0  0  0  0
  -18.1941  -26.7927   22.1612 C   0  0  0  0  0  0
  -19.1545  -28.8849   23.2871 C   0  0  0  0  0  0
  -18.9464  -30.1449   23.8886 C   0  0  0  0  0  0
  -17.6466  -30.6579   24.0566 C   0  0  0  0  0  0
  -25.9058  -34.9441   23.5093 C   0  0  0  0  0  0
  -16.5354  -29.9078   23.6328 C   0  0  0  0  0  0
  -16.7279  -28.6504   23.0337 C   0  0  0  0  0  0
  -26.4514  -31.6569   25.0723 C   0  0  0  0  0  0
  -25.3766  -31.3728   26.1469 C   0  0  0  0  0  0
  -27.0334  -30.2978   24.6181 C   0  0  0  0  0  0
  -27.6079  -32.4289   25.7503 C   0  0  0  0  0  0
  -27.5586  -37.1803   24.8455 C   0  0  0  0  0  0
  -21.4185  -29.3042   22.3659 N   0  0  0  0  0  0
  -26.4292  -37.3782   23.9408 N   0  0  0  0  0  0
  -24.6909  -31.0595   22.1001 N   0  0  0  0  0  0
  -23.4200  -28.8138   23.2963 O   0  0  0  0  0  0
  -28.2767  -26.3898   20.1782 O   0  0  0  0  0  0
  -26.5615  -34.8910   22.4650 O   0  0  0  0  0  0
  -23.5445  -32.1397   23.7357 O   0  0  0  0  0  0
  -29.4507  -22.8825   19.3146 C   0  0  0  0  0  0
  -30.0140  -23.5094   18.1645 C   0  0  0  0  0  0
  -29.5324  -21.4283   19.3185 C   0  0  0  0  0  0
  -30.4586  -21.4961   17.1941 C   0  0  0  0  0  0
  -28.9130  -23.8136   20.3994 C   0  0  0  0  0  0
  -30.8274  -18.5884   20.3375 C   0  0  0  0  0  0
  -28.6214  -18.0564   21.0935 C   0  0  0  0  0  0
  -31.0970  -17.0979   19.9572 C   0  0  0  0  0  0
  -28.8147  -16.5127   20.7617 C   0  0  0  0  0  0
  -29.3697  -19.0396   20.1476 C   0  0  0  0  0  0
  -30.2133  -25.0136   17.9943 C   0  0  0  0  0  0
  -31.0155  -20.7141   16.0253 C   0  0  0  0  0  0
  -27.9035  -24.9598   19.9848 C   0  0  0  0  0  0
  -30.4913  -22.8106   17.1207 N   0  0  0  0  0  0
  -30.0192  -20.8022   18.2240 N   0  0  0  0  0  0
  -30.1979  -16.0101   20.4814 N   0  0  0  0  0  0
  -29.1883  -23.6571   21.5912 O   0  0  0  0  0  0
  -29.1648  -20.5136   20.3418 O   0  0  0  0  0  0
  -31.4432  -12.5475   19.1245 H   0  0  0  0  0  0
  -30.3440  -11.4919   19.9609 H   0  0  0  0  0  0
  -29.7638  -11.7107   17.5187 H   0  0  0  0  0  0
  -29.6039  -13.4416   17.6949 H   0  0  0  0  0  0
  -27.8862  -11.2691   18.9337 H   0  0  0  0  0  0
  -27.3507  -12.4932   17.8137 H   0  0  0  0  0  0
  -27.6127  -14.2353   19.4410 H   0  0  0  0  0  0
  -28.7519  -12.1987   21.4189 H   0  0  0  0  0  0
  -28.4380  -13.8601   21.7965 H   0  0  0  0  0  0
  -25.2766   -9.5690   22.4750 H   0  0  0  0  0  0
  -24.0015   -7.4638   22.7453 H   0  0  0  0  0  0
  -21.0838   -8.8776   19.8949 H   0  0  0  0  0  0
  -22.3685  -10.9677   19.6187 H   0  0  0  0  0  0
  -21.2010   -7.6133   23.9709 H   0  0  0  0  0  0
  -21.1474   -6.0498   25.9065 H   0  0  0  0  0  0
  -22.0611   -2.7600   23.2834 H   0  0  0  0  0  0
  -22.4076  -11.9896   22.4834 H   0  0  0  0  0  0
  -21.1087  -13.1260   22.2640 H   0  0  0  0  0  0
  -24.6564  -15.8501   20.5311 H   0  0  0  0  0  0
  -26.2738  -15.6311   20.0988 H   0  0  0  0  0  0
  -26.7183  -32.5425   23.1092 H   0  0  0  0  0  0
  -25.0112  -33.9732   25.0431 H   0  0  0  0  0  0
  -22.7145  -31.3094   21.4062 H   0  0  0  0  0  0
  -23.3748  -35.9642   23.3275 H   0  0  0  0  0  0
  -24.3590  -36.8961   22.2052 H   0  0  0  0  0  0
  -23.7250  -37.6500   23.6670 H   0  0  0  0  0  0
  -26.1003  -31.5461   20.6124 H   0  0  0  0  0  0
  -26.8463  -30.8290   22.0097 H   0  0  0  0  0  0
  -28.1062  -28.9389   21.2146 H   0  0  0  0  0  0
  -25.9150  -25.9766   18.9274 H   0  0  0  0  0  0
  -23.9562  -27.3524   18.9740 H   0  0  0  0  0  0
  -23.7648  -30.6158   19.4085 H   0  0  0  0  0  0
  -22.7552  -29.2713   19.8483 H   0  0  0  0  0  0
  -25.1294  -36.1926   25.0806 H   0  0  0  0  0  0
  -20.9985  -28.3263   24.1384 H   0  0  0  0  0  0
  -20.5654  -26.2296   23.3610 H   0  0  0  0  0  0
  -21.6653  -26.7421   22.1212 H   0  0  0  0  0  0
  -19.6924  -25.6285   21.1241 H   0  0  0  0  0  0
  -19.6715  -27.3183   20.6718 H   0  0  0  0  0  0
  -17.4213  -26.6661   21.4017 H   0  0  0  0  0  0
  -18.0350  -26.0065   22.9005 H   0  0  0  0  0  0
  -19.7940  -30.7274   24.2245 H   0  0  0  0  0  0
  -17.5018  -31.6257   24.5167 H   0  0  0  0  0  0
  -15.5353  -30.2979   23.7656 H   0  0  0  0  0  0
  -15.8681  -28.0831   22.7030 H   0  0  0  0  0  0
  -24.5932  -30.7070   25.7835 H   0  0  0  0  0  0
  -24.8970  -32.2901   26.4886 H   0  0  0  0  0  0
  -25.8121  -30.8932   27.0244 H   0  0  0  0  0  0
  -26.2893  -29.6741   24.1208 H   0  0  0  0  0  0
  -27.4013  -29.7228   25.4687 H   0  0  0  0  0  0
  -27.8784  -30.4242   23.9413 H   0  0  0  0  0  0
  -27.2687  -33.3580   26.2097 H   0  0  0  0  0  0
  -28.3901  -32.6859   25.0348 H   0  0  0  0  0  0
  -28.0722  -31.8394   26.5420 H   0  0  0  0  0  0
  -28.2582  -38.0118   24.7510 H   0  0  0  0  0  0
  -28.1102  -36.2649   24.6252 H   0  0  0  0  0  0
  -27.2310  -37.1425   25.8859 H   0  0  0  0  0  0
  -20.9335  -29.8825   21.6943 H   0  0  0  0  0  0
  -26.0165  -38.2849   24.1433 H   0  0  0  0  0  0
  -31.4931  -19.2166   19.7455 H   0  0  0  0  0  0
  -31.1281  -18.7597   21.3724 H   0  0  0  0  0  0
  -28.9382  -18.2350   22.1230 H   0  0  0  0  0  0
  -27.5563  -18.2894   21.0795 H   0  0  0  0  0  0
  -32.1362  -16.9287   20.2438 H   0  0  0  0  0  0
  -31.0787  -17.0191   18.8692 H   0  0  0  0  0  0
  -28.2258  -16.3053   19.8702 H   0  0  0  0  0  0
  -28.3663  -15.9516   21.5771 H   0  0  0  0  0  0
  -29.0332  -18.7695   19.1460 H   0  0  0  0  0  0
  -30.6096  -25.4734   18.8989 H   0  0  0  0  0  0
  -29.2859  -25.5120   17.7134 H   0  0  0  0  0  0
  -30.9312  -25.2253   17.2007 H   0  0  0  0  0  0
  -31.0874  -21.3329   15.1306 H   0  0  0  0  0  0
  -30.3827  -19.8569   15.7958 H   0  0  0  0  0  0
  -32.0127  -20.3479   16.2664 H   0  0  0  0  0  0
  -26.9999  -24.7656   20.5636 H   0  0  0  0  0  0
  -27.6305  -24.7944   18.9430 H   0  0  0  0  0  0
  1 25  1  0  0  0
  1 30  2  0  0  0
  1 86  1  0  0  0
  2  3  1  0  0  0
  2 25  1  0  0  0
  2 89  1  0  0  0
  2 90  1  0  0  0
  3  4  1  0  0  0
  3 91  1  0  0  0
  3 92  1  0  0  0
  4  5  1  0  0  0
  4 93  1  0  0  0
  4 94  1  0  0  0
  5  6  1  0  0  0
  5 26  1  0  0  0
  5 95  1  0  0  0
  6 25  1  0  0  0
  6 96  1  0  0  0
  6 97  1  0  0  0
  7  8  2  0  0  0
  7 26  1  0  0  0
  7 29  1  0  0  0
  8  9  1  0  0  0
  8 22  1  0  0  0
  9 10  1  0  0  0
  9 27  2  0  0  0
 10 11  2  0  0  0
 10 15  1  0  0  0
 11 12  1  0  0  0
 11 98  1  0  0  0
 12 13  2  0  0  0
 12 99  1  0  0  0
 13 14  1  0  0  0
 13 31  1  0  0  0
 14 15  2  0  0  0
 14100  1  0  0  0
 15101  1  0  0  0
 16 17  2  0  0  0
 16 21  1  0  0  0
 16 31  1  0  0  0
 17 18  1  0  0  0
 17102  1  0  0  0
 18 19  2  0  0  0
 18103  1  0  0  0
 19 20  1  0  0  0
 19 24  1  0  0  0
 20 21  2  0  0  0
 20104  1  0  0  0
 21 23  1  0  0  0
 22 28  1  0  0  0
 22 32  2  0  0  0
 26 27  1  0  0  0
 28105  1  0  0  0
 28106  1  0  0  0
 29107  1  0  0  0
 29108  1  0  0  0
 33 34  1  0  0  0
 33 66  1  0  0  0
 33 70  2  0  0  0
 34 36  1  0  0  0
 34 59  1  0  0  0
 34109  1  0  0  0
 35 44  2  0  0  0
 35 45  1  0  0  0
 35 68  1  0  0  0
 36 56  1  0  0  0
 36110  1  0  0  0
 37 39  1  0  0  0
 37 47  1  0  0  0
 37 66  1  0  0  0
 37111  1  0  0  0
 38 43  2  0  0  0
 38 46  1  0  0  0
 38 47  1  0  0  0
 39 64  1  0  0  0
 39 67  2  0  0  0
 40 52  1  0  0  0
 40 53  2  0  0  0
 40 58  1  0  0  0
 41112  1  0  0  0
 41113  1  0  0  0
 41114  1  0  0  0
 41 48  1  0  0  0
 42 43  1  0  0  0
 42 66  1  0  0  0
 42115  1  0  0  0
 42116  1  0  0  0
 43 44  1  0  0  0
 44117  1  0  0  0
 45 46  2  0  0  0
 45118  1  0  0  0
 46119  1  0  0  0
 47120  1  0  0  0
 47121  1  0  0  0
 48 56  1  0  0  0
 48 65  1  0  0  0
 48122  1  0  0  0
 49 50  1  0  0  0
 49 53  1  0  0  0
 49 64  1  0  0  0
 49123  1  0  0  0
 50 51  1  0  0  0
 50124  1  0  0  0
 50125  1  0  0  0
 51 52  1  0  0  0
 51126  1  0  0  0
 51127  1  0  0  0
 52128  1  0  0  0
 52129  1  0  0  0
 53 54  1  0  0  0
 54 55  2  0  0  0
 54130  1  0  0  0
 55 57  1  0  0  0
 55131  1  0  0  0
 56 69  2  0  0  0
 57 58  2  0  0  0
 57132  1  0  0  0
 58133  1  0  0  0
 59 60  1  0  0  0
 59 61  1  0  0  0
 59 62  1  0  0  0
 60134  1  0  0  0
 60135  1  0  0  0
 60136  1  0  0  0
 61137  1  0  0  0
 61138  1  0  0  0
 61139  1  0  0  0
 62140  1  0  0  0
 62141  1  0  0  0
 62142  1  0  0  0
 63 65  1  0  0  0
 63143  1  0  0  0
 63144  1  0  0  0
 63145  1  0  0  0
 64146  1  0  0  0
 65147  1  0  0  0
 68 83  1  0  0  0
 71 72  2  0  0  0
 71 73  1  0  0  0
 71 75  1  0  0  0
 72 81  1  0  0  0
 72 84  1  0  0  0
 73 85  2  0  0  0
 73 88  1  0  0  0
 74 82  1  0  0  0
 74 84  2  0  0  0
 74 85  1  0  0  0
 75 83  1  0  0  0
 75 87  2  0  0  0
 76 78  1  0  0  0
 76 80  1  0  0  0
 76148  1  0  0  0
 76149  1  0  0  0
 77 79  1  0  0  0
 77 80  1  0  0  0
 77150  1  0  0  0
 77151  1  0  0  0
 78 86  1  0  0  0
 78152  1  0  0  0
 78153  1  0  0  0
 79 86  1  0  0  0
 79154  1  0  0  0
 79155  1  0  0  0
 80 88  1  0  0  0
 80156  1  0  0  0
 81157  1  0  0  0
 81158  1  0  0  0
 81159  1  0  0  0
 82160  1  0  0  0
 82161  1  0  0  0
 82162  1  0  0  0
 83163  1  0  0  0
 83164  1  0  0  0
M  ISO  4   1 100  68 101  83 101  86 100
M  END
> <chiral flag>
0

> <version>
0

> <s_m_source_file>
/data/baiqing/PycharmProjects/Reinvent-master-3.2/result/LINK_invent/BTK/process_docking_weight1_custom_sum_contain_oxygen_bond_distance_aromatic_linkinvent_7_9_3/rearranged_h_0176.sdf

> <i_m_source_file_index>
7

> <r_mmod_Potential_Energy-OPLS-2005>
15.9461879730225

> <r_mmod_Stretch_Energy-OPLS-2005>
109.551193237305

> <r_mmod_Bend_Energy-OPLS-2005>
215.297561645508

> <r_mmod_Torsional_Energy-OPLS-2005>
324.981658935547

> <r_mmod_Improper_Torsional_Energy-OPLS-2005>
10.4914121627808

> <r_mmod_Van_der_Waal_Energy-OPLS-2005>
190.537292480469

> <r_mmod_Electrostatic_Energy-OPLS-2005>
-685.402099609375

> <r_mmod_Solvation_Energy-OPLS-2005>
-231.437347412109

> <b_mmod_Minimization_Converged-OPLS-2005>
0

> <r_mmod_RMS_Derivative-OPLS-2005>
1.79501116275787

$$$$
7
                    3D
 Structure written by MMmdl.
157166  0  0  1  0            999 V2000
  -30.2947  -15.6553   20.3254 C   0  0  0  0  0  0
  -30.4221  -13.0959   19.5408 C   0  0  0  0  0  0
  -29.5506  -12.6613   18.3269 C   0  0  0  0  0  0
  -28.1266  -12.2985   18.7724 C   0  0  0  0  0  0
  -27.5945  -13.3098   19.8121 C   0  0  2  0  0  0
  -28.6081  -13.6541   20.9299 C   0  0  0  0  0  0
  -25.2316  -13.8287   20.5792 C   0  0  0  0  0  0
  -24.1709  -13.0433   20.9286 C   0  0  0  0  0  0
  -24.6416  -11.6947   20.8763 C   0  0  0  0  0  0
  -23.9120  -10.4293   21.0396 C   0  0  0  0  0  0
  -24.3654   -9.4207   21.9180 C   0  0  0  0  0  0
  -23.6313   -8.2248   22.0755 C   0  0  0  0  0  0
  -22.4294   -8.0288   21.3545 C   0  0  0  0  0  0
  -21.9941   -9.0264   20.4645 C   0  0  0  0  0  0
  -22.7285  -10.2135   20.3050 C   0  0  0  0  0  0
  -21.6860   -6.0742   22.5279 C   0  0  0  0  0  0
  -21.4019   -6.5643   23.8212 C   0  0  0  0  0  0
  -21.3660   -5.6794   24.9173 C   0  0  0  0  0  0
  -21.6044   -4.3057   24.7222 C   0  0  0  0  0  0
  -21.8818   -3.8150   23.4343 C   0  0  0  0  0  0
  -21.9194   -4.6968   22.3401 C   0  0  0  0  0  0
  -22.7721  -13.5163   21.1919 C   0  0  0  0  0  0
  -22.1661   -4.2153   21.0978 F   0  0  0  0  0  0
  -21.5627   -3.4540   25.7736 F   0  0  0  0  0  0
  -29.7797  -14.2824   20.2739 N   0  0  0  0  0  0
  -26.2768  -12.9622   20.3233 N   0  0  0  0  0  0
  -25.9362  -11.6692   20.5699 N   0  0  0  0  0  0
  -22.0390  -12.8141   22.0472 N   0  0  0  0  0  0
  -25.3904  -15.2029   20.4234 N   0  0  0  0  0  0
  -31.5292  -15.5909   20.1620 O   0  0  0  0  0  0
  -21.6648   -6.8890   21.4244 O   0  0  0  0  0  0
  -22.3396  -14.5460   20.6755 O   0  0  0  0  0  0
  -24.6861  -31.7964   23.1482 C   0  0  0  0  0  0
  -25.9429  -32.4447   23.8039 C   0  0  1  0  0  0
  -27.2271  -26.6747   20.2178 C   0  0  0  0  0  0
  -25.5996  -33.8274   24.1923 N   0  0  0  0  0  0
  -23.5136  -30.3965   21.5033 C   0  0  2  0  0  0
  -24.9708  -28.7306   20.1188 C   0  0  0  0  0  0
  -22.7779  -29.4294   22.4704 C   0  0  0  0  0  0
  -18.0342  -28.1424   22.8450 C   0  0  0  0  0  0
  -24.1495  -36.7147   23.2655 C   0  0  0  0  0  0
  -26.0950  -30.5203   21.4161 C   0  0  0  0  0  0
  -26.1606  -29.0819   20.7673 C   0  0  0  0  0  0
  -27.2728  -28.0832   20.7819 C   0  0  0  0  0  0
  -26.0033  -26.5382   19.5127 C   0  0  0  0  0  0
  -24.9325  -27.4846   19.4678 C   0  0  0  0  0  0
  -23.7689  -29.6903   20.1400 C   0  0  0  0  0  0
  -25.4146  -36.2883   24.0280 C   0  0  1  0  0  0
  -20.5979  -28.3782   23.1139 C   0  0  2  0  0  0
  -20.6809  -26.9441   22.5405 C   0  0  0  0  0  0
  -19.5785  -26.6371   21.5219 C   0  0  0  0  0  0
  -18.1965  -26.7951   22.1619 C   0  0  0  0  0  0
  -19.1609  -28.8929   23.2772 C   0  0  0  0  0  0
  -18.9517  -30.1513   23.8819 C   0  0  0  0  0  0
  -17.6506  -30.6605   24.0550 C   0  0  0  0  0  0
  -25.9129  -34.9275   23.4940 C   0  0  0  0  0  0
  -16.5395  -29.9085   23.6354 C   0  0  0  0  0  0
  -16.7322  -28.6510   23.0364 C   0  0  0  0  0  0
  -26.4598  -31.6496   25.0675 C   0  0  0  0  0  0
  -25.3654  -31.3826   26.1283 C   0  0  0  0  0  0
  -27.0537  -30.2832   24.6595 C   0  0  0  0  0  0
  -27.6037  -32.4366   25.7497 C   0  0  0  0  0  0
  -27.5560  -37.1727   24.8467 C   0  0  0  0  0  0
  -21.4424  -29.3023   22.3455 N   0  0  0  0  0  0
  -26.4267  -37.3647   23.9411 N   0  0  0  0  0  0
  -24.7888  -30.9381   22.0750 N   0  0  0  0  0  0
  -23.4210  -28.7904   23.3065 O   0  0  0  0  0  0
  -28.1946  -25.4506   20.2866 O   0  0  0  0  0  0
  -26.5775  -34.8860   22.4561 O   0  0  0  0  0  0
  -23.5877  -32.1053   23.6420 O   0  0  0  0  0  0
  -27.1407  -19.1466   17.8823 C   0  0  0  0  0  0
  -26.9083  -20.6414   17.8230 C   0  0  0  0  0  0
  -30.0284  -19.7231   21.5281 C   0  0  0  0  0  0
  -29.4923  -21.2981   21.5634 C   0  0  0  0  0  0
  -28.2203  -20.0996   18.3379 C   0  0  0  0  0  0
  -28.5963  -20.2214   19.8029 C   0  0  1  0  0  0
  -29.6532  -18.8166   20.2681 C   0  0  2  0  0  0
  -28.9653  -21.9656   20.2085 C   0  0  2  0  0  0
  -30.1926  -22.3094   19.3488 C   0  0  0  0  0  0
  -28.0083  -23.6868   20.1897 C   0  0  0  0  0  0
  -29.5300  -17.0248   20.3739 N   0  0  0  0  0  0
  -31.4135  -13.3605   19.1723 H   0  0  0  0  0  0
  -30.5882  -12.2570   20.2188 H   0  0  0  0  0  0
  -30.0099  -11.8203   17.8058 H   0  0  0  0  0  0
  -29.5061  -13.4810   17.6085 H   0  0  0  0  0  0
  -28.1598  -11.3034   19.2181 H   0  0  0  0  0  0
  -27.4570  -12.2310   17.9139 H   0  0  0  0  0  0
  -27.4538  -14.2269   19.2381 H   0  0  0  0  0  0
  -28.8722  -12.7782   21.5243 H   0  0  0  0  0  0
  -28.1699  -14.3744   21.6224 H   0  0  0  0  0  0
  -25.2793   -9.5679   22.4763 H   0  0  0  0  0  0
  -24.0012   -7.4642   22.7482 H   0  0  0  0  0  0
  -21.0867   -8.8794   19.8953 H   0  0  0  0  0  0
  -22.3744  -10.9677   19.6160 H   0  0  0  0  0  0
  -21.2015   -7.6152   23.9717 H   0  0  0  0  0  0
  -21.1482   -6.0524   25.9076 H   0  0  0  0  0  0
  -22.0595   -2.7612   23.2843 H   0  0  0  0  0  0
  -22.4032  -11.9817   22.4866 H   0  0  0  0  0  0
  -21.0997  -13.1137   22.2674 H   0  0  0  0  0  0
  -24.6159  -15.8486   20.5329 H   0  0  0  0  0  0
  -26.2287  -15.6460   20.0727 H   0  0  0  0  0  0
  -26.7512  -32.4908   23.0751 H   0  0  0  0  0  0
  -25.0051  -33.9311   25.0015 H   0  0  0  0  0  0
  -22.8405  -31.2344   21.3103 H   0  0  0  0  0  0
  -23.3774  -35.9457   23.3263 H   0  0  0  0  0  0
  -24.3564  -36.8867   22.2081 H   0  0  0  0  0  0
  -23.7240  -37.6303   23.6771 H   0  0  0  0  0  0
  -26.2998  -31.2440   20.6262 H   0  0  0  0  0  0
  -26.9450  -30.5892   22.0823 H   0  0  0  0  0  0
  -28.1685  -28.3599   21.3200 H   0  0  0  0  0  0
  -25.8329  -25.5968   19.0101 H   0  0  0  0  0  0
  -24.0348  -27.2059   18.9330 H   0  0  0  0  0  0
  -23.9468  -30.4490   19.3771 H   0  0  0  0  0  0
  -22.8726  -29.1590   19.8152 H   0  0  0  0  0  0
  -25.1355  -36.1638   25.0769 H   0  0  0  0  0  0
  -21.0056  -28.3409   24.1267 H   0  0  0  0  0  0
  -20.5678  -26.2406   23.3666 H   0  0  0  0  0  0
  -21.6667  -26.7385   22.1219 H   0  0  0  0  0  0
  -19.6943  -25.6261   21.1296 H   0  0  0  0  0  0
  -19.6732  -27.3139   20.6715 H   0  0  0  0  0  0
  -17.4237  -26.6699   21.4019 H   0  0  0  0  0  0
  -18.0348  -26.0112   22.9032 H   0  0  0  0  0  0
  -19.7994  -30.7348   24.2151 H   0  0  0  0  0  0
  -17.5058  -31.6277   24.5167 H   0  0  0  0  0  0
  -15.5391  -30.2961   23.7726 H   0  0  0  0  0  0
  -15.8725  -28.0806   22.7117 H   0  0  0  0  0  0
  -24.5866  -30.7152   25.7578 H   0  0  0  0  0  0
  -24.8819  -32.3053   26.4496 H   0  0  0  0  0  0
  -25.7819  -30.9124   27.0201 H   0  0  0  0  0  0
  -26.3263  -29.6431   24.1594 H   0  0  0  0  0  0
  -27.3965  -29.7295   25.5347 H   0  0  0  0  0  0
  -27.9238  -30.3951   24.0125 H   0  0  0  0  0  0
  -27.2573  -33.3746   26.1847 H   0  0  0  0  0  0
  -28.3960  -32.6801   25.0406 H   0  0  0  0  0  0
  -28.0579  -31.8651   26.5602 H   0  0  0  0  0  0
  -28.2537  -38.0058   24.7509 H   0  0  0  0  0  0
  -28.1094  -36.2577   24.6294 H   0  0  0  0  0  0
  -27.2276  -37.1360   25.8869 H   0  0  0  0  0  0
  -20.9736  -29.8677   21.6515 H   0  0  0  0  0  0
  -26.0090  -38.2693   24.1428 H   0  0  0  0  0  0
  -27.2953  -18.6236   16.9405 H   0  0  0  0  0  0
  -26.6019  -18.5843   18.6429 H   0  0  0  0  0  0
  -26.2182  -21.0733   18.5456 H   0  0  0  0  0  0
  -26.9097  -21.1138   16.8425 H   0  0  0  0  0  0
  -29.6722  -19.2275   22.4316 H   0  0  0  0  0  0
  -31.1150  -19.7280   21.6244 H   0  0  0  0  0  0
  -30.2543  -21.9320   22.0185 H   0  0  0  0  0  0
  -28.6597  -21.3316   22.2680 H   0  0  0  0  0  0
  -29.0698  -20.2029   17.6647 H   0  0  0  0  0  0
  -27.6678  -20.0288   20.3467 H   0  0  0  0  0  0
  -30.4952  -18.9088   19.5806 H   0  0  0  0  0  0
  -30.8980  -21.4804   19.2854 H   0  0  0  0  0  0
  -30.7289  -23.1660   19.7579 H   0  0  0  0  0  0
  -29.8944  -22.5666   18.3321 H   0  0  0  0  0  0
  -27.2141  -23.5217   20.9177 H   0  0  0  0  0  0
  -27.4857  -23.6207   19.2353 H   0  0  0  0  0  0
  -28.5530  -16.7895   20.4755 H   0  0  0  0  0  0
  1 25  1  0  0  0
  1 30  2  0  0  0
  1 81  1  0  0  0
  2  3  1  0  0  0
  2 25  1  0  0  0
  2 82  1  0  0  0
  2 83  1  0  0  0
  3  4  1  0  0  0
  3 84  1  0  0  0
  3 85  1  0  0  0
  4  5  1  0  0  0
  4 86  1  0  0  0
  4 87  1  0  0  0
  5  6  1  0  0  0
  5 26  1  0  0  0
  5 88  1  0  0  0
  6 25  1  0  0  0
  6 89  1  0  0  0
  6 90  1  0  0  0
  7  8  2  0  0  0
  7 26  1  0  0  0
  7 29  1  0  0  0
  8  9  1  0  0  0
  8 22  1  0  0  0
  9 10  1  0  0  0
  9 27  2  0  0  0
 10 11  2  0  0  0
 10 15  1  0  0  0
 11 12  1  0  0  0
 11 91  1  0  0  0
 12 13  2  0  0  0
 12 92  1  0  0  0
 13 14  1  0  0  0
 13 31  1  0  0  0
 14 15  2  0  0  0
 14 93  1  0  0  0
 15 94  1  0  0  0
 16 17  2  0  0  0
 16 21  1  0  0  0
 16 31  1  0  0  0
 17 18  1  0  0  0
 17 95  1  0  0  0
 18 19  2  0  0  0
 18 96  1  0  0  0
 19 20  1  0  0  0
 19 24  1  0  0  0
 20 21  2  0  0  0
 20 97  1  0  0  0
 21 23  1  0  0  0
 22 28  1  0  0  0
 22 32  2  0  0  0
 26 27  1  0  0  0
 28 98  1  0  0  0
 28 99  1  0  0  0
 29100  1  0  0  0
 29101  1  0  0  0
 33 34  1  0  0  0
 33 66  1  0  0  0
 33 70  2  0  0  0
 34 36  1  0  0  0
 34 59  1  0  0  0
 34102  1  0  0  0
 35 44  2  0  0  0
 35 45  1  0  0  0
 35 68  1  0  0  0
 36 56  1  0  0  0
 36103  1  0  0  0
 37 39  1  0  0  0
 37 47  1  0  0  0
 37 66  1  0  0  0
 37104  1  0  0  0
 38 43  2  0  0  0
 38 46  1  0  0  0
 38 47  1  0  0  0
 39 64  1  0  0  0
 39 67  2  0  0  0
 40 52  1  0  0  0
 40 53  2  0  0  0
 40 58  1  0  0  0
 41105  1  0  0  0
 41106  1  0  0  0
 41107  1  0  0  0
 41 48  1  0  0  0
 42 43  1  0  0  0
 42 66  1  0  0  0
 42108  1  0  0  0
 42109  1  0  0  0
 43 44  1  0  0  0
 44110  1  0  0  0
 45 46  2  0  0  0
 45111  1  0  0  0
 46112  1  0  0  0
 47113  1  0  0  0
 47114  1  0  0  0
 48 56  1  0  0  0
 48 65  1  0  0  0
 48115  1  0  0  0
 49 50  1  0  0  0
 49 53  1  0  0  0
 49 64  1  0  0  0
 49116  1  0  0  0
 50 51  1  0  0  0
 50117  1  0  0  0
 50118  1  0  0  0
 51 52  1  0  0  0
 51119  1  0  0  0
 51120  1  0  0  0
 52121  1  0  0  0
 52122  1  0  0  0
 53 54  1  0  0  0
 54 55  2  0  0  0
 54123  1  0  0  0
 55 57  1  0  0  0
 55124  1  0  0  0
 56 69  2  0  0  0
 57 58  2  0  0  0
 57125  1  0  0  0
 58126  1  0  0  0
 59 60  1  0  0  0
 59 61  1  0  0  0
 59 62  1  0  0  0
 60127  1  0  0  0
 60128  1  0  0  0
 60129  1  0  0  0
 61130  1  0  0  0
 61131  1  0  0  0
 61132  1  0  0  0
 62133  1  0  0  0
 62134  1  0  0  0
 62135  1  0  0  0
 63 65  1  0  0  0
 63136  1  0  0  0
 63137  1  0  0  0
 63138  1  0  0  0
 64139  1  0  0  0
 65140  1  0  0  0
 68 80  1  0  0  0
 71 72  1  0  0  0
 71141  1  0  0  0
 71142  1  0  0  0
 71 75  1  0  0  0
 72 75  1  0  0  0
 72143  1  0  0  0
 72144  1  0  0  0
 73 74  1  0  0  0
 73 77  1  0  0  0
 73145  1  0  0  0
 73146  1  0  0  0
 74 78  1  0  0  0
 74147  1  0  0  0
 74148  1  0  0  0
 75149  1  0  0  0
 75 76  1  0  0  0
 76 77  1  0  0  0
 76 78  1  0  0  0
 76150  1  0  0  0
 77 81  1  0  0  0
 77151  1  0  0  0
 78 79  1  0  0  0
 78 80  1  0  0  0
 79152  1  0  0  0
 79153  1  0  0  0
 79154  1  0  0  0
 80155  1  0  0  0
 80156  1  0  0  0
 81157  1  0  0  0
M  ISO  4   1 100  68 101  80 101  81 100
M  END
> <chiral flag>
0

> <version>
0

> <s_m_source_file>
/data/baiqing/PycharmProjects/Reinvent-master-3.2/result/LINK_invent/BTK/process_docking_weight1_custom_sum_contain_oxygen_bond_distance_aromatic_linkinvent_7_9_3/rearranged_h_0176.sdf

> <i_m_source_file_index>
8

> <r_mmod_Potential_Energy-OPLS-2005>
2659.91552734375

> <r_mmod_Stretch_Energy-OPLS-2005>
1121.26940917969

> <r_mmod_Bend_Energy-OPLS-2005>
735.784057617188

> <r_mmod_Torsional_Energy-OPLS-2005>
313.679931640625

> <r_mmod_Improper_Torsional_Energy-OPLS-2005>
3.64639687538147

> <r_mmod_Van_der_Waal_Energy-OPLS-2005>
100.953979492188

> <r_mmod_Electrostatic_Energy-OPLS-2005>
-350.771392822266

> <r_mmod_Solvation_Energy-OPLS-2005>
-206.916122436523

> <b_mmod_Minimization_Converged-OPLS-2005>
0

> <r_mmod_RMS_Derivative-OPLS-2005>
0.455363929271698

$$$$
8
                    3D
 Structure written by MMmdl.
153162  0  0  1  0            999 V2000
  -30.4944  -15.0689   20.3952 C   0  0  0  0  0  0
  -30.4430  -12.6651   19.5142 C   0  0  0  0  0  0
  -29.5290  -12.5473   18.2703 C   0  0  0  0  0  0
  -28.0660  -12.3116   18.6886 C   0  0  0  0  0  0
  -27.6248  -13.2575   19.8349 C   0  0  2  0  0  0
  -28.6644  -13.3322   20.9740 C   0  0  0  0  0  0
  -25.2439  -13.8227   20.5718 C   0  0  0  0  0  0
  -24.1770  -13.0439   20.9240 C   0  0  0  0  0  0
  -24.6400  -11.6928   20.8758 C   0  0  0  0  0  0
  -23.9087  -10.4293   21.0408 C   0  0  0  0  0  0
  -24.3633   -9.4206   21.9186 C   0  0  0  0  0  0
  -23.6302   -8.2244   22.0755 C   0  0  0  0  0  0
  -22.4283   -8.0284   21.3545 C   0  0  0  0  0  0
  -21.9924   -9.0259   20.4647 C   0  0  0  0  0  0
  -22.7259  -10.2136   20.3056 C   0  0  0  0  0  0
  -21.6855   -6.0738   22.5279 C   0  0  0  0  0  0
  -21.4017   -6.5641   23.8212 C   0  0  0  0  0  0
  -21.3659   -5.6793   24.9174 C   0  0  0  0  0  0
  -21.6043   -4.3056   24.7224 C   0  0  0  0  0  0
  -21.8818   -3.8148   23.4345 C   0  0  0  0  0  0
  -21.9193   -4.6965   22.3402 C   0  0  0  0  0  0
  -22.7788  -13.5202   21.1889 C   0  0  0  0  0  0
  -22.1661   -4.2150   21.0979 F   0  0  0  0  0  0
  -21.5628   -3.4539   25.7737 F   0  0  0  0  0  0
  -29.9277  -13.7812   20.3712 N   0  0  0  0  0  0
  -26.2865  -12.9474   20.3234 N   0  0  0  0  0  0
  -25.9335  -11.6595   20.5735 N   0  0  0  0  0  0
  -22.0441  -12.8186   22.0443 N   0  0  0  0  0  0
  -25.4086  -15.1959   20.4132 N   0  0  0  0  0  0
  -31.7031  -15.1090   20.1249 O   0  0  0  0  0  0
  -21.6643   -6.8883   21.4242 O   0  0  0  0  0  0
  -22.3469  -14.5505   20.6731 O   0  0  0  0  0  0
  -24.6511  -31.8359   23.1809 C   0  0  0  0  0  0
  -25.9246  -32.4652   23.8232 C   0  0  1  0  0  0
  -27.2186  -27.0534   20.1651 C   0  0  0  0  0  0
  -25.5964  -33.8462   24.2145 N   0  0  0  0  0  0
  -23.4595  -30.4519   21.5274 C   0  0  2  0  0  0
  -24.9118  -28.8642   20.1089 C   0  0  0  0  0  0
  -22.7609  -29.4501   22.4820 C   0  0  0  0  0  0
  -18.0313  -28.1401   22.8474 C   0  0  0  0  0  0
  -24.1492  -36.7233   23.2646 C   0  0  0  0  0  0
  -26.0214  -30.6825   21.3932 C   0  0  0  0  0  0
  -26.0913  -29.2858   20.7354 C   0  0  0  0  0  0
  -27.2429  -28.3980   20.7442 C   0  0  0  0  0  0
  -26.0140  -26.7567   19.4894 C   0  0  0  0  0  0
  -24.8910  -27.6162   19.4681 C   0  0  0  0  0  0
  -23.6917  -29.7760   20.1492 C   0  0  0  0  0  0
  -25.4128  -36.3005   24.0311 C   0  0  1  0  0  0
  -20.5932  -28.3733   23.1215 C   0  0  2  0  0  0
  -20.6793  -26.9427   22.5403 C   0  0  0  0  0  0
  -19.5767  -26.6378   21.5214 C   0  0  0  0  0  0
  -18.1949  -26.7938   22.1624 C   0  0  0  0  0  0
  -19.1572  -28.8886   23.2837 C   0  0  0  0  0  0
  -18.9486  -30.1481   23.8864 C   0  0  0  0  0  0
  -17.6481  -30.6594   24.0557 C   0  0  0  0  0  0
  -25.9084  -34.9384   23.5040 C   0  0  0  0  0  0
  -16.5372  -29.9084   23.6340 C   0  0  0  0  0  0
  -16.7296  -28.6504   23.0359 C   0  0  0  0  0  0
  -26.4539  -31.6552   25.0710 C   0  0  0  0  0  0
  -25.3700  -31.3767   26.1389 C   0  0  0  0  0  0
  -27.0422  -30.2939   24.6351 C   0  0  0  0  0  0
  -27.6051  -32.4338   25.7502 C   0  0  0  0  0  0
  -27.5572  -37.1774   24.8468 C   0  0  0  0  0  0
  -21.4292  -29.3045   22.3575 N   0  0  0  0  0  0
  -26.4283  -37.3727   23.9408 N   0  0  0  0  0  0
  -24.7309  -31.0136   22.0884 N   0  0  0  0  0  0
  -23.4214  -28.8059   23.3008 O   0  0  0  0  0  0
  -28.2438  -26.0128   20.2550 O   0  0  0  0  0  0
  -26.5678  -34.8897   22.4627 O   0  0  0  0  0  0
  -23.5608  -32.1273   23.6975 O   0  0  0  0  0  0
  -28.7623  -18.8015   20.7057 C   0  0  0  0  0  0
  -28.8808  -20.2675   20.4927 C   0  0  0  0  0  0
  -30.0419  -20.7529   19.9383 C   0  0  0  0  0  0
  -31.0486  -19.7864   19.6344 C   0  0  0  0  0  0
  -29.8187  -17.8106   20.3739 C   0  0  0  0  0  0
  -27.9511  -21.5487   20.7310 C   0  0  0  0  0  0
  -30.0024  -22.3265   19.7375 C   0  0  0  0  0  0
  -28.7517  -22.9797   20.5084 C   0  0  1  0  0  0
  -32.3596  -20.2410   19.0281 C   0  0  0  0  0  0
  -27.9631  -24.4586   20.0285 C   0  0  0  0  0  0
  -30.9324  -18.4197   19.8460 N   0  0  0  0  0  0
  -29.6869  -16.2598   20.5601 N   0  0  0  0  0  0
  -31.4723  -12.8382   19.1966 H   0  0  0  0  0  0
  -30.4616  -11.7274   20.0718 H   0  0  0  0  0  0
  -29.8694  -11.7377   17.6231 H   0  0  0  0  0  0
  -29.5974  -13.4620   17.6795 H   0  0  0  0  0  0
  -27.9813  -11.2749   19.0161 H   0  0  0  0  0  0
  -27.4018  -12.4153   17.8298 H   0  0  0  0  0  0
  -27.5724  -14.2490   19.3842 H   0  0  0  0  0  0
  -28.7796  -12.3666   21.4687 H   0  0  0  0  0  0
  -28.3410  -14.0359   21.7426 H   0  0  0  0  0  0
  -25.2776   -9.5679   22.4764 H   0  0  0  0  0  0
  -24.0005   -7.4636   22.7477 H   0  0  0  0  0  0
  -21.0854   -8.8784   19.8953 H   0  0  0  0  0  0
  -22.3719  -10.9676   19.6166 H   0  0  0  0  0  0
  -21.2011   -7.6150   23.9715 H   0  0  0  0  0  0
  -21.1481   -6.0524   25.9076 H   0  0  0  0  0  0
  -22.0598   -2.7611   23.2846 H   0  0  0  0  0  0
  -22.4067  -11.9852   22.4832 H   0  0  0  0  0  0
  -21.1055  -13.1199   22.2648 H   0  0  0  0  0  0
  -24.6327  -15.8411   20.5159 H   0  0  0  0  0  0
  -26.2364  -15.6351   20.0329 H   0  0  0  0  0  0
  -26.7310  -32.5227   23.0952 H   0  0  0  0  0  0
  -25.0084  -33.9564   25.0275 H   0  0  0  0  0  0
  -22.7663  -31.2801   21.3656 H   0  0  0  0  0  0
  -23.3761  -35.9558   23.3294 H   0  0  0  0  0  0
  -24.3572  -36.8883   22.2063 H   0  0  0  0  0  0
  -23.7240  -37.6420   23.6697 H   0  0  0  0  0  0
  -26.1878  -31.4318   20.6181 H   0  0  0  0  0  0
  -26.8875  -30.7345   22.0410 H   0  0  0  0  0  0
  -28.1368  -28.7147   21.2630 H   0  0  0  0  0  0
  -25.9042  -25.8039   18.9931 H   0  0  0  0  0  0
  -23.9935  -27.2885   18.9619 H   0  0  0  0  0  0
  -23.8351  -30.5483   19.3926 H   0  0  0  0  0  0
  -22.8049  -29.2223   19.8358 H   0  0  0  0  0  0
  -25.1319  -36.1822   25.0802 H   0  0  0  0  0  0
  -21.0024  -28.3329   24.1336 H   0  0  0  0  0  0
  -20.5679  -26.2349   23.3631 H   0  0  0  0  0  0
  -21.6657  -26.7416   22.1204 H   0  0  0  0  0  0
  -19.6927  -25.6282   21.1262 H   0  0  0  0  0  0
  -19.6705  -27.3172   20.6733 H   0  0  0  0  0  0
  -17.4217  -26.6683   21.4029 H   0  0  0  0  0  0
  -18.0344  -26.0088   22.9027 H   0  0  0  0  0  0
  -19.7963  -30.7308   24.2215 H   0  0  0  0  0  0
  -17.5034  -31.6271   24.5166 H   0  0  0  0  0  0
  -15.5370  -30.2975   23.7685 H   0  0  0  0  0  0
  -15.8697  -28.0812   22.7093 H   0  0  0  0  0  0
  -24.5893  -30.7100   25.7706 H   0  0  0  0  0  0
  -24.8876  -32.2958   26.4725 H   0  0  0  0  0  0
  -25.7963  -30.8999   27.0225 H   0  0  0  0  0  0
  -26.3067  -29.6638   24.1337 H   0  0  0  0  0  0
  -27.3987  -29.7262   25.4958 H   0  0  0  0  0  0
  -27.8990  -30.4158   23.9722 H   0  0  0  0  0  0
  -27.2632  -33.3667   26.1998 H   0  0  0  0  0  0
  -28.3904  -32.6855   25.0361 H   0  0  0  0  0  0
  -28.0673  -31.8521   26.5487 H   0  0  0  0  0  0
  -28.2579  -38.0079   24.7505 H   0  0  0  0  0  0
  -28.1076  -36.2605   24.6305 H   0  0  0  0  0  0
  -27.2288  -37.1430   25.8871 H   0  0  0  0  0  0
  -20.9517  -29.8749   21.6735 H   0  0  0  0  0  0
  -26.0142  -38.2792   24.1411 H   0  0  0  0  0  0
  -27.8377  -18.4329   21.1286 H   0  0  0  0  0  0
  -27.5109  -21.5065   21.7276 H   0  0  0  0  0  0
  -27.1239  -21.4870   20.0236 H   0  0  0  0  0  0
  -29.9144  -22.5244   18.6686 H   0  0  0  0  0  0
  -30.9392  -22.7782   20.0656 H   0  0  0  0  0  0
  -29.1357  -23.2032   21.5043 H   0  0  0  0  0  0
  -32.8649  -20.9369   19.6979 H   0  0  0  0  0  0
  -32.1820  -20.7480   18.0798 H   0  0  0  0  0  0
  -33.0320  -19.4028   18.8426 H   0  0  0  0  0  0
  -26.9710  -24.3388   20.4644 H   0  0  0  0  0  0
  -27.7947  -24.3604   18.9559 H   0  0  0  0  0  0
  -28.7511  -16.0000   20.8258 H   0  0  0  0  0  0
  1 25  1  0  0  0
  1 30  2  0  0  0
  1 82  1  0  0  0
  2  3  1  0  0  0
  2 25  1  0  0  0
  2 83  1  0  0  0
  2 84  1  0  0  0
  3  4  1  0  0  0
  3 85  1  0  0  0
  3 86  1  0  0  0
  4  5  1  0  0  0
  4 87  1  0  0  0
  4 88  1  0  0  0
  5  6  1  0  0  0
  5 26  1  0  0  0
  5 89  1  0  0  0
  6 25  1  0  0  0
  6 90  1  0  0  0
  6 91  1  0  0  0
  7  8  2  0  0  0
  7 26  1  0  0  0
  7 29  1  0  0  0
  8  9  1  0  0  0
  8 22  1  0  0  0
  9 10  1  0  0  0
  9 27  2  0  0  0
 10 11  2  0  0  0
 10 15  1  0  0  0
 11 12  1  0  0  0
 11 92  1  0  0  0
 12 13  2  0  0  0
 12 93  1  0  0  0
 13 14  1  0  0  0
 13 31  1  0  0  0
 14 15  2  0  0  0
 14 94  1  0  0  0
 15 95  1  0  0  0
 16 17  2  0  0  0
 16 21  1  0  0  0
 16 31  1  0  0  0
 17 18  1  0  0  0
 17 96  1  0  0  0
 18 19  2  0  0  0
 18 97  1  0  0  0
 19 20  1  0  0  0
 19 24  1  0  0  0
 20 21  2  0  0  0
 20 98  1  0  0  0
 21 23  1  0  0  0
 22 28  1  0  0  0
 22 32  2  0  0  0
 26 27  1  0  0  0
 28 99  1  0  0  0
 28100  1  0  0  0
 29101  1  0  0  0
 29102  1  0  0  0
 33 34  1  0  0  0
 33 66  1  0  0  0
 33 70  2  0  0  0
 34 36  1  0  0  0
 34 59  1  0  0  0
 34103  1  0  0  0
 35 44  2  0  0  0
 35 45  1  0  0  0
 35 68  1  0  0  0
 36 56  1  0  0  0
 36104  1  0  0  0
 37 39  1  0  0  0
 37 47  1  0  0  0
 37 66  1  0  0  0
 37105  1  0  0  0
 38 43  2  0  0  0
 38 46  1  0  0  0
 38 47  1  0  0  0
 39 64  1  0  0  0
 39 67  2  0  0  0
 40 52  1  0  0  0
 40 53  2  0  0  0
 40 58  1  0  0  0
 41106  1  0  0  0
 41107  1  0  0  0
 41108  1  0  0  0
 41 48  1  0  0  0
 42 43  1  0  0  0
 42 66  1  0  0  0
 42109  1  0  0  0
 42110  1  0  0  0
 43 44  1  0  0  0
 44111  1  0  0  0
 45 46  2  0  0  0
 45112  1  0  0  0
 46113  1  0  0  0
 47114  1  0  0  0
 47115  1  0  0  0
 48 56  1  0  0  0
 48 65  1  0  0  0
 48116  1  0  0  0
 49 50  1  0  0  0
 49 53  1  0  0  0
 49 64  1  0  0  0
 49117  1  0  0  0
 50 51  1  0  0  0
 50118  1  0  0  0
 50119  1  0  0  0
 51 52  1  0  0  0
 51120  1  0  0  0
 51121  1  0  0  0
 52122  1  0  0  0
 52123  1  0  0  0
 53 54  1  0  0  0
 54 55  2  0  0  0
 54124  1  0  0  0
 55 57  1  0  0  0
 55125  1  0  0  0
 56 69  2  0  0  0
 57 58  2  0  0  0
 57126  1  0  0  0
 58127  1  0  0  0
 59 60  1  0  0  0
 59 61  1  0  0  0
 59 62  1  0  0  0
 60128  1  0  0  0
 60129  1  0  0  0
 60130  1  0  0  0
 61131  1  0  0  0
 61132  1  0  0  0
 61133  1  0  0  0
 62134  1  0  0  0
 62135  1  0  0  0
 62136  1  0  0  0
 63 65  1  0  0  0
 63137  1  0  0  0
 63138  1  0  0  0
 63139  1  0  0  0
 64140  1  0  0  0
 65141  1  0  0  0
 68 80  1  0  0  0
 71 72  2  0  0  0
 71 75  1  0  0  0
 71142  1  0  0  0
 72 73  1  0  0  0
 72 76  1  0  0  0
 73 74  2  0  0  0
 73 77  1  0  0  0
 74 79  1  0  0  0
 74 81  1  0  0  0
 75 81  2  0  0  0
 75 82  1  0  0  0
 76 78  1  0  0  0
 76143  1  0  0  0
 76144  1  0  0  0
 77 78  1  0  0  0
 77145  1  0  0  0
 77146  1  0  0  0
 78 80  1  0  0  0
 78147  1  0  0  0
 79148  1  0  0  0
 79149  1  0  0  0
 79150  1  0  0  0
 80151  1  0  0  0
 80152  1  0  0  0
 82153  1  0  0  0
M  ISO  4   1 100  68 101  80 101  82 100
M  END
> <chiral flag>
0

> <version>
0

> <s_m_source_file>
/data/baiqing/PycharmProjects/Reinvent-master-3.2/result/LINK_invent/BTK/process_docking_weight1_custom_sum_contain_oxygen_bond_distance_aromatic_linkinvent_7_9_3/rearranged_h_0176.sdf

> <i_m_source_file_index>
9

> <r_mmod_Potential_Energy-OPLS-2005>
548.873779296875

> <r_mmod_Stretch_Energy-OPLS-2005>
326.20947265625

> <r_mmod_Bend_Energy-OPLS-2005>
347.389923095703

> <r_mmod_Torsional_Energy-OPLS-2005>
208.453201293945

> <r_mmod_Improper_Torsional_Energy-OPLS-2005>
3.56523847579956

> <r_mmod_Van_der_Waal_Energy-OPLS-2005>
125.260925292969

> <r_mmod_Electrostatic_Energy-OPLS-2005>
-501.467926025391

> <r_mmod_Solvation_Energy-OPLS-2005>
-241.620315551758

> <b_mmod_Minimization_Converged-OPLS-2005>
0

> <r_mmod_RMS_Derivative-OPLS-2005>
0.35588538646698

$$$$
9
                    3D
 Structure written by MMmdl.
148156  0  0  1  0            999 V2000
  -30.4253  -15.2210   20.3782 C   0  0  0  0  0  0
  -30.4491  -12.7764   19.5149 C   0  0  0  0  0  0
  -29.5366  -12.5686   18.2790 C   0  0  0  0  0  0
  -28.0814  -12.3001   18.7058 C   0  0  0  0  0  0
  -27.6165  -13.2651   19.8246 C   0  0  2  0  0  0
  -28.6545  -13.4039   20.9581 C   0  0  0  0  0  0
  -25.2413  -13.8223   20.5731 C   0  0  0  0  0  0
  -24.1758  -13.0427   20.9259 C   0  0  0  0  0  0
  -24.6397  -11.6921   20.8761 C   0  0  0  0  0  0
  -23.9086  -10.4289   21.0409 C   0  0  0  0  0  0
  -24.3631   -9.4204   21.9187 C   0  0  0  0  0  0
  -23.6299   -8.2242   22.0757 C   0  0  0  0  0  0
  -22.4279   -8.0283   21.3547 C   0  0  0  0  0  0
  -21.9920   -9.0258   20.4649 C   0  0  0  0  0  0
  -22.7256  -10.2133   20.3056 C   0  0  0  0  0  0
  -21.6855   -6.0737   22.5279 C   0  0  0  0  0  0
  -21.4018   -6.5639   23.8213 C   0  0  0  0  0  0
  -21.3659   -5.6791   24.9175 C   0  0  0  0  0  0
  -21.6042   -4.3054   24.7225 C   0  0  0  0  0  0
  -21.8819   -3.8147   23.4346 C   0  0  0  0  0  0
  -21.9194   -4.6964   22.3402 C   0  0  0  0  0  0
  -22.7776  -13.5189   21.1902 C   0  0  0  0  0  0
  -22.1661   -4.2151   21.0980 F   0  0  0  0  0  0
  -21.5627   -3.4538   25.7738 F   0  0  0  0  0  0
  -29.8911  -13.9061   20.3372 N   0  0  0  0  0  0
  -26.2834  -12.9480   20.3203 N   0  0  0  0  0  0
  -25.9330  -11.6596   20.5710 N   0  0  0  0  0  0
  -22.0423  -12.8180   22.0454 N   0  0  0  0  0  0
  -25.4030  -15.1958   20.4145 N   0  0  0  0  0  0
  -31.6486  -15.2637   20.1782 O   0  0  0  0  0  0
  -21.6641   -6.8881   21.4241 O   0  0  0  0  0  0
  -22.3461  -14.5489   20.6737 O   0  0  0  0  0  0
  -24.6603  -31.8262   23.1722 C   0  0  0  0  0  0
  -25.9295  -32.4602   23.8178 C   0  0  1  0  0  0
  -27.2208  -26.9553   20.1860 C   0  0  0  0  0  0
  -25.5970  -33.8415   24.2087 N   0  0  0  0  0  0
  -23.4734  -30.4382   21.5214 C   0  0  2  0  0  0
  -24.9262  -28.8269   20.1168 C   0  0  0  0  0  0
  -22.7650  -29.4455   22.4796 C   0  0  0  0  0  0
  -18.0318  -28.1409   22.8466 C   0  0  0  0  0  0
  -24.1495  -36.7218   23.2648 C   0  0  0  0  0  0
  -26.0408  -30.6426   21.3974 C   0  0  0  0  0  0
  -26.1102  -29.2339   20.7445 C   0  0  0  0  0  0
  -27.2543  -28.3203   20.7507 C   0  0  0  0  0  0
  -26.0065  -26.6911   19.5145 C   0  0  0  0  0  0
  -24.8978  -27.5749   19.4818 C   0  0  0  0  0  0
  -23.7117  -29.7528   20.1482 C   0  0  0  0  0  0
  -25.4134  -36.2977   24.0302 C   0  0  1  0  0  0
  -20.5941  -28.3750   23.1196 C   0  0  2  0  0  0
  -20.6800  -26.9435   22.5403 C   0  0  0  0  0  0
  -19.5773  -26.6379   21.5214 C   0  0  0  0  0  0
  -18.1954  -26.7941   22.1622 C   0  0  0  0  0  0
  -19.1579  -28.8900   23.2818 C   0  0  0  0  0  0
  -18.9489  -30.1490   23.8854 C   0  0  0  0  0  0
  -17.6483  -30.6597   24.0556 C   0  0  0  0  0  0
  -25.9095  -34.9357   23.5015 C   0  0  0  0  0  0
  -16.5373  -29.9086   23.6343 C   0  0  0  0  0  0
  -16.7301  -28.6508   23.0359 C   0  0  0  0  0  0
  -26.4554  -31.6536   25.0697 C   0  0  0  0  0  0
  -25.3687  -31.3779   26.1356 C   0  0  0  0  0  0
  -27.0450  -30.2906   24.6412 C   0  0  0  0  0  0
  -27.6044  -32.4346   25.7502 C   0  0  0  0  0  0
  -27.5570  -37.1768   24.8467 C   0  0  0  0  0  0
  -21.4324  -29.3044   22.3545 N   0  0  0  0  0  0
  -26.4285  -37.3707   23.9403 N   0  0  0  0  0  0
  -24.7460  -30.9952   22.0843 N   0  0  0  0  0  0
  -23.4209  -28.8026   23.3030 O   0  0  0  0  0  0
  -28.2496  -25.8841   20.2199 O   0  0  0  0  0  0
  -26.5703  -34.8886   22.4610 O   0  0  0  0  0  0
  -23.5680  -32.1220   23.6832 O   0  0  0  0  0  0
  -30.3086  -20.3936   20.6974 C   0  0  0  0  0  0
  -28.3559  -18.7899   19.9777 C   0  0  0  0  0  0
  -29.1129  -21.1452   20.3014 C   0  0  0  0  0  0
  -29.5505  -18.0305   20.3727 C   0  0  0  0  0  0
  -29.3868  -23.0054   18.4850 C   0  0  0  0  0  0
  -28.0281  -24.2604   20.3563 C   0  0  0  0  0  0
  -29.0778  -22.8657   19.9817 C   0  0  1  0  0  0
  -28.1563  -20.2056   19.9138 N   0  0  0  0  0  0
  -30.5130  -18.9781   20.7312 N   0  0  0  0  0  0
  -29.5688  -16.4196   20.4140 N   0  0  0  0  0  0
  -31.4659  -12.9915   19.1832 H   0  0  0  0  0  0
  -30.5192  -11.8620   20.1064 H   0  0  0  0  0  0
  -29.9068  -11.7455   17.6664 H   0  0  0  0  0  0
  -29.5725  -13.4593   17.6495 H   0  0  0  0  0  0
  -28.0276  -11.2718   19.0657 H   0  0  0  0  0  0
  -27.4136  -12.3585   17.8454 H   0  0  0  0  0  0
  -27.5411  -14.2392   19.3408 H   0  0  0  0  0  0
  -28.8130  -12.4545   21.4718 H   0  0  0  0  0  0
  -28.3036  -14.1098   21.7127 H   0  0  0  0  0  0
  -25.2774   -9.5678   22.4767 H   0  0  0  0  0  0
  -24.0006   -7.4629   22.7475 H   0  0  0  0  0  0
  -21.0853   -8.8782   19.8950 H   0  0  0  0  0  0
  -22.3717  -10.9675   19.6169 H   0  0  0  0  0  0
  -21.2014   -7.6147   23.9718 H   0  0  0  0  0  0
  -21.1479   -6.0521   25.9078 H   0  0  0  0  0  0
  -22.0597   -2.7609   23.2845 H   0  0  0  0  0  0
  -22.4044  -11.9854   22.4861 H   0  0  0  0  0  0
  -21.1035  -13.1200   22.2644 H   0  0  0  0  0  0
  -24.6219  -15.8349   20.5175 H   0  0  0  0  0  0
  -26.2195  -15.6349   20.0137 H   0  0  0  0  0  0
  -26.7366  -32.5152   23.0897 H   0  0  0  0  0  0
  -25.0055  -33.9495   25.0195 H   0  0  0  0  0  0
  -22.7853  -31.2690   21.3515 H   0  0  0  0  0  0
  -23.3761  -35.9545   23.3291 H   0  0  0  0  0  0
  -24.3570  -36.8881   22.2066 H   0  0  0  0  0  0
  -23.7251  -37.6402   23.6713 H   0  0  0  0  0  0
  -26.2156  -31.3844   20.6170 H   0  0  0  0  0  0
  -26.9032  -30.7011   22.0498 H   0  0  0  0  0  0
  -28.1555  -28.6338   21.2584 H   0  0  0  0  0  0
  -25.8871  -25.7394   19.0181 H   0  0  0  0  0  0
  -23.9986  -27.2578   18.9718 H   0  0  0  0  0  0
  -23.8660  -30.5205   19.3892 H   0  0  0  0  0  0
  -22.8219  -29.2057   19.8318 H   0  0  0  0  0  0
  -25.1333  -36.1779   25.0794 H   0  0  0  0  0  0
  -21.0028  -28.3358   24.1321 H   0  0  0  0  0  0
  -20.5688  -26.2365   23.3639 H   0  0  0  0  0  0
  -21.6663  -26.7420   22.1204 H   0  0  0  0  0  0
  -19.6934  -25.6278   21.1274 H   0  0  0  0  0  0
  -19.6713  -27.3165   20.6724 H   0  0  0  0  0  0
  -17.4222  -26.6678   21.4029 H   0  0  0  0  0  0
  -18.0353  -26.0097   22.9033 H   0  0  0  0  0  0
  -19.7963  -30.7319   24.2204 H   0  0  0  0  0  0
  -17.5033  -31.6273   24.5165 H   0  0  0  0  0  0
  -15.5372  -30.2975   23.7693 H   0  0  0  0  0  0
  -15.8699  -28.0813   22.7101 H   0  0  0  0  0  0
  -24.5883  -30.7114   25.7665 H   0  0  0  0  0  0
  -24.8859  -32.2977   26.4664 H   0  0  0  0  0  0
  -25.7923  -30.9022   27.0210 H   0  0  0  0  0  0
  -26.3112  -29.6581   24.1404 H   0  0  0  0  0  0
  -27.3974  -29.7268   25.5061 H   0  0  0  0  0  0
  -27.9054  -30.4091   23.9825 H   0  0  0  0  0  0
  -27.2604  -33.3682   26.1966 H   0  0  0  0  0  0
  -28.3914  -32.6851   25.0377 H   0  0  0  0  0  0
  -28.0648  -31.8550   26.5514 H   0  0  0  0  0  0
  -28.2578  -38.0071   24.7496 H   0  0  0  0  0  0
  -28.1075  -36.2595   24.6320 H   0  0  0  0  0  0
  -27.2281  -37.1443   25.8868 H   0  0  0  0  0  0
  -20.9573  -29.8728   21.6672 H   0  0  0  0  0  0
  -26.0136  -38.2771   24.1393 H   0  0  0  0  0  0
  -31.1915  -20.9616   20.9530 H   0  0  0  0  0  0
  -27.4882  -18.2234   19.6722 H   0  0  0  0  0  0
  -30.2854  -22.4512   18.2127 H   0  0  0  0  0  0
  -29.5465  -24.0478   18.2076 H   0  0  0  0  0  0
  -28.5635  -22.6217   17.8824 H   0  0  0  0  0  0
  -27.7797  -24.1406   21.4109 H   0  0  0  0  0  0
  -27.0909  -24.0500   19.8431 H   0  0  0  0  0  0
  -29.9935  -23.1621   20.4944 H   0  0  0  0  0  0
  -28.6190  -16.0846   20.4316 H   0  0  0  0  0  0
  1 25  1  0  0  0
  1 30  2  0  0  0
  1 80  1  0  0  0
  2  3  1  0  0  0
  2 25  1  0  0  0
  2 81  1  0  0  0
  2 82  1  0  0  0
  3  4  1  0  0  0
  3 83  1  0  0  0
  3 84  1  0  0  0
  4  5  1  0  0  0
  4 85  1  0  0  0
  4 86  1  0  0  0
  5  6  1  0  0  0
  5 26  1  0  0  0
  5 87  1  0  0  0
  6 25  1  0  0  0
  6 88  1  0  0  0
  6 89  1  0  0  0
  7  8  2  0  0  0
  7 26  1  0  0  0
  7 29  1  0  0  0
  8  9  1  0  0  0
  8 22  1  0  0  0
  9 10  1  0  0  0
  9 27  2  0  0  0
 10 11  2  0  0  0
 10 15  1  0  0  0
 11 12  1  0  0  0
 11 90  1  0  0  0
 12 13  2  0  0  0
 12 91  1  0  0  0
 13 14  1  0  0  0
 13 31  1  0  0  0
 14 15  2  0  0  0
 14 92  1  0  0  0
 15 93  1  0  0  0
 16 17  2  0  0  0
 16 21  1  0  0  0
 16 31  1  0  0  0
 17 18  1  0  0  0
 17 94  1  0  0  0
 18 19  2  0  0  0
 18 95  1  0  0  0
 19 20  1  0  0  0
 19 24  1  0  0  0
 20 21  2  0  0  0
 20 96  1  0  0  0
 21 23  1  0  0  0
 22 28  1  0  0  0
 22 32  2  0  0  0
 26 27  1  0  0  0
 28 97  1  0  0  0
 28 98  1  0  0  0
 29 99  1  0  0  0
 29100  1  0  0  0
 33 34  1  0  0  0
 33 66  1  0  0  0
 33 70  2  0  0  0
 34 36  1  0  0  0
 34 59  1  0  0  0
 34101  1  0  0  0
 35 44  2  0  0  0
 35 45  1  0  0  0
 35 68  1  0  0  0
 36 56  1  0  0  0
 36102  1  0  0  0
 37 39  1  0  0  0
 37 47  1  0  0  0
 37 66  1  0  0  0
 37103  1  0  0  0
 38 43  2  0  0  0
 38 46  1  0  0  0
 38 47  1  0  0  0
 39 64  1  0  0  0
 39 67  2  0  0  0
 40 52  1  0  0  0
 40 53  2  0  0  0
 40 58  1  0  0  0
 41104  1  0  0  0
 41105  1  0  0  0
 41106  1  0  0  0
 41 48  1  0  0  0
 42 43  1  0  0  0
 42 66  1  0  0  0
 42107  1  0  0  0
 42108  1  0  0  0
 43 44  1  0  0  0
 44109  1  0  0  0
 45 46  2  0  0  0
 45110  1  0  0  0
 46111  1  0  0  0
 47112  1  0  0  0
 47113  1  0  0  0
 48 56  1  0  0  0
 48 65  1  0  0  0
 48114  1  0  0  0
 49 50  1  0  0  0
 49 53  1  0  0  0
 49 64  1  0  0  0
 49115  1  0  0  0
 50 51  1  0  0  0
 50116  1  0  0  0
 50117  1  0  0  0
 51 52  1  0  0  0
 51118  1  0  0  0
 51119  1  0  0  0
 52120  1  0  0  0
 52121  1  0  0  0
 53 54  1  0  0  0
 54 55  2  0  0  0
 54122  1  0  0  0
 55 57  1  0  0  0
 55123  1  0  0  0
 56 69  2  0  0  0
 57 58  2  0  0  0
 57124  1  0  0  0
 58125  1  0  0  0
 59 60  1  0  0  0
 59 61  1  0  0  0
 59 62  1  0  0  0
 60126  1  0  0  0
 60127  1  0  0  0
 60128  1  0  0  0
 61129  1  0  0  0
 61130  1  0  0  0
 61131  1  0  0  0
 62132  1  0  0  0
 62133  1  0  0  0
 62134  1  0  0  0
 63 65  1  0  0  0
 63135  1  0  0  0
 63136  1  0  0  0
 63137  1  0  0  0
 64138  1  0  0  0
 65139  1  0  0  0
 68 76  1  0  0  0
 71 73  2  0  0  0
 71 79  1  0  0  0
 71140  1  0  0  0
 72 74  1  0  0  0
 72 78  2  0  0  0
 72141  1  0  0  0
 73 77  1  0  0  0
 73 78  1  0  0  0
 74 79  2  0  0  0
 74 80  1  0  0  0
 75142  1  0  0  0
 75143  1  0  0  0
 75144  1  0  0  0
 75 77  1  0  0  0
 76 77  1  0  0  0
 76145  1  0  0  0
 76146  1  0  0  0
 77147  1  0  0  0
 80148  1  0  0  0
M  ISO  4   1 100  68 101  76 101  80 100
M  END
> <chiral flag>
0

> <version>
0

> <s_m_source_file>
/data/baiqing/PycharmProjects/Reinvent-master-3.2/result/LINK_invent/BTK/process_docking_weight1_custom_sum_contain_oxygen_bond_distance_aromatic_linkinvent_7_9_3/rearranged_h_0176.sdf

> <i_m_source_file_index>
10

> <r_mmod_Potential_Energy-OPLS-2005>
1130.2900390625

> <r_mmod_Stretch_Energy-OPLS-2005>
496.359039306641

> <r_mmod_Bend_Energy-OPLS-2005>
425.427612304688

> <r_mmod_Torsional_Energy-OPLS-2005>
210.770263671875

> <r_mmod_Improper_Torsional_Energy-OPLS-2005>
7.54112529754639

> <r_mmod_Van_der_Waal_Energy-OPLS-2005>
128.770736694336

> <r_mmod_Electrostatic_Energy-OPLS-2005>
-313.87451171875

> <r_mmod_Solvation_Energy-OPLS-2005>
-236.42317199707

> <b_mmod_Minimization_Converged-OPLS-2005>
0

> <r_mmod_RMS_Derivative-OPLS-2005>
0.433307707309723

$$$$
10
                    3D
 Structure written by MMmdl.
162171  0  0  1  0            999 V2000
  -30.5246  -15.0257   20.4019 C   0  0  0  0  0  0
  -30.4442  -12.6233   19.5484 C   0  0  0  0  0  0
  -29.5576  -12.4971   18.2911 C   0  0  0  0  0  0
  -28.0800  -12.2902   18.6869 C   0  0  0  0  0  0
  -27.6231  -13.2527   19.8166 C   0  0  2  0  0  0
  -28.6532  -13.3709   20.9606 C   0  0  0  0  0  0
  -25.2486  -13.8172   20.5741 C   0  0  0  0  0  0
  -24.1795  -13.0430   20.9227 C   0  0  0  0  0  0
  -24.6397  -11.6891   20.8681 C   0  0  0  0  0  0
  -23.9094  -10.4266   21.0363 C   0  0  0  0  0  0
  -24.3647   -9.4187   21.9158 C   0  0  0  0  0  0
  -23.6303   -8.2232   22.0758 C   0  0  0  0  0  0
  -22.4284   -8.0261   21.3545 C   0  0  0  0  0  0
  -21.9908   -9.0224   20.4644 C   0  0  0  0  0  0
  -22.7250  -10.2095   20.3032 C   0  0  0  0  0  0
  -21.6863   -6.0703   22.5269 C   0  0  0  0  0  0
  -21.4026   -6.5606   23.8184 C   0  0  0  0  0  0
  -21.3678   -5.6778   24.9149 C   0  0  0  0  0  0
  -21.6080   -4.3034   24.7237 C   0  0  0  0  0  0
  -21.8822   -3.8117   23.4359 C   0  0  0  0  0  0
  -21.9209   -4.6922   22.3406 C   0  0  0  0  0  0
  -22.7817  -13.5192   21.1910 C   0  0  0  0  0  0
  -22.1684   -4.2101   21.0986 F   0  0  0  0  0  0
  -21.5637   -3.4537   25.7759 F   0  0  0  0  0  0
  -29.9267  -13.7648   20.3485 N   0  0  0  0  0  0
  -26.2866  -12.9438   20.3102 N   0  0  0  0  0  0
  -25.9328  -11.6566   20.5668 N   0  0  0  0  0  0
  -22.0453  -12.8160   22.0431 N   0  0  0  0  0  0
  -25.4285  -15.1912   20.4227 N   0  0  0  0  0  0
  -31.7488  -15.0677   20.2362 O   0  0  0  0  0  0
  -21.6660   -6.8840   21.4230 O   0  0  0  0  0  0
  -22.3538  -14.5548   20.6805 O   0  0  0  0  0  0
  -24.6504  -31.8351   23.1795 C   0  0  0  0  0  0
  -25.9228  -32.4648   23.8226 C   0  0  1  0  0  0
  -27.2394  -27.0870   20.1676 C   0  0  0  0  0  0
  -25.5957  -33.8465   24.2169 N   0  0  0  0  0  0
  -23.4594  -30.4476   21.5250 C   0  0  2  0  0  0
  -24.9123  -28.8495   20.1214 C   0  0  0  0  0  0
  -22.7619  -29.4514   22.4856 C   0  0  0  0  0  0
  -18.0310  -28.1401   22.8446 C   0  0  0  0  0  0
  -24.1492  -36.7261   23.2650 C   0  0  0  0  0  0
  -26.0150  -30.6908   21.3816 C   0  0  0  0  0  0
  -26.0895  -29.2921   20.7371 C   0  0  0  0  0  0
  -27.2559  -28.4352   20.7245 C   0  0  0  0  0  0
  -26.0246  -26.7352   19.5453 C   0  0  0  0  0  0
  -24.8970  -27.5878   19.5068 C   0  0  0  0  0  0
  -23.6932  -29.7630   20.1494 C   0  0  0  0  0  0
  -25.4119  -36.3033   24.0331 C   0  0  1  0  0  0
  -20.5913  -28.3764   23.1222 C   0  0  2  0  0  0
  -20.6785  -26.9460   22.5396 C   0  0  0  0  0  0
  -19.5772  -26.6395   21.5185 C   0  0  0  0  0  0
  -18.1956  -26.7939   22.1598 C   0  0  0  0  0  0
  -19.1550  -28.8909   23.2818 C   0  0  0  0  0  0
  -18.9477  -30.1491   23.8872 C   0  0  0  0  0  0
  -17.6467  -30.6590   24.0565 C   0  0  0  0  0  0
  -25.9079  -34.9401   23.5071 C   0  0  0  0  0  0
  -16.5364  -29.9088   23.6313 C   0  0  0  0  0  0
  -16.7297  -28.6504   23.0344 C   0  0  0  0  0  0
  -26.4533  -31.6521   25.0683 C   0  0  0  0  0  0
  -25.3752  -31.3658   26.1402 C   0  0  0  0  0  0
  -27.0422  -30.2933   24.6250 C   0  0  0  0  0  0
  -27.6077  -32.4291   25.7458 C   0  0  0  0  0  0
  -27.5572  -37.1784   24.8478 C   0  0  0  0  0  0
  -21.4305  -29.3060   22.3602 N   0  0  0  0  0  0
  -26.4293  -37.3738   23.9416 N   0  0  0  0  0  0
  -24.7286  -31.0182   22.0834 N   0  0  0  0  0  0
  -23.4225  -28.8107   23.3057 O   0  0  0  0  0  0
  -28.3606  -26.1734   20.0730 O   0  0  0  0  0  0
  -26.5679  -34.8903   22.4651 O   0  0  0  0  0  0
  -23.5617  -32.1261   23.6983 O   0  0  0  0  0  0
  -29.0013  -20.4257   20.4873 C   0  0  0  0  0  0
  -29.1433  -21.7367   19.7887 C   0  0  0  0  0  0
  -30.1003  -21.6476   18.7452 C   0  0  0  0  0  0
  -29.7348  -19.1672   20.1327 C   0  0  0  0  0  0
  -30.7839  -20.4292   18.4512 C   0  0  0  0  0  0
  -30.2126  -22.8577   17.8292 C   0  0  0  0  0  0
  -28.8171  -23.1115   17.2565 C   0  0  0  0  0  0
  -27.7887  -23.4754   18.3463 C   0  0  0  0  0  0
  -28.2156  -23.1497   19.8039 C   0  0  2  0  0  0
  -31.7744  -20.3297   17.3009 C   0  0  0  0  0  0
  -29.0713  -17.8059   22.2385 C   0  0  0  0  0  0
  -28.5221  -24.6666   20.5275 C   0  0  0  0  0  0
  -29.8884  -17.7150   20.9444 C   0  0  2  0  0  0
  -30.6055  -19.2597   19.1095 N   0  0  0  0  0  0
  -29.7275  -16.2123   20.4320 N   0  0  0  0  0  0
  -31.4941  -12.7631   19.2927 H   0  0  0  0  0  0
  -30.4010  -11.7094   20.1454 H   0  0  0  0  0  0
  -29.6613  -13.3924   17.6775 H   0  0  0  0  0  0
  -29.9014  -11.6595   17.6810 H   0  0  0  0  0  0
  -27.9768  -11.2594   19.0295 H   0  0  0  0  0  0
  -27.4458  -12.3845   17.8075 H   0  0  0  0  0  0
  -27.5616  -14.2301   19.3388 H   0  0  0  0  0  0
  -28.7445  -12.4502   21.5348 H   0  0  0  0  0  0
  -28.3391  -14.1399   21.6657 H   0  0  0  0  0  0
  -25.2755   -9.5695   22.4774 H   0  0  0  0  0  0
  -24.0019   -7.4636   22.7486 H   0  0  0  0  0  0
  -21.0845   -8.8709   19.8961 H   0  0  0  0  0  0
  -22.3669  -10.9635   19.6162 H   0  0  0  0  0  0
  -21.2002   -7.6111   23.9675 H   0  0  0  0  0  0
  -21.1524   -6.0498   25.9051 H   0  0  0  0  0  0
  -22.0609   -2.7578   23.2867 H   0  0  0  0  0  0
  -22.4128  -11.9813   22.4777 H   0  0  0  0  0  0
  -21.1107  -13.1238   22.2749 H   0  0  0  0  0  0
  -24.6728  -15.8576   20.5217 H   0  0  0  0  0  0
  -26.2808  -15.6153   20.0867 H   0  0  0  0  0  0
  -26.7303  -32.5231   23.0966 H   0  0  0  0  0  0
  -25.0108  -33.9531   25.0320 H   0  0  0  0  0  0
  -22.7626  -31.2692   21.3575 H   0  0  0  0  0  0
  -23.3751  -35.9591   23.3300 H   0  0  0  0  0  0
  -24.3611  -36.8901   22.2071 H   0  0  0  0  0  0
  -23.7218  -37.6449   23.6688 H   0  0  0  0  0  0
  -26.1612  -31.4284   20.5921 H   0  0  0  0  0  0
  -26.8890  -30.7588   22.0171 H   0  0  0  0  0  0
  -28.1684  -28.7895   21.1834 H   0  0  0  0  0  0
  -25.9345  -25.7693   19.0738 H   0  0  0  0  0  0
  -24.0100  -27.2335   19.0020 H   0  0  0  0  0  0
  -23.8416  -30.5261   19.3826 H   0  0  0  0  0  0
  -22.8043  -29.2104   19.8443 H   0  0  0  0  0  0
  -25.1279  -36.1879   25.0822 H   0  0  0  0  0  0
  -20.9971  -28.3334   24.1348 H   0  0  0  0  0  0
  -20.5658  -26.2373   23.3615 H   0  0  0  0  0  0
  -21.6663  -26.7443   22.1195 H   0  0  0  0  0  0
  -19.6935  -25.6292   21.1246 H   0  0  0  0  0  0
  -19.6697  -27.3177   20.6692 H   0  0  0  0  0  0
  -17.4208  -26.6666   21.4017 H   0  0  0  0  0  0
  -18.0386  -26.0083   22.9008 H   0  0  0  0  0  0
  -19.7969  -30.7299   24.2237 H   0  0  0  0  0  0
  -17.5039  -31.6263   24.5202 H   0  0  0  0  0  0
  -15.5376  -30.3003   23.7659 H   0  0  0  0  0  0
  -15.8690  -28.0842   22.7064 H   0  0  0  0  0  0
  -24.5961  -30.6957   25.7709 H   0  0  0  0  0  0
  -24.8904  -32.2824   26.4804 H   0  0  0  0  0  0
  -25.8093  -30.8853   27.0190 H   0  0  0  0  0  0
  -26.3030  -29.6607   24.1317 H   0  0  0  0  0  0
  -27.4131  -29.7255   25.4789 H   0  0  0  0  0  0
  -27.8886  -30.4174   23.9492 H   0  0  0  0  0  0
  -27.2686  -33.3629   26.1956 H   0  0  0  0  0  0
  -28.3921  -32.6780   25.0296 H   0  0  0  0  0  0
  -28.0720  -31.8471   26.5440 H   0  0  0  0  0  0
  -28.2593  -38.0076   24.7519 H   0  0  0  0  0  0
  -28.1073  -36.2614   24.6317 H   0  0  0  0  0  0
  -27.2329  -37.1438   25.8895 H   0  0  0  0  0  0
  -20.9565  -29.8802   21.6767 H   0  0  0  0  0  0
  -26.0176  -38.2817   24.1384 H   0  0  0  0  0  0
  -28.3002  -20.3769   21.3063 H   0  0  0  0  0  0
  -30.9267  -22.7206   17.0197 H   0  0  0  0  0  0
  -30.5593  -23.7273   18.3854 H   0  0  0  0  0  0
  -28.5010  -22.1905   16.7689 H   0  0  0  0  0  0
  -28.8457  -23.8805   16.4854 H   0  0  0  0  0  0
  -26.8757  -22.9270   18.1134 H   0  0  0  0  0  0
  -27.5293  -24.5307   18.2542 H   0  0  0  0  0  0
  -27.3003  -22.8164   20.2986 H   0  0  0  0  0  0
  -31.2753  -20.4955   16.3468 H   0  0  0  0  0  0
  -32.2486  -19.3489   17.2511 H   0  0  0  0  0  0
  -32.5640  -21.0743   17.4207 H   0  0  0  0  0  0
  -29.2434  -16.9471   22.8885 H   0  0  0  0  0  0
  -28.0071  -17.8658   22.0169 H   0  0  0  0  0  0
  -29.3437  -18.6985   22.7959 H   0  0  0  0  0  0
  -29.6015  -24.6291   20.6771 H   0  0  0  0  0  0
  -28.1313  -24.6196   21.5449 H   0  0  0  0  0  0
  -30.9331  -17.7443   21.2619 H   0  0  0  0  0  0
  -28.7568  -15.9808   20.3079 H   0  0  0  0  0  0
  1 25  1  0  0  0
  1 30  2  0  0  0
  1 85  1  0  0  0
  2  3  1  0  0  0
  2 25  1  0  0  0
  2 86  1  0  0  0
  2 87  1  0  0  0
  3  4  1  0  0  0
  3 88  1  0  0  0
  3 89  1  0  0  0
  4  5  1  0  0  0
  4 90  1  0  0  0
  4 91  1  0  0  0
  5  6  1  0  0  0
  5 26  1  0  0  0
  5 92  1  0  0  0
  6 25  1  0  0  0
  6 93  1  0  0  0
  6 94  1  0  0  0
  7  8  2  0  0  0
  7 26  1  0  0  0
  7 29  1  0  0  0
  8  9  1  0  0  0
  8 22  1  0  0  0
  9 10  1  0  0  0
  9 27  2  0  0  0
 10 11  2  0  0  0
 10 15  1  0  0  0
 11 12  1  0  0  0
 11 95  1  0  0  0
 12 13  2  0  0  0
 12 96  1  0  0  0
 13 14  1  0  0  0
 13 31  1  0  0  0
 14 15  2  0  0  0
 14 97  1  0  0  0
 15 98  1  0  0  0
 16 17  2  0  0  0
 16 21  1  0  0  0
 16 31  1  0  0  0
 17 18  1  0  0  0
 17 99  1  0  0  0
 18 19  2  0  0  0
 18100  1  0  0  0
 19 20  1  0  0  0
 19 24  1  0  0  0
 20 21  2  0  0  0
 20101  1  0  0  0
 21 23  1  0  0  0
 22 28  1  0  0  0
 22 32  2  0  0  0
 26 27  1  0  0  0
 28102  1  0  0  0
 28103  1  0  0  0
 29104  1  0  0  0
 29105  1  0  0  0
 33 34  1  0  0  0
 33 66  1  0  0  0
 33 70  2  0  0  0
 34 36  1  0  0  0
 34 59  1  0  0  0
 34106  1  0  0  0
 35 44  2  0  0  0
 35 45  1  0  0  0
 35 68  1  0  0  0
 36 56  1  0  0  0
 36107  1  0  0  0
 37 39  1  0  0  0
 37 47  1  0  0  0
 37 66  1  0  0  0
 37108  1  0  0  0
 38 43  2  0  0  0
 38 46  1  0  0  0
 38 47  1  0  0  0
 39 64  1  0  0  0
 39 67  2  0  0  0
 40 52  1  0  0  0
 40 53  2  0  0  0
 40 58  1  0  0  0
 41109  1  0  0  0
 41110  1  0  0  0
 41111  1  0  0  0
 41 48  1  0  0  0
 42 43  1  0  0  0
 42 66  1  0  0  0
 42112  1  0  0  0
 42113  1  0  0  0
 43 44  1  0  0  0
 44114  1  0  0  0
 45 46  2  0  0  0
 45115  1  0  0  0
 46116  1  0  0  0
 47117  1  0  0  0
 47118  1  0  0  0
 48 56  1  0  0  0
 48 65  1  0  0  0
 48119  1  0  0  0
 49 50  1  0  0  0
 49 53  1  0  0  0
 49 64  1  0  0  0
 49120  1  0  0  0
 50 51  1  0  0  0
 50121  1  0  0  0
 50122  1  0  0  0
 51 52  1  0  0  0
 51123  1  0  0  0
 51124  1  0  0  0
 52125  1  0  0  0
 52126  1  0  0  0
 53 54  1  0  0  0
 54 55  2  0  0  0
 54127  1  0  0  0
 55 57  1  0  0  0
 55128  1  0  0  0
 56 69  2  0  0  0
 57 58  2  0  0  0
 57129  1  0  0  0
 58130  1  0  0  0
 59 60  1  0  0  0
 59 61  1  0  0  0
 59 62  1  0  0  0
 60131  1  0  0  0
 60132  1  0  0  0
 60133  1  0  0  0
 61134  1  0  0  0
 61135  1  0  0  0
 61136  1  0  0  0
 62137  1  0  0  0
 62138  1  0  0  0
 62139  1  0  0  0
 63 65  1  0  0  0
 63140  1  0  0  0
 63141  1  0  0  0
 63142  1  0  0  0
 64143  1  0  0  0
 65144  1  0  0  0
 68 82  1  0  0  0
 71 72  2  0  0  0
 71 74  1  0  0  0
 71145  1  0  0  0
 72 73  1  0  0  0
 72 79  1  0  0  0
 73 75  2  0  0  0
 73 76  1  0  0  0
 74 83  1  0  0  0
 74 84  2  0  0  0
 75 80  1  0  0  0
 75 84  1  0  0  0
 76 77  1  0  0  0
 76146  1  0  0  0
 76147  1  0  0  0
 77 78  1  0  0  0
 77148  1  0  0  0
 77149  1  0  0  0
 78 79  1  0  0  0
 78150  1  0  0  0
 78151  1  0  0  0
 79 82  1  0  0  0
 79152  1  0  0  0
 80153  1  0  0  0
 80154  1  0  0  0
 80155  1  0  0  0
 81156  1  0  0  0
 81157  1  0  0  0
 81158  1  0  0  0
 81 83  1  0  0  0
 82159  1  0  0  0
 82160  1  0  0  0
 83 85  1  0  0  0
 83161  1  0  0  0
 85162  1  0  0  0
M  ISO  4   1 100  68 101  82 101  85 100
M  END
> <chiral flag>
0

> <version>
0

> <s_m_source_file>
/data/baiqing/PycharmProjects/Reinvent-master-3.2/result/LINK_invent/BTK/process_docking_weight1_custom_sum_contain_oxygen_bond_distance_aromatic_linkinvent_7_9_3/rearranged_h_0176.sdf

> <i_m_source_file_index>
11

> <r_mmod_Potential_Energy-OPLS-2005>
509.061553955078

> <r_mmod_Stretch_Energy-OPLS-2005>
308.856109619141

> <r_mmod_Bend_Energy-OPLS-2005>
358.578308105469

> <r_mmod_Torsional_Energy-OPLS-2005>
281.503784179688

> <r_mmod_Improper_Torsional_Energy-OPLS-2005>
9.30339431762695

> <r_mmod_Van_der_Waal_Energy-OPLS-2005>
136.353240966797

> <r_mmod_Electrostatic_Energy-OPLS-2005>
-593.544067382812

> <r_mmod_Solvation_Energy-OPLS-2005>
-231.710342407227

> <b_mmod_Minimization_Converged-OPLS-2005>
0

> <r_mmod_RMS_Derivative-OPLS-2005>
6.44851636886597

$$$$
11
                    3D
 Structure written by MMmdl.
154162  0  0  1  0            999 V2000
  -30.5446  -14.9450   20.4406 C   0  0  0  0  0  0
  -30.4457  -12.5837   19.5116 C   0  0  0  0  0  0
  -29.5395  -12.5559   18.2626 C   0  0  0  0  0  0
  -28.0700  -12.3342   18.6634 C   0  0  0  0  0  0
  -27.6344  -13.2469   19.8420 C   0  0  2  0  0  0
  -28.6737  -13.2536   20.9805 C   0  0  0  0  0  0
  -25.2467  -13.8182   20.5660 C   0  0  0  0  0  0
  -24.1768  -13.0417   20.9176 C   0  0  0  0  0  0
  -24.6409  -11.6902   20.8699 C   0  0  0  0  0  0
  -23.9069  -10.4299   21.0374 C   0  0  0  0  0  0
  -24.3608   -9.4227   21.9173 C   0  0  0  0  0  0
  -23.6287   -8.2252   22.0748 C   0  0  0  0  0  0
  -22.4289   -8.0271   21.3522 C   0  0  0  0  0  0
  -21.9902   -9.0267   20.4635 C   0  0  0  0  0  0
  -22.7228  -10.2144   20.3052 C   0  0  0  0  0  0
  -21.6873   -6.0713   22.5267 C   0  0  0  0  0  0
  -21.4045   -6.5609   23.8216 C   0  0  0  0  0  0
  -21.3674   -5.6766   24.9166 C   0  0  0  0  0  0
  -21.6048   -4.3022   24.7222 C   0  0  0  0  0  0
  -21.8826   -3.8116   23.4352 C   0  0  0  0  0  0
  -21.9196   -4.6936   22.3399 C   0  0  0  0  0  0
  -22.7802  -13.5196   21.1832 C   0  0  0  0  0  0
  -22.1618   -4.2098   21.0977 F   0  0  0  0  0  0
  -21.5634   -3.4527   25.7747 F   0  0  0  0  0  0
  -29.9475  -13.6834   20.3877 N   0  0  0  0  0  0
  -26.2894  -12.9413   20.3190 N   0  0  0  0  0  0
  -25.9332  -11.6548   20.5699 N   0  0  0  0  0  0
  -22.0396  -12.8264   22.0386 N   0  0  0  0  0  0
  -25.4106  -15.1929   20.4139 N   0  0  0  0  0  0
  -31.7330  -15.0047   20.1078 O   0  0  0  0  0  0
  -21.6644   -6.8870   21.4246 O   0  0  0  0  0  0
  -22.3528  -14.5540   20.6693 O   0  0  0  0  0  0
  -24.6431  -31.8458   23.1904 C   0  0  0  0  0  0
  -25.9213  -32.4677   23.8292 C   0  0  1  0  0  0
  -27.2184  -27.1361   20.1309 C   0  0  0  0  0  0
  -25.5980  -33.8487   24.2211 N   0  0  0  0  0  0
  -23.4459  -30.4657   21.5360 C   0  0  2  0  0  0
  -24.8947  -28.8981   20.0992 C   0  0  0  0  0  0
  -22.7587  -29.4543   22.4877 C   0  0  0  0  0  0
  -18.0313  -28.1378   22.8476 C   0  0  0  0  0  0
  -24.1510  -36.7242   23.2646 C   0  0  0  0  0  0
  -26.0045  -30.7113   21.3976 C   0  0  0  0  0  0
  -26.0734  -29.3287   20.7231 C   0  0  0  0  0  0
  -27.2326  -28.4647   20.7226 C   0  0  0  0  0  0
  -26.0161  -26.8100   19.4660 C   0  0  0  0  0  0
  -24.8826  -27.6523   19.4515 C   0  0  0  0  0  0
  -23.6712  -29.8016   20.1511 C   0  0  0  0  0  0
  -25.4141  -36.3022   24.0323 C   0  0  1  0  0  0
  -20.5923  -28.3703   23.1245 C   0  0  2  0  0  0
  -20.6804  -26.9413   22.5399 C   0  0  0  0  0  0
  -19.5775  -26.6370   21.5214 C   0  0  0  0  0  0
  -18.1954  -26.7926   22.1616 C   0  0  0  0  0  0
  -19.1569  -28.8862   23.2845 C   0  0  0  0  0  0
  -18.9475  -30.1472   23.8841 C   0  0  0  0  0  0
  -17.6461  -30.6569   24.0553 C   0  0  0  0  0  0
  -25.9083  -34.9397   23.5074 C   0  0  0  0  0  0
  -16.5355  -29.9055   23.6329 C   0  0  0  0  0  0
  -16.7295  -28.6482   23.0344 C   0  0  0  0  0  0
  -26.4542  -31.6532   25.0727 C   0  0  0  0  0  0
  -25.3731  -31.3718   26.1424 C   0  0  0  0  0  0
  -27.0432  -30.2918   24.6360 C   0  0  0  0  0  0
  -27.6075  -32.4331   25.7485 C   0  0  0  0  0  0
  -27.5600  -37.1773   24.8468 C   0  0  0  0  0  0
  -21.4283  -29.3028   22.3621 N   0  0  0  0  0  0
  -26.4310  -37.3730   23.9404 N   0  0  0  0  0  0
  -24.7165  -31.0310   22.0938 N   0  0  0  0  0  0
  -23.4232  -28.8093   23.3033 O   0  0  0  0  0  0
  -28.2693  -26.1456   20.2006 O   0  0  0  0  0  0
  -26.5665  -34.8899   22.4653 O   0  0  0  0  0  0
  -23.5555  -32.1372   23.7097 O   0  0  0  0  0  0
  -29.4661  -20.6071   20.4719 C   0  0  0  0  0  0
  -30.4209  -17.5257   22.0672 C   0  0  0  0  0  0
  -29.3501  -16.4331   22.0234 C   0  0  0  0  0  0
  -30.1658  -17.7083   20.5780 C   0  0  2  0  0  0
  -29.0327  -23.3170   20.3374 C   0  0  0  0  0  0
  -28.0371  -24.6231   19.9124 C   0  0  0  0  0  0
  -29.1419  -18.9976   20.1248 C   0  0  2  0  0  0
  -29.7851  -16.1514   20.6444 N   0  0  0  0  0  0
  -28.7539  -21.7754   20.0561 N   0  0  0  0  0  0
  -28.8150  -18.8689   18.6978 N   0  3  0  0  0  0
  -30.4636  -20.8057   21.1655 O   0  0  0  0  0  0
  -31.4912  -12.7166   19.2298 H   0  0  0  0  0  0
  -30.4066  -11.6256   20.0282 H   0  0  0  0  0  0
  -29.8783  -11.7775   17.5774 H   0  0  0  0  0  0
  -29.6292  -13.5060   17.7306 H   0  0  0  0  0  0
  -27.9727  -11.2896   18.9542 H   0  0  0  0  0  0
  -27.4241  -12.4725   17.7971 H   0  0  0  0  0  0
  -27.6035  -14.2597   19.4384 H   0  0  0  0  0  0
  -28.7586  -12.2704   21.4463 H   0  0  0  0  0  0
  -28.3689  -13.9384   21.7698 H   0  0  0  0  0  0
  -25.2724   -9.5734   22.4776 H   0  0  0  0  0  0
  -23.9982   -7.4676   22.7491 H   0  0  0  0  0  0
  -21.0804   -8.8812   19.8964 H   0  0  0  0  0  0
  -22.3658  -10.9704   19.6190 H   0  0  0  0  0  0
  -21.2058   -7.6127   23.9728 H   0  0  0  0  0  0
  -21.1484   -6.0471   25.9077 H   0  0  0  0  0  0
  -22.0611   -2.7582   23.2861 H   0  0  0  0  0  0
  -22.3891  -11.9885   22.4794 H   0  0  0  0  0  0
  -21.1064  -13.1434   22.2608 H   0  0  0  0  0  0
  -24.6362  -15.8400   20.5128 H   0  0  0  0  0  0
  -26.2626  -15.6325   20.0945 H   0  0  0  0  0  0
  -26.7283  -32.5266   23.1026 H   0  0  0  0  0  0
  -25.0109  -33.9610   25.0345 H   0  0  0  0  0  0
  -22.7449  -31.2894   21.3886 H   0  0  0  0  0  0
  -23.3784  -35.9560   23.3293 H   0  0  0  0  0  0
  -24.3595  -36.8883   22.2063 H   0  0  0  0  0  0
  -23.7242  -37.6427   23.6688 H   0  0  0  0  0  0
  -26.1870  -31.4788   20.6433 H   0  0  0  0  0  0
  -26.8630  -30.7367   22.0562 H   0  0  0  0  0  0
  -28.1282  -28.7920   21.2345 H   0  0  0  0  0  0
  -25.9227  -25.8597   18.9637 H   0  0  0  0  0  0
  -23.9905  -27.3182   18.9403 H   0  0  0  0  0  0
  -23.8010  -30.5848   19.4040 H   0  0  0  0  0  0
  -22.7828  -29.2494   19.8389 H   0  0  0  0  0  0
  -25.1319  -36.1873   25.0811 H   0  0  0  0  0  0
  -21.0016  -28.3284   24.1367 H   0  0  0  0  0  0
  -20.5724  -26.2305   23.3614 H   0  0  0  0  0  0
  -21.6665  -26.7434   22.1172 H   0  0  0  0  0  0
  -19.6936  -25.6279   21.1254 H   0  0  0  0  0  0
  -19.6726  -27.3177   20.6750 H   0  0  0  0  0  0
  -17.4246  -26.6697   21.4004 H   0  0  0  0  0  0
  -18.0330  -26.0057   22.8995 H   0  0  0  0  0  0
  -19.7945  -30.7324   24.2167 H   0  0  0  0  0  0
  -17.5000  -31.6240   24.5180 H   0  0  0  0  0  0
  -15.5353  -30.2927   23.7672 H   0  0  0  0  0  0
  -15.8708  -28.0784   22.7061 H   0  0  0  0  0  0
  -24.5827  -30.7192   25.7701 H   0  0  0  0  0  0
  -24.9031  -32.2907   26.4946 H   0  0  0  0  0  0
  -25.7989  -30.8754   27.0152 H   0  0  0  0  0  0
  -26.3063  -29.6593   24.1394 H   0  0  0  0  0  0
  -27.4044  -29.7276   25.4975 H   0  0  0  0  0  0
  -27.8986  -30.4146   23.9708 H   0  0  0  0  0  0
  -27.2631  -33.3595   26.2115 H   0  0  0  0  0  0
  -28.3818  -32.6973   25.0257 H   0  0  0  0  0  0
  -28.0848  -31.8452   26.5348 H   0  0  0  0  0  0
  -28.2597  -38.0088   24.7505 H   0  0  0  0  0  0
  -28.1116  -36.2611   24.6304 H   0  0  0  0  0  0
  -27.2311  -37.1418   25.8869 H   0  0  0  0  0  0
  -20.9504  -29.8729   21.6784 H   0  0  0  0  0  0
  -26.0193  -38.2809   24.1370 H   0  0  0  0  0  0
  -31.4087  -17.1221   22.2985 H   0  0  0  0  0  0
  -30.1939  -18.3873   22.6956 H   0  0  0  0  0  0
  -28.3227  -16.7981   22.1001 H   0  0  0  0  0  0
  -29.5404  -15.6506   22.7642 H   0  0  0  0  0  0
  -31.1288  -17.8355   20.0791 H   0  0  0  0  0  0
  -29.2017  -23.3905   21.4110 H   0  0  0  0  0  0
  -30.0102  -23.5164   19.8955 H   0  0  0  0  0  0
  -27.0540  -24.3814   20.3221 H   0  0  0  0  0  0
  -27.9168  -24.5692   18.8266 H   0  0  0  0  0  0
  -28.1998  -18.8175   20.6444 H   0  0  0  0  0  0
  -27.9244  -21.6122   19.5016 H   0  0  0  0  0  0
  -29.6304  -19.0652   18.1459 H   0  0  0  0  0  0
  -28.0962  -19.5169   18.4383 H   0  0  0  0  0  0
  -28.5046  -17.9368   18.4932 H   0  0  0  0  0  0
  1 25  1  0  0  0
  1 30  2  0  0  0
  1 78  1  0  0  0
  2  3  1  0  0  0
  2 25  1  0  0  0
  2 82  1  0  0  0
  2 83  1  0  0  0
  3  4  1  0  0  0
  3 84  1  0  0  0
  3 85  1  0  0  0
  4  5  1  0  0  0
  4 86  1  0  0  0
  4 87  1  0  0  0
  5  6  1  0  0  0
  5 26  1  0  0  0
  5 88  1  0  0  0
  6 25  1  0  0  0
  6 89  1  0  0  0
  6 90  1  0  0  0
  7  8  2  0  0  0
  7 26  1  0  0  0
  7 29  1  0  0  0
  8  9  1  0  0  0
  8 22  1  0  0  0
  9 10  1  0  0  0
  9 27  2  0  0  0
 10 11  2  0  0  0
 10 15  1  0  0  0
 11 12  1  0  0  0
 11 91  1  0  0  0
 12 13  2  0  0  0
 12 92  1  0  0  0
 13 14  1  0  0  0
 13 31  1  0  0  0
 14 15  2  0  0  0
 14 93  1  0  0  0
 15 94  1  0  0  0
 16 17  2  0  0  0
 16 21  1  0  0  0
 16 31  1  0  0  0
 17 18  1  0  0  0
 17 95  1  0  0  0
 18 19  2  0  0  0
 18 96  1  0  0  0
 19 20  1  0  0  0
 19 24  1  0  0  0
 20 21  2  0  0  0
 20 97  1  0  0  0
 21 23  1  0  0  0
 22 28  1  0  0  0
 22 32  2  0  0  0
 26 27  1  0  0  0
 28 98  1  0  0  0
 28 99  1  0  0  0
 29100  1  0  0  0
 29101  1  0  0  0
 33 34  1  0  0  0
 33 66  1  0  0  0
 33 70  2  0  0  0
 34 36  1  0  0  0
 34 59  1  0  0  0
 34102  1  0  0  0
 35 44  2  0  0  0
 35 45  1  0  0  0
 35 68  1  0  0  0
 36 56  1  0  0  0
 36103  1  0  0  0
 37 39  1  0  0  0
 37 47  1  0  0  0
 37 66  1  0  0  0
 37104  1  0  0  0
 38 43  2  0  0  0
 38 46  1  0  0  0
 38 47  1  0  0  0
 39 64  1  0  0  0
 39 67  2  0  0  0
 40 52  1  0  0  0
 40 53  2  0  0  0
 40 58  1  0  0  0
 41105  1  0  0  0
 41106  1  0  0  0
 41107  1  0  0  0
 41 48  1  0  0  0
 42 43  1  0  0  0
 42 66  1  0  0  0
 42108  1  0  0  0
 42109  1  0  0  0
 43 44  1  0  0  0
 44110  1  0  0  0
 45 46  2  0  0  0
 45111  1  0  0  0
 46112  1  0  0  0
 47113  1  0  0  0
 47114  1  0  0  0
 48 56  1  0  0  0
 48 65  1  0  0  0
 48115  1  0  0  0
 49 50  1  0  0  0
 49 53  1  0  0  0
 49 64  1  0  0  0
 49116  1  0  0  0
 50 51  1  0  0  0
 50117  1  0  0  0
 50118  1  0  0  0
 51 52  1  0  0  0
 51119  1  0  0  0
 51120  1  0  0  0
 52121  1  0  0  0
 52122  1  0  0  0
 53 54  1  0  0  0
 54 55  2  0  0  0
 54123  1  0  0  0
 55 57  1  0  0  0
 55124  1  0  0  0
 56 69  2  0  0  0
 57 58  2  0  0  0
 57125  1  0  0  0
 58126  1  0  0  0
 59 60  1  0  0  0
 59 61  1  0  0  0
 59 62  1  0  0  0
 60127  1  0  0  0
 60128  1  0  0  0
 60129  1  0  0  0
 61130  1  0  0  0
 61131  1  0  0  0
 61132  1  0  0  0
 62133  1  0  0  0
 62134  1  0  0  0
 62135  1  0  0  0
 63 65  1  0  0  0
 63136  1  0  0  0
 63137  1  0  0  0
 63138  1  0  0  0
 64139  1  0  0  0
 65140  1  0  0  0
 68 76  1  0  0  0
 71 77  1  0  0  0
 71 79  1  0  0  0
 71 81  2  0  0  0
 72 73  1  0  0  0
 72141  1  0  0  0
 72142  1  0  0  0
 72 74  1  0  0  0
 73 78  1  0  0  0
 73143  1  0  0  0
 73144  1  0  0  0
 74 77  1  0  0  0
 74 78  1  0  0  0
 74145  1  0  0  0
 75 76  1  0  0  0
 75 79  1  0  0  0
 75146  1  0  0  0
 75147  1  0  0  0
 76148  1  0  0  0
 76149  1  0  0  0
 77 80  1  0  0  0
 77150  1  0  0  0
 79151  1  0  0  0
 80152  1  0  0  0
 80153  1  0  0  0
 80154  1  0  0  0
M  CHG  1  80   1
M  ISO  4   1 100  68 101  76 101  78 100
M  END
> <chiral flag>
0

> <version>
0

> <s_m_source_file>
/data/baiqing/PycharmProjects/Reinvent-master-3.2/result/LINK_invent/BTK/process_docking_weight1_custom_sum_contain_oxygen_bond_distance_aromatic_linkinvent_7_9_3/rearranged_h_0176.sdf

> <i_m_source_file_index>
12

> <r_mmod_Potential_Energy-OPLS-2005>
257.44677734375

> <r_mmod_Stretch_Energy-OPLS-2005>
301.032623291016

> <r_mmod_Bend_Energy-OPLS-2005>
277.175598144531

> <r_mmod_Torsional_Energy-OPLS-2005>
293.023040771484

> <r_mmod_Improper_Torsional_Energy-OPLS-2005>
12.0373706817627

> <r_mmod_Van_der_Waal_Energy-OPLS-2005>
114.59349822998

> <r_mmod_Electrostatic_Energy-OPLS-2005>
-367.590850830078

> <r_mmod_Solvation_Energy-OPLS-2005>
-561.292419433594

> <b_mmod_Minimization_Converged-OPLS-2005>
0

> <r_mmod_RMS_Derivative-OPLS-2005>
4.98645877838135

$$$$
12
                    3D
 Structure written by MMmdl.
164173  0  0  1  0            999 V2000
  -30.6707  -14.6179   20.5011 C   0  0  0  0  0  0
  -30.4203  -12.3836   19.4520 C   0  0  0  0  0  0
  -29.4990  -12.4973   18.2208 C   0  0  0  0  0  0
  -28.0230  -12.3402   18.6346 C   0  0  0  0  0  0
  -27.6460  -13.2197   19.8581 C   0  0  2  0  0  0
  -28.6916  -13.1101   20.9893 C   0  0  0  0  0  0
  -25.2526  -13.8180   20.5696 C   0  0  0  0  0  0
  -24.1800  -13.0432   20.9191 C   0  0  0  0  0  0
  -24.6377  -11.6909   20.8747 C   0  0  0  0  0  0
  -23.9057  -10.4289   21.0409 C   0  0  0  0  0  0
  -24.3616   -9.4203   21.9186 C   0  0  0  0  0  0
  -23.6297   -8.2232   22.0753 C   0  0  0  0  0  0
  -22.4277   -8.0274   21.3547 C   0  0  0  0  0  0
  -21.9909   -9.0240   20.4639 C   0  0  0  0  0  0
  -22.7231  -10.2123   20.3052 C   0  0  0  0  0  0
  -21.6847   -6.0735   22.5277 C   0  0  0  0  0  0
  -21.4005   -6.5635   23.8213 C   0  0  0  0  0  0
  -21.3661   -5.6788   24.9174 C   0  0  0  0  0  0
  -21.6047   -4.3047   24.7219 C   0  0  0  0  0  0
  -21.8822   -3.8144   23.4337 C   0  0  0  0  0  0
  -21.9189   -4.6966   22.3396 C   0  0  0  0  0  0
  -22.7819  -13.5215   21.1848 C   0  0  0  0  0  0
  -22.1661   -4.2152   21.0972 F   0  0  0  0  0  0
  -21.5637   -3.4531   25.7731 F   0  0  0  0  0  0
  -30.0028  -13.4261   20.4099 N   0  0  0  0  0  0
  -26.2954  -12.9364   20.3324 N   0  0  0  0  0  0
  -25.9308  -11.6514   20.5770 N   0  0  0  0  0  0
  -22.0469  -12.8219   22.0410 N   0  0  0  0  0  0
  -25.4217  -15.1901   20.4125 N   0  0  0  0  0  0
  -31.8515  -14.7088   20.1487 O   0  0  0  0  0  0
  -21.6636   -6.8878   21.4239 O   0  0  0  0  0  0
  -22.3503  -14.5522   20.6690 O   0  0  0  0  0  0
  -24.6241  -31.8606   23.2035 C   0  0  0  0  0  0
  -25.9096  -32.4779   23.8368 C   0  0  1  0  0  0
  -27.2272  -27.3498   20.1220 C   0  0  0  0  0  0
  -25.5936  -33.8582   24.2309 N   0  0  0  0  0  0
  -23.4165  -30.4825   21.5446 C   0  0  2  0  0  0
  -24.8643  -28.9354   20.1151 C   0  0  0  0  0  0
  -22.7458  -29.4629   22.4950 C   0  0  0  0  0  0
  -18.0283  -28.1382   22.8488 C   0  0  0  0  0  0
  -24.1485  -36.7284   23.2642 C   0  0  0  0  0  0
  -25.9529  -30.8035   21.3661 C   0  0  0  0  0  0
  -26.0303  -29.4303   20.7147 C   0  0  0  0  0  0
  -27.2194  -28.6493   20.7044 C   0  0  0  0  0  0
  -26.0436  -26.8882   19.5123 C   0  0  0  0  0  0
  -24.8704  -27.6687   19.5049 C   0  0  0  0  0  0
  -23.6307  -29.8128   20.1610 C   0  0  0  0  0  0
  -25.4108  -36.3084   24.0344 C   0  0  1  0  0  0
  -20.5883  -28.3680   23.1291 C   0  0  2  0  0  0
  -20.6768  -26.9406   22.5408 C   0  0  0  0  0  0
  -19.5750  -26.6380   21.5207 C   0  0  0  0  0  0
  -18.1928  -26.7930   22.1613 C   0  0  0  0  0  0
  -19.1536  -28.8849   23.2885 C   0  0  0  0  0  0
  -18.9458  -30.1451   23.8897 C   0  0  0  0  0  0
  -17.6457  -30.6583   24.0565 C   0  0  0  0  0  0
  -25.9048  -34.9455   23.5123 C   0  0  0  0  0  0
  -16.5347  -29.9081   23.6333 C   0  0  0  0  0  0
  -16.7269  -28.6501   23.0350 C   0  0  0  0  0  0
  -26.4506  -31.6573   25.0715 C   0  0  0  0  0  0
  -25.3755  -31.3668   26.1450 C   0  0  0  0  0  0
  -27.0353  -30.3017   24.6116 C   0  0  0  0  0  0
  -27.6080  -32.4294   25.7477 C   0  0  0  0  0  0
  -27.5577  -37.1799   24.8473 C   0  0  0  0  0  0
  -21.4175  -29.3040   22.3689 N   0  0  0  0  0  0
  -26.4289  -37.3778   23.9423 N   0  0  0  0  0  0
  -24.6833  -31.0652   22.0961 N   0  0  0  0  0  0
  -23.4192  -28.8169   23.3022 O   0  0  0  0  0  0
  -28.3501  -26.5267   20.1171 O   0  0  0  0  0  0
  -26.5595  -34.8919   22.4673 O   0  0  0  0  0  0
  -23.5411  -32.1381   23.7383 O   0  0  0  0  0  0
  -28.5055  -23.9366   20.0377 C   0  0  0  0  0  0
  -29.6617  -17.9172   22.2283 C   0  0  0  0  0  0
  -29.6883  -18.1277   19.7524 C   0  0  0  0  0  0
  -30.4880  -16.6254   21.8930 C   0  0  0  0  0  0
  -29.3888  -16.5828   19.7097 C   0  0  0  0  0  0
  -28.9474  -21.3859   20.0804 C   0  0  0  0  0  0
  -28.8826  -22.5974   22.1290 C   0  0  0  0  0  0
  -29.1777  -18.8178   21.0412 C   0  0  0  0  0  0
  -29.4686  -20.3928   21.1910 C   0  0  2  0  0  0
  -28.8361  -21.0833   22.4219 C   0  0  1  0  0  0
  -28.2451  -25.2591   20.8595 C   0  0  0  0  0  0
  -28.7431  -22.7422   20.6845 N   0  0  0  0  0  0
  -29.9602  -15.7586   20.8149 N   0  0  0  0  0  0
  -29.4465  -20.7650   23.7248 N   0  3  0  0  0  0
  -28.4671  -23.9899   18.8045 O   0  0  0  0  0  0
  -31.4647  -12.4845   19.1506 H   0  0  0  0  0  0
  -30.3368  -11.3958   19.9078 H   0  0  0  0  0  0
  -29.7632  -11.7393   17.4817 H   0  0  0  0  0  0
  -29.6454  -13.4632   17.7350 H   0  0  0  0  0  0
  -27.8559  -11.2888   18.8686 H   0  0  0  0  0  0
  -27.3688  -12.5678   17.7919 H   0  0  0  0  0  0
  -27.6522  -14.2476   19.5011 H   0  0  0  0  0  0
  -28.6986  -12.1052   21.4151 H   0  0  0  0  0  0
  -28.4455  -13.7879   21.8086 H   0  0  0  0  0  0
  -25.2763   -9.5679   22.4761 H   0  0  0  0  0  0
  -24.0012   -7.4619   22.7465 H   0  0  0  0  0  0
  -21.0848   -8.8741   19.8940 H   0  0  0  0  0  0
  -22.3688  -10.9659   19.6157 H   0  0  0  0  0  0
  -21.1989   -7.6143   23.9719 H   0  0  0  0  0  0
  -21.1487   -6.0514   25.9081 H   0  0  0  0  0  0
  -22.0605   -2.7607   23.2826 H   0  0  0  0  0  0
  -22.4079  -11.9887   22.4816 H   0  0  0  0  0  0
  -21.1070  -13.1221   22.2579 H   0  0  0  0  0  0
  -24.6576  -15.8453   20.5388 H   0  0  0  0  0  0
  -26.2819  -15.6351   20.1207 H   0  0  0  0  0  0
  -26.7169  -32.5463   23.1128 H   0  0  0  0  0  0
  -25.0145  -33.9731   25.0499 H   0  0  0  0  0  0
  -22.7097  -31.3024   21.4003 H   0  0  0  0  0  0
  -23.3760  -35.9602   23.3293 H   0  0  0  0  0  0
  -24.3584  -36.8897   22.2059 H   0  0  0  0  0  0
  -23.7215  -37.6476   23.6661 H   0  0  0  0  0  0
  -26.0751  -31.5650   20.5942 H   0  0  0  0  0  0
  -26.8384  -30.8582   21.9873 H   0  0  0  0  0  0
  -28.1211  -29.0294   21.1642 H   0  0  0  0  0  0
  -26.0279  -25.9140   19.0444 H   0  0  0  0  0  0
  -23.9762  -27.2833   19.0352 H   0  0  0  0  0  0
  -23.7487  -30.5881   19.4028 H   0  0  0  0  0  0
  -22.7519  -29.2400   19.8589 H   0  0  0  0  0  0
  -25.1287  -36.1940   25.0837 H   0  0  0  0  0  0
  -20.9980  -28.3241   24.1410 H   0  0  0  0  0  0
  -20.5660  -26.2287   23.3603 H   0  0  0  0  0  0
  -21.6633  -26.7428   22.1197 H   0  0  0  0  0  0
  -19.6904  -25.6292   21.1229 H   0  0  0  0  0  0
  -19.6693  -27.3194   20.6741 H   0  0  0  0  0  0
  -17.4201  -26.6687   21.4011 H   0  0  0  0  0  0
  -18.0322  -26.0066   22.9002 H   0  0  0  0  0  0
  -19.7933  -30.7266   24.2265 H   0  0  0  0  0  0
  -17.5011  -31.6264   24.5160 H   0  0  0  0  0  0
  -15.5349  -30.2983   23.7662 H   0  0  0  0  0  0
  -15.8667  -28.0819   22.7071 H   0  0  0  0  0  0
  -24.5962  -30.6983   25.7777 H   0  0  0  0  0  0
  -24.8910  -32.2805   26.4900 H   0  0  0  0  0  0
  -25.8105  -30.8839   27.0208 H   0  0  0  0  0  0
  -26.2902  -29.6743   24.1208 H   0  0  0  0  0  0
  -27.4168  -29.7291   25.4579 H   0  0  0  0  0  0
  -27.8718  -30.4346   23.9251 H   0  0  0  0  0  0
  -27.2731  -33.3622   26.2028 H   0  0  0  0  0  0
  -28.3907  -32.6792   25.0300 H   0  0  0  0  0  0
  -28.0732  -31.8418   26.5401 H   0  0  0  0  0  0
  -28.2591  -38.0101   24.7529 H   0  0  0  0  0  0
  -28.1077  -36.2631   24.6293 H   0  0  0  0  0  0
  -27.2298  -37.1433   25.8876 H   0  0  0  0  0  0
  -20.9357  -29.8761   21.6896 H   0  0  0  0  0  0
  -26.0168  -38.2849   24.1426 H   0  0  0  0  0  0
  -30.2924  -18.4943   22.9009 H   0  0  0  0  0  0
  -28.7923  -17.6250   22.8183 H   0  0  0  0  0  0
  -29.2331  -18.6068   18.8844 H   0  0  0  0  0  0
  -30.7619  -18.2919   19.6496 H   0  0  0  0  0  0
  -30.5927  -16.0291   22.8011 H   0  0  0  0  0  0
  -31.5022  -16.9277   21.6229 H   0  0  0  0  0  0
  -29.7190  -16.1940   18.7438 H   0  0  0  0  0  0
  -28.3085  -16.4433   19.7264 H   0  0  0  0  0  0
  -27.9889  -21.0422   19.6889 H   0  0  0  0  0  0
  -29.6391  -21.4324   19.2378 H   0  0  0  0  0  0
  -29.8402  -23.0302   22.4250 H   0  0  0  0  0  0
  -28.0913  -23.1211   22.6690 H   0  0  0  0  0  0
  -28.0905  -18.7209   21.0102 H   0  0  0  0  0  0
  -30.5507  -20.5255   21.2473 H   0  0  0  0  0  0
  -27.7874  -20.7835   22.4721 H   0  0  0  0  0  0
  -28.9806  -25.3102   21.6625 H   0  0  0  0  0  0
  -27.2747  -25.1678   21.3501 H   0  0  0  0  0  0
  -30.4260  -20.9912   23.7348 H   0  0  0  0  0  0
  -29.3408  -19.7888   23.9357 H   0  0  0  0  0  0
  -28.9957  -21.2854   24.4570 H   0  0  0  0  0  0
  1 25  1  0  0  0
  1 30  2  0  0  0
  1 83  1  0  0  0
  2  3  1  0  0  0
  2 25  1  0  0  0
  2 86  1  0  0  0
  2 87  1  0  0  0
  3  4  1  0  0  0
  3 88  1  0  0  0
  3 89  1  0  0  0
  4  5  1  0  0  0
  4 90  1  0  0  0
  4 91  1  0  0  0
  5  6  1  0  0  0
  5 26  1  0  0  0
  5 92  1  0  0  0
  6 25  1  0  0  0
  6 93  1  0  0  0
  6 94  1  0  0  0
  7  8  2  0  0  0
  7 26  1  0  0  0
  7 29  1  0  0  0
  8  9  1  0  0  0
  8 22  1  0  0  0
  9 10  1  0  0  0
  9 27  2  0  0  0
 10 11  2  0  0  0
 10 15  1  0  0  0
 11 12  1  0  0  0
 11 95  1  0  0  0
 12 13  2  0  0  0
 12 96  1  0  0  0
 13 14  1  0  0  0
 13 31  1  0  0  0
 14 15  2  0  0  0
 14 97  1  0  0  0
 15 98  1  0  0  0
 16 17  2  0  0  0
 16 21  1  0  0  0
 16 31  1  0  0  0
 17 18  1  0  0  0
 17 99  1  0  0  0
 18 19  2  0  0  0
 18100  1  0  0  0
 19 20  1  0  0  0
 19 24  1  0  0  0
 20 21  2  0  0  0
 20101  1  0  0  0
 21 23  1  0  0  0
 22 28  1  0  0  0
 22 32  2  0  0  0
 26 27  1  0  0  0
 28102  1  0  0  0
 28103  1  0  0  0
 29104  1  0  0  0
 29105  1  0  0  0
 33 34  1  0  0  0
 33 66  1  0  0  0
 33 70  2  0  0  0
 34 36  1  0  0  0
 34 59  1  0  0  0
 34106  1  0  0  0
 35 44  2  0  0  0
 35 45  1  0  0  0
 35 68  1  0  0  0
 36 56  1  0  0  0
 36107  1  0  0  0
 37 39  1  0  0  0
 37 47  1  0  0  0
 37 66  1  0  0  0
 37108  1  0  0  0
 38 43  2  0  0  0
 38 46  1  0  0  0
 38 47  1  0  0  0
 39 64  1  0  0  0
 39 67  2  0  0  0
 40 52  1  0  0  0
 40 53  2  0  0  0
 40 58  1  0  0  0
 41109  1  0  0  0
 41110  1  0  0  0
 41111  1  0  0  0
 41 48  1  0  0  0
 42 43  1  0  0  0
 42 66  1  0  0  0
 42112  1  0  0  0
 42113  1  0  0  0
 43 44  1  0  0  0
 44114  1  0  0  0
 45 46  2  0  0  0
 45115  1  0  0  0
 46116  1  0  0  0
 47117  1  0  0  0
 47118  1  0  0  0
 48 56  1  0  0  0
 48 65  1  0  0  0
 48119  1  0  0  0
 49 50  1  0  0  0
 49 53  1  0  0  0
 49 64  1  0  0  0
 49120  1  0  0  0
 50 51  1  0  0  0
 50121  1  0  0  0
 50122  1  0  0  0
 51 52  1  0  0  0
 51123  1  0  0  0
 51124  1  0  0  0
 52125  1  0  0  0
 52126  1  0  0  0
 53 54  1  0  0  0
 54 55  2  0  0  0
 54127  1  0  0  0
 55 57  1  0  0  0
 55128  1  0  0  0
 56 69  2  0  0  0
 57 58  2  0  0  0
 57129  1  0  0  0
 58130  1  0  0  0
 59 60  1  0  0  0
 59 61  1  0  0  0
 59 62  1  0  0  0
 60131  1  0  0  0
 60132  1  0  0  0
 60133  1  0  0  0
 61134  1  0  0  0
 61135  1  0  0  0
 61136  1  0  0  0
 62137  1  0  0  0
 62138  1  0  0  0
 62139  1  0  0  0
 63 65  1  0  0  0
 63140  1  0  0  0
 63141  1  0  0  0
 63142  1  0  0  0
 64143  1  0  0  0
 65144  1  0  0  0
 68 81  1  0  0  0
 71 81  1  0  0  0
 71 82  1  0  0  0
 71 85  2  0  0  0
 72 74  1  0  0  0
 72145  1  0  0  0
 72146  1  0  0  0
 72 78  1  0  0  0
 73 75  1  0  0  0
 73 78  1  0  0  0
 73147  1  0  0  0
 73148  1  0  0  0
 74 83  1  0  0  0
 74149  1  0  0  0
 74150  1  0  0  0
 75 83  1  0  0  0
 75151  1  0  0  0
 75152  1  0  0  0
 76 82  1  0  0  0
 76153  1  0  0  0
 76154  1  0  0  0
 76 79  1  0  0  0
 77 80  1  0  0  0
 77 82  1  0  0  0
 77155  1  0  0  0
 77156  1  0  0  0
 78 79  1  0  0  0
 78157  1  0  0  0
 79 80  1  0  0  0
 79158  1  0  0  0
 80 84  1  0  0  0
 80159  1  0  0  0
 81160  1  0  0  0
 81161  1  0  0  0
 84162  1  0  0  0
 84163  1  0  0  0
 84164  1  0  0  0
M  CHG  1  84   1
M  ISO  4   1 100  68 101  81 101  83 100
M  END
> <chiral flag>
0

> <version>
0

> <s_m_source_file>
/data/baiqing/PycharmProjects/Reinvent-master-3.2/result/LINK_invent/BTK/process_docking_weight1_custom_sum_contain_oxygen_bond_distance_aromatic_linkinvent_7_9_3/rearranged_h_0176.sdf

> <i_m_source_file_index>
13

> <r_mmod_Potential_Energy-OPLS-2005>
129.768630981445

> <r_mmod_Stretch_Energy-OPLS-2005>
76.3036575317383

> <r_mmod_Bend_Energy-OPLS-2005>
166.123809814453

> <r_mmod_Torsional_Energy-OPLS-2005>
447.455657958984

> <r_mmod_Improper_Torsional_Energy-OPLS-2005>
7.38410377502441

> <r_mmod_Van_der_Waal_Energy-OPLS-2005>
124.12092590332

> <r_mmod_Electrostatic_Energy-OPLS-2005>
-183.614013671875

> <r_mmod_Solvation_Energy-OPLS-2005>
-548.3642578125

> <b_mmod_Minimization_Converged-OPLS-2005>
0

> <r_mmod_RMS_Derivative-OPLS-2005>
1.2881680727005

$$$$
13
                    3D
 Structure written by MMmdl.
156164  0  0  1  0            999 V2000
  -30.5756  -14.8777   20.4125 C   0  0  0  0  0  0
  -30.4334  -12.5349   19.5002 C   0  0  0  0  0  0
  -29.5173  -12.5164   18.2550 C   0  0  0  0  0  0
  -28.0469  -12.3213   18.6689 C   0  0  0  0  0  0
  -27.6339  -13.2454   19.8454 C   0  0  2  0  0  0
  -28.6773  -13.2482   20.9849 C   0  0  0  0  0  0
  -25.2469  -13.8220   20.5718 C   0  0  0  0  0  0
  -24.1774  -13.0445   20.9225 C   0  0  0  0  0  0
  -24.6378  -11.6927   20.8743 C   0  0  0  0  0  0
  -23.9052  -10.4294   21.0390 C   0  0  0  0  0  0
  -24.3603   -9.4215   21.9174 C   0  0  0  0  0  0
  -23.6284   -8.2248   22.0752 C   0  0  0  0  0  0
  -22.4269   -8.0272   21.3542 C   0  0  0  0  0  0
  -21.9895   -9.0240   20.4643 C   0  0  0  0  0  0
  -22.7215  -10.2129   20.3048 C   0  0  0  0  0  0
  -21.6854   -6.0718   22.5268 C   0  0  0  0  0  0
  -21.4012   -6.5626   23.8198 C   0  0  0  0  0  0
  -21.3663   -5.6788   24.9166 C   0  0  0  0  0  0
  -21.6048   -4.3049   24.7226 C   0  0  0  0  0  0
  -21.8817   -3.8135   23.4347 C   0  0  0  0  0  0
  -21.9195   -4.6945   22.3400 C   0  0  0  0  0  0
  -22.7792  -13.5211   21.1883 C   0  0  0  0  0  0
  -22.1662   -4.2124   21.0980 F   0  0  0  0  0  0
  -21.5638   -3.4539   25.7745 F   0  0  0  0  0  0
  -29.9642  -13.6303   20.3933 N   0  0  0  0  0  0
  -26.2898  -12.9450   20.3280 N   0  0  0  0  0  0
  -25.9318  -11.6574   20.5751 N   0  0  0  0  0  0
  -22.0445  -12.8200   22.0439 N   0  0  0  0  0  0
  -25.4157  -15.1949   20.4139 N   0  0  0  0  0  0
  -31.7668  -14.9360   20.0954 O   0  0  0  0  0  0
  -21.6648   -6.8859   21.4229 O   0  0  0  0  0  0
  -22.3471  -14.5509   20.6719 O   0  0  0  0  0  0
  -24.6392  -31.8459   23.1896 C   0  0  0  0  0  0
  -25.9174  -32.4706   23.8274 C   0  0  1  0  0  0
  -27.2192  -27.1689   20.1467 C   0  0  0  0  0  0
  -25.5924  -33.8508   24.2187 N   0  0  0  0  0  0
  -23.4421  -30.4642   21.5342 C   0  0  2  0  0  0
  -24.8907  -28.8953   20.1081 C   0  0  0  0  0  0
  -22.7547  -29.4546   22.4863 C   0  0  0  0  0  0
  -18.0299  -28.1395   22.8467 C   0  0  0  0  0  0
  -24.1486  -36.7257   23.2647 C   0  0  0  0  0  0
  -25.9935  -30.7301   21.3843 C   0  0  0  0  0  0
  -26.0648  -29.3441   20.7257 C   0  0  0  0  0  0
  -27.2290  -28.4947   20.7299 C   0  0  0  0  0  0
  -26.0217  -26.8116   19.4893 C   0  0  0  0  0  0
  -24.8800  -27.6420   19.4763 C   0  0  0  0  0  0
  -23.6657  -29.7933   20.1526 C   0  0  0  0  0  0
  -25.4121  -36.3038   24.0327 C   0  0  1  0  0  0
  -20.5910  -28.3707   23.1243 C   0  0  2  0  0  0
  -20.6784  -26.9409   22.5411 C   0  0  0  0  0  0
  -19.5762  -26.6376   21.5214 C   0  0  0  0  0  0
  -18.1936  -26.7932   22.1617 C   0  0  0  0  0  0
  -19.1558  -28.8868   23.2844 C   0  0  0  0  0  0
  -18.9479  -30.1462   23.8866 C   0  0  0  0  0  0
  -17.6480  -30.6591   24.0555 C   0  0  0  0  0  0
  -25.9069  -34.9412   23.5070 C   0  0  0  0  0  0
  -16.5365  -29.9089   23.6340 C   0  0  0  0  0  0
  -16.7286  -28.6515   23.0348 C   0  0  0  0  0  0
  -26.4510  -31.6574   25.0707 C   0  0  0  0  0  0
  -25.3700  -31.3760   26.1401 C   0  0  0  0  0  0
  -27.0383  -30.2977   24.6278 C   0  0  0  0  0  0
  -27.6040  -32.4342   25.7490 C   0  0  0  0  0  0
  -27.5575  -37.1781   24.8471 C   0  0  0  0  0  0
  -21.4244  -29.3036   22.3615 N   0  0  0  0  0  0
  -26.4285  -37.3750   23.9417 N   0  0  0  0  0  0
  -24.7112  -31.0342   22.0917 N   0  0  0  0  0  0
  -23.4196  -28.8094   23.3005 O   0  0  0  0  0  0
  -28.2913  -26.2197   20.2307 O   0  0  0  0  0  0
  -26.5666  -34.8917   22.4654 O   0  0  0  0  0  0
  -23.5521  -32.1322   23.7136 O   0  0  0  0  0  0
  -30.2143  -21.2172   21.3771 C   0  0  0  0  0  0
  -29.2438  -21.9400   20.5868 C   0  0  0  0  0  0
  -30.4201  -19.7854   21.2748 C   0  0  0  0  0  0
  -29.6733  -18.9758   20.3726 C   0  0  0  0  0  0
  -28.5131  -21.0414   19.7427 C   0  0  0  0  0  0
  -31.1284  -21.9645   22.3446 C   0  0  0  0  0  0
  -26.7768  -20.7379   18.1048 C   0  0  0  0  0  0
  -29.1193  -23.5863   20.7062 C   0  0  0  0  0  0
  -30.1483  -17.4665   19.9351 C   0  0  0  0  0  0
  -28.1054  -24.6998   20.0124 C   0  0  0  0  0  0
  -28.7291  -19.6615   19.6358 N   0  0  0  0  0  0
  -29.8222  -16.0626   20.5384 N   0  0  0  0  0  0
  -27.5280  -21.5969   18.9562 O   0  0  0  0  0  0
  -31.6691  -19.0262   22.2064 Cl  0  0  0  0  0  0
  -31.4721  -12.6654   19.1930 H   0  0  0  0  0  0
  -30.3994  -11.5765   20.0201 H   0  0  0  0  0  0
  -29.8236  -11.7231   17.5714 H   0  0  0  0  0  0
  -29.6235  -13.4534   17.7055 H   0  0  0  0  0  0
  -27.9253  -11.2778   18.9617 H   0  0  0  0  0  0
  -27.3876  -12.4751   17.8143 H   0  0  0  0  0  0
  -27.6067  -14.2535   19.4308 H   0  0  0  0  0  0
  -28.7429  -12.2677   21.4590 H   0  0  0  0  0  0
  -28.3917  -13.9532   21.7672 H   0  0  0  0  0  0
  -25.2740   -9.5707   22.4750 H   0  0  0  0  0  0
  -23.9992   -7.4645   22.7477 H   0  0  0  0  0  0
  -21.0825   -8.8738   19.8952 H   0  0  0  0  0  0
  -22.3642  -10.9659   19.6159 H   0  0  0  0  0  0
  -21.1990   -7.6132   23.9687 H   0  0  0  0  0  0
  -21.1498   -6.0526   25.9069 H   0  0  0  0  0  0
  -22.0596   -2.7593   23.2860 H   0  0  0  0  0  0
  -22.4074  -11.9868   22.4830 H   0  0  0  0  0  0
  -21.1057  -13.1212   22.2645 H   0  0  0  0  0  0
  -24.6471  -15.8476   20.5199 H   0  0  0  0  0  0
  -26.2581  -15.6328   20.0649 H   0  0  0  0  0  0
  -26.7235  -32.5316   23.0999 H   0  0  0  0  0  0
  -25.0024  -33.9624   25.0298 H   0  0  0  0  0  0
  -22.7438  -31.2896   21.3805 H   0  0  0  0  0  0
  -23.3761  -35.9576   23.3307 H   0  0  0  0  0  0
  -24.3570  -36.8889   22.2064 H   0  0  0  0  0  0
  -23.7228  -37.6448   23.6682 H   0  0  0  0  0  0
  -26.1442  -31.4887   20.6146 H   0  0  0  0  0  0
  -26.8655  -30.7779   22.0252 H   0  0  0  0  0  0
  -28.1233  -28.8290   21.2369 H   0  0  0  0  0  0
  -25.9396  -25.8538   18.9980 H   0  0  0  0  0  0
  -23.9832  -27.2942   18.9824 H   0  0  0  0  0  0
  -23.8001  -30.5673   19.3962 H   0  0  0  0  0  0
  -22.7819  -29.2327   19.8430 H   0  0  0  0  0  0
  -25.1304  -36.1876   25.0824 H   0  0  0  0  0  0
  -20.9990  -28.3299   24.1374 H   0  0  0  0  0  0
  -20.5681  -26.2317   23.3627 H   0  0  0  0  0  0
  -21.6652  -26.7434   22.1199 H   0  0  0  0  0  0
  -19.6933  -25.6284   21.1257 H   0  0  0  0  0  0
  -19.6708  -27.3180   20.6733 H   0  0  0  0  0  0
  -17.4206  -26.6669   21.4021 H   0  0  0  0  0  0
  -18.0332  -26.0089   22.9030 H   0  0  0  0  0  0
  -19.7964  -30.7270   24.2232 H   0  0  0  0  0  0
  -17.5049  -31.6278   24.5144 H   0  0  0  0  0  0
  -15.5367  -30.2978   23.7696 H   0  0  0  0  0  0
  -15.8686  -28.0829   22.7070 H   0  0  0  0  0  0
  -24.5889  -30.7096   25.7720 H   0  0  0  0  0  0
  -24.8870  -32.2940   26.4759 H   0  0  0  0  0  0
  -25.7982  -30.8977   27.0218 H   0  0  0  0  0  0
  -26.2999  -29.6686   24.1289 H   0  0  0  0  0  0
  -27.4008  -29.7289   25.4849 H   0  0  0  0  0  0
  -27.8898  -30.4223   23.9586 H   0  0  0  0  0  0
  -27.2635  -33.3674   26.1991 H   0  0  0  0  0  0
  -28.3882  -32.6847   25.0336 H   0  0  0  0  0  0
  -28.0663  -31.8512   26.5463 H   0  0  0  0  0  0
  -28.2582  -38.0086   24.7516 H   0  0  0  0  0  0
  -28.1074  -36.2610   24.6293 H   0  0  0  0  0  0
  -27.2285  -37.1420   25.8871 H   0  0  0  0  0  0
  -20.9452  -29.8749   21.6801 H   0  0  0  0  0  0
  -26.0159  -38.2821   24.1433 H   0  0  0  0  0  0
  -30.8919  -23.0146   22.4835 H   0  0  0  0  0  0
  -32.1595  -21.9100   21.9941 H   0  0  0  0  0  0
  -31.0861  -21.5051   23.3319 H   0  0  0  0  0  0
  -26.0097  -21.3162   17.5903 H   0  0  0  0  0  0
  -26.2730  -19.9508   18.6672 H   0  0  0  0  0  0
  -27.4136  -20.2819   17.3453 H   0  0  0  0  0  0
  -30.1218  -23.9460   20.4738 H   0  0  0  0  0  0
  -28.9903  -23.7677   21.7726 H   0  0  0  0  0  0
  -31.2357  -17.5210   19.8840 H   0  0  0  0  0  0
  -29.8531  -17.3800   18.8891 H   0  0  0  0  0  0
  -27.0966  -24.4352   20.3281 H   0  0  0  0  0  0
  -28.1277  -24.5425   18.9336 H   0  0  0  0  0  0
  -28.8675  -15.9438   20.8393 H   0  0  0  0  0  0
  1 25  1  0  0  0
  1 30  2  0  0  0
  1 82  1  0  0  0
  2  3  1  0  0  0
  2 25  1  0  0  0
  2 85  1  0  0  0
  2 86  1  0  0  0
  3  4  1  0  0  0
  3 87  1  0  0  0
  3 88  1  0  0  0
  4  5  1  0  0  0
  4 89  1  0  0  0
  4 90  1  0  0  0
  5  6  1  0  0  0
  5 26  1  0  0  0
  5 91  1  0  0  0
  6 25  1  0  0  0
  6 92  1  0  0  0
  6 93  1  0  0  0
  7  8  2  0  0  0
  7 26  1  0  0  0
  7 29  1  0  0  0
  8  9  1  0  0  0
  8 22  1  0  0  0
  9 10  1  0  0  0
  9 27  2  0  0  0
 10 11  2  0  0  0
 10 15  1  0  0  0
 11 12  1  0  0  0
 11 94  1  0  0  0
 12 13  2  0  0  0
 12 95  1  0  0  0
 13 14  1  0  0  0
 13 31  1  0  0  0
 14 15  2  0  0  0
 14 96  1  0  0  0
 15 97  1  0  0  0
 16 17  2  0  0  0
 16 21  1  0  0  0
 16 31  1  0  0  0
 17 18  1  0  0  0
 17 98  1  0  0  0
 18 19  2  0  0  0
 18 99  1  0  0  0
 19 20  1  0  0  0
 19 24  1  0  0  0
 20 21  2  0  0  0
 20100  1  0  0  0
 21 23  1  0  0  0
 22 28  1  0  0  0
 22 32  2  0  0  0
 26 27  1  0  0  0
 28101  1  0  0  0
 28102  1  0  0  0
 29103  1  0  0  0
 29104  1  0  0  0
 33 34  1  0  0  0
 33 66  1  0  0  0
 33 70  2  0  0  0
 34 36  1  0  0  0
 34 59  1  0  0  0
 34105  1  0  0  0
 35 44  2  0  0  0
 35 45  1  0  0  0
 35 68  1  0  0  0
 36 56  1  0  0  0
 36106  1  0  0  0
 37 39  1  0  0  0
 37 47  1  0  0  0
 37 66  1  0  0  0
 37107  1  0  0  0
 38 43  2  0  0  0
 38 46  1  0  0  0
 38 47  1  0  0  0
 39 64  1  0  0  0
 39 67  2  0  0  0
 40 52  1  0  0  0
 40 53  2  0  0  0
 40 58  1  0  0  0
 41108  1  0  0  0
 41109  1  0  0  0
 41110  1  0  0  0
 41 48  1  0  0  0
 42 43  1  0  0  0
 42 66  1  0  0  0
 42111  1  0  0  0
 42112  1  0  0  0
 43 44  1  0  0  0
 44113  1  0  0  0
 45 46  2  0  0  0
 45114  1  0  0  0
 46115  1  0  0  0
 47116  1  0  0  0
 47117  1  0  0  0
 48 56  1  0  0  0
 48 65  1  0  0  0
 48118  1  0  0  0
 49 50  1  0  0  0
 49 53  1  0  0  0
 49 64  1  0  0  0
 49119  1  0  0  0
 50 51  1  0  0  0
 50120  1  0  0  0
 50121  1  0  0  0
 51 52  1  0  0  0
 51122  1  0  0  0
 51123  1  0  0  0
 52124  1  0  0  0
 52125  1  0  0  0
 53 54  1  0  0  0
 54 55  2  0  0  0
 54126  1  0  0  0
 55 57  1  0  0  0
 55127  1  0  0  0
 56 69  2  0  0  0
 57 58  2  0  0  0
 57128  1  0  0  0
 58129  1  0  0  0
 59 60  1  0  0  0
 59 61  1  0  0  0
 59 62  1  0  0  0
 60130  1  0  0  0
 60131  1  0  0  0
 60132  1  0  0  0
 61133  1  0  0  0
 61134  1  0  0  0
 61135  1  0  0  0
 62136  1  0  0  0
 62137  1  0  0  0
 62138  1  0  0  0
 63 65  1  0  0  0
 63139  1  0  0  0
 63140  1  0  0  0
 63141  1  0  0  0
 64142  1  0  0  0
 65143  1  0  0  0
 68 80  1  0  0  0
 71 72  2  0  0  0
 71 73  1  0  0  0
 71 76  1  0  0  0
 72 75  1  0  0  0
 72 78  1  0  0  0
 73 74  2  0  0  0
 73 84  1  0  0  0
 74 79  1  0  0  0
 74 81  1  0  0  0
 75 81  2  0  0  0
 75 83  1  0  0  0
 76144  1  0  0  0
 76145  1  0  0  0
 76146  1  0  0  0
 77 83  1  0  0  0
 77147  1  0  0  0
 77148  1  0  0  0
 77149  1  0  0  0
 78 80  1  0  0  0
 78150  1  0  0  0
 78151  1  0  0  0
 79 82  1  0  0  0
 79152  1  0  0  0
 79153  1  0  0  0
 80154  1  0  0  0
 80155  1  0  0  0
 82156  1  0  0  0
M  ISO  4   1 100  68 101  80 101  82 100
M  END
> <chiral flag>
0

> <version>
0

> <s_m_source_file>
/data/baiqing/PycharmProjects/Reinvent-master-3.2/result/LINK_invent/BTK/process_docking_weight1_custom_sum_contain_oxygen_bond_distance_aromatic_linkinvent_7_9_3/rearranged_h_0176.sdf

> <i_m_source_file_index>
14

> <r_mmod_Potential_Energy-OPLS-2005>
153.004852294922

> <r_mmod_Stretch_Energy-OPLS-2005>
203.896392822266

> <r_mmod_Bend_Energy-OPLS-2005>
259.215362548828

> <r_mmod_Torsional_Energy-OPLS-2005>
204.160125732422

> <r_mmod_Improper_Torsional_Energy-OPLS-2005>
8.9848518371582

> <r_mmod_Van_der_Waal_Energy-OPLS-2005>
148.3037109375

> <r_mmod_Electrostatic_Energy-OPLS-2005>
-608.306701660156

> <r_mmod_Solvation_Energy-OPLS-2005>
-216.484390258789

> <b_mmod_Minimization_Converged-OPLS-2005>
0

> <r_mmod_RMS_Derivative-OPLS-2005>
1.23450946807861

$$$$
14
                    3D
 Structure written by MMmdl.
156165  0  0  1  0            999 V2000
  -30.5475  -14.9662   20.4114 C   0  0  0  0  0  0
  -30.4468  -12.6029   19.4860 C   0  0  0  0  0  0
  -29.5219  -12.5144   18.2514 C   0  0  0  0  0  0
  -28.0602  -12.2924   18.6819 C   0  0  0  0  0  0
  -27.6266  -13.2483   19.8240 C   0  0  2  0  0  0
  -28.6720  -13.3010   20.9552 C   0  0  0  0  0  0
  -25.2441  -13.8230   20.5707 C   0  0  0  0  0  0
  -24.1769  -13.0453   20.9266 C   0  0  0  0  0  0
  -24.6393  -11.6935   20.8739 C   0  0  0  0  0  0
  -23.9087  -10.4295   21.0386 C   0  0  0  0  0  0
  -24.3654   -9.4208   21.9157 C   0  0  0  0  0  0
  -23.6331   -8.2239   22.0732 C   0  0  0  0  0  0
  -22.4312   -8.0266   21.3529 C   0  0  0  0  0  0
  -21.9934   -9.0236   20.4634 C   0  0  0  0  0  0
  -22.7249  -10.2119   20.3042 C   0  0  0  0  0  0
  -21.6867   -6.0731   22.5279 C   0  0  0  0  0  0
  -21.4013   -6.5639   23.8211 C   0  0  0  0  0  0
  -21.3660   -5.6785   24.9170 C   0  0  0  0  0  0
  -21.6052   -4.3055   24.7224 C   0  0  0  0  0  0
  -21.8823   -3.8155   23.4336 C   0  0  0  0  0  0
  -21.9210   -4.6955   22.3389 C   0  0  0  0  0  0
  -22.7770  -13.5201   21.1901 C   0  0  0  0  0  0
  -22.1654   -4.2161   21.0953 F   0  0  0  0  0  0
  -21.5645   -3.4519   25.7717 F   0  0  0  0  0  0
  -29.9442  -13.7113   20.3463 N   0  0  0  0  0  0
  -26.2884  -12.9465   20.3200 N   0  0  0  0  0  0
  -25.9338  -11.6606   20.5761 N   0  0  0  0  0  0
  -22.0455  -12.8139   22.0453 N   0  0  0  0  0  0
  -25.4118  -15.1945   20.4087 N   0  0  0  0  0  0
  -31.7638  -15.0206   20.2093 O   0  0  0  0  0  0
  -21.6653   -6.8865   21.4245 O   0  0  0  0  0  0
  -22.3411  -14.5480   20.6721 O   0  0  0  0  0  0
  -24.6444  -31.8389   23.1847 C   0  0  0  0  0  0
  -25.9212  -32.4654   23.8250 C   0  0  1  0  0  0
  -27.2261  -27.1186   20.1566 C   0  0  0  0  0  0
  -25.5937  -33.8470   24.2155 N   0  0  0  0  0  0
  -23.4510  -30.4591   21.5278 C   0  0  2  0  0  0
  -24.9002  -28.8742   20.1126 C   0  0  0  0  0  0
  -22.7561  -29.4546   22.4820 C   0  0  0  0  0  0
  -18.0306  -28.1396   22.8486 C   0  0  0  0  0  0
  -24.1498  -36.7264   23.2642 C   0  0  0  0  0  0
  -26.0064  -30.7047   21.3873 C   0  0  0  0  0  0
  -26.0760  -29.3119   20.7365 C   0  0  0  0  0  0
  -27.2389  -28.4508   20.7381 C   0  0  0  0  0  0
  -26.0238  -26.7832   19.4955 C   0  0  0  0  0  0
  -24.8858  -27.6215   19.4793 C   0  0  0  0  0  0
  -23.6796  -29.7820   20.1495 C   0  0  0  0  0  0
  -25.4114  -36.3019   24.0316 C   0  0  1  0  0  0
  -20.5921  -28.3733   23.1209 C   0  0  2  0  0  0
  -20.6788  -26.9433   22.5392 C   0  0  0  0  0  0
  -19.5759  -26.6391   21.5205 C   0  0  0  0  0  0
  -18.1943  -26.7941   22.1629 C   0  0  0  0  0  0
  -19.1571  -28.8883   23.2845 C   0  0  0  0  0  0
  -18.9478  -30.1473   23.8880 C   0  0  0  0  0  0
  -17.6470  -30.6586   24.0569 C   0  0  0  0  0  0
  -25.9075  -34.9392   23.5055 C   0  0  0  0  0  0
  -16.5361  -29.9075   23.6333 C   0  0  0  0  0  0
  -16.7295  -28.6496   23.0357 C   0  0  0  0  0  0
  -26.4524  -31.6530   25.0712 C   0  0  0  0  0  0
  -25.3726  -31.3731   26.1428 C   0  0  0  0  0  0
  -27.0390  -30.2922   24.6328 C   0  0  0  0  0  0
  -27.6028  -32.4332   25.7488 C   0  0  0  0  0  0
  -27.5585  -37.1763   24.8445 C   0  0  0  0  0  0
  -21.4255  -29.3074   22.3569 N   0  0  0  0  0  0
  -26.4267  -37.3732   23.9439 N   0  0  0  0  0  0
  -24.7209  -31.0218   22.0891 N   0  0  0  0  0  0
  -23.4185  -28.8090   23.2993 O   0  0  0  0  0  0
  -28.3018  -26.1524   20.1701 O   0  0  0  0  0  0
  -26.5670  -34.8892   22.4647 O   0  0  0  0  0  0
  -23.5548  -32.1266   23.7048 O   0  0  0  0  0  0
  -29.2505  -18.8231   20.1206 C   0  0  0  0  0  0
  -30.8141  -20.3776   21.0520 C   0  0  0  0  0  0
  -31.2324  -18.0565   21.2340 C   0  0  0  0  0  0
  -29.6099  -20.2529   20.3333 C   0  0  0  0  0  0
  -30.0622  -17.6539   20.5543 C   0  0  0  0  0  0
  -29.1305  -23.3513   18.3658 C   0  0  0  0  0  0
  -28.8757  -21.6379   19.7689 C   0  0  1  0  0  0
  -29.0710  -23.3464   19.8975 C   0  0  2  0  0  0
  -29.3734  -21.8482   18.3150 C   0  0  1  0  0  0
  -28.0859  -24.6184   20.4158 C   0  0  0  0  0  0
  -31.5807  -19.3441   21.4811 N   0  0  0  0  0  0
  -29.7549  -16.1505   20.4198 N   0  0  0  0  0  0
  -28.6238  -21.1438   17.2505 N   0  3  0  0  0  0
  -31.4778  -12.7732   19.1667 H   0  0  0  0  0  0
  -30.4507  -11.6623   20.0366 H   0  0  0  0  0  0
  -29.8420  -11.7051   17.5926 H   0  0  0  0  0  0
  -29.5938  -13.4352   17.6701 H   0  0  0  0  0  0
  -27.9801  -11.2567   19.0186 H   0  0  0  0  0  0
  -27.3916  -12.3916   17.8278 H   0  0  0  0  0  0
  -27.5753  -14.2397   19.3720 H   0  0  0  0  0  0
  -28.7662  -12.3320   21.4464 H   0  0  0  0  0  0
  -28.3678  -14.0111   21.7277 H   0  0  0  0  0  0
  -25.2825   -9.5663   22.4718 H   0  0  0  0  0  0
  -24.0053   -7.4620   22.7444 H   0  0  0  0  0  0
  -21.0880   -8.8744   19.8940 H   0  0  0  0  0  0
  -22.3718  -10.9646   19.6146 H   0  0  0  0  0  0
  -21.1976   -7.6147   23.9706 H   0  0  0  0  0  0
  -21.1486   -6.0508   25.9064 H   0  0  0  0  0  0
  -22.0610   -2.7617   23.2823 H   0  0  0  0  0  0
  -22.4128  -11.9861   22.4903 H   0  0  0  0  0  0
  -21.1044  -13.1073   22.2666 H   0  0  0  0  0  0
  -24.6486  -15.8530   20.5283 H   0  0  0  0  0  0
  -26.2544  -15.6291   20.0553 H   0  0  0  0  0  0
  -26.7285  -32.5246   23.0968 H   0  0  0  0  0  0
  -25.0043  -33.9555   25.0278 H   0  0  0  0  0  0
  -22.7581  -31.2871   21.3673 H   0  0  0  0  0  0
  -23.3760  -35.9592   23.3204 H   0  0  0  0  0  0
  -24.3619  -36.8996   22.2082 H   0  0  0  0  0  0
  -23.7228  -37.6420   23.6738 H   0  0  0  0  0  0
  -26.1615  -31.4502   20.6056 H   0  0  0  0  0  0
  -26.8772  -30.7582   22.0302 H   0  0  0  0  0  0
  -28.1358  -28.7835   21.2401 H   0  0  0  0  0  0
  -25.9477  -25.8371   18.9806 H   0  0  0  0  0  0
  -23.9927  -27.2847   18.9700 H   0  0  0  0  0  0
  -23.8190  -30.5515   19.3898 H   0  0  0  0  0  0
  -22.7941  -29.2242   19.8399 H   0  0  0  0  0  0
  -25.1295  -36.1815   25.0796 H   0  0  0  0  0  0
  -21.0029  -28.3325   24.1320 H   0  0  0  0  0  0
  -20.5648  -26.2364   23.3619 H   0  0  0  0  0  0
  -21.6649  -26.7400   22.1201 H   0  0  0  0  0  0
  -19.6901  -25.6284   21.1263 H   0  0  0  0  0  0
  -19.6680  -27.3185   20.6715 H   0  0  0  0  0  0
  -17.4197  -26.6679   21.4037 H   0  0  0  0  0  0
  -18.0346  -26.0074   22.9023 H   0  0  0  0  0  0
  -19.7957  -30.7316   24.2223 H   0  0  0  0  0  0
  -17.5018  -31.6271   24.5176 H   0  0  0  0  0  0
  -15.5362  -30.2975   23.7661 H   0  0  0  0  0  0
  -15.8699  -28.0813   22.7063 H   0  0  0  0  0  0
  -24.5841  -30.7165   25.7729 H   0  0  0  0  0  0
  -24.9030  -32.2940   26.4899 H   0  0  0  0  0  0
  -25.8032  -30.8829   27.0174 H   0  0  0  0  0  0
  -26.3015  -29.6636   24.1350 H   0  0  0  0  0  0
  -27.3965  -29.7233   25.4911 H   0  0  0  0  0  0
  -27.8926  -30.4107   23.9666 H   0  0  0  0  0  0
  -27.2561  -33.3599   26.2072 H   0  0  0  0  0  0
  -28.3827  -32.6971   25.0333 H   0  0  0  0  0  0
  -28.0738  -31.8504   26.5409 H   0  0  0  0  0  0
  -28.2507  -38.0152   24.7590 H   0  0  0  0  0  0
  -28.1176  -36.2683   24.6124 H   0  0  0  0  0  0
  -27.2347  -37.1233   25.8856 H   0  0  0  0  0  0
  -20.9429  -29.8804   21.6781 H   0  0  0  0  0  0
  -26.0117  -38.2778   24.1500 H   0  0  0  0  0  0
  -28.3381  -18.6156   19.5841 H   0  0  0  0  0  0
  -31.2032  -21.3604   21.2716 H   0  0  0  0  0  0
  -31.9169  -17.3245   21.6393 H   0  0  0  0  0  0
  -29.9432  -23.9544   17.9548 H   0  0  0  0  0  0
  -28.1788  -23.6491   17.9229 H   0  0  0  0  0  0
  -27.8021  -21.4455   19.7733 H   0  0  0  0  0  0
  -30.0845  -23.5090   20.2668 H   0  0  0  0  0  0
  -30.4446  -21.6548   18.2270 H   0  0  0  0  0  0
  -28.0564  -24.5476   21.5037 H   0  0  0  0  0  0
  -27.0668  -24.3705   20.1237 H   0  0  0  0  0  0
  -28.7717  -15.9418   20.3388 H   0  0  0  0  0  0
  -27.6325  -21.2824   17.3306 H   0  0  0  0  0  0
  -28.8096  -20.1577   17.2619 H   0  0  0  0  0  0
  -28.9073  -21.4823   16.3481 H   0  0  0  0  0  0
  1 25  1  0  0  0
  1 30  2  0  0  0
  1 82  1  0  0  0
  2  3  1  0  0  0
  2 25  1  0  0  0
  2 84  1  0  0  0
  2 85  1  0  0  0
  3  4  1  0  0  0
  3 86  1  0  0  0
  3 87  1  0  0  0
  4  5  1  0  0  0
  4 88  1  0  0  0
  4 89  1  0  0  0
  5  6  1  0  0  0
  5 26  1  0  0  0
  5 90  1  0  0  0
  6 25  1  0  0  0
  6 91  1  0  0  0
  6 92  1  0  0  0
  7  8  2  0  0  0
  7 26  1  0  0  0
  7 29  1  0  0  0
  8  9  1  0  0  0
  8 22  1  0  0  0
  9 10  1  0  0  0
  9 27  2  0  0  0
 10 11  2  0  0  0
 10 15  1  0  0  0
 11 12  1  0  0  0
 11 93  1  0  0  0
 12 13  2  0  0  0
 12 94  1  0  0  0
 13 14  1  0  0  0
 13 31  1  0  0  0
 14 15  2  0  0  0
 14 95  1  0  0  0
 15 96  1  0  0  0
 16 17  2  0  0  0
 16 21  1  0  0  0
 16 31  1  0  0  0
 17 18  1  0  0  0
 17 97  1  0  0  0
 18 19  2  0  0  0
 18 98  1  0  0  0
 19 20  1  0  0  0
 19 24  1  0  0  0
 20 21  2  0  0  0
 20 99  1  0  0  0
 21 23  1  0  0  0
 22 28  1  0  0  0
 22 32  2  0  0  0
 26 27  1  0  0  0
 28100  1  0  0  0
 28101  1  0  0  0
 29102  1  0  0  0
 29103  1  0  0  0
 33 34  1  0  0  0
 33 66  1  0  0  0
 33 70  2  0  0  0
 34 36  1  0  0  0
 34 59  1  0  0  0
 34104  1  0  0  0
 35 44  2  0  0  0
 35 45  1  0  0  0
 35 68  1  0  0  0
 36 56  1  0  0  0
 36105  1  0  0  0
 37 39  1  0  0  0
 37 47  1  0  0  0
 37 66  1  0  0  0
 37106  1  0  0  0
 38 43  2  0  0  0
 38 46  1  0  0  0
 38 47  1  0  0  0
 39 64  1  0  0  0
 39 67  2  0  0  0
 40 52  1  0  0  0
 40 53  2  0  0  0
 40 58  1  0  0  0
 41107  1  0  0  0
 41108  1  0  0  0
 41109  1  0  0  0
 41 48  1  0  0  0
 42 43  1  0  0  0
 42 66  1  0  0  0
 42110  1  0  0  0
 42111  1  0  0  0
 43 44  1  0  0  0
 44112  1  0  0  0
 45 46  2  0  0  0
 45113  1  0  0  0
 46114  1  0  0  0
 47115  1  0  0  0
 47116  1  0  0  0
 48 56  1  0  0  0
 48 65  1  0  0  0
 48117  1  0  0  0
 49 50  1  0  0  0
 49 53  1  0  0  0
 49 64  1  0  0  0
 49118  1  0  0  0
 50 51  1  0  0  0
 50119  1  0  0  0
 50120  1  0  0  0
 51 52  1  0  0  0
 51121  1  0  0  0
 51122  1  0  0  0
 52123  1  0  0  0
 52124  1  0  0  0
 53 54  1  0  0  0
 54 55  2  0  0  0
 54125  1  0  0  0
 55 57  1  0  0  0
 55126  1  0  0  0
 56 69  2  0  0  0
 57 58  2  0  0  0
 57127  1  0  0  0
 58128  1  0  0  0
 59 60  1  0  0  0
 59 61  1  0  0  0
 59 62  1  0  0  0
 60129  1  0  0  0
 60130  1  0  0  0
 60131  1  0  0  0
 61132  1  0  0  0
 61133  1  0  0  0
 61134  1  0  0  0
 62135  1  0  0  0
 62136  1  0  0  0
 62137  1  0  0  0
 63 65  1  0  0  0
 63138  1  0  0  0
 63139  1  0  0  0
 63140  1  0  0  0
 64141  1  0  0  0
 65142  1  0  0  0
 68 80  1  0  0  0
 71 74  2  0  0  0
 71 75  1  0  0  0
 71143  1  0  0  0
 72 74  1  0  0  0
 72 81  2  0  0  0
 72144  1  0  0  0
 73 75  2  0  0  0
 73 81  1  0  0  0
 73145  1  0  0  0
 74 77  1  0  0  0
 75 82  1  0  0  0
 76 78  1  0  0  0
 76 79  1  0  0  0
 76146  1  0  0  0
 76147  1  0  0  0
 77 78  1  0  0  0
 77 79  1  0  0  0
 77148  1  0  0  0
 78 80  1  0  0  0
 78149  1  0  0  0
 79 83  1  0  0  0
 79150  1  0  0  0
 80151  1  0  0  0
 80152  1  0  0  0
 82153  1  0  0  0
 83154  1  0  0  0
 83155  1  0  0  0
 83156  1  0  0  0
M  CHG  1  83   1
M  ISO  4   1 100  68 101  80 101  82 100
M  END
> <chiral flag>
0

> <version>
0

> <s_m_source_file>
/data/baiqing/PycharmProjects/Reinvent-master-3.2/result/LINK_invent/BTK/process_docking_weight1_custom_sum_contain_oxygen_bond_distance_aromatic_linkinvent_7_9_3/rearranged_h_0176.sdf

> <i_m_source_file_index>
15

> <r_mmod_Potential_Energy-OPLS-2005>
139.073150634766

> <r_mmod_Stretch_Energy-OPLS-2005>
281.899536132812

> <r_mmod_Bend_Energy-OPLS-2005>
275.325744628906

> <r_mmod_Torsional_Energy-OPLS-2005>
266.306671142578

> <r_mmod_Improper_Torsional_Energy-OPLS-2005>
6.82178449630737

> <r_mmod_Van_der_Waal_Energy-OPLS-2005>
125.934432983398

> <r_mmod_Electrostatic_Energy-OPLS-2005>
-462.50390625

> <r_mmod_Solvation_Energy-OPLS-2005>
-560.385192871094

> <b_mmod_Minimization_Converged-OPLS-2005>
0

> <r_mmod_RMS_Derivative-OPLS-2005>
4.11309337615967

$$$$
15
                    3D
 Structure written by MMmdl.
154163  0  0  1  0            999 V2000
  -30.3947  -15.2868   20.4348 C   0  0  0  0  0  0
  -30.4202  -12.8152   19.5831 C   0  0  0  0  0  0
  -29.5382  -12.6000   18.3265 C   0  0  0  0  0  0
  -28.0885  -12.3110   18.7426 C   0  0  0  0  0  0
  -27.6081  -13.2776   19.8524 C   0  0  2  0  0  0
  -28.6237  -13.4414   21.0017 C   0  0  0  0  0  0
  -25.2348  -13.8265   20.5863 C   0  0  0  0  0  0
  -24.1689  -13.0473   20.9283 C   0  0  0  0  0  0
  -24.6337  -11.6955   20.8802 C   0  0  0  0  0  0
  -23.9033  -10.4299   21.0438 C   0  0  0  0  0  0
  -24.3602   -9.4212   21.9205 C   0  0  0  0  0  0
  -23.6264   -8.2256   22.0755 C   0  0  0  0  0  0
  -22.4261   -8.0274   21.3525 C   0  0  0  0  0  0
  -21.9881   -9.0268   20.4646 C   0  0  0  0  0  0
  -22.7213  -10.2146   20.3061 C   0  0  0  0  0  0
  -21.6855   -6.0712   22.5243 C   0  0  0  0  0  0
  -21.4040   -6.5620   23.8190 C   0  0  0  0  0  0
  -21.3665   -5.6785   24.9174 C   0  0  0  0  0  0
  -21.6035   -4.3041   24.7211 C   0  0  0  0  0  0
  -21.8842   -3.8128   23.4332 C   0  0  0  0  0  0
  -21.9195   -4.6937   22.3383 C   0  0  0  0  0  0
  -22.7688  -13.5177   21.1916 C   0  0  0  0  0  0
  -22.1672   -4.2140   21.0946 F   0  0  0  0  0  0
  -21.5601   -3.4521   25.7721 F   0  0  0  0  0  0
  -29.8568  -13.9632   20.3950 N   0  0  0  0  0  0
  -26.2753  -12.9518   20.3353 N   0  0  0  0  0  0
  -25.9266  -11.6637   20.5817 N   0  0  0  0  0  0
  -22.0365  -12.8139   22.0461 N   0  0  0  0  0  0
  -25.4122  -15.2025   20.4410 N   0  0  0  0  0  0
  -31.6040  -15.2967   20.1539 O   0  0  0  0  0  0
  -21.6639   -6.8859   21.4202 O   0  0  0  0  0  0
  -22.3362  -14.5486   20.6722 O   0  0  0  0  0  0
  -24.6703  -31.8204   23.1655 C   0  0  0  0  0  0
  -25.9398  -32.4531   23.8125 C   0  0  1  0  0  0
  -27.1887  -26.8496   20.2507 C   0  0  0  0  0  0
  -25.6088  -33.8362   24.2026 N   0  0  0  0  0  0
  -23.4843  -30.4343   21.5123 C   0  0  2  0  0  0
  -24.9371  -28.8100   20.1226 C   0  0  0  0  0  0
  -22.7688  -29.4456   22.4698 C   0  0  0  0  0  0
  -18.0349  -28.1439   22.8471 C   0  0  0  0  0  0
  -24.1518  -36.7181   23.2638 C   0  0  0  0  0  0
  -26.0625  -30.6048   21.4118 C   0  0  0  0  0  0
  -26.1237  -29.1869   20.7676 C   0  0  0  0  0  0
  -27.2464  -28.2335   20.8008 C   0  0  0  0  0  0
  -25.9818  -26.6529   19.5386 C   0  0  0  0  0  0
  -24.8979  -27.5662   19.4806 C   0  0  0  0  0  0
  -23.7330  -29.7531   20.1414 C   0  0  0  0  0  0
  -25.4163  -36.2928   24.0264 C   0  0  1  0  0  0
  -20.5985  -28.3815   23.1152 C   0  0  2  0  0  0
  -20.6829  -26.9502   22.5386 C   0  0  0  0  0  0
  -19.5789  -26.6415   21.5208 C   0  0  0  0  0  0
  -18.1982  -26.7973   22.1628 C   0  0  0  0  0  0
  -19.1618  -28.8941   23.2796 C   0  0  0  0  0  0
  -18.9519  -30.1524   23.8831 C   0  0  0  0  0  0
  -17.6507  -30.6610   24.0577 C   0  0  0  0  0  0
  -25.9147  -34.9308   23.4943 C   0  0  0  0  0  0
  -16.5401  -29.9096   23.6350 C   0  0  0  0  0  0
  -16.7326  -28.6534   23.0340 C   0  0  0  0  0  0
  -26.4646  -31.6479   25.0666 C   0  0  0  0  0  0
  -25.3763  -31.3764   26.1307 C   0  0  0  0  0  0
  -27.0533  -30.2813   24.6452 C   0  0  0  0  0  0
  -27.6106  -32.4322   25.7488 C   0  0  0  0  0  0
  -27.5565  -37.1740   24.8459 C   0  0  0  0  0  0
  -21.4352  -29.3066   22.3448 N   0  0  0  0  0  0
  -26.4289  -37.3670   23.9393 N   0  0  0  0  0  0
  -24.7597  -30.9839   22.0809 N   0  0  0  0  0  0
  -23.4229  -28.8046   23.2959 O   0  0  0  0  0  0
  -28.1787  -25.7130   20.2604 O   0  0  0  0  0  0
  -26.5738  -34.8869   22.4545 O   0  0  0  0  0  0
  -23.5762  -32.1226   23.6713 O   0  0  0  0  0  0
  -27.9516  -20.9537   18.3000 C   0  0  0  0  0  0
  -28.9511  -21.1705   20.8201 C   0  0  0  0  0  0
  -28.5836  -19.8191   18.8707 C   0  0  0  0  0  0
  -29.0524  -19.7517   20.1854 C   0  0  0  0  0  0
  -27.8304  -22.2253   18.9431 C   0  0  0  0  0  0
  -28.3686  -22.5006   20.2297 C   0  0  0  0  0  0
  -29.0556  -18.6229   18.0763 C   0  0  0  0  0  0
  -30.3108  -18.1485   18.8541 C   0  0  0  0  0  0
  -29.9290  -18.2129   20.3485 C   0  0  2  0  0  0
  -27.0858  -23.3316   18.2212 C   0  0  0  0  0  0
  -28.0634  -24.1424   20.8558 C   0  0  0  0  0  0
  -29.6253  -16.5641   20.5869 N   0  0  0  0  0  0
  -31.4557  -12.9997   19.2920 H   0  0  0  0  0  0
  -30.4493  -11.8975   20.1728 H   0  0  0  0  0  0
  -29.9272  -11.7882   17.7113 H   0  0  0  0  0  0
  -29.5764  -13.5018   17.7173 H   0  0  0  0  0  0
  -28.0505  -11.2848   19.1156 H   0  0  0  0  0  0
  -27.4247  -12.3631   17.8799 H   0  0  0  0  0  0
  -27.5283  -14.2527   19.3741 H   0  0  0  0  0  0
  -28.7845  -12.5023   21.5352 H   0  0  0  0  0  0
  -28.2607  -14.1488   21.7485 H   0  0  0  0  0  0
  -25.2780   -9.5719   22.4772 H   0  0  0  0  0  0
  -24.0004   -7.4626   22.7441 H   0  0  0  0  0  0
  -21.0836   -8.8755   19.8919 H   0  0  0  0  0  0
  -22.3663  -10.9684   19.6151 H   0  0  0  0  0  0
  -21.2065   -7.6135   23.9712 H   0  0  0  0  0  0
  -21.1466   -6.0502   25.9068 H   0  0  0  0  0  0
  -22.0623   -2.7593   23.2833 H   0  0  0  0  0  0
  -22.4052  -11.9817   22.4850 H   0  0  0  0  0  0
  -21.0990  -13.1105   22.2792 H   0  0  0  0  0  0
  -24.6572  -15.8668   20.5867 H   0  0  0  0  0  0
  -26.2591  -15.6350   20.1009 H   0  0  0  0  0  0
  -26.7499  -32.5028   23.0842 H   0  0  0  0  0  0
  -25.0174  -33.9407   25.0133 H   0  0  0  0  0  0
  -22.7957  -31.2654   21.3398 H   0  0  0  0  0  0
  -23.3751  -35.9533   23.3256 H   0  0  0  0  0  0
  -24.3590  -36.8884   22.2067 H   0  0  0  0  0  0
  -23.7316  -37.6373   23.6728 H   0  0  0  0  0  0
  -26.2590  -31.3336   20.6260 H   0  0  0  0  0  0
  -26.9215  -30.6620   22.0685 H   0  0  0  0  0  0
  -28.1499  -28.5265   21.3157 H   0  0  0  0  0  0
  -25.8327  -25.7220   19.0237 H   0  0  0  0  0  0
  -24.0035  -27.2732   18.9435 H   0  0  0  0  0  0
  -23.9004  -30.5254   19.3888 H   0  0  0  0  0  0
  -22.8377  -29.2202   19.8105 H   0  0  0  0  0  0
  -25.1362  -36.1674   25.0749 H   0  0  0  0  0  0
  -21.0088  -28.3468   24.1255 H   0  0  0  0  0  0
  -20.5747  -26.2446   23.3644 H   0  0  0  0  0  0
  -21.6687  -26.7474   22.1176 H   0  0  0  0  0  0
  -19.6948  -25.6305   21.1271 H   0  0  0  0  0  0
  -19.6697  -27.3190   20.6721 H   0  0  0  0  0  0
  -17.4248  -26.6740   21.4030 H   0  0  0  0  0  0
  -18.0364  -26.0123   22.9049 H   0  0  0  0  0  0
  -19.7995  -30.7385   24.2147 H   0  0  0  0  0  0
  -17.5046  -31.6260   24.5231 H   0  0  0  0  0  0
  -15.5392  -30.2979   23.7652 H   0  0  0  0  0  0
  -15.8752  -28.0819   22.7037 H   0  0  0  0  0  0
  -24.5944  -30.7118   25.7593 H   0  0  0  0  0  0
  -24.8973  -32.2997   26.4583 H   0  0  0  0  0  0
  -25.7998  -30.9013   27.0168 H   0  0  0  0  0  0
  -26.3205  -29.6459   24.1456 H   0  0  0  0  0  0
  -27.4017  -29.7207   25.5135 H   0  0  0  0  0  0
  -27.9192  -30.3892   23.9910 H   0  0  0  0  0  0
  -27.2617  -33.3641   26.1949 H   0  0  0  0  0  0
  -28.3999  -32.6872   25.0396 H   0  0  0  0  0  0
  -28.0721  -31.8563   26.5517 H   0  0  0  0  0  0
  -28.2556  -38.0054   24.7496 H   0  0  0  0  0  0
  -28.1094  -36.2571   24.6301 H   0  0  0  0  0  0
  -27.2279  -37.1426   25.8864 H   0  0  0  0  0  0
  -20.9607  -29.8678   21.6526 H   0  0  0  0  0  0
  -26.0093  -38.2715   24.1385 H   0  0  0  0  0  0
  -27.5647  -20.8554   17.2938 H   0  0  0  0  0  0
  -29.3810  -21.2603   21.8111 H   0  0  0  0  0  0
  -29.2844  -18.8601   17.0345 H   0  0  0  0  0  0
  -28.2793  -17.8529   18.0939 H   0  0  0  0  0  0
  -31.1206  -18.8630   18.6988 H   0  0  0  0  0  0
  -30.7036  -17.1958   18.5039 H   0  0  0  0  0  0
  -30.8171  -18.4267   20.9414 H   0  0  0  0  0  0
  -27.7600  -24.1669   18.0237 H   0  0  0  0  0  0
  -26.2732  -23.6847   18.8566 H   0  0  0  0  0  0
  -26.6560  -23.0205   17.2661 H   0  0  0  0  0  0
  -27.0386  -24.0706   21.2313 H   0  0  0  0  0  0
  -28.6624  -24.1711   21.7699 H   0  0  0  0  0  0
  -28.6794  -16.3876   20.8959 H   0  0  0  0  0  0
  1 25  1  0  0  0
  1 30  2  0  0  0
  1 82  1  0  0  0
  2  3  1  0  0  0
  2 25  1  0  0  0
  2 83  1  0  0  0
  2 84  1  0  0  0
  3  4  1  0  0  0
  3 85  1  0  0  0
  3 86  1  0  0  0
  4  5  1  0  0  0
  4 87  1  0  0  0
  4 88  1  0  0  0
  5  6  1  0  0  0
  5 26  1  0  0  0
  5 89  1  0  0  0
  6 25  1  0  0  0
  6 90  1  0  0  0
  6 91  1  0  0  0
  7  8  2  0  0  0
  7 26  1  0  0  0
  7 29  1  0  0  0
  8  9  1  0  0  0
  8 22  1  0  0  0
  9 10  1  0  0  0
  9 27  2  0  0  0
 10 11  2  0  0  0
 10 15  1  0  0  0
 11 12  1  0  0  0
 11 92  1  0  0  0
 12 13  2  0  0  0
 12 93  1  0  0  0
 13 14  1  0  0  0
 13 31  1  0  0  0
 14 15  2  0  0  0
 14 94  1  0  0  0
 15 95  1  0  0  0
 16 17  2  0  0  0
 16 21  1  0  0  0
 16 31  1  0  0  0
 17 18  1  0  0  0
 17 96  1  0  0  0
 18 19  2  0  0  0
 18 97  1  0  0  0
 19 20  1  0  0  0
 19 24  1  0  0  0
 20 21  2  0  0  0
 20 98  1  0  0  0
 21 23  1  0  0  0
 22 28  1  0  0  0
 22 32  2  0  0  0
 26 27  1  0  0  0
 28 99  1  0  0  0
 28100  1  0  0  0
 29101  1  0  0  0
 29102  1  0  0  0
 33 34  1  0  0  0
 33 66  1  0  0  0
 33 70  2  0  0  0
 34 36  1  0  0  0
 34 59  1  0  0  0
 34103  1  0  0  0
 35 44  2  0  0  0
 35 45  1  0  0  0
 35 68  1  0  0  0
 36 56  1  0  0  0
 36104  1  0  0  0
 37 39  1  0  0  0
 37 47  1  0  0  0
 37 66  1  0  0  0
 37105  1  0  0  0
 38 43  2  0  0  0
 38 46  1  0  0  0
 38 47  1  0  0  0
 39 64  1  0  0  0
 39 67  2  0  0  0
 40 52  1  0  0  0
 40 53  2  0  0  0
 40 58  1  0  0  0
 41106  1  0  0  0
 41107  1  0  0  0
 41108  1  0  0  0
 41 48  1  0  0  0
 42 43  1  0  0  0
 42 66  1  0  0  0
 42109  1  0  0  0
 42110  1  0  0  0
 43 44  1  0  0  0
 44111  1  0  0  0
 45 46  2  0  0  0
 45112  1  0  0  0
 46113  1  0  0  0
 47114  1  0  0  0
 47115  1  0  0  0
 48 56  1  0  0  0
 48 65  1  0  0  0
 48116  1  0  0  0
 49 50  1  0  0  0
 49 53  1  0  0  0
 49 64  1  0  0  0
 49117  1  0  0  0
 50 51  1  0  0  0
 50118  1  0  0  0
 50119  1  0  0  0
 51 52  1  0  0  0
 51120  1  0  0  0
 51121  1  0  0  0
 52122  1  0  0  0
 52123  1  0  0  0
 53 54  1  0  0  0
 54 55  2  0  0  0
 54124  1  0  0  0
 55 57  1  0  0  0
 55125  1  0  0  0
 56 69  2  0  0  0
 57 58  2  0  0  0
 57126  1  0  0  0
 58127  1  0  0  0
 59 60  1  0  0  0
 59 61  1  0  0  0
 59 62  1  0  0  0
 60128  1  0  0  0
 60129  1  0  0  0
 60130  1  0  0  0
 61131  1  0  0  0
 61132  1  0  0  0
 61133  1  0  0  0
 62134  1  0  0  0
 62135  1  0  0  0
 62136  1  0  0  0
 63 65  1  0  0  0
 63137  1  0  0  0
 63138  1  0  0  0
 63139  1  0  0  0
 64140  1  0  0  0
 65141  1  0  0  0
 68 81  1  0  0  0
 71 73  2  0  0  0
 71 75  1  0  0  0
 71142  1  0  0  0
 72 74  2  0  0  0
 72 76  1  0  0  0
 72143  1  0  0  0
 73 74  1  0  0  0
 73 77  1  0  0  0
 74 79  1  0  0  0
 75 76  2  0  0  0
 75 80  1  0  0  0
 76 81  1  0  0  0
 77 78  1  0  0  0
 77144  1  0  0  0
 77145  1  0  0  0
 78 79  1  0  0  0
 78146  1  0  0  0
 78147  1  0  0  0
 79 82  1  0  0  0
 79148  1  0  0  0
 80149  1  0  0  0
 80150  1  0  0  0
 80151  1  0  0  0
 81152  1  0  0  0
 81153  1  0  0  0
 82154  1  0  0  0
M  ISO  4   1 100  68 101  81 101  82 100
M  END
> <chiral flag>
0

> <version>
0

> <s_m_source_file>
/data/baiqing/PycharmProjects/Reinvent-master-3.2/result/LINK_invent/BTK/process_docking_weight1_custom_sum_contain_oxygen_bond_distance_aromatic_linkinvent_7_9_3/rearranged_h_0176.sdf

> <i_m_source_file_index>
16

> <r_mmod_Potential_Energy-OPLS-2005>
1535.62817382812

> <r_mmod_Stretch_Energy-OPLS-2005>
669.903686523438

> <r_mmod_Bend_Energy-OPLS-2005>
551.817626953125

> <r_mmod_Torsional_Energy-OPLS-2005>
254.808074951172

> <r_mmod_Improper_Torsional_Energy-OPLS-2005>
10.8656330108643

> <r_mmod_Van_der_Waal_Energy-OPLS-2005>
127.985862731934

> <r_mmod_Electrostatic_Energy-OPLS-2005>
-391.305755615234

> <r_mmod_Solvation_Energy-OPLS-2005>
-209.067459106445

> <b_mmod_Minimization_Converged-OPLS-2005>
0

> <r_mmod_RMS_Derivative-OPLS-2005>
7.48604249954224

$$$$
16
                    3D
 Structure written by MMmdl.
170179  0  0  1  0            999 V2000
  -30.6706  -14.5763   20.5047 C   0  0  0  0  0  0
  -30.4293  -12.3513   19.4509 C   0  0  0  0  0  0
  -29.5067  -12.4952   18.2224 C   0  0  0  0  0  0
  -28.0264  -12.3509   18.6309 C   0  0  0  0  0  0
  -27.6551  -13.2150   19.8662 C   0  0  2  0  0  0
  -28.7003  -13.0616   20.9944 C   0  0  0  0  0  0
  -25.2587  -13.8162   20.5703 C   0  0  0  0  0  0
  -24.1839  -13.0434   20.9183 C   0  0  0  0  0  0
  -24.6392  -11.6899   20.8727 C   0  0  0  0  0  0
  -23.9062  -10.4287   21.0390 C   0  0  0  0  0  0
  -24.3615   -9.4210   21.9178 C   0  0  0  0  0  0
  -23.6296   -8.2240   22.0747 C   0  0  0  0  0  0
  -22.4278   -8.0274   21.3534 C   0  0  0  0  0  0
  -21.9905   -9.0247   20.4642 C   0  0  0  0  0  0
  -22.7229  -10.2127   20.3046 C   0  0  0  0  0  0
  -21.6842   -6.0730   22.5280 C   0  0  0  0  0  0
  -21.4001   -6.5635   23.8215 C   0  0  0  0  0  0
  -21.3664   -5.6791   24.9180 C   0  0  0  0  0  0
  -21.6053   -4.3055   24.7223 C   0  0  0  0  0  0
  -21.8819   -3.8141   23.4344 C   0  0  0  0  0  0
  -21.9191   -4.6958   22.3400 C   0  0  0  0  0  0
  -22.7872  -13.5244   21.1840 C   0  0  0  0  0  0
  -22.1666   -4.2145   21.0978 F   0  0  0  0  0  0
  -21.5645   -3.4537   25.7733 F   0  0  0  0  0  0
  -30.0173  -13.3784   20.4251 N   0  0  0  0  0  0
  -26.3012  -12.9340   20.3355 N   0  0  0  0  0  0
  -25.9327  -11.6494   20.5758 N   0  0  0  0  0  0
  -22.0495  -12.8254   22.0390 N   0  0  0  0  0  0
  -25.4337  -15.1877   20.4118 N   0  0  0  0  0  0
  -31.8460  -14.6893   20.1424 O   0  0  0  0  0  0
  -21.6637   -6.8871   21.4237 O   0  0  0  0  0  0
  -22.3580  -14.5562   20.6695 O   0  0  0  0  0  0
  -24.6219  -31.8635   23.2061 C   0  0  0  0  0  0
  -25.9086  -32.4795   23.8381 C   0  0  1  0  0  0
  -27.2197  -27.3663   20.1168 C   0  0  0  0  0  0
  -25.5914  -33.8599   24.2309 N   0  0  0  0  0  0
  -23.4144  -30.4871   21.5479 C   0  0  2  0  0  0
  -24.8632  -28.9546   20.1057 C   0  0  0  0  0  0
  -22.7465  -29.4633   22.4961 C   0  0  0  0  0  0
  -18.0283  -28.1385   22.8488 C   0  0  0  0  0  0
  -24.1490  -36.7309   23.2638 C   0  0  0  0  0  0
  -25.9513  -30.8089   21.3724 C   0  0  0  0  0  0
  -26.0292  -29.4420   20.7126 C   0  0  0  0  0  0
  -27.2156  -28.6565   20.7142 C   0  0  0  0  0  0
  -26.0450  -26.9296   19.4666 C   0  0  0  0  0  0
  -24.8709  -27.7017   19.4721 C   0  0  0  0  0  0
  -23.6259  -29.8253   20.1612 C   0  0  0  0  0  0
  -25.4108  -36.3096   24.0337 C   0  0  1  0  0  0
  -20.5877  -28.3679   23.1301 C   0  0  2  0  0  0
  -20.6770  -26.9408   22.5415 C   0  0  0  0  0  0
  -19.5747  -26.6385   21.5218 C   0  0  0  0  0  0
  -18.1926  -26.7926   22.1625 C   0  0  0  0  0  0
  -19.1532  -28.8851   23.2884 C   0  0  0  0  0  0
  -18.9453  -30.1458   23.8888 C   0  0  0  0  0  0
  -17.6449  -30.6583   24.0556 C   0  0  0  0  0  0
  -25.9043  -34.9463   23.5125 C   0  0  0  0  0  0
  -16.5342  -29.9077   23.6334 C   0  0  0  0  0  0
  -16.7267  -28.6500   23.0349 C   0  0  0  0  0  0
  -26.4489  -31.6588   25.0730 C   0  0  0  0  0  0
  -25.3738  -31.3709   26.1470 C   0  0  0  0  0  0
  -27.0314  -30.3009   24.6163 C   0  0  0  0  0  0
  -27.6064  -32.4311   25.7487 C   0  0  0  0  0  0
  -27.5586  -37.1802   24.8458 C   0  0  0  0  0  0
  -21.4181  -29.3037   22.3700 N   0  0  0  0  0  0
  -26.4294  -37.3790   23.9412 N   0  0  0  0  0  0
  -24.6809  -31.0685   22.0995 N   0  0  0  0  0  0
  -23.4206  -28.8176   23.3026 O   0  0  0  0  0  0
  -28.2830  -26.4729   20.2095 O   0  0  0  0  0  0
  -26.5607  -34.8921   22.4690 O   0  0  0  0  0  0
  -23.5392  -32.1414   23.7417 O   0  0  0  0  0  0
  -29.1590  -23.3841   22.1800 C   0  0  0  0  0  0
  -28.6937  -23.9733   20.9832 C   0  0  0  0  0  0
  -29.6587  -22.0546   22.2064 C   0  0  0  0  0  0
  -28.7412  -23.1421   19.8352 C   0  0  0  0  0  0
  -29.6904  -21.3147   20.9965 C   0  0  0  0  0  0
  -29.8162  -17.8117   21.9312 C   0  0  0  0  0  0
  -30.2923  -17.9970   19.5098 C   0  0  0  0  0  0
  -29.3272  -16.3395   21.7238 C   0  0  0  0  0  0
  -29.7418  -16.5557   19.3213 C   0  0  0  0  0  0
  -29.6637  -18.7551   20.7017 C   0  0  0  0  0  0
  -28.1959  -23.6273   18.5068 C   0  0  0  0  0  0
  -28.8854  -21.2142   24.4660 C   0  0  0  0  0  0
  -31.1668  -22.3051   24.2527 C   0  0  0  0  0  0
  -27.9415  -25.3369   21.0700 C   0  0  0  0  0  0
  -30.0959  -21.4551   23.5495 C   0  0  0  0  0  0
  -29.2272  -21.8619   19.8454 N   0  0  0  0  0  0
  -29.8711  -15.6922   20.5145 N   0  0  0  0  0  0
  -30.3391  -20.0555   20.9233 N   0  0  0  0  0  0
  -31.4743  -12.4524   19.1528 H   0  0  0  0  0  0
  -30.3416  -11.3556   19.8888 H   0  0  0  0  0  0
  -29.7620  -11.7464   17.4711 H   0  0  0  0  0  0
  -29.6653  -13.4664   17.7507 H   0  0  0  0  0  0
  -27.8511  -11.2989   18.8546 H   0  0  0  0  0  0
  -27.3774  -12.5968   17.7891 H   0  0  0  0  0  0
  -27.6754  -14.2522   19.5334 H   0  0  0  0  0  0
  -28.6987  -12.0440   21.3871 H   0  0  0  0  0  0
  -28.4604  -13.7104   21.8366 H   0  0  0  0  0  0
  -25.2743   -9.5706   22.4777 H   0  0  0  0  0  0
  -23.9998   -7.4635   22.7471 H   0  0  0  0  0  0
  -21.0833   -8.8764   19.8963 H   0  0  0  0  0  0
  -22.3667  -10.9674   19.6169 H   0  0  0  0  0  0
  -21.1971   -7.6138   23.9717 H   0  0  0  0  0  0
  -21.1505   -6.0519   25.9092 H   0  0  0  0  0  0
  -22.0593   -2.7600   23.2839 H   0  0  0  0  0  0
  -22.4066  -11.9907   22.4793 H   0  0  0  0  0  0
  -21.1124  -13.1340   22.2574 H   0  0  0  0  0  0
  -24.6731  -15.8498   20.5185 H   0  0  0  0  0  0
  -26.2998  -15.6201   20.1182 H   0  0  0  0  0  0
  -26.7163  -32.5483   23.1140 H   0  0  0  0  0  0
  -25.0050  -33.9747   25.0449 H   0  0  0  0  0  0
  -22.7056  -31.3058   21.4090 H   0  0  0  0  0  0
  -23.3755  -35.9637   23.3289 H   0  0  0  0  0  0
  -24.3596  -36.8935   22.2057 H   0  0  0  0  0  0
  -23.7235  -37.6507   23.6663 H   0  0  0  0  0  0
  -26.0791  -31.5756   20.6070 H   0  0  0  0  0  0
  -26.8329  -30.8552   21.9992 H   0  0  0  0  0  0
  -28.1049  -29.0151   21.2138 H   0  0  0  0  0  0
  -26.0237  -25.9615   18.9868 H   0  0  0  0  0  0
  -23.9789  -27.3245   18.9910 H   0  0  0  0  0  0
  -23.7341  -30.6024   19.4037 H   0  0  0  0  0  0
  -22.7488  -29.2470   19.8650 H   0  0  0  0  0  0
  -25.1288  -36.1958   25.0827 H   0  0  0  0  0  0
  -20.9967  -28.3245   24.1424 H   0  0  0  0  0  0
  -20.5689  -26.2285   23.3609 H   0  0  0  0  0  0
  -21.6637  -26.7457   22.1191 H   0  0  0  0  0  0
  -19.6907  -25.6299   21.1242 H   0  0  0  0  0  0
  -19.6686  -27.3200   20.6751 H   0  0  0  0  0  0
  -17.4202  -26.6692   21.4013 H   0  0  0  0  0  0
  -18.0310  -26.0063   22.9012 H   0  0  0  0  0  0
  -19.7929  -30.7282   24.2248 H   0  0  0  0  0  0
  -17.5002  -31.6265   24.5156 H   0  0  0  0  0  0
  -15.5339  -30.2971   23.7670 H   0  0  0  0  0  0
  -15.8666  -28.0815   22.7068 H   0  0  0  0  0  0
  -24.5894  -30.7084   25.7794 H   0  0  0  0  0  0
  -24.8950  -32.2866   26.4945 H   0  0  0  0  0  0
  -25.8070  -30.8841   27.0217 H   0  0  0  0  0  0
  -26.2869  -29.6763   24.1208 H   0  0  0  0  0  0
  -27.4037  -29.7260   25.4654 H   0  0  0  0  0  0
  -27.8735  -30.4290   23.9356 H   0  0  0  0  0  0
  -27.2690  -33.3613   26.2074 H   0  0  0  0  0  0
  -28.3860  -32.6872   25.0296 H   0  0  0  0  0  0
  -28.0750  -31.8427   26.5385 H   0  0  0  0  0  0
  -28.2594  -38.0112   24.7532 H   0  0  0  0  0  0
  -28.1096  -36.2650   24.6252 H   0  0  0  0  0  0
  -27.2314  -37.1403   25.8862 H   0  0  0  0  0  0
  -20.9365  -29.8740   21.6890 H   0  0  0  0  0  0
  -26.0182  -38.2867   24.1409 H   0  0  0  0  0  0
  -29.0887  -23.9394   23.1043 H   0  0  0  0  0  0
  -30.8687  -17.7725   22.2179 H   0  0  0  0  0  0
  -29.2944  -18.2398   22.7881 H   0  0  0  0  0  0
  -30.1340  -18.5672   18.5932 H   0  0  0  0  0  0
  -31.3738  -17.9383   19.6421 H   0  0  0  0  0  0
  -28.2389  -16.3203   21.6555 H   0  0  0  0  0  0
  -29.5841  -15.7531   22.6074 H   0  0  0  0  0  0
  -30.2319  -16.0930   18.4619 H   0  0  0  0  0  0
  -28.6839  -16.6069   19.0609 H   0  0  0  0  0  0
  -28.6046  -18.9287   20.5048 H   0  0  0  0  0  0
  -28.6190  -24.5992   18.2516 H   0  0  0  0  0  0
  -27.1117  -23.7256   18.5551 H   0  0  0  0  0  0
  -28.4365  -22.9377   17.6972 H   0  0  0  0  0  0
  -28.1481  -20.5730   23.9812 H   0  0  0  0  0  0
  -28.3865  -22.1458   24.7365 H   0  0  0  0  0  0
  -29.1850  -20.7225   25.3927 H   0  0  0  0  0  0
  -32.0350  -22.4568   23.6111 H   0  0  0  0  0  0
  -31.5181  -21.8129   25.1604 H   0  0  0  0  0  0
  -30.7905  -23.2854   24.5466 H   0  0  0  0  0  0
  -28.0288  -25.7029   22.0944 H   0  0  0  0  0  0
  -26.8905  -25.0630   20.9728 H   0  0  0  0  0  0
  -30.5495  -20.4801   23.3834 H   0  0  0  0  0  0
  -31.0441  -19.9684   21.6443 H   0  0  0  0  0  0
  1 25  1  0  0  0
  1 30  2  0  0  0
  1 87  1  0  0  0
  2  3  1  0  0  0
  2 25  1  0  0  0
  2 89  1  0  0  0
  2 90  1  0  0  0
  3  4  1  0  0  0
  3 91  1  0  0  0
  3 92  1  0  0  0
  4  5  1  0  0  0
  4 93  1  0  0  0
  4 94  1  0  0  0
  5  6  1  0  0  0
  5 26  1  0  0  0
  5 95  1  0  0  0
  6 25  1  0  0  0
  6 96  1  0  0  0
  6 97  1  0  0  0
  7  8  2  0  0  0
  7 26  1  0  0  0
  7 29  1  0  0  0
  8  9  1  0  0  0
  8 22  1  0  0  0
  9 10  1  0  0  0
  9 27  2  0  0  0
 10 11  2  0  0  0
 10 15  1  0  0  0
 11 12  1  0  0  0
 11 98  1  0  0  0
 12 13  2  0  0  0
 12 99  1  0  0  0
 13 14  1  0  0  0
 13 31  1  0  0  0
 14 15  2  0  0  0
 14100  1  0  0  0
 15101  1  0  0  0
 16 17  2  0  0  0
 16 21  1  0  0  0
 16 31  1  0  0  0
 17 18  1  0  0  0
 17102  1  0  0  0
 18 19  2  0  0  0
 18103  1  0  0  0
 19 20  1  0  0  0
 19 24  1  0  0  0
 20 21  2  0  0  0
 20104  1  0  0  0
 21 23  1  0  0  0
 22 28  1  0  0  0
 22 32  2  0  0  0
 26 27  1  0  0  0
 28105  1  0  0  0
 28106  1  0  0  0
 29107  1  0  0  0
 29108  1  0  0  0
 33 34  1  0  0  0
 33 66  1  0  0  0
 33 70  2  0  0  0
 34 36  1  0  0  0
 34 59  1  0  0  0
 34109  1  0  0  0
 35 44  2  0  0  0
 35 45  1  0  0  0
 35 68  1  0  0  0
 36 56  1  0  0  0
 36110  1  0  0  0
 37 39  1  0  0  0
 37 47  1  0  0  0
 37 66  1  0  0  0
 37111  1  0  0  0
 38 43  2  0  0  0
 38 46  1  0  0  0
 38 47  1  0  0  0
 39 64  1  0  0  0
 39 67  2  0  0  0
 40 52  1  0  0  0
 40 53  2  0  0  0
 40 58  1  0  0  0
 41112  1  0  0  0
 41113  1  0  0  0
 41114  1  0  0  0
 41 48  1  0  0  0
 42 43  1  0  0  0
 42 66  1  0  0  0
 42115  1  0  0  0
 42116  1  0  0  0
 43 44  1  0  0  0
 44117  1  0  0  0
 45 46  2  0  0  0
 45118  1  0  0  0
 46119  1  0  0  0
 47120  1  0  0  0
 47121  1  0  0  0
 48 56  1  0  0  0
 48 65  1  0  0  0
 48122  1  0  0  0
 49 50  1  0  0  0
 49 53  1  0  0  0
 49 64  1  0  0  0
 49123  1  0  0  0
 50 51  1  0  0  0
 50124  1  0  0  0
 50125  1  0  0  0
 51 52  1  0  0  0
 51126  1  0  0  0
 51127  1  0  0  0
 52128  1  0  0  0
 52129  1  0  0  0
 53 54  1  0  0  0
 54 55  2  0  0  0
 54130  1  0  0  0
 55 57  1  0  0  0
 55131  1  0  0  0
 56 69  2  0  0  0
 57 58  2  0  0  0
 57132  1  0  0  0
 58133  1  0  0  0
 59 60  1  0  0  0
 59 61  1  0  0  0
 59 62  1  0  0  0
 60134  1  0  0  0
 60135  1  0  0  0
 60136  1  0  0  0
 61137  1  0  0  0
 61138  1  0  0  0
 61139  1  0  0  0
 62140  1  0  0  0
 62141  1  0  0  0
 62142  1  0  0  0
 63 65  1  0  0  0
 63143  1  0  0  0
 63144  1  0  0  0
 63145  1  0  0  0
 64146  1  0  0  0
 65147  1  0  0  0
 68 84  1  0  0  0
 71 72  2  0  0  0
 71 73  1  0  0  0
 71148  1  0  0  0
 72 74  1  0  0  0
 72 84  1  0  0  0
 73 75  2  0  0  0
 73 85  1  0  0  0
 74 81  1  0  0  0
 74 86  2  0  0  0
 75 86  1  0  0  0
 75 88  1  0  0  0
 76 78  1  0  0  0
 76 80  1  0  0  0
 76149  1  0  0  0
 76150  1  0  0  0
 77 79  1  0  0  0
 77 80  1  0  0  0
 77151  1  0  0  0
 77152  1  0  0  0
 78 87  1  0  0  0
 78153  1  0  0  0
 78154  1  0  0  0
 79 87  1  0  0  0
 79155  1  0  0  0
 79156  1  0  0  0
 80 88  1  0  0  0
 80157  1  0  0  0
 81158  1  0  0  0
 81159  1  0  0  0
 81160  1  0  0  0
 82161  1  0  0  0
 82162  1  0  0  0
 82163  1  0  0  0
 82 85  1  0  0  0
 83 85  1  0  0  0
 83164  1  0  0  0
 83165  1  0  0  0
 83166  1  0  0  0
 84167  1  0  0  0
 84168  1  0  0  0
 85169  1  0  0  0
 88170  1  0  0  0
M  ISO  4   1 100  68 101  84 101  87 100
M  END
> <chiral flag>
0

> <version>
0

> <s_m_source_file>
/data/baiqing/PycharmProjects/Reinvent-master-3.2/result/LINK_invent/BTK/process_docking_weight1_custom_sum_contain_oxygen_bond_distance_aromatic_linkinvent_7_9_3/rearranged_h_0176.sdf

> <i_m_source_file_index>
17

> <r_mmod_Potential_Energy-OPLS-2005>
85.384880065918

> <r_mmod_Stretch_Energy-OPLS-2005>
58.1872863769531

> <r_mmod_Bend_Energy-OPLS-2005>
133.690841674805

> <r_mmod_Torsional_Energy-OPLS-2005>
382.851043701172

> <r_mmod_Improper_Torsional_Energy-OPLS-2005>
21.8673057556152

> <r_mmod_Van_der_Waal_Energy-OPLS-2005>
140.273391723633

> <r_mmod_Electrostatic_Energy-OPLS-2005>
-470.417755126953

> <r_mmod_Solvation_Energy-OPLS-2005>
-220.080413818359

> <b_mmod_Minimization_Converged-OPLS-2005>
0

> <r_mmod_RMS_Derivative-OPLS-2005>
1.65359568595886

$$$$
17
                    3D
 Structure written by MMmdl.
160168  0  0  1  0            999 V2000
  -30.4787  -15.0088   20.4631 C   0  0  0  0  0  0
  -30.4534  -12.6461   19.4772 C   0  0  0  0  0  0
  -29.5198  -12.5746   18.2440 C   0  0  0  0  0  0
  -28.0502  -12.3407   18.6619 C   0  0  0  0  0  0
  -27.6332  -13.2371   19.8601 C   0  0  2  0  0  0
  -28.6966  -13.1475   20.9739 C   0  0  0  0  0  0
  -25.2471  -13.8186   20.5811 C   0  0  0  0  0  0
  -24.1765  -13.0411   20.9270 C   0  0  0  0  0  0
  -24.6386  -11.6901   20.8748 C   0  0  0  0  0  0
  -23.9074  -10.4283   21.0367 C   0  0  0  0  0  0
  -24.3633   -9.4216   21.9163 C   0  0  0  0  0  0
  -23.6313   -8.2255   22.0745 C   0  0  0  0  0  0
  -22.4293   -8.0281   21.3545 C   0  0  0  0  0  0
  -21.9919   -9.0244   20.4646 C   0  0  0  0  0  0
  -22.7241  -10.2123   20.3032 C   0  0  0  0  0  0
  -21.6868   -6.0735   22.5276 C   0  0  0  0  0  0
  -21.4033   -6.5637   23.8212 C   0  0  0  0  0  0
  -21.3672   -5.6796   24.9172 C   0  0  0  0  0  0
  -21.6049   -4.3055   24.7219 C   0  0  0  0  0  0
  -21.8815   -3.8145   23.4342 C   0  0  0  0  0  0
  -21.9198   -4.6959   22.3400 C   0  0  0  0  0  0
  -22.7784  -13.5176   21.1914 C   0  0  0  0  0  0
  -22.1658   -4.2143   21.0975 F   0  0  0  0  0  0
  -21.5635   -3.4548   25.7732 F   0  0  0  0  0  0
  -29.9232  -13.7132   20.3853 N   0  0  0  0  0  0
  -26.2894  -12.9409   20.3365 N   0  0  0  0  0  0
  -25.9309  -11.6532   20.5748 N   0  0  0  0  0  0
  -22.0416  -12.8165   22.0452 N   0  0  0  0  0  0
  -25.4077  -15.1938   20.4320 N   0  0  0  0  0  0
  -31.6839  -15.0641   20.1767 O   0  0  0  0  0  0
  -21.6665   -6.8871   21.4238 O   0  0  0  0  0  0
  -22.3466  -14.5476   20.6745 O   0  0  0  0  0  0
  -24.6449  -31.8421   23.1856 C   0  0  0  0  0  0
  -25.9218  -32.4683   23.8251 C   0  0  1  0  0  0
  -27.2224  -27.1176   20.1668 C   0  0  0  0  0  0
  -25.5972  -33.8485   24.2187 N   0  0  0  0  0  0
  -23.4479  -30.4583   21.5317 C   0  0  2  0  0  0
  -24.8973  -28.8695   20.1202 C   0  0  0  0  0  0
  -22.7564  -29.4529   22.4878 C   0  0  0  0  0  0
  -18.0308  -28.1390   22.8484 C   0  0  0  0  0  0
  -24.1492  -36.7230   23.2641 C   0  0  0  0  0  0
  -26.0031  -30.7110   21.3839 C   0  0  0  0  0  0
  -26.0754  -29.3157   20.7339 C   0  0  0  0  0  0
  -27.2405  -28.4594   20.7308 C   0  0  0  0  0  0
  -26.0140  -26.7586   19.5376 C   0  0  0  0  0  0
  -24.8804  -27.6058   19.5064 C   0  0  0  0  0  0
  -23.6751  -29.7771   20.1553 C   0  0  0  0  0  0
  -25.4129  -36.3015   24.0317 C   0  0  1  0  0  0
  -20.5915  -28.3706   23.1247 C   0  0  2  0  0  0
  -20.6797  -26.9410   22.5408 C   0  0  0  0  0  0
  -19.5777  -26.6368   21.5218 C   0  0  0  0  0  0
  -18.1953  -26.7928   22.1621 C   0  0  0  0  0  0
  -19.1563  -28.8870   23.2859 C   0  0  0  0  0  0
  -18.9481  -30.1467   23.8882 C   0  0  0  0  0  0
  -17.6477  -30.6588   24.0551 C   0  0  0  0  0  0
  -25.9083  -34.9397   23.5058 C   0  0  0  0  0  0
  -16.5366  -29.9076   23.6334 C   0  0  0  0  0  0
  -16.7287  -28.6491   23.0361 C   0  0  0  0  0  0
  -26.4543  -31.6548   25.0691 C   0  0  0  0  0  0
  -25.3714  -31.3742   26.1375 C   0  0  0  0  0  0
  -27.0416  -30.2948   24.6272 C   0  0  0  0  0  0
  -27.6083  -32.4300   25.7483 C   0  0  0  0  0  0
  -27.5579  -37.1771   24.8466 C   0  0  0  0  0  0
  -21.4256  -29.3035   22.3614 N   0  0  0  0  0  0
  -26.4285  -37.3741   23.9413 N   0  0  0  0  0  0
  -24.7181  -31.0256   22.0891 N   0  0  0  0  0  0
  -23.4209  -28.8092   23.3037 O   0  0  0  0  0  0
  -28.3229  -26.1881   20.1078 O   0  0  0  0  0  0
  -26.5657  -34.8897   22.4630 O   0  0  0  0  0  0
  -23.5559  -32.1308   23.7071 O   0  0  0  0  0  0
  -28.7607  -20.5069   20.2738 C   0  0  0  0  0  0
  -29.9918  -18.0569   22.2549 C   0  0  0  0  0  0
  -28.5112  -16.3541   21.4461 C   0  0  0  0  0  0
  -30.1594  -17.7744   20.7525 C   0  0  2  0  0  0
  -28.9676  -17.0289   22.7534 C   0  0  0  0  0  0
  -27.7826  -17.6908   23.4770 C   0  0  0  0  0  0
  -29.6470  -16.0212   23.7066 C   0  0  0  0  0  0
  -29.6783  -19.1635   19.8693 C   0  0  0  0  0  0
  -28.2812  -23.2178   19.8066 C   0  0  0  0  0  0
  -28.3621  -24.7057   20.6175 C   0  0  0  0  0  0
  -29.7126  -16.2434   20.6126 N   0  0  0  0  0  0
  -29.1088  -21.8784   20.0831 N   0  0  0  0  0  0
  -27.6214  -20.2720   20.6769 O   0  0  0  0  0  0
  -31.4765  -12.8475   19.1580 H   0  0  0  0  0  0
  -30.5048  -11.6777   19.9776 H   0  0  0  0  0  0
  -29.8508  -11.7915   17.5603 H   0  0  0  0  0  0
  -29.5952  -13.5140   17.6924 H   0  0  0  0  0  0
  -27.9533  -11.2918   18.9445 H   0  0  0  0  0  0
  -27.3806  -12.4864   17.8138 H   0  0  0  0  0  0
  -27.6182  -14.2613   19.4855 H   0  0  0  0  0  0
  -28.8309  -12.0993   21.2491 H   0  0  0  0  0  0
  -28.4166  -13.5889   21.9250 H   0  0  0  0  0  0
  -25.2773   -9.5718   22.4747 H   0  0  0  0  0  0
  -24.0023   -7.4661   22.7485 H   0  0  0  0  0  0
  -21.0838   -8.8751   19.8985 H   0  0  0  0  0  0
  -22.3675  -10.9651   19.6140 H   0  0  0  0  0  0
  -21.2031   -7.6149   23.9702 H   0  0  0  0  0  0
  -21.1509   -6.0536   25.9075 H   0  0  0  0  0  0
  -22.0584   -2.7607   23.2839 H   0  0  0  0  0  0
  -22.4000  -11.9829   22.4876 H   0  0  0  0  0  0
  -21.1011  -13.1164   22.2606 H   0  0  0  0  0  0
  -24.6560  -15.8439   20.6358 H   0  0  0  0  0  0
  -26.2614  -15.6547   20.1453 H   0  0  0  0  0  0
  -26.7277  -32.5294   23.0970 H   0  0  0  0  0  0
  -25.0126  -33.9599   25.0337 H   0  0  0  0  0  0
  -22.7506  -31.2837   21.3733 H   0  0  0  0  0  0
  -23.3772  -35.9546   23.3292 H   0  0  0  0  0  0
  -24.3569  -36.8867   22.2056 H   0  0  0  0  0  0
  -23.7228  -37.6415   23.6681 H   0  0  0  0  0  0
  -26.1584  -31.4632   20.6088 H   0  0  0  0  0  0
  -26.8731  -30.7648   22.0270 H   0  0  0  0  0  0
  -28.1490  -28.8094   21.2029 H   0  0  0  0  0  0
  -25.9420  -25.7899   19.0637 H   0  0  0  0  0  0
  -23.9814  -27.2617   19.0134 H   0  0  0  0  0  0
  -23.8092  -30.5462   19.3939 H   0  0  0  0  0  0
  -22.7896  -29.2168   19.8504 H   0  0  0  0  0  0
  -25.1320  -36.1835   25.0810 H   0  0  0  0  0  0
  -21.0013  -28.3290   24.1368 H   0  0  0  0  0  0
  -20.5696  -26.2313   23.3623 H   0  0  0  0  0  0
  -21.6662  -26.7422   22.1203 H   0  0  0  0  0  0
  -19.6935  -25.6271   21.1267 H   0  0  0  0  0  0
  -19.6725  -27.3161   20.6739 H   0  0  0  0  0  0
  -17.4226  -26.6675   21.4014 H   0  0  0  0  0  0
  -18.0342  -26.0069   22.9018 H   0  0  0  0  0  0
  -19.7957  -30.7287   24.2239 H   0  0  0  0  0  0
  -17.5028  -31.6272   24.5144 H   0  0  0  0  0  0
  -15.5362  -30.2974   23.7671 H   0  0  0  0  0  0
  -15.8685  -28.0795   22.7100 H   0  0  0  0  0  0
  -24.5915  -30.7073   25.7682 H   0  0  0  0  0  0
  -24.8879  -32.2924   26.4724 H   0  0  0  0  0  0
  -25.7979  -30.8960   27.0202 H   0  0  0  0  0  0
  -26.3034  -29.6651   24.1296 H   0  0  0  0  0  0
  -27.4055  -29.7267   25.4844 H   0  0  0  0  0  0
  -27.8929  -30.4194   23.9577 H   0  0  0  0  0  0
  -27.2710  -33.3641   26.1995 H   0  0  0  0  0  0
  -28.3948  -32.6787   25.0339 H   0  0  0  0  0  0
  -28.0696  -31.8451   26.5454 H   0  0  0  0  0  0
  -28.2580  -38.0083   24.7528 H   0  0  0  0  0  0
  -28.1087  -36.2610   24.6276 H   0  0  0  0  0  0
  -27.2286  -37.1393   25.8864 H   0  0  0  0  0  0
  -20.9463  -29.8720   21.6772 H   0  0  0  0  0  0
  -26.0145  -38.2801   24.1436 H   0  0  0  0  0  0
  -29.6715  -19.0798   22.4499 H   0  0  0  0  0  0
  -30.9496  -17.9472   22.7653 H   0  0  0  0  0  0
  -27.8057  -17.0015   20.9206 H   0  0  0  0  0  0
  -27.9327  -15.4696   21.6414 H   0  0  0  0  0  0
  -31.2353  -17.7322   20.5766 H   0  0  0  0  0  0
  -27.2336  -18.3655   22.8183 H   0  0  0  0  0  0
  -28.1162  -18.2758   24.3348 H   0  0  0  0  0  0
  -27.0734  -16.9448   23.8385 H   0  0  0  0  0  0
  -30.5228  -15.5522   23.2596 H   0  0  0  0  0  0
  -28.9659  -15.2251   24.0087 H   0  0  0  0  0  0
  -29.9923  -16.5159   24.6143 H   0  0  0  0  0  0
  -30.6179  -19.6197   19.5559 H   0  0  0  0  0  0
  -29.2582  -18.7978   18.9312 H   0  0  0  0  0  0
  -28.5314  -23.4591   18.7735 H   0  0  0  0  0  0
  -27.2282  -22.9356   19.7607 H   0  0  0  0  0  0
  -29.3379  -24.6755   21.1022 H   0  0  0  0  0  0
  -27.6646  -24.6528   21.4545 H   0  0  0  0  0  0
  -30.0869  -21.9890   19.8452 H   0  0  0  0  0  0
  1 25  1  0  0  0
  1 30  2  0  0  0
  1 81  1  0  0  0
  2  3  1  0  0  0
  2 25  1  0  0  0
  2 84  1  0  0  0
  2 85  1  0  0  0
  3  4  1  0  0  0
  3 86  1  0  0  0
  3 87  1  0  0  0
  4  5  1  0  0  0
  4 88  1  0  0  0
  4 89  1  0  0  0
  5  6  1  0  0  0
  5 26  1  0  0  0
  5 90  1  0  0  0
  6 25  1  0  0  0
  6 91  1  0  0  0
  6 92  1  0  0  0
  7  8  2  0  0  0
  7 26  1  0  0  0
  7 29  1  0  0  0
  8  9  1  0  0  0
  8 22  1  0  0  0
  9 10  1  0  0  0
  9 27  2  0  0  0
 10 11  2  0  0  0
 10 15  1  0  0  0
 11 12  1  0  0  0
 11 93  1  0  0  0
 12 13  2  0  0  0
 12 94  1  0  0  0
 13 14  1  0  0  0
 13 31  1  0  0  0
 14 15  2  0  0  0
 14 95  1  0  0  0
 15 96  1  0  0  0
 16 17  2  0  0  0
 16 21  1  0  0  0
 16 31  1  0  0  0
 17 18  1  0  0  0
 17 97  1  0  0  0
 18 19  2  0  0  0
 18 98  1  0  0  0
 19 20  1  0  0  0
 19 24  1  0  0  0
 20 21  2  0  0  0
 20 99  1  0  0  0
 21 23  1  0  0  0
 22 28  1  0  0  0
 22 32  2  0  0  0
 26 27  1  0  0  0
 28100  1  0  0  0
 28101  1  0  0  0
 29102  1  0  0  0
 29103  1  0  0  0
 33 34  1  0  0  0
 33 66  1  0  0  0
 33 70  2  0  0  0
 34 36  1  0  0  0
 34 59  1  0  0  0
 34104  1  0  0  0
 35 44  2  0  0  0
 35 45  1  0  0  0
 35 68  1  0  0  0
 36 56  1  0  0  0
 36105  1  0  0  0
 37 39  1  0  0  0
 37 47  1  0  0  0
 37 66  1  0  0  0
 37106  1  0  0  0
 38 43  2  0  0  0
 38 46  1  0  0  0
 38 47  1  0  0  0
 39 64  1  0  0  0
 39 67  2  0  0  0
 40 52  1  0  0  0
 40 53  2  0  0  0
 40 58  1  0  0  0
 41107  1  0  0  0
 41108  1  0  0  0
 41109  1  0  0  0
 41 48  1  0  0  0
 42 43  1  0  0  0
 42 66  1  0  0  0
 42110  1  0  0  0
 42111  1  0  0  0
 43 44  1  0  0  0
 44112  1  0  0  0
 45 46  2  0  0  0
 45113  1  0  0  0
 46114  1  0  0  0
 47115  1  0  0  0
 47116  1  0  0  0
 48 56  1  0  0  0
 48 65  1  0  0  0
 48117  1  0  0  0
 49 50  1  0  0  0
 49 53  1  0  0  0
 49 64  1  0  0  0
 49118  1  0  0  0
 50 51  1  0  0  0
 50119  1  0  0  0
 50120  1  0  0  0
 51 52  1  0  0  0
 51121  1  0  0  0
 51122  1  0  0  0
 52123  1  0  0  0
 52124  1  0  0  0
 53 54  1  0  0  0
 54 55  2  0  0  0
 54125  1  0  0  0
 55 57  1  0  0  0
 55126  1  0  0  0
 56 69  2  0  0  0
 57 58  2  0  0  0
 57127  1  0  0  0
 58128  1  0  0  0
 59 60  1  0  0  0
 59 61  1  0  0  0
 59 62  1  0  0  0
 60129  1  0  0  0
 60130  1  0  0  0
 60131  1  0  0  0
 61132  1  0  0  0
 61133  1  0  0  0
 61134  1  0  0  0
 62135  1  0  0  0
 62136  1  0  0  0
 62137  1  0  0  0
 63 65  1  0  0  0
 63138  1  0  0  0
 63139  1  0  0  0
 63140  1  0  0  0
 64141  1  0  0  0
 65142  1  0  0  0
 68 80  1  0  0  0
 71 78  1  0  0  0
 71 82  1  0  0  0
 71 83  2  0  0  0
 72 74  1  0  0  0
 72 75  1  0  0  0
 72143  1  0  0  0
 72144  1  0  0  0
 73 75  1  0  0  0
 73 81  1  0  0  0
 73145  1  0  0  0
 73146  1  0  0  0
 74 78  1  0  0  0
 74 81  1  0  0  0
 74147  1  0  0  0
 75 76  1  0  0  0
 75 77  1  0  0  0
 76148  1  0  0  0
 76149  1  0  0  0
 76150  1  0  0  0
 77151  1  0  0  0
 77152  1  0  0  0
 77153  1  0  0  0
 78154  1  0  0  0
 78155  1  0  0  0
 79 80  1  0  0  0
 79 82  1  0  0  0
 79156  1  0  0  0
 79157  1  0  0  0
 80158  1  0  0  0
 80159  1  0  0  0
 82160  1  0  0  0
M  ISO  4   1 100  68 101  80 101  81 100
M  END
> <chiral flag>
0

> <version>
0

> <s_m_source_file>
/data/baiqing/PycharmProjects/Reinvent-master-3.2/result/LINK_invent/BTK/process_docking_weight1_custom_sum_contain_oxygen_bond_distance_aromatic_linkinvent_7_9_3/rearranged_h_0176.sdf

> <i_m_source_file_index>
18

> <r_mmod_Potential_Energy-OPLS-2005>
853.357116699219

> <r_mmod_Stretch_Energy-OPLS-2005>
319.75048828125

> <r_mmod_Bend_Energy-OPLS-2005>
417.190551757812

> <r_mmod_Torsional_Energy-OPLS-2005>
353.024841308594

> <r_mmod_Improper_Torsional_Energy-OPLS-2005>
10.4869403839111

> <r_mmod_Van_der_Waal_Energy-OPLS-2005>
113.216278076172

> <r_mmod_Electrostatic_Energy-OPLS-2005>
-340.484893798828

> <r_mmod_Solvation_Energy-OPLS-2005>
-222.585647583008

> <b_mmod_Minimization_Converged-OPLS-2005>
0

> <r_mmod_RMS_Derivative-OPLS-2005>
2.76155638694763

$$$$
18
                    3D
 Structure written by MMmdl.
153162  0  0  1  0            999 V2000
  -30.3684  -15.4152   20.4028 C   0  0  0  0  0  0
  -30.4315  -12.9282   19.5456 C   0  0  0  0  0  0
  -29.5450  -12.6243   18.3065 C   0  0  0  0  0  0
  -28.1037  -12.3008   18.7334 C   0  0  0  0  0  0
  -27.6053  -13.2793   19.8235 C   0  0  2  0  0  0
  -28.6269  -13.4754   20.9637 C   0  0  0  0  0  0
  -25.2354  -13.8218   20.5760 C   0  0  0  0  0  0
  -24.1700  -13.0417   20.9257 C   0  0  0  0  0  0
  -24.6362  -11.6916   20.8739 C   0  0  0  0  0  0
  -23.9059  -10.4274   21.0386 C   0  0  0  0  0  0
  -24.3610   -9.4213   21.9172 C   0  0  0  0  0  0
  -23.6297   -8.2243   22.0748 C   0  0  0  0  0  0
  -22.4280   -8.0277   21.3546 C   0  0  0  0  0  0
  -21.9899   -9.0238   20.4635 C   0  0  0  0  0  0
  -22.7224  -10.2112   20.3037 C   0  0  0  0  0  0
  -21.6836   -6.0738   22.5288 C   0  0  0  0  0  0
  -21.4009   -6.5642   23.8225 C   0  0  0  0  0  0
  -21.3655   -5.6794   24.9170 C   0  0  0  0  0  0
  -21.6048   -4.3053   24.7223 C   0  0  0  0  0  0
  -21.8815   -3.8144   23.4343 C   0  0  0  0  0  0
  -21.9198   -4.6972   22.3402 C   0  0  0  0  0  0
  -22.7736  -13.5179   21.1933 C   0  0  0  0  0  0
  -22.1663   -4.2160   21.0992 F   0  0  0  0  0  0
  -21.5628   -3.4534   25.7732 F   0  0  0  0  0  0
  -29.8330  -14.0735   20.3545 N   0  0  0  0  0  0
  -26.2762  -12.9498   20.3182 N   0  0  0  0  0  0
  -25.9291  -11.6590   20.5664 N   0  0  0  0  0  0
  -22.0383  -12.8135   22.0469 N   0  0  0  0  0  0
  -25.4039  -15.1949   20.4203 N   0  0  0  0  0  0
  -31.5685  -15.3936   20.0774 O   0  0  0  0  0  0
  -21.6639   -6.8884   21.4254 O   0  0  0  0  0  0
  -22.3418  -14.5485   20.6784 O   0  0  0  0  0  0
  -24.6696  -31.8173   23.1627 C   0  0  0  0  0  0
  -25.9356  -32.4551   23.8100 C   0  0  1  0  0  0
  -27.2078  -26.8347   20.2247 C   0  0  0  0  0  0
  -25.6020  -33.8376   24.2057 N   0  0  0  0  0  0
  -23.4884  -30.4253   21.5100 C   0  0  2  0  0  0
  -24.9450  -28.7973   20.1044 C   0  0  0  0  0  0
  -22.7708  -29.4414   22.4729 C   0  0  0  0  0  0
  -18.0333  -28.1422   22.8497 C   0  0  0  0  0  0
  -24.1474  -36.7158   23.2654 C   0  0  0  0  0  0
  -26.0585  -30.5989   21.4012 C   0  0  0  0  0  0
  -26.1251  -29.1760   20.7555 C   0  0  0  0  0  0
  -27.2424  -28.2156   20.7949 C   0  0  0  0  0  0
  -26.0081  -26.6381   19.5015 C   0  0  0  0  0  0
  -24.9203  -27.5531   19.4525 C   0  0  0  0  0  0
  -23.7344  -29.7341   20.1363 C   0  0  0  0  0  0
  -25.4120  -36.2945   24.0315 C   0  0  1  0  0  0
  -20.5972  -28.3770   23.1190 C   0  0  2  0  0  0
  -20.6809  -26.9441   22.5421 C   0  0  0  0  0  0
  -19.5785  -26.6405   21.5232 C   0  0  0  0  0  0
  -18.1953  -26.7969   22.1618 C   0  0  0  0  0  0
  -19.1602  -28.8911   23.2824 C   0  0  0  0  0  0
  -18.9500  -30.1502   23.8858 C   0  0  0  0  0  0
  -17.6504  -30.6611   24.0562 C   0  0  0  0  0  0
  -25.9108  -34.9339   23.5003 C   0  0  0  0  0  0
  -16.5386  -29.9110   23.6351 C   0  0  0  0  0  0
  -16.7321  -28.6530   23.0392 C   0  0  0  0  0  0
  -26.4583  -31.6511   25.0642 C   0  0  0  0  0  0
  -25.3721  -31.3797   26.1320 C   0  0  0  0  0  0
  -27.0485  -30.2869   24.6406 C   0  0  0  0  0  0
  -27.6062  -32.4334   25.7449 C   0  0  0  0  0  0
  -27.5543  -37.1741   24.8475 C   0  0  0  0  0  0
  -21.4368  -29.3052   22.3504 N   0  0  0  0  0  0
  -26.4237  -37.3707   23.9444 N   0  0  0  0  0  0
  -24.7600  -30.9772   22.0778 N   0  0  0  0  0  0
  -23.4246  -28.8006   23.2998 O   0  0  0  0  0  0
  -28.1657  -25.6692   20.3822 O   0  0  0  0  0  0
  -26.5678  -34.8901   22.4578 O   0  0  0  0  0  0
  -23.5755  -32.1154   23.6710 O   0  0  0  0  0  0
  -28.2782  -20.8286   22.5568 C   0  0  0  0  0  0
  -28.6898  -19.6609   21.8484 C   0  0  0  0  0  0
  -28.2054  -22.1490   21.9995 C   0  0  0  0  0  0
  -29.1115  -19.7940   20.5294 C   0  0  0  0  0  0
  -28.5013  -22.4324   20.6345 C   0  0  0  0  0  0
  -28.7601  -18.2655   22.5278 C   0  0  0  0  0  0
  -29.7494  -18.2893   19.9254 C   0  0  0  0  0  0
  -28.6480  -16.9402   21.6531 C   0  0  0  0  0  0
  -27.7478  -23.2700   22.9233 C   0  0  0  0  0  0
  -28.0123  -24.0336   19.9652 C   0  0  0  0  0  0
  -28.9655  -21.1745   19.9637 N   0  0  0  0  0  0
  -29.6267  -16.7414   20.5527 N   0  0  0  0  0  0
  -31.4405  -13.1611   19.2038 H   0  0  0  0  0  0
  -30.5485  -12.0371   20.1624 H   0  0  0  0  0  0
  -29.9678  -11.7976   17.7334 H   0  0  0  0  0  0
  -29.5425  -13.4906   17.6423 H   0  0  0  0  0  0
  -28.0990  -11.2852   19.1309 H   0  0  0  0  0  0
  -27.4349  -12.2963   17.8722 H   0  0  0  0  0  0
  -27.5078  -14.2400   19.3144 H   0  0  0  0  0  0
  -28.8442  -12.5273   21.4578 H   0  0  0  0  0  0
  -28.2154  -14.1194   21.7361 H   0  0  0  0  0  0
  -25.2760   -9.5702   22.4736 H   0  0  0  0  0  0
  -24.0031   -7.4612   22.7429 H   0  0  0  0  0  0
  -21.0850   -8.8715   19.8917 H   0  0  0  0  0  0
  -22.3683  -10.9631   19.6129 H   0  0  0  0  0  0
  -21.1994   -7.6149   23.9718 H   0  0  0  0  0  0
  -21.1478   -6.0526   25.9085 H   0  0  0  0  0  0
  -22.0598   -2.7611   23.2818 H   0  0  0  0  0  0
  -22.4007  -11.9817   22.4867 H   0  0  0  0  0  0
  -21.0975  -13.1113   22.2627 H   0  0  0  0  0  0
  -24.6405  -15.8531   20.5350 H   0  0  0  0  0  0
  -26.2544  -15.6267   20.0881 H   0  0  0  0  0  0
  -26.7427  -32.5061   23.0805 H   0  0  0  0  0  0
  -25.0196  -33.9413   25.0240 H   0  0  0  0  0  0
  -22.8043  -31.2578   21.3315 H   0  0  0  0  0  0
  -23.3751  -35.9459   23.3296 H   0  0  0  0  0  0
  -24.3584  -36.8826   22.2075 H   0  0  0  0  0  0
  -23.7177  -37.6331   23.6698 H   0  0  0  0  0  0
  -26.2409  -31.3282   20.6098 H   0  0  0  0  0  0
  -26.9195  -30.6667   22.0539 H   0  0  0  0  0  0
  -28.1212  -28.5002   21.3561 H   0  0  0  0  0  0
  -25.8633  -25.6883   19.0074 H   0  0  0  0  0  0
  -24.0303  -27.2582   18.9144 H   0  0  0  0  0  0
  -23.8928  -30.4987   19.3745 H   0  0  0  0  0  0
  -22.8427  -29.1908   19.8191 H   0  0  0  0  0  0
  -25.1312  -36.1706   25.0789 H   0  0  0  0  0  0
  -21.0059  -28.3353   24.1325 H   0  0  0  0  0  0
  -20.5664  -26.2382   23.3665 H   0  0  0  0  0  0
  -21.6661  -26.7411   22.1209 H   0  0  0  0  0  0
  -19.6923  -25.6316   21.1260 H   0  0  0  0  0  0
  -19.6709  -27.3204   20.6751 H   0  0  0  0  0  0
  -17.4236  -26.6772   21.3997 H   0  0  0  0  0  0
  -18.0282  -26.0106   22.8992 H   0  0  0  0  0  0
  -19.7977  -30.7332   24.2190 H   0  0  0  0  0  0
  -17.5065  -31.6280   24.5191 H   0  0  0  0  0  0
  -15.5385  -30.3016   23.7718 H   0  0  0  0  0  0
  -15.8721  -28.0846   22.7142 H   0  0  0  0  0  0
  -24.5929  -30.7099   25.7674 H   0  0  0  0  0  0
  -24.8861  -32.2999   26.4555 H   0  0  0  0  0  0
  -25.7984  -30.9122   27.0204 H   0  0  0  0  0  0
  -26.3165  -29.6535   24.1367 H   0  0  0  0  0  0
  -27.3974  -29.7244   25.5072 H   0  0  0  0  0  0
  -27.9133  -30.4068   23.9880 H   0  0  0  0  0  0
  -27.2633  -33.3731   26.1783 H   0  0  0  0  0  0
  -28.3987  -32.6726   25.0353 H   0  0  0  0  0  0
  -28.0561  -31.8581   26.5543 H   0  0  0  0  0  0
  -28.2542  -38.0051   24.7532 H   0  0  0  0  0  0
  -28.1040  -36.2584   24.6256 H   0  0  0  0  0  0
  -27.2298  -37.1364   25.8888 H   0  0  0  0  0  0
  -20.9614  -29.8757   21.6638 H   0  0  0  0  0  0
  -26.0060  -38.2746   24.1466 H   0  0  0  0  0  0
  -28.0091  -20.7029   23.5958 H   0  0  0  0  0  0
  -27.9636  -18.2331   23.2739 H   0  0  0  0  0  0
  -29.6869  -18.2324   23.1015 H   0  0  0  0  0  0
  -30.8209  -18.4647   19.8254 H   0  0  0  0  0  0
  -29.3875  -18.2161   18.8995 H   0  0  0  0  0  0
  -27.6495  -16.8792   21.2206 H   0  0  0  0  0  0
  -28.7187  -16.1076   22.3508 H   0  0  0  0  0  0
  -27.7944  -22.9646   23.9698 H   0  0  0  0  0  0
  -26.7186  -23.5623   22.7095 H   0  0  0  0  0  0
  -28.3927  -24.1442   22.8272 H   0  0  0  0  0  0
  -26.9312  -23.9102   19.9223 H   0  0  0  0  0  0
  -28.3221  -23.9959   18.9212 H   0  0  0  0  0  0
  1 25  1  0  0  0
  1 30  2  0  0  0
  1 82  1  0  0  0
  2  3  1  0  0  0
  2 25  1  0  0  0
  2 83  1  0  0  0
  2 84  1  0  0  0
  3  4  1  0  0  0
  3 85  1  0  0  0
  3 86  1  0  0  0
  4  5  1  0  0  0
  4 87  1  0  0  0
  4 88  1  0  0  0
  5  6  1  0  0  0
  5 26  1  0  0  0
  5 89  1  0  0  0
  6 25  1  0  0  0
  6 90  1  0  0  0
  6 91  1  0  0  0
  7  8  2  0  0  0
  7 26  1  0  0  0
  7 29  1  0  0  0
  8  9  1  0  0  0
  8 22  1  0  0  0
  9 10  1  0  0  0
  9 27  2  0  0  0
 10 11  2  0  0  0
 10 15  1  0  0  0
 11 12  1  0  0  0
 11 92  1  0  0  0
 12 13  2  0  0  0
 12 93  1  0  0  0
 13 14  1  0  0  0
 13 31  1  0  0  0
 14 15  2  0  0  0
 14 94  1  0  0  0
 15 95  1  0  0  0
 16 17  2  0  0  0
 16 21  1  0  0  0
 16 31  1  0  0  0
 17 18  1  0  0  0
 17 96  1  0  0  0
 18 19  2  0  0  0
 18 97  1  0  0  0
 19 20  1  0  0  0
 19 24  1  0  0  0
 20 21  2  0  0  0
 20 98  1  0  0  0
 21 23  1  0  0  0
 22 28  1  0  0  0
 22 32  2  0  0  0
 26 27  1  0  0  0
 28 99  1  0  0  0
 28100  1  0  0  0
 29101  1  0  0  0
 29102  1  0  0  0
 33 34  1  0  0  0
 33 66  1  0  0  0
 33 70  2  0  0  0
 34 36  1  0  0  0
 34 59  1  0  0  0
 34103  1  0  0  0
 35 44  2  0  0  0
 35 45  1  0  0  0
 35 68  1  0  0  0
 36 56  1  0  0  0
 36104  1  0  0  0
 37 39  1  0  0  0
 37 47  1  0  0  0
 37 66  1  0  0  0
 37105  1  0  0  0
 38 43  2  0  0  0
 38 46  1  0  0  0
 38 47  1  0  0  0
 39 64  1  0  0  0
 39 67  2  0  0  0
 40 52  1  0  0  0
 40 53  2  0  0  0
 40 58  1  0  0  0
 41106  1  0  0  0
 41107  1  0  0  0
 41108  1  0  0  0
 41 48  1  0  0  0
 42 43  1  0  0  0
 42 66  1  0  0  0
 42109  1  0  0  0
 42110  1  0  0  0
 43 44  1  0  0  0
 44111  1  0  0  0
 45 46  2  0  0  0
 45112  1  0  0  0
 46113  1  0  0  0
 47114  1  0  0  0
 47115  1  0  0  0
 48 56  1  0  0  0
 48 65  1  0  0  0
 48116  1  0  0  0
 49 50  1  0  0  0
 49 53  1  0  0  0
 49 64  1  0  0  0
 49117  1  0  0  0
 50 51  1  0  0  0
 50118  1  0  0  0
 50119  1  0  0  0
 51 52  1  0  0  0
 51120  1  0  0  0
 51121  1  0  0  0
 52122  1  0  0  0
 52123  1  0  0  0
 53 54  1  0  0  0
 54 55  2  0  0  0
 54124  1  0  0  0
 55 57  1  0  0  0
 55125  1  0  0  0
 56 69  2  0  0  0
 57 58  2  0  0  0
 57126  1  0  0  0
 58127  1  0  0  0
 59 60  1  0  0  0
 59 61  1  0  0  0
 59 62  1  0  0  0
 60128  1  0  0  0
 60129  1  0  0  0
 60130  1  0  0  0
 61131  1  0  0  0
 61132  1  0  0  0
 61133  1  0  0  0
 62134  1  0  0  0
 62135  1  0  0  0
 62136  1  0  0  0
 63 65  1  0  0  0
 63137  1  0  0  0
 63138  1  0  0  0
 63139  1  0  0  0
 64140  1  0  0  0
 65141  1  0  0  0
 68 80  1  0  0  0
 71 72  2  0  0  0
 71 73  1  0  0  0
 71142  1  0  0  0
 72 74  1  0  0  0
 72 76  1  0  0  0
 73 75  2  0  0  0
 73 79  1  0  0  0
 74 77  1  0  0  0
 74 81  2  0  0  0
 75 80  1  0  0  0
 75 81  1  0  0  0
 76 78  1  0  0  0
 76143  1  0  0  0
 76144  1  0  0  0
 77 82  1  0  0  0
 77145  1  0  0  0
 77146  1  0  0  0
 78 82  1  0  0  0
 78147  1  0  0  0
 78148  1  0  0  0
 79149  1  0  0  0
 79150  1  0  0  0
 79151  1  0  0  0
 80152  1  0  0  0
 80153  1  0  0  0
M  ISO  4   1 100  68 101  80 101  82 100
M  END
> <chiral flag>
0

> <version>
0

> <s_m_source_file>
/data/baiqing/PycharmProjects/Reinvent-master-3.2/result/LINK_invent/BTK/process_docking_weight1_custom_sum_contain_oxygen_bond_distance_aromatic_linkinvent_7_9_3/rearranged_h_0176.sdf

> <i_m_source_file_index>
19

> <r_mmod_Potential_Energy-OPLS-2005>
1537.58837890625

> <r_mmod_Stretch_Energy-OPLS-2005>
704.571166992188

> <r_mmod_Bend_Energy-OPLS-2005>
491.443298339844

> <r_mmod_Torsional_Energy-OPLS-2005>
286.588165283203

> <r_mmod_Improper_Torsional_Energy-OPLS-2005>
7.6290979385376

> <r_mmod_Van_der_Waal_Energy-OPLS-2005>
128.306930541992

> <r_mmod_Electrostatic_Energy-OPLS-2005>
-470.503662109375

> <r_mmod_Solvation_Energy-OPLS-2005>
-233.134765625

> <b_mmod_Minimization_Converged-OPLS-2005>
0

> <r_mmod_RMS_Derivative-OPLS-2005>
4.12208223342896

$$$$
19
                    3D
 Structure written by MMmdl.
166174  0  0  1  0            999 V2000
  -30.5165  -15.0025   20.4529 C   0  0  0  0  0  0
  -30.4428  -12.6457   19.5201 C   0  0  0  0  0  0
  -29.5294  -12.5593   18.2761 C   0  0  0  0  0  0
  -28.0654  -12.3168   18.6865 C   0  0  0  0  0  0
  -27.6186  -13.2571   19.8374 C   0  0  2  0  0  0
  -28.6482  -13.3180   20.9851 C   0  0  0  0  0  0
  -25.2362  -13.8260   20.5719 C   0  0  0  0  0  0
  -24.1712  -13.0484   20.9286 C   0  0  0  0  0  0
  -24.6374  -11.6962   20.8828 C   0  0  0  0  0  0
  -23.9093  -10.4323   21.0458 C   0  0  0  0  0  0
  -24.3668   -9.4214   21.9201 C   0  0  0  0  0  0
  -23.6358   -8.2234   22.0748 C   0  0  0  0  0  0
  -22.4339   -8.0274   21.3544 C   0  0  0  0  0  0
  -21.9972   -9.0254   20.4629 C   0  0  0  0  0  0
  -22.7299  -10.2137   20.3067 C   0  0  0  0  0  0
  -21.6843   -6.0757   22.5300 C   0  0  0  0  0  0
  -21.3988   -6.5659   23.8233 C   0  0  0  0  0  0
  -21.3668   -5.6805   24.9191 C   0  0  0  0  0  0
  -21.6045   -4.3073   24.7234 C   0  0  0  0  0  0
  -21.8807   -3.8168   23.4353 C   0  0  0  0  0  0
  -21.9190   -4.6996   22.3422 C   0  0  0  0  0  0
  -22.7720  -13.5197   21.1925 C   0  0  0  0  0  0
  -22.1641   -4.2185   21.0986 F   0  0  0  0  0  0
  -21.5651   -3.4551   25.7736 F   0  0  0  0  0  0
  -29.9289  -13.7388   20.3994 N   0  0  0  0  0  0
  -26.2783  -12.9510   20.3217 N   0  0  0  0  0  0
  -25.9293  -11.6638   20.5773 N   0  0  0  0  0  0
  -22.0380  -12.8186   22.0473 N   0  0  0  0  0  0
  -25.4064  -15.1992   20.4086 N   0  0  0  0  0  0
  -31.7191  -15.0672   20.1672 O   0  0  0  0  0  0
  -21.6656   -6.8912   21.4256 O   0  0  0  0  0  0
  -22.3398  -14.5499   20.6761 O   0  0  0  0  0  0
  -24.6460  -31.8450   23.1923 C   0  0  0  0  0  0
  -25.9214  -32.4706   23.8322 C   0  0  1  0  0  0
  -27.2142  -27.0939   20.1581 C   0  0  0  0  0  0
  -25.5986  -33.8520   24.2235 N   0  0  0  0  0  0
  -23.4526  -30.4656   21.5383 C   0  0  2  0  0  0
  -24.9053  -28.8939   20.1119 C   0  0  0  0  0  0
  -22.7618  -29.4547   22.4880 C   0  0  0  0  0  0
  -18.0309  -28.1419   22.8450 C   0  0  0  0  0  0
  -24.1501  -36.7252   23.2636 C   0  0  0  0  0  0
  -26.0128  -30.7049   21.4007 C   0  0  0  0  0  0
  -26.0839  -29.3113   20.7421 C   0  0  0  0  0  0
  -27.2356  -28.4285   20.7569 C   0  0  0  0  0  0
  -26.0185  -26.8149   19.4555 C   0  0  0  0  0  0
  -24.8899  -27.6603   19.4491 C   0  0  0  0  0  0
  -23.6831  -29.8004   20.1559 C   0  0  0  0  0  0
  -25.4135  -36.3048   24.0320 C   0  0  1  0  0  0
  -20.5924  -28.3749   23.1229 C   0  0  2  0  0  0
  -20.6799  -26.9451   22.5398 C   0  0  0  0  0  0
  -19.5769  -26.6387   21.5214 C   0  0  0  0  0  0
  -18.1946  -26.7950   22.1609 C   0  0  0  0  0  0
  -19.1559  -28.8905   23.2820 C   0  0  0  0  0  0
  -18.9468  -30.1505   23.8842 C   0  0  0  0  0  0
  -17.6463  -30.6600   24.0550 C   0  0  0  0  0  0
  -25.9090  -34.9419   23.5077 C   0  0  0  0  0  0
  -16.5359  -29.9091   23.6345 C   0  0  0  0  0  0
  -16.7282  -28.6515   23.0336 C   0  0  0  0  0  0
  -26.4533  -31.6573   25.0771 C   0  0  0  0  0  0
  -25.3716  -31.3732   26.1469 C   0  0  0  0  0  0
  -27.0377  -30.2968   24.6351 C   0  0  0  0  0  0
  -27.6110  -32.4313   25.7522 C   0  0  0  0  0  0
  -27.5600  -37.1770   24.8453 C   0  0  0  0  0  0
  -21.4312  -29.3071   22.3614 N   0  0  0  0  0  0
  -26.4292  -37.3768   23.9421 N   0  0  0  0  0  0
  -24.7230  -31.0287   22.0966 N   0  0  0  0  0  0
  -23.4263  -28.8086   23.3044 O   0  0  0  0  0  0
  -28.2193  -26.0377   20.2517 O   0  0  0  0  0  0
  -26.5664  -34.8904   22.4655 O   0  0  0  0  0  0
  -23.5581  -32.1328   23.7144 O   0  0  0  0  0  0
  -28.3194  -21.9469   19.7738 C   0  0  0  0  0  0
  -29.2615  -20.7201   20.3102 C   0  0  2  0  0  0
  -29.5890  -22.9530   21.3208 C   0  0  1  0  0  0
  -31.9354  -23.4541   22.2688 C   0  0  0  0  0  0
  -31.6253  -23.3834   19.7657 C   0  0  0  0  0  0
  -27.8322  -18.6206   19.4732 C   0  0  0  0  0  0
  -28.1716  -18.8531   21.8750 C   0  0  0  0  0  0
  -30.0322  -17.7579   20.4737 C   0  0  0  0  0  0
  -27.8180  -24.5747   19.9350 C   0  0  0  0  0  0
  -30.9449  -23.6910   21.1128 C   0  0  0  0  0  0
  -28.8869  -19.0264   20.5224 C   0  0  0  0  0  0
  -28.6328  -23.2381   20.2362 N   0  0  0  0  0  0
  -29.7315  -16.1919   20.6217 N   0  0  0  0  0  0
  -29.7934  -21.4573   21.4919 N   0  3  0  0  0  0
  -27.3864  -21.7470   18.9904 O   0  0  0  0  0  0
  -31.4664  -12.8422   19.1968 H   0  0  0  0  0  0
  -30.4752  -11.7011   20.0637 H   0  0  0  0  0  0
  -29.8833  -11.7687   17.6133 H   0  0  0  0  0  0
  -29.5995  -13.4926   17.7141 H   0  0  0  0  0  0
  -27.9794  -11.2778   19.0045 H   0  0  0  0  0  0
  -27.4059  -12.4240   17.8234 H   0  0  0  0  0  0
  -27.5700  -14.2543   19.3984 H   0  0  0  0  0  0
  -28.7388  -12.3551   21.4925 H   0  0  0  0  0  0
  -28.3182  -14.0349   21.7361 H   0  0  0  0  0  0
  -25.2838   -9.5676   22.4742 H   0  0  0  0  0  0
  -24.0117   -7.4592   22.7426 H   0  0  0  0  0  0
  -21.0922   -8.8754   19.8916 H   0  0  0  0  0  0
  -22.3803  -10.9657   19.6144 H   0  0  0  0  0  0
  -21.1947   -7.6157   23.9751 H   0  0  0  0  0  0
  -21.1504   -6.0524   25.9090 H   0  0  0  0  0  0
  -22.0593   -2.7637   23.2833 H   0  0  0  0  0  0
  -22.4102  -11.9910   22.4897 H   0  0  0  0  0  0
  -21.0936  -13.1053   22.2616 H   0  0  0  0  0  0
  -24.6375  -15.8558   20.4926 H   0  0  0  0  0  0
  -26.2368  -15.6145   20.0103 H   0  0  0  0  0  0
  -26.7292  -32.5315   23.1065 H   0  0  0  0  0  0
  -25.0140  -33.9639   25.0391 H   0  0  0  0  0  0
  -22.7526  -31.2910   21.3877 H   0  0  0  0  0  0
  -23.3812  -35.9524   23.3207 H   0  0  0  0  0  0
  -24.3607  -36.8981   22.2068 H   0  0  0  0  0  0
  -23.7175  -37.6388   23.6734 H   0  0  0  0  0  0
  -26.1783  -31.4553   20.6270 H   0  0  0  0  0  0
  -26.8786  -30.7597   22.0477 H   0  0  0  0  0  0
  -28.1198  -28.7467   21.2938 H   0  0  0  0  0  0
  -25.9045  -25.8921   18.9113 H   0  0  0  0  0  0
  -23.9991  -27.3437   18.9242 H   0  0  0  0  0  0
  -23.8258  -30.5795   19.4049 H   0  0  0  0  0  0
  -22.7957  -29.2472   19.8427 H   0  0  0  0  0  0
  -25.1313  -36.1875   25.0809 H   0  0  0  0  0  0
  -20.9989  -28.3319   24.1359 H   0  0  0  0  0  0
  -20.5717  -26.2361   23.3617 H   0  0  0  0  0  0
  -21.6662  -26.7468   22.1166 H   0  0  0  0  0  0
  -19.6932  -25.6291   21.1258 H   0  0  0  0  0  0
  -19.6709  -27.3180   20.6729 H   0  0  0  0  0  0
  -17.4229  -26.6694   21.4001 H   0  0  0  0  0  0
  -18.0329  -26.0108   22.9016 H   0  0  0  0  0  0
  -19.7960  -30.7334   24.2178 H   0  0  0  0  0  0
  -17.5021  -31.6280   24.5172 H   0  0  0  0  0  0
  -15.5357  -30.2965   23.7716 H   0  0  0  0  0  0
  -15.8686  -28.0835   22.7058 H   0  0  0  0  0  0
  -24.5919  -30.7066   25.7768 H   0  0  0  0  0  0
  -24.8877  -32.2890   26.4883 H   0  0  0  0  0  0
  -25.8002  -30.8903   27.0265 H   0  0  0  0  0  0
  -26.2976  -29.6705   24.1366 H   0  0  0  0  0  0
  -27.3989  -29.7268   25.4921 H   0  0  0  0  0  0
  -27.8906  -30.4208   23.9675 H   0  0  0  0  0  0
  -27.2792  -33.3691   26.1997 H   0  0  0  0  0  0
  -28.3965  -32.6731   25.0344 H   0  0  0  0  0  0
  -28.0728  -31.8478   26.5503 H   0  0  0  0  0  0
  -28.2550  -38.0134   24.7617 H   0  0  0  0  0  0
  -28.1164  -36.2679   24.6139 H   0  0  0  0  0  0
  -27.2336  -37.1237   25.8852 H   0  0  0  0  0  0
  -20.9557  -29.8782   21.6764 H   0  0  0  0  0  0
  -26.0160  -38.2822   24.1482 H   0  0  0  0  0  0
  -30.0572  -20.7139   19.5636 H   0  0  0  0  0  0
  -29.1361  -23.3207   22.2426 H   0  0  0  0  0  0
  -31.4936  -23.6955   23.2363 H   0  0  0  0  0  0
  -32.8251  -24.0763   22.1560 H   0  0  0  0  0  0
  -32.2791  -22.4203   22.3040 H   0  0  0  0  0  0
  -31.0213  -23.7187   18.9233 H   0  0  0  0  0  0
  -31.8118  -22.3179   19.6409 H   0  0  0  0  0  0
  -32.5931  -23.8827   19.6941 H   0  0  0  0  0  0
  -26.9404  -19.2473   19.5257 H   0  0  0  0  0  0
  -27.4935  -17.5967   19.6344 H   0  0  0  0  0  0
  -28.2241  -18.6722   18.4575 H   0  0  0  0  0  0
  -27.3632  -19.5729   22.0033 H   0  0  0  0  0  0
  -28.8779  -18.9580   22.6970 H   0  0  0  0  0  0
  -27.7335  -17.8568   21.9767 H   0  0  0  0  0  0
  -30.7756  -17.9862   21.2392 H   0  0  0  0  0  0
  -30.5713  -17.8658   19.5316 H   0  0  0  0  0  0
  -26.8339  -24.3997   20.3720 H   0  0  0  0  0  0
  -27.6911  -24.5548   18.8508 H   0  0  0  0  0  0
  -30.7221  -24.7620   21.1175 H   0  0  0  0  0  0
  -28.7750  -15.9835   20.8651 H   0  0  0  0  0  0
  -30.7487  -21.2222   21.6989 H   0  0  0  0  0  0
  -29.2327  -21.1956   22.2860 H   0  0  0  0  0  0
  1 25  1  0  0  0
  1 30  2  0  0  0
  1 83  1  0  0  0
  2  3  1  0  0  0
  2 25  1  0  0  0
  2 86  1  0  0  0
  2 87  1  0  0  0
  3  4  1  0  0  0
  3 88  1  0  0  0
  3 89  1  0  0  0
  4  5  1  0  0  0
  4 90  1  0  0  0
  4 91  1  0  0  0
  5  6  1  0  0  0
  5 26  1  0  0  0
  5 92  1  0  0  0
  6 25  1  0  0  0
  6 93  1  0  0  0
  6 94  1  0  0  0
  7  8  2  0  0  0
  7 26  1  0  0  0
  7 29  1  0  0  0
  8  9  1  0  0  0
  8 22  1  0  0  0
  9 10  1  0  0  0
  9 27  2  0  0  0
 10 11  2  0  0  0
 10 15  1  0  0  0
 11 12  1  0  0  0
 11 95  1  0  0  0
 12 13  2  0  0  0
 12 96  1  0  0  0
 13 14  1  0  0  0
 13 31  1  0  0  0
 14 15  2  0  0  0
 14 97  1  0  0  0
 15 98  1  0  0  0
 16 17  2  0  0  0
 16 21  1  0  0  0
 16 31  1  0  0  0
 17 18  1  0  0  0
 17 99  1  0  0  0
 18 19  2  0  0  0
 18100  1  0  0  0
 19 20  1  0  0  0
 19 24  1  0  0  0
 20 21  2  0  0  0
 20101  1  0  0  0
 21 23  1  0  0  0
 22 28  1  0  0  0
 22 32  2  0  0  0
 26 27  1  0  0  0
 28102  1  0  0  0
 28103  1  0  0  0
 29104  1  0  0  0
 29105  1  0  0  0
 33 34  1  0  0  0
 33 66  1  0  0  0
 33 70  2  0  0  0
 34 36  1  0  0  0
 34 59  1  0  0  0
 34106  1  0  0  0
 35 44  2  0  0  0
 35 45  1  0  0  0
 35 68  1  0  0  0
 36 56  1  0  0  0
 36107  1  0  0  0
 37 39  1  0  0  0
 37 47  1  0  0  0
 37 66  1  0  0  0
 37108  1  0  0  0
 38 43  2  0  0  0
 38 46  1  0  0  0
 38 47  1  0  0  0
 39 64  1  0  0  0
 39 67  2  0  0  0
 40 52  1  0  0  0
 40 53  2  0  0  0
 40 58  1  0  0  0
 41109  1  0  0  0
 41110  1  0  0  0
 41111  1  0  0  0
 41 48  1  0  0  0
 42 43  1  0  0  0
 42 66  1  0  0  0
 42112  1  0  0  0
 42113  1  0  0  0
 43 44  1  0  0  0
 44114  1  0  0  0
 45 46  2  0  0  0
 45115  1  0  0  0
 46116  1  0  0  0
 47117  1  0  0  0
 47118  1  0  0  0
 48 56  1  0  0  0
 48 65  1  0  0  0
 48119  1  0  0  0
 49 50  1  0  0  0
 49 53  1  0  0  0
 49 64  1  0  0  0
 49120  1  0  0  0
 50 51  1  0  0  0
 50121  1  0  0  0
 50122  1  0  0  0
 51 52  1  0  0  0
 51123  1  0  0  0
 51124  1  0  0  0
 52125  1  0  0  0
 52126  1  0  0  0
 53 54  1  0  0  0
 54 55  2  0  0  0
 54127  1  0  0  0
 55 57  1  0  0  0
 55128  1  0  0  0
 56 69  2  0  0  0
 57 58  2  0  0  0
 57129  1  0  0  0
 58130  1  0  0  0
 59 60  1  0  0  0
 59 61  1  0  0  0
 59 62  1  0  0  0
 60131  1  0  0  0
 60132  1  0  0  0
 60133  1  0  0  0
 61134  1  0  0  0
 61135  1  0  0  0
 61136  1  0  0  0
 62137  1  0  0  0
 62138  1  0  0  0
 62139  1  0  0  0
 63 65  1  0  0  0
 63140  1  0  0  0
 63141  1  0  0  0
 63142  1  0  0  0
 64143  1  0  0  0
 65144  1  0  0  0
 68 79  1  0  0  0
 71 72  1  0  0  0
 71 82  1  0  0  0
 71 85  2  0  0  0
 72 81  1  0  0  0
 72 84  1  0  0  0
 72145  1  0  0  0
 73 80  1  0  0  0
 73 82  1  0  0  0
 73 84  1  0  0  0
 73146  1  0  0  0
 74147  1  0  0  0
 74148  1  0  0  0
 74149  1  0  0  0
 74 80  1  0  0  0
 75 80  1  0  0  0
 75150  1  0  0  0
 75151  1  0  0  0
 75152  1  0  0  0
 76153  1  0  0  0
 76154  1  0  0  0
 76155  1  0  0  0
 76 81  1  0  0  0
 77 81  1  0  0  0
 77156  1  0  0  0
 77157  1  0  0  0
 77158  1  0  0  0
 78 81  1  0  0  0
 78 83  1  0  0  0
 78159  1  0  0  0
 78160  1  0  0  0
 79 82  1  0  0  0
 79161  1  0  0  0
 79162  1  0  0  0
 80163  1  0  0  0
 83164  1  0  0  0
 84165  1  0  0  0
 84166  1  0  0  0
M  CHG  1  84   1
M  ISO  4   1 100  68 101  79 101  83 100
M  END
> <chiral flag>
0

> <version>
0

> <s_m_source_file>
/data/baiqing/PycharmProjects/Reinvent-master-3.2/result/LINK_invent/BTK/process_docking_weight1_custom_sum_contain_oxygen_bond_distance_aromatic_linkinvent_7_9_3/rearranged_h_0176.sdf

> <i_m_source_file_index>
20

> <r_mmod_Potential_Energy-OPLS-2005>
418.776489257812

> <r_mmod_Stretch_Energy-OPLS-2005>
325.572021484375

> <r_mmod_Bend_Energy-OPLS-2005>
354.07861328125

> <r_mmod_Torsional_Energy-OPLS-2005>
268.910278320312

> <r_mmod_Improper_Torsional_Energy-OPLS-2005>
5.30323553085327

> <r_mmod_Van_der_Waal_Energy-OPLS-2005>
106.508491516113

> <r_mmod_Electrostatic_Energy-OPLS-2005>
-389.105194091797

> <r_mmod_Solvation_Energy-OPLS-2005>
-495.488067626953

> <b_mmod_Minimization_Converged-OPLS-2005>
0

> <r_mmod_RMS_Derivative-OPLS-2005>
5.3470664024353

$$$$
20
                    3D
 Structure written by MMmdl.
154163  0  0  1  0            999 V2000
  -30.4410  -15.2365   20.3914 C   0  0  0  0  0  0
  -30.4412  -12.7804   19.5503 C   0  0  0  0  0  0
  -29.5442  -12.5878   18.2989 C   0  0  0  0  0  0
  -28.0851  -12.3161   18.7053 C   0  0  0  0  0  0
  -27.6168  -13.2738   19.8279 C   0  0  2  0  0  0
  -28.6436  -13.4014   20.9702 C   0  0  0  0  0  0
  -25.2413  -13.8250   20.5740 C   0  0  0  0  0  0
  -24.1752  -13.0442   20.9224 C   0  0  0  0  0  0
  -24.6403  -11.6936   20.8729 C   0  0  0  0  0  0
  -23.9096  -10.4296   21.0390 C   0  0  0  0  0  0
  -24.3641   -9.4212   21.9173 C   0  0  0  0  0  0
  -23.6308   -8.2252   22.0752 C   0  0  0  0  0  0
  -22.4287   -8.0289   21.3547 C   0  0  0  0  0  0
  -21.9928   -9.0260   20.4645 C   0  0  0  0  0  0
  -22.7263  -10.2134   20.3046 C   0  0  0  0  0  0
  -21.6858   -6.0743   22.5282 C   0  0  0  0  0  0
  -21.4017   -6.5645   23.8216 C   0  0  0  0  0  0
  -21.3660   -5.6795   24.9176 C   0  0  0  0  0  0
  -21.6044   -4.3059   24.7224 C   0  0  0  0  0  0
  -21.8818   -3.8153   23.4344 C   0  0  0  0  0  0
  -21.9193   -4.6971   22.3402 C   0  0  0  0  0  0
  -22.7770  -13.5194   21.1890 C   0  0  0  0  0  0
  -22.1661   -4.2156   21.0980 F   0  0  0  0  0  0
  -21.5627   -3.4542   25.7736 F   0  0  0  0  0  0
  -29.8944  -13.9170   20.3850 N   0  0  0  0  0  0
  -26.2832  -12.9519   20.3193 N   0  0  0  0  0  0
  -25.9339  -11.6623   20.5682 N   0  0  0  0  0  0
  -22.0436  -12.8173   22.0448 N   0  0  0  0  0  0
  -25.4088  -15.1988   20.4263 N   0  0  0  0  0  0
  -31.6333  -15.2414   20.0476 O   0  0  0  0  0  0
  -21.6648   -6.8888   21.4244 O   0  0  0  0  0  0
  -22.3443  -14.5496   20.6738 O   0  0  0  0  0  0
  -24.6606  -31.8252   23.1716 C   0  0  0  0  0  0
  -25.9298  -32.4594   23.8172 C   0  0  1  0  0  0
  -27.2215  -26.9486   20.1815 C   0  0  0  0  0  0
  -25.5975  -33.8409   24.2079 N   0  0  0  0  0  0
  -23.4747  -30.4367   21.5198 C   0  0  2  0  0  0
  -24.9296  -28.8284   20.1081 C   0  0  0  0  0  0
  -22.7658  -29.4445   22.4780 C   0  0  0  0  0  0
  -18.0321  -28.1407   22.8468 C   0  0  0  0  0  0
  -24.1492  -36.7209   23.2647 C   0  0  0  0  0  0
  -26.0420  -30.6375   21.4001 C   0  0  0  0  0  0
  -26.1103  -29.2298   20.7444 C   0  0  0  0  0  0
  -27.2493  -28.3093   20.7596 C   0  0  0  0  0  0
  -26.0166  -26.6990   19.4862 C   0  0  0  0  0  0
  -24.9074  -27.5834   19.4583 C   0  0  0  0  0  0
  -23.7135  -29.7527   20.1449 C   0  0  0  0  0  0
  -25.4133  -36.2972   24.0299 C   0  0  1  0  0  0
  -20.5945  -28.3750   23.1190 C   0  0  2  0  0  0
  -20.6799  -26.9433   22.5404 C   0  0  0  0  0  0
  -19.5772  -26.6377   21.5215 C   0  0  0  0  0  0
  -18.1953  -26.7941   22.1622 C   0  0  0  0  0  0
  -19.1583  -28.8899   23.2815 C   0  0  0  0  0  0
  -18.9495  -30.1489   23.8851 C   0  0  0  0  0  0
  -17.6489  -30.6598   24.0558 C   0  0  0  0  0  0
  -25.9098  -34.9355   23.5011 C   0  0  0  0  0  0
  -16.5378  -29.9088   23.6344 C   0  0  0  0  0  0
  -16.7304  -28.6507   23.0363 C   0  0  0  0  0  0
  -26.4557  -31.6534   25.0694 C   0  0  0  0  0  0
  -25.3683  -31.3783   26.1349 C   0  0  0  0  0  0
  -27.0455  -30.2904   24.6421 C   0  0  0  0  0  0
  -27.6051  -32.4342   25.7493 C   0  0  0  0  0  0
  -27.5568  -37.1760   24.8464 C   0  0  0  0  0  0
  -21.4329  -29.3039   22.3534 N   0  0  0  0  0  0
  -26.4277  -37.3708   23.9409 N   0  0  0  0  0  0
  -24.7467  -30.9933   22.0841 N   0  0  0  0  0  0
  -23.4213  -28.8016   23.3017 O   0  0  0  0  0  0
  -28.2267  -25.8560   20.2945 O   0  0  0  0  0  0
  -26.5707  -34.8888   22.4606 O   0  0  0  0  0  0
  -23.5680  -32.1217   23.6819 O   0  0  0  0  0  0
  -28.9176  -16.8241   21.8849 C   0  0  0  0  0  0
  -29.7079  -16.7205   20.7195 C   0  0  0  0  0  0
  -29.7997  -18.1241   20.0861 C   0  0  0  0  0  0
  -29.1338  -19.4227   20.5773 C   0  0  0  0  0  0
  -28.3229  -18.0363   22.3185 C   0  0  0  0  0  0
  -29.9999  -22.1131   20.0675 C   0  0  0  0  0  0
  -28.9189  -21.0526   19.9698 C   0  0  2  0  0  0
  -28.6931  -22.7119   20.5598 C   0  0  2  0  0  0
  -30.6237  -18.2363   18.8171 C   0  0  0  0  0  0
  -27.4942  -18.0441   23.5868 C   0  0  0  0  0  0
  -28.0567  -24.2562   19.9539 C   0  0  0  0  0  0
  -28.4164  -19.2463   21.7055 N   0  0  0  0  0  0
  -31.4673  -12.9656   19.2310 H   0  0  0  0  0  0
  -30.4899  -11.8595   20.1340 H   0  0  0  0  0  0
  -29.9216  -11.7718   17.6814 H   0  0  0  0  0  0
  -29.5890  -13.4867   17.6824 H   0  0  0  0  0  0
  -28.0248  -11.2844   19.0540 H   0  0  0  0  0  0
  -27.4261  -12.3860   17.8391 H   0  0  0  0  0  0
  -27.5470  -14.2545   19.3557 H   0  0  0  0  0  0
  -28.7966  -12.4442   21.4709 H   0  0  0  0  0  0
  -28.2624  -14.0738   21.7334 H   0  0  0  0  0  0
  -25.2783   -9.5692   22.4750 H   0  0  0  0  0  0
  -24.0016   -7.4646   22.7475 H   0  0  0  0  0  0
  -21.0859   -8.8781   19.8951 H   0  0  0  0  0  0
  -22.3718  -10.9673   19.6157 H   0  0  0  0  0  0
  -21.2011   -7.6153   23.9721 H   0  0  0  0  0  0
  -21.1482   -6.0525   25.9079 H   0  0  0  0  0  0
  -22.0594   -2.7615   23.2843 H   0  0  0  0  0  0
  -22.4071  -11.9837   22.4824 H   0  0  0  0  0  0
  -21.1048  -13.1177   22.2660 H   0  0  0  0  0  0
  -24.6478  -15.8545   20.5630 H   0  0  0  0  0  0
  -26.2754  -15.6488   20.1593 H   0  0  0  0  0  0
  -26.7363  -32.5141   23.0884 H   0  0  0  0  0  0
  -25.0077  -33.9488   25.0199 H   0  0  0  0  0  0
  -22.7867  -31.2677   21.3501 H   0  0  0  0  0  0
  -23.3766  -35.9525   23.3280 H   0  0  0  0  0  0
  -24.3567  -36.8885   22.2066 H   0  0  0  0  0  0
  -23.7234  -37.6384   23.6719 H   0  0  0  0  0  0
  -26.2211  -31.3796   20.6209 H   0  0  0  0  0  0
  -26.9030  -30.6937   22.0543 H   0  0  0  0  0  0
  -28.1400  -28.6128   21.2917 H   0  0  0  0  0  0
  -25.8936  -25.7507   18.9841 H   0  0  0  0  0  0
  -24.0121  -27.2728   18.9374 H   0  0  0  0  0  0
  -23.8654  -30.5224   19.3873 H   0  0  0  0  0  0
  -22.8242  -29.2046   19.8287 H   0  0  0  0  0  0
  -25.1328  -36.1771   25.0789 H   0  0  0  0  0  0
  -21.0033  -28.3363   24.1314 H   0  0  0  0  0  0
  -20.5680  -26.2370   23.3642 H   0  0  0  0  0  0
  -21.6662  -26.7409   22.1209 H   0  0  0  0  0  0
  -19.6932  -25.6276   21.1275 H   0  0  0  0  0  0
  -19.6715  -27.3163   20.6724 H   0  0  0  0  0  0
  -17.4224  -26.6685   21.4025 H   0  0  0  0  0  0
  -18.0347  -26.0092   22.9027 H   0  0  0  0  0  0
  -19.7971  -30.7318   24.2198 H   0  0  0  0  0  0
  -17.5044  -31.6275   24.5168 H   0  0  0  0  0  0
  -15.5378  -30.2979   23.7693 H   0  0  0  0  0  0
  -15.8703  -28.0814   22.7103 H   0  0  0  0  0  0
  -24.5885  -30.7111   25.7659 H   0  0  0  0  0  0
  -24.8848  -32.2984   26.4643 H   0  0  0  0  0  0
  -25.7912  -30.9039   27.0214 H   0  0  0  0  0  0
  -26.3120  -29.6576   24.1412 H   0  0  0  0  0  0
  -27.3978  -29.7271   25.5073 H   0  0  0  0  0  0
  -27.9066  -30.4088   23.9840 H   0  0  0  0  0  0
  -27.2623  -33.3691   26.1940 H   0  0  0  0  0  0
  -28.3929  -32.6825   25.0367 H   0  0  0  0  0  0
  -28.0645  -31.8556   26.5518 H   0  0  0  0  0  0
  -28.2567  -38.0074   24.7519 H   0  0  0  0  0  0
  -28.1084  -36.2601   24.6286 H   0  0  0  0  0  0
  -27.2285  -37.1397   25.8867 H   0  0  0  0  0  0
  -20.9577  -29.8729   21.6666 H   0  0  0  0  0  0
  -26.0127  -38.2766   24.1426 H   0  0  0  0  0  0
  -28.7917  -15.9517   22.5068 H   0  0  0  0  0  0
  -30.3935  -22.4761   19.1205 H   0  0  0  0  0  0
  -30.7635  -21.9689   20.8292 H   0  0  0  0  0  0
  -28.4925  -20.9068   18.9793 H   0  0  0  0  0  0
  -28.5514  -22.6967   21.6386 H   0  0  0  0  0  0
  -31.6350  -17.8626   18.9818 H   0  0  0  0  0  0
  -30.7023  -19.2707   18.4803 H   0  0  0  0  0  0
  -30.1695  -17.6541   18.0146 H   0  0  0  0  0  0
  -27.4932  -17.0688   24.0737 H   0  0  0  0  0  0
  -26.4601  -18.3071   23.3631 H   0  0  0  0  0  0
  -27.8876  -18.7721   24.2967 H   0  0  0  0  0  0
  -26.9817  -24.1103   20.0491 H   0  0  0  0  0  0
  -28.2265  -24.2155   18.8779 H   0  0  0  0  0  0
  1 25  1  0  0  0
  1 30  2  0  0  0
  1 72  1  0  0  0
  2  3  1  0  0  0
  2 25  1  0  0  0
  2 83  1  0  0  0
  2 84  1  0  0  0
  3  4  1  0  0  0
  3 85  1  0  0  0
  3 86  1  0  0  0
  4  5  1  0  0  0
  4 87  1  0  0  0
  4 88  1  0  0  0
  5  6  1  0  0  0
  5 26  1  0  0  0
  5 89  1  0  0  0
  6 25  1  0  0  0
  6 90  1  0  0  0
  6 91  1  0  0  0
  7  8  2  0  0  0
  7 26  1  0  0  0
  7 29  1  0  0  0
  8  9  1  0  0  0
  8 22  1  0  0  0
  9 10  1  0  0  0
  9 27  2  0  0  0
 10 11  2  0  0  0
 10 15  1  0  0  0
 11 12  1  0  0  0
 11 92  1  0  0  0
 12 13  2  0  0  0
 12 93  1  0  0  0
 13 14  1  0  0  0
 13 31  1  0  0  0
 14 15  2  0  0  0
 14 94  1  0  0  0
 15 95  1  0  0  0
 16 17  2  0  0  0
 16 21  1  0  0  0
 16 31  1  0  0  0
 17 18  1  0  0  0
 17 96  1  0  0  0
 18 19  2  0  0  0
 18 97  1  0  0  0
 19 20  1  0  0  0
 19 24  1  0  0  0
 20 21  2  0  0  0
 20 98  1  0  0  0
 21 23  1  0  0  0
 22 28  1  0  0  0
 22 32  2  0  0  0
 26 27  1  0  0  0
 28 99  1  0  0  0
 28100  1  0  0  0
 29101  1  0  0  0
 29102  1  0  0  0
 33 34  1  0  0  0
 33 66  1  0  0  0
 33 70  2  0  0  0
 34 36  1  0  0  0
 34 59  1  0  0  0
 34103  1  0  0  0
 35 44  2  0  0  0
 35 45  1  0  0  0
 35 68  1  0  0  0
 36 56  1  0  0  0
 36104  1  0  0  0
 37 39  1  0  0  0
 37 47  1  0  0  0
 37 66  1  0  0  0
 37105  1  0  0  0
 38 43  2  0  0  0
 38 46  1  0  0  0
 38 47  1  0  0  0
 39 64  1  0  0  0
 39 67  2  0  0  0
 40 52  1  0  0  0
 40 53  2  0  0  0
 40 58  1  0  0  0
 41106  1  0  0  0
 41107  1  0  0  0
 41108  1  0  0  0
 41 48  1  0  0  0
 42 43  1  0  0  0
 42 66  1  0  0  0
 42109  1  0  0  0
 42110  1  0  0  0
 43 44  1  0  0  0
 44111  1  0  0  0
 45 46  2  0  0  0
 45112  1  0  0  0
 46113  1  0  0  0
 47114  1  0  0  0
 47115  1  0  0  0
 48 56  1  0  0  0
 48 65  1  0  0  0
 48116  1  0  0  0
 49 50  1  0  0  0
 49 53  1  0  0  0
 49 64  1  0  0  0
 49117  1  0  0  0
 50 51  1  0  0  0
 50118  1  0  0  0
 50119  1  0  0  0
 51 52  1  0  0  0
 51120  1  0  0  0
 51121  1  0  0  0
 52122  1  0  0  0
 52123  1  0  0  0
 53 54  1  0  0  0
 54 55  2  0  0  0
 54124  1  0  0  0
 55 57  1  0  0  0
 55125  1  0  0  0
 56 69  2  0  0  0
 57 58  2  0  0  0
 57126  1  0  0  0
 58127  1  0  0  0
 59 60  1  0  0  0
 59 61  1  0  0  0
 59 62  1  0  0  0
 60128  1  0  0  0
 60129  1  0  0  0
 60130  1  0  0  0
 61131  1  0  0  0
 61132  1  0  0  0
 61133  1  0  0  0
 62134  1  0  0  0
 62135  1  0  0  0
 62136  1  0  0  0
 63 65  1  0  0  0
 63137  1  0  0  0
 63138  1  0  0  0
 63139  1  0  0  0
 64140  1  0  0  0
 65141  1  0  0  0
 68 81  1  0  0  0
 71 72  2  0  0  0
 71 75  1  0  0  0
 71142  1  0  0  0
 72 73  1  0  0  0
 73 74  2  0  0  0
 73 79  1  0  0  0
 74 82  1  0  0  0
 74 77  1  0  0  0
 75 80  1  0  0  0
 75 82  2  0  0  0
 76 77  1  0  0  0
 76 78  1  0  0  0
 76143  1  0  0  0
 76144  1  0  0  0
 77 78  1  0  0  0
 77145  1  0  0  0
 78 81  1  0  0  0
 78146  1  0  0  0
 79147  1  0  0  0
 79148  1  0  0  0
 79149  1  0  0  0
 80150  1  0  0  0
 80151  1  0  0  0
 80152  1  0  0  0
 81153  1  0  0  0
 81154  1  0  0  0
M  ISO  4   1 100  68 101  72 100  81 101
M  END
> <chiral flag>
0

> <version>
0

> <s_m_source_file>
/data/baiqing/PycharmProjects/Reinvent-master-3.2/result/LINK_invent/BTK/process_docking_weight1_custom_sum_contain_oxygen_bond_distance_aromatic_linkinvent_7_9_3/rearranged_h_0176.sdf

> <i_m_source_file_index>
21

> <r_mmod_Potential_Energy-OPLS-2005>
1068.02868652344

> <r_mmod_Stretch_Energy-OPLS-2005>
569.343627929688

> <r_mmod_Bend_Energy-OPLS-2005>
385.568145751953

> <r_mmod_Torsional_Energy-OPLS-2005>
222.938369750977

> <r_mmod_Improper_Torsional_Energy-OPLS-2005>
2.88031840324402

> <r_mmod_Van_der_Waal_Energy-OPLS-2005>
123.542358398438

> <r_mmod_Electrostatic_Energy-OPLS-2005>
-452.206970214844

> <r_mmod_Solvation_Energy-OPLS-2005>
-206.619857788086

> <b_mmod_Minimization_Converged-OPLS-2005>
0

> <r_mmod_RMS_Derivative-OPLS-2005>
0.46612361073494

$$$$
21
                    3D
 Structure written by MMmdl.
161170  0  0  1  0            999 V2000
  -30.6933  -14.5519   20.5306 C   0  0  0  0  0  0
  -30.4217  -12.3451   19.4447 C   0  0  0  0  0  0
  -29.4989  -12.4978   18.2180 C   0  0  0  0  0  0
  -28.0221  -12.3497   18.6323 C   0  0  0  0  0  0
  -27.6551  -13.2172   19.8664 C   0  0  2  0  0  0
  -28.6990  -13.0627   20.9956 C   0  0  0  0  0  0
  -25.2563  -13.8180   20.5689 C   0  0  0  0  0  0
  -24.1829  -13.0443   20.9188 C   0  0  0  0  0  0
  -24.6396  -11.6914   20.8743 C   0  0  0  0  0  0
  -23.9070  -10.4296   21.0408 C   0  0  0  0  0  0
  -24.3619   -9.4211   21.9187 C   0  0  0  0  0  0
  -23.6293   -8.2246   22.0758 C   0  0  0  0  0  0
  -22.4275   -8.0284   21.3549 C   0  0  0  0  0  0
  -21.9913   -9.0258   20.4650 C   0  0  0  0  0  0
  -22.7243  -10.2136   20.3058 C   0  0  0  0  0  0
  -21.6853   -6.0738   22.5280 C   0  0  0  0  0  0
  -21.4011   -6.5642   23.8214 C   0  0  0  0  0  0
  -21.3659   -5.6795   24.9175 C   0  0  0  0  0  0
  -21.6043   -4.3056   24.7226 C   0  0  0  0  0  0
  -21.8819   -3.8148   23.4349 C   0  0  0  0  0  0
  -21.9194   -4.6966   22.3404 C   0  0  0  0  0  0
  -22.7850  -13.5235   21.1846 C   0  0  0  0  0  0
  -22.1662   -4.2150   21.0982 F   0  0  0  0  0  0
  -21.5630   -3.4540   25.7740 F   0  0  0  0  0  0
  -30.0214  -13.3670   20.4299 N   0  0  0  0  0  0
  -26.2998  -12.9368   20.3345 N   0  0  0  0  0  0
  -25.9328  -11.6518   20.5775 N   0  0  0  0  0  0
  -22.0493  -12.8228   22.0405 N   0  0  0  0  0  0
  -25.4276  -15.1901   20.4094 N   0  0  0  0  0  0
  -31.8463  -14.6822   20.1121 O   0  0  0  0  0  0
  -21.6641   -6.8880   21.4241 O   0  0  0  0  0  0
  -22.3541  -14.5546   20.6703 O   0  0  0  0  0  0
  -24.6207  -31.8646   23.2073 C   0  0  0  0  0  0
  -25.9077  -32.4805   23.8383 C   0  0  1  0  0  0
  -27.2233  -27.3744   20.1113 C   0  0  0  0  0  0
  -25.5914  -33.8603   24.2313 N   0  0  0  0  0  0
  -23.4126  -30.4897   21.5484 C   0  0  2  0  0  0
  -24.8607  -28.9575   20.1077 C   0  0  0  0  0  0
  -22.7453  -29.4648   22.4953 C   0  0  0  0  0  0
  -18.0280  -28.1388   22.8497 C   0  0  0  0  0  0
  -24.1481  -36.7293   23.2641 C   0  0  0  0  0  0
  -25.9490  -30.8125   21.3719 C   0  0  0  0  0  0
  -26.0262  -29.4448   20.7148 C   0  0  0  0  0  0
  -27.2137  -28.6630   20.7123 C   0  0  0  0  0  0
  -26.0470  -26.9399   19.4596 C   0  0  0  0  0  0
  -24.8702  -27.7071   19.4715 C   0  0  0  0  0  0
  -23.6244  -29.8284   20.1616 C   0  0  0  0  0  0
  -25.4105  -36.3097   24.0339 C   0  0  1  0  0  0
  -20.5880  -28.3681   23.1298 C   0  0  2  0  0  0
  -20.6771  -26.9411   22.5415 C   0  0  0  0  0  0
  -19.5744  -26.6389   21.5216 C   0  0  0  0  0  0
  -18.1923  -26.7936   22.1626 C   0  0  0  0  0  0
  -19.1535  -28.8850   23.2895 C   0  0  0  0  0  0
  -18.9463  -30.1457   23.8905 C   0  0  0  0  0  0
  -17.6464  -30.6593   24.0570 C   0  0  0  0  0  0
  -25.9039  -34.9467   23.5123 C   0  0  0  0  0  0
  -16.5351  -29.9100   23.6335 C   0  0  0  0  0  0
  -16.7270  -28.6514   23.0359 C   0  0  0  0  0  0
  -26.4483  -31.6592   25.0726 C   0  0  0  0  0  0
  -25.3734  -31.3714   26.1462 C   0  0  0  0  0  0
  -27.0322  -30.3029   24.6133 C   0  0  0  0  0  0
  -27.6051  -32.4320   25.7492 C   0  0  0  0  0  0
  -27.5574  -37.1802   24.8471 C   0  0  0  0  0  0
  -21.4171  -29.3038   22.3692 N   0  0  0  0  0  0
  -26.4286  -37.3787   23.9414 N   0  0  0  0  0  0
  -24.6791  -31.0704   22.1000 N   0  0  0  0  0  0
  -23.4200  -28.8186   23.3011 O   0  0  0  0  0  0
  -28.3206  -26.5197   20.1648 O   0  0  0  0  0  0
  -26.5605  -34.8928   22.4689 O   0  0  0  0  0  0
  -23.5383  -32.1419   23.7432 O   0  0  0  0  0  0
  -28.4808  -22.6486   20.7334 C   0  0  0  0  0  0
  -28.9254  -23.9937   20.5227 C   0  0  0  0  0  0
  -29.4287  -21.6100   20.5122 C   0  0  0  0  0  0
  -30.9942  -23.1888   19.9547 C   0  0  0  0  0  0
  -26.2688  -21.4436   20.6611 C   0  0  0  0  0  0
  -27.0901  -22.3815   21.1639 C   0  0  0  0  0  0
  -29.7617  -18.0364   21.8892 C   0  0  0  0  0  0
  -30.0059  -17.9735   19.8237 C   0  0  0  0  0  0
  -30.0954  -19.1405   20.8468 C   0  0  1  0  0  0
  -30.5007  -17.0390   20.9611 C   0  0  2  0  0  0
  -32.4221  -23.4846   19.5508 C   0  0  0  0  0  0
  -28.0148  -25.2267   20.7923 C   0  0  0  0  0  0
  -30.1935  -24.2363   20.1320 N   0  0  0  0  0  0
  -30.6796  -21.9061   20.1244 N   0  0  0  0  0  0
  -29.1099  -20.2401   20.7145 N   0  0  0  0  0  0
  -29.9895  -15.6373   20.9459 N   0  0  0  0  0  0
  -31.4671  -12.4366   19.1447 H   0  0  0  0  0  0
  -30.3239  -11.3479   19.8767 H   0  0  0  0  0  0
  -29.7504  -11.7529   17.4614 H   0  0  0  0  0  0
  -29.6572  -13.4729   17.7541 H   0  0  0  0  0  0
  -27.8495  -11.2964   18.8571 H   0  0  0  0  0  0
  -27.3680  -12.5906   17.7937 H   0  0  0  0  0  0
  -27.6808  -14.2552   19.5338 H   0  0  0  0  0  0
  -28.6893  -12.0460   21.3909 H   0  0  0  0  0  0
  -28.4583  -13.7120   21.8385 H   0  0  0  0  0  0
  -25.2764   -9.5685   22.4763 H   0  0  0  0  0  0
  -24.0002   -7.4638   22.7476 H   0  0  0  0  0  0
  -21.0848   -8.8778   19.8953 H   0  0  0  0  0  0
  -22.3707  -10.9674   19.6166 H   0  0  0  0  0  0
  -21.1998   -7.6151   23.9717 H   0  0  0  0  0  0
  -21.1480   -6.0525   25.9079 H   0  0  0  0  0  0
  -22.0597   -2.7610   23.2849 H   0  0  0  0  0  0
  -22.4105  -11.9880   22.4778 H   0  0  0  0  0  0
  -21.1113  -13.1259   22.2614 H   0  0  0  0  0  0
  -24.6595  -15.8440   20.5122 H   0  0  0  0  0  0
  -26.2789  -15.6290   20.0815 H   0  0  0  0  0  0
  -26.7150  -32.5499   23.1143 H   0  0  0  0  0  0
  -25.0063  -33.9757   25.0459 H   0  0  0  0  0  0
  -22.7035  -31.3084   21.4097 H   0  0  0  0  0  0
  -23.3747  -35.9621   23.3314 H   0  0  0  0  0  0
  -24.3573  -36.8894   22.2053 H   0  0  0  0  0  0
  -23.7229  -37.6500   23.6648 H   0  0  0  0  0  0
  -26.0724  -31.5784   20.6048 H   0  0  0  0  0  0
  -26.8330  -30.8618   21.9961 H   0  0  0  0  0  0
  -28.1060  -29.0280   21.2019 H   0  0  0  0  0  0
  -26.0242  -25.9881   18.9478 H   0  0  0  0  0  0
  -23.9809  -27.3324   18.9837 H   0  0  0  0  0  0
  -23.7365  -30.6068   19.4057 H   0  0  0  0  0  0
  -22.7465  -29.2530   19.8621 H   0  0  0  0  0  0
  -25.1284  -36.1954   25.0832 H   0  0  0  0  0  0
  -20.9971  -28.3250   24.1418 H   0  0  0  0  0  0
  -20.5673  -26.2290   23.3608 H   0  0  0  0  0  0
  -21.6640  -26.7450   22.1199 H   0  0  0  0  0  0
  -19.6905  -25.6305   21.1235 H   0  0  0  0  0  0
  -19.6682  -27.3211   20.6756 H   0  0  0  0  0  0
  -17.4193  -26.6691   21.4025 H   0  0  0  0  0  0
  -18.0319  -26.0080   22.9022 H   0  0  0  0  0  0
  -19.7942  -30.7274   24.2268 H   0  0  0  0  0  0
  -17.5025  -31.6277   24.5175 H   0  0  0  0  0  0
  -15.5355  -30.3007   23.7664 H   0  0  0  0  0  0
  -15.8665  -28.0839   22.7070 H   0  0  0  0  0  0
  -24.5916  -30.7051   25.7796 H   0  0  0  0  0  0
  -24.8913  -32.2875   26.4886 H   0  0  0  0  0  0
  -25.8075  -30.8900   27.0233 H   0  0  0  0  0  0
  -26.2882  -29.6785   24.1175 H   0  0  0  0  0  0
  -27.4071  -29.7271   25.4603 H   0  0  0  0  0  0
  -27.8726  -30.4338   23.9313 H   0  0  0  0  0  0
  -27.2667  -33.3621   26.2068 H   0  0  0  0  0  0
  -28.3861  -32.6874   25.0319 H   0  0  0  0  0  0
  -28.0716  -31.8443   26.5408 H   0  0  0  0  0  0
  -28.2602  -38.0088   24.7514 H   0  0  0  0  0  0
  -28.1060  -36.2624   24.6302 H   0  0  0  0  0  0
  -27.2296  -37.1455   25.8875 H   0  0  0  0  0  0
  -20.9338  -29.8759   21.6909 H   0  0  0  0  0  0
  -26.0172  -38.2861   24.1424 H   0  0  0  0  0  0
  -25.2702  -21.3158   21.0576 H   0  0  0  0  0  0
  -26.5598  -20.7924   19.8483 H   0  0  0  0  0  0
  -26.7191  -22.9919   21.9762 H   0  0  0  0  0  0
  -28.6935  -17.8295   21.9864 H   0  0  0  0  0  0
  -30.2281  -18.1794   22.8653 H   0  0  0  0  0  0
  -30.6895  -18.0580   18.9777 H   0  0  0  0  0  0
  -28.9886  -17.7532   19.4916 H   0  0  0  0  0  0
  -31.1197  -19.5019   20.9645 H   0  0  0  0  0  0
  -31.5836  -17.1069   21.0980 H   0  0  0  0  0  0
  -32.5077  -24.4689   19.0899 H   0  0  0  0  0  0
  -32.7869  -22.7462   18.8365 H   0  0  0  0  0  0
  -33.0707  -23.4617   20.4265 H   0  0  0  0  0  0
  -28.0237  -25.3902   21.8703 H   0  0  0  0  0  0
  -27.0004  -24.9088   20.5655 H   0  0  0  0  0  0
  -28.1721  -20.0860   21.0666 H   0  0  0  0  0  0
  -29.0394  -15.4762   21.2451 H   0  0  0  0  0  0
  1 25  1  0  0  0
  1 30  2  0  0  0
  1 86  1  0  0  0
  2  3  1  0  0  0
  2 25  1  0  0  0
  2 87  1  0  0  0
  2 88  1  0  0  0
  3  4  1  0  0  0
  3 89  1  0  0  0
  3 90  1  0  0  0
  4  5  1  0  0  0
  4 91  1  0  0  0
  4 92  1  0  0  0
  5  6  1  0  0  0
  5 26  1  0  0  0
  5 93  1  0  0  0
  6 25  1  0  0  0
  6 94  1  0  0  0
  6 95  1  0  0  0
  7  8  2  0  0  0
  7 26  1  0  0  0
  7 29  1  0  0  0
  8  9  1  0  0  0
  8 22  1  0  0  0
  9 10  1  0  0  0
  9 27  2  0  0  0
 10 11  2  0  0  0
 10 15  1  0  0  0
 11 12  1  0  0  0
 11 96  1  0  0  0
 12 13  2  0  0  0
 12 97  1  0  0  0
 13 14  1  0  0  0
 13 31  1  0  0  0
 14 15  2  0  0  0
 14 98  1  0  0  0
 15 99  1  0  0  0
 16 17  2  0  0  0
 16 21  1  0  0  0
 16 31  1  0  0  0
 17 18  1  0  0  0
 17100  1  0  0  0
 18 19  2  0  0  0
 18101  1  0  0  0
 19 20  1  0  0  0
 19 24  1  0  0  0
 20 21  2  0  0  0
 20102  1  0  0  0
 21 23  1  0  0  0
 22 28  1  0  0  0
 22 32  2  0  0  0
 26 27  1  0  0  0
 28103  1  0  0  0
 28104  1  0  0  0
 29105  1  0  0  0
 29106  1  0  0  0
 33 34  1  0  0  0
 33 66  1  0  0  0
 33 70  2  0  0  0
 34 36  1  0  0  0
 34 59  1  0  0  0
 34107  1  0  0  0
 35 44  2  0  0  0
 35 45  1  0  0  0
 35 68  1  0  0  0
 36 56  1  0  0  0
 36108  1  0  0  0
 37 39  1  0  0  0
 37 47  1  0  0  0
 37 66  1  0  0  0
 37109  1  0  0  0
 38 43  2  0  0  0
 38 46  1  0  0  0
 38 47  1  0  0  0
 39 64  1  0  0  0
 39 67  2  0  0  0
 40 52  1  0  0  0
 40 53  2  0  0  0
 40 58  1  0  0  0
 41110  1  0  0  0
 41111  1  0  0  0
 41112  1  0  0  0
 41 48  1  0  0  0
 42 43  1  0  0  0
 42 66  1  0  0  0
 42113  1  0  0  0
 42114  1  0  0  0
 43 44  1  0  0  0
 44115  1  0  0  0
 45 46  2  0  0  0
 45116  1  0  0  0
 46117  1  0  0  0
 47118  1  0  0  0
 47119  1  0  0  0
 48 56  1  0  0  0
 48 65  1  0  0  0
 48120  1  0  0  0
 49 50  1  0  0  0
 49 53  1  0  0  0
 49 64  1  0  0  0
 49121  1  0  0  0
 50 51  1  0  0  0
 50122  1  0  0  0
 50123  1  0  0  0
 51 52  1  0  0  0
 51124  1  0  0  0
 51125  1  0  0  0
 52126  1  0  0  0
 52127  1  0  0  0
 53 54  1  0  0  0
 54 55  2  0  0  0
 54128  1  0  0  0
 55 57  1  0  0  0
 55129  1  0  0  0
 56 69  2  0  0  0
 57 58  2  0  0  0
 57130  1  0  0  0
 58131  1  0  0  0
 59 60  1  0  0  0
 59 61  1  0  0  0
 59 62  1  0  0  0
 60132  1  0  0  0
 60133  1  0  0  0
 60134  1  0  0  0
 61135  1  0  0  0
 61136  1  0  0  0
 61137  1  0  0  0
 62138  1  0  0  0
 62139  1  0  0  0
 62140  1  0  0  0
 63 65  1  0  0  0
 63141  1  0  0  0
 63142  1  0  0  0
 63143  1  0  0  0
 64144  1  0  0  0
 65145  1  0  0  0
 68 82  1  0  0  0
 71 72  2  0  0  0
 71 73  1  0  0  0
 71 76  1  0  0  0
 72 82  1  0  0  0
 72 83  1  0  0  0
 73 84  2  0  0  0
 73 85  1  0  0  0
 74 81  1  0  0  0
 74 83  2  0  0  0
 74 84  1  0  0  0
 75 76  2  0  0  0
 75146  1  0  0  0
 75147  1  0  0  0
 76148  1  0  0  0
 77 79  1  0  0  0
 77 80  1  0  0  0
 77149  1  0  0  0
 77150  1  0  0  0
 78 79  1  0  0  0
 78 80  1  0  0  0
 78151  1  0  0  0
 78152  1  0  0  0
 79 85  1  0  0  0
 79153  1  0  0  0
 80 86  1  0  0  0
 80154  1  0  0  0
 81155  1  0  0  0
 81156  1  0  0  0
 81157  1  0  0  0
 82158  1  0  0  0
 82159  1  0  0  0
 85160  1  0  0  0
 86161  1  0  0  0
M  ISO  4   1 100  68 101  82 101  86 100
M  END
> <chiral flag>
0

> <version>
0

> <s_m_source_file>
/data/baiqing/PycharmProjects/Reinvent-master-3.2/result/LINK_invent/BTK/process_docking_weight1_custom_sum_contain_oxygen_bond_distance_aromatic_linkinvent_7_9_3/rearranged_h_0176.sdf

> <i_m_source_file_index>
22

> <r_mmod_Potential_Energy-OPLS-2005>
-323.732147216797

> <r_mmod_Stretch_Energy-OPLS-2005>
54.4112319946289

> <r_mmod_Bend_Energy-OPLS-2005>
148.610992431641

> <r_mmod_Torsional_Energy-OPLS-2005>
249.522125244141

> <r_mmod_Improper_Torsional_Energy-OPLS-2005>
4.85588359832764

> <r_mmod_Van_der_Waal_Energy-OPLS-2005>
165.861862182617

> <r_mmod_Electrostatic_Energy-OPLS-2005>
-741.132873535156

> <r_mmod_Solvation_Energy-OPLS-2005>
-236.460647583008

> <b_mmod_Minimization_Converged-OPLS-2005>
0

> <r_mmod_RMS_Derivative-OPLS-2005>
0.728035092353821

$$$$
22
                    3D
 Structure written by MMmdl.
163172  0  0  1  0            999 V2000
  -30.7140  -14.4572   20.5219 C   0  0  0  0  0  0
  -30.4104  -12.2837   19.4201 C   0  0  0  0  0  0
  -29.4877  -12.4806   18.2009 C   0  0  0  0  0  0
  -28.0088  -12.3527   18.6175 C   0  0  0  0  0  0
  -27.6542  -13.2046   19.8669 C   0  0  2  0  0  0
  -28.7001  -13.0191   20.9893 C   0  0  0  0  0  0
  -25.2582  -13.8156   20.5697 C   0  0  0  0  0  0
  -24.1824  -13.0439   20.9174 C   0  0  0  0  0  0
  -24.6373  -11.6906   20.8729 C   0  0  0  0  0  0
  -23.9045  -10.4296   21.0399 C   0  0  0  0  0  0
  -24.3608   -9.4218   21.9174 C   0  0  0  0  0  0
  -23.6294   -8.2248   22.0745 C   0  0  0  0  0  0
  -22.4276   -8.0280   21.3537 C   0  0  0  0  0  0
  -21.9906   -9.0249   20.4643 C   0  0  0  0  0  0
  -22.7220  -10.2135   20.3051 C   0  0  0  0  0  0
  -21.6854   -6.0736   22.5277 C   0  0  0  0  0  0
  -21.4010   -6.5641   23.8209 C   0  0  0  0  0  0
  -21.3657   -5.6790   24.9170 C   0  0  0  0  0  0
  -21.6046   -4.3053   24.7216 C   0  0  0  0  0  0
  -21.8818   -3.8146   23.4337 C   0  0  0  0  0  0
  -21.9192   -4.6966   22.3397 C   0  0  0  0  0  0
  -22.7851  -13.5240   21.1839 C   0  0  0  0  0  0
  -22.1665   -4.2155   21.0972 F   0  0  0  0  0  0
  -21.5635   -3.4536   25.7730 F   0  0  0  0  0  0
  -30.0259  -13.2906   20.4181 N   0  0  0  0  0  0
  -26.2996  -12.9313   20.3356 N   0  0  0  0  0  0
  -25.9296  -11.6477   20.5761 N   0  0  0  0  0  0
  -22.0490  -12.8236   22.0402 N   0  0  0  0  0  0
  -25.4342  -15.1872   20.4135 N   0  0  0  0  0  0
  -31.8906  -14.5742   20.1656 O   0  0  0  0  0  0
  -21.6638   -6.8879   21.4239 O   0  0  0  0  0  0
  -22.3544  -14.5551   20.6688 O   0  0  0  0  0  0
  -24.6127  -31.8697   23.2125 C   0  0  0  0  0  0
  -25.9024  -32.4835   23.8411 C   0  0  1  0  0  0
  -27.2274  -27.4369   20.0886 C   0  0  0  0  0  0
  -25.5883  -33.8634   24.2339 N   0  0  0  0  0  0
  -23.3999  -30.4945   21.5539 C   0  0  2  0  0  0
  -24.8430  -28.9631   20.1157 C   0  0  0  0  0  0
  -22.7402  -29.4666   22.5010 C   0  0  0  0  0  0
  -18.0271  -28.1367   22.8499 C   0  0  0  0  0  0
  -24.1485  -36.7317   23.2641 C   0  0  0  0  0  0
  -25.9298  -30.8337   21.3677 C   0  0  0  0  0  0
  -26.0040  -29.4701   20.7111 C   0  0  0  0  0  0
  -27.1976  -28.7135   20.6954 C   0  0  0  0  0  0
  -26.0446  -26.9483   19.4826 C   0  0  0  0  0  0
  -24.8576  -27.7012   19.5009 C   0  0  0  0  0  0
  -23.6060  -29.8289   20.1681 C   0  0  0  0  0  0
  -25.4109  -36.3125   24.0344 C   0  0  1  0  0  0
  -20.5859  -28.3645   23.1325 C   0  0  2  0  0  0
  -20.6753  -26.9383   22.5418 C   0  0  0  0  0  0
  -19.5734  -26.6377   21.5210 C   0  0  0  0  0  0
  -18.1915  -26.7918   22.1625 C   0  0  0  0  0  0
  -19.1521  -28.8824   23.2911 C   0  0  0  0  0  0
  -18.9449  -30.1432   23.8918 C   0  0  0  0  0  0
  -17.6452  -30.6580   24.0557 C   0  0  0  0  0  0
  -25.9031  -34.9486   23.5140 C   0  0  0  0  0  0
  -16.5342  -29.9078   23.6325 C   0  0  0  0  0  0
  -16.7261  -28.6490   23.0358 C   0  0  0  0  0  0
  -26.4451  -31.6620   25.0741 C   0  0  0  0  0  0
  -25.3714  -31.3724   26.1492 C   0  0  0  0  0  0
  -27.0278  -30.3067   24.6115 C   0  0  0  0  0  0
  -27.6042  -32.4337   25.7485 C   0  0  0  0  0  0
  -27.5589  -37.1813   24.8467 C   0  0  0  0  0  0
  -21.4133  -29.3023   22.3746 N   0  0  0  0  0  0
  -26.4303  -37.3804   23.9410 N   0  0  0  0  0  0
  -24.6657  -31.0800   22.1028 N   0  0  0  0  0  0
  -23.4182  -28.8207   23.3044 O   0  0  0  0  0  0
  -28.4045  -26.7146   20.1146 O   0  0  0  0  0  0
  -26.5595  -34.8931   22.4703 O   0  0  0  0  0  0
  -23.5322  -32.1448   23.7522 O   0  0  0  0  0  0
  -30.1696  -22.9116   18.3888 C   0  0  0  0  0  0
  -30.2220  -21.5784   17.9677 C   0  0  0  0  0  0
  -29.6895  -23.1512   19.6843 C   0  0  0  0  0  0
  -29.4002  -20.8975   19.9898 C   0  0  0  0  0  0
  -28.9066  -17.6337   19.6874 C   0  0  0  0  0  0
  -29.5677  -17.7326   22.0440 C   0  0  0  0  0  0
  -29.7221  -16.3472   19.4899 C   0  0  0  0  0  0
  -30.3137  -16.3801   21.9175 C   0  0  0  0  0  0
  -29.6057  -18.5182   20.7255 C   0  0  0  0  0  0
  -30.6967  -21.1949   16.5832 C   0  0  0  0  0  0
  -29.6089  -24.5771   20.2212 C   0  0  0  0  0  0
  -28.3502  -25.3269   19.7523 C   0  0  0  0  0  0
  -29.8485  -20.5780   18.7837 N   0  0  0  0  0  0
  -29.2872  -22.1278   20.4777 N   0  0  0  0  0  0
  -29.9652  -15.5699   20.7280 N   0  0  0  0  0  0
  -29.0330  -19.8643   20.8306 N   0  0  0  0  0  0
  -31.4571  -12.3624   19.1201 H   0  0  0  0  0  0
  -30.2923  -11.2808   19.8338 H   0  0  0  0  0  0
  -29.7223  -11.7464   17.4293 H   0  0  0  0  0  0
  -29.6630  -13.4594   17.7519 H   0  0  0  0  0  0
  -27.8174  -11.2988   18.8243 H   0  0  0  0  0  0
  -27.3580  -12.6201   17.7843 H   0  0  0  0  0  0
  -27.6822  -14.2460   19.5516 H   0  0  0  0  0  0
  -28.6685  -12.0021   21.3825 H   0  0  0  0  0  0
  -28.4831  -13.6777   21.8317 H   0  0  0  0  0  0
  -25.2758   -9.5710   22.4738 H   0  0  0  0  0  0
  -24.0013   -7.4647   22.7464 H   0  0  0  0  0  0
  -21.0835   -8.8761   19.8958 H   0  0  0  0  0  0
  -22.3668  -10.9670   19.6162 H   0  0  0  0  0  0
  -21.1997   -7.6149   23.9713 H   0  0  0  0  0  0
  -21.1485   -6.0520   25.9075 H   0  0  0  0  0  0
  -22.0598   -2.7610   23.2824 H   0  0  0  0  0  0
  -22.4108  -11.9903   22.4804 H   0  0  0  0  0  0
  -21.1110  -13.1268   22.2597 H   0  0  0  0  0  0
  -24.6760  -15.8498   20.5326 H   0  0  0  0  0  0
  -26.3041  -15.6246   20.1377 H   0  0  0  0  0  0
  -26.7093  -32.5540   23.1172 H   0  0  0  0  0  0
  -25.0021  -33.9799   25.0475 H   0  0  0  0  0  0
  -22.6876  -31.3111   21.4173 H   0  0  0  0  0  0
  -23.3754  -35.9644   23.3320 H   0  0  0  0  0  0
  -24.3576  -36.8913   22.2052 H   0  0  0  0  0  0
  -23.7228  -37.6525   23.6636 H   0  0  0  0  0  0
  -26.0456  -31.6020   20.6022 H   0  0  0  0  0  0
  -26.8169  -30.8817   21.9876 H   0  0  0  0  0  0
  -28.0948  -29.0999   21.1593 H   0  0  0  0  0  0
  -26.0112  -25.9892   18.9874 H   0  0  0  0  0  0
  -23.9635  -27.3065   19.0382 H   0  0  0  0  0  0
  -23.7106  -30.6030   19.4075 H   0  0  0  0  0  0
  -22.7302  -29.2471   19.8754 H   0  0  0  0  0  0
  -25.1285  -36.2001   25.0838 H   0  0  0  0  0  0
  -20.9949  -28.3194   24.1445 H   0  0  0  0  0  0
  -20.5642  -26.2248   23.3598 H   0  0  0  0  0  0
  -21.6624  -26.7416   22.1216 H   0  0  0  0  0  0
  -19.6886  -25.6289   21.1234 H   0  0  0  0  0  0
  -19.6678  -27.3193   20.6744 H   0  0  0  0  0  0
  -17.4183  -26.6673   21.4029 H   0  0  0  0  0  0
  -18.0316  -26.0053   22.9013 H   0  0  0  0  0  0
  -19.7922  -30.7239   24.2301 H   0  0  0  0  0  0
  -17.5008  -31.6268   24.5143 H   0  0  0  0  0  0
  -15.5343  -30.2984   23.7640 H   0  0  0  0  0  0
  -15.8661  -28.0811   22.7071 H   0  0  0  0  0  0
  -24.5868  -30.7100   25.7819 H   0  0  0  0  0  0
  -24.8918  -32.2876   26.4974 H   0  0  0  0  0  0
  -25.8053  -30.8855   27.0233 H   0  0  0  0  0  0
  -26.2818  -29.6849   24.1151 H   0  0  0  0  0  0
  -27.4035  -29.7292   25.4571 H   0  0  0  0  0  0
  -27.8662  -30.4408   23.9275 H   0  0  0  0  0  0
  -27.2678  -33.3626   26.2104 H   0  0  0  0  0  0
  -28.3809  -32.6923   25.0275 H   0  0  0  0  0  0
  -28.0756  -31.8438   26.5355 H   0  0  0  0  0  0
  -28.2620  -38.0101   24.7516 H   0  0  0  0  0  0
  -28.1072  -36.2633   24.6291 H   0  0  0  0  0  0
  -27.2303  -37.1465   25.8870 H   0  0  0  0  0  0
  -20.9288  -29.8743   21.6973 H   0  0  0  0  0  0
  -26.0202  -38.2890   24.1401 H   0  0  0  0  0  0
  -30.4821  -23.7220   17.7422 H   0  0  0  0  0  0
  -27.8894  -17.3963   20.0015 H   0  0  0  0  0  0
  -28.8168  -18.1433   18.7283 H   0  0  0  0  0  0
  -30.0224  -18.3155   22.8466 H   0  0  0  0  0  0
  -28.5335  -17.5535   22.3449 H   0  0  0  0  0  0
  -30.6802  -16.6225   19.0431 H   0  0  0  0  0  0
  -29.2219  -15.7240   18.7479 H   0  0  0  0  0  0
  -30.1277  -15.7869   22.8144 H   0  0  0  0  0  0
  -31.3873  -16.5817   21.9056 H   0  0  0  0  0  0
  -30.6516  -18.6432   20.4364 H   0  0  0  0  0  0
  -30.7356  -22.0654   15.9282 H   0  0  0  0  0  0
  -30.0207  -20.4680   16.1325 H   0  0  0  0  0  0
  -31.6934  -20.7564   16.6276 H   0  0  0  0  0  0
  -30.5002  -25.1160   19.8991 H   0  0  0  0  0  0
  -29.6431  -24.5614   21.3108 H   0  0  0  0  0  0
  -27.4853  -24.8305   20.1957 H   0  0  0  0  0  0
  -28.2592  -25.2505   18.6672 H   0  0  0  0  0  0
  -28.7463  -20.1685   21.7518 H   0  0  0  0  0  0
  1 25  1  0  0  0
  1 30  2  0  0  0
  1 85  1  0  0  0
  2  3  1  0  0  0
  2 25  1  0  0  0
  2 87  1  0  0  0
  2 88  1  0  0  0
  3  4  1  0  0  0
  3 89  1  0  0  0
  3 90  1  0  0  0
  4  5  1  0  0  0
  4 91  1  0  0  0
  4 92  1  0  0  0
  5  6  1  0  0  0
  5 26  1  0  0  0
  5 93  1  0  0  0
  6 25  1  0  0  0
  6 94  1  0  0  0
  6 95  1  0  0  0
  7  8  2  0  0  0
  7 26  1  0  0  0
  7 29  1  0  0  0
  8  9  1  0  0  0
  8 22  1  0  0  0
  9 10  1  0  0  0
  9 27  2  0  0  0
 10 11  2  0  0  0
 10 15  1  0  0  0
 11 12  1  0  0  0
 11 96  1  0  0  0
 12 13  2  0  0  0
 12 97  1  0  0  0
 13 14  1  0  0  0
 13 31  1  0  0  0
 14 15  2  0  0  0
 14 98  1  0  0  0
 15 99  1  0  0  0
 16 17  2  0  0  0
 16 21  1  0  0  0
 16 31  1  0  0  0
 17 18  1  0  0  0
 17100  1  0  0  0
 18 19  2  0  0  0
 18101  1  0  0  0
 19 20  1  0  0  0
 19 24  1  0  0  0
 20 21  2  0  0  0
 20102  1  0  0  0
 21 23  1  0  0  0
 22 28  1  0  0  0
 22 32  2  0  0  0
 26 27  1  0  0  0
 28103  1  0  0  0
 28104  1  0  0  0
 29105  1  0  0  0
 29106  1  0  0  0
 33 34  1  0  0  0
 33 66  1  0  0  0
 33 70  2  0  0  0
 34 36  1  0  0  0
 34 59  1  0  0  0
 34107  1  0  0  0
 35 44  2  0  0  0
 35 45  1  0  0  0
 35 68  1  0  0  0
 36 56  1  0  0  0
 36108  1  0  0  0
 37 39  1  0  0  0
 37 47  1  0  0  0
 37 66  1  0  0  0
 37109  1  0  0  0
 38 43  2  0  0  0
 38 46  1  0  0  0
 38 47  1  0  0  0
 39 64  1  0  0  0
 39 67  2  0  0  0
 40 52  1  0  0  0
 40 53  2  0  0  0
 40 58  1  0  0  0
 41110  1  0  0  0
 41111  1  0  0  0
 41112  1  0  0  0
 41 48  1  0  0  0
 42 43  1  0  0  0
 42 66  1  0  0  0
 42113  1  0  0  0
 42114  1  0  0  0
 43 44  1  0  0  0
 44115  1  0  0  0
 45 46  2  0  0  0
 45116  1  0  0  0
 46117  1  0  0  0
 47118  1  0  0  0
 47119  1  0  0  0
 48 56  1  0  0  0
 48 65  1  0  0  0
 48120  1  0  0  0
 49 50  1  0  0  0
 49 53  1  0  0  0
 49 64  1  0  0  0
 49121  1  0  0  0
 50 51  1  0  0  0
 50122  1  0  0  0
 50123  1  0  0  0
 51 52  1  0  0  0
 51124  1  0  0  0
 51125  1  0  0  0
 52126  1  0  0  0
 52127  1  0  0  0
 53 54  1  0  0  0
 54 55  2  0  0  0
 54128  1  0  0  0
 55 57  1  0  0  0
 55129  1  0  0  0
 56 69  2  0  0  0
 57 58  2  0  0  0
 57130  1  0  0  0
 58131  1  0  0  0
 59 60  1  0  0  0
 59 61  1  0  0  0
 59 62  1  0  0  0
 60132  1  0  0  0
 60133  1  0  0  0
 60134  1  0  0  0
 61135  1  0  0  0
 61136  1  0  0  0
 61137  1  0  0  0
 62138  1  0  0  0
 62139  1  0  0  0
 62140  1  0  0  0
 63 65  1  0  0  0
 63141  1  0  0  0
 63142  1  0  0  0
 63143  1  0  0  0
 64144  1  0  0  0
 65145  1  0  0  0
 68 82  1  0  0  0
 71 72  2  0  0  0
 71 73  1  0  0  0
 71146  1  0  0  0
 72 80  1  0  0  0
 72 83  1  0  0  0
 73 81  1  0  0  0
 73 84  2  0  0  0
 74 83  2  0  0  0
 74 84  1  0  0  0
 74 86  1  0  0  0
 75 77  1  0  0  0
 75 79  1  0  0  0
 75147  1  0  0  0
 75148  1  0  0  0
 76 78  1  0  0  0
 76 79  1  0  0  0
 76149  1  0  0  0
 76150  1  0  0  0
 77 85  1  0  0  0
 77151  1  0  0  0
 77152  1  0  0  0
 78 85  1  0  0  0
 78153  1  0  0  0
 78154  1  0  0  0
 79 86  1  0  0  0
 79155  1  0  0  0
 80156  1  0  0  0
 80157  1  0  0  0
 80158  1  0  0  0
 81 82  1  0  0  0
 81159  1  0  0  0
 81160  1  0  0  0
 82161  1  0  0  0
 82162  1  0  0  0
 86163  1  0  0  0
M  ISO  4   1 100  68 101  82 101  85 100
M  END
> <chiral flag>
0

> <version>
0

> <s_m_source_file>
/data/baiqing/PycharmProjects/Reinvent-master-3.2/result/LINK_invent/BTK/process_docking_weight1_custom_sum_contain_oxygen_bond_distance_aromatic_linkinvent_7_9_3/rearranged_h_0176.sdf

> <i_m_source_file_index>
23

> <r_mmod_Potential_Energy-OPLS-2005>
-355.691345214844

> <r_mmod_Stretch_Energy-OPLS-2005>
35.9678230285645

> <r_mmod_Bend_Energy-OPLS-2005>
113.180229187012

> <r_mmod_Torsional_Energy-OPLS-2005>
309.465637207031

> <r_mmod_Improper_Torsional_Energy-OPLS-2005>
13.6609020233154

> <r_mmod_Van_der_Waal_Energy-OPLS-2005>
168.305999755859

> <r_mmod_Electrostatic_Energy-OPLS-2005>
-786.921936035156

> <r_mmod_Solvation_Energy-OPLS-2005>
-226.298843383789

> <b_mmod_Minimization_Converged-OPLS-2005>
0

> <r_mmod_RMS_Derivative-OPLS-2005>
0.981041073799133

$$$$
23
                    3D
 Structure written by MMmdl.
157166  0  0  1  0            999 V2000
  -30.5963  -14.7892   20.4552 C   0  0  0  0  0  0
  -30.4385  -12.4837   19.4811 C   0  0  0  0  0  0
  -29.5150  -12.5020   18.2442 C   0  0  0  0  0  0
  -28.0415  -12.3215   18.6598 C   0  0  0  0  0  0
  -27.6395  -13.2348   19.8484 C   0  0  2  0  0  0
  -28.6841  -13.1899   20.9844 C   0  0  0  0  0  0
  -25.2495  -13.8189   20.5674 C   0  0  0  0  0  0
  -24.1800  -13.0435   20.9220 C   0  0  0  0  0  0
  -24.6391  -11.6918   20.8757 C   0  0  0  0  0  0
  -23.9064  -10.4294   21.0410 C   0  0  0  0  0  0
  -24.3617   -9.4212   21.9186 C   0  0  0  0  0  0
  -23.6287   -8.2246   22.0752 C   0  0  0  0  0  0
  -22.4266   -8.0286   21.3543 C   0  0  0  0  0  0
  -21.9903   -9.0270   20.4649 C   0  0  0  0  0  0
  -22.7233  -10.2142   20.3060 C   0  0  0  0  0  0
  -21.6847   -6.0732   22.5271 C   0  0  0  0  0  0
  -21.4016   -6.5636   23.8211 C   0  0  0  0  0  0
  -21.3659   -5.6791   24.9177 C   0  0  0  0  0  0
  -21.6048   -4.3055   24.7220 C   0  0  0  0  0  0
  -21.8821   -3.8136   23.4344 C   0  0  0  0  0  0
  -21.9198   -4.6957   22.3398 C   0  0  0  0  0  0
  -22.7831  -13.5228   21.1878 C   0  0  0  0  0  0
  -22.1662   -4.2148   21.0973 F   0  0  0  0  0  0
  -21.5628   -3.4536   25.7728 F   0  0  0  0  0  0
  -29.9775  -13.5568   20.3964 N   0  0  0  0  0  0
  -26.2926  -12.9406   20.3260 N   0  0  0  0  0  0
  -25.9322  -11.6546   20.5773 N   0  0  0  0  0  0
  -22.0464  -12.8240   22.0441 N   0  0  0  0  0  0
  -25.4146  -15.1911   20.3995 N   0  0  0  0  0  0
  -31.7951  -14.8711   20.1708 O   0  0  0  0  0  0
  -21.6646   -6.8870   21.4227 O   0  0  0  0  0  0
  -22.3524  -14.5530   20.6703 O   0  0  0  0  0  0
  -24.6307  -31.8539   23.1943 C   0  0  0  0  0  0
  -25.9134  -32.4752   23.8307 C   0  0  1  0  0  0
  -27.2126  -27.2350   20.1570 C   0  0  0  0  0  0
  -25.5939  -33.8549   24.2249 N   0  0  0  0  0  0
  -23.4291  -30.4722   21.5376 C   0  0  2  0  0  0
  -24.8773  -28.9066   20.1192 C   0  0  0  0  0  0
  -22.7502  -29.4576   22.4900 C   0  0  0  0  0  0
  -18.0282  -28.1381   22.8470 C   0  0  0  0  0  0
  -24.1485  -36.7284   23.2631 C   0  0  0  0  0  0
  -25.9748  -30.7600   21.3757 C   0  0  0  0  0  0
  -26.0487  -29.3746   20.7292 C   0  0  0  0  0  0
  -27.2231  -28.5543   20.7291 C   0  0  0  0  0  0
  -26.0226  -26.8312   19.5243 C   0  0  0  0  0  0
  -24.8706  -27.6440   19.5022 C   0  0  0  0  0  0
  -23.6504  -29.7988   20.1571 C   0  0  0  0  0  0
  -25.4112  -36.3069   24.0321 C   0  0  1  0  0  0
  -20.5893  -28.3699   23.1263 C   0  0  2  0  0  0
  -20.6776  -26.9414   22.5410 C   0  0  0  0  0  0
  -19.5755  -26.6374   21.5211 C   0  0  0  0  0  0
  -18.1929  -26.7928   22.1616 C   0  0  0  0  0  0
  -19.1538  -28.8854   23.2863 C   0  0  0  0  0  0
  -18.9467  -30.1459   23.8883 C   0  0  0  0  0  0
  -17.6465  -30.6590   24.0553 C   0  0  0  0  0  0
  -25.9056  -34.9438   23.5087 C   0  0  0  0  0  0
  -16.5351  -29.9087   23.6328 C   0  0  0  0  0  0
  -16.7275  -28.6502   23.0352 C   0  0  0  0  0  0
  -26.4499  -31.6572   25.0706 C   0  0  0  0  0  0
  -25.3711  -31.3743   26.1422 C   0  0  0  0  0  0
  -27.0355  -30.2975   24.6221 C   0  0  0  0  0  0
  -27.6053  -32.4307   25.7493 C   0  0  0  0  0  0
  -27.5578  -37.1805   24.8467 C   0  0  0  0  0  0
  -21.4209  -29.3037   22.3663 N   0  0  0  0  0  0
  -26.4292  -37.3773   23.9404 N   0  0  0  0  0  0
  -24.6973  -31.0475   22.0922 N   0  0  0  0  0  0
  -23.4201  -28.8123   23.3003 O   0  0  0  0  0  0
  -28.3120  -26.3502   20.1146 O   0  0  0  0  0  0
  -26.5628  -34.8919   22.4657 O   0  0  0  0  0  0
  -23.5457  -32.1373   23.7247 O   0  0  0  0  0  0
  -27.3016  -21.0208   19.7584 C   0  0  0  0  0  0
  -26.4975  -22.1421   19.5005 C   0  0  0  0  0  0
  -28.5606  -21.2183   20.3312 C   0  0  0  0  0  0
  -28.0909  -23.5887   20.3326 C   0  0  0  0  0  0
  -29.3326  -18.3161   18.8113 C   0  0  0  0  0  0
  -30.7407  -17.8011   19.1508 C   0  0  0  0  0  0
  -29.1205  -18.6062   20.3054 C   0  0  1  0  0  0
  -30.2335  -17.4317   20.5567 C   0  0  1  0  0  0
  -25.0984  -21.9909   18.9415 C   0  0  0  0  0  0
  -28.3305  -25.0689   20.9171 C   0  0  0  0  0  0
  -26.8977  -23.4003   19.7717 N   0  0  0  0  0  0
  -28.9284  -22.5259   20.6205 N   0  0  0  0  0  0
  -29.4083  -20.0759   20.6278 N   0  0  0  0  0  0
  -29.8233  -15.9413   20.6189 N   0  0  0  0  0  0
  -31.4754  -12.6212   19.1708 H   0  0  0  0  0  0
  -30.4040  -11.5146   19.9815 H   0  0  0  0  0  0
  -29.8055  -11.7120   17.5508 H   0  0  0  0  0  0
  -29.6350  -13.4452   17.7081 H   0  0  0  0  0  0
  -27.9092  -11.2765   18.9422 H   0  0  0  0  0  0
  -27.3871  -12.4923   17.8041 H   0  0  0  0  0  0
  -27.6284  -14.2530   19.4581 H   0  0  0  0  0  0
  -28.7320  -12.1969   21.4361 H   0  0  0  0  0  0
  -28.4160  -13.8823   21.7828 H   0  0  0  0  0  0
  -25.2755   -9.5706   22.4777 H   0  0  0  0  0  0
  -24.0015   -7.4633   22.7455 H   0  0  0  0  0  0
  -21.0842   -8.8778   19.8949 H   0  0  0  0  0  0
  -22.3678  -10.9695   19.6186 H   0  0  0  0  0  0
  -21.2003   -7.6149   23.9715 H   0  0  0  0  0  0
  -21.1481   -6.0525   25.9090 H   0  0  0  0  0  0
  -22.0602   -2.7597   23.2845 H   0  0  0  0  0  0
  -22.4075  -11.9916   22.4867 H   0  0  0  0  0  0
  -21.1081  -13.1277   22.2629 H   0  0  0  0  0  0
  -24.6317  -15.8337   20.4664 H   0  0  0  0  0  0
  -26.2440  -15.6170   20.0059 H   0  0  0  0  0  0
  -26.7180  -32.5422   23.1032 H   0  0  0  0  0  0
  -25.0100  -33.9660   25.0401 H   0  0  0  0  0  0
  -22.7265  -31.2945   21.3868 H   0  0  0  0  0  0
  -23.3763  -35.9603   23.3294 H   0  0  0  0  0  0
  -24.3553  -36.8911   22.2044 H   0  0  0  0  0  0
  -23.7242  -37.6481   23.6661 H   0  0  0  0  0  0
  -26.1119  -31.5146   20.6002 H   0  0  0  0  0  0
  -26.8519  -30.8170   22.0086 H   0  0  0  0  0  0
  -28.1287  -28.9155   21.1964 H   0  0  0  0  0  0
  -25.9803  -25.8607   19.0493 H   0  0  0  0  0  0
  -23.9760  -27.2815   19.0152 H   0  0  0  0  0  0
  -23.7830  -30.5730   19.4007 H   0  0  0  0  0  0
  -22.7708  -29.2324   19.8475 H   0  0  0  0  0  0
  -25.1292  -36.1896   25.0816 H   0  0  0  0  0  0
  -20.9978  -28.3283   24.1384 H   0  0  0  0  0  0
  -20.5661  -26.2307   23.3616 H   0  0  0  0  0  0
  -21.6644  -26.7420   22.1207 H   0  0  0  0  0  0
  -19.6922  -25.6283   21.1246 H   0  0  0  0  0  0
  -19.6699  -27.3175   20.6735 H   0  0  0  0  0  0
  -17.4195  -26.6655   21.4023 H   0  0  0  0  0  0
  -18.0338  -26.0069   22.9011 H   0  0  0  0  0  0
  -19.7945  -30.7275   24.2246 H   0  0  0  0  0  0
  -17.5021  -31.6269   24.5171 H   0  0  0  0  0  0
  -15.5361  -30.2987   23.7663 H   0  0  0  0  0  0
  -15.8671  -28.0826   22.7080 H   0  0  0  0  0  0
  -24.5895  -30.7070   25.7763 H   0  0  0  0  0  0
  -24.8891  -32.2923   26.4793 H   0  0  0  0  0  0
  -25.8004  -30.8965   27.0234 H   0  0  0  0  0  0
  -26.2948  -29.6724   24.1216 H   0  0  0  0  0  0
  -27.3992  -29.7233   25.4759 H   0  0  0  0  0  0
  -27.8843  -30.4238   23.9493 H   0  0  0  0  0  0
  -27.2653  -33.3614   26.2036 H   0  0  0  0  0  0
  -28.3885  -32.6838   25.0340 H   0  0  0  0  0  0
  -28.0684  -31.8446   26.5436 H   0  0  0  0  0  0
  -28.2600  -38.0100   24.7503 H   0  0  0  0  0  0
  -28.1066  -36.2629   24.6298 H   0  0  0  0  0  0
  -27.2285  -37.1454   25.8869 H   0  0  0  0  0  0
  -20.9403  -29.8761   21.6867 H   0  0  0  0  0  0
  -26.0172  -38.2842   24.1415 H   0  0  0  0  0  0
  -26.9370  -20.0297   19.5283 H   0  0  0  0  0  0
  -28.6777  -17.5260   18.4396 H   0  0  0  0  0  0
  -29.3168  -19.1809   18.1452 H   0  0  0  0  0  0
  -31.4829  -18.6009   19.1735 H   0  0  0  0  0  0
  -31.0857  -16.9783   18.5225 H   0  0  0  0  0  0
  -28.1272  -18.3162   20.6535 H   0  0  0  0  0  0
  -30.9490  -17.6958   21.3386 H   0  0  0  0  0  0
  -25.0626  -22.3034   17.8991 H   0  0  0  0  0  0
  -24.3928  -22.5970   19.5103 H   0  0  0  0  0  0
  -24.7637  -20.9549   18.9994 H   0  0  0  0  0  0
  -29.3037  -25.0429   21.4046 H   0  0  0  0  0  0
  -27.6174  -25.1939   21.7346 H   0  0  0  0  0  0
  -30.3012  -20.2863   21.0590 H   0  0  0  0  0  0
  -28.8434  -15.7754   20.7919 H   0  0  0  0  0  0
  1 25  1  0  0  0
  1 30  2  0  0  0
  1 84  1  0  0  0
  2  3  1  0  0  0
  2 25  1  0  0  0
  2 85  1  0  0  0
  2 86  1  0  0  0
  3  4  1  0  0  0
  3 87  1  0  0  0
  3 88  1  0  0  0
  4  5  1  0  0  0
  4 89  1  0  0  0
  4 90  1  0  0  0
  5  6  1  0  0  0
  5 26  1  0  0  0
  5 91  1  0  0  0
  6 25  1  0  0  0
  6 92  1  0  0  0
  6 93  1  0  0  0
  7  8  2  0  0  0
  7 26  1  0  0  0
  7 29  1  0  0  0
  8  9  1  0  0  0
  8 22  1  0  0  0
  9 10  1  0  0  0
  9 27  2  0  0  0
 10 11  2  0  0  0
 10 15  1  0  0  0
 11 12  1  0  0  0
 11 94  1  0  0  0
 12 13  2  0  0  0
 12 95  1  0  0  0
 13 14  1  0  0  0
 13 31  1  0  0  0
 14 15  2  0  0  0
 14 96  1  0  0  0
 15 97  1  0  0  0
 16 17  2  0  0  0
 16 21  1  0  0  0
 16 31  1  0  0  0
 17 18  1  0  0  0
 17 98  1  0  0  0
 18 19  2  0  0  0
 18 99  1  0  0  0
 19 20  1  0  0  0
 19 24  1  0  0  0
 20 21  2  0  0  0
 20100  1  0  0  0
 21 23  1  0  0  0
 22 28  1  0  0  0
 22 32  2  0  0  0
 26 27  1  0  0  0
 28101  1  0  0  0
 28102  1  0  0  0
 29103  1  0  0  0
 29104  1  0  0  0
 33 34  1  0  0  0
 33 66  1  0  0  0
 33 70  2  0  0  0
 34 36  1  0  0  0
 34 59  1  0  0  0
 34105  1  0  0  0
 35 44  2  0  0  0
 35 45  1  0  0  0
 35 68  1  0  0  0
 36 56  1  0  0  0
 36106  1  0  0  0
 37 39  1  0  0  0
 37 47  1  0  0  0
 37 66  1  0  0  0
 37107  1  0  0  0
 38 43  2  0  0  0
 38 46  1  0  0  0
 38 47  1  0  0  0
 39 64  1  0  0  0
 39 67  2  0  0  0
 40 52  1  0  0  0
 40 53  2  0  0  0
 40 58  1  0  0  0
 41108  1  0  0  0
 41109  1  0  0  0
 41110  1  0  0  0
 41 48  1  0  0  0
 42 43  1  0  0  0
 42 66  1  0  0  0
 42111  1  0  0  0
 42112  1  0  0  0
 43 44  1  0  0  0
 44113  1  0  0  0
 45 46  2  0  0  0
 45114  1  0  0  0
 46115  1  0  0  0
 47116  1  0  0  0
 47117  1  0  0  0
 48 56  1  0  0  0
 48 65  1  0  0  0
 48118  1  0  0  0
 49 50  1  0  0  0
 49 53  1  0  0  0
 49 64  1  0  0  0
 49119  1  0  0  0
 50 51  1  0  0  0
 50120  1  0  0  0
 50121  1  0  0  0
 51 52  1  0  0  0
 51122  1  0  0  0
 51123  1  0  0  0
 52124  1  0  0  0
 52125  1  0  0  0
 53 54  1  0  0  0
 54 55  2  0  0  0
 54126  1  0  0  0
 55 57  1  0  0  0
 55127  1  0  0  0
 56 69  2  0  0  0
 57 58  2  0  0  0
 57128  1  0  0  0
 58129  1  0  0  0
 59 60  1  0  0  0
 59 61  1  0  0  0
 59 62  1  0  0  0
 60130  1  0  0  0
 60131  1  0  0  0
 60132  1  0  0  0
 61133  1  0  0  0
 61134  1  0  0  0
 61135  1  0  0  0
 62136  1  0  0  0
 62137  1  0  0  0
 62138  1  0  0  0
 63 65  1  0  0  0
 63139  1  0  0  0
 63140  1  0  0  0
 63141  1  0  0  0
 64142  1  0  0  0
 65143  1  0  0  0
 68 80  1  0  0  0
 71 72  2  0  0  0
 71 73  1  0  0  0
 71144  1  0  0  0
 72 79  1  0  0  0
 72 81  1  0  0  0
 73 82  2  0  0  0
 73 83  1  0  0  0
 74 80  1  0  0  0
 74 81  2  0  0  0
 74 82  1  0  0  0
 75 76  1  0  0  0
 75 77  1  0  0  0
 75145  1  0  0  0
 75146  1  0  0  0
 76 78  1  0  0  0
 76147  1  0  0  0
 76148  1  0  0  0
 77 78  1  0  0  0
 77 83  1  0  0  0
 77149  1  0  0  0
 78 84  1  0  0  0
 78150  1  0  0  0
 79151  1  0  0  0
 79152  1  0  0  0
 79153  1  0  0  0
 80154  1  0  0  0
 80155  1  0  0  0
 83156  1  0  0  0
 84157  1  0  0  0
M  ISO  4   1 100  68 101  80 101  84 100
M  END
> <chiral flag>
0

> <version>
0

> <s_m_source_file>
/data/baiqing/PycharmProjects/Reinvent-master-3.2/result/LINK_invent/BTK/process_docking_weight1_custom_sum_contain_oxygen_bond_distance_aromatic_linkinvent_7_9_3/rearranged_h_0176.sdf

> <i_m_source_file_index>
24

> <r_mmod_Potential_Energy-OPLS-2005>
-280.962677001953

> <r_mmod_Stretch_Energy-OPLS-2005>
137.194351196289

> <r_mmod_Bend_Energy-OPLS-2005>
207.722763061523

> <r_mmod_Torsional_Energy-OPLS-2005>
263.863677978516

> <r_mmod_Improper_Torsional_Energy-OPLS-2005>
6.93243646621704

> <r_mmod_Van_der_Waal_Energy-OPLS-2005>
136.108612060547

> <r_mmod_Electrostatic_Energy-OPLS-2005>
-894.687072753906

> <r_mmod_Solvation_Energy-OPLS-2005>
-238.641265869141

> <b_mmod_Minimization_Converged-OPLS-2005>
0

> <r_mmod_RMS_Derivative-OPLS-2005>
2.82226014137268

$$$$
24
                    3D
 Structure written by MMmdl.
160169  0  0  1  0            999 V2000
  -30.7226  -14.4992   20.5128 C   0  0  0  0  0  0
  -30.4075  -12.3091   19.4420 C   0  0  0  0  0  0
  -29.4932  -12.4909   18.2143 C   0  0  0  0  0  0
  -28.0143  -12.3593   18.6252 C   0  0  0  0  0  0
  -27.6541  -13.2203   19.8667 C   0  0  2  0  0  0
  -28.6980  -13.0611   20.9959 C   0  0  0  0  0  0
  -25.2551  -13.8196   20.5693 C   0  0  0  0  0  0
  -24.1822  -13.0452   20.9194 C   0  0  0  0  0  0
  -24.6397  -11.6926   20.8745 C   0  0  0  0  0  0
  -23.9074  -10.4300   21.0410 C   0  0  0  0  0  0
  -24.3621   -9.4209   21.9186 C   0  0  0  0  0  0
  -23.6293   -8.2245   22.0755 C   0  0  0  0  0  0
  -22.4276   -8.0285   21.3544 C   0  0  0  0  0  0
  -21.9915   -9.0262   20.4647 C   0  0  0  0  0  0
  -22.7248  -10.2141   20.3059 C   0  0  0  0  0  0
  -21.6851   -6.0738   22.5279 C   0  0  0  0  0  0
  -21.4012   -6.5641   23.8213 C   0  0  0  0  0  0
  -21.3660   -5.6790   24.9173 C   0  0  0  0  0  0
  -21.6044   -4.3055   24.7222 C   0  0  0  0  0  0
  -21.8817   -3.8149   23.4341 C   0  0  0  0  0  0
  -21.9192   -4.6965   22.3399 C   0  0  0  0  0  0
  -22.7839  -13.5232   21.1850 C   0  0  0  0  0  0
  -22.1660   -4.2156   21.0976 F   0  0  0  0  0  0
  -21.5630   -3.4538   25.7732 F   0  0  0  0  0  0
  -30.0233  -13.3353   20.4260 N   0  0  0  0  0  0
  -26.2992  -12.9391   20.3352 N   0  0  0  0  0  0
  -25.9329  -11.6541   20.5784 N   0  0  0  0  0  0
  -22.0479  -12.8225   22.0407 N   0  0  0  0  0  0
  -25.4255  -15.1914   20.4094 N   0  0  0  0  0  0
  -31.8875  -14.5898   20.1186 O   0  0  0  0  0  0
  -21.6639   -6.8884   21.4242 O   0  0  0  0  0  0
  -22.3525  -14.5537   20.6696 O   0  0  0  0  0  0
  -24.6161  -31.8664   23.2089 C   0  0  0  0  0  0
  -25.9047  -32.4817   23.8390 C   0  0  1  0  0  0
  -27.2294  -27.4181   20.1069 C   0  0  0  0  0  0
  -25.5893  -33.8615   24.2318 N   0  0  0  0  0  0
  -23.4051  -30.4898   21.5493 C   0  0  2  0  0  0
  -24.8525  -28.9537   20.1138 C   0  0  0  0  0  0
  -22.7421  -29.4648   22.4980 C   0  0  0  0  0  0
  -18.0272  -28.1374   22.8488 C   0  0  0  0  0  0
  -24.1486  -36.7314   23.2639 C   0  0  0  0  0  0
  -25.9355  -30.8294   21.3631 C   0  0  0  0  0  0
  -26.0141  -29.4635   20.7086 C   0  0  0  0  0  0
  -27.2092  -28.7050   20.6968 C   0  0  0  0  0  0
  -26.0538  -26.9287   19.5000 C   0  0  0  0  0  0
  -24.8682  -27.6867   19.5043 C   0  0  0  0  0  0
  -23.6149  -29.8217   20.1640 C   0  0  0  0  0  0
  -25.4107  -36.3111   24.0339 C   0  0  1  0  0  0
  -20.5865  -28.3665   23.1313 C   0  0  2  0  0  0
  -20.6765  -26.9396   22.5419 C   0  0  0  0  0  0
  -19.5745  -26.6380   21.5212 C   0  0  0  0  0  0
  -18.1920  -26.7918   22.1620 C   0  0  0  0  0  0
  -19.1522  -28.8837   23.2897 C   0  0  0  0  0  0
  -18.9454  -30.1439   23.8914 C   0  0  0  0  0  0
  -17.6458  -30.6585   24.0562 C   0  0  0  0  0  0
  -25.9038  -34.9473   23.5128 C   0  0  0  0  0  0
  -16.5346  -29.9090   23.6325 C   0  0  0  0  0  0
  -16.7264  -28.6500   23.0352 C   0  0  0  0  0  0
  -26.4471  -31.6598   25.0723 C   0  0  0  0  0  0
  -25.3740  -31.3709   26.1477 C   0  0  0  0  0  0
  -27.0289  -30.3038   24.6094 C   0  0  0  0  0  0
  -27.6057  -32.4309   25.7481 C   0  0  0  0  0  0
  -27.5582  -37.1803   24.8459 C   0  0  0  0  0  0
  -21.4148  -29.3030   22.3720 N   0  0  0  0  0  0
  -26.4291  -37.3796   23.9414 N   0  0  0  0  0  0
  -24.6707  -31.0759   22.0993 N   0  0  0  0  0  0
  -23.4185  -28.8190   23.3028 O   0  0  0  0  0  0
  -28.3722  -26.6442   20.1208 O   0  0  0  0  0  0
  -26.5598  -34.8923   22.4690 O   0  0  0  0  0  0
  -23.5351  -32.1413   23.7479 O   0  0  0  0  0  0
  -29.8805  -19.2915   19.9400 C   0  0  0  0  0  0
  -29.3999  -20.5708   20.2830 C   0  0  0  0  0  0
  -28.9056  -20.8328   21.5549 C   0  0  0  0  0  0
  -29.8867  -18.2522   20.9101 C   0  0  0  0  0  0
  -28.8569  -19.8147   22.5359 C   0  0  0  0  0  0
  -29.3660  -18.5169   22.2143 C   0  0  0  0  0  0
  -29.3745  -21.8075   19.4711 C   0  0  0  0  0  0
  -28.8551  -22.9000   20.3275 C   0  0  0  0  0  0
  -28.7416  -24.1898   19.9186 C   0  0  0  0  0  0
  -28.5127  -22.2979   21.6899 C   0  0  0  0  0  0
  -28.3075  -20.1326   23.9199 C   0  0  0  0  0  0
  -29.4033  -17.4213   23.2763 C   0  0  0  0  0  0
  -30.6307  -16.9512   20.5417 C   0  0  0  0  0  0
  -28.2356  -25.3568   20.7635 C   0  0  0  0  0  0
  -30.0381  -15.6238   20.8198 N   0  0  0  0  0  0
  -29.7351  -21.9087   18.2943 O   0  0  0  0  0  0
  -31.4559  -12.3743   19.1462 H   0  0  0  0  0  0
  -30.2837  -11.3136   19.8710 H   0  0  0  0  0  0
  -29.7362  -11.7513   17.4504 H   0  0  0  0  0  0
  -29.6662  -13.4682   17.7611 H   0  0  0  0  0  0
  -27.8259  -11.3065   18.8369 H   0  0  0  0  0  0
  -27.3665  -12.6200   17.7874 H   0  0  0  0  0  0
  -27.6808  -14.2598   19.5394 H   0  0  0  0  0  0
  -28.6734  -12.0486   21.4016 H   0  0  0  0  0  0
  -28.4739  -13.7267   21.8312 H   0  0  0  0  0  0
  -25.2767   -9.5682   22.4762 H   0  0  0  0  0  0
  -24.0001   -7.4636   22.7475 H   0  0  0  0  0  0
  -21.0846   -8.8784   19.8954 H   0  0  0  0  0  0
  -22.3708  -10.9680   19.6167 H   0  0  0  0  0  0
  -21.2002   -7.6147   23.9719 H   0  0  0  0  0  0
  -21.1484   -6.0519   25.9077 H   0  0  0  0  0  0
  -22.0596   -2.7613   23.2837 H   0  0  0  0  0  0
  -22.4095  -11.9887   22.4795 H   0  0  0  0  0  0
  -21.1096  -13.1253   22.2606 H   0  0  0  0  0  0
  -24.6595  -15.8470   20.5184 H   0  0  0  0  0  0
  -26.2771  -15.6313   20.0836 H   0  0  0  0  0  0
  -26.7117  -32.5531   23.1155 H   0  0  0  0  0  0
  -25.0035  -33.9775   25.0458 H   0  0  0  0  0  0
  -22.6941  -31.3066   21.4092 H   0  0  0  0  0  0
  -23.3749  -35.9645   23.3305 H   0  0  0  0  0  0
  -24.3577  -36.8933   22.2051 H   0  0  0  0  0  0
  -23.7237  -37.6520   23.6652 H   0  0  0  0  0  0
  -26.0473  -31.5950   20.5939 H   0  0  0  0  0  0
  -26.8234  -30.8836   21.9812 H   0  0  0  0  0  0
  -28.1060  -29.0909   21.1610 H   0  0  0  0  0  0
  -26.0532  -25.9550   19.0299 H   0  0  0  0  0  0
  -23.9749  -27.2896   19.0420 H   0  0  0  0  0  0
  -23.7224  -30.5966   19.4045 H   0  0  0  0  0  0
  -22.7389  -29.2414   19.8683 H   0  0  0  0  0  0
  -25.1284  -36.1973   25.0833 H   0  0  0  0  0  0
  -20.9949  -28.3231   24.1435 H   0  0  0  0  0  0
  -20.5668  -26.2271   23.3609 H   0  0  0  0  0  0
  -21.6635  -26.7435   22.1207 H   0  0  0  0  0  0
  -19.6911  -25.6297   21.1228 H   0  0  0  0  0  0
  -19.6695  -27.3204   20.6752 H   0  0  0  0  0  0
  -17.4192  -26.6668   21.4021 H   0  0  0  0  0  0
  -18.0321  -26.0059   22.9013 H   0  0  0  0  0  0
  -19.7933  -30.7242   24.2297 H   0  0  0  0  0  0
  -17.5016  -31.6266   24.5158 H   0  0  0  0  0  0
  -15.5349  -30.2999   23.7649 H   0  0  0  0  0  0
  -15.8654  -28.0830   22.7067 H   0  0  0  0  0  0
  -24.5897  -30.7079   25.7812 H   0  0  0  0  0  0
  -24.8953  -32.2868   26.4950 H   0  0  0  0  0  0
  -25.8091  -30.8850   27.0220 H   0  0  0  0  0  0
  -26.2818  -29.6813   24.1153 H   0  0  0  0  0  0
  -27.4066  -29.7267   25.4547 H   0  0  0  0  0  0
  -27.8659  -30.4361   23.9232 H   0  0  0  0  0  0
  -27.2689  -33.3608   26.2070 H   0  0  0  0  0  0
  -28.3857  -32.6864   25.0297 H   0  0  0  0  0  0
  -28.0726  -31.8415   26.5383 H   0  0  0  0  0  0
  -28.2591  -38.0108   24.7516 H   0  0  0  0  0  0
  -28.1084  -36.2639   24.6269 H   0  0  0  0  0  0
  -27.2294  -37.1431   25.8859 H   0  0  0  0  0  0
  -20.9307  -29.8764   21.6955 H   0  0  0  0  0  0
  -26.0186  -38.2875   24.1426 H   0  0  0  0  0  0
  -30.2950  -19.1327   18.9533 H   0  0  0  0  0  0
  -29.0345  -24.4443   18.9100 H   0  0  0  0  0  0
  -29.0829  -22.7838   22.4824 H   0  0  0  0  0  0
  -27.4474  -22.3984   21.8978 H   0  0  0  0  0  0
  -27.7810  -21.0859   23.9479 H   0  0  0  0  0  0
  -29.1168  -20.1812   24.6491 H   0  0  0  0  0  0
  -27.5984  -19.3696   24.2407 H   0  0  0  0  0  0
  -30.3427  -16.8701   23.2397 H   0  0  0  0  0  0
  -28.5870  -16.7163   23.1176 H   0  0  0  0  0  0
  -29.3228  -17.7992   24.2939 H   0  0  0  0  0  0
  -31.6003  -17.0090   21.0406 H   0  0  0  0  0  0
  -30.8555  -16.9821   19.4736 H   0  0  0  0  0  0
  -28.8181  -25.3845   21.6852 H   0  0  0  0  0  0
  -27.2109  -25.1401   21.0689 H   0  0  0  0  0  0
  -29.0660  -15.5606   21.0778 H   0  0  0  0  0  0
  1 25  1  0  0  0
  1 30  2  0  0  0
  1 85  1  0  0  0
  2  3  1  0  0  0
  2 25  1  0  0  0
  2 87  1  0  0  0
  2 88  1  0  0  0
  3  4  1  0  0  0
  3 89  1  0  0  0
  3 90  1  0  0  0
  4  5  1  0  0  0
  4 91  1  0  0  0
  4 92  1  0  0  0
  5  6  1  0  0  0
  5 26  1  0  0  0
  5 93  1  0  0  0
  6 25  1  0  0  0
  6 94  1  0  0  0
  6 95  1  0  0  0
  7  8  2  0  0  0
  7 26  1  0  0  0
  7 29  1  0  0  0
  8  9  1  0  0  0
  8 22  1  0  0  0
  9 10  1  0  0  0
  9 27  2  0  0  0
 10 11  2  0  0  0
 10 15  1  0  0  0
 11 12  1  0  0  0
 11 96  1  0  0  0
 12 13  2  0  0  0
 12 97  1  0  0  0
 13 14  1  0  0  0
 13 31  1  0  0  0
 14 15  2  0  0  0
 14 98  1  0  0  0
 15 99  1  0  0  0
 16 17  2  0  0  0
 16 21  1  0  0  0
 16 31  1  0  0  0
 17 18  1  0  0  0
 17100  1  0  0  0
 18 19  2  0  0  0
 18101  1  0  0  0
 19 20  1  0  0  0
 19 24  1  0  0  0
 20 21  2  0  0  0
 20102  1  0  0  0
 21 23  1  0  0  0
 22 28  1  0  0  0
 22 32  2  0  0  0
 26 27  1  0  0  0
 28103  1  0  0  0
 28104  1  0  0  0
 29105  1  0  0  0
 29106  1  0  0  0
 33 34  1  0  0  0
 33 66  1  0  0  0
 33 70  2  0  0  0
 34 36  1  0  0  0
 34 59  1  0  0  0
 34107  1  0  0  0
 35 44  2  0  0  0
 35 45  1  0  0  0
 35 68  1  0  0  0
 36 56  1  0  0  0
 36108  1  0  0  0
 37 39  1  0  0  0
 37 47  1  0  0  0
 37 66  1  0  0  0
 37109  1  0  0  0
 38 43  2  0  0  0
 38 46  1  0  0  0
 38 47  1  0  0  0
 39 64  1  0  0  0
 39 67  2  0  0  0
 40 52  1  0  0  0
 40 53  2  0  0  0
 40 58  1  0  0  0
 41110  1  0  0  0
 41111  1  0  0  0
 41112  1  0  0  0
 41 48  1  0  0  0
 42 43  1  0  0  0
 42 66  1  0  0  0
 42113  1  0  0  0
 42114  1  0  0  0
 43 44  1  0  0  0
 44115  1  0  0  0
 45 46  2  0  0  0
 45116  1  0  0  0
 46117  1  0  0  0
 47118  1  0  0  0
 47119  1  0  0  0
 48 56  1  0  0  0
 48 65  1  0  0  0
 48120  1  0  0  0
 49 50  1  0  0  0
 49 53  1  0  0  0
 49 64  1  0  0  0
 49121  1  0  0  0
 50 51  1  0  0  0
 50122  1  0  0  0
 50123  1  0  0  0
 51 52  1  0  0  0
 51124  1  0  0  0
 51125  1  0  0  0
 52126  1  0  0  0
 52127  1  0  0  0
 53 54  1  0  0  0
 54 55  2  0  0  0
 54128  1  0  0  0
 55 57  1  0  0  0
 55129  1  0  0  0
 56 69  2  0  0  0
 57 58  2  0  0  0
 57130  1  0  0  0
 58131  1  0  0  0
 59 60  1  0  0  0
 59 61  1  0  0  0
 59 62  1  0  0  0
 60132  1  0  0  0
 60133  1  0  0  0
 60134  1  0  0  0
 61135  1  0  0  0
 61136  1  0  0  0
 61137  1  0  0  0
 62138  1  0  0  0
 62139  1  0  0  0
 62140  1  0  0  0
 63 65  1  0  0  0
 63141  1  0  0  0
 63142  1  0  0  0
 63143  1  0  0  0
 64144  1  0  0  0
 65145  1  0  0  0
 68 84  1  0  0  0
 71 72  2  0  0  0
 71 74  1  0  0  0
 71146  1  0  0  0
 72 73  1  0  0  0
 72 77  1  0  0  0
 73 75  2  0  0  0
 73 80  1  0  0  0
 74 76  2  0  0  0
 74 83  1  0  0  0
 75 76  1  0  0  0
 75 81  1  0  0  0
 76 82  1  0  0  0
 77 78  1  0  0  0
 77 86  2  0  0  0
 78 79  2  0  0  0
 78 80  1  0  0  0
 79 84  1  0  0  0
 79147  1  0  0  0
 80148  1  0  0  0
 80149  1  0  0  0
 81150  1  0  0  0
 81151  1  0  0  0
 81152  1  0  0  0
 82153  1  0  0  0
 82154  1  0  0  0
 82155  1  0  0  0
 83 85  1  0  0  0
 83156  1  0  0  0
 83157  1  0  0  0
 84158  1  0  0  0
 84159  1  0  0  0
 85160  1  0  0  0
M  ISO  4   1 100  68 101  84 101  85 100
M  END
> <chiral flag>
0

> <version>
0

> <s_m_source_file>
/data/baiqing/PycharmProjects/Reinvent-master-3.2/result/LINK_invent/BTK/process_docking_weight1_custom_sum_contain_oxygen_bond_distance_aromatic_linkinvent_7_9_3/rearranged_h_0176.sdf

> <i_m_source_file_index>
25

> <r_mmod_Potential_Energy-OPLS-2005>
-42.2806205749512

> <r_mmod_Stretch_Energy-OPLS-2005>
43.2718811035156

> <r_mmod_Bend_Energy-OPLS-2005>
152.38623046875

> <r_mmod_Torsional_Energy-OPLS-2005>
221.073715209961

> <r_mmod_Improper_Torsional_Energy-OPLS-2005>
6.48310518264771

> <r_mmod_Van_der_Waal_Energy-OPLS-2005>
151.377502441406

> <r_mmod_Electrostatic_Energy-OPLS-2005>
-425.945220947266

> <r_mmod_Solvation_Energy-OPLS-2005>
-211.251235961914

> <b_mmod_Minimization_Converged-OPLS-2005>
0

> <r_mmod_RMS_Derivative-OPLS-2005>
0.961282014846802

$$$$
25
                    3D
 Structure written by MMmdl.
172182  0  0  1  0            999 V2000
  -30.6351  -14.3364   20.7954 C   0  0  0  0  0  0
  -30.4498  -12.3498   19.2945 C   0  0  0  0  0  0
  -29.4187  -12.5390   18.1487 C   0  0  0  0  0  0
  -27.9278  -12.3558   18.5848 C   0  0  0  0  0  0
  -27.6014  -13.1711   19.8838 C   0  0  2  0  0  0
  -28.7337  -12.7176   20.9028 C   0  0  0  0  0  0
  -24.6658  -14.5681   21.2252 C   0  0  0  0  0  0
  -24.0841  -14.0572   21.2259 C   0  0  0  0  0  0
  -25.2704  -12.2652   20.5719 C   0  0  0  0  0  0
  -24.5749  -10.5448   20.4970 C   0  0  0  0  0  0
  -24.7754   -9.5382   21.5606 C   0  0  0  0  0  0
  -23.9152   -8.4109   21.9266 C   0  0  0  0  0  0
  -22.6796   -8.1449   21.2783 C   0  0  0  0  0  0
  -22.3924   -9.0668   20.2593 C   0  0  0  0  0  0
  -23.2953  -10.1229   19.8877 C   0  0  0  0  0  0
  -21.7908   -6.1773   22.5242 C   0  0  0  0  0  0
  -21.4790   -6.6258   23.8270 C   0  0  0  0  0  0
  -21.3924   -5.7145   24.9048 C   0  0  0  0  0  0
  -21.6069   -4.3396   24.6911 C   0  0  0  0  0  0
  -21.8795   -3.8744   23.3934 C   0  0  0  0  0  0
  -21.9552   -4.7821   22.3158 C   0  0  0  0  0  0
  -22.4853  -14.4033   21.4191 C   0  0  0  0  0  0
  -22.1824   -4.2971   21.0717 F   0  0  0  0  0  0
  -21.5442   -3.4689   25.7281 F   0  0  0  0  0  0
  -30.0432  -13.1685   20.4391 N   0  0  0  0  0  0
  -26.0389  -13.1501   20.4660 N   0  0  0  0  0  0
  -26.3359  -11.9463   20.7633 N   0  0  0  0  0  0
  -21.6274  -13.6953   22.1725 N   0  0  0  0  0  0
  -24.5398  -15.9762   21.5858 N   0  0  0  0  0  0
  -31.6236  -14.7890   20.1953 O   0  0  0  0  0  0
  -21.8069   -7.0552   21.4472 O   0  0  0  0  0  0
  -21.9806  -15.1817   20.6347 O   0  0  0  0  0  0
  -24.7136  -31.7694   23.1349 C   0  0  0  0  0  0
  -25.9618  -32.4287   23.7934 C   0  0  1  0  0  0
  -26.8276  -26.3041   20.1744 C   0  0  0  0  0  0
  -25.6104  -33.8150   24.1778 N   0  0  0  0  0  0
  -23.5267  -30.3936   21.5085 C   0  0  2  0  0  0
  -24.8974  -28.6964   20.0837 C   0  0  0  0  0  0
  -22.7784  -29.4204   22.4621 C   0  0  0  0  0  0
  -18.0321  -28.1425   22.8436 C   0  0  0  0  0  0
  -24.1484  -36.7063   23.2651 C   0  0  0  0  0  0
  -26.1171  -30.3503   21.4509 C   0  0  0  0  0  0
  -26.0966  -28.8943   20.7716 C   0  0  0  0  0  0
  -27.0700  -27.7241   20.7791 C   0  0  0  0  0  0
  -25.6841  -26.4376   19.3766 C   0  0  0  0  0  0
  -24.7598  -27.5132   19.3510 C   0  0  0  0  0  0
  -23.7651  -29.7330   20.1251 C   0  0  0  0  0  0
  -25.4153  -36.2794   24.0249 C   0  0  1  0  0  0
  -20.5948  -28.3784   23.1094 C   0  0  2  0  0  0
  -20.6775  -26.9429   22.5394 C   0  0  0  0  0  0
  -19.5762  -26.6350   21.5193 C   0  0  0  0  0  0
  -18.1940  -26.7948   22.1598 C   0  0  0  0  0  0
  -19.1592  -28.8924   23.2746 C   0  0  0  0  0  0
  -18.9509  -30.1499   23.8805 C   0  0  0  0  0  0
  -17.6504  -30.6601   24.0537 C   0  0  0  0  0  0
  -25.9175  -34.9205   23.4851 C   0  0  0  0  0  0
  -16.5379  -29.9082   23.6358 C   0  0  0  0  0  0
  -16.7310  -28.6509   23.0366 C   0  0  0  0  0  0
  -26.4679  -31.6506   25.0737 C   0  0  0  0  0  0
  -25.3662  -31.3956   26.1299 C   0  0  0  0  0  0
  -27.0675  -30.2813   24.6932 C   0  0  0  0  0  0
  -27.6055  -32.4457   25.7582 C   0  0  0  0  0  0
  -27.5560  -37.1685   24.8456 C   0  0  0  0  0  0
  -21.4417  -29.3011   22.3399 N   0  0  0  0  0  0
  -26.4233  -37.3613   23.9437 N   0  0  0  0  0  0
  -24.8193  -30.8817   22.0784 N   0  0  0  0  0  0
  -23.4144  -28.7749   23.3000 O   0  0  0  0  0  0
  -27.4307  -24.8020   20.1652 O   0  0  0  0  0  0
  -26.5833  -34.8848   22.4485 O   0  0  0  0  0  0
  -23.6124  -32.0977   23.6138 O   0  0  0  0  0  0
  -23.3544  -12.8012   19.6434 C   0  0  0  0  0  0
  -24.7773  -14.3954   18.9638 C   0  0  0  0  0  0
  -26.3379  -15.4297   20.0708 C   0  0  0  0  0  0
  -26.6804  -14.5709   22.1006 C   0  0  0  0  0  0
  -23.6762  -12.1326   22.0610 C   0  0  0  0  0  0
  -24.5573  -15.5904   18.0042 C   0  0  0  0  0  0
  -25.1355  -17.0633   18.5299 C   0  0  0  0  0  0
  -28.6135  -14.5098   23.8544 C   0  0  0  0  0  0
  -28.1926  -16.6152   22.5584 C   0  0  0  0  0  0
  -30.0210  -14.5798   23.1925 C   0  0  0  0  0  0
  -29.4047  -16.3515   21.6092 C   0  0  0  0  0  0
  -26.4121  -17.3064   19.5299 C   0  0  1  0  0  0
  -27.5272  -15.3404   23.1270 C   0  0  0  0  0  0
  -22.8391  -11.2628   23.0140 C   0  0  0  0  0  0
  -26.9531  -20.9129   19.6828 C   0  0  0  0  0  0
  -26.7899  -22.9786   20.2094 C   0  0  0  0  0  0
  -25.3946  -13.0853   22.8654 N   0  0  0  0  0  0
  -29.9642  -15.0028   21.7804 N   0  0  0  0  0  0
  -26.4401  -19.1242   20.1290 N   0  3  0  0  0  0
  -31.4468  -12.6229   18.9446 H   0  0  0  0  0  0
  -30.5191  -11.3033   19.5945 H   0  0  0  0  0  0
  -29.6567  -11.8645   17.3275 H   0  0  0  0  0  0
  -29.5390  -13.5461   17.7418 H   0  0  0  0  0  0
  -27.7295  -11.2915   18.7225 H   0  0  0  0  0  0
  -27.2720  -12.6729   17.7749 H   0  0  0  0  0  0
  -27.9890  -14.1170   19.5267 H   0  0  0  0  0  0
  -28.7794  -11.6240   20.9286 H   0  0  0  0  0  0
  -28.5294  -12.9276   21.9358 H   0  0  0  0  0  0
  -25.6237   -9.7070   22.2076 H   0  0  0  0  0  0
  -24.2288   -7.7628   22.7322 H   0  0  0  0  0  0
  -21.4985   -8.9218   19.6701 H   0  0  0  0  0  0
  -22.9581  -10.6135   18.9939 H   0  0  0  0  0  0
  -21.3144   -7.6796   24.0032 H   0  0  0  0  0  0
  -21.1628   -6.0777   25.8973 H   0  0  0  0  0  0
  -22.0242   -2.8205   23.2176 H   0  0  0  0  0  0
  -21.9106  -12.9807   22.8185 H   0  0  0  0  0  0
  -20.6492  -13.9368   22.1079 H   0  0  0  0  0  0
  -25.3300  -16.5825   21.4513 H   0  0  0  0  0  0
  -23.6671  -16.4495   21.7889 H   0  0  0  0  0  0
  -26.7739  -32.4592   23.0649 H   0  0  0  0  0  0
  -25.0194  -33.9162   24.9895 H   0  0  0  0  0  0
  -22.8683  -31.2467   21.3373 H   0  0  0  0  0  0
  -23.3820  -35.9317   23.3202 H   0  0  0  0  0  0
  -24.3537  -36.8866   22.2088 H   0  0  0  0  0  0
  -23.7152  -37.6150   23.6846 H   0  0  0  0  0  0
  -26.4018  -31.0677   20.6772 H   0  0  0  0  0  0
  -26.9445  -30.3582   22.1478 H   0  0  0  0  0  0
  -27.9763  -27.8619   21.3533 H   0  0  0  0  0  0
  -25.4027  -25.5773   18.7887 H   0  0  0  0  0  0
  -23.8666  -27.3762   18.7557 H   0  0  0  0  0  0
  -24.0216  -30.5089   19.4001 H   0  0  0  0  0  0
  -22.8379  -29.2862   19.7610 H   0  0  0  0  0  0
  -25.1371  -36.1514   25.0737 H   0  0  0  0  0  0
  -21.0025  -28.3426   24.1213 H   0  0  0  0  0  0
  -20.5600  -26.2406   23.3667 H   0  0  0  0  0  0
  -21.6635  -26.7349   22.1213 H   0  0  0  0  0  0
  -19.6925  -25.6225   21.1297 H   0  0  0  0  0  0
  -19.6719  -27.3082   20.6660 H   0  0  0  0  0  0
  -17.4200  -26.6656   21.4006 H   0  0  0  0  0  0
  -18.0361  -26.0100   22.9021 H   0  0  0  0  0  0
  -19.7989  -30.7325   24.2146 H   0  0  0  0  0  0
  -17.5067  -31.6289   24.5142 H   0  0  0  0  0  0
  -15.5374  -30.2981   23.7748 H   0  0  0  0  0  0
  -15.8700  -28.0816   22.7160 H   0  0  0  0  0  0
  -24.5806  -30.7370   25.7589 H   0  0  0  0  0  0
  -24.8915  -32.3240   26.4484 H   0  0  0  0  0  0
  -25.7736  -30.9237   27.0245 H   0  0  0  0  0  0
  -26.3428  -29.6271   24.2087 H   0  0  0  0  0  0
  -27.4146  -29.7472   25.5786 H   0  0  0  0  0  0
  -27.9396  -30.3881   24.0485 H   0  0  0  0  0  0
  -27.2526  -33.3830   26.1902 H   0  0  0  0  0  0
  -28.4009  -32.6922   25.0541 H   0  0  0  0  0  0
  -28.0603  -31.8792   26.5722 H   0  0  0  0  0  0
  -28.2476  -38.0077   24.7619 H   0  0  0  0  0  0
  -28.1165  -36.2615   24.6147 H   0  0  0  0  0  0
  -27.2313  -37.1142   25.8860 H   0  0  0  0  0  0
  -20.9723  -29.8769   21.6552 H   0  0  0  0  0  0
  -26.0036  -38.2640   24.1509 H   0  0  0  0  0  0
  -22.4516  -12.5747   19.0953 H   0  0  0  0  0  0
  -23.4969  -15.6622   17.7664 H   0  0  0  0  0  0
  -25.0462  -15.3268   17.0657 H   0  0  0  0  0  0
  -24.2952  -17.4701   19.0922 H   0  0  0  0  0  0
  -25.2171  -17.7325   17.6720 H   0  0  0  0  0  0
  -28.7229  -14.9107   24.8660 H   0  0  0  0  0  0
  -28.2786  -13.4806   23.9996 H   0  0  0  0  0  0
  -27.4404  -17.2449   22.0897 H   0  0  0  0  0  0
  -28.5546  -17.1978   23.4107 H   0  0  0  0  0  0
  -30.5247  -13.6168   23.2998 H   0  0  0  0  0  0
  -30.6347  -15.2987   23.7360 H   0  0  0  0  0  0
  -30.1827  -17.0925   21.7875 H   0  0  0  0  0  0
  -29.0936  -16.4729   20.5701 H   0  0  0  0  0  0
  -27.3215  -17.2787   18.9292 H   0  0  0  0  0  0
  -26.7995  -15.6598   23.8759 H   0  0  0  0  0  0
  -22.0546  -10.7230   22.4908 H   0  0  0  0  0  0
  -22.3881  -11.8572   23.8087 H   0  0  0  0  0  0
  -23.4631  -10.5438   23.5435 H   0  0  0  0  0  0
  -28.0282  -20.7884   19.5680 H   0  0  0  0  0  0
  -26.6072  -20.9455   18.6488 H   0  0  0  0  0  0
  -26.7650  -22.8760   21.2934 H   0  0  0  0  0  0
  -25.7485  -23.1661   19.9474 H   0  0  0  0  0  0
  -26.8648  -19.0357   21.0359 H   0  0  0  0  0  0
  -25.4621  -19.2619   20.3318 H   0  0  0  0  0  0
  1 25  1  0  0  0
  1 30  2  0  0  0
  1 88  1  0  0  0
  2  3  1  0  0  0
  2 25  1  0  0  0
  2 90  1  0  0  0
  2 91  1  0  0  0
  3  4  1  0  0  0
  3 92  1  0  0  0
  3 93  1  0  0  0
  4  5  1  0  0  0
  4 94  1  0  0  0
  4 95  1  0  0  0
  5  6  1  0  0  0
  5 26  1  0  0  0
  5 96  1  0  0  0
  6 25  1  0  0  0
  6 97  1  0  0  0
  6 98  1  0  0  0
  7  8  2  0  0  0
  7 26  1  0  0  0
  7 29  1  0  0  0
  8  9  1  0  0  0
  8 22  1  0  0  0
  9 10  1  0  0  0
  9 27  2  0  0  0
 10 11  2  0  0  0
 10 15  1  0  0  0
 11 12  1  0  0  0
 11 99  1  0  0  0
 12 13  2  0  0  0
 12100  1  0  0  0
 13 14  1  0  0  0
 13 31  1  0  0  0
 14 15  2  0  0  0
 14101  1  0  0  0
 15102  1  0  0  0
 16 17  2  0  0  0
 16 21  1  0  0  0
 16 31  1  0  0  0
 17 18  1  0  0  0
 17103  1  0  0  0
 18 19  2  0  0  0
 18104  1  0  0  0
 19 20  1  0  0  0
 19 24  1  0  0  0
 20 21  2  0  0  0
 20105  1  0  0  0
 21 23  1  0  0  0
 22 28  1  0  0  0
 22 32  2  0  0  0
 26 27  1  0  0  0
 28106  1  0  0  0
 28107  1  0  0  0
 29108  1  0  0  0
 29109  1  0  0  0
 33 34  1  0  0  0
 33 66  1  0  0  0
 33 70  2  0  0  0
 34 36  1  0  0  0
 34 59  1  0  0  0
 34110  1  0  0  0
 35 44  2  0  0  0
 35 45  1  0  0  0
 35 68  1  0  0  0
 36 56  1  0  0  0
 36111  1  0  0  0
 37 39  1  0  0  0
 37 47  1  0  0  0
 37 66  1  0  0  0
 37112  1  0  0  0
 38 43  2  0  0  0
 38 46  1  0  0  0
 38 47  1  0  0  0
 39 64  1  0  0  0
 39 67  2  0  0  0
 40 52  1  0  0  0
 40 53  2  0  0  0
 40 58  1  0  0  0
 41113  1  0  0  0
 41114  1  0  0  0
 41115  1  0  0  0
 41 48  1  0  0  0
 42 43  1  0  0  0
 42 66  1  0  0  0
 42116  1  0  0  0
 42117  1  0  0  0
 43 44  1  0  0  0
 44118  1  0  0  0
 45 46  2  0  0  0
 45119  1  0  0  0
 46120  1  0  0  0
 47121  1  0  0  0
 47122  1  0  0  0
 48 56  1  0  0  0
 48 65  1  0  0  0
 48123  1  0  0  0
 49 50  1  0  0  0
 49 53  1  0  0  0
 49 64  1  0  0  0
 49124  1  0  0  0
 50 51  1  0  0  0
 50125  1  0  0  0
 50126  1  0  0  0
 51 52  1  0  0  0
 51127  1  0  0  0
 51128  1  0  0  0
 52129  1  0  0  0
 52130  1  0  0  0
 53 54  1  0  0  0
 54 55  2  0  0  0
 54131  1  0  0  0
 55 57  1  0  0  0
 55132  1  0  0  0
 56 69  2  0  0  0
 57 58  2  0  0  0
 57133  1  0  0  0
 58134  1  0  0  0
 59 60  1  0  0  0
 59 61  1  0  0  0
 59 62  1  0  0  0
 60135  1  0  0  0
 60136  1  0  0  0
 60137  1  0  0  0
 61138  1  0  0  0
 61139  1  0  0  0
 61140  1  0  0  0
 62141  1  0  0  0
 62142  1  0  0  0
 62143  1  0  0  0
 63 65  1  0  0  0
 63144  1  0  0  0
 63145  1  0  0  0
 63146  1  0  0  0
 64147  1  0  0  0
 65148  1  0  0  0
 68 86  1  0  0  0
 71 72  2  0  0  0
 71 75  1  0  0  0
 71149  1  0  0  0
 72 73  1  0  0  0
 72 76  1  0  0  0
 73 74  2  0  0  0
 73 82  1  0  0  0
 74 87  1  0  0  0
 74 83  1  0  0  0
 75 84  1  0  0  0
 75 87  2  0  0  0
 76 77  1  0  0  0
 76150  1  0  0  0
 76151  1  0  0  0
 77 82  1  0  0  0
 77152  1  0  0  0
 77153  1  0  0  0
 78 80  1  0  0  0
 78 83  1  0  0  0
 78154  1  0  0  0
 78155  1  0  0  0
 79 81  1  0  0  0
 79 83  1  0  0  0
 79156  1  0  0  0
 79157  1  0  0  0
 80 88  1  0  0  0
 80158  1  0  0  0
 80159  1  0  0  0
 81 88  1  0  0  0
 81160  1  0  0  0
 81161  1  0  0  0
 82 89  1  0  0  0
 82162  1  0  0  0
 83163  1  0  0  0
 84164  1  0  0  0
 84165  1  0  0  0
 84166  1  0  0  0
 85 86  1  0  0  0
 85 89  1  0  0  0
 85167  1  0  0  0
 85168  1  0  0  0
 86169  1  0  0  0
 86170  1  0  0  0
 89171  1  0  0  0
 89172  1  0  0  0
M  CHG  1  89   1
M  ISO  4   1 100  68 101  86 101  88 100
M  END
> <chiral flag>
0

> <version>
0

> <s_m_source_file>
/data/baiqing/PycharmProjects/Reinvent-master-3.2/result/LINK_invent/BTK/process_docking_weight1_custom_sum_contain_oxygen_bond_distance_aromatic_linkinvent_7_9_3/rearranged_h_0176.sdf

> <i_m_source_file_index>
26

> <r_mmod_Potential_Energy-OPLS-2005>
22662.541015625

> <r_mmod_Stretch_Energy-OPLS-2005>
14377.78515625

> <r_mmod_Bend_Energy-OPLS-2005>
1675.09265136719

> <r_mmod_Torsional_Energy-OPLS-2005>
568.829528808594

> <r_mmod_Improper_Torsional_Energy-OPLS-2005>
58.949146270752

> <r_mmod_Van_der_Waal_Energy-OPLS-2005>
4692.22412109375

> <r_mmod_Electrostatic_Energy-OPLS-2005>
-262.903503417969

> <r_mmod_Solvation_Energy-OPLS-2005>
-481.211059570312

> <b_mmod_Minimization_Converged-OPLS-2005>
0

> <r_mmod_RMS_Derivative-OPLS-2005>
10.7266502380371

$$$$
26
                    3D
 Structure written by MMmdl.
171180  0  0  1  0            999 V2000
  -30.5021  -15.0028   20.3842 C   0  0  0  0  0  0
  -30.4387  -12.6192   19.4978 C   0  0  0  0  0  0
  -29.5204  -12.5350   18.2559 C   0  0  0  0  0  0
  -28.0580  -12.3016   18.6798 C   0  0  0  0  0  0
  -27.6280  -13.2305   19.8442 C   0  0  2  0  0  0
  -28.6721  -13.2929   20.9773 C   0  0  0  0  0  0
  -25.2455  -13.8159   20.5746 C   0  0  0  0  0  0
  -24.1762  -13.0395   20.9229 C   0  0  0  0  0  0
  -24.6371  -11.6884   20.8771 C   0  0  0  0  0  0
  -23.9062  -10.4269   21.0417 C   0  0  0  0  0  0
  -24.3623   -9.4191   21.9189 C   0  0  0  0  0  0
  -23.6297   -8.2232   22.0763 C   0  0  0  0  0  0
  -22.4278   -8.0280   21.3552 C   0  0  0  0  0  0
  -21.9911   -9.0245   20.4646 C   0  0  0  0  0  0
  -22.7240  -10.2121   20.3056 C   0  0  0  0  0  0
  -21.6848   -6.0740   22.5282 C   0  0  0  0  0  0
  -21.4008   -6.5643   23.8214 C   0  0  0  0  0  0
  -21.3651   -5.6796   24.9172 C   0  0  0  0  0  0
  -21.6051   -4.3060   24.7225 C   0  0  0  0  0  0
  -21.8815   -3.8149   23.4343 C   0  0  0  0  0  0
  -21.9192   -4.6970   22.3403 C   0  0  0  0  0  0
  -22.7785  -13.5185   21.1890 C   0  0  0  0  0  0
  -22.1660   -4.2162   21.0981 F   0  0  0  0  0  0
  -21.5632   -3.4542   25.7731 F   0  0  0  0  0  0
  -29.9353  -13.7249   20.3657 N   0  0  0  0  0  0
  -26.2869  -12.9361   20.3298 N   0  0  0  0  0  0
  -25.9302  -11.6508   20.5769 N   0  0  0  0  0  0
  -22.0431  -12.8181   22.0443 N   0  0  0  0  0  0
  -25.4035  -15.1896   20.4215 N   0  0  0  0  0  0
  -31.7072  -15.0751   20.1160 O   0  0  0  0  0  0
  -21.6639   -6.8886   21.4243 O   0  0  0  0  0  0
  -22.3479  -14.5499   20.6743 O   0  0  0  0  0  0
  -24.6442  -31.8427   23.1872 C   0  0  0  0  0  0
  -25.9205  -32.4695   23.8272 C   0  0  1  0  0  0
  -27.2118  -27.1173   20.1477 C   0  0  0  0  0  0
  -25.5943  -33.8498   24.2198 N   0  0  0  0  0  0
  -23.4488  -30.4624   21.5316 C   0  0  2  0  0  0
  -24.8963  -28.8869   20.1064 C   0  0  0  0  0  0
  -22.7587  -29.4535   22.4833 C   0  0  0  0  0  0
  -18.0314  -28.1428   22.8464 C   0  0  0  0  0  0
  -24.1478  -36.7246   23.2651 C   0  0  0  0  0  0
  -26.0059  -30.7090   21.3882 C   0  0  0  0  0  0
  -26.0726  -29.3186   20.7291 C   0  0  0  0  0  0
  -27.2258  -28.4482   20.7375 C   0  0  0  0  0  0
  -26.0122  -26.7960   19.4723 C   0  0  0  0  0  0
  -24.8811  -27.6404   19.4621 C   0  0  0  0  0  0
  -23.6774  -29.7938   20.1498 C   0  0  0  0  0  0
  -25.4103  -36.3027   24.0332 C   0  0  1  0  0  0
  -20.5930  -28.3735   23.1245 C   0  0  2  0  0  0
  -20.6792  -26.9429   22.5406 C   0  0  0  0  0  0
  -19.5765  -26.6393   21.5215 C   0  0  0  0  0  0
  -18.1947  -26.7952   22.1618 C   0  0  0  0  0  0
  -19.1574  -28.8888   23.2847 C   0  0  0  0  0  0
  -18.9492  -30.1489   23.8864 C   0  0  0  0  0  0
  -17.6491  -30.6609   24.0554 C   0  0  0  0  0  0
  -25.9065  -34.9406   23.5072 C   0  0  0  0  0  0
  -16.5385  -29.9108   23.6337 C   0  0  0  0  0  0
  -16.7299  -28.6537   23.0338 C   0  0  0  0  0  0
  -26.4525  -31.6566   25.0721 C   0  0  0  0  0  0
  -25.3689  -31.3776   26.1400 C   0  0  0  0  0  0
  -27.0407  -30.2967   24.6295 C   0  0  0  0  0  0
  -27.6055  -32.4348   25.7487 C   0  0  0  0  0  0
  -27.5565  -37.1765   24.8475 C   0  0  0  0  0  0
  -21.4270  -29.3060   22.3603 N   0  0  0  0  0  0
  -26.4266  -37.3742   23.9427 N   0  0  0  0  0  0
  -24.7197  -31.0266   22.0907 N   0  0  0  0  0  0
  -23.4215  -28.8069   23.2982 O   0  0  0  0  0  0
  -28.2751  -26.1437   20.2567 O   0  0  0  0  0  0
  -26.5672  -34.8911   22.4662 O   0  0  0  0  0  0
  -23.5566  -32.1318   23.7074 O   0  0  0  0  0  0
  -26.3416  -18.7055   19.1188 C   0  0  0  0  0  0
  -27.6450  -18.1944   19.1661 C   0  0  0  0  0  0
  -28.6641  -18.8265   19.9461 C   0  0  0  0  0  0
  -28.3416  -20.2991   20.2341 C   0  0  0  0  0  0
  -26.0704  -19.9238   19.7253 C   0  0  0  0  0  0
  -30.5881  -21.5441   20.7125 C   0  0  0  0  0  0
  -29.9723  -23.7455   21.4615 C   0  0  0  0  0  0
  -29.1645  -21.7322   20.1581 C   0  0  2  0  0  0
  -30.7195  -22.4917   21.9034 C   0  0  2  0  0  0
  -28.6789  -23.2906   20.7527 C   0  0  1  0  0  0
  -27.8952  -17.0000   18.2619 C   0  0  0  0  0  0
  -24.6741  -20.5047   19.7556 C   0  0  0  0  0  0
  -32.1722  -22.7695   22.3190 C   0  0  0  0  0  0
  -27.5749  -23.1736   21.8263 C   0  0  0  0  0  0
  -29.8891  -17.7667   20.3344 C   0  0  0  0  0  0
  -28.2285  -24.6356   19.8288 C   0  0  0  0  0  0
  -27.0509  -20.6989   20.1934 N   0  0  0  0  0  0
  -29.6895  -16.1785   20.4989 N   0  0  0  0  0  0
  -31.4710  -12.7841   19.1856 H   0  0  0  0  0  0
  -30.4404  -11.6724   20.0400 H   0  0  0  0  0  0
  -29.8505  -11.7358   17.5906 H   0  0  0  0  0  0
  -29.5933  -13.4597   17.6814 H   0  0  0  0  0  0
  -27.9677  -11.2598   18.9898 H   0  0  0  0  0  0
  -27.3900  -12.4236   17.8266 H   0  0  0  0  0  0
  -27.5832  -14.2183   19.4074 H   0  0  0  0  0  0
  -28.7801  -12.3264   21.4715 H   0  0  0  0  0  0
  -28.3614  -14.0021   21.7459 H   0  0  0  0  0  0
  -25.2769   -9.5677   22.4759 H   0  0  0  0  0  0
  -24.0007   -7.4629   22.7485 H   0  0  0  0  0  0
  -21.0845   -8.8751   19.8959 H   0  0  0  0  0  0
  -22.3692  -10.9658   19.6167 H   0  0  0  0  0  0
  -21.1991   -7.6152   23.9718 H   0  0  0  0  0  0
  -21.1477   -6.0528   25.9079 H   0  0  0  0  0  0
  -22.0604   -2.7617   23.2831 H   0  0  0  0  0  0
  -22.4048  -11.9841   22.4830 H   0  0  0  0  0  0
  -21.1044  -13.1196   22.2650 H   0  0  0  0  0  0
  -24.6195  -15.8228   20.5360 H   0  0  0  0  0  0
  -26.2434  -15.6583   20.1120 H   0  0  0  0  0  0
  -26.7258  -32.5285   23.0993 H   0  0  0  0  0  0
  -25.0055  -33.9601   25.0322 H   0  0  0  0  0  0
  -22.7518  -31.2885   21.3761 H   0  0  0  0  0  0
  -23.3750  -35.9573   23.3307 H   0  0  0  0  0  0
  -24.3573  -36.8865   22.2072 H   0  0  0  0  0  0
  -23.7220  -37.6435   23.6693 H   0  0  0  0  0  0
  -26.1671  -31.4595   20.6125 H   0  0  0  0  0  0
  -26.8769  -30.7625   22.0296 H   0  0  0  0  0  0
  -28.1178  -28.7689   21.2562 H   0  0  0  0  0  0
  -25.9006  -25.8547   18.9601 H   0  0  0  0  0  0
  -23.9849  -27.3092   18.9555 H   0  0  0  0  0  0
  -23.8201  -30.5701   19.3960 H   0  0  0  0  0  0
  -22.7924  -29.2395   19.8336 H   0  0  0  0  0  0
  -25.1281  -36.1853   25.0827 H   0  0  0  0  0  0
  -21.0034  -28.3315   24.1370 H   0  0  0  0  0  0
  -20.5703  -26.2327   23.3611 H   0  0  0  0  0  0
  -21.6653  -26.7442   22.1182 H   0  0  0  0  0  0
  -19.6917  -25.6296   21.1265 H   0  0  0  0  0  0
  -19.6713  -27.3181   20.6728 H   0  0  0  0  0  0
  -17.4206  -26.6711   21.4034 H   0  0  0  0  0  0
  -18.0342  -26.0117   22.9035 H   0  0  0  0  0  0
  -19.7976  -30.7314   24.2212 H   0  0  0  0  0  0
  -17.5059  -31.6280   24.5183 H   0  0  0  0  0  0
  -15.5392  -30.3006   23.7689 H   0  0  0  0  0  0
  -15.8694  -28.0857   22.7062 H   0  0  0  0  0  0
  -24.5883  -30.7109   25.7709 H   0  0  0  0  0  0
  -24.8853  -32.2969   26.4732 H   0  0  0  0  0  0
  -25.7942  -30.9011   27.0229 H   0  0  0  0  0  0
  -26.3048  -29.6669   24.1283 H   0  0  0  0  0  0
  -27.4039  -29.7288   25.4864 H   0  0  0  0  0  0
  -27.8929  -30.4239   23.9612 H   0  0  0  0  0  0
  -27.2657  -33.3684   26.1977 H   0  0  0  0  0  0
  -28.3880  -32.6831   25.0311 H   0  0  0  0  0  0
  -28.0692  -31.8527   26.5453 H   0  0  0  0  0  0
  -28.2560  -38.0079   24.7521 H   0  0  0  0  0  0
  -28.1077  -36.2608   24.6292 H   0  0  0  0  0  0
  -27.2302  -37.1393   25.8882 H   0  0  0  0  0  0
  -20.9488  -29.8775   21.6763 H   0  0  0  0  0  0
  -26.0140  -38.2807   24.1441 H   0  0  0  0  0  0
  -25.5543  -18.1708   18.6019 H   0  0  0  0  0  0
  -31.3082  -21.8253   19.9439 H   0  0  0  0  0  0
  -30.8064  -20.5125   20.9883 H   0  0  0  0  0  0
  -30.5960  -24.2973   20.7556 H   0  0  0  0  0  0
  -29.7812  -24.4226   22.2965 H   0  0  0  0  0  0
  -29.2792  -21.8721   19.0826 H   0  0  0  0  0  0
  -30.1866  -22.0586   22.7531 H   0  0  0  0  0  0
  -27.4770  -17.2091   17.2761 H   0  0  0  0  0  0
  -27.3828  -16.1215   18.6309 H   0  0  0  0  0  0
  -28.9473  -16.7782   18.0932 H   0  0  0  0  0  0
  -24.6805  -21.5249   19.3739 H   0  0  0  0  0  0
  -24.2926  -20.5251   20.7763 H   0  0  0  0  0  0
  -23.9859  -19.9187   19.1448 H   0  0  0  0  0  0
  -32.7254  -23.2709   21.5230 H   0  0  0  0  0  0
  -32.6972  -21.8448   22.5586 H   0  0  0  0  0  0
  -32.2163  -23.4052   23.2051 H   0  0  0  0  0  0
  -27.7870  -22.3882   22.5510 H   0  0  0  0  0  0
  -26.6040  -22.9625   21.3794 H   0  0  0  0  0  0
  -27.4602  -24.1076   22.3784 H   0  0  0  0  0  0
  -30.3196  -18.1204   21.2715 H   0  0  0  0  0  0
  -30.6739  -17.9141   19.5917 H   0  0  0  0  0  0
  -27.2432  -24.3943   19.4438 H   0  0  0  0  0  0
  -28.8568  -24.6059   18.9377 H   0  0  0  0  0  0
  -28.7394  -15.9402   20.7369 H   0  0  0  0  0  0
  1 25  1  0  0  0
  1 30  2  0  0  0
  1 88  1  0  0  0
  2  3  1  0  0  0
  2 25  1  0  0  0
  2 89  1  0  0  0
  2 90  1  0  0  0
  3  4  1  0  0  0
  3 91  1  0  0  0
  3 92  1  0  0  0
  4  5  1  0  0  0
  4 93  1  0  0  0
  4 94  1  0  0  0
  5  6  1  0  0  0
  5 26  1  0  0  0
  5 95  1  0  0  0
  6 25  1  0  0  0
  6 96  1  0  0  0
  6 97  1  0  0  0
  7  8  2  0  0  0
  7 26  1  0  0  0
  7 29  1  0  0  0
  8  9  1  0  0  0
  8 22  1  0  0  0
  9 10  1  0  0  0
  9 27  2  0  0  0
 10 11  2  0  0  0
 10 15  1  0  0  0
 11 12  1  0  0  0
 11 98  1  0  0  0
 12 13  2  0  0  0
 12 99  1  0  0  0
 13 14  1  0  0  0
 13 31  1  0  0  0
 14 15  2  0  0  0
 14100  1  0  0  0
 15101  1  0  0  0
 16 17  2  0  0  0
 16 21  1  0  0  0
 16 31  1  0  0  0
 17 18  1  0  0  0
 17102  1  0  0  0
 18 19  2  0  0  0
 18103  1  0  0  0
 19 20  1  0  0  0
 19 24  1  0  0  0
 20 21  2  0  0  0
 20104  1  0  0  0
 21 23  1  0  0  0
 22 28  1  0  0  0
 22 32  2  0  0  0
 26 27  1  0  0  0
 28105  1  0  0  0
 28106  1  0  0  0
 29107  1  0  0  0
 29108  1  0  0  0
 33 34  1  0  0  0
 33 66  1  0  0  0
 33 70  2  0  0  0
 34 36  1  0  0  0
 34 59  1  0  0  0
 34109  1  0  0  0
 35 44  2  0  0  0
 35 45  1  0  0  0
 35 68  1  0  0  0
 36 56  1  0  0  0
 36110  1  0  0  0
 37 39  1  0  0  0
 37 47  1  0  0  0
 37 66  1  0  0  0
 37111  1  0  0  0
 38 43  2  0  0  0
 38 46  1  0  0  0
 38 47  1  0  0  0
 39 64  1  0  0  0
 39 67  2  0  0  0
 40 52  1  0  0  0
 40 53  2  0  0  0
 40 58  1  0  0  0
 41112  1  0  0  0
 41113  1  0  0  0
 41114  1  0  0  0
 41 48  1  0  0  0
 42 43  1  0  0  0
 42 66  1  0  0  0
 42115  1  0  0  0
 42116  1  0  0  0
 43 44  1  0  0  0
 44117  1  0  0  0
 45 46  2  0  0  0
 45118  1  0  0  0
 46119  1  0  0  0
 47120  1  0  0  0
 47121  1  0  0  0
 48 56  1  0  0  0
 48 65  1  0  0  0
 48122  1  0  0  0
 49 50  1  0  0  0
 49 53  1  0  0  0
 49 64  1  0  0  0
 49123  1  0  0  0
 50 51  1  0  0  0
 50124  1  0  0  0
 50125  1  0  0  0
 51 52  1  0  0  0
 51126  1  0  0  0
 51127  1  0  0  0
 52128  1  0  0  0
 52129  1  0  0  0
 53 54  1  0  0  0
 54 55  2  0  0  0
 54130  1  0  0  0
 55 57  1  0  0  0
 55131  1  0  0  0
 56 69  2  0  0  0
 57 58  2  0  0  0
 57132  1  0  0  0
 58133  1  0  0  0
 59 60  1  0  0  0
 59 61  1  0  0  0
 59 62  1  0  0  0
 60134  1  0  0  0
 60135  1  0  0  0
 60136  1  0  0  0
 61137  1  0  0  0
 61138  1  0  0  0
 61139  1  0  0  0
 62140  1  0  0  0
 62141  1  0  0  0
 62142  1  0  0  0
 63 65  1  0  0  0
 63143  1  0  0  0
 63144  1  0  0  0
 63145  1  0  0  0
 64146  1  0  0  0
 65147  1  0  0  0
 68 86  1  0  0  0
 71 72  2  0  0  0
 71 75  1  0  0  0
 71148  1  0  0  0
 72 73  1  0  0  0
 72 81  1  0  0  0
 73 74  2  0  0  0
 73 85  1  0  0  0
 74 87  1  0  0  0
 74 78  1  0  0  0
 75 82  1  0  0  0
 75 87  2  0  0  0
 76 78  1  0  0  0
 76 79  1  0  0  0
 76149  1  0  0  0
 76150  1  0  0  0
 77 79  1  0  0  0
 77 80  1  0  0  0
 77151  1  0  0  0
 77152  1  0  0  0
 78 80  1  0  0  0
 78153  1  0  0  0
 79 83  1  0  0  0
 79154  1  0  0  0
 80 84  1  0  0  0
 80 86  1  0  0  0
 81155  1  0  0  0
 81156  1  0  0  0
 81157  1  0  0  0
 82158  1  0  0  0
 82159  1  0  0  0
 82160  1  0  0  0
 83161  1  0  0  0
 83162  1  0  0  0
 83163  1  0  0  0
 84164  1  0  0  0
 84165  1  0  0  0
 84166  1  0  0  0
 85 88  1  0  0  0
 85167  1  0  0  0
 85168  1  0  0  0
 86169  1  0  0  0
 86170  1  0  0  0
 88171  1  0  0  0
M  ISO  4   1 100  68 101  86 101  88 100
M  END
> <chiral flag>
0

> <version>
0

> <s_m_source_file>
/data/baiqing/PycharmProjects/Reinvent-master-3.2/result/LINK_invent/BTK/process_docking_weight1_custom_sum_contain_oxygen_bond_distance_aromatic_linkinvent_7_9_3/rearranged_h_0176.sdf

> <i_m_source_file_index>
27

> <r_mmod_Potential_Energy-OPLS-2005>
697.180908203125

> <r_mmod_Stretch_Energy-OPLS-2005>
331.603637695312

> <r_mmod_Bend_Energy-OPLS-2005>
363.726440429688

> <r_mmod_Torsional_Energy-OPLS-2005>
331.683837890625

> <r_mmod_Improper_Torsional_Energy-OPLS-2005>
9.07767200469971

> <r_mmod_Van_der_Waal_Energy-OPLS-2005>
131.729339599609

> <r_mmod_Electrostatic_Energy-OPLS-2005>
-484.435913085938

> <r_mmod_Solvation_Energy-OPLS-2005>
-208.21516418457

> <b_mmod_Minimization_Converged-OPLS-2005>
0

> <r_mmod_RMS_Derivative-OPLS-2005>
2.64491128921509

$$$$
27
                    3D
 Structure written by MMmdl.
166176  0  0  1  0            999 V2000
  -30.5061  -15.3266   20.3775 C   0  0  0  0  0  0
  -30.4117  -12.8843   19.4716 C   0  0  0  0  0  0
  -29.5107  -12.5716   18.2578 C   0  0  0  0  0  0
  -28.0743  -12.2821   18.7173 C   0  0  0  0  0  0
  -27.5962  -13.2831   19.7983 C   0  0  2  0  0  0
  -28.6442  -13.5430   20.9019 C   0  0  0  0  0  0
  -25.2372  -13.8260   20.5786 C   0  0  0  0  0  0
  -24.1728  -13.0440   20.9273 C   0  0  0  0  0  0
  -24.6394  -11.6935   20.8774 C   0  0  0  0  0  0
  -23.9089  -10.4293   21.0404 C   0  0  0  0  0  0
  -24.3630   -9.4204   21.9181 C   0  0  0  0  0  0
  -23.6300   -8.2243   22.0755 C   0  0  0  0  0  0
  -22.4281   -8.0280   21.3552 C   0  0  0  0  0  0
  -21.9925   -9.0249   20.4647 C   0  0  0  0  0  0
  -22.7256  -10.2132   20.3056 C   0  0  0  0  0  0
  -21.6855   -6.0733   22.5276 C   0  0  0  0  0  0
  -21.4012   -6.5637   23.8209 C   0  0  0  0  0  0
  -21.3666   -5.6793   24.9174 C   0  0  0  0  0  0
  -21.6046   -4.3055   24.7224 C   0  0  0  0  0  0
  -21.8819   -3.8145   23.4345 C   0  0  0  0  0  0
  -21.9194   -4.6960   22.3401 C   0  0  0  0  0  0
  -22.7747  -13.5184   21.1914 C   0  0  0  0  0  0
  -22.1662   -4.2146   21.0979 F   0  0  0  0  0  0
  -21.5634   -3.4539   25.7739 F   0  0  0  0  0  0
  -29.8300  -14.0780   20.2049 N   0  0  0  0  0  0
  -26.2786  -12.9546   20.3228 N   0  0  0  0  0  0
  -25.9326  -11.6639   20.5713 N   0  0  0  0  0  0
  -22.0406  -12.8159   22.0459 N   0  0  0  0  0  0
  -25.4029  -15.2001   20.4265 N   0  0  0  0  0  0
  -31.7264  -15.0936   20.4065 O   0  0  0  0  0  0
  -21.6647   -6.8876   21.4238 O   0  0  0  0  0  0
  -22.3426  -14.5476   20.6745 O   0  0  0  0  0  0
  -24.6663  -31.8212   23.1683 C   0  0  0  0  0  0
  -25.9327  -32.4579   23.8158 C   0  0  1  0  0  0
  -27.2062  -26.8921   20.1969 C   0  0  0  0  0  0
  -25.5980  -33.8395   24.2066 N   0  0  0  0  0  0
  -23.4814  -30.4329   21.5196 C   0  0  2  0  0  0
  -24.9308  -28.8095   20.1215 C   0  0  0  0  0  0
  -22.7677  -29.4438   22.4782 C   0  0  0  0  0  0
  -18.0325  -28.1401   22.8474 C   0  0  0  0  0  0
  -24.1497  -36.7200   23.2650 C   0  0  0  0  0  0
  -26.0527  -30.6168   21.4017 C   0  0  0  0  0  0
  -26.1187  -29.2007   20.7522 C   0  0  0  0  0  0
  -27.2552  -28.2670   20.7585 C   0  0  0  0  0  0
  -25.9869  -26.6577   19.5252 C   0  0  0  0  0  0
  -24.8915  -27.5583   19.4872 C   0  0  0  0  0  0
  -23.7220  -29.7449   20.1489 C   0  0  0  0  0  0
  -25.4138  -36.2964   24.0302 C   0  0  1  0  0  0
  -20.5953  -28.3751   23.1185 C   0  0  2  0  0  0
  -20.6802  -26.9430   22.5404 C   0  0  0  0  0  0
  -19.5771  -26.6375   21.5217 C   0  0  0  0  0  0
  -18.1954  -26.7939   22.1626 C   0  0  0  0  0  0
  -19.1588  -28.8896   23.2817 C   0  0  0  0  0  0
  -18.9496  -30.1489   23.8850 C   0  0  0  0  0  0
  -17.6487  -30.6593   24.0552 C   0  0  0  0  0  0
  -25.9099  -34.9345   23.5005 C   0  0  0  0  0  0
  -16.5380  -29.9078   23.6341 C   0  0  0  0  0  0
  -16.7307  -28.6497   23.0368 C   0  0  0  0  0  0
  -26.4558  -31.6526   25.0690 C   0  0  0  0  0  0
  -25.3679  -31.3787   26.1338 C   0  0  0  0  0  0
  -27.0464  -30.2893   24.6448 C   0  0  0  0  0  0
  -27.6043  -32.4338   25.7503 C   0  0  0  0  0  0
  -27.5570  -37.1759   24.8466 C   0  0  0  0  0  0
  -21.4347  -29.3042   22.3532 N   0  0  0  0  0  0
  -26.4278  -37.3702   23.9410 N   0  0  0  0  0  0
  -24.7554  -30.9849   22.0831 N   0  0  0  0  0  0
  -23.4204  -28.8003   23.3032 O   0  0  0  0  0  0
  -28.2059  -25.7736   20.1785 O   0  0  0  0  0  0
  -26.5722  -34.8887   22.4609 O   0  0  0  0  0  0
  -23.5726  -32.1196   23.6757 O   0  0  0  0  0  0
  -29.0731  -19.8513   20.0169 C   0  0  0  0  0  0
  -28.8320  -21.2440   20.6680 C   0  0  0  0  0  0
  -28.5081  -22.6058   19.9942 C   0  0  0  0  0  0
  -28.8614  -19.9893   18.6183 C   0  0  0  0  0  0
  -28.4714  -22.3926   18.5977 C   0  0  0  0  0  0
  -29.9170  -18.5818   16.6553 C   0  0  0  0  0  0
  -28.5014  -18.8693   16.2163 C   0  0  0  0  0  0
  -30.9489  -18.3324   21.1274 C   0  0  0  0  0  0
  -31.2099  -17.6335   19.7892 C   0  0  0  0  0  0
  -29.5091  -18.2574   20.6910 C   0  0  2  0  0  0
  -28.8381  -18.7909   17.6948 C   0  0  0  0  0  0
  -28.9005  -21.2726   22.1810 C   0  0  0  0  0  0
  -27.9858  -24.1822   20.6088 C   0  0  0  0  0  0
  -28.2067  -23.5398   17.6300 C   0  0  0  0  0  0
  -28.6252  -21.1782   17.9840 N   0  0  0  0  0  0
  -30.0331  -16.7502   20.0751 N   0  0  0  0  0  0
  -28.9254  -23.2856   16.3815 N   0  3  0  0  0  0
  -31.4201  -13.0816   19.1053 H   0  0  0  0  0  0
  -30.5061  -12.0148   20.1243 H   0  0  0  0  0  0
  -29.9044  -11.7254   17.6926 H   0  0  0  0  0  0
  -29.5143  -13.4227   17.5757 H   0  0  0  0  0  0
  -28.0586  -11.2700   19.1227 H   0  0  0  0  0  0
  -27.3939  -12.2827   17.8655 H   0  0  0  0  0  0
  -27.4783  -14.2249   19.2596 H   0  0  0  0  0  0
  -28.8600  -12.6415   21.4781 H   0  0  0  0  0  0
  -28.2705  -14.2861   21.6084 H   0  0  0  0  0  0
  -25.2773   -9.5682   22.4761 H   0  0  0  0  0  0
  -24.0011   -7.4631   22.7475 H   0  0  0  0  0  0
  -21.0860   -8.8765   19.8946 H   0  0  0  0  0  0
  -22.3708  -10.9667   19.6167 H   0  0  0  0  0  0
  -21.2001   -7.6144   23.9708 H   0  0  0  0  0  0
  -21.1491   -6.0526   25.9077 H   0  0  0  0  0  0
  -22.0593   -2.7604   23.2847 H   0  0  0  0  0  0
  -22.4048  -11.9839   22.4866 H   0  0  0  0  0  0
  -21.1007  -13.1153   22.2643 H   0  0  0  0  0  0
  -24.6393  -15.8549   20.5529 H   0  0  0  0  0  0
  -26.2615  -15.6446   20.1261 H   0  0  0  0  0  0
  -26.7401  -32.5110   23.0870 H   0  0  0  0  0  0
  -25.0067  -33.9467   25.0174 H   0  0  0  0  0  0
  -22.7971  -31.2657   21.3464 H   0  0  0  0  0  0
  -23.3775  -35.9511   23.3280 H   0  0  0  0  0  0
  -24.3568  -36.8879   22.2071 H   0  0  0  0  0  0
  -23.7232  -37.6371   23.6725 H   0  0  0  0  0  0
  -26.2364  -31.3537   20.6187 H   0  0  0  0  0  0
  -26.9123  -30.6762   22.0583 H   0  0  0  0  0  0
  -28.1607  -28.5725   21.2645 H   0  0  0  0  0  0
  -25.8560  -25.7041   19.0346 H   0  0  0  0  0  0
  -23.9899  -27.2520   18.9749 H   0  0  0  0  0  0
  -23.8837  -30.5102   19.3895 H   0  0  0  0  0  0
  -22.8297  -29.2035   19.8295 H   0  0  0  0  0  0
  -25.1336  -36.1762   25.0795 H   0  0  0  0  0  0
  -21.0048  -28.3367   24.1303 H   0  0  0  0  0  0
  -20.5685  -26.2370   23.3648 H   0  0  0  0  0  0
  -21.6663  -26.7400   22.1205 H   0  0  0  0  0  0
  -19.6927  -25.6274   21.1273 H   0  0  0  0  0  0
  -19.6707  -27.3163   20.6736 H   0  0  0  0  0  0
  -17.4225  -26.6691   21.4032 H   0  0  0  0  0  0
  -18.0342  -26.0084   22.9028 H   0  0  0  0  0  0
  -19.7971  -30.7323   24.2196 H   0  0  0  0  0  0
  -17.5036  -31.6271   24.5162 H   0  0  0  0  0  0
  -15.5376  -30.2961   23.7691 H   0  0  0  0  0  0
  -15.8712  -28.0796   22.7109 H   0  0  0  0  0  0
  -24.5878  -30.7115   25.7650 H   0  0  0  0  0  0
  -24.8840  -32.2992   26.4624 H   0  0  0  0  0  0
  -25.7898  -30.9048   27.0213 H   0  0  0  0  0  0
  -26.3145  -29.6556   24.1433 H   0  0  0  0  0  0
  -27.3964  -29.7268   25.5115 H   0  0  0  0  0  0
  -27.9095  -30.4068   23.9893 H   0  0  0  0  0  0
  -27.2607  -33.3691   26.1942 H   0  0  0  0  0  0
  -28.3932  -32.6819   25.0386 H   0  0  0  0  0  0
  -28.0626  -31.8553   26.5538 H   0  0  0  0  0  0
  -28.2569  -38.0075   24.7516 H   0  0  0  0  0  0
  -28.1089  -36.2599   24.6293 H   0  0  0  0  0  0
  -27.2284  -37.1400   25.8868 H   0  0  0  0  0  0
  -20.9601  -29.8733   21.6661 H   0  0  0  0  0  0
  -26.0131  -38.2765   24.1404 H   0  0  0  0  0  0
  -30.6529  -19.3737   16.5244 H   0  0  0  0  0  0
  -30.2888  -17.5685   16.5216 H   0  0  0  0  0  0
  -27.9549  -18.0384   15.7753 H   0  0  0  0  0  0
  -28.3135  -19.8381   15.7591 H   0  0  0  0  0  0
  -31.3598  -19.3389   21.2134 H   0  0  0  0  0  0
  -31.1927  -17.7272   22.0040 H   0  0  0  0  0  0
  -32.2162  -17.2176   19.7514 H   0  0  0  0  0  0
  -31.1139  -18.2869   18.9254 H   0  0  0  0  0  0
  -28.8621  -18.1076   21.5562 H   0  0  0  0  0  0
  -28.4418  -17.9181   18.2079 H   0  0  0  0  0  0
  -28.7353  -20.2822   22.6052 H   0  0  0  0  0  0
  -28.1399  -21.9350   22.5950 H   0  0  0  0  0  0
  -29.8793  -21.6246   22.5082 H   0  0  0  0  0  0
  -28.3047  -24.1669   21.6508 H   0  0  0  0  0  0
  -26.9028  -24.0765   20.6747 H   0  0  0  0  0  0
  -28.5289  -24.5001   18.0277 H   0  0  0  0  0  0
  -27.1349  -23.5989   17.4379 H   0  0  0  0  0  0
  -29.8952  -23.5162   16.4886 H   0  0  0  0  0  0
  -28.5213  -23.7852   15.6136 H   0  0  0  0  0  0
  -28.8449  -22.2888   16.2605 H   0  0  0  0  0  0
  1 25  1  0  0  0
  1 30  2  0  0  0
  1 86  1  0  0  0
  2  3  1  0  0  0
  2 25  1  0  0  0
  2 88  1  0  0  0
  2 89  1  0  0  0
  3  4  1  0  0  0
  3 90  1  0  0  0
  3 91  1  0  0  0
  4  5  1  0  0  0
  4 92  1  0  0  0
  4 93  1  0  0  0
  5  6  1  0  0  0
  5 26  1  0  0  0
  5 94  1  0  0  0
  6 25  1  0  0  0
  6 95  1  0  0  0
  6 96  1  0  0  0
  7  8  2  0  0  0
  7 26  1  0  0  0
  7 29  1  0  0  0
  8  9  1  0  0  0
  8 22  1  0  0  0
  9 10  1  0  0  0
  9 27  2  0  0  0
 10 11  2  0  0  0
 10 15  1  0  0  0
 11 12  1  0  0  0
 11 97  1  0  0  0
 12 13  2  0  0  0
 12 98  1  0  0  0
 13 14  1  0  0  0
 13 31  1  0  0  0
 14 15  2  0  0  0
 14 99  1  0  0  0
 15100  1  0  0  0
 16 17  2  0  0  0
 16 21  1  0  0  0
 16 31  1  0  0  0
 17 18  1  0  0  0
 17101  1  0  0  0
 18 19  2  0  0  0
 18102  1  0  0  0
 19 20  1  0  0  0
 19 24  1  0  0  0
 20 21  2  0  0  0
 20103  1  0  0  0
 21 23  1  0  0  0
 22 28  1  0  0  0
 22 32  2  0  0  0
 26 27  1  0  0  0
 28104  1  0  0  0
 28105  1  0  0  0
 29106  1  0  0  0
 29107  1  0  0  0
 33 34  1  0  0  0
 33 66  1  0  0  0
 33 70  2  0  0  0
 34 36  1  0  0  0
 34 59  1  0  0  0
 34108  1  0  0  0
 35 44  2  0  0  0
 35 45  1  0  0  0
 35 68  1  0  0  0
 36 56  1  0  0  0
 36109  1  0  0  0
 37 39  1  0  0  0
 37 47  1  0  0  0
 37 66  1  0  0  0
 37110  1  0  0  0
 38 43  2  0  0  0
 38 46  1  0  0  0
 38 47  1  0  0  0
 39 64  1  0  0  0
 39 67  2  0  0  0
 40 52  1  0  0  0
 40 53  2  0  0  0
 40 58  1  0  0  0
 41111  1  0  0  0
 41112  1  0  0  0
 41113  1  0  0  0
 41 48  1  0  0  0
 42 43  1  0  0  0
 42 66  1  0  0  0
 42114  1  0  0  0
 42115  1  0  0  0
 43 44  1  0  0  0
 44116  1  0  0  0
 45 46  2  0  0  0
 45117  1  0  0  0
 46118  1  0  0  0
 47119  1  0  0  0
 47120  1  0  0  0
 48 56  1  0  0  0
 48 65  1  0  0  0
 48121  1  0  0  0
 49 50  1  0  0  0
 49 53  1  0  0  0
 49 64  1  0  0  0
 49122  1  0  0  0
 50 51  1  0  0  0
 50123  1  0  0  0
 50124  1  0  0  0
 51 52  1  0  0  0
 51125  1  0  0  0
 51126  1  0  0  0
 52127  1  0  0  0
 52128  1  0  0  0
 53 54  1  0  0  0
 54 55  2  0  0  0
 54129  1  0  0  0
 55 57  1  0  0  0
 55130  1  0  0  0
 56 69  2  0  0  0
 57 58  2  0  0  0
 57131  1  0  0  0
 58132  1  0  0  0
 59 60  1  0  0  0
 59 61  1  0  0  0
 59 62  1  0  0  0
 60133  1  0  0  0
 60134  1  0  0  0
 60135  1  0  0  0
 61136  1  0  0  0
 61137  1  0  0  0
 61138  1  0  0  0
 62139  1  0  0  0
 62140  1  0  0  0
 62141  1  0  0  0
 63 65  1  0  0  0
 63142  1  0  0  0
 63143  1  0  0  0
 63144  1  0  0  0
 64145  1  0  0  0
 65146  1  0  0  0
 68 83  1  0  0  0
 71 72  2  0  0  0
 71 74  1  0  0  0
 71 80  1  0  0  0
 72 73  1  0  0  0
 72 82  1  0  0  0
 73 75  2  0  0  0
 73 83  1  0  0  0
 74 85  2  0  0  0
 74 81  1  0  0  0
 75 84  1  0  0  0
 75 85  1  0  0  0
 76 77  1  0  0  0
 76 81  1  0  0  0
 76147  1  0  0  0
 76148  1  0  0  0
 77 81  1  0  0  0
 77149  1  0  0  0
 77150  1  0  0  0
 78 79  1  0  0  0
 78 80  1  0  0  0
 78151  1  0  0  0
 78152  1  0  0  0
 79 86  1  0  0  0
 79153  1  0  0  0
 79154  1  0  0  0
 80 86  1  0  0  0
 80155  1  0  0  0
 81156  1  0  0  0
 82157  1  0  0  0
 82158  1  0  0  0
 82159  1  0  0  0
 83160  1  0  0  0
 83161  1  0  0  0
 84 87  1  0  0  0
 84162  1  0  0  0
 84163  1  0  0  0
 87164  1  0  0  0
 87165  1  0  0  0
 87166  1  0  0  0
M  CHG  1  87   1
M  ISO  4   1 100  68 101  83 101  86 100
M  END
> <chiral flag>
0

> <version>
0

> <s_m_source_file>
/data/baiqing/PycharmProjects/Reinvent-master-3.2/result/LINK_invent/BTK/process_docking_weight1_custom_sum_contain_oxygen_bond_distance_aromatic_linkinvent_7_9_3/rearranged_h_0176.sdf

> <i_m_source_file_index>
28

> <r_mmod_Potential_Energy-OPLS-2005>
1194.494140625

> <r_mmod_Stretch_Energy-OPLS-2005>
676.347106933594

> <r_mmod_Bend_Energy-OPLS-2005>
517.68359375

> <r_mmod_Torsional_Energy-OPLS-2005>
321.551208496094

> <r_mmod_Improper_Torsional_Energy-OPLS-2005>
25.9404582977295

> <r_mmod_Van_der_Waal_Energy-OPLS-2005>
155.03337097168

> <r_mmod_Electrostatic_Energy-OPLS-2005>
-565.480773925781

> <r_mmod_Solvation_Energy-OPLS-2005>
-458.549346923828

> <b_mmod_Minimization_Converged-OPLS-2005>
0

> <r_mmod_RMS_Derivative-OPLS-2005>
1.55864250659943

$$$$
28
                    3D
 Structure written by MMmdl.
161170  0  0  1  0            999 V2000
  -30.5386  -15.1466   20.4124 C   0  0  0  0  0  0
  -30.4209  -12.7406   19.5195 C   0  0  0  0  0  0
  -29.5143  -12.5605   18.2805 C   0  0  0  0  0  0
  -28.0580  -12.3184   18.7083 C   0  0  0  0  0  0
  -27.6090  -13.2808   19.8352 C   0  0  2  0  0  0
  -28.6494  -13.4327   20.9668 C   0  0  0  0  0  0
  -25.2356  -13.8256   20.5829 C   0  0  0  0  0  0
  -24.1720  -13.0438   20.9252 C   0  0  0  0  0  0
  -24.6375  -11.6937   20.8766 C   0  0  0  0  0  0
  -23.9066  -10.4309   21.0411 C   0  0  0  0  0  0
  -24.3616   -9.4225   21.9186 C   0  0  0  0  0  0
  -23.6304   -8.2254   22.0719 C   0  0  0  0  0  0
  -22.4285   -8.0289   21.3519 C   0  0  0  0  0  0
  -21.9922   -9.0252   20.4603 C   0  0  0  0  0  0
  -22.7229  -10.2140   20.3045 C   0  0  0  0  0  0
  -21.6850   -6.0742   22.5262 C   0  0  0  0  0  0
  -21.4015   -6.5629   23.8203 C   0  0  0  0  0  0
  -21.3681   -5.6768   24.9165 C   0  0  0  0  0  0
  -21.6063   -4.3036   24.7191 C   0  0  0  0  0  0
  -21.8837   -3.8134   23.4303 C   0  0  0  0  0  0
  -21.9187   -4.6970   22.3369 C   0  0  0  0  0  0
  -22.7729  -13.5179   21.1900 C   0  0  0  0  0  0
  -22.1656   -4.2174   21.0941 F   0  0  0  0  0  0
  -21.5624   -3.4508   25.7695 F   0  0  0  0  0  0
  -29.8932  -13.8910   20.3338 N   0  0  0  0  0  0
  -26.2808  -12.9561   20.3340 N   0  0  0  0  0  0
  -25.9337  -11.6659   20.5800 N   0  0  0  0  0  0
  -22.0389  -12.8191   22.0469 N   0  0  0  0  0  0
  -25.3968  -15.1992   20.4340 N   0  0  0  0  0  0
  -31.7626  -15.0704   20.2294 O   0  0  0  0  0  0
  -21.6630   -6.8897   21.4229 O   0  0  0  0  0  0
  -22.3428  -14.5506   20.6732 O   0  0  0  0  0  0
  -24.6539  -31.8307   23.1800 C   0  0  0  0  0  0
  -25.9260  -32.4621   23.8202 C   0  0  1  0  0  0
  -27.2073  -27.0205   20.2072 C   0  0  0  0  0  0
  -25.5974  -33.8429   24.2120 N   0  0  0  0  0  0
  -23.4621  -30.4492   21.5240 C   0  0  2  0  0  0
  -24.9089  -28.8466   20.1207 C   0  0  0  0  0  0
  -22.7602  -29.4481   22.4806 C   0  0  0  0  0  0
  -18.0311  -28.1379   22.8500 C   0  0  0  0  0  0
  -24.1489  -36.7239   23.2650 C   0  0  0  0  0  0
  -26.0229  -30.6773   21.3860 C   0  0  0  0  0  0
  -26.0907  -29.2711   20.7440 C   0  0  0  0  0  0
  -27.2404  -28.3800   20.7569 C   0  0  0  0  0  0
  -26.0027  -26.7201   19.5368 C   0  0  0  0  0  0
  -24.8850  -27.5878   19.4953 C   0  0  0  0  0  0
  -23.6946  -29.7671   20.1478 C   0  0  0  0  0  0
  -25.4124  -36.3006   24.0319 C   0  0  1  0  0  0
  -20.5935  -28.3697   23.1242 C   0  0  2  0  0  0
  -20.6787  -26.9399   22.5395 C   0  0  0  0  0  0
  -19.5733  -26.6357   21.5221 C   0  0  0  0  0  0
  -18.1928  -26.7903   22.1665 C   0  0  0  0  0  0
  -19.1579  -28.8863   23.2856 C   0  0  0  0  0  0
  -18.9493  -30.1471   23.8846 C   0  0  0  0  0  0
  -17.6483  -30.6595   24.0539 C   0  0  0  0  0  0
  -25.9081  -34.9373   23.5043 C   0  0  0  0  0  0
  -16.5378  -29.9089   23.6338 C   0  0  0  0  0  0
  -16.7298  -28.6497   23.0374 C   0  0  0  0  0  0
  -26.4548  -31.6518   25.0675 C   0  0  0  0  0  0
  -25.3729  -31.3711   26.1375 C   0  0  0  0  0  0
  -27.0396  -30.2894   24.6281 C   0  0  0  0  0  0
  -27.6043  -32.4310   25.7456 C   0  0  0  0  0  0
  -27.5567  -37.1774   24.8467 C   0  0  0  0  0  0
  -21.4278  -29.2999   22.3562 N   0  0  0  0  0  0
  -26.4276  -37.3737   23.9419 N   0  0  0  0  0  0
  -24.7338  -31.0111   22.0849 N   0  0  0  0  0  0
  -23.4209  -28.8081   23.3027 O   0  0  0  0  0  0
  -28.2695  -26.0137   20.1744 O   0  0  0  0  0  0
  -26.5669  -34.8918   22.4622 O   0  0  0  0  0  0
  -23.5648  -32.1207   23.6988 O   0  0  0  0  0  0
  -27.6455  -21.3386   21.7997 C   0  0  0  0  0  0
  -28.2588  -18.7161   20.1389 C   0  0  0  0  0  0
  -30.1877  -19.1607   21.3600 C   0  0  0  0  0  0
  -26.7153  -22.6521   20.0303 C   0  0  0  0  0  0
  -28.7945  -17.1624   19.8374 C   0  0  0  0  0  0
  -30.8037  -17.7120   20.8864 C   0  0  0  0  0  0
  -26.3866  -22.1240   21.4353 C   0  0  1  0  0  0
  -29.2187  -20.0051   20.3880 C   0  0  0  0  0  0
  -28.2275  -22.8769   20.1135 C   0  0  1  0  0  0
  -25.0894  -21.3036   21.5034 C   0  0  0  0  0  0
  -28.2976  -24.5153   20.7628 C   0  0  0  0  0  0
  -28.5995  -21.4620   20.8581 N   0  0  0  0  0  0
  -29.9364  -16.4815   20.5968 N   0  0  0  0  0  0
  -27.6835  -20.5865   22.7773 O   0  0  0  0  0  0
  -31.4426  -12.9128   19.1797 H   0  0  0  0  0  0
  -30.4610  -11.8246   20.1105 H   0  0  0  0  0  0
  -29.8702  -11.7290   17.6733 H   0  0  0  0  0  0
  -29.5799  -13.4471   17.6480 H   0  0  0  0  0  0
  -27.9845  -11.2856   19.0532 H   0  0  0  0  0  0
  -27.3869  -12.4059   17.8503 H   0  0  0  0  0  0
  -27.5242  -14.2529   19.3543 H   0  0  0  0  0  0
  -28.7954  -12.5010   21.5133 H   0  0  0  0  0  0
  -28.3095  -14.1718   21.6935 H   0  0  0  0  0  0
  -25.2770   -9.5710   22.4764 H   0  0  0  0  0  0
  -24.0014   -7.4669   22.7466 H   0  0  0  0  0  0
  -21.0845   -8.8777   19.8923 H   0  0  0  0  0  0
  -22.3699  -10.9687   19.6147 H   0  0  0  0  0  0
  -21.2020   -7.6126   23.9709 H   0  0  0  0  0  0
  -21.1483   -6.0483   25.9071 H   0  0  0  0  0  0
  -22.0610   -2.7598   23.2771 H   0  0  0  0  0  0
  -22.3966  -11.9852   22.4917 H   0  0  0  0  0  0
  -21.0989  -13.1216   22.2619 H   0  0  0  0  0  0
  -24.6369  -15.8500   20.6062 H   0  0  0  0  0  0
  -26.2510  -15.6562   20.1472 H   0  0  0  0  0  0
  -26.7343  -32.5195   23.0936 H   0  0  0  0  0  0
  -25.0142  -33.9486   25.0290 H   0  0  0  0  0  0
  -22.7697  -31.2779   21.3614 H   0  0  0  0  0  0
  -23.3765  -35.9557   23.3270 H   0  0  0  0  0  0
  -24.3608  -36.8887   22.2075 H   0  0  0  0  0  0
  -23.7204  -37.6414   23.6706 H   0  0  0  0  0  0
  -26.1789  -31.4172   20.5999 H   0  0  0  0  0  0
  -26.8965  -30.7409   22.0245 H   0  0  0  0  0  0
  -28.1473  -28.7117   21.2444 H   0  0  0  0  0  0
  -25.9161  -25.7641   19.0400 H   0  0  0  0  0  0
  -23.9864  -27.2639   18.9819 H   0  0  0  0  0  0
  -23.8399  -30.5321   19.3839 H   0  0  0  0  0  0
  -22.8029  -29.2171   19.8409 H   0  0  0  0  0  0
  -25.1308  -36.1827   25.0812 H   0  0  0  0  0  0
  -21.0024  -28.3263   24.1375 H   0  0  0  0  0  0
  -20.5737  -26.2301   23.3602 H   0  0  0  0  0  0
  -21.6633  -26.7367   22.1139 H   0  0  0  0  0  0
  -19.6888  -25.6264   21.1241 H   0  0  0  0  0  0
  -19.6662  -27.3184   20.6764 H   0  0  0  0  0  0
  -17.4176  -26.6669   21.4090 H   0  0  0  0  0  0
  -18.0320  -26.0038   22.9054 H   0  0  0  0  0  0
  -19.7967  -30.7325   24.2166 H   0  0  0  0  0  0
  -17.5036  -31.6276   24.5127 H   0  0  0  0  0  0
  -15.5377  -30.2981   23.7689 H   0  0  0  0  0  0
  -15.8684  -28.0818   22.7121 H   0  0  0  0  0  0
  -24.5972  -30.6953   25.7756 H   0  0  0  0  0  0
  -24.8864  -32.2877   26.4704 H   0  0  0  0  0  0
  -25.8079  -30.9001   27.0192 H   0  0  0  0  0  0
  -26.3012  -29.6603   24.1295 H   0  0  0  0  0  0
  -27.3983  -29.7219   25.4872 H   0  0  0  0  0  0
  -27.8934  -30.4109   23.9615 H   0  0  0  0  0  0
  -27.2609  -33.3665   26.1894 H   0  0  0  0  0  0
  -28.3929  -32.6744   25.0323 H   0  0  0  0  0  0
  -28.0612  -31.8496   26.5471 H   0  0  0  0  0  0
  -28.2570  -38.0089   24.7544 H   0  0  0  0  0  0
  -28.1072  -36.2606   24.6260 H   0  0  0  0  0  0
  -27.2298  -37.1399   25.8877 H   0  0  0  0  0  0
  -20.9501  -29.8678   21.6693 H   0  0  0  0  0  0
  -26.0118  -38.2796   24.1445 H   0  0  0  0  0  0
  -27.6002  -18.6318   21.0044 H   0  0  0  0  0  0
  -27.5789  -18.9880   19.3296 H   0  0  0  0  0  0
  -31.0307  -19.7974   21.6351 H   0  0  0  0  0  0
  -29.6731  -18.9813   22.3053 H   0  0  0  0  0  0
  -26.1466  -23.5470   19.7757 H   0  0  0  0  0  0
  -26.4885  -21.8982   19.2751 H   0  0  0  0  0  0
  -29.0939  -17.1295   18.7874 H   0  0  0  0  0  0
  -27.9291  -16.5030   19.9007 H   0  0  0  0  0  0
  -31.5503  -17.4195   21.6251 H   0  0  0  0  0  0
  -31.3866  -17.8892   19.9788 H   0  0  0  0  0  0
  -26.3136  -22.9403   22.1541 H   0  0  0  0  0  0
  -29.7721  -20.2044   19.4687 H   0  0  0  0  0  0
  -28.6877  -22.8705   19.1238 H   0  0  0  0  0  0
  -25.1011  -20.4654   20.8059 H   0  0  0  0  0  0
  -24.2305  -21.9311   21.2595 H   0  0  0  0  0  0
  -24.9243  -20.9020   22.5035 H   0  0  0  0  0  0
  -29.2614  -24.5139   21.2685 H   0  0  0  0  0  0
  -27.5974  -24.5849   21.5922 H   0  0  0  0  0  0
  1 25  1  0  0  0
  1 30  2  0  0  0
  1 83  1  0  0  0
  2  3  1  0  0  0
  2 25  1  0  0  0
  2 85  1  0  0  0
  2 86  1  0  0  0
  3  4  1  0  0  0
  3 87  1  0  0  0
  3 88  1  0  0  0
  4  5  1  0  0  0
  4 89  1  0  0  0
  4 90  1  0  0  0
  5  6  1  0  0  0
  5 26  1  0  0  0
  5 91  1  0  0  0
  6 25  1  0  0  0
  6 92  1  0  0  0
  6 93  1  0  0  0
  7  8  2  0  0  0
  7 26  1  0  0  0
  7 29  1  0  0  0
  8  9  1  0  0  0
  8 22  1  0  0  0
  9 10  1  0  0  0
  9 27  2  0  0  0
 10 11  2  0  0  0
 10 15  1  0  0  0
 11 12  1  0  0  0
 11 94  1  0  0  0
 12 13  2  0  0  0
 12 95  1  0  0  0
 13 14  1  0  0  0
 13 31  1  0  0  0
 14 15  2  0  0  0
 14 96  1  0  0  0
 15 97  1  0  0  0
 16 17  2  0  0  0
 16 21  1  0  0  0
 16 31  1  0  0  0
 17 18  1  0  0  0
 17 98  1  0  0  0
 18 19  2  0  0  0
 18 99  1  0  0  0
 19 20  1  0  0  0
 19 24  1  0  0  0
 20 21  2  0  0  0
 20100  1  0  0  0
 21 23  1  0  0  0
 22 28  1  0  0  0
 22 32  2  0  0  0
 26 27  1  0  0  0
 28101  1  0  0  0
 28102  1  0  0  0
 29103  1  0  0  0
 29104  1  0  0  0
 33 34  1  0  0  0
 33 66  1  0  0  0
 33 70  2  0  0  0
 34 36  1  0  0  0
 34 59  1  0  0  0
 34105  1  0  0  0
 35 44  2  0  0  0
 35 45  1  0  0  0
 35 68  1  0  0  0
 36 56  1  0  0  0
 36106  1  0  0  0
 37 39  1  0  0  0
 37 47  1  0  0  0
 37 66  1  0  0  0
 37107  1  0  0  0
 38 43  2  0  0  0
 38 46  1  0  0  0
 38 47  1  0  0  0
 39 64  1  0  0  0
 39 67  2  0  0  0
 40 52  1  0  0  0
 40 53  2  0  0  0
 40 58  1  0  0  0
 41108  1  0  0  0
 41109  1  0  0  0
 41110  1  0  0  0
 41 48  1  0  0  0
 42 43  1  0  0  0
 42 66  1  0  0  0
 42111  1  0  0  0
 42112  1  0  0  0
 43 44  1  0  0  0
 44113  1  0  0  0
 45 46  2  0  0  0
 45114  1  0  0  0
 46115  1  0  0  0
 47116  1  0  0  0
 47117  1  0  0  0
 48 56  1  0  0  0
 48 65  1  0  0  0
 48118  1  0  0  0
 49 50  1  0  0  0
 49 53  1  0  0  0
 49 64  1  0  0  0
 49119  1  0  0  0
 50 51  1  0  0  0
 50120  1  0  0  0
 50121  1  0  0  0
 51 52  1  0  0  0
 51122  1  0  0  0
 51123  1  0  0  0
 52124  1  0  0  0
 52125  1  0  0  0
 53 54  1  0  0  0
 54 55  2  0  0  0
 54126  1  0  0  0
 55 57  1  0  0  0
 55127  1  0  0  0
 56 69  2  0  0  0
 57 58  2  0  0  0
 57128  1  0  0  0
 58129  1  0  0  0
 59 60  1  0  0  0
 59 61  1  0  0  0
 59 62  1  0  0  0
 60130  1  0  0  0
 60131  1  0  0  0
 60132  1  0  0  0
 61133  1  0  0  0
 61134  1  0  0  0
 61135  1  0  0  0
 62136  1  0  0  0
 62137  1  0  0  0
 62138  1  0  0  0
 63 65  1  0  0  0
 63139  1  0  0  0
 63140  1  0  0  0
 63141  1  0  0  0
 64142  1  0  0  0
 65143  1  0  0  0
 68 81  1  0  0  0
 71 77  1  0  0  0
 71 82  1  0  0  0
 71 84  2  0  0  0
 72 75  1  0  0  0
 72 78  1  0  0  0
 72144  1  0  0  0
 72145  1  0  0  0
 73 76  1  0  0  0
 73 78  1  0  0  0
 73146  1  0  0  0
 73147  1  0  0  0
 74 77  1  0  0  0
 74 79  1  0  0  0
 74148  1  0  0  0
 74149  1  0  0  0
 75 83  1  0  0  0
 75150  1  0  0  0
 75151  1  0  0  0
 76 83  1  0  0  0
 76152  1  0  0  0
 76153  1  0  0  0
 77 80  1  0  0  0
 77154  1  0  0  0
 78 82  1  0  0  0
 78155  1  0  0  0
 79 81  1  0  0  0
 79 82  1  0  0  0
 79156  1  0  0  0
 80157  1  0  0  0
 80158  1  0  0  0
 80159  1  0  0  0
 81160  1  0  0  0
 81161  1  0  0  0
M  ISO  4   1 100  68 101  81 101  83 100
M  END
> <chiral flag>
0

> <version>
0

> <s_m_source_file>
/data/baiqing/PycharmProjects/Reinvent-master-3.2/result/LINK_invent/BTK/process_docking_weight1_custom_sum_contain_oxygen_bond_distance_aromatic_linkinvent_7_9_3/rearranged_h_0176.sdf

> <i_m_source_file_index>
29

> <r_mmod_Potential_Energy-OPLS-2005>
1273.35070800781

> <r_mmod_Stretch_Energy-OPLS-2005>
425.714965820312

> <r_mmod_Bend_Energy-OPLS-2005>
502.331695556641

> <r_mmod_Torsional_Energy-OPLS-2005>
390.506317138672

> <r_mmod_Improper_Torsional_Energy-OPLS-2005>
8.51423168182373

> <r_mmod_Van_der_Waal_Energy-OPLS-2005>
111.952972412109

> <r_mmod_Electrostatic_Energy-OPLS-2005>
-268.284088134766

> <r_mmod_Solvation_Energy-OPLS-2005>
-222.588272094727

> <b_mmod_Minimization_Converged-OPLS-2005>
0

> <r_mmod_RMS_Derivative-OPLS-2005>
4.26179504394531

$$$$
29
                    3D
 Structure written by MMmdl.
162170  0  0  1  0            999 V2000
  -30.4228  -15.2562   20.3647 C   0  0  0  0  0  0
  -30.4386  -12.7952   19.5437 C   0  0  0  0  0  0
  -29.5395  -12.5807   18.2986 C   0  0  0  0  0  0
  -28.0850  -12.3066   18.7181 C   0  0  0  0  0  0
  -27.6146  -13.2741   19.8329 C   0  0  2  0  0  0
  -28.6445  -13.4342   20.9734 C   0  0  0  0  0  0
  -25.2385  -13.8242   20.5750 C   0  0  0  0  0  0
  -24.1734  -13.0434   20.9253 C   0  0  0  0  0  0
  -24.6391  -11.6932   20.8760 C   0  0  0  0  0  0
  -23.9088  -10.4291   21.0405 C   0  0  0  0  0  0
  -24.3635   -9.4209   21.9185 C   0  0  0  0  0  0
  -23.6302   -8.2247   22.0758 C   0  0  0  0  0  0
  -22.4285   -8.0283   21.3547 C   0  0  0  0  0  0
  -21.9925   -9.0258   20.4648 C   0  0  0  0  0  0
  -22.7259  -10.2133   20.3055 C   0  0  0  0  0  0
  -21.6858   -6.0737   22.5280 C   0  0  0  0  0  0
  -21.4016   -6.5640   23.8213 C   0  0  0  0  0  0
  -21.3659   -5.6793   24.9174 C   0  0  0  0  0  0
  -21.6045   -4.3055   24.7225 C   0  0  0  0  0  0
  -21.8817   -3.8148   23.4347 C   0  0  0  0  0  0
  -21.9193   -4.6964   22.3403 C   0  0  0  0  0  0
  -22.7755  -13.5190   21.1899 C   0  0  0  0  0  0
  -22.1662   -4.2150   21.0981 F   0  0  0  0  0  0
  -21.5627   -3.4540   25.7738 F   0  0  0  0  0  0
  -29.8841  -13.9379   20.3613 N   0  0  0  0  0  0
  -26.2819  -12.9518   20.3246 N   0  0  0  0  0  0
  -25.9331  -11.6624   20.5736 N   0  0  0  0  0  0
  -22.0411  -12.8170   22.0449 N   0  0  0  0  0  0
  -25.4017  -15.1975   20.4186 N   0  0  0  0  0  0
  -31.6248  -15.2839   20.0657 O   0  0  0  0  0  0
  -21.6645   -6.8881   21.4243 O   0  0  0  0  0  0
  -22.3444  -14.5502   20.6747 O   0  0  0  0  0  0
  -24.6613  -31.8235   23.1701 C   0  0  0  0  0  0
  -25.9299  -32.4584   23.8160 C   0  0  1  0  0  0
  -27.2192  -26.9277   20.1835 C   0  0  0  0  0  0
  -25.5977  -33.8399   24.2073 N   0  0  0  0  0  0
  -23.4762  -30.4339   21.5199 C   0  0  2  0  0  0
  -24.9299  -28.8210   20.1079 C   0  0  0  0  0  0
  -22.7663  -29.4430   22.4787 C   0  0  0  0  0  0
  -18.0321  -28.1403   22.8452 C   0  0  0  0  0  0
  -24.1495  -36.7202   23.2648 C   0  0  0  0  0  0
  -26.0437  -30.6290   21.4007 C   0  0  0  0  0  0
  -26.1110  -29.2185   20.7459 C   0  0  0  0  0  0
  -27.2467  -28.2912   20.7624 C   0  0  0  0  0  0
  -26.0138  -26.6870   19.4852 C   0  0  0  0  0  0
  -24.9071  -27.5765   19.4570 C   0  0  0  0  0  0
  -23.7155  -29.7498   20.1450 C   0  0  0  0  0  0
  -25.4135  -36.2964   24.0303 C   0  0  1  0  0  0
  -20.5944  -28.3744   23.1187 C   0  0  2  0  0  0
  -20.6802  -26.9428   22.5400 C   0  0  0  0  0  0
  -19.5778  -26.6374   21.5209 C   0  0  0  0  0  0
  -18.1957  -26.7939   22.1613 C   0  0  0  0  0  0
  -19.1582  -28.8893   23.2803 C   0  0  0  0  0  0
  -18.9499  -30.1485   23.8836 C   0  0  0  0  0  0
  -17.6493  -30.6594   24.0550 C   0  0  0  0  0  0
  -25.9099  -34.9348   23.5011 C   0  0  0  0  0  0
  -16.5381  -29.9083   23.6341 C   0  0  0  0  0  0
  -16.7304  -28.6507   23.0349 C   0  0  0  0  0  0
  -26.4564  -31.6522   25.0682 C   0  0  0  0  0  0
  -25.3699  -31.3762   26.1344 C   0  0  0  0  0  0
  -27.0465  -30.2894   24.6403 C   0  0  0  0  0  0
  -27.6054  -32.4332   25.7487 C   0  0  0  0  0  0
  -27.5571  -37.1755   24.8470 C   0  0  0  0  0  0
  -21.4334  -29.3037   22.3543 N   0  0  0  0  0  0
  -26.4278  -37.3701   23.9413 N   0  0  0  0  0  0
  -24.7482  -30.9896   22.0841 N   0  0  0  0  0  0
  -23.4217  -28.7999   23.3023 O   0  0  0  0  0  0
  -28.2249  -25.8298   20.3065 O   0  0  0  0  0  0
  -26.5710  -34.8888   22.4612 O   0  0  0  0  0  0
  -23.5682  -32.1215   23.6794 O   0  0  0  0  0  0
  -28.0441  -20.1590   19.3082 C   0  0  0  0  0  0
  -29.1016  -20.9939   20.0964 C   0  0  2  0  0  0
  -29.6562  -18.1155   20.0480 C   0  0  1  0  0  0
  -28.4124  -18.5832   19.1885 C   0  0  2  0  0  0
  -29.6535  -19.5827   20.9365 C   0  0  0  0  0  0
  -28.7794  -19.3775   22.1909 C   0  0  0  0  0  0
  -31.0987  -19.8142   21.4071 C   0  0  0  0  0  0
  -28.1262  -24.2195   19.9308 C   0  0  0  0  0  0
  -28.7807  -22.6996   20.6591 C   0  0  2  0  0  0
  -29.6302  -16.5023   20.5038 N   0  0  0  0  0  0
  -28.5349  -18.1386   17.7895 N   0  3  0  0  0  0
  -30.0367  -23.1368   21.2996 N   0  3  0  0  0  0
  -31.4620  -12.9902   19.2207 H   0  0  0  0  0  0
  -30.4950  -11.8840   20.1411 H   0  0  0  0  0  0
  -29.9181  -11.7567   17.6924 H   0  0  0  0  0  0
  -29.5761  -13.4694   17.6671 H   0  0  0  0  0  0
  -28.0342  -11.2787   19.0800 H   0  0  0  0  0  0
  -27.4200  -12.3604   17.8556 H   0  0  0  0  0  0
  -27.5352  -14.2452   19.3439 H   0  0  0  0  0  0
  -28.8038  -12.4944   21.5039 H   0  0  0  0  0  0
  -28.2831  -14.1489   21.7142 H   0  0  0  0  0  0
  -25.2776   -9.5686   22.4767 H   0  0  0  0  0  0
  -24.0007   -7.4641   22.7483 H   0  0  0  0  0  0
  -21.0856   -8.8780   19.8956 H   0  0  0  0  0  0
  -22.3716  -10.9673   19.6166 H   0  0  0  0  0  0
  -21.2011   -7.6149   23.9716 H   0  0  0  0  0  0
  -21.1480   -6.0523   25.9076 H   0  0  0  0  0  0
  -22.0597   -2.7611   23.2848 H   0  0  0  0  0  0
  -22.4037  -11.9827   22.4820 H   0  0  0  0  0  0
  -21.1028  -13.1185   22.2664 H   0  0  0  0  0  0
  -24.6279  -15.8433   20.5315 H   0  0  0  0  0  0
  -26.2405  -15.6397   20.0722 H   0  0  0  0  0  0
  -26.7362  -32.5117   23.0866 H   0  0  0  0  0  0
  -25.0065  -33.9475   25.0182 H   0  0  0  0  0  0
  -22.7885  -31.2650   21.3496 H   0  0  0  0  0  0
  -23.3770  -35.9517   23.3279 H   0  0  0  0  0  0
  -24.3572  -36.8881   22.2068 H   0  0  0  0  0  0
  -23.7241  -37.6379   23.6726 H   0  0  0  0  0  0
  -26.2211  -31.3691   20.6193 H   0  0  0  0  0  0
  -26.9062  -30.6883   22.0527 H   0  0  0  0  0  0
  -28.1360  -28.5904   21.2988 H   0  0  0  0  0  0
  -25.8838  -25.7403   18.9830 H   0  0  0  0  0  0
  -24.0114  -27.2673   18.9358 H   0  0  0  0  0  0
  -23.8707  -30.5212   19.3901 H   0  0  0  0  0  0
  -22.8242  -29.2070   19.8259 H   0  0  0  0  0  0
  -25.1329  -36.1759   25.0793 H   0  0  0  0  0  0
  -21.0016  -28.3352   24.1318 H   0  0  0  0  0  0
  -20.5690  -26.2360   23.3638 H   0  0  0  0  0  0
  -21.6666  -26.7409   22.1204 H   0  0  0  0  0  0
  -19.6947  -25.6278   21.1261 H   0  0  0  0  0  0
  -19.6726  -27.3166   20.6723 H   0  0  0  0  0  0
  -17.4229  -26.6664   21.4016 H   0  0  0  0  0  0
  -18.0346  -26.0100   22.9025 H   0  0  0  0  0  0
  -19.7978  -30.7303   24.2185 H   0  0  0  0  0  0
  -17.5053  -31.6271   24.5161 H   0  0  0  0  0  0
  -15.5381  -30.2964   23.7712 H   0  0  0  0  0  0
  -15.8702  -28.0814   22.7087 H   0  0  0  0  0  0
  -24.5907  -30.7074   25.7670 H   0  0  0  0  0  0
  -24.8848  -32.2950   26.4640 H   0  0  0  0  0  0
  -25.7938  -30.9029   27.0209 H   0  0  0  0  0  0
  -26.3135  -29.6562   24.1393 H   0  0  0  0  0  0
  -27.4001  -29.7256   25.5044 H   0  0  0  0  0  0
  -27.9069  -30.4088   23.9817 H   0  0  0  0  0  0
  -27.2628  -33.3692   26.1911 H   0  0  0  0  0  0
  -28.3942  -32.6794   25.0365 H   0  0  0  0  0  0
  -28.0634  -31.8552   26.5526 H   0  0  0  0  0  0
  -28.2555  -38.0080   24.7522 H   0  0  0  0  0  0
  -28.1099  -36.2604   24.6287 H   0  0  0  0  0  0
  -27.2285  -37.1380   25.8871 H   0  0  0  0  0  0
  -20.9590  -29.8733   21.6679 H   0  0  0  0  0  0
  -26.0125  -38.2758   24.1431 H   0  0  0  0  0  0
  -27.8725  -20.6051   18.3282 H   0  0  0  0  0  0
  -27.0900  -20.2446   19.8299 H   0  0  0  0  0  0
  -29.8840  -21.1594   19.3540 H   0  0  0  0  0  0
  -30.5382  -18.1812   19.4089 H   0  0  0  0  0  0
  -27.5445  -18.0525   19.5842 H   0  0  0  0  0  0
  -27.7395  -19.1703   21.9388 H   0  0  0  0  0  0
  -28.7868  -20.2607   22.8305 H   0  0  0  0  0  0
  -29.1366  -18.5382   22.7892 H   0  0  0  0  0  0
  -31.7608  -20.0129   20.5629 H   0  0  0  0  0  0
  -31.4899  -18.9367   21.9235 H   0  0  0  0  0  0
  -31.1768  -20.6555   22.0945 H   0  0  0  0  0  0
  -27.0601  -24.0242   19.8254 H   0  0  0  0  0  0
  -28.4905  -24.2022   18.9036 H   0  0  0  0  0  0
  -28.0970  -22.5432   21.4945 H   0  0  0  0  0  0
  -28.7181  -16.2619   20.8643 H   0  0  0  0  0  0
  -29.2903  -18.6100   17.3251 H   0  0  0  0  0  0
  -27.6862  -18.3216   17.2837 H   0  0  0  0  0  0
  -28.7104  -17.1510   17.7520 H   0  0  0  0  0  0
  -30.7558  -23.2956   20.6137 H   0  0  0  0  0  0
  -30.3675  -22.4575   21.9607 H   0  0  0  0  0  0
  -29.8907  -24.0018   21.7935 H   0  0  0  0  0  0
  1 25  1  0  0  0
  1 30  2  0  0  0
  1 80  1  0  0  0
  2  3  1  0  0  0
  2 25  1  0  0  0
  2 83  1  0  0  0
  2 84  1  0  0  0
  3  4  1  0  0  0
  3 85  1  0  0  0
  3 86  1  0  0  0
  4  5  1  0  0  0
  4 87  1  0  0  0
  4 88  1  0  0  0
  5  6  1  0  0  0
  5 26  1  0  0  0
  5 89  1  0  0  0
  6 25  1  0  0  0
  6 90  1  0  0  0
  6 91  1  0  0  0
  7  8  2  0  0  0
  7 26  1  0  0  0
  7 29  1  0  0  0
  8  9  1  0  0  0
  8 22  1  0  0  0
  9 10  1  0  0  0
  9 27  2  0  0  0
 10 11  2  0  0  0
 10 15  1  0  0  0
 11 12  1  0  0  0
 11 92  1  0  0  0
 12 13  2  0  0  0
 12 93  1  0  0  0
 13 14  1  0  0  0
 13 31  1  0  0  0
 14 15  2  0  0  0
 14 94  1  0  0  0
 15 95  1  0  0  0
 16 17  2  0  0  0
 16 21  1  0  0  0
 16 31  1  0  0  0
 17 18  1  0  0  0
 17 96  1  0  0  0
 18 19  2  0  0  0
 18 97  1  0  0  0
 19 20  1  0  0  0
 19 24  1  0  0  0
 20 21  2  0  0  0
 20 98  1  0  0  0
 21 23  1  0  0  0
 22 28  1  0  0  0
 22 32  2  0  0  0
 26 27  1  0  0  0
 28 99  1  0  0  0
 28100  1  0  0  0
 29101  1  0  0  0
 29102  1  0  0  0
 33 34  1  0  0  0
 33 66  1  0  0  0
 33 70  2  0  0  0
 34 36  1  0  0  0
 34 59  1  0  0  0
 34103  1  0  0  0
 35 44  2  0  0  0
 35 45  1  0  0  0
 35 68  1  0  0  0
 36 56  1  0  0  0
 36104  1  0  0  0
 37 39  1  0  0  0
 37 47  1  0  0  0
 37 66  1  0  0  0
 37105  1  0  0  0
 38 43  2  0  0  0
 38 46  1  0  0  0
 38 47  1  0  0  0
 39 64  1  0  0  0
 39 67  2  0  0  0
 40 52  1  0  0  0
 40 53  2  0  0  0
 40 58  1  0  0  0
 41106  1  0  0  0
 41107  1  0  0  0
 41108  1  0  0  0
 41 48  1  0  0  0
 42 43  1  0  0  0
 42 66  1  0  0  0
 42109  1  0  0  0
 42110  1  0  0  0
 43 44  1  0  0  0
 44111  1  0  0  0
 45 46  2  0  0  0
 45112  1  0  0  0
 46113  1  0  0  0
 47114  1  0  0  0
 47115  1  0  0  0
 48 56  1  0  0  0
 48 65  1  0  0  0
 48116  1  0  0  0
 49 50  1  0  0  0
 49 53  1  0  0  0
 49 64  1  0  0  0
 49117  1  0  0  0
 50 51  1  0  0  0
 50118  1  0  0  0
 50119  1  0  0  0
 51 52  1  0  0  0
 51120  1  0  0  0
 51121  1  0  0  0
 52122  1  0  0  0
 52123  1  0  0  0
 53 54  1  0  0  0
 54 55  2  0  0  0
 54124  1  0  0  0
 55 57  1  0  0  0
 55125  1  0  0  0
 56 69  2  0  0  0
 57 58  2  0  0  0
 57126  1  0  0  0
 58127  1  0  0  0
 59 60  1  0  0  0
 59 61  1  0  0  0
 59 62  1  0  0  0
 60128  1  0  0  0
 60129  1  0  0  0
 60130  1  0  0  0
 61131  1  0  0  0
 61132  1  0  0  0
 61133  1  0  0  0
 62134  1  0  0  0
 62135  1  0  0  0
 62136  1  0  0  0
 63 65  1  0  0  0
 63137  1  0  0  0
 63138  1  0  0  0
 63139  1  0  0  0
 64140  1  0  0  0
 65141  1  0  0  0
 68 78  1  0  0  0
 71 74  1  0  0  0
 71142  1  0  0  0
 71143  1  0  0  0
 71 72  1  0  0  0
 72 75  1  0  0  0
 72 79  1  0  0  0
 72144  1  0  0  0
 73 74  1  0  0  0
 73 75  1  0  0  0
 73 80  1  0  0  0
 73145  1  0  0  0
 74 81  1  0  0  0
 74146  1  0  0  0
 75 76  1  0  0  0
 75 77  1  0  0  0
 76147  1  0  0  0
 76148  1  0  0  0
 76149  1  0  0  0
 77150  1  0  0  0
 77151  1  0  0  0
 77152  1  0  0  0
 78 79  1  0  0  0
 78153  1  0  0  0
 78154  1  0  0  0
 79 82  1  0  0  0
 79155  1  0  0  0
 80156  1  0  0  0
 81157  1  0  0  0
 81158  1  0  0  0
 81159  1  0  0  0
 82160  1  0  0  0
 82161  1  0  0  0
 82162  1  0  0  0
M  CHG  2  81   1  82   1
M  ISO  4   1 100  68 101  78 101  80 100
M  END
> <chiral flag>
0

> <version>
0

> <s_m_source_file>
/data/baiqing/PycharmProjects/Reinvent-master-3.2/result/LINK_invent/BTK/process_docking_weight1_custom_sum_contain_oxygen_bond_distance_aromatic_linkinvent_7_9_3/rearranged_h_0176.sdf

> <i_m_source_file_index>
30

> <r_mmod_Potential_Energy-OPLS-2005>
893.434387207031

> <r_mmod_Stretch_Energy-OPLS-2005>
596.394775390625

> <r_mmod_Bend_Energy-OPLS-2005>
496.624938964844

> <r_mmod_Torsional_Energy-OPLS-2005>
340.517333984375

> <r_mmod_Improper_Torsional_Energy-OPLS-2005>
4.47031545639038

> <r_mmod_Van_der_Waal_Energy-OPLS-2005>
100.090522766113

> <r_mmod_Electrostatic_Energy-OPLS-2005>
-90.5968704223633

> <r_mmod_Solvation_Energy-OPLS-2005>
-1008.58923339844

> <b_mmod_Minimization_Converged-OPLS-2005>
0

> <r_mmod_RMS_Derivative-OPLS-2005>
0.930244445800781

$$$$
30
                    3D
 Structure written by MMmdl.
146155  0  0  1  0            999 V2000
  -30.4291  -15.2031   20.3789 C   0  0  0  0  0  0
  -30.4478  -12.7620   19.5163 C   0  0  0  0  0  0
  -29.5353  -12.5668   18.2787 C   0  0  0  0  0  0
  -28.0792  -12.3015   18.7039 C   0  0  0  0  0  0
  -27.6172  -13.2639   19.8263 C   0  0  2  0  0  0
  -28.6548  -13.3936   20.9614 C   0  0  0  0  0  0
  -25.2411  -13.8223   20.5723 C   0  0  0  0  0  0
  -24.1758  -13.0429   20.9261 C   0  0  0  0  0  0
  -24.6398  -11.6922   20.8766 C   0  0  0  0  0  0
  -23.9088  -10.4287   21.0409 C   0  0  0  0  0  0
  -24.3632   -9.4200   21.9187 C   0  0  0  0  0  0
  -23.6300   -8.2239   22.0755 C   0  0  0  0  0  0
  -22.4282   -8.0281   21.3545 C   0  0  0  0  0  0
  -21.9923   -9.0255   20.4646 C   0  0  0  0  0  0
  -22.7258  -10.2131   20.3057 C   0  0  0  0  0  0
  -21.6855   -6.0736   22.5278 C   0  0  0  0  0  0
  -21.4015   -6.5639   23.8212 C   0  0  0  0  0  0
  -21.3660   -5.6792   24.9174 C   0  0  0  0  0  0
  -21.6043   -4.3054   24.7224 C   0  0  0  0  0  0
  -21.8819   -3.8146   23.4346 C   0  0  0  0  0  0
  -21.9194   -4.6963   22.3402 C   0  0  0  0  0  0
  -22.7776  -13.5190   21.1905 C   0  0  0  0  0  0
  -22.1662   -4.2148   21.0980 F   0  0  0  0  0  0
  -21.5628   -3.4539   25.7738 F   0  0  0  0  0  0
  -29.8955  -13.8894   20.3443 N   0  0  0  0  0  0
  -26.2834  -12.9479   20.3206 N   0  0  0  0  0  0
  -25.9331  -11.6597   20.5719 N   0  0  0  0  0  0
  -22.0428  -12.8175   22.0457 N   0  0  0  0  0  0
  -25.4030  -15.1956   20.4109 N   0  0  0  0  0  0
  -31.6494  -15.2513   20.1623 O   0  0  0  0  0  0
  -21.6644   -6.8880   21.4241 O   0  0  0  0  0  0
  -22.3461  -14.5493   20.6742 O   0  0  0  0  0  0
  -24.6587  -31.8276   23.1729 C   0  0  0  0  0  0
  -25.9286  -32.4609   23.8185 C   0  0  1  0  0  0
  -27.2218  -26.9709   20.1842 C   0  0  0  0  0  0
  -25.5968  -33.8421   24.2095 N   0  0  0  0  0  0
  -23.4715  -30.4394   21.5216 C   0  0  2  0  0  0
  -24.9242  -28.8298   20.1156 C   0  0  0  0  0  0
  -22.7645  -29.4462   22.4801 C   0  0  0  0  0  0
  -18.0319  -28.1407   22.8470 C   0  0  0  0  0  0
  -24.1494  -36.7216   23.2651 C   0  0  0  0  0  0
  -26.0373  -30.6490   21.3950 C   0  0  0  0  0  0
  -26.1073  -29.2417   20.7421 C   0  0  0  0  0  0
  -27.2536  -28.3339   20.7481 C   0  0  0  0  0  0
  -26.0088  -26.6958   19.5165 C   0  0  0  0  0  0
  -24.8972  -27.5760   19.4832 C   0  0  0  0  0  0
  -23.7089  -29.7536   20.1481 C   0  0  0  0  0  0
  -25.4137  -36.2981   24.0303 C   0  0  1  0  0  0
  -20.5941  -28.3748   23.1200 C   0  0  2  0  0  0
  -20.6796  -26.9434   22.5404 C   0  0  0  0  0  0
  -19.5770  -26.6379   21.5215 C   0  0  0  0  0  0
  -18.1953  -26.7941   22.1625 C   0  0  0  0  0  0
  -19.1580  -28.8898   23.2823 C   0  0  0  0  0  0
  -18.9491  -30.1489   23.8855 C   0  0  0  0  0  0
  -17.6484  -30.6598   24.0556 C   0  0  0  0  0  0
  -25.9092  -34.9360   23.5019 C   0  0  0  0  0  0
  -16.5375  -29.9086   23.6342 C   0  0  0  0  0  0
  -16.7301  -28.6507   23.0361 C   0  0  0  0  0  0
  -26.4551  -31.6538   25.0697 C   0  0  0  0  0  0
  -25.3688  -31.3772   26.1359 C   0  0  0  0  0  0
  -27.0449  -30.2916   24.6394 C   0  0  0  0  0  0
  -27.6045  -32.4342   25.7501 C   0  0  0  0  0  0
  -27.5561  -37.1785   24.8479 C   0  0  0  0  0  0
  -21.4320  -29.3045   22.3552 N   0  0  0  0  0  0
  -26.4292  -37.3704   23.9389 N   0  0  0  0  0  0
  -24.7436  -30.9980   22.0840 N   0  0  0  0  0  0
  -23.4211  -28.8033   23.3030 O   0  0  0  0  0  0
  -28.2514  -25.9067   20.2279 O   0  0  0  0  0  0
  -26.5699  -34.8887   22.4612 O   0  0  0  0  0  0
  -23.5667  -32.1224   23.6850 O   0  0  0  0  0  0
  -30.3667  -20.3587   20.4825 C   0  0  0  0  0  0
  -28.3061  -18.7558   20.1904 C   0  0  0  0  0  0
  -29.1231  -21.1065   20.2830 C   0  0  0  0  0  0
  -29.5512  -18.0008   20.3825 C   0  0  0  0  0  0
  -29.0175  -23.7113   21.2844 C   0  0  0  0  0  0
  -28.9947  -22.8386   20.0434 C   0  0  1  0  0  0
  -28.0179  -24.2880   20.3146 C   0  0  2  0  0  0
  -28.1025  -20.1694   20.1259 N   0  0  0  0  0  0
  -30.5688  -18.9452   20.5254 N   0  0  0  0  0  0
  -29.5716  -16.3951   20.4448 N   0  0  0  0  0  0
  -31.4666  -12.9713   19.1874 H   0  0  0  0  0  0
  -30.5103  -11.8436   20.1023 H   0  0  0  0  0  0
  -29.9021  -11.7463   17.6603 H   0  0  0  0  0  0
  -29.5746  -13.4617   17.6556 H   0  0  0  0  0  0
  -28.0225  -11.2720   19.0596 H   0  0  0  0  0  0
  -27.4114  -12.3650   17.8439 H   0  0  0  0  0  0
  -27.5452  -14.2407   19.3473 H   0  0  0  0  0  0
  -28.8078  -12.4418   21.4723 H   0  0  0  0  0  0
  -28.3071  -14.0987   21.7181 H   0  0  0  0  0  0
  -25.2772   -9.5676   22.4767 H   0  0  0  0  0  0
  -24.0005   -7.4629   22.7475 H   0  0  0  0  0  0
  -21.0854   -8.8777   19.8952 H   0  0  0  0  0  0
  -22.3716  -10.9671   19.6168 H   0  0  0  0  0  0
  -21.2009   -7.6146   23.9714 H   0  0  0  0  0  0
  -21.1482   -6.0522   25.9077 H   0  0  0  0  0  0
  -22.0598   -2.7608   23.2847 H   0  0  0  0  0  0
  -22.4058  -11.9844   22.4850 H   0  0  0  0  0  0
  -21.1039  -13.1185   22.2656 H   0  0  0  0  0  0
  -24.6184  -15.8321   20.5020 H   0  0  0  0  0  0
  -26.2104  -15.6264   19.9830 H   0  0  0  0  0  0
  -26.7355  -32.5162   23.0903 H   0  0  0  0  0  0
  -25.0069  -33.9505   25.0214 H   0  0  0  0  0  0
  -22.7825  -31.2696   21.3519 H   0  0  0  0  0  0
  -23.3749  -35.9559   23.3334 H   0  0  0  0  0  0
  -24.3557  -36.8836   22.2060 H   0  0  0  0  0  0
  -23.7271  -37.6423   23.6689 H   0  0  0  0  0  0
  -26.2106  -31.3918   20.6152 H   0  0  0  0  0  0
  -26.9000  -30.7069   22.0469 H   0  0  0  0  0  0
  -28.1538  -28.6504   21.2557 H   0  0  0  0  0  0
  -25.8967  -25.7374   19.0299 H   0  0  0  0  0  0
  -23.9972  -27.2548   18.9770 H   0  0  0  0  0  0
  -23.8618  -30.5209   19.3883 H   0  0  0  0  0  0
  -22.8194  -29.2055   19.8325 H   0  0  0  0  0  0
  -25.1342  -36.1791   25.0798 H   0  0  0  0  0  0
  -21.0030  -28.3351   24.1322 H   0  0  0  0  0  0
  -20.5680  -26.2366   23.3641 H   0  0  0  0  0  0
  -21.6660  -26.7416   22.1209 H   0  0  0  0  0  0
  -19.6929  -25.6279   21.1273 H   0  0  0  0  0  0
  -19.6706  -27.3166   20.6726 H   0  0  0  0  0  0
  -17.4221  -26.6683   21.4031 H   0  0  0  0  0  0
  -18.0349  -26.0094   22.9033 H   0  0  0  0  0  0
  -19.7967  -30.7318   24.2204 H   0  0  0  0  0  0
  -17.5037  -31.6273   24.5168 H   0  0  0  0  0  0
  -15.5374  -30.2975   23.7690 H   0  0  0  0  0  0
  -15.8703  -28.0811   22.7100 H   0  0  0  0  0  0
  -24.5877  -30.7117   25.7663 H   0  0  0  0  0  0
  -24.8870  -32.2969   26.4687 H   0  0  0  0  0  0
  -25.7928  -30.8997   27.0202 H   0  0  0  0  0  0
  -26.3112  -29.6595   24.1381 H   0  0  0  0  0  0
  -27.3986  -29.7270   25.5031 H   0  0  0  0  0  0
  -27.9045  -30.4118   23.9797 H   0  0  0  0  0  0
  -27.2614  -33.3682   26.1962 H   0  0  0  0  0  0
  -28.3919  -32.6839   25.0378 H   0  0  0  0  0  0
  -28.0641  -31.8545   26.5516 H   0  0  0  0  0  0
  -28.2615  -38.0040   24.7442 H   0  0  0  0  0  0
  -28.1018  -36.2563   24.6424 H   0  0  0  0  0  0
  -27.2258  -37.1568   25.8879 H   0  0  0  0  0  0
  -20.9568  -29.8733   21.6684 H   0  0  0  0  0  0
  -26.0147  -38.2779   24.1336 H   0  0  0  0  0  0
  -31.2785  -20.9300   20.5785 H   0  0  0  0  0  0
  -27.3954  -18.1879   20.0675 H   0  0  0  0  0  0
  -28.5886  -23.2928   22.1923 H   0  0  0  0  0  0
  -29.9410  -24.2603   21.4548 H   0  0  0  0  0  0
  -29.7586  -23.0338   19.2938 H   0  0  0  0  0  0
  -26.9636  -24.0937   20.5018 H   0  0  0  0  0  0
  -28.6254  -16.0593   20.5262 H   0  0  0  0  0  0
  1 25  1  0  0  0
  1 30  2  0  0  0
  1 80  1  0  0  0
  2  3  1  0  0  0
  2 25  1  0  0  0
  2 81  1  0  0  0
  2 82  1  0  0  0
  3  4  1  0  0  0
  3 83  1  0  0  0
  3 84  1  0  0  0
  4  5  1  0  0  0
  4 85  1  0  0  0
  4 86  1  0  0  0
  5  6  1  0  0  0
  5 26  1  0  0  0
  5 87  1  0  0  0
  6 25  1  0  0  0
  6 88  1  0  0  0
  6 89  1  0  0  0
  7  8  2  0  0  0
  7 26  1  0  0  0
  7 29  1  0  0  0
  8  9  1  0  0  0
  8 22  1  0  0  0
  9 10  1  0  0  0
  9 27  2  0  0  0
 10 11  2  0  0  0
 10 15  1  0  0  0
 11 12  1  0  0  0
 11 90  1  0  0  0
 12 13  2  0  0  0
 12 91  1  0  0  0
 13 14  1  0  0  0
 13 31  1  0  0  0
 14 15  2  0  0  0
 14 92  1  0  0  0
 15 93  1  0  0  0
 16 17  2  0  0  0
 16 21  1  0  0  0
 16 31  1  0  0  0
 17 18  1  0  0  0
 17 94  1  0  0  0
 18 19  2  0  0  0
 18 95  1  0  0  0
 19 20  1  0  0  0
 19 24  1  0  0  0
 20 21  2  0  0  0
 20 96  1  0  0  0
 21 23  1  0  0  0
 22 28  1  0  0  0
 22 32  2  0  0  0
 26 27  1  0  0  0
 28 97  1  0  0  0
 28 98  1  0  0  0
 29 99  1  0  0  0
 29100  1  0  0  0
 33 34  1  0  0  0
 33 66  1  0  0  0
 33 70  2  0  0  0
 34 36  1  0  0  0
 34 59  1  0  0  0
 34101  1  0  0  0
 35 44  2  0  0  0
 35 45  1  0  0  0
 35 68  1  0  0  0
 36 56  1  0  0  0
 36102  1  0  0  0
 37 39  1  0  0  0
 37 47  1  0  0  0
 37 66  1  0  0  0
 37103  1  0  0  0
 38 43  2  0  0  0
 38 46  1  0  0  0
 38 47  1  0  0  0
 39 64  1  0  0  0
 39 67  2  0  0  0
 40 52  1  0  0  0
 40 53  2  0  0  0
 40 58  1  0  0  0
 41104  1  0  0  0
 41105  1  0  0  0
 41106  1  0  0  0
 41 48  1  0  0  0
 42 43  1  0  0  0
 42 66  1  0  0  0
 42107  1  0  0  0
 42108  1  0  0  0
 43 44  1  0  0  0
 44109  1  0  0  0
 45 46  2  0  0  0
 45110  1  0  0  0
 46111  1  0  0  0
 47112  1  0  0  0
 47113  1  0  0  0
 48 56  1  0  0  0
 48 65  1  0  0  0
 48114  1  0  0  0
 49 50  1  0  0  0
 49 53  1  0  0  0
 49 64  1  0  0  0
 49115  1  0  0  0
 50 51  1  0  0  0
 50116  1  0  0  0
 50117  1  0  0  0
 51 52  1  0  0  0
 51118  1  0  0  0
 51119  1  0  0  0
 52120  1  0  0  0
 52121  1  0  0  0
 53 54  1  0  0  0
 54 55  2  0  0  0
 54122  1  0  0  0
 55 57  1  0  0  0
 55123  1  0  0  0
 56 69  2  0  0  0
 57 58  2  0  0  0
 57124  1  0  0  0
 58125  1  0  0  0
 59 60  1  0  0  0
 59 61  1  0  0  0
 59 62  1  0  0  0
 60126  1  0  0  0
 60127  1  0  0  0
 60128  1  0  0  0
 61129  1  0  0  0
 61130  1  0  0  0
 61131  1  0  0  0
 62132  1  0  0  0
 62133  1  0  0  0
 62134  1  0  0  0
 63 65  1  0  0  0
 63135  1  0  0  0
 63136  1  0  0  0
 63137  1  0  0  0
 64138  1  0  0  0
 65139  1  0  0  0
 68 77  1  0  0  0
 71 73  2  0  0  0
 71 79  1  0  0  0
 71140  1  0  0  0
 72 74  1  0  0  0
 72 78  2  0  0  0
 72141  1  0  0  0
 73 78  1  0  0  0
 73 76  1  0  0  0
 74 79  2  0  0  0
 74 80  1  0  0  0
 75 76  1  0  0  0
 75 77  1  0  0  0
 75142  1  0  0  0
 75143  1  0  0  0
 76 77  1  0  0  0
 76144  1  0  0  0
 77145  1  0  0  0
 80146  1  0  0  0
M  ISO  4   1 100  68 101  77 101  80 100
M  END
> <chiral flag>
0

> <version>
0

> <s_m_source_file>
/data/baiqing/PycharmProjects/Reinvent-master-3.2/result/LINK_invent/BTK/process_docking_weight1_custom_sum_contain_oxygen_bond_distance_aromatic_linkinvent_7_9_3/rearranged_h_0176.sdf

> <i_m_source_file_index>
31

> <r_mmod_Potential_Energy-OPLS-2005>
1093.42590332031

> <r_mmod_Stretch_Energy-OPLS-2005>
485.616424560547

> <r_mmod_Bend_Energy-OPLS-2005>
406.490905761719

> <r_mmod_Torsional_Energy-OPLS-2005>
232.078659057617

> <r_mmod_Improper_Torsional_Energy-OPLS-2005>
5.93571329116821

> <r_mmod_Van_der_Waal_Energy-OPLS-2005>
128.814300537109

> <r_mmod_Electrostatic_Energy-OPLS-2005>
-317.310302734375

> <r_mmod_Solvation_Energy-OPLS-2005>
-241.35009765625

> <b_mmod_Minimization_Converged-OPLS-2005>
0

> <r_mmod_RMS_Derivative-OPLS-2005>
0.239492610096931

$$$$
31
                    3D
 Structure written by MMmdl.
158167  0  0  1  0            999 V2000
  -30.5450  -14.9776   20.4296 C   0  0  0  0  0  0
  -30.4321  -12.6077   19.5098 C   0  0  0  0  0  0
  -29.5224  -12.5356   18.2623 C   0  0  0  0  0  0
  -28.0569  -12.3206   18.6818 C   0  0  0  0  0  0
  -27.6286  -13.2547   19.8437 C   0  0  2  0  0  0
  -28.6681  -13.2852   20.9837 C   0  0  0  0  0  0
  -25.2448  -13.8229   20.5752 C   0  0  0  0  0  0
  -24.1759  -13.0445   20.9222 C   0  0  0  0  0  0
  -24.6382  -11.6937   20.8746 C   0  0  0  0  0  0
  -23.9072  -10.4293   21.0386 C   0  0  0  0  0  0
  -24.3617   -9.4214   21.9165 C   0  0  0  0  0  0
  -23.6296   -8.2250   22.0748 C   0  0  0  0  0  0
  -22.4277   -8.0279   21.3539 C   0  0  0  0  0  0
  -21.9911   -9.0254   20.4635 C   0  0  0  0  0  0
  -22.7246  -10.2127   20.3038 C   0  0  0  0  0  0
  -21.6850   -6.0735   22.5273 C   0  0  0  0  0  0
  -21.4017   -6.5631   23.8207 C   0  0  0  0  0  0
  -21.3664   -5.6781   24.9170 C   0  0  0  0  0  0
  -21.6041   -4.3043   24.7215 C   0  0  0  0  0  0
  -21.8815   -3.8149   23.4337 C   0  0  0  0  0  0
  -21.9198   -4.6969   22.3392 C   0  0  0  0  0  0
  -22.7780  -13.5212   21.1877 C   0  0  0  0  0  0
  -22.1657   -4.2154   21.0972 F   0  0  0  0  0  0
  -21.5635   -3.4530   25.7729 F   0  0  0  0  0  0
  -29.9350  -13.7184   20.3811 N   0  0  0  0  0  0
  -26.2872  -12.9479   20.3272 N   0  0  0  0  0  0
  -25.9318  -11.6603   20.5739 N   0  0  0  0  0  0
  -22.0431  -12.8187   22.0420 N   0  0  0  0  0  0
  -25.4140  -15.1960   20.4243 N   0  0  0  0  0  0
  -31.7360  -15.0052   20.0918 O   0  0  0  0  0  0
  -21.6644   -6.8881   21.4229 O   0  0  0  0  0  0
  -22.3462  -14.5523   20.6731 O   0  0  0  0  0  0
  -24.6406  -31.8422   23.1844 C   0  0  0  0  0  0
  -25.9172  -32.4684   23.8244 C   0  0  1  0  0  0
  -27.2215  -27.1128   20.1819 C   0  0  0  0  0  0
  -25.5909  -33.8493   24.2169 N   0  0  0  0  0  0
  -23.4467  -30.4538   21.5325 C   0  0  2  0  0  0
  -24.8984  -28.8650   20.1168 C   0  0  0  0  0  0
  -22.7550  -29.4525   22.4901 C   0  0  0  0  0  0
  -18.0282  -28.1392   22.8483 C   0  0  0  0  0  0
  -24.1487  -36.7251   23.2647 C   0  0  0  0  0  0
  -25.9997  -30.7053   21.3882 C   0  0  0  0  0  0
  -26.0693  -29.3097   20.7412 C   0  0  0  0  0  0
  -27.2266  -28.4469   20.7583 C   0  0  0  0  0  0
  -26.0324  -26.7643   19.5111 C   0  0  0  0  0  0
  -24.8921  -27.6061   19.4868 C   0  0  0  0  0  0
  -23.6747  -29.7719   20.1561 C   0  0  0  0  0  0
  -25.4125  -36.3025   24.0302 C   0  0  1  0  0  0
  -20.5893  -28.3720   23.1258 C   0  0  2  0  0  0
  -20.6776  -26.9431   22.5425 C   0  0  0  0  0  0
  -19.5757  -26.6393   21.5221 C   0  0  0  0  0  0
  -18.1932  -26.7935   22.1621 C   0  0  0  0  0  0
  -19.1538  -28.8872   23.2852 C   0  0  0  0  0  0
  -18.9469  -30.1474   23.8873 C   0  0  0  0  0  0
  -17.6469  -30.6597   24.0572 C   0  0  0  0  0  0
  -25.9071  -34.9399   23.5064 C   0  0  0  0  0  0
  -16.5355  -29.9100   23.6340 C   0  0  0  0  0  0
  -16.7271  -28.6515   23.0365 C   0  0  0  0  0  0
  -26.4508  -31.6550   25.0681 C   0  0  0  0  0  0
  -25.3682  -31.3724   26.1362 C   0  0  0  0  0  0
  -27.0371  -30.2936   24.6272 C   0  0  0  0  0  0
  -27.6047  -32.4328   25.7443 C   0  0  0  0  0  0
  -27.5570  -37.1771   24.8464 C   0  0  0  0  0  0
  -21.4240  -29.3031   22.3626 N   0  0  0  0  0  0
  -26.4286  -37.3742   23.9401 N   0  0  0  0  0  0
  -24.7153  -31.0243   22.0899 N   0  0  0  0  0  0
  -23.4170  -28.8083   23.3073 O   0  0  0  0  0  0
  -28.3327  -26.1962   20.2290 O   0  0  0  0  0  0
  -26.5714  -34.8910   22.4676 O   0  0  0  0  0  0
  -23.5518  -32.1338   23.7034 O   0  0  0  0  0  0
  -29.9227  -22.7224   19.6084 C   0  0  0  0  0  0
  -29.6027  -24.1333   19.5569 C   0  0  0  0  0  0
  -28.4505  -24.7173   20.1808 C   0  0  0  0  0  0
  -27.6858  -23.6513   20.8159 C   0  0  0  0  0  0
  -29.1297  -21.7331   20.2599 C   0  0  0  0  0  0
  -28.9295  -18.2063   21.7822 C   0  0  0  0  0  0
  -28.9206  -16.6316   21.6161 C   0  0  0  0  0  0
  -30.1007  -17.6033   19.8753 C   0  0  0  0  0  0
  -29.1492  -18.8433   20.3978 C   0  0  2  0  0  0
  -30.5792  -25.0495   18.8418 C   0  0  0  0  0  0
  -26.4354  -24.0142   21.5943 C   0  0  0  0  0  0
  -27.9915  -22.2653   20.8318 N   0  0  0  0  0  0
  -29.8107  -16.2165   20.5120 N   0  0  0  0  0  0
  -29.6447  -20.3305   20.3429 N   0  0  0  0  0  0
  -31.4679  -12.7529   19.2002 H   0  0  0  0  0  0
  -30.4188  -11.6596   20.0497 H   0  0  0  0  0  0
  -29.8462  -11.7315   17.5996 H   0  0  0  0  0  0
  -29.6116  -13.4611   17.6897 H   0  0  0  0  0  0
  -27.9599  -11.2822   18.9998 H   0  0  0  0  0  0
  -27.3934  -12.4410   17.8252 H   0  0  0  0  0  0
  -27.5909  -14.2575   19.4159 H   0  0  0  0  0  0
  -28.7624  -12.3038   21.4514 H   0  0  0  0  0  0
  -28.3599  -13.9683   21.7738 H   0  0  0  0  0  0
  -25.2748   -9.5705   22.4754 H   0  0  0  0  0  0
  -24.0007   -7.4651   22.7480 H   0  0  0  0  0  0
  -21.0841   -8.8774   19.8942 H   0  0  0  0  0  0
  -22.3691  -10.9674   19.6157 H   0  0  0  0  0  0
  -21.1990   -7.6134   23.9711 H   0  0  0  0  0  0
  -21.1489   -6.0510   25.9072 H   0  0  0  0  0  0
  -22.0584   -2.7613   23.2837 H   0  0  0  0  0  0
  -22.4059  -11.9858   22.4816 H   0  0  0  0  0  0
  -21.1044  -13.1204   22.2625 H   0  0  0  0  0  0
  -24.6561  -15.8551   20.5646 H   0  0  0  0  0  0
  -26.2717  -15.6356   20.1164 H   0  0  0  0  0  0
  -26.7222  -32.5300   23.0959 H   0  0  0  0  0  0
  -24.9937  -33.9610   25.0228 H   0  0  0  0  0  0
  -22.7476  -31.2762   21.3720 H   0  0  0  0  0  0
  -23.3764  -35.9567   23.3290 H   0  0  0  0  0  0
  -24.3561  -36.8937   22.2070 H   0  0  0  0  0  0
  -23.7239  -37.6427   23.6723 H   0  0  0  0  0  0
  -26.1552  -31.4517   20.6083 H   0  0  0  0  0  0
  -26.8694  -30.7637   22.0313 H   0  0  0  0  0  0
  -28.1235  -28.7855   21.2602 H   0  0  0  0  0  0
  -25.9719  -25.8002   19.0257 H   0  0  0  0  0  0
  -23.9977  -27.2619   18.9848 H   0  0  0  0  0  0
  -23.8072  -30.5429   19.3966 H   0  0  0  0  0  0
  -22.7877  -29.2129   19.8526 H   0  0  0  0  0  0
  -25.1313  -36.1861   25.0791 H   0  0  0  0  0  0
  -20.9962  -28.3345   24.1390 H   0  0  0  0  0  0
  -20.5718  -26.2339   23.3643 H   0  0  0  0  0  0
  -21.6638  -26.7477   22.1208 H   0  0  0  0  0  0
  -19.6951  -25.6304   21.1263 H   0  0  0  0  0  0
  -19.6700  -27.3197   20.6746 H   0  0  0  0  0  0
  -17.4209  -26.6674   21.4017 H   0  0  0  0  0  0
  -18.0314  -26.0067   22.9007 H   0  0  0  0  0  0
  -19.7946  -30.7287   24.2235 H   0  0  0  0  0  0
  -17.5030  -31.6268   24.5196 H   0  0  0  0  0  0
  -15.5363  -30.3012   23.7677 H   0  0  0  0  0  0
  -15.8659  -28.0849   22.7096 H   0  0  0  0  0  0
  -24.5851  -30.7104   25.7653 H   0  0  0  0  0  0
  -24.8857  -32.2883   26.4764 H   0  0  0  0  0  0
  -25.7915  -30.8881   27.0168 H   0  0  0  0  0  0
  -26.2972  -29.6630   24.1313 H   0  0  0  0  0  0
  -27.4023  -29.7261   25.4848 H   0  0  0  0  0  0
  -27.8876  -30.4164   23.9554 H   0  0  0  0  0  0
  -27.2680  -33.3722   26.1842 H   0  0  0  0  0  0
  -28.3901  -32.6746   25.0265 H   0  0  0  0  0  0
  -28.0642  -31.8557   26.5476 H   0  0  0  0  0  0
  -28.2581  -38.0075   24.7515 H   0  0  0  0  0  0
  -28.1067  -36.2599   24.6286 H   0  0  0  0  0  0
  -27.2267  -37.1419   25.8863 H   0  0  0  0  0  0
  -20.9454  -29.8720   21.6783 H   0  0  0  0  0  0
  -26.0156  -38.2812   24.1415 H   0  0  0  0  0  0
  -30.8426  -22.4063   19.1346 H   0  0  0  0  0  0
  -29.7585  -18.4765   22.4388 H   0  0  0  0  0  0
  -28.0199  -18.5698   22.2623 H   0  0  0  0  0  0
  -27.9120  -16.2981   21.3758 H   0  0  0  0  0  0
  -29.2054  -16.1433   22.5488 H   0  0  0  0  0  0
  -31.1457  -17.8340   20.0848 H   0  0  0  0  0  0
  -30.0254  -17.5202   18.7902 H   0  0  0  0  0  0
  -28.2048  -18.8013   19.8531 H   0  0  0  0  0  0
  -31.3736  -25.3615   19.5203 H   0  0  0  0  0  0
  -30.0848  -25.9443   18.4626 H   0  0  0  0  0  0
  -31.0354  -24.5457   17.9897 H   0  0  0  0  0  0
  -26.5410  -24.9945   22.0597 H   0  0  0  0  0  0
  -26.2319  -23.2927   22.3868 H   0  0  0  0  0  0
  -25.5719  -24.0442   20.9292 H   0  0  0  0  0  0
  -30.6219  -20.3244   20.0712 H   0  0  0  0  0  0
  1 25  1  0  0  0
  1 30  2  0  0  0
  1 83  1  0  0  0
  2  3  1  0  0  0
  2 25  1  0  0  0
  2 85  1  0  0  0
  2 86  1  0  0  0
  3  4  1  0  0  0
  3 87  1  0  0  0
  3 88  1  0  0  0
  4  5  1  0  0  0
  4 89  1  0  0  0
  4 90  1  0  0  0
  5  6  1  0  0  0
  5 26  1  0  0  0
  5 91  1  0  0  0
  6 25  1  0  0  0
  6 92  1  0  0  0
  6 93  1  0  0  0
  7  8  2  0  0  0
  7 26  1  0  0  0
  7 29  1  0  0  0
  8  9  1  0  0  0
  8 22  1  0  0  0
  9 10  1  0  0  0
  9 27  2  0  0  0
 10 11  2  0  0  0
 10 15  1  0  0  0
 11 12  1  0  0  0
 11 94  1  0  0  0
 12 13  2  0  0  0
 12 95  1  0  0  0
 13 14  1  0  0  0
 13 31  1  0  0  0
 14 15  2  0  0  0
 14 96  1  0  0  0
 15 97  1  0  0  0
 16 17  2  0  0  0
 16 21  1  0  0  0
 16 31  1  0  0  0
 17 18  1  0  0  0
 17 98  1  0  0  0
 18 19  2  0  0  0
 18 99  1  0  0  0
 19 20  1  0  0  0
 19 24  1  0  0  0
 20 21  2  0  0  0
 20100  1  0  0  0
 21 23  1  0  0  0
 22 28  1  0  0  0
 22 32  2  0  0  0
 26 27  1  0  0  0
 28101  1  0  0  0
 28102  1  0  0  0
 29103  1  0  0  0
 29104  1  0  0  0
 33 34  1  0  0  0
 33 66  1  0  0  0
 33 70  2  0  0  0
 34 36  1  0  0  0
 34 59  1  0  0  0
 34105  1  0  0  0
 35 44  2  0  0  0
 35 45  1  0  0  0
 35 68  1  0  0  0
 36 56  1  0  0  0
 36106  1  0  0  0
 37 39  1  0  0  0
 37 47  1  0  0  0
 37 66  1  0  0  0
 37107  1  0  0  0
 38 43  2  0  0  0
 38 46  1  0  0  0
 38 47  1  0  0  0
 39 64  1  0  0  0
 39 67  2  0  0  0
 40 52  1  0  0  0
 40 53  2  0  0  0
 40 58  1  0  0  0
 41108  1  0  0  0
 41109  1  0  0  0
 41110  1  0  0  0
 41 48  1  0  0  0
 42 43  1  0  0  0
 42 66  1  0  0  0
 42111  1  0  0  0
 42112  1  0  0  0
 43 44  1  0  0  0
 44113  1  0  0  0
 45 46  2  0  0  0
 45114  1  0  0  0
 46115  1  0  0  0
 47116  1  0  0  0
 47117  1  0  0  0
 48 56  1  0  0  0
 48 65  1  0  0  0
 48118  1  0  0  0
 49 50  1  0  0  0
 49 53  1  0  0  0
 49 64  1  0  0  0
 49119  1  0  0  0
 50 51  1  0  0  0
 50120  1  0  0  0
 50121  1  0  0  0
 51 52  1  0  0  0
 51122  1  0  0  0
 51123  1  0  0  0
 52124  1  0  0  0
 52125  1  0  0  0
 53 54  1  0  0  0
 54 55  2  0  0  0
 54126  1  0  0  0
 55 57  1  0  0  0
 55127  1  0  0  0
 56 69  2  0  0  0
 57 58  2  0  0  0
 57128  1  0  0  0
 58129  1  0  0  0
 59 60  1  0  0  0
 59 61  1  0  0  0
 59 62  1  0  0  0
 60130  1  0  0  0
 60131  1  0  0  0
 60132  1  0  0  0
 61133  1  0  0  0
 61134  1  0  0  0
 61135  1  0  0  0
 62136  1  0  0  0
 62137  1  0  0  0
 62138  1  0  0  0
 63 65  1  0  0  0
 63139  1  0  0  0
 63140  1  0  0  0
 63141  1  0  0  0
 64142  1  0  0  0
 65143  1  0  0  0
 68 73  1  0  0  0
 71 72  2  0  0  0
 71 75  1  0  0  0
 71144  1  0  0  0
 72 73  1  0  0  0
 72 80  1  0  0  0
 73 74  2  0  0  0
 74 81  1  0  0  0
 74 82  1  0  0  0
 75 82  2  0  0  0
 75 84  1  0  0  0
 76 77  1  0  0  0
 76 79  1  0  0  0
 76145  1  0  0  0
 76146  1  0  0  0
 77 83  1  0  0  0
 77147  1  0  0  0
 77148  1  0  0  0
 78 79  1  0  0  0
 78 83  1  0  0  0
 78149  1  0  0  0
 78150  1  0  0  0
 79 84  1  0  0  0
 79151  1  0  0  0
 80152  1  0  0  0
 80153  1  0  0  0
 80154  1  0  0  0
 81155  1  0  0  0
 81156  1  0  0  0
 81157  1  0  0  0
 84158  1  0  0  0
M  ISO  4   1 100  68 101  73 101  83 100
M  END
> <chiral flag>
0

> <version>
0

> <s_m_source_file>
/data/baiqing/PycharmProjects/Reinvent-master-3.2/result/LINK_invent/BTK/process_docking_weight1_custom_sum_contain_oxygen_bond_distance_aromatic_linkinvent_7_9_3/rearranged_h_0176.sdf

> <i_m_source_file_index>
32

> <r_mmod_Potential_Energy-OPLS-2005>
473.862152099609

> <r_mmod_Stretch_Energy-OPLS-2005>
226.191040039062

> <r_mmod_Bend_Energy-OPLS-2005>
351.594390869141

> <r_mmod_Torsional_Energy-OPLS-2005>
306.485260009766

> <r_mmod_Improper_Torsional_Energy-OPLS-2005>
12.1716156005859

> <r_mmod_Van_der_Waal_Energy-OPLS-2005>
121.005355834961

> <r_mmod_Electrostatic_Energy-OPLS-2005>
-517.011352539062

> <r_mmod_Solvation_Energy-OPLS-2005>
-227.072692871094

> <b_mmod_Minimization_Converged-OPLS-2005>
0

> <r_mmod_RMS_Derivative-OPLS-2005>
2.51277494430542

$$$$
32
                    3D
 Structure written by MMmdl.
151160  0  0  1  0            999 V2000
  -30.3797  -15.4360   20.3557 C   0  0  0  0  0  0
  -30.4349  -12.9396   19.5168 C   0  0  0  0  0  0
  -29.5388  -12.6036   18.2956 C   0  0  0  0  0  0
  -28.1003  -12.2891   18.7388 C   0  0  0  0  0  0
  -27.6019  -13.2864   19.8116 C   0  0  2  0  0  0
  -28.6324  -13.5422   20.9324 C   0  0  0  0  0  0
  -25.2360  -13.8256   20.5765 C   0  0  0  0  0  0
  -24.1728  -13.0432   20.9275 C   0  0  0  0  0  0
  -24.6399  -11.6933   20.8768 C   0  0  0  0  0  0
  -23.9097  -10.4289   21.0404 C   0  0  0  0  0  0
  -24.3638   -9.4203   21.9184 C   0  0  0  0  0  0
  -23.6303   -8.2244   22.0755 C   0  0  0  0  0  0
  -22.4286   -8.0284   21.3544 C   0  0  0  0  0  0
  -21.9927   -9.0258   20.4646 C   0  0  0  0  0  0
  -22.7266  -10.2132   20.3053 C   0  0  0  0  0  0
  -21.6856   -6.0736   22.5278 C   0  0  0  0  0  0
  -21.4017   -6.5640   23.8211 C   0  0  0  0  0  0
  -21.3659   -5.6792   24.9172 C   0  0  0  0  0  0
  -21.6043   -4.3055   24.7224 C   0  0  0  0  0  0
  -21.8819   -3.8146   23.4345 C   0  0  0  0  0  0
  -21.9194   -4.6963   22.3401 C   0  0  0  0  0  0
  -22.7744  -13.5177   21.1914 C   0  0  0  0  0  0
  -22.1662   -4.2147   21.0979 F   0  0  0  0  0  0
  -21.5627   -3.4539   25.7736 F   0  0  0  0  0  0
  -29.8301  -14.1059   20.2788 N   0  0  0  0  0  0
  -26.2787  -12.9547   20.3211 N   0  0  0  0  0  0
  -25.9339  -11.6641   20.5713 N   0  0  0  0  0  0
  -22.0403  -12.8158   22.0467 N   0  0  0  0  0  0
  -25.3970  -15.1993   20.4197 N   0  0  0  0  0  0
  -31.6155  -15.3974   20.2356 O   0  0  0  0  0  0
  -21.6645   -6.8882   21.4241 O   0  0  0  0  0  0
  -22.3423  -14.5476   20.6750 O   0  0  0  0  0  0
  -24.6735  -31.8129   23.1609 C   0  0  0  0  0  0
  -25.9367  -32.4535   23.8114 C   0  0  1  0  0  0
  -27.2187  -26.8171   20.2061 C   0  0  0  0  0  0
  -25.5991  -33.8353   24.2015 N   0  0  0  0  0  0
  -23.4937  -30.4207   21.5130 C   0  0  2  0  0  0
  -24.9484  -28.7839   20.1207 C   0  0  0  0  0  0
  -22.7718  -29.4389   22.4746 C   0  0  0  0  0  0
  -18.0332  -28.1417   22.8458 C   0  0  0  0  0  0
  -24.1493  -36.7182   23.2652 C   0  0  0  0  0  0
  -26.0701  -30.5847   21.4074 C   0  0  0  0  0  0
  -26.1375  -29.1610   20.7579 C   0  0  0  0  0  0
  -27.2669  -28.2048   20.7663 C   0  0  0  0  0  0
  -25.9967  -26.6203   19.5202 C   0  0  0  0  0  0
  -24.9099  -27.5360   19.4792 C   0  0  0  0  0  0
  -23.7414  -29.7271   20.1445 C   0  0  0  0  0  0
  -25.4138  -36.2938   24.0294 C   0  0  1  0  0  0
  -20.5964  -28.3772   23.1164 C   0  0  2  0  0  0
  -20.6806  -26.9444   22.5402 C   0  0  0  0  0  0
  -19.5780  -26.6376   21.5218 C   0  0  0  0  0  0
  -18.1959  -26.7947   22.1620 C   0  0  0  0  0  0
  -19.1597  -28.8914   23.2797 C   0  0  0  0  0  0
  -18.9506  -30.1495   23.8843 C   0  0  0  0  0  0
  -17.6501  -30.6602   24.0551 C   0  0  0  0  0  0
  -25.9113  -34.9326   23.4984 C   0  0  0  0  0  0
  -16.5389  -29.9088   23.6348 C   0  0  0  0  0  0
  -16.7314  -28.6508   23.0368 C   0  0  0  0  0  0
  -26.4580  -31.6519   25.0687 C   0  0  0  0  0  0
  -25.3675  -31.3801   26.1319 C   0  0  0  0  0  0
  -27.0494  -30.2872   24.6500 C   0  0  0  0  0  0
  -27.6051  -32.4352   25.7499 C   0  0  0  0  0  0
  -27.5565  -37.1747   24.8469 C   0  0  0  0  0  0
  -21.4378  -29.3042   22.3497 N   0  0  0  0  0  0
  -26.4274  -37.3684   23.9412 N   0  0  0  0  0  0
  -24.7684  -30.9688   22.0803 N   0  0  0  0  0  0
  -23.4218  -28.7970   23.3033 O   0  0  0  0  0  0
  -28.2017  -25.6545   20.2099 O   0  0  0  0  0  0
  -26.5735  -34.8879   22.4588 O   0  0  0  0  0  0
  -23.5778  -32.1150   23.6632 O   0  0  0  0  0  0
  -28.5938  -22.3545   20.1627 C   0  0  0  0  0  0
  -28.9391  -21.0641   20.8259 C   0  0  0  0  0  0
  -28.7923  -21.7359   18.8553 C   0  0  0  0  0  0
  -29.1388  -20.4656   22.1966 C   0  0  0  0  0  0
  -29.5344  -18.9024   22.0896 C   0  0  0  0  0  0
  -29.8612  -18.4384   20.6214 C   0  0  2  0  0  0
  -28.5967  -22.4459   17.5472 C   0  0  0  0  0  0
  -27.9073  -24.0148   20.5406 C   0  0  0  0  0  0
  -29.1706  -20.3996   18.7849 N   0  0  0  0  0  0
  -29.2250  -19.8661   20.0373 N   0  0  0  0  0  0
  -29.6205  -16.7528   20.3729 N   0  0  0  0  0  0
  -31.4370  -13.1825   19.1612 H   0  0  0  0  0  0
  -30.5590  -12.0684   20.1619 H   0  0  0  0  0  0
  -29.9531  -11.7642   17.7356 H   0  0  0  0  0  0
  -29.5291  -13.4542   17.6122 H   0  0  0  0  0  0
  -28.0952  -11.2791   19.1513 H   0  0  0  0  0  0
  -27.4272  -12.2738   17.8806 H   0  0  0  0  0  0
  -27.4887  -14.2287   19.2742 H   0  0  0  0  0  0
  -28.8511  -12.6341   21.4962 H   0  0  0  0  0  0
  -28.2397  -14.2662   21.6481 H   0  0  0  0  0  0
  -25.2778   -9.5678   22.4768 H   0  0  0  0  0  0
  -24.0004   -7.4635   22.7480 H   0  0  0  0  0  0
  -21.0857   -8.8785   19.8954 H   0  0  0  0  0  0
  -22.3725  -10.9673   19.6166 H   0  0  0  0  0  0
  -21.2013   -7.6147   23.9713 H   0  0  0  0  0  0
  -21.1480   -6.0523   25.9074 H   0  0  0  0  0  0
  -22.0598   -2.7608   23.2846 H   0  0  0  0  0  0
  -22.4040  -11.9829   22.4856 H   0  0  0  0  0  0
  -21.1015  -13.1165   22.2672 H   0  0  0  0  0  0
  -24.6231  -15.8459   20.5290 H   0  0  0  0  0  0
  -26.2334  -15.6418   20.0635 H   0  0  0  0  0  0
  -26.7443  -32.5042   23.0827 H   0  0  0  0  0  0
  -25.0078  -33.9414   25.0128 H   0  0  0  0  0  0
  -22.8130  -31.2555   21.3314 H   0  0  0  0  0  0
  -23.3771  -35.9497   23.3281 H   0  0  0  0  0  0
  -24.3568  -36.8867   22.2073 H   0  0  0  0  0  0
  -23.7235  -37.6353   23.6735 H   0  0  0  0  0  0
  -26.2606  -31.3168   20.6214 H   0  0  0  0  0  0
  -26.9266  -30.6489   22.0666 H   0  0  0  0  0  0
  -28.1702  -28.5011   21.2804 H   0  0  0  0  0  0
  -25.8523  -25.6749   19.0167 H   0  0  0  0  0  0
  -24.0112  -27.2415   18.9546 H   0  0  0  0  0  0
  -23.9097  -30.4910   19.3845 H   0  0  0  0  0  0
  -22.8483  -29.1896   19.8212 H   0  0  0  0  0  0
  -25.1339  -36.1720   25.0785 H   0  0  0  0  0  0
  -21.0048  -28.3384   24.1291 H   0  0  0  0  0  0
  -20.5683  -26.2392   23.3650 H   0  0  0  0  0  0
  -21.6666  -26.7403   22.1210 H   0  0  0  0  0  0
  -19.6942  -25.6272   21.1282 H   0  0  0  0  0  0
  -19.6721  -27.3152   20.6722 H   0  0  0  0  0  0
  -17.4229  -26.6693   21.4022 H   0  0  0  0  0  0
  -18.0349  -26.0105   22.9032 H   0  0  0  0  0  0
  -19.7984  -30.7321   24.2194 H   0  0  0  0  0  0
  -17.5054  -31.6278   24.5159 H   0  0  0  0  0  0
  -15.5387  -30.2974   23.7701 H   0  0  0  0  0  0
  -15.8715  -28.0803   22.7126 H   0  0  0  0  0  0
  -24.5885  -30.7126   25.7615 H   0  0  0  0  0  0
  -24.8833  -32.3011   26.4578 H   0  0  0  0  0  0
  -25.7873  -30.9074   27.0206 H   0  0  0  0  0  0
  -26.3187  -29.6517   24.1486 H   0  0  0  0  0  0
  -27.3968  -29.7276   25.5195 H   0  0  0  0  0  0
  -27.9147  -30.4032   23.9974 H   0  0  0  0  0  0
  -27.2611  -33.3715   26.1907 H   0  0  0  0  0  0
  -28.3945  -32.6814   25.0385 H   0  0  0  0  0  0
  -28.0625  -31.8593   26.5554 H   0  0  0  0  0  0
  -28.2557  -38.0066   24.7510 H   0  0  0  0  0  0
  -28.1084  -36.2587   24.6298 H   0  0  0  0  0  0
  -27.2281  -37.1390   25.8872 H   0  0  0  0  0  0
  -20.9654  -29.8724   21.6605 H   0  0  0  0  0  0
  -26.0114  -38.2738   24.1422 H   0  0  0  0  0  0
  -28.2410  -20.5928   22.8015 H   0  0  0  0  0  0
  -29.9359  -21.0078   22.7058 H   0  0  0  0  0  0
  -28.6757  -18.3263   22.4345 H   0  0  0  0  0  0
  -30.3488  -18.6573   22.7716 H   0  0  0  0  0  0
  -30.9357  -18.5548   20.4738 H   0  0  0  0  0  0
  -27.8395  -23.2255   17.6290 H   0  0  0  0  0  0
  -28.2757  -21.7624   16.7606 H   0  0  0  0  0  0
  -29.5215  -22.9199   17.2188 H   0  0  0  0  0  0
  -27.8411  -24.0451   21.6282 H   0  0  0  0  0  0
  -26.8596  -23.9371   20.2521 H   0  0  0  0  0  0
  -28.6323  -16.5607   20.3051 H   0  0  0  0  0  0
  1 25  1  0  0  0
  1 30  2  0  0  0
  1 81  1  0  0  0
  2  3  1  0  0  0
  2 25  1  0  0  0
  2 82  1  0  0  0
  2 83  1  0  0  0
  3  4  1  0  0  0
  3 84  1  0  0  0
  3 85  1  0  0  0
  4  5  1  0  0  0
  4 86  1  0  0  0
  4 87  1  0  0  0
  5  6  1  0  0  0
  5 26  1  0  0  0
  5 88  1  0  0  0
  6 25  1  0  0  0
  6 89  1  0  0  0
  6 90  1  0  0  0
  7  8  2  0  0  0
  7 26  1  0  0  0
  7 29  1  0  0  0
  8  9  1  0  0  0
  8 22  1  0  0  0
  9 10  1  0  0  0
  9 27  2  0  0  0
 10 11  2  0  0  0
 10 15  1  0  0  0
 11 12  1  0  0  0
 11 91  1  0  0  0
 12 13  2  0  0  0
 12 92  1  0  0  0
 13 14  1  0  0  0
 13 31  1  0  0  0
 14 15  2  0  0  0
 14 93  1  0  0  0
 15 94  1  0  0  0
 16 17  2  0  0  0
 16 21  1  0  0  0
 16 31  1  0  0  0
 17 18  1  0  0  0
 17 95  1  0  0  0
 18 19  2  0  0  0
 18 96  1  0  0  0
 19 20  1  0  0  0
 19 24  1  0  0  0
 20 21  2  0  0  0
 20 97  1  0  0  0
 21 23  1  0  0  0
 22 28  1  0  0  0
 22 32  2  0  0  0
 26 27  1  0  0  0
 28 98  1  0  0  0
 28 99  1  0  0  0
 29100  1  0  0  0
 29101  1  0  0  0
 33 34  1  0  0  0
 33 66  1  0  0  0
 33 70  2  0  0  0
 34 36  1  0  0  0
 34 59  1  0  0  0
 34102  1  0  0  0
 35 44  2  0  0  0
 35 45  1  0  0  0
 35 68  1  0  0  0
 36 56  1  0  0  0
 36103  1  0  0  0
 37 39  1  0  0  0
 37 47  1  0  0  0
 37 66  1  0  0  0
 37104  1  0  0  0
 38 43  2  0  0  0
 38 46  1  0  0  0
 38 47  1  0  0  0
 39 64  1  0  0  0
 39 67  2  0  0  0
 40 52  1  0  0  0
 40 53  2  0  0  0
 40 58  1  0  0  0
 41105  1  0  0  0
 41106  1  0  0  0
 41107  1  0  0  0
 41 48  1  0  0  0
 42 43  1  0  0  0
 42 66  1  0  0  0
 42108  1  0  0  0
 42109  1  0  0  0
 43 44  1  0  0  0
 44110  1  0  0  0
 45 46  2  0  0  0
 45111  1  0  0  0
 46112  1  0  0  0
 47113  1  0  0  0
 47114  1  0  0  0
 48 56  1  0  0  0
 48 65  1  0  0  0
 48115  1  0  0  0
 49 50  1  0  0  0
 49 53  1  0  0  0
 49 64  1  0  0  0
 49116  1  0  0  0
 50 51  1  0  0  0
 50117  1  0  0  0
 50118  1  0  0  0
 51 52  1  0  0  0
 51119  1  0  0  0
 51120  1  0  0  0
 52121  1  0  0  0
 52122  1  0  0  0
 53 54  1  0  0  0
 54 55  2  0  0  0
 54123  1  0  0  0
 55 57  1  0  0  0
 55124  1  0  0  0
 56 69  2  0  0  0
 57 58  2  0  0  0
 57125  1  0  0  0
 58126  1  0  0  0
 59 60  1  0  0  0
 59 61  1  0  0  0
 59 62  1  0  0  0
 60127  1  0  0  0
 60128  1  0  0  0
 60129  1  0  0  0
 61130  1  0  0  0
 61131  1  0  0  0
 61132  1  0  0  0
 62133  1  0  0  0
 62134  1  0  0  0
 62135  1  0  0  0
 63 65  1  0  0  0
 63136  1  0  0  0
 63137  1  0  0  0
 63138  1  0  0  0
 64139  1  0  0  0
 65140  1  0  0  0
 68 78  1  0  0  0
 71 72  2  0  0  0
 71 73  1  0  0  0
 71 78  1  0  0  0
 72 74  1  0  0  0
 72 80  1  0  0  0
 73 77  1  0  0  0
 73 79  2  0  0  0
 74 75  1  0  0  0
 74141  1  0  0  0
 74142  1  0  0  0
 75 76  1  0  0  0
 75143  1  0  0  0
 75144  1  0  0  0
 76 80  1  0  0  0
 76 81  1  0  0  0
 76145  1  0  0  0
 77146  1  0  0  0
 77147  1  0  0  0
 77148  1  0  0  0
 78149  1  0  0  0
 78150  1  0  0  0
 79 80  1  0  0  0
 81151  1  0  0  0
M  ISO  4   1 100  68 101  78 101  81 100
M  END
> <chiral flag>
0

> <version>
0

> <s_m_source_file>
/data/baiqing/PycharmProjects/Reinvent-master-3.2/result/LINK_invent/BTK/process_docking_weight1_custom_sum_contain_oxygen_bond_distance_aromatic_linkinvent_7_9_3/rearranged_h_0176.sdf

> <i_m_source_file_index>
33

> <r_mmod_Potential_Energy-OPLS-2005>
1685.86413574219

> <r_mmod_Stretch_Energy-OPLS-2005>
707.568969726562

> <r_mmod_Bend_Energy-OPLS-2005>
614.721435546875

> <r_mmod_Torsional_Energy-OPLS-2005>
267.491333007812

> <r_mmod_Improper_Torsional_Energy-OPLS-2005>
8.60778331756592

> <r_mmod_Van_der_Waal_Energy-OPLS-2005>
101.068733215332

> <r_mmod_Electrostatic_Energy-OPLS-2005>
-429.4404296875

> <r_mmod_Solvation_Energy-OPLS-2005>
-232.244064331055

> <b_mmod_Minimization_Converged-OPLS-2005>
0

> <r_mmod_RMS_Derivative-OPLS-2005>
0.64843076467514

$$$$
33
                    3D
 Structure written by MMmdl.
160169  0  0  1  0            999 V2000
  -30.6943  -14.5608   20.5074 C   0  0  0  0  0  0
  -30.4155  -12.3429   19.4519 C   0  0  0  0  0  0
  -29.4988  -12.4952   18.2209 C   0  0  0  0  0  0
  -28.0210  -12.3518   18.6314 C   0  0  0  0  0  0
  -27.6521  -13.2211   19.8638 C   0  0  2  0  0  0
  -28.6958  -13.0789   20.9954 C   0  0  0  0  0  0
  -25.2547  -13.8189   20.5692 C   0  0  0  0  0  0
  -24.1816  -13.0443   20.9190 C   0  0  0  0  0  0
  -24.6391  -11.6917   20.8740 C   0  0  0  0  0  0
  -23.9064  -10.4296   21.0405 C   0  0  0  0  0  0
  -24.3617   -9.4212   21.9182 C   0  0  0  0  0  0
  -23.6292   -8.2247   22.0754 C   0  0  0  0  0  0
  -22.4276   -8.0281   21.3544 C   0  0  0  0  0  0
  -21.9908   -9.0254   20.4648 C   0  0  0  0  0  0
  -22.7235  -10.2135   20.3055 C   0  0  0  0  0  0
  -21.6854   -6.0734   22.5276 C   0  0  0  0  0  0
  -21.4015   -6.5638   23.8210 C   0  0  0  0  0  0
  -21.3660   -5.6792   24.9172 C   0  0  0  0  0  0
  -21.6044   -4.3055   24.7224 C   0  0  0  0  0  0
  -21.8818   -3.8146   23.4345 C   0  0  0  0  0  0
  -21.9193   -4.6961   22.3401 C   0  0  0  0  0  0
  -22.7840  -13.5232   21.1849 C   0  0  0  0  0  0
  -22.1661   -4.2147   21.0978 F   0  0  0  0  0  0
  -21.5629   -3.4539   25.7736 F   0  0  0  0  0  0
  -30.0184  -13.3758   20.4283 N   0  0  0  0  0  0
  -26.2981  -12.9382   20.3335 N   0  0  0  0  0  0
  -25.9323  -11.6531   20.5770 N   0  0  0  0  0  0
  -22.0480  -12.8227   22.0406 N   0  0  0  0  0  0
  -25.4249  -15.1910   20.4115 N   0  0  0  0  0  0
  -31.8586  -14.6391   20.1154 O   0  0  0  0  0  0
  -21.6640   -6.8878   21.4239 O   0  0  0  0  0  0
  -22.3528  -14.5537   20.6697 O   0  0  0  0  0  0
  -24.6206  -31.8649   23.2077 C   0  0  0  0  0  0
  -25.9081  -32.4806   23.8380 C   0  0  1  0  0  0
  -27.2172  -27.3680   20.1038 C   0  0  0  0  0  0
  -25.5920  -33.8605   24.2309 N   0  0  0  0  0  0
  -23.4103  -30.4915   21.5495 C   0  0  2  0  0  0
  -24.8537  -28.9570   20.1099 C   0  0  0  0  0  0
  -22.7443  -29.4649   22.4957 C   0  0  0  0  0  0
  -18.0280  -28.1383   22.8489 C   0  0  0  0  0  0
  -24.1487  -36.7308   23.2637 C   0  0  0  0  0  0
  -25.9474  -30.8102   21.3721 C   0  0  0  0  0  0
  -26.0199  -29.4422   20.7142 C   0  0  0  0  0  0
  -27.2041  -28.6569   20.7070 C   0  0  0  0  0  0
  -26.0301  -26.9299   19.4685 C   0  0  0  0  0  0
  -24.8581  -27.7042   19.4804 C   0  0  0  0  0  0
  -23.6209  -29.8321   20.1621 C   0  0  0  0  0  0
  -25.4110  -36.3101   24.0333 C   0  0  1  0  0  0
  -20.5876  -28.3680   23.1302 C   0  0  2  0  0  0
  -20.6770  -26.9411   22.5414 C   0  0  0  0  0  0
  -19.5747  -26.6387   21.5214 C   0  0  0  0  0  0
  -18.1927  -26.7927   22.1627 C   0  0  0  0  0  0
  -19.1531  -28.8847   23.2893 C   0  0  0  0  0  0
  -18.9457  -30.1452   23.8906 C   0  0  0  0  0  0
  -17.6458  -30.6588   24.0566 C   0  0  0  0  0  0
  -25.9043  -34.9469   23.5117 C   0  0  0  0  0  0
  -16.5349  -29.9089   23.6329 C   0  0  0  0  0  0
  -16.7269  -28.6507   23.0347 C   0  0  0  0  0  0
  -26.4485  -31.6596   25.0729 C   0  0  0  0  0  0
  -25.3736  -31.3721   26.1467 C   0  0  0  0  0  0
  -27.0322  -30.3029   24.6143 C   0  0  0  0  0  0
  -27.6052  -32.4320   25.7499 C   0  0  0  0  0  0
  -27.5579  -37.1811   24.8465 C   0  0  0  0  0  0
  -21.4163  -29.3044   22.3701 N   0  0  0  0  0  0
  -26.4293  -37.3789   23.9407 N   0  0  0  0  0  0
  -24.6780  -31.0705   22.1006 N   0  0  0  0  0  0
  -23.4198  -28.8179   23.3003 O   0  0  0  0  0  0
  -28.3498  -26.5561   20.1604 O   0  0  0  0  0  0
  -26.5603  -34.8924   22.4678 O   0  0  0  0  0  0
  -23.5387  -32.1427   23.7442 O   0  0  0  0  0  0
  -31.6079  -17.5155   20.3987 C   0  0  0  0  0  0
  -29.6252  -19.3704   20.6965 C   0  0  0  0  0  0
  -30.2894  -17.0749   20.7070 C   0  0  0  0  0  0
  -30.9672  -19.7366   20.3987 C   0  0  0  0  0  0
  -28.4580  -21.3388   22.0452 C   0  0  0  0  0  0
  -28.4375  -20.3392   20.9015 C   0  0  1  0  0  0
  -28.1903  -21.8601   20.6493 C   0  0  1  0  0  0
  -32.0232  -21.5255   21.5119 C   0  0  0  0  0  0
  -29.2758  -24.1903   20.5332 C   0  0  0  0  0  0
  -28.1701  -25.1202   19.9350 C   0  0  0  0  0  0
  -31.9369  -18.8173   20.2364 N   0  0  0  0  0  0
  -29.3202  -18.0374   20.8582 N   0  0  0  0  0  0
  -29.9727  -15.6645   20.8598 N   0  0  0  0  0  0
  -31.4088  -21.0548   20.2718 N   0  0  0  0  0  0
  -29.2471  -22.7505   20.0812 N   0  3  0  0  0  0
  -31.4625  -12.4208   19.1541 H   0  0  0  0  0  0
  -30.3083  -11.3495   19.8903 H   0  0  0  0  0  0
  -29.7508  -11.7472   17.4682 H   0  0  0  0  0  0
  -29.6625  -13.4675   17.7534 H   0  0  0  0  0  0
  -27.8457  -11.2996   18.8576 H   0  0  0  0  0  0
  -27.3702  -12.5937   17.7902 H   0  0  0  0  0  0
  -27.6726  -14.2570   19.5248 H   0  0  0  0  0  0
  -28.6854  -12.0673   21.4037 H   0  0  0  0  0  0
  -28.4570  -13.7400   21.8298 H   0  0  0  0  0  0
  -25.2759   -9.5688   22.4759 H   0  0  0  0  0  0
  -23.9997   -7.4640   22.7477 H   0  0  0  0  0  0
  -21.0836   -8.8770   19.8959 H   0  0  0  0  0  0
  -22.3685  -10.9672   19.6167 H   0  0  0  0  0  0
  -21.2009   -7.6147   23.9711 H   0  0  0  0  0  0
  -21.1485   -6.0524   25.9074 H   0  0  0  0  0  0
  -22.0597   -2.7607   23.2845 H   0  0  0  0  0  0
  -22.4089  -11.9890   22.4805 H   0  0  0  0  0  0
  -21.1100  -13.1260   22.2609 H   0  0  0  0  0  0
  -24.6566  -15.8443   20.5215 H   0  0  0  0  0  0
  -26.2764  -15.6345   20.0901 H   0  0  0  0  0  0
  -26.7148  -32.5493   23.1133 H   0  0  0  0  0  0
  -25.0083  -33.9757   25.0464 H   0  0  0  0  0  0
  -22.7015  -31.3108   21.4126 H   0  0  0  0  0  0
  -23.3746  -35.9644   23.3308 H   0  0  0  0  0  0
  -24.3581  -36.8917   22.2050 H   0  0  0  0  0  0
  -23.7244  -37.6515   23.6649 H   0  0  0  0  0  0
  -26.0707  -31.5753   20.6044 H   0  0  0  0  0  0
  -26.8317  -30.8593   21.9958 H   0  0  0  0  0  0
  -28.0985  -29.0230   21.1918 H   0  0  0  0  0  0
  -25.9736  -25.9809   18.9567 H   0  0  0  0  0  0
  -23.9652  -27.3305   18.9982 H   0  0  0  0  0  0
  -23.7366  -30.6113   19.4079 H   0  0  0  0  0  0
  -22.7417  -29.2604   19.8601 H   0  0  0  0  0  0
  -25.1287  -36.1960   25.0825 H   0  0  0  0  0  0
  -20.9970  -28.3251   24.1421 H   0  0  0  0  0  0
  -20.5678  -26.2288   23.3607 H   0  0  0  0  0  0
  -21.6640  -26.7449   22.1204 H   0  0  0  0  0  0
  -19.6907  -25.6300   21.1239 H   0  0  0  0  0  0
  -19.6684  -27.3202   20.6749 H   0  0  0  0  0  0
  -17.4195  -26.6676   21.4030 H   0  0  0  0  0  0
  -18.0329  -26.0069   22.9024 H   0  0  0  0  0  0
  -19.7932  -30.7265   24.2280 H   0  0  0  0  0  0
  -17.5013  -31.6269   24.5165 H   0  0  0  0  0  0
  -15.5350  -30.2995   23.7647 H   0  0  0  0  0  0
  -15.8669  -28.0832   22.7053 H   0  0  0  0  0  0
  -24.5905  -30.7070   25.7805 H   0  0  0  0  0  0
  -24.8933  -32.2887   26.4904 H   0  0  0  0  0  0
  -25.8078  -30.8897   27.0233 H   0  0  0  0  0  0
  -26.2885  -29.6791   24.1168 H   0  0  0  0  0  0
  -27.4042  -29.7264   25.4623 H   0  0  0  0  0  0
  -27.8744  -30.4331   23.9343 H   0  0  0  0  0  0
  -27.2660  -33.3607   26.2099 H   0  0  0  0  0  0
  -28.3855  -32.6899   25.0326 H   0  0  0  0  0  0
  -28.0727  -31.8431   26.5399 H   0  0  0  0  0  0
  -28.2602  -38.0103   24.7506 H   0  0  0  0  0  0
  -28.1069  -36.2634   24.6299 H   0  0  0  0  0  0
  -27.2297  -37.1472   25.8869 H   0  0  0  0  0  0
  -20.9323  -29.8784   21.6938 H   0  0  0  0  0  0
  -26.0179  -38.2867   24.1402 H   0  0  0  0  0  0
  -32.4510  -16.8553   20.2883 H   0  0  0  0  0  0
  -29.4135  -21.5859   22.4989 H   0  0  0  0  0  0
  -27.6195  -21.3108   22.7381 H   0  0  0  0  0  0
  -27.5299  -19.7433   20.8178 H   0  0  0  0  0  0
  -27.1803  -22.1995   20.4270 H   0  0  0  0  0  0
  -31.6481  -21.0025   22.3939 H   0  0  0  0  0  0
  -31.8511  -22.5930   21.6559 H   0  0  0  0  0  0
  -33.1034  -21.3719   21.4746 H   0  0  0  0  0  0
  -29.2500  -24.2305   21.6222 H   0  0  0  0  0  0
  -30.2443  -24.5930   20.2371 H   0  0  0  0  0  0
  -27.2247  -24.7879   20.3665 H   0  0  0  0  0  0
  -28.1060  -24.9588   18.8578 H   0  0  0  0  0  0
  -29.0273  -15.4689   21.1447 H   0  0  0  0  0  0
  -32.1378  -21.0603   19.5595 H   0  0  0  0  0  0
  -30.1472  -22.3068   20.2736 H   0  0  0  0  0  0
  -29.1629  -22.7346   19.0764 H   0  0  0  0  0  0
  1 25  1  0  0  0
  1 30  2  0  0  0
  1 83  1  0  0  0
  2  3  1  0  0  0
  2 25  1  0  0  0
  2 86  1  0  0  0
  2 87  1  0  0  0
  3  4  1  0  0  0
  3 88  1  0  0  0
  3 89  1  0  0  0
  4  5  1  0  0  0
  4 90  1  0  0  0
  4 91  1  0  0  0
  5  6  1  0  0  0
  5 26  1  0  0  0
  5 92  1  0  0  0
  6 25  1  0  0  0
  6 93  1  0  0  0
  6 94  1  0  0  0
  7  8  2  0  0  0
  7 26  1  0  0  0
  7 29  1  0  0  0
  8  9  1  0  0  0
  8 22  1  0  0  0
  9 10  1  0  0  0
  9 27  2  0  0  0
 10 11  2  0  0  0
 10 15  1  0  0  0
 11 12  1  0  0  0
 11 95  1  0  0  0
 12 13  2  0  0  0
 12 96  1  0  0  0
 13 14  1  0  0  0
 13 31  1  0  0  0
 14 15  2  0  0  0
 14 97  1  0  0  0
 15 98  1  0  0  0
 16 17  2  0  0  0
 16 21  1  0  0  0
 16 31  1  0  0  0
 17 18  1  0  0  0
 17 99  1  0  0  0
 18 19  2  0  0  0
 18100  1  0  0  0
 19 20  1  0  0  0
 19 24  1  0  0  0
 20 21  2  0  0  0
 20101  1  0  0  0
 21 23  1  0  0  0
 22 28  1  0  0  0
 22 32  2  0  0  0
 26 27  1  0  0  0
 28102  1  0  0  0
 28103  1  0  0  0
 29104  1  0  0  0
 29105  1  0  0  0
 33 34  1  0  0  0
 33 66  1  0  0  0
 33 70  2  0  0  0
 34 36  1  0  0  0
 34 59  1  0  0  0
 34106  1  0  0  0
 35 44  2  0  0  0
 35 45  1  0  0  0
 35 68  1  0  0  0
 36 56  1  0  0  0
 36107  1  0  0  0
 37 39  1  0  0  0
 37 47  1  0  0  0
 37 66  1  0  0  0
 37108  1  0  0  0
 38 43  2  0  0  0
 38 46  1  0  0  0
 38 47  1  0  0  0
 39 64  1  0  0  0
 39 67  2  0  0  0
 40 52  1  0  0  0
 40 53  2  0  0  0
 40 58  1  0  0  0
 41109  1  0  0  0
 41110  1  0  0  0
 41111  1  0  0  0
 41 48  1  0  0  0
 42 43  1  0  0  0
 42 66  1  0  0  0
 42112  1  0  0  0
 42113  1  0  0  0
 43 44  1  0  0  0
 44114  1  0  0  0
 45 46  2  0  0  0
 45115  1  0  0  0
 46116  1  0  0  0
 47117  1  0  0  0
 47118  1  0  0  0
 48 56  1  0  0  0
 48 65  1  0  0  0
 48119  1  0  0  0
 49 50  1  0  0  0
 49 53  1  0  0  0
 49 64  1  0  0  0
 49120  1  0  0  0
 50 51  1  0  0  0
 50121  1  0  0  0
 50122  1  0  0  0
 51 52  1  0  0  0
 51123  1  0  0  0
 51124  1  0  0  0
 52125  1  0  0  0
 52126  1  0  0  0
 53 54  1  0  0  0
 54 55  2  0  0  0
 54127  1  0  0  0
 55 57  1  0  0  0
 55128  1  0  0  0
 56 69  2  0  0  0
 57 58  2  0  0  0
 57129  1  0  0  0
 58130  1  0  0  0
 59 60  1  0  0  0
 59 61  1  0  0  0
 59 62  1  0  0  0
 60131  1  0  0  0
 60132  1  0  0  0
 60133  1  0  0  0
 61134  1  0  0  0
 61135  1  0  0  0
 61136  1  0  0  0
 62137  1  0  0  0
 62138  1  0  0  0
 62139  1  0  0  0
 63 65  1  0  0  0
 63140  1  0  0  0
 63141  1  0  0  0
 63142  1  0  0  0
 64143  1  0  0  0
 65144  1  0  0  0
 68 80  1  0  0  0
 71 73  2  0  0  0
 71 81  1  0  0  0
 71145  1  0  0  0
 72 74  1  0  0  0
 72 82  2  0  0  0
 72 76  1  0  0  0
 73 82  1  0  0  0
 73 83  1  0  0  0
 74 81  2  0  0  0
 74 84  1  0  0  0
 75 76  1  0  0  0
 75 77  1  0  0  0
 75146  1  0  0  0
 75147  1  0  0  0
 76 77  1  0  0  0
 76148  1  0  0  0
 77 85  1  0  0  0
 77149  1  0  0  0
 78 84  1  0  0  0
 78150  1  0  0  0
 78151  1  0  0  0
 78152  1  0  0  0
 79 80  1  0  0  0
 79 85  1  0  0  0
 79153  1  0  0  0
 79154  1  0  0  0
 80155  1  0  0  0
 80156  1  0  0  0
 83157  1  0  0  0
 84158  1  0  0  0
 85159  1  0  0  0
 85160  1  0  0  0
M  CHG  1  85   1
M  ISO  4   1 100  68 101  80 101  83 100
M  END
> <chiral flag>
0

> <version>
0

> <s_m_source_file>
/data/baiqing/PycharmProjects/Reinvent-master-3.2/result/LINK_invent/BTK/process_docking_weight1_custom_sum_contain_oxygen_bond_distance_aromatic_linkinvent_7_9_3/rearranged_h_0176.sdf

> <i_m_source_file_index>
34

> <r_mmod_Potential_Energy-OPLS-2005>
-133.645401000977

> <r_mmod_Stretch_Energy-OPLS-2005>
62.8428764343262

> <r_mmod_Bend_Energy-OPLS-2005>
156.475219726562

> <r_mmod_Torsional_Energy-OPLS-2005>
283.19873046875

> <r_mmod_Improper_Torsional_Energy-OPLS-2005>
10.8905334472656

> <r_mmod_Van_der_Waal_Energy-OPLS-2005>
172.690948486328

> <r_mmod_Electrostatic_Energy-OPLS-2005>
-402.079895019531

> <r_mmod_Solvation_Energy-OPLS-2005>
-448.963989257812

> <b_mmod_Minimization_Converged-OPLS-2005>
0

> <r_mmod_RMS_Derivative-OPLS-2005>
0.693201005458832

$$$$
34
                    3D
 Structure written by MMmdl.
177186  0  0  1  0            999 V2000
  -30.5116  -14.7177   20.5671 C   0  0  0  0  0  0
  -30.4399  -12.4555   19.4844 C   0  0  0  0  0  0
  -29.5094  -12.5235   18.2473 C   0  0  0  0  0  0
  -28.0313  -12.3353   18.6483 C   0  0  0  0  0  0
  -27.6380  -13.2038   19.8703 C   0  0  2  0  0  0
  -28.6661  -13.0425   21.0026 C   0  0  0  0  0  0
  -25.2544  -13.8045   20.5824 C   0  0  0  0  0  0
  -24.1738  -13.0342   20.9218 C   0  0  0  0  0  0
  -24.6259  -11.6824   20.8736 C   0  0  0  0  0  0
  -23.8935  -10.4207   21.0398 C   0  0  0  0  0  0
  -24.3517   -9.4124   21.9152 C   0  0  0  0  0  0
  -23.6210   -8.2136   22.0706 C   0  0  0  0  0  0
  -22.4198   -8.0210   21.3480 C   0  0  0  0  0  0
  -21.9831   -9.0170   20.4567 C   0  0  0  0  0  0
  -22.7150  -10.2063   20.3012 C   0  0  0  0  0  0
  -21.6810   -6.0695   22.5276 C   0  0  0  0  0  0
  -21.3970   -6.5576   23.8238 C   0  0  0  0  0  0
  -21.3705   -5.6742   24.9200 C   0  0  0  0  0  0
  -21.6053   -4.3001   24.7270 C   0  0  0  0  0  0
  -21.8813   -3.8084   23.4386 C   0  0  0  0  0  0
  -21.9172   -4.6903   22.3437 C   0  0  0  0  0  0
  -22.7808  -13.5240   21.1781 C   0  0  0  0  0  0
  -22.1601   -4.2068   21.1027 F   0  0  0  0  0  0
  -21.5715   -3.4511   25.7796 F   0  0  0  0  0  0
  -29.9666  -13.4605   20.4675 N   0  0  0  0  0  0
  -26.2865  -12.9169   20.3248 N   0  0  0  0  0  0
  -25.9137  -11.6350   20.5614 N   0  0  0  0  0  0
  -22.0387  -12.8284   22.0380 N   0  0  0  0  0  0
  -25.4356  -15.1722   20.4472 N   0  0  0  0  0  0
  -31.6308  -14.9151   20.0862 O   0  0  0  0  0  0
  -21.6534   -6.8812   21.4251 O   0  0  0  0  0  0
  -22.3614  -14.5522   20.6538 O   0  0  0  0  0  0
  -24.6285  -31.8550   23.1961 C   0  0  0  0  0  0
  -25.9120  -32.4718   23.8327 C   0  0  1  0  0  0
  -27.2177  -27.2460   20.1864 C   0  0  0  0  0  0
  -25.5944  -33.8548   24.2275 N   0  0  0  0  0  0
  -23.4251  -30.4744   21.5326 C   0  0  2  0  0  0
  -24.8760  -28.9068   20.1037 C   0  0  0  0  0  0
  -22.7474  -29.4629   22.4893 C   0  0  0  0  0  0
  -18.0328  -28.1371   22.8436 C   0  0  0  0  0  0
  -24.1480  -36.7299   23.2652 C   0  0  0  0  0  0
  -25.9630  -30.7609   21.3738 C   0  0  0  0  0  0
  -26.0350  -29.3833   20.7269 C   0  0  0  0  0  0
  -27.2048  -28.5619   20.7597 C   0  0  0  0  0  0
  -26.0449  -26.8290   19.5200 C   0  0  0  0  0  0
  -24.8851  -27.6411   19.4831 C   0  0  0  0  0  0
  -23.6451  -29.7916   20.1487 C   0  0  0  0  0  0
  -25.4094  -36.3080   24.0356 C   0  0  1  0  0  0
  -20.5894  -28.3723   23.1286 C   0  0  2  0  0  0
  -20.6761  -26.9445   22.5498 C   0  0  0  0  0  0
  -19.5761  -26.6217   21.5317 C   0  0  0  0  0  0
  -18.1955  -26.7885   22.1648 C   0  0  0  0  0  0
  -19.1565  -28.8871   23.2864 C   0  0  0  0  0  0
  -18.9524  -30.1492   23.8821 C   0  0  0  0  0  0
  -17.6524  -30.6610   24.0526 C   0  0  0  0  0  0
  -25.9038  -34.9433   23.5132 C   0  0  0  0  0  0
  -16.5427  -29.9065   23.6358 C   0  0  0  0  0  0
  -16.7326  -28.6488   23.0344 C   0  0  0  0  0  0
  -26.4482  -31.6550   25.0718 C   0  0  0  0  0  0
  -25.3739  -31.3701   26.1459 C   0  0  0  0  0  0
  -27.0356  -30.3010   24.6156 C   0  0  0  0  0  0
  -27.6013  -32.4326   25.7477 C   0  0  0  0  0  0
  -27.5566  -37.1783   24.8476 C   0  0  0  0  0  0
  -21.4186  -29.3138   22.3665 N   0  0  0  0  0  0
  -26.4271  -37.3782   23.9429 N   0  0  0  0  0  0
  -24.6890  -31.0495   22.0910 N   0  0  0  0  0  0
  -23.4222  -28.8195   23.2969 O   0  0  0  0  0  0
  -28.3356  -26.3917   20.3372 O   0  0  0  0  0  0
  -26.5605  -34.8919   22.4691 O   0  0  0  0  0  0
  -23.5474  -32.1429   23.7245 O   0  0  0  0  0  0
  -29.1749  -22.4117   19.1776 C   0  0  0  0  0  0
  -28.2764  -23.8466   20.8950 C   0  0  0  0  0  0
  -28.6362  -22.4913   20.4744 C   0  0  0  0  0  0
  -29.2970  -23.5698   18.3842 C   0  0  0  0  0  0
  -28.4264  -25.0001   20.0157 C   0  0  0  0  0  0
  -30.9644  -18.8228   23.0241 C   0  0  0  0  0  0
  -29.8757  -17.2153   21.4957 C   0  0  2  0  0  0
  -30.2958  -20.1077   22.4542 C   0  0  1  0  0  0
  -28.8472  -18.4620   21.1204 C   0  0  2  0  0  0
  -31.2626  -17.6831   22.0174 C   0  0  0  0  0  0
  -29.8452  -23.5023   16.9805 C   0  0  0  0  0  0
  -31.3647  -21.1819   22.2015 C   0  0  0  0  0  0
  -32.1818  -18.1163   20.8516 C   0  0  0  0  0  0
  -31.9940  -16.5710   22.8126 C   0  0  0  0  0  0
  -26.5531  -18.4548   19.8621 C   0  0  0  0  0  0
  -28.3551  -21.1240   21.2569 C   0  0  0  0  0  0
  -28.0847  -18.2045   19.7871 C   0  0  0  0  0  0
  -28.9415  -24.8098   18.7873 N   0  0  0  0  0  0
  -29.7113  -15.7233   21.1105 N   0  0  0  0  0  0
  -29.3679  -19.9349   21.2787 N   0  3  1  0  0  0
  -31.4747  -12.6375   19.1829 H   0  0  0  0  0  0
  -30.4234  -11.4584   19.9257 H   0  0  0  0  0  0
  -29.8016  -11.7662   17.5123 H   0  0  0  0  0  0
  -29.6247  -13.4999   17.7686 H   0  0  0  0  0  0
  -27.8800  -11.2825   18.8939 H   0  0  0  0  0  0
  -27.3743  -12.5454   17.8046 H   0  0  0  0  0  0
  -27.6543  -14.2445   19.5565 H   0  0  0  0  0  0
  -28.7013  -11.9943   21.2962 H   0  0  0  0  0  0
  -28.3870  -13.5952   21.8993 H   0  0  0  0  0  0
  -25.2653   -9.5663   22.4726 H   0  0  0  0  0  0
  -23.9945   -7.4554   22.7438 H   0  0  0  0  0  0
  -21.0786   -8.8790   19.8799 H   0  0  0  0  0  0
  -22.3682  -10.9656   19.6168 H   0  0  0  0  0  0
  -21.1868   -7.6068   23.9763 H   0  0  0  0  0  0
  -21.1565   -6.0423   25.9131 H   0  0  0  0  0  0
  -22.0538   -2.7531   23.2936 H   0  0  0  0  0  0
  -22.4071  -11.9985   22.4715 H   0  0  0  0  0  0
  -21.1007  -13.1265   22.2669 H   0  0  0  0  0  0
  -24.7026  -15.8370   20.6655 H   0  0  0  0  0  0
  -26.2968  -15.6250   20.1826 H   0  0  0  0  0  0
  -26.7157  -32.5377   23.1036 H   0  0  0  0  0  0
  -24.9962  -33.9668   25.0343 H   0  0  0  0  0  0
  -22.7244  -31.2971   21.3775 H   0  0  0  0  0  0
  -23.3728  -35.9641   23.3295 H   0  0  0  0  0  0
  -24.3550  -36.8926   22.2063 H   0  0  0  0  0  0
  -23.7235  -37.6512   23.6664 H   0  0  0  0  0  0
  -26.0782  -31.5116   20.5948 H   0  0  0  0  0  0
  -26.8483  -30.8310   21.9920 H   0  0  0  0  0  0
  -28.0838  -28.9022   21.2886 H   0  0  0  0  0  0
  -26.0046  -25.8455   19.0713 H   0  0  0  0  0  0
  -23.9946  -27.2659   18.9983 H   0  0  0  0  0  0
  -23.7717  -30.5629   19.3869 H   0  0  0  0  0  0
  -22.7607  -29.2256   19.8427 H   0  0  0  0  0  0
  -25.1266  -36.1890   25.0848 H   0  0  0  0  0  0
  -20.9991  -28.3344   24.1421 H   0  0  0  0  0  0
  -21.6672  -26.7434   22.1430 H   0  0  0  0  0  0
  -20.5564  -26.2458   23.3780 H   0  0  0  0  0  0
  -19.6883  -25.6004   21.1638 H   0  0  0  0  0  0
  -19.6652  -27.2792   20.6665 H   0  0  0  0  0  0
  -17.4257  -26.6622   21.4024 H   0  0  0  0  0  0
  -18.0353  -26.0045   22.9078 H   0  0  0  0  0  0
  -19.8047  -30.7330   24.2121 H   0  0  0  0  0  0
  -17.5166  -31.6318   24.5118 H   0  0  0  0  0  0
  -15.5433  -30.3009   23.7662 H   0  0  0  0  0  0
  -15.8751  -28.0771   22.7104 H   0  0  0  0  0  0
  -24.5888  -30.7063   25.7801 H   0  0  0  0  0  0
  -24.8954  -32.2907   26.4839 H   0  0  0  0  0  0
  -25.8126  -30.8894   27.0222 H   0  0  0  0  0  0
  -26.2976  -29.6696   24.1194 H   0  0  0  0  0  0
  -27.4145  -29.7289   25.4617 H   0  0  0  0  0  0
  -27.8789  -30.4333   23.9373 H   0  0  0  0  0  0
  -27.2580  -33.3607   26.2032 H   0  0  0  0  0  0
  -28.3822  -32.6888   25.0321 H   0  0  0  0  0  0
  -28.0671  -31.8455   26.5376 H   0  0  0  0  0  0
  -28.2601  -38.0055   24.7515 H   0  0  0  0  0  0
  -28.1057  -36.2611   24.6316 H   0  0  0  0  0  0
  -27.2321  -37.1471   25.8888 H   0  0  0  0  0  0
  -20.9399  -29.8854   21.6856 H   0  0  0  0  0  0
  -26.0149  -38.2865   24.1397 H   0  0  0  0  0  0
  -29.4533  -21.4542   18.7670 H   0  0  0  0  0  0
  -27.8843  -24.0041   21.8948 H   0  0  0  0  0  0
  -30.3063  -18.4400   23.8091 H   0  0  0  0  0  0
  -31.8525  -19.0642   23.6113 H   0  0  0  0  0  0
  -29.4056  -16.9760   22.4491 H   0  0  0  0  0  0
  -29.6851  -20.4669   23.2869 H   0  0  0  0  0  0
  -28.0754  -18.4267   21.8949 H   0  0  0  0  0  0
  -30.8763  -23.8473   16.9963 H   0  0  0  0  0  0
  -29.2855  -24.1607   16.3175 H   0  0  0  0  0  0
  -29.8214  -22.4950   16.5665 H   0  0  0  0  0  0
  -30.9233  -22.1627   22.0425 H   0  0  0  0  0  0
  -32.0014  -20.9454   21.3493 H   0  0  0  0  0  0
  -32.0130  -21.2773   23.0722 H   0  0  0  0  0  0
  -32.3027  -17.2962   20.1443 H   0  0  0  0  0  0
  -33.1786  -18.4042   21.2003 H   0  0  0  0  0  0
  -31.7619  -18.9352   20.2710 H   0  0  0  0  0  0
  -31.3401  -16.0807   23.5313 H   0  0  0  0  0  0
  -32.8641  -16.9330   23.3608 H   0  0  0  0  0  0
  -32.3857  -15.7995   22.1596 H   0  0  0  0  0  0
  -26.1336  -18.3111   20.8611 H   0  0  0  0  0  0
  -25.9873  -17.8032   19.1928 H   0  0  0  0  0  0
  -26.3021  -19.4726   19.5794 H   0  0  0  0  0  0
  -27.4188  -20.7825   20.8383 H   0  0  0  0  0  0
  -28.0787  -21.3943   22.2757 H   0  0  0  0  0  0
  -28.2283  -17.1670   19.4761 H   0  0  0  0  0  0
  -28.5138  -18.7967   18.9768 H   0  0  0  0  0  0
  -28.8653  -15.3277   21.5025 H   0  0  0  0  0  0
  -29.9406  -20.0933   20.4627 H   0  0  0  0  0  0
  1 25  1  0  0  0
  1 30  2  0  0  0
  1 89  1  0  0  0
  2  3  1  0  0  0
  2 25  1  0  0  0
  2 91  1  0  0  0
  2 92  1  0  0  0
  3  4  1  0  0  0
  3 93  1  0  0  0
  3 94  1  0  0  0
  4  5  1  0  0  0
  4 95  1  0  0  0
  4 96  1  0  0  0
  5  6  1  0  0  0
  5 26  1  0  0  0
  5 97  1  0  0  0
  6 25  1  0  0  0
  6 98  1  0  0  0
  6 99  1  0  0  0
  7  8  2  0  0  0
  7 26  1  0  0  0
  7 29  1  0  0  0
  8  9  1  0  0  0
  8 22  1  0  0  0
  9 10  1  0  0  0
  9 27  2  0  0  0
 10 11  2  0  0  0
 10 15  1  0  0  0
 11 12  1  0  0  0
 11100  1  0  0  0
 12 13  2  0  0  0
 12101  1  0  0  0
 13 14  1  0  0  0
 13 31  1  0  0  0
 14 15  2  0  0  0
 14102  1  0  0  0
 15103  1  0  0  0
 16 17  2  0  0  0
 16 21  1  0  0  0
 16 31  1  0  0  0
 17 18  1  0  0  0
 17104  1  0  0  0
 18 19  2  0  0  0
 18105  1  0  0  0
 19 20  1  0  0  0
 19 24  1  0  0  0
 20 21  2  0  0  0
 20106  1  0  0  0
 21 23  1  0  0  0
 22 28  1  0  0  0
 22 32  2  0  0  0
 26 27  1  0  0  0
 28107  1  0  0  0
 28108  1  0  0  0
 29109  1  0  0  0
 29110  1  0  0  0
 33 34  1  0  0  0
 33 66  1  0  0  0
 33 70  2  0  0  0
 34 36  1  0  0  0
 34 59  1  0  0  0
 34111  1  0  0  0
 35 44  2  0  0  0
 35 45  1  0  0  0
 35 68  1  0  0  0
 36 56  1  0  0  0
 36112  1  0  0  0
 37 39  1  0  0  0
 37 47  1  0  0  0
 37 66  1  0  0  0
 37113  1  0  0  0
 38 43  2  0  0  0
 38 46  1  0  0  0
 38 47  1  0  0  0
 39 64  1  0  0  0
 39 67  2  0  0  0
 40 52  1  0  0  0
 40 53  2  0  0  0
 40 58  1  0  0  0
 41114  1  0  0  0
 41115  1  0  0  0
 41116  1  0  0  0
 41 48  1  0  0  0
 42 43  1  0  0  0
 42 66  1  0  0  0
 42117  1  0  0  0
 42118  1  0  0  0
 43 44  1  0  0  0
 44119  1  0  0  0
 45 46  2  0  0  0
 45120  1  0  0  0
 46121  1  0  0  0
 47122  1  0  0  0
 47123  1  0  0  0
 48 56  1  0  0  0
 48 65  1  0  0  0
 48124  1  0  0  0
 49 50  1  0  0  0
 49 53  1  0  0  0
 49 64  1  0  0  0
 49125  1  0  0  0
 50 51  1  0  0  0
 50126  1  0  0  0
 50127  1  0  0  0
 51 52  1  0  0  0
 51128  1  0  0  0
 51129  1  0  0  0
 52130  1  0  0  0
 52131  1  0  0  0
 53 54  1  0  0  0
 54 55  2  0  0  0
 54132  1  0  0  0
 55 57  1  0  0  0
 55133  1  0  0  0
 56 69  2  0  0  0
 57 58  2  0  0  0
 57134  1  0  0  0
 58135  1  0  0  0
 59 60  1  0  0  0
 59 61  1  0  0  0
 59 62  1  0  0  0
 60136  1  0  0  0
 60137  1  0  0  0
 60138  1  0  0  0
 61139  1  0  0  0
 61140  1  0  0  0
 61141  1  0  0  0
 62142  1  0  0  0
 62143  1  0  0  0
 62144  1  0  0  0
 63 65  1  0  0  0
 63145  1  0  0  0
 63146  1  0  0  0
 63147  1  0  0  0
 64148  1  0  0  0
 65149  1  0  0  0
 68 75  1  0  0  0
 71 73  2  0  0  0
 71 74  1  0  0  0
 71150  1  0  0  0
 72 73  1  0  0  0
 72 75  2  0  0  0
 72151  1  0  0  0
 73 86  1  0  0  0
 74 81  1  0  0  0
 74 88  2  0  0  0
 75 88  1  0  0  0
 76 78  1  0  0  0
 76 80  1  0  0  0
 76152  1  0  0  0
 76153  1  0  0  0
 77 79  1  0  0  0
 77 80  1  0  0  0
 77 89  1  0  0  0
 77154  1  0  0  0
 78 82  1  0  0  0
 78 90  1  0  0  0
 78155  1  0  0  0
 79 87  1  0  0  0
 79 90  1  0  0  0
 79156  1  0  0  0
 80 83  1  0  0  0
 80 84  1  0  0  0
 81157  1  0  0  0
 81158  1  0  0  0
 81159  1  0  0  0
 82160  1  0  0  0
 82161  1  0  0  0
 82162  1  0  0  0
 83163  1  0  0  0
 83164  1  0  0  0
 83165  1  0  0  0
 84166  1  0  0  0
 84167  1  0  0  0
 84168  1  0  0  0
 85 87  1  0  0  0
 85169  1  0  0  0
 85170  1  0  0  0
 85171  1  0  0  0
 86172  1  0  0  0
 86173  1  0  0  0
 86 90  1  0  0  0
 87174  1  0  0  0
 87175  1  0  0  0
 89176  1  0  0  0
 90177  1  0  0  0
M  CHG  1  90   1
M  ISO  4   1 100  68 101  75 101  89 100
M  END
> <chiral flag>
0

> <version>
0

> <s_m_source_file>
/data/baiqing/PycharmProjects/Reinvent-master-3.2/result/LINK_invent/BTK/process_docking_weight1_custom_sum_contain_oxygen_bond_distance_aromatic_linkinvent_7_9_3/rearranged_h_0176.sdf

> <i_m_source_file_index>
35

> <r_mmod_Potential_Energy-OPLS-2005>
68.2961578369141

> <r_mmod_Stretch_Energy-OPLS-2005>
152.297424316406

> <r_mmod_Bend_Energy-OPLS-2005>
276.346649169922

> <r_mmod_Torsional_Energy-OPLS-2005>
318.182678222656

> <r_mmod_Improper_Torsional_Energy-OPLS-2005>
5.10736846923828

> <r_mmod_Van_der_Waal_Energy-OPLS-2005>
149.99870300293

> <r_mmod_Electrostatic_Energy-OPLS-2005>
-479.364227294922

> <r_mmod_Solvation_Energy-OPLS-2005>
-445.279571533203

> <b_mmod_Minimization_Converged-OPLS-2005>
0

> <r_mmod_RMS_Derivative-OPLS-2005>
10.2244091033936

$$$$
35
                    3D
 Structure written by MMmdl.
171180  0  0  1  0            999 V2000
  -30.6843  -14.5809   20.4076 C   0  0  0  0  0  0
  -30.4292  -12.3381   19.4269 C   0  0  0  0  0  0
  -29.4853  -12.3954   18.2070 C   0  0  0  0  0  0
  -28.0082  -12.3012   18.6382 C   0  0  0  0  0  0
  -27.6466  -13.2101   19.8447 C   0  0  2  0  0  0
  -28.7078  -13.1199   20.9640 C   0  0  0  0  0  0
  -25.2558  -13.8156   20.5738 C   0  0  0  0  0  0
  -24.1809  -13.0424   20.9217 C   0  0  0  0  0  0
  -24.6372  -11.6908   20.8771 C   0  0  0  0  0  0
  -23.9035  -10.4296   21.0405 C   0  0  0  0  0  0
  -24.3610   -9.4232   21.9180 C   0  0  0  0  0  0
  -23.6302   -8.2259   22.0757 C   0  0  0  0  0  0
  -22.4282   -8.0271   21.3545 C   0  0  0  0  0  0
  -21.9900   -9.0238   20.4647 C   0  0  0  0  0  0
  -22.7209  -10.2131   20.3052 C   0  0  0  0  0  0
  -21.6864   -6.0709   22.5254 C   0  0  0  0  0  0
  -21.4015   -6.5617   23.8179 C   0  0  0  0  0  0
  -21.3690   -5.6780   24.9152 C   0  0  0  0  0  0
  -21.6057   -4.3043   24.7202 C   0  0  0  0  0  0
  -21.8824   -3.8125   23.4328 C   0  0  0  0  0  0
  -21.9211   -4.6941   22.3381 C   0  0  0  0  0  0
  -22.7837  -13.5236   21.1822 C   0  0  0  0  0  0
  -22.1686   -4.2126   21.0961 F   0  0  0  0  0  0
  -21.5655   -3.4534   25.7722 F   0  0  0  0  0  0
  -30.0148  -13.3958   20.3601 N   0  0  0  0  0  0
  -26.2986  -12.9336   20.3355 N   0  0  0  0  0  0
  -25.9313  -11.6505   20.5853 N   0  0  0  0  0  0
  -22.0473  -12.8222   22.0378 N   0  0  0  0  0  0
  -25.4197  -15.1858   20.4193 N   0  0  0  0  0  0
  -31.9129  -14.6421   20.3315 O   0  0  0  0  0  0
  -21.6667   -6.8852   21.4214 O   0  0  0  0  0  0
  -22.3536  -14.5525   20.6640 O   0  0  0  0  0  0
  -24.6166  -31.8659   23.2075 C   0  0  0  0  0  0
  -25.9052  -32.4807   23.8386 C   0  0  1  0  0  0
  -27.2346  -27.4035   20.1030 C   0  0  0  0  0  0
  -25.5899  -33.8605   24.2317 N   0  0  0  0  0  0
  -23.4067  -30.4901   21.5473 C   0  0  2  0  0  0
  -24.8529  -28.9523   20.1091 C   0  0  0  0  0  0
  -22.7433  -29.4647   22.4954 C   0  0  0  0  0  0
  -18.0292  -28.1390   22.8512 C   0  0  0  0  0  0
  -24.1494  -36.7311   23.2641 C   0  0  0  0  0  0
  -25.9386  -30.8233   21.3661 C   0  0  0  0  0  0
  -26.0127  -29.4554   20.7106 C   0  0  0  0  0  0
  -27.2014  -28.6867   20.7044 C   0  0  0  0  0  0
  -26.0495  -26.9152   19.5052 C   0  0  0  0  0  0
  -24.8676  -27.6834   19.5033 C   0  0  0  0  0  0
  -23.6172  -29.8235   20.1602 C   0  0  0  0  0  0
  -25.4119  -36.3101   24.0334 C   0  0  1  0  0  0
  -20.5886  -28.3672   23.1322 C   0  0  2  0  0  0
  -20.6770  -26.9401   22.5433 C   0  0  0  0  0  0
  -19.5745  -26.6384   21.5230 C   0  0  0  0  0  0
  -18.1919  -26.7946   22.1626 C   0  0  0  0  0  0
  -19.1544  -28.8851   23.2919 C   0  0  0  0  0  0
  -18.9461  -30.1461   23.8922 C   0  0  0  0  0  0
  -17.6455  -30.6590   24.0573 C   0  0  0  0  0  0
  -25.9046  -34.9464   23.5125 C   0  0  0  0  0  0
  -16.5350  -29.9093   23.6318 C   0  0  0  0  0  0
  -16.7277  -28.6509   23.0350 C   0  0  0  0  0  0
  -26.4479  -31.6588   25.0714 C   0  0  0  0  0  0
  -25.3729  -31.3662   26.1440 C   0  0  0  0  0  0
  -27.0312  -30.3030   24.6094 C   0  0  0  0  0  0
  -27.6062  -32.4302   25.7473 C   0  0  0  0  0  0
  -27.5589  -37.1814   24.8468 C   0  0  0  0  0  0
  -21.4158  -29.3015   22.3691 N   0  0  0  0  0  0
  -26.4302  -37.3788   23.9411 N   0  0  0  0  0  0
  -24.6723  -31.0752   22.0980 N   0  0  0  0  0  0
  -23.4198  -28.8200   23.3010 O   0  0  0  0  0  0
  -28.4159  -26.6788   20.1530 O   0  0  0  0  0  0
  -26.5608  -34.8920   22.4686 O   0  0  0  0  0  0
  -23.5350  -32.1416   23.7451 O   0  0  0  0  0  0
  -27.4736  -23.9185   21.0454 C   0  0  0  0  0  0
  -27.2957  -22.6289   21.6014 C   0  0  0  0  0  0
  -28.4606  -24.1252   20.0625 C   0  0  0  0  0  0
  -28.1267  -21.5669   21.1698 C   0  0  0  0  0  0
  -29.2448  -22.9993   19.6934 C   0  0  0  0  0  0
  -30.4367  -17.2527   18.1507 C   0  0  0  0  0  0
  -30.9421  -17.8168   19.4565 C   0  0  0  0  0  0
  -30.0133  -15.8293   18.5068 C   0  0  0  0  0  0
  -30.1445  -17.0543   20.5318 C   0  0  1  0  0  0
  -26.2008  -22.4047   22.6329 C   0  0  0  0  0  0
  -30.3444  -23.0961   18.6503 C   0  0  0  0  0  0
  -27.6648  -17.6621   19.8944 C   0  0  0  0  0  0
  -28.6180  -25.4927   19.3565 C   0  0  0  0  0  0
  -27.9607  -20.1274   21.6934 C   0  0  0  0  0  0
  -28.8096  -17.8097   20.9276 C   0  0  2  0  0  0
  -29.0848  -21.7619   20.2324 N   0  0  0  0  0  0
  -29.9629  -15.6682   19.9844 N   0  0  0  0  0  0
  -29.0723  -19.2548   21.2421 N   0  3  0  0  0  0
  -31.4629  -12.4573   19.0992 H   0  0  0  0  0  0
  -30.3731  -11.3651   19.9164 H   0  0  0  0  0  0
  -29.7206  -11.5717   17.5314 H   0  0  0  0  0  0
  -29.6447  -13.2963   17.6215 H   0  0  0  0  0  0
  -27.8222  -11.2595   18.8998 H   0  0  0  0  0  0
  -27.3551  -12.5176   17.7922 H   0  0  0  0  0  0
  -27.6428  -14.2311   19.4681 H   0  0  0  0  0  0
  -28.7133  -12.1296   21.4223 H   0  0  0  0  0  0
  -28.4941  -13.8352   21.7590 H   0  0  0  0  0  0
  -25.2751   -9.5764   22.4751 H   0  0  0  0  0  0
  -24.0046   -7.4674   22.7489 H   0  0  0  0  0  0
  -21.0825   -8.8732   19.8960 H   0  0  0  0  0  0
  -22.3630  -10.9668   19.6175 H   0  0  0  0  0  0
  -21.1966   -7.6116   23.9660 H   0  0  0  0  0  0
  -21.1543   -6.0517   25.9056 H   0  0  0  0  0  0
  -22.0577   -2.7586   23.2819 H   0  0  0  0  0  0
  -22.4103  -11.9887   22.4759 H   0  0  0  0  0  0
  -21.1077  -13.1221   22.2543 H   0  0  0  0  0  0
  -24.6427  -15.8291   20.5202 H   0  0  0  0  0  0
  -26.2658  -15.6280   20.0894 H   0  0  0  0  0  0
  -26.7118  -32.5522   23.1154 H   0  0  0  0  0  0
  -25.0032  -33.9776   25.0452 H   0  0  0  0  0  0
  -22.6941  -31.3060   21.4076 H   0  0  0  0  0  0
  -23.3762  -35.9632   23.3285 H   0  0  0  0  0  0
  -24.3598  -36.8961   22.2064 H   0  0  0  0  0  0
  -23.7234  -37.6499   23.6687 H   0  0  0  0  0  0
  -26.0574  -31.5914   20.5998 H   0  0  0  0  0  0
  -26.8253  -30.8739   21.9872 H   0  0  0  0  0  0
  -28.0982  -29.0694   21.1721 H   0  0  0  0  0  0
  -26.0078  -25.9312   19.0619 H   0  0  0  0  0  0
  -23.9714  -27.2879   19.0444 H   0  0  0  0  0  0
  -23.7298  -30.6011   19.4035 H   0  0  0  0  0  0
  -22.7397  -29.2480   19.8613 H   0  0  0  0  0  0
  -25.1289  -36.1970   25.0829 H   0  0  0  0  0  0
  -20.9995  -28.3254   24.1441 H   0  0  0  0  0  0
  -20.5676  -26.2269   23.3621 H   0  0  0  0  0  0
  -21.6640  -26.7434   22.1233 H   0  0  0  0  0  0
  -19.6886  -25.6299   21.1244 H   0  0  0  0  0  0
  -19.6685  -27.3205   20.6770 H   0  0  0  0  0  0
  -17.4200  -26.6763   21.4008 H   0  0  0  0  0  0
  -18.0259  -26.0079   22.8996 H   0  0  0  0  0  0
  -19.7931  -30.7285   24.2296 H   0  0  0  0  0  0
  -17.5003  -31.6267   24.5180 H   0  0  0  0  0  0
  -15.5350  -30.2994   23.7622 H   0  0  0  0  0  0
  -15.8686  -28.0823   22.7048 H   0  0  0  0  0  0
  -24.5997  -30.6902   25.7776 H   0  0  0  0  0  0
  -24.8788  -32.2774   26.4808 H   0  0  0  0  0  0
  -25.8084  -30.8924   27.0244 H   0  0  0  0  0  0
  -26.2850  -29.6779   24.1169 H   0  0  0  0  0  0
  -27.4106  -29.7278   25.4552 H   0  0  0  0  0  0
  -27.8677  -30.4353   23.9228 H   0  0  0  0  0  0
  -27.2722  -33.3629   26.2034 H   0  0  0  0  0  0
  -28.3873  -32.6816   25.0284 H   0  0  0  0  0  0
  -28.0724  -31.8420   26.5393 H   0  0  0  0  0  0
  -28.2604  -38.0117   24.7517 H   0  0  0  0  0  0
  -28.1097  -36.2644   24.6299 H   0  0  0  0  0  0
  -27.2306  -37.1468   25.8871 H   0  0  0  0  0  0
  -20.9301  -29.8720   21.6912 H   0  0  0  0  0  0
  -26.0193  -38.2865   24.1408 H   0  0  0  0  0  0
  -26.8404  -24.7388   21.3534 H   0  0  0  0  0  0
  -31.2029  -17.2786   17.3753 H   0  0  0  0  0  0
  -29.5887  -17.8274   17.7771 H   0  0  0  0  0  0
  -30.8596  -18.9037   19.4822 H   0  0  0  0  0  0
  -32.0029  -17.5870   19.5659 H   0  0  0  0  0  0
  -30.7401  -15.1610   18.0380 H   0  0  0  0  0  0
  -29.0481  -15.5892   18.0608 H   0  0  0  0  0  0
  -30.7633  -17.0080   21.4317 H   0  0  0  0  0  0
  -25.5210  -23.2560   22.6850 H   0  0  0  0  0  0
  -26.6324  -22.2569   23.6234 H   0  0  0  0  0  0
  -25.6020  -21.5290   22.3810 H   0  0  0  0  0  0
  -31.1499  -23.7310   19.0195 H   0  0  0  0  0  0
  -29.9659  -23.5209   17.7199 H   0  0  0  0  0  0
  -30.7739  -22.1200   18.4201 H   0  0  0  0  0  0
  -27.5832  -16.6511   19.5075 H   0  0  0  0  0  0
  -27.7920  -18.3310   19.0443 H   0  0  0  0  0  0
  -26.6918  -17.8806   20.3377 H   0  0  0  0  0  0
  -28.0332  -25.4978   18.4369 H   0  0  0  0  0  0
  -29.6490  -25.5814   19.0194 H   0  0  0  0  0  0
  -26.9938  -19.7760   21.3435 H   0  0  0  0  0  0
  -27.9200  -20.1197   22.7830 H   0  0  0  0  0  0
  -28.4557  -17.3409   21.8480 H   0  0  0  0  0  0
  -29.8136  -19.3425   21.9169 H   0  0  0  0  0  0
  -29.3816  -19.7514   20.4164 H   0  0  0  0  0  0
  1 25  1  0  0  0
  1 30  2  0  0  0
  1 87  1  0  0  0
  2  3  1  0  0  0
  2 25  1  0  0  0
  2 89  1  0  0  0
  2 90  1  0  0  0
  3  4  1  0  0  0
  3 91  1  0  0  0
  3 92  1  0  0  0
  4  5  1  0  0  0
  4 93  1  0  0  0
  4 94  1  0  0  0
  5  6  1  0  0  0
  5 26  1  0  0  0
  5 95  1  0  0  0
  6 25  1  0  0  0
  6 96  1  0  0  0
  6 97  1  0  0  0
  7  8  2  0  0  0
  7 26  1  0  0  0
  7 29  1  0  0  0
  8  9  1  0  0  0
  8 22  1  0  0  0
  9 10  1  0  0  0
  9 27  2  0  0  0
 10 11  2  0  0  0
 10 15  1  0  0  0
 11 12  1  0  0  0
 11 98  1  0  0  0
 12 13  2  0  0  0
 12 99  1  0  0  0
 13 14  1  0  0  0
 13 31  1  0  0  0
 14 15  2  0  0  0
 14100  1  0  0  0
 15101  1  0  0  0
 16 17  2  0  0  0
 16 21  1  0  0  0
 16 31  1  0  0  0
 17 18  1  0  0  0
 17102  1  0  0  0
 18 19  2  0  0  0
 18103  1  0  0  0
 19 20  1  0  0  0
 19 24  1  0  0  0
 20 21  2  0  0  0
 20104  1  0  0  0
 21 23  1  0  0  0
 22 28  1  0  0  0
 22 32  2  0  0  0
 26 27  1  0  0  0
 28105  1  0  0  0
 28106  1  0  0  0
 29107  1  0  0  0
 29108  1  0  0  0
 33 34  1  0  0  0
 33 66  1  0  0  0
 33 70  2  0  0  0
 34 36  1  0  0  0
 34 59  1  0  0  0
 34109  1  0  0  0
 35 44  2  0  0  0
 35 45  1  0  0  0
 35 68  1  0  0  0
 36 56  1  0  0  0
 36110  1  0  0  0
 37 39  1  0  0  0
 37 47  1  0  0  0
 37 66  1  0  0  0
 37111  1  0  0  0
 38 43  2  0  0  0
 38 46  1  0  0  0
 38 47  1  0  0  0
 39 64  1  0  0  0
 39 67  2  0  0  0
 40 52  1  0  0  0
 40 53  2  0  0  0
 40 58  1  0  0  0
 41112  1  0  0  0
 41113  1  0  0  0
 41114  1  0  0  0
 41 48  1  0  0  0
 42 43  1  0  0  0
 42 66  1  0  0  0
 42115  1  0  0  0
 42116  1  0  0  0
 43 44  1  0  0  0
 44117  1  0  0  0
 45 46  2  0  0  0
 45118  1  0  0  0
 46119  1  0  0  0
 47120  1  0  0  0
 47121  1  0  0  0
 48 56  1  0  0  0
 48 65  1  0  0  0
 48122  1  0  0  0
 49 50  1  0  0  0
 49 53  1  0  0  0
 49 64  1  0  0  0
 49123  1  0  0  0
 50 51  1  0  0  0
 50124  1  0  0  0
 50125  1  0  0  0
 51 52  1  0  0  0
 51126  1  0  0  0
 51127  1  0  0  0
 52128  1  0  0  0
 52129  1  0  0  0
 53 54  1  0  0  0
 54 55  2  0  0  0
 54130  1  0  0  0
 55 57  1  0  0  0
 55131  1  0  0  0
 56 69  2  0  0  0
 57 58  2  0  0  0
 57132  1  0  0  0
 58133  1  0  0  0
 59 60  1  0  0  0
 59 61  1  0  0  0
 59 62  1  0  0  0
 60134  1  0  0  0
 60135  1  0  0  0
 60136  1  0  0  0
 61137  1  0  0  0
 61138  1  0  0  0
 61139  1  0  0  0
 62140  1  0  0  0
 62141  1  0  0  0
 62142  1  0  0  0
 63 65  1  0  0  0
 63143  1  0  0  0
 63144  1  0  0  0
 63145  1  0  0  0
 64146  1  0  0  0
 65147  1  0  0  0
 68 83  1  0  0  0
 71 72  2  0  0  0
 71 73  1  0  0  0
 71148  1  0  0  0
 72 74  1  0  0  0
 72 80  1  0  0  0
 73 75  2  0  0  0
 73 83  1  0  0  0
 74 84  1  0  0  0
 74 86  2  0  0  0
 75 81  1  0  0  0
 75 86  1  0  0  0
 76 77  1  0  0  0
 76 78  1  0  0  0
 76149  1  0  0  0
 76150  1  0  0  0
 77151  1  0  0  0
 77152  1  0  0  0
 77 79  1  0  0  0
 78 87  1  0  0  0
 78153  1  0  0  0
 78154  1  0  0  0
 79 85  1  0  0  0
 79 87  1  0  0  0
 79155  1  0  0  0
 80156  1  0  0  0
 80157  1  0  0  0
 80158  1  0  0  0
 81159  1  0  0  0
 81160  1  0  0  0
 81161  1  0  0  0
 82162  1  0  0  0
 82163  1  0  0  0
 82164  1  0  0  0
 82 85  1  0  0  0
 83165  1  0  0  0
 83166  1  0  0  0
 84 88  1  0  0  0
 84167  1  0  0  0
 84168  1  0  0  0
 85 88  1  0  0  0
 85169  1  0  0  0
 88170  1  0  0  0
 88171  1  0  0  0
M  CHG  1  88   1
M  ISO  4   1 100  68 101  83 101  87 100
M  END
> <chiral flag>
0

> <version>
0

> <s_m_source_file>
/data/baiqing/PycharmProjects/Reinvent-master-3.2/result/LINK_invent/BTK/process_docking_weight1_custom_sum_contain_oxygen_bond_distance_aromatic_linkinvent_7_9_3/rearranged_h_0176.sdf

> <i_m_source_file_index>
36

> <r_mmod_Potential_Energy-OPLS-2005>
-100.572052001953

> <r_mmod_Stretch_Energy-OPLS-2005>
53.5244941711426

> <r_mmod_Bend_Energy-OPLS-2005>
150.574249267578

> <r_mmod_Torsional_Energy-OPLS-2005>
391.043884277344

> <r_mmod_Improper_Torsional_Energy-OPLS-2005>
23.1387271881104

> <r_mmod_Van_der_Waal_Energy-OPLS-2005>
154.712493896484

> <r_mmod_Electrostatic_Energy-OPLS-2005>
-488.529357910156

> <r_mmod_Solvation_Energy-OPLS-2005>
-428.9931640625

> <b_mmod_Minimization_Converged-OPLS-2005>
0

> <r_mmod_RMS_Derivative-OPLS-2005>
2.72945475578308

$$$$
36
                    3D
 Structure written by MMmdl.
167176  0  0  1  0            999 V2000
  -30.5360  -14.9404   20.4218 C   0  0  0  0  0  0
  -30.4371  -12.5822   19.5034 C   0  0  0  0  0  0
  -29.5213  -12.5340   18.2585 C   0  0  0  0  0  0
  -28.0529  -12.3198   18.6721 C   0  0  0  0  0  0
  -27.6293  -13.2480   19.8404 C   0  0  2  0  0  0
  -28.6693  -13.2690   20.9809 C   0  0  0  0  0  0
  -25.2450  -13.8209   20.5693 C   0  0  0  0  0  0
  -24.1768  -13.0430   20.9221 C   0  0  0  0  0  0
  -24.6382  -11.6920   20.8748 C   0  0  0  0  0  0
  -23.9063  -10.4289   21.0392 C   0  0  0  0  0  0
  -24.3611   -9.4207   21.9174 C   0  0  0  0  0  0
  -23.6290   -8.2242   22.0748 C   0  0  0  0  0  0
  -22.4274   -8.0273   21.3539 C   0  0  0  0  0  0
  -21.9905   -9.0245   20.4638 C   0  0  0  0  0  0
  -22.7230  -10.2129   20.3046 C   0  0  0  0  0  0
  -21.6860   -6.0722   22.5273 C   0  0  0  0  0  0
  -21.4017   -6.5630   23.8202 C   0  0  0  0  0  0
  -21.3661   -5.6789   24.9168 C   0  0  0  0  0  0
  -21.6046   -4.3048   24.7223 C   0  0  0  0  0  0
  -21.8821   -3.8137   23.4345 C   0  0  0  0  0  0
  -21.9192   -4.6951   22.3400 C   0  0  0  0  0  0
  -22.7788  -13.5205   21.1883 C   0  0  0  0  0  0
  -22.1663   -4.2135   21.0976 F   0  0  0  0  0  0
  -21.5629   -3.4536   25.7735 F   0  0  0  0  0  0
  -29.9474  -13.6781   20.3873 N   0  0  0  0  0  0
  -26.2874  -12.9447   20.3235 N   0  0  0  0  0  0
  -25.9316  -11.6576   20.5728 N   0  0  0  0  0  0
  -22.0449  -12.8188   22.0437 N   0  0  0  0  0  0
  -25.4108  -15.1936   20.4098 N   0  0  0  0  0  0
  -31.7340  -15.0100   20.1321 O   0  0  0  0  0  0
  -21.6644   -6.8865   21.4234 O   0  0  0  0  0  0
  -22.3474  -14.5512   20.6722 O   0  0  0  0  0  0
  -24.6429  -31.8422   23.1842 C   0  0  0  0  0  0
  -25.9203  -32.4682   23.8245 C   0  0  1  0  0  0
  -27.2238  -27.1176   20.1702 C   0  0  0  0  0  0
  -25.5963  -33.8493   24.2178 N   0  0  0  0  0  0
  -23.4475  -30.4557   21.5304 C   0  0  2  0  0  0
  -24.8966  -28.8685   20.1161 C   0  0  0  0  0  0
  -22.7561  -29.4518   22.4859 C   0  0  0  0  0  0
  -18.0306  -28.1403   22.8470 C   0  0  0  0  0  0
  -24.1493  -36.7235   23.2637 C   0  0  0  0  0  0
  -26.0005  -30.7084   21.3848 C   0  0  0  0  0  0
  -26.0692  -29.3133   20.7381 C   0  0  0  0  0  0
  -27.2283  -28.4525   20.7478 C   0  0  0  0  0  0
  -26.0272  -26.7712   19.5070 C   0  0  0  0  0  0
  -24.8878  -27.6110   19.4886 C   0  0  0  0  0  0
  -23.6762  -29.7765   20.1519 C   0  0  0  0  0  0
  -25.4127  -36.3023   24.0314 C   0  0  1  0  0  0
  -20.5913  -28.3716   23.1241 C   0  0  2  0  0  0
  -20.6785  -26.9421   22.5413 C   0  0  0  0  0  0
  -19.5763  -26.6381   21.5215 C   0  0  0  0  0  0
  -18.1945  -26.7939   22.1624 C   0  0  0  0  0  0
  -19.1561  -28.8881   23.2844 C   0  0  0  0  0  0
  -18.9482  -30.1475   23.8871 C   0  0  0  0  0  0
  -17.6478  -30.6592   24.0564 C   0  0  0  0  0  0
  -25.9077  -34.9404   23.5050 C   0  0  0  0  0  0
  -16.5368  -29.9088   23.6338 C   0  0  0  0  0  0
  -16.7292  -28.6514   23.0340 C   0  0  0  0  0  0
  -26.4533  -31.6545   25.0679 C   0  0  0  0  0  0
  -25.3723  -31.3744   26.1377 C   0  0  0  0  0  0
  -27.0389  -30.2944   24.6239 C   0  0  0  0  0  0
  -27.6062  -32.4308   25.7474 C   0  0  0  0  0  0
  -27.5581  -37.1770   24.8464 C   0  0  0  0  0  0
  -21.4259  -29.3035   22.3609 N   0  0  0  0  0  0
  -26.4283  -37.3740   23.9418 N   0  0  0  0  0  0
  -24.7165  -31.0255   22.0886 N   0  0  0  0  0  0
  -23.4199  -28.8077   23.3018 O   0  0  0  0  0  0
  -28.3493  -26.2140   20.1905 O   0  0  0  0  0  0
  -26.5654  -34.8902   22.4626 O   0  0  0  0  0  0
  -23.5547  -32.1325   23.7047 O   0  0  0  0  0  0
  -27.9540  -22.5350   19.6166 C   0  0  0  0  0  0
  -29.0171  -21.8818   20.3391 C   0  0  0  0  0  0
  -29.7048  -22.9086   21.0782 C   0  0  0  0  0  0
  -28.3798  -24.7762   20.3422 C   0  0  0  0  0  0
  -29.2473  -19.6015   18.7857 C   0  0  0  0  0  0
  -29.5513  -20.3026   20.1311 C   0  0  2  0  0  0
  -30.0418  -17.6518   20.2807 C   0  0  2  0  0  0
  -29.3295  -18.9417   21.0268 C   0  0  1  0  0  0
  -29.8336  -18.1195   18.7905 C   0  0  0  0  0  0
  -28.8717  -17.1880   18.0200 C   0  0  0  0  0  0
  -31.1922  -18.1073   18.0601 C   0  0  0  0  0  0
  -30.5639  -22.5908   23.4462 C   0  0  0  0  0  0
  -30.9118  -22.5929   21.9518 C   0  0  0  0  0  0
  -27.6604  -23.9026   19.6027 N   0  0  0  0  0  0
  -29.3946  -24.2607   21.0624 N   0  0  0  0  0  0
  -29.7508  -16.1189   20.5708 N   0  0  0  0  0  0
  -29.7895  -19.0883   22.4142 N   0  3  0  0  0  0
  -31.4725  -12.7349   19.1976 H   0  0  0  0  0  0
  -30.4227  -11.6284   20.0327 H   0  0  0  0  0  0
  -29.8406  -11.7410   17.5807 H   0  0  0  0  0  0
  -29.6108  -13.4687   17.7021 H   0  0  0  0  0  0
  -27.9450  -11.2768   18.9724 H   0  0  0  0  0  0
  -27.3922  -12.4599   17.8153 H   0  0  0  0  0  0
  -27.5950  -14.2518   19.4163 H   0  0  0  0  0  0
  -28.7524  -12.2900   21.4561 H   0  0  0  0  0  0
  -28.3689  -13.9676   21.7634 H   0  0  0  0  0  0
  -25.2757   -9.5693   22.4750 H   0  0  0  0  0  0
  -24.0000   -7.4637   22.7473 H   0  0  0  0  0  0
  -21.0833   -8.8752   19.8948 H   0  0  0  0  0  0
  -22.3673  -10.9658   19.6156 H   0  0  0  0  0  0
  -21.2014   -7.6140   23.9700 H   0  0  0  0  0  0
  -21.1483   -6.0518   25.9068 H   0  0  0  0  0  0
  -22.0599   -2.7597   23.2848 H   0  0  0  0  0  0
  -22.4082  -11.9852   22.4814 H   0  0  0  0  0  0
  -21.1064  -13.1190   22.2645 H   0  0  0  0  0  0
  -24.6310  -15.8359   20.4977 H   0  0  0  0  0  0
  -26.2369  -15.6275   20.0213 H   0  0  0  0  0  0
  -26.7251  -32.5287   23.0954 H   0  0  0  0  0  0
  -25.0138  -33.9600   25.0346 H   0  0  0  0  0  0
  -22.7519  -31.2816   21.3701 H   0  0  0  0  0  0
  -23.3763  -35.9554   23.3294 H   0  0  0  0  0  0
  -24.3582  -36.8874   22.2051 H   0  0  0  0  0  0
  -23.7224  -37.6424   23.6672 H   0  0  0  0  0  0
  -26.1517  -31.4538   20.6030 H   0  0  0  0  0  0
  -26.8731  -30.7677   22.0236 H   0  0  0  0  0  0
  -28.1288  -28.7950   21.2392 H   0  0  0  0  0  0
  -25.9535  -25.8134   19.0130 H   0  0  0  0  0  0
  -23.9914  -27.2676   18.9906 H   0  0  0  0  0  0
  -23.8185  -30.5472   19.3927 H   0  0  0  0  0  0
  -22.7911  -29.2196   19.8404 H   0  0  0  0  0  0
  -25.1303  -36.1855   25.0800 H   0  0  0  0  0  0
  -21.0004  -28.3312   24.1358 H   0  0  0  0  0  0
  -20.5680  -26.2329   23.3624 H   0  0  0  0  0  0
  -21.6649  -26.7427   22.1213 H   0  0  0  0  0  0
  -19.6926  -25.6285   21.1256 H   0  0  0  0  0  0
  -19.6710  -27.3179   20.6732 H   0  0  0  0  0  0
  -17.4212  -26.6675   21.4029 H   0  0  0  0  0  0
  -18.0356  -26.0094   22.9037 H   0  0  0  0  0  0
  -19.7953  -30.7302   24.2228 H   0  0  0  0  0  0
  -17.5027  -31.6266   24.5178 H   0  0  0  0  0  0
  -15.5364  -30.2983   23.7673 H   0  0  0  0  0  0
  -15.8692  -28.0832   22.7053 H   0  0  0  0  0  0
  -24.5914  -30.7071   25.7711 H   0  0  0  0  0  0
  -24.8890  -32.2933   26.4715 H   0  0  0  0  0  0
  -25.8012  -30.8990   27.0207 H   0  0  0  0  0  0
  -26.2995  -29.6671   24.1242 H   0  0  0  0  0  0
  -27.4022  -29.7229   25.4790 H   0  0  0  0  0  0
  -27.8899  -30.4188   23.9535 H   0  0  0  0  0  0
  -27.2654  -33.3630   26.1993 H   0  0  0  0  0  0
  -28.3912  -32.6838   25.0330 H   0  0  0  0  0  0
  -28.0684  -31.8466   26.5442 H   0  0  0  0  0  0
  -28.2565  -38.0099   24.7539 H   0  0  0  0  0  0
  -28.1113  -36.2628   24.6256 H   0  0  0  0  0  0
  -27.2305  -37.1373   25.8866 H   0  0  0  0  0  0
  -20.9474  -29.8752   21.6786 H   0  0  0  0  0  0
  -26.0152  -38.2802   24.1451 H   0  0  0  0  0  0
  -27.3412  -21.9450   18.9513 H   0  0  0  0  0  0
  -29.6263  -20.1794   17.9420 H   0  0  0  0  0  0
  -28.1639  -19.5638   18.6563 H   0  0  0  0  0  0
  -30.6312  -20.4316   20.0934 H   0  0  0  0  0  0
  -31.1047  -17.7519   20.5101 H   0  0  0  0  0  0
  -28.2561  -18.7466   21.0742 H   0  0  0  0  0  0
  -27.9095  -17.0931   18.5244 H   0  0  0  0  0  0
  -29.2832  -16.1846   17.9030 H   0  0  0  0  0  0
  -28.6785  -17.5685   17.0158 H   0  0  0  0  0  0
  -31.9101  -18.7799   18.5330 H   0  0  0  0  0  0
  -31.0913  -18.4236   17.0216 H   0  0  0  0  0  0
  -31.6339  -17.1098   18.0562 H   0  0  0  0  0  0
  -31.4406  -22.3489   24.0476 H   0  0  0  0  0  0
  -29.7884  -21.8603   23.6731 H   0  0  0  0  0  0
  -30.2004  -23.5686   23.7635 H   0  0  0  0  0  0
  -31.6832  -23.3419   21.7658 H   0  0  0  0  0  0
  -31.3709  -21.6458   21.6815 H   0  0  0  0  0  0
  -28.7861  -15.9221   20.7901 H   0  0  0  0  0  0
  -30.7725  -19.2889   22.4560 H   0  0  0  0  0  0
  -29.6219  -18.2370   22.9202 H   0  0  0  0  0  0
  -29.2781  -19.8222   22.8697 H   0  0  0  0  0  0
  1 25  1  0  0  0
  1 30  2  0  0  0
  1 86  1  0  0  0
  2  3  1  0  0  0
  2 25  1  0  0  0
  2 88  1  0  0  0
  2 89  1  0  0  0
  3  4  1  0  0  0
  3 90  1  0  0  0
  3 91  1  0  0  0
  4  5  1  0  0  0
  4 92  1  0  0  0
  4 93  1  0  0  0
  5  6  1  0  0  0
  5 26  1  0  0  0
  5 94  1  0  0  0
  6 25  1  0  0  0
  6 95  1  0  0  0
  6 96  1  0  0  0
  7  8  2  0  0  0
  7 26  1  0  0  0
  7 29  1  0  0  0
  8  9  1  0  0  0
  8 22  1  0  0  0
  9 10  1  0  0  0
  9 27  2  0  0  0
 10 11  2  0  0  0
 10 15  1  0  0  0
 11 12  1  0  0  0
 11 97  1  0  0  0
 12 13  2  0  0  0
 12 98  1  0  0  0
 13 14  1  0  0  0
 13 31  1  0  0  0
 14 15  2  0  0  0
 14 99  1  0  0  0
 15100  1  0  0  0
 16 17  2  0  0  0
 16 21  1  0  0  0
 16 31  1  0  0  0
 17 18  1  0  0  0
 17101  1  0  0  0
 18 19  2  0  0  0
 18102  1  0  0  0
 19 20  1  0  0  0
 19 24  1  0  0  0
 20 21  2  0  0  0
 20103  1  0  0  0
 21 23  1  0  0  0
 22 28  1  0  0  0
 22 32  2  0  0  0
 26 27  1  0  0  0
 28104  1  0  0  0
 28105  1  0  0  0
 29106  1  0  0  0
 29107  1  0  0  0
 33 34  1  0  0  0
 33 66  1  0  0  0
 33 70  2  0  0  0
 34 36  1  0  0  0
 34 59  1  0  0  0
 34108  1  0  0  0
 35 44  2  0  0  0
 35 45  1  0  0  0
 35 68  1  0  0  0
 36 56  1  0  0  0
 36109  1  0  0  0
 37 39  1  0  0  0
 37 47  1  0  0  0
 37 66  1  0  0  0
 37110  1  0  0  0
 38 43  2  0  0  0
 38 46  1  0  0  0
 38 47  1  0  0  0
 39 64  1  0  0  0
 39 67  2  0  0  0
 40 52  1  0  0  0
 40 53  2  0  0  0
 40 58  1  0  0  0
 41111  1  0  0  0
 41112  1  0  0  0
 41113  1  0  0  0
 41 48  1  0  0  0
 42 43  1  0  0  0
 42 66  1  0  0  0
 42114  1  0  0  0
 42115  1  0  0  0
 43 44  1  0  0  0
 44116  1  0  0  0
 45 46  2  0  0  0
 45117  1  0  0  0
 46118  1  0  0  0
 47119  1  0  0  0
 47120  1  0  0  0
 48 56  1  0  0  0
 48 65  1  0  0  0
 48121  1  0  0  0
 49 50  1  0  0  0
 49 53  1  0  0  0
 49 64  1  0  0  0
 49122  1  0  0  0
 50 51  1  0  0  0
 50123  1  0  0  0
 50124  1  0  0  0
 51 52  1  0  0  0
 51125  1  0  0  0
 51126  1  0  0  0
 52127  1  0  0  0
 52128  1  0  0  0
 53 54  1  0  0  0
 54 55  2  0  0  0
 54129  1  0  0  0
 55 57  1  0  0  0
 55130  1  0  0  0
 56 69  2  0  0  0
 57 58  2  0  0  0
 57131  1  0  0  0
 58132  1  0  0  0
 59 60  1  0  0  0
 59 61  1  0  0  0
 59 62  1  0  0  0
 60133  1  0  0  0
 60134  1  0  0  0
 60135  1  0  0  0
 61136  1  0  0  0
 61137  1  0  0  0
 61138  1  0  0  0
 62139  1  0  0  0
 62140  1  0  0  0
 62141  1  0  0  0
 63 65  1  0  0  0
 63142  1  0  0  0
 63143  1  0  0  0
 63144  1  0  0  0
 64145  1  0  0  0
 65146  1  0  0  0
 68 74  1  0  0  0
 71 72  2  0  0  0
 71 84  1  0  0  0
 71147  1  0  0  0
 72 73  1  0  0  0
 72 76  1  0  0  0
 73 83  1  0  0  0
 73 85  2  0  0  0
 74 84  2  0  0  0
 74 85  1  0  0  0
 75 76  1  0  0  0
 75 79  1  0  0  0
 75148  1  0  0  0
 75149  1  0  0  0
 76 78  1  0  0  0
 76150  1  0  0  0
 77 78  1  0  0  0
 77 79  1  0  0  0
 77 86  1  0  0  0
 77151  1  0  0  0
 78 87  1  0  0  0
 78152  1  0  0  0
 79 80  1  0  0  0
 79 81  1  0  0  0
 80153  1  0  0  0
 80154  1  0  0  0
 80155  1  0  0  0
 81156  1  0  0  0
 81157  1  0  0  0
 81158  1  0  0  0
 82 83  1  0  0  0
 82159  1  0  0  0
 82160  1  0  0  0
 82161  1  0  0  0
 83162  1  0  0  0
 83163  1  0  0  0
 86164  1  0  0  0
 87165  1  0  0  0
 87166  1  0  0  0
 87167  1  0  0  0
M  CHG  1  87   1
M  ISO  4   1 100  68 101  74 101  86 100
M  END
> <chiral flag>
0

> <version>
0

> <s_m_source_file>
/data/baiqing/PycharmProjects/Reinvent-master-3.2/result/LINK_invent/BTK/process_docking_weight1_custom_sum_contain_oxygen_bond_distance_aromatic_linkinvent_7_9_3/rearranged_h_0176.sdf

> <i_m_source_file_index>
37

> <r_mmod_Potential_Energy-OPLS-2005>
-138.547561645508

> <r_mmod_Stretch_Energy-OPLS-2005>
227.947387695312

> <r_mmod_Bend_Energy-OPLS-2005>
328.183013916016

> <r_mmod_Torsional_Energy-OPLS-2005>
310.042999267578

> <r_mmod_Improper_Torsional_Energy-OPLS-2005>
8.63809394836426

> <r_mmod_Van_der_Waal_Energy-OPLS-2005>
125.497085571289

> <r_mmod_Electrostatic_Energy-OPLS-2005>
-793.428649902344

> <r_mmod_Solvation_Energy-OPLS-2005>
-530.466247558594

> <b_mmod_Minimization_Converged-OPLS-2005>
0

> <r_mmod_RMS_Derivative-OPLS-2005>
1.60544621944427

$$$$
37
                    3D
 Structure written by MMmdl.
157166  0  0  1  0            999 V2000
  -30.5643  -14.9689   20.4671 C   0  0  0  0  0  0
  -30.4376  -12.6093   19.5101 C   0  0  0  0  0  0
  -29.5249  -12.5423   18.2626 C   0  0  0  0  0  0
  -28.0587  -12.3154   18.6760 C   0  0  0  0  0  0
  -27.6287  -13.2491   19.8361 C   0  0  2  0  0  0
  -28.6646  -13.2776   20.9777 C   0  0  0  0  0  0
  -25.2468  -13.8218   20.5720 C   0  0  0  0  0  0
  -24.1772  -13.0443   20.9216 C   0  0  0  0  0  0
  -24.6388  -11.6925   20.8739 C   0  0  0  0  0  0
  -23.9080  -10.4288   21.0400 C   0  0  0  0  0  0
  -24.3630   -9.4199   21.9186 C   0  0  0  0  0  0
  -23.6292   -8.2238   22.0756 C   0  0  0  0  0  0
  -22.4270   -8.0287   21.3548 C   0  0  0  0  0  0
  -21.9913   -9.0259   20.4649 C   0  0  0  0  0  0
  -22.7247  -10.2130   20.3055 C   0  0  0  0  0  0
  -21.6852   -6.0743   22.5285 C   0  0  0  0  0  0
  -21.4012   -6.5646   23.8220 C   0  0  0  0  0  0
  -21.3653   -5.6798   24.9183 C   0  0  0  0  0  0
  -21.6041   -4.3063   24.7225 C   0  0  0  0  0  0
  -21.8816   -3.8151   23.4347 C   0  0  0  0  0  0
  -21.9184   -4.6971   22.3403 C   0  0  0  0  0  0
  -22.7795  -13.5216   21.1872 C   0  0  0  0  0  0
  -22.1659   -4.2158   21.0981 F   0  0  0  0  0  0
  -21.5621   -3.4546   25.7733 F   0  0  0  0  0  0
  -29.9464  -13.7108   20.3979 N   0  0  0  0  0  0
  -26.2880  -12.9444   20.3219 N   0  0  0  0  0  0
  -25.9320  -11.6570   20.5711 N   0  0  0  0  0  0
  -22.0440  -12.8208   22.0430 N   0  0  0  0  0  0
  -25.4163  -15.1947   20.4225 N   0  0  0  0  0  0
  -31.7297  -15.0180   20.0545 O   0  0  0  0  0  0
  -21.6637   -6.8881   21.4243 O   0  0  0  0  0  0
  -22.3482  -14.5525   20.6726 O   0  0  0  0  0  0
  -24.6422  -31.8444   23.1872 C   0  0  0  0  0  0
  -25.9192  -32.4704   23.8269 C   0  0  1  0  0  0
  -27.2260  -27.1380   20.1618 C   0  0  0  0  0  0
  -25.5932  -33.8511   24.2204 N   0  0  0  0  0  0
  -23.4461  -30.4587   21.5335 C   0  0  2  0  0  0
  -24.8952  -28.8740   20.1178 C   0  0  0  0  0  0
  -22.7552  -29.4541   22.4884 C   0  0  0  0  0  0
  -18.0295  -28.1395   22.8479 C   0  0  0  0  0  0
  -24.1477  -36.7260   23.2651 C   0  0  0  0  0  0
  -25.9981  -30.7180   21.3836 C   0  0  0  0  0  0
  -26.0685  -29.3226   20.7369 C   0  0  0  0  0  0
  -27.2315  -28.4685   20.7423 C   0  0  0  0  0  0
  -26.0301  -26.7813   19.5046 C   0  0  0  0  0  0
  -24.8860  -27.6151   19.4892 C   0  0  0  0  0  0
  -23.6731  -29.7808   20.1539 C   0  0  0  0  0  0
  -25.4107  -36.3056   24.0337 C   0  0  1  0  0  0
  -20.5907  -28.3723   23.1242 C   0  0  2  0  0  0
  -20.6773  -26.9428   22.5408 C   0  0  0  0  0  0
  -19.5751  -26.6384   21.5214 C   0  0  0  0  0  0
  -18.1934  -26.7928   22.1628 C   0  0  0  0  0  0
  -19.1554  -28.8871   23.2850 C   0  0  0  0  0  0
  -18.9477  -30.1463   23.8887 C   0  0  0  0  0  0
  -17.6478  -30.6595   24.0560 C   0  0  0  0  0  0
  -25.9058  -34.9428   23.5084 C   0  0  0  0  0  0
  -16.5365  -29.9098   23.6328 C   0  0  0  0  0  0
  -16.7281  -28.6509   23.0357 C   0  0  0  0  0  0
  -26.4533  -31.6563   25.0704 C   0  0  0  0  0  0
  -25.3723  -31.3734   26.1403 C   0  0  0  0  0  0
  -27.0419  -30.2977   24.6260 C   0  0  0  0  0  0
  -27.6075  -32.4310   25.7479 C   0  0  0  0  0  0
  -27.5569  -37.1779   24.8474 C   0  0  0  0  0  0
  -21.4247  -29.3048   22.3608 N   0  0  0  0  0  0
  -26.4279  -37.3766   23.9426 N   0  0  0  0  0  0
  -24.7153  -31.0285   22.0910 N   0  0  0  0  0  0
  -23.4190  -28.8101   23.3049 O   0  0  0  0  0  0
  -28.3345  -26.2199   20.1756 O   0  0  0  0  0  0
  -26.5657  -34.8932   22.4671 O   0  0  0  0  0  0
  -23.5532  -32.1315   23.7081 O   0  0  0  0  0  0
  -27.9469  -22.3687   20.9825 C   0  0  0  0  0  0
  -27.6319  -23.7992   20.9975 C   0  0  0  0  0  0
  -29.0431  -21.8389   20.2211 C   0  0  0  0  0  0
  -28.3715  -24.7455   20.1940 C   0  0  0  0  0  0
  -30.4443  -17.3489   22.8687 C   0  0  0  0  0  0
  -31.1567  -18.0100   21.6943 C   0  0  0  0  0  0
  -29.5316  -16.2727   22.2483 C   0  0  0  0  0  0
  -30.2298  -17.7034   20.5182 C   0  0  1  0  0  0
  -26.5561  -24.2809   21.9538 C   0  0  0  0  0  0
  -29.1275  -18.9968   20.4445 C   0  0  0  0  0  0
  -29.7089  -22.8097   19.5041 N   0  0  0  0  0  0
  -29.3989  -24.1523   19.4873 N   0  0  0  0  0  0
  -29.8662  -16.1806   20.8188 N   0  0  0  0  0  0
  -29.6017  -20.4598   20.1613 N   0  0  0  0  0  0
  -31.4723  -12.7573   19.1974 H   0  0  0  0  0  0
  -30.4331  -11.6571   20.0434 H   0  0  0  0  0  0
  -29.8552  -11.7465   17.5932 H   0  0  0  0  0  0
  -29.6095  -13.4717   17.6972 H   0  0  0  0  0  0
  -27.9653  -11.2734   18.9882 H   0  0  0  0  0  0
  -27.3963  -12.4414   17.8186 H   0  0  0  0  0  0
  -27.5931  -14.2514   19.4079 H   0  0  0  0  0  0
  -28.7569  -12.2985   21.4503 H   0  0  0  0  0  0
  -28.3195  -13.9587   21.7521 H   0  0  0  0  0  0
  -25.2774   -9.5671   22.4769 H   0  0  0  0  0  0
  -23.9998   -7.4623   22.7481 H   0  0  0  0  0  0
  -21.0840   -8.8774   19.8963 H   0  0  0  0  0  0
  -22.3704  -10.9668   19.6170 H   0  0  0  0  0  0
  -21.2019   -7.6157   23.9725 H   0  0  0  0  0  0
  -21.1479   -6.0535   25.9089 H   0  0  0  0  0  0
  -22.0597   -2.7610   23.2844 H   0  0  0  0  0  0
  -22.4068  -11.9886   22.4835 H   0  0  0  0  0  0
  -21.1058  -13.1236   22.2635 H   0  0  0  0  0  0
  -24.6540  -15.8508   20.5513 H   0  0  0  0  0  0
  -26.2796  -15.6387   20.1359 H   0  0  0  0  0  0
  -26.7259  -32.5327   23.0995 H   0  0  0  0  0  0
  -25.0044  -33.9616   25.0330 H   0  0  0  0  0  0
  -22.7512  -31.2862   21.3755 H   0  0  0  0  0  0
  -23.3757  -35.9569   23.3303 H   0  0  0  0  0  0
  -24.3569  -36.8891   22.2065 H   0  0  0  0  0  0
  -23.7193  -37.6448   23.6672 H   0  0  0  0  0  0
  -26.1427  -31.4617   20.5989 H   0  0  0  0  0  0
  -26.8745  -30.7817   22.0169 H   0  0  0  0  0  0
  -28.1351  -28.8105   21.2265 H   0  0  0  0  0  0
  -25.9649  -25.8184   19.0174 H   0  0  0  0  0  0
  -23.9888  -27.2672   18.9941 H   0  0  0  0  0  0
  -23.8181  -30.5547   19.3986 H   0  0  0  0  0  0
  -22.7868  -29.2262   19.8393 H   0  0  0  0  0  0
  -25.1278  -36.1906   25.0826 H   0  0  0  0  0  0
  -20.9993  -28.3321   24.1368 H   0  0  0  0  0  0
  -20.5659  -26.2352   23.3632 H   0  0  0  0  0  0
  -21.6644  -26.7432   22.1219 H   0  0  0  0  0  0
  -19.6923  -25.6293   21.1255 H   0  0  0  0  0  0
  -19.6678  -27.3186   20.6732 H   0  0  0  0  0  0
  -17.4193  -26.6667   21.4037 H   0  0  0  0  0  0
  -18.0340  -26.0081   22.9034 H   0  0  0  0  0  0
  -19.7960  -30.7262   24.2272 H   0  0  0  0  0  0
  -17.5042  -31.6279   24.5158 H   0  0  0  0  0  0
  -15.5369  -30.3004   23.7649 H   0  0  0  0  0  0
  -15.8681  -28.0818   22.7095 H   0  0  0  0  0  0
  -24.5923  -30.7058   25.7724 H   0  0  0  0  0  0
  -24.8888  -32.2908   26.4767 H   0  0  0  0  0  0
  -25.8020  -30.8957   27.0217 H   0  0  0  0  0  0
  -26.3045  -29.6676   24.1279 H   0  0  0  0  0  0
  -27.4089  -29.7290   25.4813 H   0  0  0  0  0  0
  -27.8913  -30.4259   23.9550 H   0  0  0  0  0  0
  -27.2708  -33.3647   26.1987 H   0  0  0  0  0  0
  -28.3923  -32.6791   25.0323 H   0  0  0  0  0  0
  -28.0701  -31.8468   26.5443 H   0  0  0  0  0  0
  -28.2592  -38.0074   24.7536 H   0  0  0  0  0  0
  -28.1065  -36.2609   24.6281 H   0  0  0  0  0  0
  -27.2301  -37.1398   25.8884 H   0  0  0  0  0  0
  -20.9455  -29.8767   21.6793 H   0  0  0  0  0  0
  -26.0165  -38.2843   24.1436 H   0  0  0  0  0  0
  -27.3779  -21.6951   21.6053 H   0  0  0  0  0  0
  -29.8546  -18.0772   23.4287 H   0  0  0  0  0  0
  -31.1654  -16.9195   23.5659 H   0  0  0  0  0  0
  -32.1306  -17.5410   21.5338 H   0  0  0  0  0  0
  -31.3349  -19.0739   21.8566 H   0  0  0  0  0  0
  -28.4819  -16.5562   22.3452 H   0  0  0  0  0  0
  -29.6632  -15.3383   22.7967 H   0  0  0  0  0  0
  -30.8146  -17.7145   19.5968 H   0  0  0  0  0  0
  -26.4522  -25.3639   21.9560 H   0  0  0  0  0  0
  -26.8108  -23.9817   22.9715 H   0  0  0  0  0  0
  -25.5898  -23.8459   21.6991 H   0  0  0  0  0  0
  -28.5509  -19.0172   21.3713 H   0  0  0  0  0  0
  -28.4007  -18.7576   19.6667 H   0  0  0  0  0  0
  -30.4869  -20.4697   19.6645 H   0  0  0  0  0  0
  1 25  1  0  0  0
  1 30  2  0  0  0
  1 83  1  0  0  0
  2  3  1  0  0  0
  2 25  1  0  0  0
  2 85  1  0  0  0
  2 86  1  0  0  0
  3  4  1  0  0  0
  3 87  1  0  0  0
  3 88  1  0  0  0
  4  5  1  0  0  0
  4 89  1  0  0  0
  4 90  1  0  0  0
  5  6  1  0  0  0
  5 26  1  0  0  0
  5 91  1  0  0  0
  6 25  1  0  0  0
  6 92  1  0  0  0
  6 93  1  0  0  0
  7  8  2  0  0  0
  7 26  1  0  0  0
  7 29  1  0  0  0
  8  9  1  0  0  0
  8 22  1  0  0  0
  9 10  1  0  0  0
  9 27  2  0  0  0
 10 11  2  0  0  0
 10 15  1  0  0  0
 11 12  1  0  0  0
 11 94  1  0  0  0
 12 13  2  0  0  0
 12 95  1  0  0  0
 13 14  1  0  0  0
 13 31  1  0  0  0
 14 15  2  0  0  0
 14 96  1  0  0  0
 15 97  1  0  0  0
 16 17  2  0  0  0
 16 21  1  0  0  0
 16 31  1  0  0  0
 17 18  1  0  0  0
 17 98  1  0  0  0
 18 19  2  0  0  0
 18 99  1  0  0  0
 19 20  1  0  0  0
 19 24  1  0  0  0
 20 21  2  0  0  0
 20100  1  0  0  0
 21 23  1  0  0  0
 22 28  1  0  0  0
 22 32  2  0  0  0
 26 27  1  0  0  0
 28101  1  0  0  0
 28102  1  0  0  0
 29103  1  0  0  0
 29104  1  0  0  0
 33 34  1  0  0  0
 33 66  1  0  0  0
 33 70  2  0  0  0
 34 36  1  0  0  0
 34 59  1  0  0  0
 34105  1  0  0  0
 35 44  2  0  0  0
 35 45  1  0  0  0
 35 68  1  0  0  0
 36 56  1  0  0  0
 36106  1  0  0  0
 37 39  1  0  0  0
 37 47  1  0  0  0
 37 66  1  0  0  0
 37107  1  0  0  0
 38 43  2  0  0  0
 38 46  1  0  0  0
 38 47  1  0  0  0
 39 64  1  0  0  0
 39 67  2  0  0  0
 40 52  1  0  0  0
 40 53  2  0  0  0
 40 58  1  0  0  0
 41108  1  0  0  0
 41109  1  0  0  0
 41110  1  0  0  0
 41 48  1  0  0  0
 42 43  1  0  0  0
 42 66  1  0  0  0
 42111  1  0  0  0
 42112  1  0  0  0
 43 44  1  0  0  0
 44113  1  0  0  0
 45 46  2  0  0  0
 45114  1  0  0  0
 46115  1  0  0  0
 47116  1  0  0  0
 47117  1  0  0  0
 48 56  1  0  0  0
 48 65  1  0  0  0
 48118  1  0  0  0
 49 50  1  0  0  0
 49 53  1  0  0  0
 49 64  1  0  0  0
 49119  1  0  0  0
 50 51  1  0  0  0
 50120  1  0  0  0
 50121  1  0  0  0
 51 52  1  0  0  0
 51122  1  0  0  0
 51123  1  0  0  0
 52124  1  0  0  0
 52125  1  0  0  0
 53 54  1  0  0  0
 54 55  2  0  0  0
 54126  1  0  0  0
 55 57  1  0  0  0
 55127  1  0  0  0
 56 69  2  0  0  0
 57 58  2  0  0  0
 57128  1  0  0  0
 58129  1  0  0  0
 59 60  1  0  0  0
 59 61  1  0  0  0
 59 62  1  0  0  0
 60130  1  0  0  0
 60131  1  0  0  0
 60132  1  0  0  0
 61133  1  0  0  0
 61134  1  0  0  0
 61135  1  0  0  0
 62136  1  0  0  0
 62137  1  0  0  0
 62138  1  0  0  0
 63 65  1  0  0  0
 63139  1  0  0  0
 63140  1  0  0  0
 63141  1  0  0  0
 64142  1  0  0  0
 65143  1  0  0  0
 68 74  1  0  0  0
 71 72  2  0  0  0
 71 73  1  0  0  0
 71144  1  0  0  0
 72 74  1  0  0  0
 72 79  1  0  0  0
 73 81  2  0  0  0
 73 84  1  0  0  0
 74 82  2  0  0  0
 75 76  1  0  0  0
 75 77  1  0  0  0
 75145  1  0  0  0
 75146  1  0  0  0
 76 78  1  0  0  0
 76147  1  0  0  0
 76148  1  0  0  0
 77 83  1  0  0  0
 77149  1  0  0  0
 77150  1  0  0  0
 78 80  1  0  0  0
 78 83  1  0  0  0
 78151  1  0  0  0
 79152  1  0  0  0
 79153  1  0  0  0
 79154  1  0  0  0
 80 84  1  0  0  0
 80155  1  0  0  0
 80156  1  0  0  0
 81 82  1  0  0  0
 84157  1  0  0  0
M  ISO  4   1 100  68 101  74 101  83 100
M  END
> <chiral flag>
0

> <version>
0

> <s_m_source_file>
/data/baiqing/PycharmProjects/Reinvent-master-3.2/result/LINK_invent/BTK/process_docking_weight1_custom_sum_contain_oxygen_bond_distance_aromatic_linkinvent_7_9_3/rearranged_h_0176.sdf

> <i_m_source_file_index>
38

> <r_mmod_Potential_Energy-OPLS-2005>
706.148559570312

> <r_mmod_Stretch_Energy-OPLS-2005>
242.719253540039

> <r_mmod_Bend_Energy-OPLS-2005>
337.502990722656

> <r_mmod_Torsional_Energy-OPLS-2005>
333.274169921875

> <r_mmod_Improper_Torsional_Energy-OPLS-2005>
10.0257139205933

> <r_mmod_Van_der_Waal_Energy-OPLS-2005>
126.594848632812

> <r_mmod_Electrostatic_Energy-OPLS-2005>
-311.328796386719

> <r_mmod_Solvation_Energy-OPLS-2005>
-218.623306274414

> <b_mmod_Minimization_Converged-OPLS-2005>
0

> <r_mmod_RMS_Derivative-OPLS-2005>
2.29807806015015

$$$$
38
                    3D
 Structure written by MMmdl.
160169  0  0  1  0            999 V2000
  -30.6675  -14.6010   20.5071 C   0  0  0  0  0  0
  -30.4246  -12.3718   19.4498 C   0  0  0  0  0  0
  -29.5013  -12.5020   18.2193 C   0  0  0  0  0  0
  -28.0225  -12.3520   18.6291 C   0  0  0  0  0  0
  -27.6506  -13.2180   19.8631 C   0  0  2  0  0  0
  -28.6954  -13.0635   20.9892 C   0  0  0  0  0  0
  -25.2547  -13.8176   20.5689 C   0  0  0  0  0  0
  -24.1816  -13.0440   20.9191 C   0  0  0  0  0  0
  -24.6388  -11.6911   20.8742 C   0  0  0  0  0  0
  -23.9057  -10.4295   21.0408 C   0  0  0  0  0  0
  -24.3612   -9.4211   21.9185 C   0  0  0  0  0  0
  -23.6289   -8.2244   22.0753 C   0  0  0  0  0  0
  -22.4271   -8.0281   21.3543 C   0  0  0  0  0  0
  -21.9905   -9.0256   20.4648 C   0  0  0  0  0  0
  -22.7230  -10.2136   20.3058 C   0  0  0  0  0  0
  -21.6855   -6.0732   22.5277 C   0  0  0  0  0  0
  -21.4017   -6.5637   23.8208 C   0  0  0  0  0  0
  -21.3660   -5.6789   24.9172 C   0  0  0  0  0  0
  -21.6045   -4.3051   24.7224 C   0  0  0  0  0  0
  -21.8821   -3.8144   23.4345 C   0  0  0  0  0  0
  -21.9194   -4.6960   22.3402 C   0  0  0  0  0  0
  -22.7837  -13.5233   21.1851 C   0  0  0  0  0  0
  -22.1662   -4.2146   21.0978 F   0  0  0  0  0  0
  -21.5629   -3.4536   25.7736 F   0  0  0  0  0  0
  -30.0065  -13.4033   20.4207 N   0  0  0  0  0  0
  -26.2974  -12.9362   20.3328 N   0  0  0  0  0  0
  -25.9315  -11.6513   20.5757 N   0  0  0  0  0  0
  -22.0482  -12.8231   22.0413 N   0  0  0  0  0  0
  -25.4251  -15.1894   20.4095 N   0  0  0  0  0  0
  -31.8462  -14.6888   20.1476 O   0  0  0  0  0  0
  -21.6638   -6.8876   21.4238 O   0  0  0  0  0  0
  -22.3522  -14.5538   20.6697 O   0  0  0  0  0  0
  -24.6222  -31.8621   23.2042 C   0  0  0  0  0  0
  -25.9085  -32.4788   23.8358 C   0  0  1  0  0  0
  -27.2290  -27.3536   20.1006 C   0  0  0  0  0  0
  -25.5914  -33.8588   24.2290 N   0  0  0  0  0  0
  -23.4132  -30.4857   21.5466 C   0  0  2  0  0  0
  -24.8580  -28.9436   20.1114 C   0  0  0  0  0  0
  -22.7449  -29.4633   22.4956 C   0  0  0  0  0  0
  -18.0280  -28.1377   22.8489 C   0  0  0  0  0  0
  -24.1490  -36.7300   23.2639 C   0  0  0  0  0  0
  -25.9504  -30.8025   21.3693 C   0  0  0  0  0  0
  -26.0234  -29.4322   20.7125 C   0  0  0  0  0  0
  -27.2071  -28.6451   20.7028 C   0  0  0  0  0  0
  -26.0307  -26.8953   19.5037 C   0  0  0  0  0  0
  -24.8612  -27.6785   19.5039 C   0  0  0  0  0  0
  -23.6247  -29.8196   20.1614 C   0  0  0  0  0  0
  -25.4112  -36.3088   24.0333 C   0  0  1  0  0  0
  -20.5876  -28.3674   23.1300 C   0  0  2  0  0  0
  -20.6769  -26.9401   22.5414 C   0  0  0  0  0  0
  -19.5747  -26.6380   21.5211 C   0  0  0  0  0  0
  -18.1926  -26.7922   22.1623 C   0  0  0  0  0  0
  -19.1530  -28.8843   23.2891 C   0  0  0  0  0  0
  -18.9455  -30.1446   23.8904 C   0  0  0  0  0  0
  -17.6456  -30.6584   24.0561 C   0  0  0  0  0  0
  -25.9045  -34.9457   23.5112 C   0  0  0  0  0  0
  -16.5347  -29.9081   23.6327 C   0  0  0  0  0  0
  -16.7267  -28.6498   23.0351 C   0  0  0  0  0  0
  -26.4485  -31.6589   25.0717 C   0  0  0  0  0  0
  -25.3734  -31.3718   26.1456 C   0  0  0  0  0  0
  -27.0320  -30.3019   24.6142 C   0  0  0  0  0  0
  -27.6051  -32.4320   25.7482 C   0  0  0  0  0  0
  -27.5583  -37.1801   24.8462 C   0  0  0  0  0  0
  -21.4168  -29.3034   22.3698 N   0  0  0  0  0  0
  -26.4291  -37.3781   23.9411 N   0  0  0  0  0  0
  -24.6806  -31.0663   22.0974 N   0  0  0  0  0  0
  -23.4190  -28.8173   23.3020 O   0  0  0  0  0  0
  -28.3880  -26.5765   20.1603 O   0  0  0  0  0  0
  -26.5612  -34.8919   22.4676 O   0  0  0  0  0  0
  -23.5398  -32.1404   23.7396 O   0  0  0  0  0  0
  -30.0122  -22.5250   21.6391 C   0  0  0  0  0  0
  -29.6929  -23.8426   21.2114 C   0  0  0  0  0  0
  -28.8152  -23.9859   20.1071 C   0  0  0  0  0  0
  -29.4659  -21.4107   20.9602 C   0  0  0  0  0  0
  -29.4186  -17.7343   22.0434 C   0  0  0  0  0  0
  -30.3342  -18.1845   19.8047 C   0  0  0  0  0  0
  -29.1001  -16.2570   21.6407 C   0  0  0  0  0  0
  -29.9626  -16.7255   19.3929 C   0  0  0  0  0  0
  -29.4040  -18.7745   20.8877 C   0  0  0  0  0  0
  -28.5576  -25.3485   19.3785 C   0  0  0  0  0  0
  -30.3176  -25.0519   21.8913 C   0  0  0  0  0  0
  -28.2958  -22.8635   19.5153 N   0  0  0  0  0  0
  -28.6053  -21.6109   19.9272 N   0  0  0  0  0  0
  -29.8964  -15.7441   20.5059 N   0  0  0  0  0  0
  -29.8481  -20.1056   21.3734 N   0  0  0  0  0  0
  -31.1642  -25.6607   21.0612 F   0  0  0  0  0  0
  -30.9742  -24.7138   23.0019 F   0  0  0  0  0  0
  -31.4683  -12.4745   19.1479 H   0  0  0  0  0  0
  -30.3409  -11.3775   19.8910 H   0  0  0  0  0  0
  -29.7597  -11.7506   17.4720 H   0  0  0  0  0  0
  -29.6548  -13.4719   17.7433 H   0  0  0  0  0  0
  -27.8499  -11.2984   18.8525 H   0  0  0  0  0  0
  -27.3708  -12.5940   17.7890 H   0  0  0  0  0  0
  -27.6712  -14.2555   19.5300 H   0  0  0  0  0  0
  -28.7036  -12.0391   21.3643 H   0  0  0  0  0  0
  -28.4420  -13.6842   21.8457 H   0  0  0  0  0  0
  -25.2760   -9.5689   22.4753 H   0  0  0  0  0  0
  -24.0002   -7.4637   22.7473 H   0  0  0  0  0  0
  -21.0834   -8.8775   19.8956 H   0  0  0  0  0  0
  -22.3689  -10.9674   19.6163 H   0  0  0  0  0  0
  -21.2009   -7.6145   23.9711 H   0  0  0  0  0  0
  -21.1481   -6.0520   25.9074 H   0  0  0  0  0  0
  -22.0599   -2.7606   23.2845 H   0  0  0  0  0  0
  -22.4091  -11.9894   22.4808 H   0  0  0  0  0  0
  -21.1100  -13.1261   22.2619 H   0  0  0  0  0  0
  -24.6610  -15.8463   20.5232 H   0  0  0  0  0  0
  -26.2796  -15.6266   20.0893 H   0  0  0  0  0  0
  -26.7149  -32.5465   23.1108 H   0  0  0  0  0  0
  -25.0062  -33.9736   25.0436 H   0  0  0  0  0  0
  -22.7050  -31.3048   21.4054 H   0  0  0  0  0  0
  -23.3748  -35.9638   23.3305 H   0  0  0  0  0  0
  -24.3584  -36.8913   22.2053 H   0  0  0  0  0  0
  -23.7247  -37.6507   23.6655 H   0  0  0  0  0  0
  -26.0769  -31.5672   20.6017 H   0  0  0  0  0  0
  -26.8331  -30.8516   21.9952 H   0  0  0  0  0  0
  -28.1039  -29.0190   21.1767 H   0  0  0  0  0  0
  -25.9458  -25.9171   19.0580 H   0  0  0  0  0  0
  -23.9607  -27.2913   19.0473 H   0  0  0  0  0  0
  -23.7395  -30.5949   19.4032 H   0  0  0  0  0  0
  -22.7458  -29.2454   19.8628 H   0  0  0  0  0  0
  -25.1290  -36.1945   25.0825 H   0  0  0  0  0  0
  -20.9967  -28.3242   24.1422 H   0  0  0  0  0  0
  -20.5669  -26.2279   23.3605 H   0  0  0  0  0  0
  -21.6639  -26.7436   22.1208 H   0  0  0  0  0  0
  -19.6907  -25.6293   21.1236 H   0  0  0  0  0  0
  -19.6686  -27.3195   20.6745 H   0  0  0  0  0  0
  -17.4194  -26.6669   21.4026 H   0  0  0  0  0  0
  -18.0328  -26.0063   22.9020 H   0  0  0  0  0  0
  -19.7931  -30.7258   24.2278 H   0  0  0  0  0  0
  -17.5012  -31.6266   24.5156 H   0  0  0  0  0  0
  -15.5347  -30.2983   23.7650 H   0  0  0  0  0  0
  -15.8667  -28.0816   22.7067 H   0  0  0  0  0  0
  -24.5903  -30.7069   25.7793 H   0  0  0  0  0  0
  -24.8932  -32.2881   26.4899 H   0  0  0  0  0  0
  -25.8075  -30.8887   27.0220 H   0  0  0  0  0  0
  -26.2880  -29.6775   24.1179 H   0  0  0  0  0  0
  -27.4046  -29.7265   25.4628 H   0  0  0  0  0  0
  -27.8738  -30.4315   23.9336 H   0  0  0  0  0  0
  -27.2661  -33.3612   26.2076 H   0  0  0  0  0  0
  -28.3850  -32.6893   25.0304 H   0  0  0  0  0  0
  -28.0732  -31.8436   26.5384 H   0  0  0  0  0  0
  -28.2595  -38.0103   24.7517 H   0  0  0  0  0  0
  -28.1082  -36.2634   24.6275 H   0  0  0  0  0  0
  -27.2304  -37.1438   25.8866 H   0  0  0  0  0  0
  -20.9334  -29.8757   21.6919 H   0  0  0  0  0  0
  -26.0175  -38.2857   24.1411 H   0  0  0  0  0  0
  -30.6941  -22.3730   22.4625 H   0  0  0  0  0  0
  -30.4018  -17.7431   22.5175 H   0  0  0  0  0  0
  -28.7163  -18.0445   22.8188 H   0  0  0  0  0  0
  -30.3133  -18.8231   18.9203 H   0  0  0  0  0  0
  -31.3663  -18.1948   20.1588 H   0  0  0  0  0  0
  -28.0450  -16.1726   21.3799 H   0  0  0  0  0  0
  -29.2523  -15.6283   22.5189 H   0  0  0  0  0  0
  -30.6580  -16.3890   18.6211 H   0  0  0  0  0  0
  -28.9842  -16.7332   18.9105 H   0  0  0  0  0  0
  -28.3905  -18.8592   20.4912 H   0  0  0  0  0  0
  -27.8038  -25.2089   18.6085 H   0  0  0  0  0  0
  -29.4628  -25.5232   18.7968 H   0  0  0  0  0  0
  -29.5579  -25.7748   22.1919 H   0  0  0  0  0  0
  -30.4917  -20.0875   22.1566 H   0  0  0  0  0  0
  1 25  1  0  0  0
  1 30  2  0  0  0
  1 84  1  0  0  0
  2  3  1  0  0  0
  2 25  1  0  0  0
  2 88  1  0  0  0
  2 89  1  0  0  0
  3  4  1  0  0  0
  3 90  1  0  0  0
  3 91  1  0  0  0
  4  5  1  0  0  0
  4 92  1  0  0  0
  4 93  1  0  0  0
  5  6  1  0  0  0
  5 26  1  0  0  0
  5 94  1  0  0  0
  6 25  1  0  0  0
  6 95  1  0  0  0
  6 96  1  0  0  0
  7  8  2  0  0  0
  7 26  1  0  0  0
  7 29  1  0  0  0
  8  9  1  0  0  0
  8 22  1  0  0  0
  9 10  1  0  0  0
  9 27  2  0  0  0
 10 11  2  0  0  0
 10 15  1  0  0  0
 11 12  1  0  0  0
 11 97  1  0  0  0
 12 13  2  0  0  0
 12 98  1  0  0  0
 13 14  1  0  0  0
 13 31  1  0  0  0
 14 15  2  0  0  0
 14 99  1  0  0  0
 15100  1  0  0  0
 16 17  2  0  0  0
 16 21  1  0  0  0
 16 31  1  0  0  0
 17 18  1  0  0  0
 17101  1  0  0  0
 18 19  2  0  0  0
 18102  1  0  0  0
 19 20  1  0  0  0
 19 24  1  0  0  0
 20 21  2  0  0  0
 20103  1  0  0  0
 21 23  1  0  0  0
 22 28  1  0  0  0
 22 32  2  0  0  0
 26 27  1  0  0  0
 28104  1  0  0  0
 28105  1  0  0  0
 29106  1  0  0  0
 29107  1  0  0  0
 33 34  1  0  0  0
 33 66  1  0  0  0
 33 70  2  0  0  0
 34 36  1  0  0  0
 34 59  1  0  0  0
 34108  1  0  0  0
 35 44  2  0  0  0
 35 45  1  0  0  0
 35 68  1  0  0  0
 36 56  1  0  0  0
 36109  1  0  0  0
 37 39  1  0  0  0
 37 47  1  0  0  0
 37 66  1  0  0  0
 37110  1  0  0  0
 38 43  2  0  0  0
 38 46  1  0  0  0
 38 47  1  0  0  0
 39 64  1  0  0  0
 39 67  2  0  0  0
 40 52  1  0  0  0
 40 53  2  0  0  0
 40 58  1  0  0  0
 41111  1  0  0  0
 41112  1  0  0  0
 41113  1  0  0  0
 41 48  1  0  0  0
 42 43  1  0  0  0
 42 66  1  0  0  0
 42114  1  0  0  0
 42115  1  0  0  0
 43 44  1  0  0  0
 44116  1  0  0  0
 45 46  2  0  0  0
 45117  1  0  0  0
 46118  1  0  0  0
 47119  1  0  0  0
 47120  1  0  0  0
 48 56  1  0  0  0
 48 65  1  0  0  0
 48121  1  0  0  0
 49 50  1  0  0  0
 49 53  1  0  0  0
 49 64  1  0  0  0
 49122  1  0  0  0
 50 51  1  0  0  0
 50123  1  0  0  0
 50124  1  0  0  0
 51 52  1  0  0  0
 51125  1  0  0  0
 51126  1  0  0  0
 52127  1  0  0  0
 52128  1  0  0  0
 53 54  1  0  0  0
 54 55  2  0  0  0
 54129  1  0  0  0
 55 57  1  0  0  0
 55130  1  0  0  0
 56 69  2  0  0  0
 57 58  2  0  0  0
 57131  1  0  0  0
 58132  1  0  0  0
 59 60  1  0  0  0
 59 61  1  0  0  0
 59 62  1  0  0  0
 60133  1  0  0  0
 60134  1  0  0  0
 60135  1  0  0  0
 61136  1  0  0  0
 61137  1  0  0  0
 61138  1  0  0  0
 62139  1  0  0  0
 62140  1  0  0  0
 62141  1  0  0  0
 63 65  1  0  0  0
 63142  1  0  0  0
 63143  1  0  0  0
 63144  1  0  0  0
 64145  1  0  0  0
 65146  1  0  0  0
 68 80  1  0  0  0
 71 72  2  0  0  0
 71 74  1  0  0  0
 71147  1  0  0  0
 72 73  1  0  0  0
 72 81  1  0  0  0
 73 80  1  0  0  0
 73 82  2  0  0  0
 74 83  2  0  0  0
 74 85  1  0  0  0
 75 77  1  0  0  0
 75 79  1  0  0  0
 75148  1  0  0  0
 75149  1  0  0  0
 76 78  1  0  0  0
 76 79  1  0  0  0
 76150  1  0  0  0
 76151  1  0  0  0
 77 84  1  0  0  0
 77152  1  0  0  0
 77153  1  0  0  0
 78 84  1  0  0  0
 78154  1  0  0  0
 78155  1  0  0  0
 79 85  1  0  0  0
 79156  1  0  0  0
 80157  1  0  0  0
 80158  1  0  0  0
 81 86  1  0  0  0
 81 87  1  0  0  0
 81159  1  0  0  0
 82 83  1  0  0  0
 85160  1  0  0  0
M  ISO  4   1 100  68 101  80 101  84 100
M  END
> <chiral flag>
0

> <version>
0

> <s_m_source_file>
/data/baiqing/PycharmProjects/Reinvent-master-3.2/result/LINK_invent/BTK/process_docking_weight1_custom_sum_contain_oxygen_bond_distance_aromatic_linkinvent_7_9_3/rearranged_h_0176.sdf

> <i_m_source_file_index>
39

> <r_mmod_Potential_Energy-OPLS-2005>
211.445755004883

> <r_mmod_Stretch_Energy-OPLS-2005>
65.2190856933594

> <r_mmod_Bend_Energy-OPLS-2005>
164.484115600586

> <r_mmod_Torsional_Energy-OPLS-2005>
315.70361328125

> <r_mmod_Improper_Torsional_Energy-OPLS-2005>
16.779052734375

> <r_mmod_Van_der_Waal_Energy-OPLS-2005>
148.232330322266

> <r_mmod_Electrostatic_Energy-OPLS-2005>
-313.205444335938

> <r_mmod_Solvation_Energy-OPLS-2005>
-221.095687866211

> <b_mmod_Minimization_Converged-OPLS-2005>
0

> <r_mmod_RMS_Derivative-OPLS-2005>
0.575257420539856

$$$$
39
                    3D
 Structure written by MMmdl.
181190  0  0  1  0            999 V2000
  -30.7500  -14.4239   20.6220 C   0  0  0  0  0  0
  -30.4120  -12.3010   19.4078 C   0  0  0  0  0  0
  -29.4861  -12.5190   18.1964 C   0  0  0  0  0  0
  -28.0082  -12.3779   18.6092 C   0  0  0  0  0  0
  -27.6600  -13.2065   19.8745 C   0  0  2  0  0  0
  -28.7028  -12.9824   20.9924 C   0  0  0  0  0  0
  -25.2578  -13.8160   20.5681 C   0  0  0  0  0  0
  -24.1834  -13.0430   20.9176 C   0  0  0  0  0  0
  -24.6396  -11.6902   20.8736 C   0  0  0  0  0  0
  -23.9065  -10.4285   21.0404 C   0  0  0  0  0  0
  -24.3615   -9.4208   21.9186 C   0  0  0  0  0  0
  -23.6295   -8.2241   22.0753 C   0  0  0  0  0  0
  -22.4279   -8.0274   21.3541 C   0  0  0  0  0  0
  -21.9916   -9.0245   20.4643 C   0  0  0  0  0  0
  -22.7240  -10.2128   20.3056 C   0  0  0  0  0  0
  -21.6854   -6.0738   22.5282 C   0  0  0  0  0  0
  -21.4013   -6.5637   23.8214 C   0  0  0  0  0  0
  -21.3662   -5.6790   24.9176 C   0  0  0  0  0  0
  -21.6044   -4.3054   24.7225 C   0  0  0  0  0  0
  -21.8818   -3.8152   23.4344 C   0  0  0  0  0  0
  -21.9190   -4.6967   22.3403 C   0  0  0  0  0  0
  -22.7857  -13.5225   21.1839 C   0  0  0  0  0  0
  -22.1657   -4.2157   21.0979 F   0  0  0  0  0  0
  -21.5636   -3.4542   25.7735 F   0  0  0  0  0  0
  -30.0370  -13.2770   20.4426 N   0  0  0  0  0  0
  -26.3019  -12.9328   20.3373 N   0  0  0  0  0  0
  -25.9321  -11.6483   20.5767 N   0  0  0  0  0  0
  -22.0486  -12.8220   22.0386 N   0  0  0  0  0  0
  -25.4294  -15.1877   20.4076 N   0  0  0  0  0  0
  -31.8456  -14.6188   20.0850 O   0  0  0  0  0  0
  -21.6638   -6.8880   21.4240 O   0  0  0  0  0  0
  -22.3553  -14.5538   20.6692 O   0  0  0  0  0  0
  -24.6156  -31.8672   23.2121 C   0  0  0  0  0  0
  -25.9049  -32.4820   23.8401 C   0  0  1  0  0  0
  -27.2334  -27.4346   20.0693 C   0  0  0  0  0  0
  -25.5899  -33.8620   24.2323 N   0  0  0  0  0  0
  -23.4006  -30.4935   21.5545 C   0  0  2  0  0  0
  -24.8430  -28.9629   20.1152 C   0  0  0  0  0  0
  -22.7388  -29.4665   22.5008 C   0  0  0  0  0  0
  -18.0261  -28.1376   22.8505 C   0  0  0  0  0  0
  -24.1481  -36.7315   23.2635 C   0  0  0  0  0  0
  -25.9312  -30.8308   21.3649 C   0  0  0  0  0  0
  -26.0049  -29.4651   20.7120 C   0  0  0  0  0  0
  -27.1971  -28.7044   20.6956 C   0  0  0  0  0  0
  -26.0398  -26.9459   19.4820 C   0  0  0  0  0  0
  -24.8550  -27.7007   19.5040 C   0  0  0  0  0  0
  -23.6050  -29.8284   20.1682 C   0  0  0  0  0  0
  -25.4099  -36.3110   24.0336 C   0  0  1  0  0  0
  -20.5848  -28.3663   23.1319 C   0  0  2  0  0  0
  -20.6754  -26.9395   22.5421 C   0  0  0  0  0  0
  -19.5731  -26.6385   21.5218 C   0  0  0  0  0  0
  -18.1906  -26.7930   22.1621 C   0  0  0  0  0  0
  -19.1512  -28.8838   23.2914 C   0  0  0  0  0  0
  -18.9444  -30.1445   23.8922 C   0  0  0  0  0  0
  -17.6446  -30.6589   24.0568 C   0  0  0  0  0  0
  -25.9032  -34.9476   23.5128 C   0  0  0  0  0  0
  -16.5341  -29.9089   23.6333 C   0  0  0  0  0  0
  -16.7251  -28.6498   23.0370 C   0  0  0  0  0  0
  -26.4475  -31.6607   25.0730 C   0  0  0  0  0  0
  -25.3746  -31.3694   26.1479 C   0  0  0  0  0  0
  -27.0322  -30.3057   24.6111 C   0  0  0  0  0  0
  -27.6034  -32.4339   25.7506 C   0  0  0  0  0  0
  -27.5587  -37.1792   24.8444 C   0  0  0  0  0  0
  -21.4118  -29.3044   22.3739 N   0  0  0  0  0  0
  -26.4275  -37.3810   23.9433 N   0  0  0  0  0  0
  -24.6681  -31.0767   22.1029 N   0  0  0  0  0  0
  -23.4159  -28.8189   23.3037 O   0  0  0  0  0  0
  -28.4195  -26.7204   20.0882 O   0  0  0  0  0  0
  -26.5594  -34.8919   22.4690 O   0  0  0  0  0  0
  -23.5349  -32.1430   23.7509 O   0  0  0  0  0  0
  -29.7113  -19.2837   23.2039 C   0  0  0  0  0  0
  -29.2331  -16.3109   20.9073 C   0  0  0  0  0  0
  -31.0578  -15.8877   22.5254 C   0  0  0  0  0  0
  -29.5700  -17.8028   21.1814 C   0  0  0  0  0  0
  -30.3008  -16.9142   23.3854 C   0  0  0  0  0  0
  -30.7085  -23.2810   21.3655 C   0  0  0  0  0  0
  -28.3712  -22.9592   20.7506 C   0  0  0  0  0  0
  -30.4885  -22.6671   22.7632 C   0  0  1  0  0  0
  -28.0071  -22.3480   22.1322 C   0  0  2  0  0  0
  -29.2582  -21.7225   22.8214 C   0  0  1  0  0  0
  -31.7804  -22.0244   23.3002 C   0  0  0  0  0  0
  -26.3472  -20.9411   23.5100 C   0  0  0  0  0  0
  -25.5404  -22.0083   21.4008 C   0  0  0  0  0  0
  -29.7631  -24.7196   19.6042 C   0  0  0  0  0  0
  -28.6221  -25.6553   19.1464 C   0  0  0  0  0  0
  -26.7701  -21.3927   22.0973 C   0  0  0  0  0  0
  -30.2164  -15.3517   21.4501 N   0  0  0  0  0  0
  -29.8909  -18.0840   22.5937 N   0  0  0  0  0  0
  -29.5450  -20.3398   22.3845 N   0  0  0  0  0  0
  -29.4838  -23.9458   20.8524 N   0  3  2  0  0  0
  -29.7478  -19.4120   24.4313 O   0  0  0  0  0  0
  -31.4578  -12.3856   19.1068 H   0  0  0  0  0  0
  -30.2987  -11.2874   19.7947 H   0  0  0  0  0  0
  -29.7224  -11.8051   17.4060 H   0  0  0  0  0  0
  -29.6573  -13.5102   17.7732 H   0  0  0  0  0  0
  -27.8126  -11.3205   18.7913 H   0  0  0  0  0  0
  -27.3590  -12.6676   17.7820 H   0  0  0  0  0  0
  -27.7022  -14.2544   19.5809 H   0  0  0  0  0  0
  -28.6730  -11.9473   21.3357 H   0  0  0  0  0  0
  -28.4628  -13.5856   21.8682 H   0  0  0  0  0  0
  -25.2761   -9.5687   22.4766 H   0  0  0  0  0  0
  -24.0008   -7.4634   22.7471 H   0  0  0  0  0  0
  -21.0857   -8.8751   19.8948 H   0  0  0  0  0  0
  -22.3694  -10.9660   19.6165 H   0  0  0  0  0  0
  -21.1999   -7.6145   23.9724 H   0  0  0  0  0  0
  -21.1490   -6.0519   25.9078 H   0  0  0  0  0  0
  -22.0598   -2.7616   23.2843 H   0  0  0  0  0  0
  -22.4093  -11.9877   22.4774 H   0  0  0  0  0  0
  -21.1101  -13.1249   22.2575 H   0  0  0  0  0  0
  -24.6620  -15.8418   20.5158 H   0  0  0  0  0  0
  -26.2820  -15.6264   20.0854 H   0  0  0  0  0  0
  -26.7123  -32.5517   23.1165 H   0  0  0  0  0  0
  -25.0066  -33.9789   25.0479 H   0  0  0  0  0  0
  -22.6918  -31.3128   21.4171 H   0  0  0  0  0  0
  -23.3758  -35.9624   23.3246 H   0  0  0  0  0  0
  -24.3591  -36.8989   22.2060 H   0  0  0  0  0  0
  -23.7200  -37.6487   23.6689 H   0  0  0  0  0  0
  -26.0406  -31.5960   20.5948 H   0  0  0  0  0  0
  -26.8215  -30.8848   21.9800 H   0  0  0  0  0  0
  -28.0949  -29.0911   21.1576 H   0  0  0  0  0  0
  -25.9646  -25.9814   19.0074 H   0  0  0  0  0  0
  -23.9585  -27.3028   19.0488 H   0  0  0  0  0  0
  -23.7052  -30.6032   19.4075 H   0  0  0  0  0  0
  -22.7292  -29.2456   19.8768 H   0  0  0  0  0  0
  -25.1269  -36.1966   25.0824 H   0  0  0  0  0  0
  -20.9939  -28.3231   24.1441 H   0  0  0  0  0  0
  -20.5659  -26.2269   23.3611 H   0  0  0  0  0  0
  -21.6626  -26.7443   22.1214 H   0  0  0  0  0  0
  -19.6887  -25.6294   21.1253 H   0  0  0  0  0  0
  -19.6672  -27.3197   20.6749 H   0  0  0  0  0  0
  -17.4176  -26.6698   21.4020 H   0  0  0  0  0  0
  -18.0288  -26.0059   22.8998 H   0  0  0  0  0  0
  -19.7914  -30.7266   24.2297 H   0  0  0  0  0  0
  -17.4998  -31.6276   24.5150 H   0  0  0  0  0  0
  -15.5344  -30.3007   23.7644 H   0  0  0  0  0  0
  -15.8645  -28.0828   22.7096 H   0  0  0  0  0  0
  -24.5938  -30.7015   25.7823 H   0  0  0  0  0  0
  -24.8914  -32.2835   26.4934 H   0  0  0  0  0  0
  -25.8115  -30.8876   27.0234 H   0  0  0  0  0  0
  -26.2876  -29.6808   24.1167 H   0  0  0  0  0  0
  -27.4103  -29.7300   25.4571 H   0  0  0  0  0  0
  -27.8695  -30.4391   23.9254 H   0  0  0  0  0  0
  -27.2644  -33.3637   26.2083 H   0  0  0  0  0  0
  -28.3850  -32.6910   25.0347 H   0  0  0  0  0  0
  -28.0690  -31.8467   26.5430 H   0  0  0  0  0  0
  -28.2534  -38.0163   24.7613 H   0  0  0  0  0  0
  -28.1161  -36.2705   24.6119 H   0  0  0  0  0  0
  -27.2322  -37.1247   25.8844 H   0  0  0  0  0  0
  -20.9263  -29.8798   21.7001 H   0  0  0  0  0  0
  -26.0152  -38.2864   24.1513 H   0  0  0  0  0  0
  -29.1111  -16.1766   19.8295 H   0  0  0  0  0  0
  -28.2641  -16.0752   21.3488 H   0  0  0  0  0  0
  -31.3966  -15.0657   23.1589 H   0  0  0  0  0  0
  -31.9555  -16.3474   22.1064 H   0  0  0  0  0  0
  -28.7222  -18.4051   20.8509 H   0  0  0  0  0  0
  -30.4241  -18.1054   20.5725 H   0  0  0  0  0  0
  -30.9544  -17.2132   24.2076 H   0  0  0  0  0  0
  -29.4179  -16.4614   23.8408 H   0  0  0  0  0  0
  -31.0298  -22.5122   20.6612 H   0  0  0  0  0  0
  -31.5218  -24.0065   21.4221 H   0  0  0  0  0  0
  -27.4928  -23.4582   20.3515 H   0  0  0  0  0  0
  -28.6332  -22.1726   20.0415 H   0  0  0  0  0  0
  -30.2644  -23.5007   23.4313 H   0  0  0  0  0  0
  -27.7101  -23.1958   22.7533 H   0  0  0  0  0  0
  -29.0025  -21.6778   23.8817 H   0  0  0  0  0  0
  -32.1428  -21.2329   22.6429 H   0  0  0  0  0  0
  -31.6260  -21.5932   24.2899 H   0  0  0  0  0  0
  -32.5777  -22.7630   23.3906 H   0  0  0  0  0  0
  -27.1240  -20.3689   24.0142 H   0  0  0  0  0  0
  -25.4684  -20.2962   23.4736 H   0  0  0  0  0  0
  -26.1024  -21.7945   24.1434 H   0  0  0  0  0  0
  -25.6930  -22.1236   20.3280 H   0  0  0  0  0  0
  -25.2871  -22.9843   21.8171 H   0  0  0  0  0  0
  -24.6640  -21.3687   21.5149 H   0  0  0  0  0  0
  -30.6549  -25.3307   19.7488 H   0  0  0  0  0  0
  -29.9997  -24.0206   18.8003 H   0  0  0  0  0  0
  -27.7463  -25.0493   18.9406 H   0  0  0  0  0  0
  -28.8966  -26.1090   18.1934 H   0  0  0  0  0  0
  -27.0327  -20.4977   21.5314 H   0  0  0  0  0  0
  -29.5710  -20.1444   21.3949 H   0  0  0  0  0  0
  -29.2137  -24.6332   21.5429 H   0  0  0  0  0  0
  1 25  1  0  0  0
  1 30  2  0  0  0
  1 87  1  0  0  0
  2  3  1  0  0  0
  2 25  1  0  0  0
  2 92  1  0  0  0
  2 93  1  0  0  0
  3  4  1  0  0  0
  3 94  1  0  0  0
  3 95  1  0  0  0
  4  5  1  0  0  0
  4 96  1  0  0  0
  4 97  1  0  0  0
  5  6  1  0  0  0
  5 26  1  0  0  0
  5 98  1  0  0  0
  6 25  1  0  0  0
  6 99  1  0  0  0
  6100  1  0  0  0
  7  8  2  0  0  0
  7 26  1  0  0  0
  7 29  1  0  0  0
  8  9  1  0  0  0
  8 22  1  0  0  0
  9 10  1  0  0  0
  9 27  2  0  0  0
 10 11  2  0  0  0
 10 15  1  0  0  0
 11 12  1  0  0  0
 11101  1  0  0  0
 12 13  2  0  0  0
 12102  1  0  0  0
 13 14  1  0  0  0
 13 31  1  0  0  0
 14 15  2  0  0  0
 14103  1  0  0  0
 15104  1  0  0  0
 16 17  2  0  0  0
 16 21  1  0  0  0
 16 31  1  0  0  0
 17 18  1  0  0  0
 17105  1  0  0  0
 18 19  2  0  0  0
 18106  1  0  0  0
 19 20  1  0  0  0
 19 24  1  0  0  0
 20 21  2  0  0  0
 20107  1  0  0  0
 21 23  1  0  0  0
 22 28  1  0  0  0
 22 32  2  0  0  0
 26 27  1  0  0  0
 28108  1  0  0  0
 28109  1  0  0  0
 29110  1  0  0  0
 29111  1  0  0  0
 33 34  1  0  0  0
 33 66  1  0  0  0
 33 70  2  0  0  0
 34 36  1  0  0  0
 34 59  1  0  0  0
 34112  1  0  0  0
 35 44  2  0  0  0
 35 45  1  0  0  0
 35 68  1  0  0  0
 36 56  1  0  0  0
 36113  1  0  0  0
 37 39  1  0  0  0
 37 47  1  0  0  0
 37 66  1  0  0  0
 37114  1  0  0  0
 38 43  2  0  0  0
 38 46  1  0  0  0
 38 47  1  0  0  0
 39 64  1  0  0  0
 39 67  2  0  0  0
 40 52  1  0  0  0
 40 53  2  0  0  0
 40 58  1  0  0  0
 41115  1  0  0  0
 41116  1  0  0  0
 41117  1  0  0  0
 41 48  1  0  0  0
 42 43  1  0  0  0
 42 66  1  0  0  0
 42118  1  0  0  0
 42119  1  0  0  0
 43 44  1  0  0  0
 44120  1  0  0  0
 45 46  2  0  0  0
 45121  1  0  0  0
 46122  1  0  0  0
 47123  1  0  0  0
 47124  1  0  0  0
 48 56  1  0  0  0
 48 65  1  0  0  0
 48125  1  0  0  0
 49 50  1  0  0  0
 49 53  1  0  0  0
 49 64  1  0  0  0
 49126  1  0  0  0
 50 51  1  0  0  0
 50127  1  0  0  0
 50128  1  0  0  0
 51 52  1  0  0  0
 51129  1  0  0  0
 51130  1  0  0  0
 52131  1  0  0  0
 52132  1  0  0  0
 53 54  1  0  0  0
 54 55  2  0  0  0
 54133  1  0  0  0
 55 57  1  0  0  0
 55134  1  0  0  0
 56 69  2  0  0  0
 57 58  2  0  0  0
 57135  1  0  0  0
 58136  1  0  0  0
 59 60  1  0  0  0
 59 61  1  0  0  0
 59 62  1  0  0  0
 60137  1  0  0  0
 60138  1  0  0  0
 60139  1  0  0  0
 61140  1  0  0  0
 61141  1  0  0  0
 61142  1  0  0  0
 62143  1  0  0  0
 62144  1  0  0  0
 62145  1  0  0  0
 63 65  1  0  0  0
 63146  1  0  0  0
 63147  1  0  0  0
 63148  1  0  0  0
 64149  1  0  0  0
 65150  1  0  0  0
 68 85  1  0  0  0
 71 88  1  0  0  0
 71 89  1  0  0  0
 71 91  2  0  0  0
 72 74  1  0  0  0
 72 87  1  0  0  0
 72151  1  0  0  0
 72152  1  0  0  0
 73 75  1  0  0  0
 73 87  1  0  0  0
 73153  1  0  0  0
 73154  1  0  0  0
 74 88  1  0  0  0
 74155  1  0  0  0
 74156  1  0  0  0
 75 88  1  0  0  0
 75157  1  0  0  0
 75158  1  0  0  0
 76 78  1  0  0  0
 76 90  1  0  0  0
 76159  1  0  0  0
 76160  1  0  0  0
 77 90  1  0  0  0
 77161  1  0  0  0
 77162  1  0  0  0
 77 79  1  0  0  0
 78 80  1  0  0  0
 78 81  1  0  0  0
 78163  1  0  0  0
 79 80  1  0  0  0
 79 86  1  0  0  0
 79164  1  0  0  0
 80 89  1  0  0  0
 80165  1  0  0  0
 81166  1  0  0  0
 81167  1  0  0  0
 81168  1  0  0  0
 82169  1  0  0  0
 82170  1  0  0  0
 82171  1  0  0  0
 82 86  1  0  0  0
 83 86  1  0  0  0
 83172  1  0  0  0
 83173  1  0  0  0
 83174  1  0  0  0
 84 85  1  0  0  0
 84175  1  0  0  0
 84176  1  0  0  0
 84 90  1  0  0  0
 85177  1  0  0  0
 85178  1  0  0  0
 86179  1  0  0  0
 89180  1  0  0  0
 90181  1  0  0  0
M  CHG  1  90   1
M  ISO  4   1 100  68 101  85 101  87 100
M  END
> <chiral flag>
0

> <version>
0

> <s_m_source_file>
/data/baiqing/PycharmProjects/Reinvent-master-3.2/result/LINK_invent/BTK/process_docking_weight1_custom_sum_contain_oxygen_bond_distance_aromatic_linkinvent_7_9_3/rearranged_h_0176.sdf

> <i_m_source_file_index>
40

> <r_mmod_Potential_Energy-OPLS-2005>
145.197296142578

> <r_mmod_Stretch_Energy-OPLS-2005>
44.8213806152344

> <r_mmod_Bend_Energy-OPLS-2005>
122.776664733887

> <r_mmod_Torsional_Energy-OPLS-2005>
458.123931884766

> <r_mmod_Improper_Torsional_Energy-OPLS-2005>
4.6556453704834

> <r_mmod_Van_der_Waal_Energy-OPLS-2005>
160.919250488281

> <r_mmod_Electrostatic_Energy-OPLS-2005>
-216.252380371094

> <r_mmod_Solvation_Energy-OPLS-2005>
-440.372741699219

> <b_mmod_Minimization_Converged-OPLS-2005>
0

> <r_mmod_RMS_Derivative-OPLS-2005>
1.25007605552673

$$$$
40
                    3D
 Structure written by MMmdl.
154163  0  0  1  0            999 V2000
  -30.4800  -15.1223   20.3909 C   0  0  0  0  0  0
  -30.4446  -12.7129   19.4923 C   0  0  0  0  0  0
  -29.5256  -12.5414   18.2601 C   0  0  0  0  0  0
  -28.0689  -12.2928   18.6930 C   0  0  0  0  0  0
  -27.6174  -13.2571   19.8195 C   0  0  2  0  0  0
  -28.6604  -13.3725   20.9483 C   0  0  0  0  0  0
  -25.2430  -13.8220   20.5736 C   0  0  0  0  0  0
  -24.1764  -13.0430   20.9257 C   0  0  0  0  0  0
  -24.6393  -11.6923   20.8766 C   0  0  0  0  0  0
  -23.9085  -10.4290   21.0414 C   0  0  0  0  0  0
  -24.3633   -9.4203   21.9189 C   0  0  0  0  0  0
  -23.6300   -8.2240   22.0757 C   0  0  0  0  0  0
  -22.4279   -8.0284   21.3546 C   0  0  0  0  0  0
  -21.9923   -9.0260   20.4648 C   0  0  0  0  0  0
  -22.7259  -10.2134   20.3060 C   0  0  0  0  0  0
  -21.6857   -6.0738   22.5280 C   0  0  0  0  0  0
  -21.4014   -6.5642   23.8214 C   0  0  0  0  0  0
  -21.3657   -5.6793   24.9175 C   0  0  0  0  0  0
  -21.6047   -4.3056   24.7226 C   0  0  0  0  0  0
  -21.8816   -3.8148   23.4346 C   0  0  0  0  0  0
  -21.9192   -4.6965   22.3403 C   0  0  0  0  0  0
  -22.7784  -13.5197   21.1897 C   0  0  0  0  0  0
  -22.1662   -4.2155   21.0980 F   0  0  0  0  0  0
  -21.5628   -3.4538   25.7736 F   0  0  0  0  0  0
  -29.9021  -13.8400   20.3163 N   0  0  0  0  0  0
  -26.2844  -12.9464   20.3199 N   0  0  0  0  0  0
  -25.9322  -11.6590   20.5720 N   0  0  0  0  0  0
  -22.0429  -12.8190   22.0447 N   0  0  0  0  0  0
  -25.4066  -15.1958   20.4187 N   0  0  0  0  0  0
  -31.7095  -15.1399   20.2544 O   0  0  0  0  0  0
  -21.6640   -6.8882   21.4241 O   0  0  0  0  0  0
  -22.3474  -14.5498   20.6727 O   0  0  0  0  0  0
  -24.6528  -31.8342   23.1812 C   0  0  0  0  0  0
  -25.9257  -32.4642   23.8229 C   0  0  1  0  0  0
  -27.2116  -27.0306   20.1756 C   0  0  0  0  0  0
  -25.5974  -33.8456   24.2142 N   0  0  0  0  0  0
  -23.4617  -30.4500   21.5302 C   0  0  2  0  0  0
  -24.9108  -28.8502   20.1227 C   0  0  0  0  0  0
  -22.7606  -29.4501   22.4849 C   0  0  0  0  0  0
  -18.0305  -28.1404   22.8467 C   0  0  0  0  0  0
  -24.1490  -36.7229   23.2648 C   0  0  0  0  0  0
  -26.0245  -30.6714   21.3979 C   0  0  0  0  0  0
  -26.0923  -29.2684   20.7488 C   0  0  0  0  0  0
  -27.2451  -28.3780   20.7546 C   0  0  0  0  0  0
  -26.0043  -26.7386   19.5100 C   0  0  0  0  0  0
  -24.8836  -27.6008   19.4875 C   0  0  0  0  0  0
  -23.6948  -29.7706   20.1552 C   0  0  0  0  0  0
  -25.4128  -36.2999   24.0306 C   0  0  1  0  0  0
  -20.5923  -28.3739   23.1207 C   0  0  2  0  0  0
  -20.6782  -26.9432   22.5401 C   0  0  0  0  0  0
  -19.5757  -26.6381   21.5210 C   0  0  0  0  0  0
  -18.1941  -26.7936   22.1623 C   0  0  0  0  0  0
  -19.1565  -28.8889   23.2824 C   0  0  0  0  0  0
  -18.9479  -30.1481   23.8860 C   0  0  0  0  0  0
  -17.6476  -30.6592   24.0553 C   0  0  0  0  0  0
  -25.9083  -34.9376   23.5033 C   0  0  0  0  0  0
  -16.5365  -29.9082   23.6342 C   0  0  0  0  0  0
  -16.7292  -28.6503   23.0355 C   0  0  0  0  0  0
  -26.4548  -31.6549   25.0715 C   0  0  0  0  0  0
  -25.3710  -31.3757   26.1394 C   0  0  0  0  0  0
  -27.0437  -30.2929   24.6379 C   0  0  0  0  0  0
  -27.6056  -32.4341   25.7508 C   0  0  0  0  0  0
  -27.5561  -37.1782   24.8472 C   0  0  0  0  0  0
  -21.4291  -29.3044   22.3569 N   0  0  0  0  0  0
  -26.4288  -37.3712   23.9391 N   0  0  0  0  0  0
  -24.7332  -31.0093   22.0906 N   0  0  0  0  0  0
  -23.4193  -28.8051   23.3039 O   0  0  0  0  0  0
  -28.2473  -25.9991   20.0973 O   0  0  0  0  0  0
  -26.5670  -34.8886   22.4614 O   0  0  0  0  0  0
  -23.5628  -32.1275   23.6972 O   0  0  0  0  0  0
  -28.1123  -24.4726   22.0363 C   0  0  0  0  0  0
  -28.3300  -23.2185   22.6387 C   0  0  0  0  0  0
  -28.2288  -24.6078   20.6509 C   0  0  0  0  0  0
  -28.7238  -22.1225   20.6348 C   0  0  0  0  0  0
  -31.0598  -19.7450   20.6126 C   0  0  0  0  0  0
  -31.3490  -18.2509   20.7766 C   0  0  0  0  0  0
  -29.7088  -19.4239   19.9672 C   0  0  1  0  0  0
  -29.8453  -17.9195   20.8369 C   0  0  1  0  0  0
  -28.2074  -23.0755   24.1412 C   0  0  0  0  0  0
  -28.6494  -22.0902   21.9564 N   0  0  0  0  0  0
  -28.5301  -23.3658   19.9681 N   0  0  0  0  0  0
  -28.7883  -20.7425   20.0238 N   0  0  0  0  0  0
  -29.6903  -16.3500   20.4084 N   0  0  0  0  0  0
  -31.4647  -12.9131   19.1612 H   0  0  0  0  0  0
  -30.4949  -11.7919   20.0763 H   0  0  0  0  0  0
  -29.8773  -11.7199   17.6354 H   0  0  0  0  0  0
  -29.5746  -13.4400   17.6428 H   0  0  0  0  0  0
  -28.0045  -11.2640   19.0483 H   0  0  0  0  0  0
  -27.3973  -12.3625   17.8366 H   0  0  0  0  0  0
  -27.5492  -14.2368   19.3462 H   0  0  0  0  0  0
  -28.8011  -12.4203   21.4622 H   0  0  0  0  0  0
  -28.3312  -14.0895   21.7024 H   0  0  0  0  0  0
  -25.2775   -9.5678   22.4772 H   0  0  0  0  0  0
  -24.0008   -7.4630   22.7479 H   0  0  0  0  0  0
  -21.0854   -8.8785   19.8956 H   0  0  0  0  0  0
  -22.3719  -10.9677   19.6176 H   0  0  0  0  0  0
  -21.2007   -7.6151   23.9720 H   0  0  0  0  0  0
  -21.1484   -6.0523   25.9080 H   0  0  0  0  0  0
  -22.0596   -2.7612   23.2843 H   0  0  0  0  0  0
  -22.4057  -11.9867   22.4851 H   0  0  0  0  0  0
  -21.1042  -13.1210   22.2637 H   0  0  0  0  0  0
  -24.6331  -15.8417   20.5367 H   0  0  0  0  0  0
  -26.2443  -15.6430   20.0711 H   0  0  0  0  0  0
  -26.7314  -32.5214   23.0941 H   0  0  0  0  0  0
  -25.0095  -33.9547   25.0274 H   0  0  0  0  0  0
  -22.7707  -31.2798   21.3671 H   0  0  0  0  0  0
  -23.3750  -35.9563   23.3312 H   0  0  0  0  0  0
  -24.3557  -36.8869   22.2061 H   0  0  0  0  0  0
  -23.7251  -37.6424   23.6695 H   0  0  0  0  0  0
  -26.1907  -31.4145   20.6176 H   0  0  0  0  0  0
  -26.8905  -30.7288   22.0448 H   0  0  0  0  0  0
  -28.1530  -28.7035   21.2410 H   0  0  0  0  0  0
  -25.9150  -25.7852   19.0109 H   0  0  0  0  0  0
  -23.9856  -27.2748   18.9787 H   0  0  0  0  0  0
  -23.8439  -30.5402   19.3969 H   0  0  0  0  0  0
  -22.8066  -29.2203   19.8413 H   0  0  0  0  0  0
  -25.1327  -36.1815   25.0798 H   0  0  0  0  0  0
  -21.0010  -28.3339   24.1330 H   0  0  0  0  0  0
  -20.5652  -26.2362   23.3629 H   0  0  0  0  0  0
  -21.6645  -26.7406   22.1212 H   0  0  0  0  0  0
  -19.6910  -25.6286   21.1255 H   0  0  0  0  0  0
  -19.6688  -27.3168   20.6723 H   0  0  0  0  0  0
  -17.4200  -26.6666   21.4037 H   0  0  0  0  0  0
  -18.0349  -26.0099   22.9043 H   0  0  0  0  0  0
  -19.7958  -30.7298   24.2221 H   0  0  0  0  0  0
  -17.5030  -31.6274   24.5151 H   0  0  0  0  0  0
  -15.5366  -30.2961   23.7696 H   0  0  0  0  0  0
  -15.8696  -28.0806   22.7094 H   0  0  0  0  0  0
  -24.5876  -30.7134   25.7685 H   0  0  0  0  0  0
  -24.8930  -32.2958   26.4771 H   0  0  0  0  0  0
  -25.7976  -30.8932   27.0201 H   0  0  0  0  0  0
  -26.3088  -29.6618   24.1372 H   0  0  0  0  0  0
  -27.3984  -29.7264   25.4997 H   0  0  0  0  0  0
  -27.9021  -30.4123   23.9766 H   0  0  0  0  0  0
  -27.2614  -33.3636   26.2045 H   0  0  0  0  0  0
  -28.3887  -32.6915   25.0367 H   0  0  0  0  0  0
  -28.0711  -31.8513   26.5462 H   0  0  0  0  0  0
  -28.2604  -38.0047   24.7448 H   0  0  0  0  0  0
  -28.1031  -36.2573   24.6397 H   0  0  0  0  0  0
  -27.2266  -37.1545   25.8873 H   0  0  0  0  0  0
  -20.9526  -29.8759   21.6733 H   0  0  0  0  0  0
  -26.0152  -38.2785   24.1359 H   0  0  0  0  0  0
  -27.9111  -25.3466   22.6397 H   0  0  0  0  0  0
  -31.7614  -20.2735   19.9647 H   0  0  0  0  0  0
  -30.9646  -20.2477   21.5751 H   0  0  0  0  0  0
  -31.9128  -17.9974   21.6738 H   0  0  0  0  0  0
  -31.8393  -17.8484   19.8889 H   0  0  0  0  0  0
  -29.8582  -19.2065   18.9079 H   0  0  0  0  0  0
  -29.4882  -18.0727   21.8574 H   0  0  0  0  0  0
  -27.5087  -23.8106   24.5401 H   0  0  0  0  0  0
  -29.1704  -23.2283   24.6272 H   0  0  0  0  0  0
  -27.8378  -22.0880   24.4169 H   0  0  0  0  0  0
  -28.3917  -20.8168   19.0934 H   0  0  0  0  0  0
  -28.7146  -16.1171   20.2974 H   0  0  0  0  0  0
  1 25  1  0  0  0
  1 30  2  0  0  0
  1 83  1  0  0  0
  2  3  1  0  0  0
  2 25  1  0  0  0
  2 84  1  0  0  0
  2 85  1  0  0  0
  3  4  1  0  0  0
  3 86  1  0  0  0
  3 87  1  0  0  0
  4  5  1  0  0  0
  4 88  1  0  0  0
  4 89  1  0  0  0
  5  6  1  0  0  0
  5 26  1  0  0  0
  5 90  1  0  0  0
  6 25  1  0  0  0
  6 91  1  0  0  0
  6 92  1  0  0  0
  7  8  2  0  0  0
  7 26  1  0  0  0
  7 29  1  0  0  0
  8  9  1  0  0  0
  8 22  1  0  0  0
  9 10  1  0  0  0
  9 27  2  0  0  0
 10 11  2  0  0  0
 10 15  1  0  0  0
 11 12  1  0  0  0
 11 93  1  0  0  0
 12 13  2  0  0  0
 12 94  1  0  0  0
 13 14  1  0  0  0
 13 31  1  0  0  0
 14 15  2  0  0  0
 14 95  1  0  0  0
 15 96  1  0  0  0
 16 17  2  0  0  0
 16 21  1  0  0  0
 16 31  1  0  0  0
 17 18  1  0  0  0
 17 97  1  0  0  0
 18 19  2  0  0  0
 18 98  1  0  0  0
 19 20  1  0  0  0
 19 24  1  0  0  0
 20 21  2  0  0  0
 20 99  1  0  0  0
 21 23  1  0  0  0
 22 28  1  0  0  0
 22 32  2  0  0  0
 26 27  1  0  0  0
 28100  1  0  0  0
 28101  1  0  0  0
 29102  1  0  0  0
 29103  1  0  0  0
 33 34  1  0  0  0
 33 66  1  0  0  0
 33 70  2  0  0  0
 34 36  1  0  0  0
 34 59  1  0  0  0
 34104  1  0  0  0
 35 44  2  0  0  0
 35 45  1  0  0  0
 35 68  1  0  0  0
 36 56  1  0  0  0
 36105  1  0  0  0
 37 39  1  0  0  0
 37 47  1  0  0  0
 37 66  1  0  0  0
 37106  1  0  0  0
 38 43  2  0  0  0
 38 46  1  0  0  0
 38 47  1  0  0  0
 39 64  1  0  0  0
 39 67  2  0  0  0
 40 52  1  0  0  0
 40 53  2  0  0  0
 40 58  1  0  0  0
 41107  1  0  0  0
 41108  1  0  0  0
 41109  1  0  0  0
 41 48  1  0  0  0
 42 43  1  0  0  0
 42 66  1  0  0  0
 42110  1  0  0  0
 42111  1  0  0  0
 43 44  1  0  0  0
 44112  1  0  0  0
 45 46  2  0  0  0
 45113  1  0  0  0
 46114  1  0  0  0
 47115  1  0  0  0
 47116  1  0  0  0
 48 56  1  0  0  0
 48 65  1  0  0  0
 48117  1  0  0  0
 49 50  1  0  0  0
 49 53  1  0  0  0
 49 64  1  0  0  0
 49118  1  0  0  0
 50 51  1  0  0  0
 50119  1  0  0  0
 50120  1  0  0  0
 51 52  1  0  0  0
 51121  1  0  0  0
 51122  1  0  0  0
 52123  1  0  0  0
 52124  1  0  0  0
 53 54  1  0  0  0
 54 55  2  0  0  0
 54125  1  0  0  0
 55 57  1  0  0  0
 55126  1  0  0  0
 56 69  2  0  0  0
 57 58  2  0  0  0
 57127  1  0  0  0
 58128  1  0  0  0
 59 60  1  0  0  0
 59 61  1  0  0  0
 59 62  1  0  0  0
 60129  1  0  0  0
 60130  1  0  0  0
 60131  1  0  0  0
 61132  1  0  0  0
 61133  1  0  0  0
 61134  1  0  0  0
 62135  1  0  0  0
 62136  1  0  0  0
 62137  1  0  0  0
 63 65  1  0  0  0
 63138  1  0  0  0
 63139  1  0  0  0
 63140  1  0  0  0
 64141  1  0  0  0
 65142  1  0  0  0
 68 73  1  0  0  0
 71 72  2  0  0  0
 71 73  1  0  0  0
 71143  1  0  0  0
 72 79  1  0  0  0
 72 80  1  0  0  0
 73 81  2  0  0  0
 74 80  2  0  0  0
 74 81  1  0  0  0
 74 82  1  0  0  0
 75 76  1  0  0  0
 75 77  1  0  0  0
 75144  1  0  0  0
 75145  1  0  0  0
 76 78  1  0  0  0
 76146  1  0  0  0
 76147  1  0  0  0
 77 78  1  0  0  0
 77 82  1  0  0  0
 77148  1  0  0  0
 78 83  1  0  0  0
 78149  1  0  0  0
 79150  1  0  0  0
 79151  1  0  0  0
 79152  1  0  0  0
 82153  1  0  0  0
 83154  1  0  0  0
M  ISO  4   1 100  68 101  73 101  83 100
M  END
> <chiral flag>
0

> <version>
0

> <s_m_source_file>
/data/baiqing/PycharmProjects/Reinvent-master-3.2/result/LINK_invent/BTK/process_docking_weight1_custom_sum_contain_oxygen_bond_distance_aromatic_linkinvent_7_9_3/rearranged_h_0176.sdf

> <i_m_source_file_index>
41

> <r_mmod_Potential_Energy-OPLS-2005>
367.738006591797

> <r_mmod_Stretch_Energy-OPLS-2005>
365.407073974609

> <r_mmod_Bend_Energy-OPLS-2005>
430.099151611328

> <r_mmod_Torsional_Energy-OPLS-2005>
262.382843017578

> <r_mmod_Improper_Torsional_Energy-OPLS-2005>
10.1680278778076

> <r_mmod_Van_der_Waal_Energy-OPLS-2005>
128.076522827148

> <r_mmod_Electrostatic_Energy-OPLS-2005>
-898.634155273438

> <r_mmod_Solvation_Energy-OPLS-2005>
-246.104751586914

> <b_mmod_Minimization_Converged-OPLS-2005>
0

> <r_mmod_RMS_Derivative-OPLS-2005>
2.37754797935486

$$$$
41
                    3D
 Structure written by MMmdl.
170179  0  0  1  0            999 V2000
  -30.6563  -14.7281   20.4726 C   0  0  0  0  0  0
  -30.4282  -12.4605   19.4499 C   0  0  0  0  0  0
  -29.4953  -12.4954   18.2212 C   0  0  0  0  0  0
  -28.0280  -12.2951   18.6490 C   0  0  0  0  0  0
  -27.6362  -13.1943   19.8485 C   0  0  2  0  0  0
  -28.6959  -13.1296   20.9743 C   0  0  0  0  0  0
  -25.2506  -13.8083   20.5683 C   0  0  0  0  0  0
  -24.1778  -13.0380   20.9220 C   0  0  0  0  0  0
  -24.6340  -11.6852   20.8790 C   0  0  0  0  0  0
  -23.9016  -10.4254   21.0442 C   0  0  0  0  0  0
  -24.3582   -9.4171   21.9206 C   0  0  0  0  0  0
  -23.6265   -8.2206   22.0761 C   0  0  0  0  0  0
  -22.4250   -8.0254   21.3545 C   0  0  0  0  0  0
  -21.9883   -9.0226   20.4649 C   0  0  0  0  0  0
  -22.7202  -10.2109   20.3073 C   0  0  0  0  0  0
  -21.6833   -6.0720   22.5279 C   0  0  0  0  0  0
  -21.3995   -6.5628   23.8210 C   0  0  0  0  0  0
  -21.3663   -5.6787   24.9178 C   0  0  0  0  0  0
  -21.6050   -4.3051   24.7231 C   0  0  0  0  0  0
  -21.8818   -3.8138   23.4353 C   0  0  0  0  0  0
  -21.9184   -4.6951   22.3406 C   0  0  0  0  0  0
  -22.7812  -13.5203   21.1870 C   0  0  0  0  0  0
  -22.1655   -4.2135   21.0986 F   0  0  0  0  0  0
  -21.5642   -3.4539   25.7747 F   0  0  0  0  0  0
  -29.9771  -13.5274   20.3768 N   0  0  0  0  0  0
  -26.2904  -12.9218   20.3320 N   0  0  0  0  0  0
  -25.9257  -11.6406   20.5818 N   0  0  0  0  0  0
  -22.0443  -12.8216   22.0429 N   0  0  0  0  0  0
  -25.4169  -15.1798   20.4031 N   0  0  0  0  0  0
  -31.8603  -14.7411   20.1983 O   0  0  0  0  0  0
  -21.6615   -6.8856   21.4240 O   0  0  0  0  0  0
  -22.3520  -14.5515   20.6709 O   0  0  0  0  0  0
  -24.6274  -31.8579   23.2009 C   0  0  0  0  0  0
  -25.9115  -32.4767   23.8343 C   0  0  1  0  0  0
  -27.2298  -27.3071   20.1062 C   0  0  0  0  0  0
  -25.5928  -33.8569   24.2270 N   0  0  0  0  0  0
  -23.4215  -30.4817   21.5436 C   0  0  2  0  0  0
  -24.8671  -28.9338   20.1091 C   0  0  0  0  0  0
  -22.7476  -29.4619   22.4926 C   0  0  0  0  0  0
  -18.0287  -28.1387   22.8483 C   0  0  0  0  0  0
  -24.1486  -36.7285   23.2641 C   0  0  0  0  0  0
  -25.9635  -30.7839   21.3735 C   0  0  0  0  0  0
  -26.0360  -29.4106   20.7137 C   0  0  0  0  0  0
  -27.2146  -28.6064   20.7068 C   0  0  0  0  0  0
  -26.0264  -26.8754   19.4998 C   0  0  0  0  0  0
  -24.8644  -27.6712   19.4972 C   0  0  0  0  0  0
  -23.6357  -29.8152   20.1591 C   0  0  0  0  0  0
  -25.4113  -36.3078   24.0331 C   0  0  1  0  0  0
  -20.5887  -28.3693   23.1278 C   0  0  2  0  0  0
  -20.6773  -26.9415   22.5414 C   0  0  0  0  0  0
  -19.5757  -26.6385   21.5208 C   0  0  0  0  0  0
  -18.1932  -26.7934   22.1612 C   0  0  0  0  0  0
  -19.1540  -28.8856   23.2878 C   0  0  0  0  0  0
  -18.9463  -30.1455   23.8898 C   0  0  0  0  0  0
  -17.6465  -30.6591   24.0563 C   0  0  0  0  0  0
  -25.9050  -34.9447   23.5101 C   0  0  0  0  0  0
  -16.5353  -29.9089   23.6331 C   0  0  0  0  0  0
  -16.7275  -28.6504   23.0357 C   0  0  0  0  0  0
  -26.4495  -31.6585   25.0720 C   0  0  0  0  0  0
  -25.3724  -31.3737   26.1447 C   0  0  0  0  0  0
  -27.0338  -30.3004   24.6189 C   0  0  0  0  0  0
  -27.6054  -32.4323   25.7489 C   0  0  0  0  0  0
  -27.5583  -37.1794   24.8462 C   0  0  0  0  0  0
  -21.4189  -29.3043   22.3666 N   0  0  0  0  0  0
  -26.4290  -37.3774   23.9413 N   0  0  0  0  0  0
  -24.6898  -31.0580   22.0962 N   0  0  0  0  0  0
  -23.4192  -28.8162   23.3015 O   0  0  0  0  0  0
  -28.3635  -26.4761   20.1881 O   0  0  0  0  0  0
  -26.5617  -34.8918   22.4667 O   0  0  0  0  0  0
  -23.5436  -32.1382   23.7331 O   0  0  0  0  0  0
  -29.7362  -23.5908   21.0884 C   0  0  0  0  0  0
  -28.8550  -23.8202   19.9897 C   0  0  0  0  0  0
  -30.0561  -22.2431   21.5077 C   0  0  0  0  0  0
  -28.4014  -22.6245   19.3458 C   0  0  0  0  0  0
  -29.5918  -21.1292   20.7368 C   0  0  0  0  0  0
  -28.4484  -17.8161   21.0306 C   0  0  0  0  0  0
  -28.5838  -16.3104   20.7105 C   0  0  0  0  0  0
  -30.7086  -17.2945   20.5954 C   0  0  0  0  0  0
  -29.6696  -18.4740   20.4048 C   0  0  2  0  0  0
  -30.3834  -24.7907   21.7769 C   0  0  0  0  0  0
  -27.4824  -22.6773   18.1380 C   0  0  0  0  0  0
  -32.3490  -21.5730   22.4492 C   0  0  0  0  0  0
  -30.2398  -21.1327   23.8429 C   0  0  0  0  0  0
  -28.5400  -25.2556   19.3652 C   0  0  0  0  0  0
  -30.9139  -22.0190   22.7765 C   0  0  0  0  0  0
  -28.7669  -21.3515   19.6926 N   0  0  0  0  0  0
  -30.0124  -15.9601   20.6502 N   0  0  0  0  0  0
  -30.0262  -19.7899   21.0221 N   0  0  0  0  0  0
  -31.4629  -12.5885   19.1280 H   0  0  0  0  0  0
  -30.3933  -11.4846   19.9370 H   0  0  0  0  0  0
  -29.7842  -11.7254   17.5047 H   0  0  0  0  0  0
  -29.6010  -13.4508   17.7045 H   0  0  0  0  0  0
  -27.9027  -11.2462   18.9205 H   0  0  0  0  0  0
  -27.3592  -12.4726   17.8059 H   0  0  0  0  0  0
  -27.6131  -14.1913   19.4294 H   0  0  0  0  0  0
  -28.7614  -12.1145   21.3690 H   0  0  0  0  0  0
  -28.4397  -13.7427   21.8353 H   0  0  0  0  0  0
  -25.2729   -9.5642   22.4778 H   0  0  0  0  0  0
  -23.9970   -7.4591   22.7475 H   0  0  0  0  0  0
  -21.0816   -8.8742   19.8949 H   0  0  0  0  0  0
  -22.3665  -10.9652   19.6184 H   0  0  0  0  0  0
  -21.1970   -7.6134   23.9706 H   0  0  0  0  0  0
  -21.1496   -6.0522   25.9080 H   0  0  0  0  0  0
  -22.0597   -2.7599   23.2857 H   0  0  0  0  0  0
  -22.4040  -11.9870   22.4819 H   0  0  0  0  0  0
  -21.1072  -13.1268   22.2641 H   0  0  0  0  0  0
  -24.6493  -15.8321   20.5186 H   0  0  0  0  0  0
  -26.2677  -15.6223   20.0841 H   0  0  0  0  0  0
  -26.7181  -32.5428   23.1087 H   0  0  0  0  0  0
  -25.0085  -33.9710   25.0423 H   0  0  0  0  0  0
  -22.7171  -31.3036   21.4000 H   0  0  0  0  0  0
  -23.3755  -35.9611   23.3297 H   0  0  0  0  0  0
  -24.3581  -36.8910   22.2056 H   0  0  0  0  0  0
  -23.7228  -37.6482   23.6663 H   0  0  0  0  0  0
  -26.0987  -31.5478   20.6065 H   0  0  0  0  0  0
  -26.8427  -30.8299   22.0049 H   0  0  0  0  0  0
  -28.1109  -28.9674   21.1913 H   0  0  0  0  0  0
  -25.9289  -25.8966   19.0588 H   0  0  0  0  0  0
  -23.9617  -27.2919   19.0381 H   0  0  0  0  0  0
  -23.7553  -30.5906   19.4017 H   0  0  0  0  0  0
  -22.7546  -29.2455   19.8578 H   0  0  0  0  0  0
  -25.1294  -36.1930   25.0824 H   0  0  0  0  0  0
  -20.9988  -28.3274   24.1395 H   0  0  0  0  0  0
  -20.5660  -26.2308   23.3619 H   0  0  0  0  0  0
  -21.6646  -26.7433   22.1221 H   0  0  0  0  0  0
  -19.6918  -25.6292   21.1247 H   0  0  0  0  0  0
  -19.6704  -27.3186   20.6734 H   0  0  0  0  0  0
  -17.4210  -26.6694   21.4004 H   0  0  0  0  0  0
  -18.0322  -26.0072   22.9002 H   0  0  0  0  0  0
  -19.7941  -30.7266   24.2273 H   0  0  0  0  0  0
  -17.5022  -31.6271   24.5165 H   0  0  0  0  0  0
  -15.5354  -30.2990   23.7657 H   0  0  0  0  0  0
  -15.8676  -28.0819   22.7080 H   0  0  0  0  0  0
  -24.5915  -30.7059   25.7791 H   0  0  0  0  0  0
  -24.8892  -32.2905   26.4834 H   0  0  0  0  0  0
  -25.8051  -30.8958   27.0244 H   0  0  0  0  0  0
  -26.2915  -29.6753   24.1209 H   0  0  0  0  0  0
  -27.4024  -29.7265   25.4701 H   0  0  0  0  0  0
  -27.8791  -30.4284   23.9421 H   0  0  0  0  0  0
  -27.2666  -33.3625   26.2063 H   0  0  0  0  0  0
  -28.3864  -32.6881   25.0316 H   0  0  0  0  0  0
  -28.0723  -31.8451   26.5406 H   0  0  0  0  0  0
  -28.2597  -38.0096   24.7519 H   0  0  0  0  0  0
  -28.1082  -36.2627   24.6271 H   0  0  0  0  0  0
  -27.2308  -37.1429   25.8867 H   0  0  0  0  0  0
  -20.9367  -29.8763   21.6871 H   0  0  0  0  0  0
  -26.0172  -38.2848   24.1421 H   0  0  0  0  0  0
  -28.4598  -17.9536   22.1132 H   0  0  0  0  0  0
  -27.5137  -18.2389   20.6590 H   0  0  0  0  0  0
  -28.1623  -16.1600   19.7191 H   0  0  0  0  0  0
  -28.0175  -15.7395   21.4406 H   0  0  0  0  0  0
  -31.2491  -17.4147   21.5353 H   0  0  0  0  0  0
  -31.4537  -17.3160   19.7985 H   0  0  0  0  0  0
  -29.4874  -18.6199   19.3387 H   0  0  0  0  0  0
  -30.4063  -25.6793   21.1523 H   0  0  0  0  0  0
  -31.4313  -24.6002   22.0063 H   0  0  0  0  0  0
  -29.8581  -25.0361   22.7002 H   0  0  0  0  0  0
  -27.9675  -23.1908   17.3076 H   0  0  0  0  0  0
  -26.5572  -23.1994   18.3816 H   0  0  0  0  0  0
  -27.2112  -21.6787   17.7929 H   0  0  0  0  0  0
  -32.8411  -22.2955   21.7975 H   0  0  0  0  0  0
  -32.3901  -20.6048   21.9526 H   0  0  0  0  0  0
  -32.9489  -21.4965   23.3569 H   0  0  0  0  0  0
  -29.2506  -21.5150   24.0970 H   0  0  0  0  0  0
  -30.8254  -21.1308   24.7630 H   0  0  0  0  0  0
  -30.1249  -20.0917   23.5491 H   0  0  0  0  0  0
  -27.7786  -25.1782   18.5980 H   0  0  0  0  0  0
  -29.4305  -25.4754   18.7757 H   0  0  0  0  0  0
  -31.0181  -22.9597   23.3094 H   0  0  0  0  0  0
  -30.6627  -19.7278   21.8062 H   0  0  0  0  0  0
  1 25  1  0  0  0
  1 30  2  0  0  0
  1 87  1  0  0  0
  2  3  1  0  0  0
  2 25  1  0  0  0
  2 89  1  0  0  0
  2 90  1  0  0  0
  3  4  1  0  0  0
  3 91  1  0  0  0
  3 92  1  0  0  0
  4  5  1  0  0  0
  4 93  1  0  0  0
  4 94  1  0  0  0
  5  6  1  0  0  0
  5 26  1  0  0  0
  5 95  1  0  0  0
  6 25  1  0  0  0
  6 96  1  0  0  0
  6 97  1  0  0  0
  7  8  2  0  0  0
  7 26  1  0  0  0
  7 29  1  0  0  0
  8  9  1  0  0  0
  8 22  1  0  0  0
  9 10  1  0  0  0
  9 27  2  0  0  0
 10 11  2  0  0  0
 10 15  1  0  0  0
 11 12  1  0  0  0
 11 98  1  0  0  0
 12 13  2  0  0  0
 12 99  1  0  0  0
 13 14  1  0  0  0
 13 31  1  0  0  0
 14 15  2  0  0  0
 14100  1  0  0  0
 15101  1  0  0  0
 16 17  2  0  0  0
 16 21  1  0  0  0
 16 31  1  0  0  0
 17 18  1  0  0  0
 17102  1  0  0  0
 18 19  2  0  0  0
 18103  1  0  0  0
 19 20  1  0  0  0
 19 24  1  0  0  0
 20 21  2  0  0  0
 20104  1  0  0  0
 21 23  1  0  0  0
 22 28  1  0  0  0
 22 32  2  0  0  0
 26 27  1  0  0  0
 28105  1  0  0  0
 28106  1  0  0  0
 29107  1  0  0  0
 29108  1  0  0  0
 33 34  1  0  0  0
 33 66  1  0  0  0
 33 70  2  0  0  0
 34 36  1  0  0  0
 34 59  1  0  0  0
 34109  1  0  0  0
 35 44  2  0  0  0
 35 45  1  0  0  0
 35 68  1  0  0  0
 36 56  1  0  0  0
 36110  1  0  0  0
 37 39  1  0  0  0
 37 47  1  0  0  0
 37 66  1  0  0  0
 37111  1  0  0  0
 38 43  2  0  0  0
 38 46  1  0  0  0
 38 47  1  0  0  0
 39 64  1  0  0  0
 39 67  2  0  0  0
 40 52  1  0  0  0
 40 53  2  0  0  0
 40 58  1  0  0  0
 41112  1  0  0  0
 41113  1  0  0  0
 41114  1  0  0  0
 41 48  1  0  0  0
 42 43  1  0  0  0
 42 66  1  0  0  0
 42115  1  0  0  0
 42116  1  0  0  0
 43 44  1  0  0  0
 44117  1  0  0  0
 45 46  2  0  0  0
 45118  1  0  0  0
 46119  1  0  0  0
 47120  1  0  0  0
 47121  1  0  0  0
 48 56  1  0  0  0
 48 65  1  0  0  0
 48122  1  0  0  0
 49 50  1  0  0  0
 49 53  1  0  0  0
 49 64  1  0  0  0
 49123  1  0  0  0
 50 51  1  0  0  0
 50124  1  0  0  0
 50125  1  0  0  0
 51 52  1  0  0  0
 51126  1  0  0  0
 51127  1  0  0  0
 52128  1  0  0  0
 52129  1  0  0  0
 53 54  1  0  0  0
 54 55  2  0  0  0
 54130  1  0  0  0
 55 57  1  0  0  0
 55131  1  0  0  0
 56 69  2  0  0  0
 57 58  2  0  0  0
 57132  1  0  0  0
 58133  1  0  0  0
 59 60  1  0  0  0
 59 61  1  0  0  0
 59 62  1  0  0  0
 60134  1  0  0  0
 60135  1  0  0  0
 60136  1  0  0  0
 61137  1  0  0  0
 61138  1  0  0  0
 61139  1  0  0  0
 62140  1  0  0  0
 62141  1  0  0  0
 62142  1  0  0  0
 63 65  1  0  0  0
 63143  1  0  0  0
 63144  1  0  0  0
 63145  1  0  0  0
 64146  1  0  0  0
 65147  1  0  0  0
 68 84  1  0  0  0
 71 72  2  0  0  0
 71 73  1  0  0  0
 71 80  1  0  0  0
 72 74  1  0  0  0
 72 84  1  0  0  0
 73 75  2  0  0  0
 73 85  1  0  0  0
 74 81  1  0  0  0
 74 86  2  0  0  0
 75 86  1  0  0  0
 75 88  1  0  0  0
 76 77  1  0  0  0
 76 79  1  0  0  0
 76148  1  0  0  0
 76149  1  0  0  0
 77 87  1  0  0  0
 77150  1  0  0  0
 77151  1  0  0  0
 78 79  1  0  0  0
 78 87  1  0  0  0
 78152  1  0  0  0
 78153  1  0  0  0
 79 88  1  0  0  0
 79154  1  0  0  0
 80155  1  0  0  0
 80156  1  0  0  0
 80157  1  0  0  0
 81158  1  0  0  0
 81159  1  0  0  0
 81160  1  0  0  0
 82161  1  0  0  0
 82162  1  0  0  0
 82163  1  0  0  0
 82 85  1  0  0  0
 83 85  1  0  0  0
 83164  1  0  0  0
 83165  1  0  0  0
 83166  1  0  0  0
 84167  1  0  0  0
 84168  1  0  0  0
 85169  1  0  0  0
 88170  1  0  0  0
M  ISO  4   1 100  68 101  84 101  87 100
M  END
> <chiral flag>
0

> <version>
0

> <s_m_source_file>
/data/baiqing/PycharmProjects/Reinvent-master-3.2/result/LINK_invent/BTK/process_docking_weight1_custom_sum_contain_oxygen_bond_distance_aromatic_linkinvent_7_9_3/rearranged_h_0176.sdf

> <i_m_source_file_index>
42

> <r_mmod_Potential_Energy-OPLS-2005>
137.71012878418

> <r_mmod_Stretch_Energy-OPLS-2005>
97.8911209106445

> <r_mmod_Bend_Energy-OPLS-2005>
229.673904418945

> <r_mmod_Torsional_Energy-OPLS-2005>
304.320281982422

> <r_mmod_Improper_Torsional_Energy-OPLS-2005>
5.89173746109009

> <r_mmod_Van_der_Waal_Energy-OPLS-2005>
160.101791381836

> <r_mmod_Electrostatic_Energy-OPLS-2005>
-506.156829833984

> <r_mmod_Solvation_Energy-OPLS-2005>
-223.792755126953

> <b_mmod_Minimization_Converged-OPLS-2005>
0

> <r_mmod_RMS_Derivative-OPLS-2005>
0.519308269023895

$$$$
42
                    3D
 Structure written by MMmdl.
159168  0  0  1  0            999 V2000
  -30.4535  -15.1778   20.4212 C   0  0  0  0  0  0
  -30.4409  -12.7493   19.5272 C   0  0  0  0  0  0
  -29.5380  -12.5779   18.2801 C   0  0  0  0  0  0
  -28.0744  -12.3261   18.6895 C   0  0  0  0  0  0
  -27.6174  -13.2707   19.8315 C   0  0  2  0  0  0
  -28.6528  -13.3814   20.9695 C   0  0  0  0  0  0
  -25.2400  -13.8238   20.5725 C   0  0  0  0  0  0
  -24.1758  -13.0427   20.9249 C   0  0  0  0  0  0
  -24.6401  -11.6927   20.8740 C   0  0  0  0  0  0
  -23.9090  -10.4281   21.0387 C   0  0  0  0  0  0
  -24.3638   -9.4203   21.9172 C   0  0  0  0  0  0
  -23.6313   -8.2246   22.0743 C   0  0  0  0  0  0
  -22.4284   -8.0274   21.3532 C   0  0  0  0  0  0
  -21.9925   -9.0253   20.4636 C   0  0  0  0  0  0
  -22.7259  -10.2130   20.3046 C   0  0  0  0  0  0
  -21.6863   -6.0736   22.5283 C   0  0  0  0  0  0
  -21.4019   -6.5644   23.8213 C   0  0  0  0  0  0
  -21.3662   -5.6792   24.9176 C   0  0  0  0  0  0
  -21.6050   -4.3060   24.7226 C   0  0  0  0  0  0
  -21.8815   -3.8145   23.4339 C   0  0  0  0  0  0
  -21.9194   -4.6964   22.3404 C   0  0  0  0  0  0
  -22.7763  -13.5180   21.1893 C   0  0  0  0  0  0
  -22.1662   -4.2154   21.0978 F   0  0  0  0  0  0
  -21.5629   -3.4537   25.7732 F   0  0  0  0  0  0
  -29.8953  -13.8775   20.3585 N   0  0  0  0  0  0
  -26.2824  -12.9516   20.3194 N   0  0  0  0  0  0
  -25.9340  -11.6616   20.5695 N   0  0  0  0  0  0
  -22.0441  -12.8154   22.0458 N   0  0  0  0  0  0
  -25.4004  -15.1976   20.4152 N   0  0  0  0  0  0
  -31.6716  -15.2137   20.2010 O   0  0  0  0  0  0
  -21.6643   -6.8878   21.4236 O   0  0  0  0  0  0
  -22.3444  -14.5483   20.6746 O   0  0  0  0  0  0
  -24.6550  -31.8338   23.1760 C   0  0  0  0  0  0
  -25.9264  -32.4642   23.8219 C   0  0  1  0  0  0
  -27.2233  -26.9766   20.2083 C   0  0  0  0  0  0
  -25.5969  -33.8457   24.2127 N   0  0  0  0  0  0
  -23.4684  -30.4415   21.5249 C   0  0  2  0  0  0
  -24.9259  -28.8315   20.1236 C   0  0  0  0  0  0
  -22.7624  -29.4485   22.4829 C   0  0  0  0  0  0
  -18.0321  -28.1426   22.8493 C   0  0  0  0  0  0
  -24.1488  -36.7237   23.2648 C   0  0  0  0  0  0
  -26.0342  -30.6524   21.4048 C   0  0  0  0  0  0
  -26.1048  -29.2425   20.7600 C   0  0  0  0  0  0
  -27.2519  -28.3345   20.7778 C   0  0  0  0  0  0
  -26.0182  -26.7036   19.5244 C   0  0  0  0  0  0
  -24.9041  -27.5813   19.4854 C   0  0  0  0  0  0
  -23.7091  -29.7547   20.1525 C   0  0  0  0  0  0
  -25.4141  -36.3014   24.0301 C   0  0  1  0  0  0
  -20.5924  -28.3785   23.1199 C   0  0  2  0  0  0
  -20.6785  -26.9456   22.5412 C   0  0  0  0  0  0
  -19.5756  -26.6391   21.5219 C   0  0  0  0  0  0
  -18.1942  -26.7959   22.1639 C   0  0  0  0  0  0
  -19.1573  -28.8916   23.2840 C   0  0  0  0  0  0
  -18.9492  -30.1520   23.8874 C   0  0  0  0  0  0
  -17.6480  -30.6620   24.0555 C   0  0  0  0  0  0
  -25.9094  -34.9390   23.5028 C   0  0  0  0  0  0
  -16.5367  -29.9104   23.6338 C   0  0  0  0  0  0
  -16.7299  -28.6522   23.0378 C   0  0  0  0  0  0
  -26.4529  -31.6573   25.0726 C   0  0  0  0  0  0
  -25.3670  -31.3810   26.1392 C   0  0  0  0  0  0
  -27.0407  -30.2919   24.6471 C   0  0  0  0  0  0
  -27.6035  -32.4349   25.7543 C   0  0  0  0  0  0
  -27.5576  -37.1758   24.8460 C   0  0  0  0  0  0
  -21.4309  -29.3071   22.3550 N   0  0  0  0  0  0
  -26.4300  -37.3723   23.9392 N   0  0  0  0  0  0
  -24.7387  -31.0032   22.0895 N   0  0  0  0  0  0
  -23.4171  -28.8070   23.3084 O   0  0  0  0  0  0
  -28.2659  -25.9254   20.1730 O   0  0  0  0  0  0
  -26.5699  -34.8910   22.4623 O   0  0  0  0  0  0
  -23.5630  -32.1324   23.6864 O   0  0  0  0  0  0
  -27.6740  -24.0186   21.7847 C   0  0  0  0  0  0
  -28.5396  -21.6360   21.6040 C   0  0  0  0  0  0
  -27.8277  -22.6810   22.3026 C   0  0  0  0  0  0
  -28.9801  -22.0026   20.3102 C   0  0  0  0  0  0
  -28.2078  -24.4535   20.5478 C   0  0  0  0  0  0
  -29.7824  -20.8227   19.5289 C   0  0  0  0  0  0
  -29.4882  -19.1564   19.5066 C   0  0  0  0  0  0
  -28.8661  -18.7482   21.7858 C   0  0  0  0  0  0
  -29.0415  -20.2815   22.3197 C   0  0  1  0  0  0
  -29.8168  -18.0532   20.6949 C   0  0  1  0  0  0
  -27.2541  -22.4339   23.6908 C   0  0  0  0  0  0
  -30.4570  -20.4955   22.8865 C   0  0  0  0  0  0
  -28.8546  -23.3726   19.8451 N   0  0  0  0  0  0
  -29.6544  -16.4068   20.5436 N   0  0  0  0  0  0
  -31.4666  -12.9439   19.2139 H   0  0  0  0  0  0
  -30.4789  -11.8238   20.1035 H   0  0  0  0  0  0
  -29.9010  -11.7620   17.6537 H   0  0  0  0  0  0
  -29.5925  -13.4797   17.6679 H   0  0  0  0  0  0
  -27.9935  -11.2868   19.0118 H   0  0  0  0  0  0
  -27.4163  -12.4273   17.8256 H   0  0  0  0  0  0
  -27.5502  -14.2569   19.3729 H   0  0  0  0  0  0
  -28.7960  -12.4212   21.4673 H   0  0  0  0  0  0
  -28.3080  -14.0764   21.7356 H   0  0  0  0  0  0
  -25.2787   -9.5686   22.4742 H   0  0  0  0  0  0
  -24.0025   -7.4631   22.7456 H   0  0  0  0  0  0
  -21.0862   -8.8772   19.8932 H   0  0  0  0  0  0
  -22.3719  -10.9669   19.6150 H   0  0  0  0  0  0
  -21.2016   -7.6153   23.9722 H   0  0  0  0  0  0
  -21.1490   -6.0523   25.9083 H   0  0  0  0  0  0
  -22.0592   -2.7607   23.2844 H   0  0  0  0  0  0
  -22.4100  -11.9849   22.4880 H   0  0  0  0  0  0
  -21.1028  -13.1117   22.2631 H   0  0  0  0  0  0
  -24.6219  -15.8369   20.5281 H   0  0  0  0  0  0
  -26.2242  -15.6396   20.0319 H   0  0  0  0  0  0
  -26.7357  -32.5218   23.0967 H   0  0  0  0  0  0
  -25.0029  -33.9576   25.0201 H   0  0  0  0  0  0
  -22.7804  -31.2726   21.3527 H   0  0  0  0  0  0
  -23.3772  -35.9537   23.3324 H   0  0  0  0  0  0
  -24.3540  -36.8869   22.2052 H   0  0  0  0  0  0
  -23.7238  -37.6429   23.6688 H   0  0  0  0  0  0
  -26.2030  -31.3962   20.6247 H   0  0  0  0  0  0
  -26.8965  -30.7106   22.0568 H   0  0  0  0  0  0
  -28.1567  -28.6555   21.2750 H   0  0  0  0  0  0
  -25.9159  -25.7459   19.0341 H   0  0  0  0  0  0
  -24.0067  -27.2595   18.9722 H   0  0  0  0  0  0
  -23.8615  -30.5234   19.3947 H   0  0  0  0  0  0
  -22.8207  -29.2030   19.8375 H   0  0  0  0  0  0
  -25.1312  -36.1844   25.0787 H   0  0  0  0  0  0
  -21.0024  -28.3450   24.1312 H   0  0  0  0  0  0
  -20.5669  -26.2431   23.3689 H   0  0  0  0  0  0
  -21.6659  -26.7453   22.1206 H   0  0  0  0  0  0
  -19.6927  -25.6285   21.1302 H   0  0  0  0  0  0
  -19.6687  -27.3192   20.6725 H   0  0  0  0  0  0
  -17.4190  -26.6745   21.4051 H   0  0  0  0  0  0
  -18.0346  -26.0125   22.9052 H   0  0  0  0  0  0
  -19.7975  -30.7342   24.2264 H   0  0  0  0  0  0
  -17.5026  -31.6293   24.5169 H   0  0  0  0  0  0
  -15.5365  -30.2974   23.7687 H   0  0  0  0  0  0
  -15.8726  -28.0807   22.7108 H   0  0  0  0  0  0
  -24.5866  -30.7168   25.7693 H   0  0  0  0  0  0
  -24.8869  -32.3007   26.4717 H   0  0  0  0  0  0
  -25.7891  -30.9040   27.0245 H   0  0  0  0  0  0
  -26.3071  -29.6626   24.1424 H   0  0  0  0  0  0
  -27.3867  -29.7257   25.5137 H   0  0  0  0  0  0
  -27.9043  -30.4082   23.9918 H   0  0  0  0  0  0
  -27.2583  -33.3625   26.2117 H   0  0  0  0  0  0
  -28.3837  -32.6958   25.0381 H   0  0  0  0  0  0
  -28.0729  -31.8524   26.5477 H   0  0  0  0  0  0
  -28.2554  -38.0080   24.7470 H   0  0  0  0  0  0
  -28.1091  -36.2589   24.6305 H   0  0  0  0  0  0
  -27.2276  -37.1427   25.8858 H   0  0  0  0  0  0
  -20.9608  -29.8726   21.6628 H   0  0  0  0  0  0
  -26.0183  -38.2794   24.1386 H   0  0  0  0  0  0
  -27.1916  -24.7675   22.3980 H   0  0  0  0  0  0
  -30.8325  -20.9597   19.7861 H   0  0  0  0  0  0
  -29.7355  -21.1365   18.4863 H   0  0  0  0  0  0
  -30.0466  -18.7950   18.6425 H   0  0  0  0  0  0
  -28.4461  -19.0316   19.2136 H   0  0  0  0  0  0
  -27.8240  -18.6114   21.4907 H   0  0  0  0  0  0
  -28.9712  -18.1218   22.6744 H   0  0  0  0  0  0
  -28.4326  -20.2301   23.2187 H   0  0  0  0  0  0
  -30.8539  -18.2006   21.0010 H   0  0  0  0  0  0
  -26.5051  -23.1837   23.9402 H   0  0  0  0  0  0
  -28.0401  -22.4898   24.4442 H   0  0  0  0  0  0
  -26.7525  -21.4691   23.7666 H   0  0  0  0  0  0
  -31.1958  -20.6435   22.0998 H   0  0  0  0  0  0
  -30.7860  -19.6470   23.4886 H   0  0  0  0  0  0
  -30.4914  -21.3745   23.5330 H   0  0  0  0  0  0
  -28.6834  -16.1448   20.6306 H   0  0  0  0  0  0
  1 25  1  0  0  0
  1 30  2  0  0  0
  1 84  1  0  0  0
  2  3  1  0  0  0
  2 25  1  0  0  0
  2 85  1  0  0  0
  2 86  1  0  0  0
  3  4  1  0  0  0
  3 87  1  0  0  0
  3 88  1  0  0  0
  4  5  1  0  0  0
  4 89  1  0  0  0
  4 90  1  0  0  0
  5  6  1  0  0  0
  5 26  1  0  0  0
  5 91  1  0  0  0
  6 25  1  0  0  0
  6 92  1  0  0  0
  6 93  1  0  0  0
  7  8  2  0  0  0
  7 26  1  0  0  0
  7 29  1  0  0  0
  8  9  1  0  0  0
  8 22  1  0  0  0
  9 10  1  0  0  0
  9 27  2  0  0  0
 10 11  2  0  0  0
 10 15  1  0  0  0
 11 12  1  0  0  0
 11 94  1  0  0  0
 12 13  2  0  0  0
 12 95  1  0  0  0
 13 14  1  0  0  0
 13 31  1  0  0  0
 14 15  2  0  0  0
 14 96  1  0  0  0
 15 97  1  0  0  0
 16 17  2  0  0  0
 16 21  1  0  0  0
 16 31  1  0  0  0
 17 18  1  0  0  0
 17 98  1  0  0  0
 18 19  2  0  0  0
 18 99  1  0  0  0
 19 20  1  0  0  0
 19 24  1  0  0  0
 20 21  2  0  0  0
 20100  1  0  0  0
 21 23  1  0  0  0
 22 28  1  0  0  0
 22 32  2  0  0  0
 26 27  1  0  0  0
 28101  1  0  0  0
 28102  1  0  0  0
 29103  1  0  0  0
 29104  1  0  0  0
 33 34  1  0  0  0
 33 66  1  0  0  0
 33 70  2  0  0  0
 34 36  1  0  0  0
 34 59  1  0  0  0
 34105  1  0  0  0
 35 44  2  0  0  0
 35 45  1  0  0  0
 35 68  1  0  0  0
 36 56  1  0  0  0
 36106  1  0  0  0
 37 39  1  0  0  0
 37 47  1  0  0  0
 37 66  1  0  0  0
 37107  1  0  0  0
 38 43  2  0  0  0
 38 46  1  0  0  0
 38 47  1  0  0  0
 39 64  1  0  0  0
 39 67  2  0  0  0
 40 52  1  0  0  0
 40 53  2  0  0  0
 40 58  1  0  0  0
 41108  1  0  0  0
 41109  1  0  0  0
 41110  1  0  0  0
 41 48  1  0  0  0
 42 43  1  0  0  0
 42 66  1  0  0  0
 42111  1  0  0  0
 42112  1  0  0  0
 43 44  1  0  0  0
 44113  1  0  0  0
 45 46  2  0  0  0
 45114  1  0  0  0
 46115  1  0  0  0
 47116  1  0  0  0
 47117  1  0  0  0
 48 56  1  0  0  0
 48 65  1  0  0  0
 48118  1  0  0  0
 49 50  1  0  0  0
 49 53  1  0  0  0
 49 64  1  0  0  0
 49119  1  0  0  0
 50 51  1  0  0  0
 50120  1  0  0  0
 50121  1  0  0  0
 51 52  1  0  0  0
 51122  1  0  0  0
 51123  1  0  0  0
 52124  1  0  0  0
 52125  1  0  0  0
 53 54  1  0  0  0
 54 55  2  0  0  0
 54126  1  0  0  0
 55 57  1  0  0  0
 55127  1  0  0  0
 56 69  2  0  0  0
 57 58  2  0  0  0
 57128  1  0  0  0
 58129  1  0  0  0
 59 60  1  0  0  0
 59 61  1  0  0  0
 59 62  1  0  0  0
 60130  1  0  0  0
 60131  1  0  0  0
 60132  1  0  0  0
 61133  1  0  0  0
 61134  1  0  0  0
 61135  1  0  0  0
 62136  1  0  0  0
 62137  1  0  0  0
 62138  1  0  0  0
 63 65  1  0  0  0
 63139  1  0  0  0
 63140  1  0  0  0
 63141  1  0  0  0
 64142  1  0  0  0
 65143  1  0  0  0
 68 75  1  0  0  0
 71 73  2  0  0  0
 71 75  1  0  0  0
 71144  1  0  0  0
 72 73  1  0  0  0
 72 74  2  0  0  0
 72 79  1  0  0  0
 73 81  1  0  0  0
 74 76  1  0  0  0
 74 83  1  0  0  0
 75 83  2  0  0  0
 76 77  1  0  0  0
 76145  1  0  0  0
 76146  1  0  0  0
 77 80  1  0  0  0
 77147  1  0  0  0
 77148  1  0  0  0
 78 79  1  0  0  0
 78 80  1  0  0  0
 78149  1  0  0  0
 78150  1  0  0  0
 79 82  1  0  0  0
 79151  1  0  0  0
 80 84  1  0  0  0
 80152  1  0  0  0
 81153  1  0  0  0
 81154  1  0  0  0
 81155  1  0  0  0
 82156  1  0  0  0
 82157  1  0  0  0
 82158  1  0  0  0
 84159  1  0  0  0
M  ISO  4   1 100  68 101  75 101  84 100
M  END
> <chiral flag>
0

> <version>
0

> <s_m_source_file>
/data/baiqing/PycharmProjects/Reinvent-master-3.2/result/LINK_invent/BTK/process_docking_weight1_custom_sum_contain_oxygen_bond_distance_aromatic_linkinvent_7_9_3/rearranged_h_0176.sdf

> <i_m_source_file_index>
43

> <r_mmod_Potential_Energy-OPLS-2005>
831.491088867188

> <r_mmod_Stretch_Energy-OPLS-2005>
398.258911132812

> <r_mmod_Bend_Energy-OPLS-2005>
400.748687744141

> <r_mmod_Torsional_Energy-OPLS-2005>
238.288864135742

> <r_mmod_Improper_Torsional_Energy-OPLS-2005>
7.3423490524292

> <r_mmod_Van_der_Waal_Energy-OPLS-2005>
123.835662841797

> <r_mmod_Electrostatic_Energy-OPLS-2005>
-482.988616943359

> <r_mmod_Solvation_Energy-OPLS-2005>
-223.769744873047

> <b_mmod_Minimization_Converged-OPLS-2005>
0

> <r_mmod_RMS_Derivative-OPLS-2005>
3.95433759689331

$$$$
43
                    3D
 Structure written by MMmdl.
166175  0  0  1  0            999 V2000
  -30.1583  -16.0897   20.2942 C   0  0  0  0  0  0
  -30.3833  -13.4220   19.5477 C   0  0  0  0  0  0
  -29.5663  -12.7900   18.3686 C   0  0  0  0  0  0
  -28.1850  -12.3256   18.8407 C   0  0  0  0  0  0
  -27.5856  -13.3602   19.8104 C   0  0  2  0  0  0
  -28.5680  -13.8851   20.9032 C   0  0  0  0  0  0
  -25.2287  -13.8359   20.5895 C   0  0  0  0  0  0
  -24.1694  -13.0433   20.9318 C   0  0  0  0  0  0
  -24.6454  -11.6973   20.8730 C   0  0  0  0  0  0
  -23.9159  -10.4285   21.0360 C   0  0  0  0  0  0
  -24.3666   -9.4200   21.9162 C   0  0  0  0  0  0
  -23.6319   -8.2248   22.0758 C   0  0  0  0  0  0
  -22.4305   -8.0267   21.3547 C   0  0  0  0  0  0
  -21.9957   -9.0241   20.4641 C   0  0  0  0  0  0
  -22.7303  -10.2114   20.3025 C   0  0  0  0  0  0
  -21.6853   -6.0727   22.5283 C   0  0  0  0  0  0
  -21.4010   -6.5638   23.8220 C   0  0  0  0  0  0
  -21.3677   -5.6787   24.9185 C   0  0  0  0  0  0
  -21.6052   -4.3048   24.7236 C   0  0  0  0  0  0
  -21.8812   -3.8138   23.4344 C   0  0  0  0  0  0
  -21.9192   -4.6959   22.3405 C   0  0  0  0  0  0
  -22.7700  -13.5123   21.1916 C   0  0  0  0  0  0
  -22.1665   -4.2147   21.0974 F   0  0  0  0  0  0
  -21.5646   -3.4533   25.7744 F   0  0  0  0  0  0
  -29.6730  -14.6467   20.2284 N   0  0  0  0  0  0
  -26.2779  -12.9780   20.3291 N   0  0  0  0  0  0
  -25.9420  -11.6788   20.5660 N   0  0  0  0  0  0
  -22.0353  -12.8111   22.0467 N   0  0  0  0  0  0
  -25.3823  -15.2083   20.4366 N   0  0  0  0  0  0
  -31.3877  -15.9304   20.0864 O   0  0  0  0  0  0
  -21.6653   -6.8862   21.4243 O   0  0  0  0  0  0
  -22.3350  -14.5401   20.6738 O   0  0  0  0  0  0
  -24.7109  -31.7663   23.1271 C   0  0  0  0  0  0
  -25.9546  -32.4298   23.7915 C   0  0  1  0  0  0
  -27.2443  -26.4057   20.2659 C   0  0  0  0  0  0
  -25.6025  -33.8148   24.1773 N   0  0  0  0  0  0
  -23.5506  -30.3515   21.4912 C   0  0  2  0  0  0
  -25.0127  -28.6315   20.1233 C   0  0  0  0  0  0
  -22.7906  -29.4120   22.4692 C   0  0  0  0  0  0
  -18.0379  -28.1375   22.8455 C   0  0  0  0  0  0
  -24.1496  -36.7110   23.2667 C   0  0  0  0  0  0
  -26.1392  -30.4004   21.4342 C   0  0  0  0  0  0
  -26.2023  -28.9316   20.7987 C   0  0  0  0  0  0
  -27.2817  -27.8571   20.8301 C   0  0  0  0  0  0
  -26.0222  -26.3890   19.5180 C   0  0  0  0  0  0
  -24.9844  -27.3916   19.4529 C   0  0  0  0  0  0
  -23.8191  -29.6185   20.1371 C   0  0  0  0  0  0
  -25.4132  -36.2819   24.0282 C   0  0  1  0  0  0
  -20.6019  -28.3774   23.1110 C   0  0  2  0  0  0
  -20.6818  -26.9408   22.5426 C   0  0  0  0  0  0
  -19.5801  -26.6333   21.5216 C   0  0  0  0  0  0
  -18.1983  -26.7918   22.1594 C   0  0  0  0  0  0
  -19.1646  -28.8917   23.2750 C   0  0  0  0  0  0
  -18.9549  -30.1502   23.8787 C   0  0  0  0  0  0
  -17.6530  -30.6549   24.0529 C   0  0  0  0  0  0
  -25.9152  -34.9208   23.4883 C   0  0  0  0  0  0
  -16.5440  -29.9044   23.6328 C   0  0  0  0  0  0
  -16.7375  -28.6456   23.0352 C   0  0  0  0  0  0
  -26.4607  -31.6444   25.0639 C   0  0  0  0  0  0
  -25.3571  -31.3805   26.1175 C   0  0  0  0  0  0
  -27.0560  -30.2771   24.6678 C   0  0  0  0  0  0
  -27.6050  -32.4363   25.7433 C   0  0  0  0  0  0
  -27.5567  -37.1662   24.8451 C   0  0  0  0  0  0
  -21.4532  -29.2988   22.3425 N   0  0  0  0  0  0
  -26.4241  -37.3607   23.9458 N   0  0  0  0  0  0
  -24.8273  -30.8793   22.0713 N   0  0  0  0  0  0
  -23.4229  -28.7795   23.3161 O   0  0  0  0  0  0
  -28.1789  -25.0619   20.3982 O   0  0  0  0  0  0
  -26.5832  -34.8863   22.4534 O   0  0  0  0  0  0
  -23.6070  -32.0906   23.6019 O   0  0  0  0  0  0
  -28.0260  -22.8658   23.2760 C   0  0  0  0  0  0
  -28.2892  -21.8163   24.3188 C   0  0  0  0  0  0
  -28.5046  -18.0037   21.4211 C   0  0  0  0  0  0
  -28.9910  -21.7245   22.9741 C   0  0  0  0  0  0
  -29.4668  -19.3932   19.8248 C   0  0  2  0  0  0
  -28.9345  -19.2469   22.3676 C   0  0  2  0  0  0
  -28.9164  -21.1957   20.5893 C   0  0  1  0  0  0
  -28.4781  -18.7893   23.7790 C   0  0  0  0  0  0
  -29.9016  -20.6528   17.6267 C   0  0  0  0  0  0
  -29.3321  -18.2246   17.4777 C   0  0  0  0  0  0
  -28.2086  -23.1633   20.1244 C   0  0  0  0  0  0
  -29.1210  -19.5041   18.3076 C   0  0  0  0  0  0
  -29.4600  -17.6105   20.3508 N   0  0  0  0  0  0
  -28.5026  -20.7079   21.9816 N   0  3  2  0  0  0
  -31.3448  -13.7262   19.1354 H   0  0  0  0  0  0
  -30.6417  -12.6534   20.2783 H   0  0  0  0  0  0
  -30.1135  -11.9586   17.9222 H   0  0  0  0  0  0
  -29.4507  -13.5333   17.5786 H   0  0  0  0  0  0
  -28.3113  -11.3776   19.3647 H   0  0  0  0  0  0
  -27.5239  -12.1319   17.9962 H   0  0  0  0  0  0
  -27.3881  -14.2205   19.1679 H   0  0  0  0  0  0
  -28.9224  -13.0822   21.5515 H   0  0  0  0  0  0
  -28.0446  -14.5801   21.5584 H   0  0  0  0  0  0
  -25.2793   -9.5700   22.4762 H   0  0  0  0  0  0
  -24.0030   -7.4644   22.7503 H   0  0  0  0  0  0
  -21.0884   -8.8715   19.8943 H   0  0  0  0  0  0
  -22.3712  -10.9630   19.6138 H   0  0  0  0  0  0
  -21.1971   -7.6143   23.9712 H   0  0  0  0  0  0
  -21.1533   -6.0529   25.9090 H   0  0  0  0  0  0
  -22.0568   -2.7605   23.2848 H   0  0  0  0  0  0
  -22.3981  -11.9839   22.4927 H   0  0  0  0  0  0
  -21.0921  -13.1091   22.2562 H   0  0  0  0  0  0
  -24.6052  -15.8523   20.5371 H   0  0  0  0  0  0
  -26.2255  -15.6487   20.0941 H   0  0  0  0  0  0
  -26.7678  -32.4701   23.0654 H   0  0  0  0  0  0
  -25.0075  -33.9116   24.9879 H   0  0  0  0  0  0
  -22.8946  -31.1982   21.2806 H   0  0  0  0  0  0
  -23.3798  -35.9390   23.3181 H   0  0  0  0  0  0
  -24.3610  -36.8935   22.2125 H   0  0  0  0  0  0
  -23.7204  -37.6221   23.6840 H   0  0  0  0  0  0
  -26.3472  -31.0926   20.6186 H   0  0  0  0  0  0
  -26.9930  -30.4979   22.0920 H   0  0  0  0  0  0
  -28.1602  -28.0995   21.4112 H   0  0  0  0  0  0
  -25.7990  -25.4672   18.9985 H   0  0  0  0  0  0
  -24.1025  -27.1490   18.8747 H   0  0  0  0  0  0
  -24.0187  -30.3711   19.3746 H   0  0  0  0  0  0
  -22.9142  -29.1049   19.8030 H   0  0  0  0  0  0
  -25.1312  -36.1534   25.0757 H   0  0  0  0  0  0
  -21.0055  -28.3420   24.1250 H   0  0  0  0  0  0
  -20.5653  -26.2410   23.3725 H   0  0  0  0  0  0
  -21.6675  -26.7308   22.1264 H   0  0  0  0  0  0
  -19.6946  -25.6210   21.1328 H   0  0  0  0  0  0
  -19.6725  -27.3068   20.6683 H   0  0  0  0  0  0
  -17.4272  -26.6753   21.3963 H   0  0  0  0  0  0
  -18.0289  -26.0019   22.8928 H   0  0  0  0  0  0
  -19.8042  -30.7315   24.2108 H   0  0  0  0  0  0
  -17.5097  -31.6207   24.5144 H   0  0  0  0  0  0
  -15.5419  -30.2878   23.7680 H   0  0  0  0  0  0
  -15.8803  -28.0725   22.7083 H   0  0  0  0  0  0
  -24.5879  -30.7021   25.7441 H   0  0  0  0  0  0
  -24.8602  -32.3025   26.4222 H   0  0  0  0  0  0
  -25.7664  -30.9239   27.0200 H   0  0  0  0  0  0
  -26.3287  -29.6352   24.1694 H   0  0  0  0  0  0
  -27.3948  -29.7247   25.5453 H   0  0  0  0  0  0
  -27.9305  -30.3867   24.0257 H   0  0  0  0  0  0
  -27.2612  -33.3832   26.1585 H   0  0  0  0  0  0
  -28.4001  -32.6630   25.0315 H   0  0  0  0  0  0
  -28.0533  -31.8777   26.5643 H   0  0  0  0  0  0
  -28.2411  -38.0120   24.7629 H   0  0  0  0  0  0
  -28.1229  -36.2646   24.6065 H   0  0  0  0  0  0
  -27.2344  -37.1040   25.8865 H   0  0  0  0  0  0
  -20.9909  -29.8680   21.6481 H   0  0  0  0  0  0
  -26.0045  -38.2630   24.1567 H   0  0  0  0  0  0
  -28.4319  -23.8553   23.4901 H   0  0  0  0  0  0
  -27.0246  -22.8643   22.8464 H   0  0  0  0  0  0
  -27.4443  -21.1718   24.5549 H   0  0  0  0  0  0
  -28.9190  -22.0782   25.1684 H   0  0  0  0  0  0
  -27.5241  -18.2104   20.9839 H   0  0  0  0  0  0
  -28.3471  -17.1010   22.0064 H   0  0  0  0  0  0
  -30.0598  -21.9442   22.9205 H   0  0  0  0  0  0
  -30.5527  -19.5050   19.8482 H   0  0  0  0  0  0
  -30.0253  -19.2592   22.4268 H   0  0  0  0  0  0
  -29.9490  -21.5207   20.7235 H   0  0  0  0  0  0
  -28.8612  -19.3976   24.5911 H   0  0  0  0  0  0
  -28.8749  -17.7984   24.0023 H   0  0  0  0  0  0
  -27.3931  -18.7005   23.8564 H   0  0  0  0  0  0
  -29.8313  -21.6016   18.1515 H   0  0  0  0  0  0
  -29.5348  -20.8323   16.6169 H   0  0  0  0  0  0
  -30.9645  -20.4158   17.5440 H   0  0  0  0  0  0
  -28.6408  -17.4322   17.7624 H   0  0  0  0  0  0
  -30.3536  -17.8503   17.5575 H   0  0  0  0  0  0
  -29.1515  -18.4244   16.4208 H   0  0  0  0  0  0
  -27.1426  -22.9850   19.9946 H   0  0  0  0  0  0
  -28.5766  -23.2171   19.1019 H   0  0  0  0  0  0
  -28.0574  -19.7508   18.2443 H   0  0  0  0  0  0
  -27.4929  -20.7215   22.0011 H   0  0  0  0  0  0
  1 25  1  0  0  0
  1 30  2  0  0  0
  1 83  1  0  0  0
  2  3  1  0  0  0
  2 25  1  0  0  0
  2 85  1  0  0  0
  2 86  1  0  0  0
  3  4  1  0  0  0
  3 87  1  0  0  0
  3 88  1  0  0  0
  4  5  1  0  0  0
  4 89  1  0  0  0
  4 90  1  0  0  0
  5  6  1  0  0  0
  5 26  1  0  0  0
  5 91  1  0  0  0
  6 25  1  0  0  0
  6 92  1  0  0  0
  6 93  1  0  0  0
  7  8  2  0  0  0
  7 26  1  0  0  0
  7 29  1  0  0  0
  8  9  1  0  0  0
  8 22  1  0  0  0
  9 10  1  0  0  0
  9 27  2  0  0  0
 10 11  2  0  0  0
 10 15  1  0  0  0
 11 12  1  0  0  0
 11 94  1  0  0  0
 12 13  2  0  0  0
 12 95  1  0  0  0
 13 14  1  0  0  0
 13 31  1  0  0  0
 14 15  2  0  0  0
 14 96  1  0  0  0
 15 97  1  0  0  0
 16 17  2  0  0  0
 16 21  1  0  0  0
 16 31  1  0  0  0
 17 18  1  0  0  0
 17 98  1  0  0  0
 18 19  2  0  0  0
 18 99  1  0  0  0
 19 20  1  0  0  0
 19 24  1  0  0  0
 20 21  2  0  0  0
 20100  1  0  0  0
 21 23  1  0  0  0
 22 28  1  0  0  0
 22 32  2  0  0  0
 26 27  1  0  0  0
 28101  1  0  0  0
 28102  1  0  0  0
 29103  1  0  0  0
 29104  1  0  0  0
 33 34  1  0  0  0
 33 66  1  0  0  0
 33 70  2  0  0  0
 34 36  1  0  0  0
 34 59  1  0  0  0
 34105  1  0  0  0
 35 44  2  0  0  0
 35 45  1  0  0  0
 35 68  1  0  0  0
 36 56  1  0  0  0
 36106  1  0  0  0
 37 39  1  0  0  0
 37 47  1  0  0  0
 37 66  1  0  0  0
 37107  1  0  0  0
 38 43  2  0  0  0
 38 46  1  0  0  0
 38 47  1  0  0  0
 39 64  1  0  0  0
 39 67  2  0  0  0
 40 52  1  0  0  0
 40 53  2  0  0  0
 40 58  1  0  0  0
 41108  1  0  0  0
 41109  1  0  0  0
 41110  1  0  0  0
 41 48  1  0  0  0
 42 43  1  0  0  0
 42 66  1  0  0  0
 42111  1  0  0  0
 42112  1  0  0  0
 43 44  1  0  0  0
 44113  1  0  0  0
 45 46  2  0  0  0
 45114  1  0  0  0
 46115  1  0  0  0
 47116  1  0  0  0
 47117  1  0  0  0
 48 56  1  0  0  0
 48 65  1  0  0  0
 48118  1  0  0  0
 49 50  1  0  0  0
 49 53  1  0  0  0
 49 64  1  0  0  0
 49119  1  0  0  0
 50 51  1  0  0  0
 50120  1  0  0  0
 50121  1  0  0  0
 51 52  1  0  0  0
 51122  1  0  0  0
 51123  1  0  0  0
 52124  1  0  0  0
 52125  1  0  0  0
 53 54  1  0  0  0
 54 55  2  0  0  0
 54126  1  0  0  0
 55 57  1  0  0  0
 55127  1  0  0  0
 56 69  2  0  0  0
 57 58  2  0  0  0
 57128  1  0  0  0
 58129  1  0  0  0
 59 60  1  0  0  0
 59 61  1  0  0  0
 59 62  1  0  0  0
 60130  1  0  0  0
 60131  1  0  0  0
 60132  1  0  0  0
 61133  1  0  0  0
 61134  1  0  0  0
 61135  1  0  0  0
 62136  1  0  0  0
 62137  1  0  0  0
 62138  1  0  0  0
 63 65  1  0  0  0
 63139  1  0  0  0
 63140  1  0  0  0
 63141  1  0  0  0
 64142  1  0  0  0
 65143  1  0  0  0
 68 81  1  0  0  0
 71 72  1  0  0  0
 71144  1  0  0  0
 71145  1  0  0  0
 71 74  1  0  0  0
 72 74  1  0  0  0
 72146  1  0  0  0
 72147  1  0  0  0
 73 76  1  0  0  0
 73 83  1  0  0  0
 73148  1  0  0  0
 73149  1  0  0  0
 74150  1  0  0  0
 74 84  1  0  0  0
 75 77  1  0  0  0
 75 82  1  0  0  0
 75 83  1  0  0  0
 75151  1  0  0  0
 76 78  1  0  0  0
 76 84  1  0  0  0
 76152  1  0  0  0
 77 81  1  0  0  0
 77 84  1  0  0  0
 77153  1  0  0  0
 78154  1  0  0  0
 78155  1  0  0  0
 78156  1  0  0  0
 79157  1  0  0  0
 79158  1  0  0  0
 79159  1  0  0  0
 79 82  1  0  0  0
 80 82  1  0  0  0
 80160  1  0  0  0
 80161  1  0  0  0
 80162  1  0  0  0
 81163  1  0  0  0
 81164  1  0  0  0
 82165  1  0  0  0
 84166  1  0  0  0
M  CHG  1  84   1
M  ISO  4   1 100  68 101  81 101  83 100
M  END
> <chiral flag>
0

> <version>
0

> <s_m_source_file>
/data/baiqing/PycharmProjects/Reinvent-master-3.2/result/LINK_invent/BTK/process_docking_weight1_custom_sum_contain_oxygen_bond_distance_aromatic_linkinvent_7_9_3/rearranged_h_0176.sdf

> <i_m_source_file_index>
44

> <r_mmod_Potential_Energy-OPLS-2005>
4575.9560546875

> <r_mmod_Stretch_Energy-OPLS-2005>
1949.56127929688

> <r_mmod_Bend_Energy-OPLS-2005>
949.528381347656

> <r_mmod_Torsional_Energy-OPLS-2005>
468.188201904297

> <r_mmod_Improper_Torsional_Energy-OPLS-2005>
6.29663610458374

> <r_mmod_Van_der_Waal_Energy-OPLS-2005>
131.497817993164

> <r_mmod_Electrostatic_Energy-OPLS-2005>
-181.568389892578

> <r_mmod_Solvation_Energy-OPLS-2005>
-421.818115234375

> <b_mmod_Minimization_Converged-OPLS-2005>
0

> <r_mmod_RMS_Derivative-OPLS-2005>
5.87817096710205

$$$$
44
                    3D
 Structure written by MMmdl.
158167  0  0  1  0            999 V2000
  -30.6414  -14.8735   20.4262 C   0  0  0  0  0  0
  -30.4185  -12.5487   19.4785 C   0  0  0  0  0  0
  -29.5009  -12.5142   18.2382 C   0  0  0  0  0  0
  -28.0370  -12.3096   18.6643 C   0  0  0  0  0  0
  -27.6223  -13.2415   19.8338 C   0  0  2  0  0  0
  -28.6746  -13.2989   20.9634 C   0  0  0  0  0  0
  -25.2447  -13.8194   20.5746 C   0  0  0  0  0  0
  -24.1767  -13.0418   20.9259 C   0  0  0  0  0  0
  -24.6391  -11.6905   20.8793 C   0  0  0  0  0  0
  -23.9087  -10.4278   21.0421 C   0  0  0  0  0  0
  -24.3629   -9.4184   21.9189 C   0  0  0  0  0  0
  -23.6293   -8.2230   22.0757 C   0  0  0  0  0  0
  -22.4276   -8.0279   21.3541 C   0  0  0  0  0  0
  -21.9930   -9.0258   20.4648 C   0  0  0  0  0  0
  -22.7268  -10.2132   20.3062 C   0  0  0  0  0  0
  -21.6850   -6.0746   22.5283 C   0  0  0  0  0  0
  -21.4017   -6.5645   23.8217 C   0  0  0  0  0  0
  -21.3655   -5.6794   24.9181 C   0  0  0  0  0  0
  -21.6047   -4.3062   24.7235 C   0  0  0  0  0  0
  -21.8820   -3.8156   23.4354 C   0  0  0  0  0  0
  -21.9191   -4.6971   22.3411 C   0  0  0  0  0  0
  -22.7788  -13.5200   21.1881 C   0  0  0  0  0  0
  -22.1655   -4.2160   21.0989 F   0  0  0  0  0  0
  -21.5622   -3.4541   25.7747 F   0  0  0  0  0  0
  -29.9527  -13.6679   20.3429 N   0  0  0  0  0  0
  -26.2866  -12.9409   20.3298 N   0  0  0  0  0  0
  -25.9324  -11.6546   20.5806 N   0  0  0  0  0  0
  -22.0435  -12.8189   22.0438 N   0  0  0  0  0  0
  -25.4105  -15.1926   20.4179 N   0  0  0  0  0  0
  -31.8574  -14.8332   20.2119 O   0  0  0  0  0  0
  -21.6637   -6.8879   21.4237 O   0  0  0  0  0  0
  -22.3473  -14.5500   20.6720 O   0  0  0  0  0  0
  -24.6381  -31.8481   23.1940 C   0  0  0  0  0  0
  -25.9179  -32.4723   23.8308 C   0  0  1  0  0  0
  -27.2157  -27.1932   20.1472 C   0  0  0  0  0  0
  -25.5955  -33.8538   24.2218 N   0  0  0  0  0  0
  -23.4376  -30.4712   21.5362 C   0  0  2  0  0  0
  -24.8864  -28.9041   20.1137 C   0  0  0  0  0  0
  -22.7522  -29.4597   22.4873 C   0  0  0  0  0  0
  -18.0294  -28.1409   22.8493 C   0  0  0  0  0  0
  -24.1486  -36.7258   23.2642 C   0  0  0  0  0  0
  -25.9893  -30.7424   21.3811 C   0  0  0  0  0  0
  -26.0625  -29.3564   20.7272 C   0  0  0  0  0  0
  -27.2322  -28.5162   20.7281 C   0  0  0  0  0  0
  -26.0191  -26.8298   19.4937 C   0  0  0  0  0  0
  -24.8731  -27.6505   19.4850 C   0  0  0  0  0  0
  -23.6612  -29.8007   20.1552 C   0  0  0  0  0  0
  -25.4117  -36.3043   24.0315 C   0  0  1  0  0  0
  -20.5898  -28.3743   23.1244 C   0  0  2  0  0  0
  -20.6788  -26.9447   22.5414 C   0  0  0  0  0  0
  -19.5752  -26.6400   21.5229 C   0  0  0  0  0  0
  -18.1929  -26.7954   22.1632 C   0  0  0  0  0  0
  -19.1548  -28.8892   23.2864 C   0  0  0  0  0  0
  -18.9472  -30.1488   23.8889 C   0  0  0  0  0  0
  -17.6472  -30.6608   24.0573 C   0  0  0  0  0  0
  -25.9071  -34.9422   23.5066 C   0  0  0  0  0  0
  -16.5362  -29.9106   23.6342 C   0  0  0  0  0  0
  -16.7281  -28.6522   23.0371 C   0  0  0  0  0  0
  -26.4531  -31.6568   25.0722 C   0  0  0  0  0  0
  -25.3743  -31.3745   26.1433 C   0  0  0  0  0  0
  -27.0403  -30.2979   24.6267 C   0  0  0  0  0  0
  -27.6046  -32.4348   25.7506 C   0  0  0  0  0  0
  -27.5562  -37.1781   24.8459 C   0  0  0  0  0  0
  -21.4223  -29.3075   22.3619 N   0  0  0  0  0  0
  -26.4268  -37.3754   23.9416 N   0  0  0  0  0  0
  -24.7080  -31.0400   22.0934 N   0  0  0  0  0  0
  -23.4193  -28.8139   23.2994 O   0  0  0  0  0  0
  -28.2775  -26.2379   20.1617 O   0  0  0  0  0  0
  -26.5637  -34.8899   22.4634 O   0  0  0  0  0  0
  -23.5524  -32.1336   23.7198 O   0  0  0  0  0  0
  -28.6555  -22.1121   20.6307 C   0  0  0  0  0  0
  -29.5207  -23.5503   18.9041 C   0  0  0  0  0  0
  -28.7436  -23.4731   20.0741 C   0  0  0  0  0  0
  -29.3165  -20.9447   20.0351 C   0  0  0  0  0  0
  -30.1209  -22.3916   18.3755 C   0  0  0  0  0  0
  -28.7816  -18.2721   19.5683 C   0  0  0  0  0  0
  -30.6889  -18.7465   20.9356 C   0  0  0  0  0  0
  -28.8060  -16.7205   20.0173 C   0  0  0  0  0  0
  -30.6993  -17.2303   21.4565 C   0  0  0  0  0  0
  -29.3108  -19.3896   20.5490 C   0  0  0  0  0  0
  -27.9899  -24.8021   20.6232 C   0  0  0  0  0  0
  -30.0361  -21.1533   18.9069 N   0  0  0  0  0  0
  -30.0319  -16.1382   20.6603 N   0  0  0  0  0  0
  -30.8644  -22.4778   17.2119 N   0  0  0  0  0  0
  -31.4564  -12.6669   19.1623 H   0  0  0  0  0  0
  -30.3818  -11.6018   20.0189 H   0  0  0  0  0  0
  -29.8073  -11.7176   17.5596 H   0  0  0  0  0  0
  -29.5983  -13.4476   17.6814 H   0  0  0  0  0  0
  -27.9239  -11.2679   18.9637 H   0  0  0  0  0  0
  -27.3714  -12.4508   17.8123 H   0  0  0  0  0  0
  -27.5673  -14.2329   19.3952 H   0  0  0  0  0  0
  -28.7511  -12.3443   21.4863 H   0  0  0  0  0  0
  -28.3895  -14.0431   21.7083 H   0  0  0  0  0  0
  -25.2764   -9.5648   22.4783 H   0  0  0  0  0  0
  -23.9991   -7.4624   22.7485 H   0  0  0  0  0  0
  -21.0867   -8.8795   19.8955 H   0  0  0  0  0  0
  -22.3729  -10.9687   19.6189 H   0  0  0  0  0  0
  -21.2004   -7.6154   23.9726 H   0  0  0  0  0  0
  -21.1468   -6.0525   25.9079 H   0  0  0  0  0  0
  -22.0600   -2.7623   23.2862 H   0  0  0  0  0  0
  -22.4059  -11.9855   22.4828 H   0  0  0  0  0  0
  -21.1050  -13.1205   22.2639 H   0  0  0  0  0  0
  -24.6440  -15.8455   20.5370 H   0  0  0  0  0  0
  -26.2608  -15.6335   20.0961 H   0  0  0  0  0  0
  -26.7251  -32.5351   23.1050 H   0  0  0  0  0  0
  -25.0125  -33.9690   25.0381 H   0  0  0  0  0  0
  -22.7385  -31.2966   21.3831 H   0  0  0  0  0  0
  -23.3752  -35.9578   23.3287 H   0  0  0  0  0  0
  -24.3571  -36.8917   22.2057 H   0  0  0  0  0  0
  -23.7236  -37.6449   23.6700 H   0  0  0  0  0  0
  -26.1360  -31.4975   20.6070 H   0  0  0  0  0  0
  -26.8638  -30.7964   22.0179 H   0  0  0  0  0  0
  -28.1308  -28.8587   21.2209 H   0  0  0  0  0  0
  -25.9542  -25.8758   18.9894 H   0  0  0  0  0  0
  -23.9742  -27.2974   18.9976 H   0  0  0  0  0  0
  -23.7939  -30.5756   19.3981 H   0  0  0  0  0  0
  -22.7773  -29.2396   19.8466 H   0  0  0  0  0  0
  -25.1309  -36.1868   25.0807 H   0  0  0  0  0  0
  -20.9993  -28.3345   24.1361 H   0  0  0  0  0  0
  -20.5711  -26.2361   23.3644 H   0  0  0  0  0  0
  -21.6657  -26.7484   22.1190 H   0  0  0  0  0  0
  -19.6919  -25.6309   21.1265 H   0  0  0  0  0  0
  -19.6678  -27.3203   20.6747 H   0  0  0  0  0  0
  -17.4209  -26.6729   21.4024 H   0  0  0  0  0  0
  -18.0301  -26.0095   22.9022 H   0  0  0  0  0  0
  -19.7949  -30.7309   24.2251 H   0  0  0  0  0  0
  -17.5023  -31.6279   24.5190 H   0  0  0  0  0  0
  -15.5365  -30.3009   23.7666 H   0  0  0  0  0  0
  -15.8682  -28.0831   22.7101 H   0  0  0  0  0  0
  -24.5922  -30.7095   25.7763 H   0  0  0  0  0  0
  -24.8946  -32.2929   26.4824 H   0  0  0  0  0  0
  -25.8050  -30.8953   27.0229 H   0  0  0  0  0  0
  -26.3024  -29.6693   24.1275 H   0  0  0  0  0  0
  -27.4045  -29.7287   25.4823 H   0  0  0  0  0  0
  -27.8902  -30.4242   23.9558 H   0  0  0  0  0  0
  -27.2622  -33.3663   26.2026 H   0  0  0  0  0  0
  -28.3882  -32.6894   25.0359 H   0  0  0  0  0  0
  -28.0680  -31.8525   26.5482 H   0  0  0  0  0  0
  -28.2561  -38.0095   24.7527 H   0  0  0  0  0  0
  -28.1085  -36.2632   24.6262 H   0  0  0  0  0  0
  -27.2293  -37.1387   25.8864 H   0  0  0  0  0  0
  -20.9409  -29.8769   21.6800 H   0  0  0  0  0  0
  -26.0128  -38.2813   24.1458 H   0  0  0  0  0  0
  -28.0626  -21.9601   21.5222 H   0  0  0  0  0  0
  -29.6315  -24.5062   18.4091 H   0  0  0  0  0  0
  -27.7648  -18.5299   19.2759 H   0  0  0  0  0  0
  -29.3608  -18.3491   18.6478 H   0  0  0  0  0  0
  -31.3530  -18.8101   20.0710 H   0  0  0  0  0  0
  -31.1537  -19.3766   21.6954 H   0  0  0  0  0  0
  -28.5808  -16.1322   19.1277 H   0  0  0  0  0  0
  -27.9849  -16.5496   20.7125 H   0  0  0  0  0  0
  -30.2195  -17.2168   22.4358 H   0  0  0  0  0  0
  -31.7365  -16.9555   21.6550 H   0  0  0  0  0  0
  -28.6807  -19.3755   21.4406 H   0  0  0  0  0  0
  -28.1611  -24.8129   21.6996 H   0  0  0  0  0  0
  -26.9264  -24.5871   20.5234 H   0  0  0  0  0  0
  -30.7582  -23.2959   16.6236 H   0  0  0  0  0  0
  -31.0752  -21.6256   16.7078 H   0  0  0  0  0  0
  1 25  1  0  0  0
  1 30  2  0  0  0
  1 83  1  0  0  0
  2  3  1  0  0  0
  2 25  1  0  0  0
  2 85  1  0  0  0
  2 86  1  0  0  0
  3  4  1  0  0  0
  3 87  1  0  0  0
  3 88  1  0  0  0
  4  5  1  0  0  0
  4 89  1  0  0  0
  4 90  1  0  0  0
  5  6  1  0  0  0
  5 26  1  0  0  0
  5 91  1  0  0  0
  6 25  1  0  0  0
  6 92  1  0  0  0
  6 93  1  0  0  0
  7  8  2  0  0  0
  7 26  1  0  0  0
  7 29  1  0  0  0
  8  9  1  0  0  0
  8 22  1  0  0  0
  9 10  1  0  0  0
  9 27  2  0  0  0
 10 11  2  0  0  0
 10 15  1  0  0  0
 11 12  1  0  0  0
 11 94  1  0  0  0
 12 13  2  0  0  0
 12 95  1  0  0  0
 13 14  1  0  0  0
 13 31  1  0  0  0
 14 15  2  0  0  0
 14 96  1  0  0  0
 15 97  1  0  0  0
 16 17  2  0  0  0
 16 21  1  0  0  0
 16 31  1  0  0  0
 17 18  1  0  0  0
 17 98  1  0  0  0
 18 19  2  0  0  0
 18 99  1  0  0  0
 19 20  1  0  0  0
 19 24  1  0  0  0
 20 21  2  0  0  0
 20100  1  0  0  0
 21 23  1  0  0  0
 22 28  1  0  0  0
 22 32  2  0  0  0
 26 27  1  0  0  0
 28101  1  0  0  0
 28102  1  0  0  0
 29103  1  0  0  0
 29104  1  0  0  0
 33 34  1  0  0  0
 33 66  1  0  0  0
 33 70  2  0  0  0
 34 36  1  0  0  0
 34 59  1  0  0  0
 34105  1  0  0  0
 35 44  2  0  0  0
 35 45  1  0  0  0
 35 68  1  0  0  0
 36 56  1  0  0  0
 36106  1  0  0  0
 37 39  1  0  0  0
 37 47  1  0  0  0
 37 66  1  0  0  0
 37107  1  0  0  0
 38 43  2  0  0  0
 38 46  1  0  0  0
 38 47  1  0  0  0
 39 64  1  0  0  0
 39 67  2  0  0  0
 40 52  1  0  0  0
 40 53  2  0  0  0
 40 58  1  0  0  0
 41108  1  0  0  0
 41109  1  0  0  0
 41110  1  0  0  0
 41 48  1  0  0  0
 42 43  1  0  0  0
 42 66  1  0  0  0
 42111  1  0  0  0
 42112  1  0  0  0
 43 44  1  0  0  0
 44113  1  0  0  0
 45 46  2  0  0  0
 45114  1  0  0  0
 46115  1  0  0  0
 47116  1  0  0  0
 47117  1  0  0  0
 48 56  1  0  0  0
 48 65  1  0  0  0
 48118  1  0  0  0
 49 50  1  0  0  0
 49 53  1  0  0  0
 49 64  1  0  0  0
 49119  1  0  0  0
 50 51  1  0  0  0
 50120  1  0  0  0
 50121  1  0  0  0
 51 52  1  0  0  0
 51122  1  0  0  0
 51123  1  0  0  0
 52124  1  0  0  0
 52125  1  0  0  0
 53 54  1  0  0  0
 54 55  2  0  0  0
 54126  1  0  0  0
 55 57  1  0  0  0
 55127  1  0  0  0
 56 69  2  0  0  0
 57 58  2  0  0  0
 57128  1  0  0  0
 58129  1  0  0  0
 59 60  1  0  0  0
 59 61  1  0  0  0
 59 62  1  0  0  0
 60130  1  0  0  0
 60131  1  0  0  0
 60132  1  0  0  0
 61133  1  0  0  0
 61134  1  0  0  0
 61135  1  0  0  0
 62136  1  0  0  0
 62137  1  0  0  0
 62138  1  0  0  0
 63 65  1  0  0  0
 63139  1  0  0  0
 63140  1  0  0  0
 63141  1  0  0  0
 64142  1  0  0  0
 65143  1  0  0  0
 68 81  1  0  0  0
 71 73  2  0  0  0
 71 74  1  0  0  0
 71144  1  0  0  0
 72 73  1  0  0  0
 72 75  2  0  0  0
 72145  1  0  0  0
 73 81  1  0  0  0
 74 82  2  0  0  0
 74 80  1  0  0  0
 75 82  1  0  0  0
 75 84  1  0  0  0
 76 78  1  0  0  0
 76 80  1  0  0  0
 76146  1  0  0  0
 76147  1  0  0  0
 77 79  1  0  0  0
 77 80  1  0  0  0
 77148  1  0  0  0
 77149  1  0  0  0
 78 83  1  0  0  0
 78150  1  0  0  0
 78151  1  0  0  0
 79 83  1  0  0  0
 79152  1  0  0  0
 79153  1  0  0  0
 80154  1  0  0  0
 81155  1  0  0  0
 81156  1  0  0  0
 84157  1  0  0  0
 84158  1  0  0  0
M  ISO  4   1 100  68 101  81 101  83 100
M  END
> <chiral flag>
0

> <version>
0

> <s_m_source_file>
/data/baiqing/PycharmProjects/Reinvent-master-3.2/result/LINK_invent/BTK/process_docking_weight1_custom_sum_contain_oxygen_bond_distance_aromatic_linkinvent_7_9_3/rearranged_h_0176.sdf

> <i_m_source_file_index>
45

> <r_mmod_Potential_Energy-OPLS-2005>
245.850143432617

> <r_mmod_Stretch_Energy-OPLS-2005>
176.612289428711

> <r_mmod_Bend_Energy-OPLS-2005>
229.422103881836

> <r_mmod_Torsional_Energy-OPLS-2005>
334.201843261719

> <r_mmod_Improper_Torsional_Energy-OPLS-2005>
4.71926403045654

> <r_mmod_Van_der_Waal_Energy-OPLS-2005>
134.614624023438

> <r_mmod_Electrostatic_Energy-OPLS-2005>
-556.758239746094

> <r_mmod_Solvation_Energy-OPLS-2005>
-224.680023193359

> <b_mmod_Minimization_Converged-OPLS-2005>
0

> <r_mmod_RMS_Derivative-OPLS-2005>
2.3176109790802

$$$$
45
                    3D
 Structure written by MMmdl.
160170  0  0  1  0            999 V2000
  -30.5365  -15.0719   20.4145 C   0  0  0  0  0  0
  -30.4394  -12.6849   19.4930 C   0  0  0  0  0  0
  -29.5177  -12.5215   18.2613 C   0  0  0  0  0  0
  -28.0654  -12.2647   18.7013 C   0  0  0  0  0  0
  -27.6136  -13.2365   19.8174 C   0  0  2  0  0  0
  -28.6600  -13.3612   20.9480 C   0  0  0  0  0  0
  -25.2355  -13.8130   20.5645 C   0  0  0  0  0  0
  -24.1726  -13.0374   20.9256 C   0  0  0  0  0  0
  -24.6368  -11.6871   20.8806 C   0  0  0  0  0  0
  -23.9073  -10.4252   21.0443 C   0  0  0  0  0  0
  -24.3625   -9.4165   21.9212 C   0  0  0  0  0  0
  -23.6290   -8.2210   22.0769 C   0  0  0  0  0  0
  -22.4275   -8.0264   21.3552 C   0  0  0  0  0  0
  -21.9917   -9.0245   20.4656 C   0  0  0  0  0  0
  -22.7259  -10.2110   20.3074 C   0  0  0  0  0  0
  -21.6843   -6.0733   22.5285 C   0  0  0  0  0  0
  -21.4004   -6.5639   23.8217 C   0  0  0  0  0  0
  -21.3648   -5.6791   24.9177 C   0  0  0  0  0  0
  -21.6046   -4.3057   24.7230 C   0  0  0  0  0  0
  -21.8819   -3.8148   23.4350 C   0  0  0  0  0  0
  -21.9189   -4.6962   22.3407 C   0  0  0  0  0  0
  -22.7752  -13.5163   21.1899 C   0  0  0  0  0  0
  -22.1660   -4.2150   21.0982 F   0  0  0  0  0  0
  -21.5625   -3.4543   25.7743 F   0  0  0  0  0  0
  -29.9126  -13.8135   20.3241 N   0  0  0  0  0  0
  -26.2803  -12.9373   20.3197 N   0  0  0  0  0  0
  -25.9293  -11.6522   20.5778 N   0  0  0  0  0  0
  -22.0412  -12.8174   22.0460 N   0  0  0  0  0  0
  -25.3784  -15.1845   20.3905 N   0  0  0  0  0  0
  -31.7653  -15.0546   20.2702 O   0  0  0  0  0  0
  -21.6627   -6.8874   21.4248 O   0  0  0  0  0  0
  -22.3444  -14.5475   20.6730 O   0  0  0  0  0  0
  -24.6507  -31.8385   23.1802 C   0  0  0  0  0  0
  -25.9253  -32.4658   23.8228 C   0  0  1  0  0  0
  -27.2198  -27.0689   20.1823 C   0  0  0  0  0  0
  -25.5978  -33.8463   24.2155 N   0  0  0  0  0  0
  -23.4604  -30.4545   21.5265 C   0  0  2  0  0  0
  -24.9149  -28.8619   20.1234 C   0  0  0  0  0  0
  -22.7617  -29.4522   22.4809 C   0  0  0  0  0  0
  -18.0335  -28.1387   22.8448 C   0  0  0  0  0  0
  -24.1517  -36.7245   23.2643 C   0  0  0  0  0  0
  -26.0209  -30.6889   21.3943 C   0  0  0  0  0  0
  -26.0945  -29.2880   20.7514 C   0  0  0  0  0  0
  -27.2513  -28.4079   20.7660 C   0  0  0  0  0  0
  -26.0199  -26.7618   19.5100 C   0  0  0  0  0  0
  -24.8923  -27.6117   19.4879 C   0  0  0  0  0  0
  -23.6952  -29.7742   20.1529 C   0  0  0  0  0  0
  -25.4139  -36.3005   24.0322 C   0  0  1  0  0  0
  -20.5951  -28.3731   23.1193 C   0  0  2  0  0  0
  -20.6834  -26.9430   22.5377 C   0  0  0  0  0  0
  -19.5807  -26.6375   21.5188 C   0  0  0  0  0  0
  -18.1980  -26.7922   22.1592 C   0  0  0  0  0  0
  -19.1589  -28.8874   23.2807 C   0  0  0  0  0  0
  -18.9505  -30.1465   23.8849 C   0  0  0  0  0  0
  -17.6502  -30.6581   24.0554 C   0  0  0  0  0  0
  -25.9091  -34.9386   23.5052 C   0  0  0  0  0  0
  -16.5392  -29.9072   23.6331 C   0  0  0  0  0  0
  -16.7320  -28.6492   23.0337 C   0  0  0  0  0  0
  -26.4545  -31.6533   25.0687 C   0  0  0  0  0  0
  -25.3687  -31.3740   26.1345 C   0  0  0  0  0  0
  -27.0418  -30.2919   24.6313 C   0  0  0  0  0  0
  -27.6078  -32.4296   25.7466 C   0  0  0  0  0  0
  -27.5583  -37.1780   24.8471 C   0  0  0  0  0  0
  -21.4301  -29.3051   22.3552 N   0  0  0  0  0  0
  -26.4301  -37.3719   23.9404 N   0  0  0  0  0  0
  -24.7305  -31.0178   22.0877 N   0  0  0  0  0  0
  -23.4219  -28.8082   23.2997 O   0  0  0  0  0  0
  -28.2406  -26.0324   20.0948 O   0  0  0  0  0  0
  -26.5671  -34.8895   22.4627 O   0  0  0  0  0  0
  -23.5615  -32.1308   23.6971 O   0  0  0  0  0  0
  -28.9846  -21.9709   20.3303 C   0  0  0  0  0  0
  -28.3614  -20.4948   22.1457 C   0  0  0  0  0  0
  -28.9365  -20.5518   20.8619 C   0  0  0  0  0  0
  -28.4610  -23.1735   21.0716 C   0  0  0  0  0  0
  -27.9651  -22.7960   22.3289 C   0  0  0  0  0  0
  -27.6223  -23.9473   23.2340 C   0  0  0  0  0  0
  -27.7165  -25.2025   22.3633 C   0  0  0  0  0  0
  -28.0767  -18.1187   20.0383 C   0  0  0  0  0  0
  -28.4903  -16.6002   19.9560 C   0  0  0  0  0  0
  -30.2556  -17.8223   20.8311 C   0  0  0  0  0  0
  -29.3051  -19.0423   20.2025 C   0  0  2  0  0  0
  -28.5585  -24.8685   21.1026 C   0  0  2  0  0  0
  -30.0398  -25.1738   21.3778 C   0  0  0  0  0  0
  -27.8971  -21.5509   22.8453 N   0  0  0  0  0  0
  -29.8285  -16.3436   20.5031 N   0  0  0  0  0  0
  -31.4596  -12.8724   19.1554 H   0  0  0  0  0  0
  -30.4828  -11.7631   20.0759 H   0  0  0  0  0  0
  -29.8688  -11.7012   17.6332 H   0  0  0  0  0  0
  -29.5597  -13.4209   17.6459 H   0  0  0  0  0  0
  -28.0113  -11.2403   19.0739 H   0  0  0  0  0  0
  -27.3908  -12.3157   17.8468 H   0  0  0  0  0  0
  -27.5364  -14.1937   19.3115 H   0  0  0  0  0  0
  -28.7911  -12.4136   21.4727 H   0  0  0  0  0  0
  -28.3344  -14.0849   21.6962 H   0  0  0  0  0  0
  -25.2768   -9.5632   22.4792 H   0  0  0  0  0  0
  -23.9988   -7.4601   22.7495 H   0  0  0  0  0  0
  -21.0843   -8.8788   19.8964 H   0  0  0  0  0  0
  -22.3745  -10.9662   19.6183 H   0  0  0  0  0  0
  -21.1995   -7.6146   23.9724 H   0  0  0  0  0  0
  -21.1466   -6.0517   25.9080 H   0  0  0  0  0  0
  -22.0606   -2.7614   23.2854 H   0  0  0  0  0  0
  -22.4035  -11.9827   22.4830 H   0  0  0  0  0  0
  -21.1039  -13.1206   22.2688 H   0  0  0  0  0  0
  -24.5860  -15.8104   20.4830 H   0  0  0  0  0  0
  -26.1943  -15.6350   20.0004 H   0  0  0  0  0  0
  -26.7311  -32.5268   23.0953 H   0  0  0  0  0  0
  -25.0097  -33.9565   25.0286 H   0  0  0  0  0  0
  -22.7664  -31.2804   21.3610 H   0  0  0  0  0  0
  -23.3772  -35.9585   23.3311 H   0  0  0  0  0  0
  -24.3602  -36.8876   22.2057 H   0  0  0  0  0  0
  -23.7299  -37.6454   23.6678 H   0  0  0  0  0  0
  -26.1825  -31.4339   20.6141 H   0  0  0  0  0  0
  -26.8883  -30.7497   22.0382 H   0  0  0  0  0  0
  -28.1575  -28.7387   21.2538 H   0  0  0  0  0  0
  -25.9436  -25.8084   19.0067 H   0  0  0  0  0  0
  -23.9974  -27.2796   18.9802 H   0  0  0  0  0  0
  -23.8424  -30.5439   19.3946 H   0  0  0  0  0  0
  -22.8101  -29.2181   19.8363 H   0  0  0  0  0  0
  -25.1331  -36.1840   25.0816 H   0  0  0  0  0  0
  -21.0038  -28.3359   24.1314 H   0  0  0  0  0  0
  -20.5767  -26.2347   23.3603 H   0  0  0  0  0  0
  -21.6696  -26.7454   22.1154 H   0  0  0  0  0  0
  -19.6995  -25.6279   21.1238 H   0  0  0  0  0  0
  -19.6764  -27.3166   20.6704 H   0  0  0  0  0  0
  -17.4255  -26.6656   21.3993 H   0  0  0  0  0  0
  -18.0395  -26.0063   22.8994 H   0  0  0  0  0  0
  -19.7993  -30.7271   24.2208 H   0  0  0  0  0  0
  -17.5067  -31.6261   24.5152 H   0  0  0  0  0  0
  -15.5390  -30.2952   23.7684 H   0  0  0  0  0  0
  -15.8720  -28.0808   22.7048 H   0  0  0  0  0  0
  -24.5880  -30.7088   25.7623 H   0  0  0  0  0  0
  -24.8846  -32.2929   26.4656 H   0  0  0  0  0  0
  -25.7909  -30.8951   27.0189 H   0  0  0  0  0  0
  -26.3050  -29.6608   24.1325 H   0  0  0  0  0  0
  -27.4023  -29.7247   25.4902 H   0  0  0  0  0  0
  -27.8972  -30.4132   23.9659 H   0  0  0  0  0  0
  -27.2695  -33.3642   26.1949 H   0  0  0  0  0  0
  -28.3924  -32.6790   25.0304 H   0  0  0  0  0  0
  -28.0711  -31.8478   26.5437 H   0  0  0  0  0  0
  -28.2579  -38.0092   24.7477 H   0  0  0  0  0  0
  -28.1102  -36.2612   24.6349 H   0  0  0  0  0  0
  -27.2293  -37.1477   25.8873 H   0  0  0  0  0  0
  -20.9539  -29.8734   21.6689 H   0  0  0  0  0  0
  -26.0174  -38.2798   24.1370 H   0  0  0  0  0  0
  -29.4488  -22.1365   19.3693 H   0  0  0  0  0  0
  -28.2476  -19.5430   22.6439 H   0  0  0  0  0  0
  -28.3503  -23.9923   24.0446 H   0  0  0  0  0  0
  -26.6321  -23.8271   23.6768 H   0  0  0  0  0  0
  -28.0602  -26.0828   22.9087 H   0  0  0  0  0  0
  -26.6906  -25.4072   22.0597 H   0  0  0  0  0  0
  -27.4328  -18.2189   20.9124 H   0  0  0  0  0  0
  -27.4636  -18.4144   19.1864 H   0  0  0  0  0  0
  -28.4646  -16.2651   18.9186 H   0  0  0  0  0  0
  -27.7797  -16.0183   20.5325 H   0  0  0  0  0  0
  -30.2172  -17.8966   21.9178 H   0  0  0  0  0  0
  -31.3006  -17.9763   20.5581 H   0  0  0  0  0  0
  -29.6918  -19.2467   19.2029 H   0  0  0  0  0  0
  -30.4101  -24.6322   22.2481 H   0  0  0  0  0  0
  -30.2075  -26.2348   21.5630 H   0  0  0  0  0  0
  -30.6557  -24.8860   20.5255 H   0  0  0  0  0  0
  1 25  1  0  0  0
  1 30  2  0  0  0
  1 85  1  0  0  0
  2  3  1  0  0  0
  2 25  1  0  0  0
  2 86  1  0  0  0
  2 87  1  0  0  0
  3  4  1  0  0  0
  3 88  1  0  0  0
  3 89  1  0  0  0
  4  5  1  0  0  0
  4 90  1  0  0  0
  4 91  1  0  0  0
  5  6  1  0  0  0
  5 26  1  0  0  0
  5 92  1  0  0  0
  6 25  1  0  0  0
  6 93  1  0  0  0
  6 94  1  0  0  0
  7  8  2  0  0  0
  7 26  1  0  0  0
  7 29  1  0  0  0
  8  9  1  0  0  0
  8 22  1  0  0  0
  9 10  1  0  0  0
  9 27  2  0  0  0
 10 11  2  0  0  0
 10 15  1  0  0  0
 11 12  1  0  0  0
 11 95  1  0  0  0
 12 13  2  0  0  0
 12 96  1  0  0  0
 13 14  1  0  0  0
 13 31  1  0  0  0
 14 15  2  0  0  0
 14 97  1  0  0  0
 15 98  1  0  0  0
 16 17  2  0  0  0
 16 21  1  0  0  0
 16 31  1  0  0  0
 17 18  1  0  0  0
 17 99  1  0  0  0
 18 19  2  0  0  0
 18100  1  0  0  0
 19 20  1  0  0  0
 19 24  1  0  0  0
 20 21  2  0  0  0
 20101  1  0  0  0
 21 23  1  0  0  0
 22 28  1  0  0  0
 22 32  2  0  0  0
 26 27  1  0  0  0
 28102  1  0  0  0
 28103  1  0  0  0
 29104  1  0  0  0
 29105  1  0  0  0
 33 34  1  0  0  0
 33 66  1  0  0  0
 33 70  2  0  0  0
 34 36  1  0  0  0
 34 59  1  0  0  0
 34106  1  0  0  0
 35 44  2  0  0  0
 35 45  1  0  0  0
 35 68  1  0  0  0
 36 56  1  0  0  0
 36107  1  0  0  0
 37 39  1  0  0  0
 37 47  1  0  0  0
 37 66  1  0  0  0
 37108  1  0  0  0
 38 43  2  0  0  0
 38 46  1  0  0  0
 38 47  1  0  0  0
 39 64  1  0  0  0
 39 67  2  0  0  0
 40 52  1  0  0  0
 40 53  2  0  0  0
 40 58  1  0  0  0
 41109  1  0  0  0
 41110  1  0  0  0
 41111  1  0  0  0
 41 48  1  0  0  0
 42 43  1  0  0  0
 42 66  1  0  0  0
 42112  1  0  0  0
 42113  1  0  0  0
 43 44  1  0  0  0
 44114  1  0  0  0
 45 46  2  0  0  0
 45115  1  0  0  0
 46116  1  0  0  0
 47117  1  0  0  0
 47118  1  0  0  0
 48 56  1  0  0  0
 48 65  1  0  0  0
 48119  1  0  0  0
 49 50  1  0  0  0
 49 53  1  0  0  0
 49 64  1  0  0  0
 49120  1  0  0  0
 50 51  1  0  0  0
 50121  1  0  0  0
 50122  1  0  0  0
 51 52  1  0  0  0
 51123  1  0  0  0
 51124  1  0  0  0
 52125  1  0  0  0
 52126  1  0  0  0
 53 54  1  0  0  0
 54 55  2  0  0  0
 54127  1  0  0  0
 55 57  1  0  0  0
 55128  1  0  0  0
 56 69  2  0  0  0
 57 58  2  0  0  0
 57129  1  0  0  0
 58130  1  0  0  0
 59 60  1  0  0  0
 59 61  1  0  0  0
 59 62  1  0  0  0
 60131  1  0  0  0
 60132  1  0  0  0
 60133  1  0  0  0
 61134  1  0  0  0
 61135  1  0  0  0
 61136  1  0  0  0
 62137  1  0  0  0
 62138  1  0  0  0
 62139  1  0  0  0
 63 65  1  0  0  0
 63140  1  0  0  0
 63141  1  0  0  0
 63142  1  0  0  0
 64143  1  0  0  0
 65144  1  0  0  0
 68 82  1  0  0  0
 71 73  2  0  0  0
 71 74  1  0  0  0
 71145  1  0  0  0
 72 73  1  0  0  0
 72 84  2  0  0  0
 72146  1  0  0  0
 73 81  1  0  0  0
 74 75  2  0  0  0
 74 82  1  0  0  0
 75 76  1  0  0  0
 75 84  1  0  0  0
 76 77  1  0  0  0
 76147  1  0  0  0
 76148  1  0  0  0
 77 82  1  0  0  0
 77149  1  0  0  0
 77150  1  0  0  0
 78 79  1  0  0  0
 78 81  1  0  0  0
 78151  1  0  0  0
 78152  1  0  0  0
 79 85  1  0  0  0
 79153  1  0  0  0
 79154  1  0  0  0
 80 81  1  0  0  0
 80 85  1  0  0  0
 80155  1  0  0  0
 80156  1  0  0  0
 81157  1  0  0  0
 82 83  1  0  0  0
 83158  1  0  0  0
 83159  1  0  0  0
 83160  1  0  0  0
M  ISO  4   1 100  68 101  82 101  85 100
M  END
> <chiral flag>
0

> <version>
0

> <s_m_source_file>
/data/baiqing/PycharmProjects/Reinvent-master-3.2/result/LINK_invent/BTK/process_docking_weight1_custom_sum_contain_oxygen_bond_distance_aromatic_linkinvent_7_9_3/rearranged_h_0176.sdf

> <i_m_source_file_index>
46

> <r_mmod_Potential_Energy-OPLS-2005>
908.207336425781

> <r_mmod_Stretch_Energy-OPLS-2005>
327.339813232422

> <r_mmod_Bend_Energy-OPLS-2005>
451.7861328125

> <r_mmod_Torsional_Energy-OPLS-2005>
381.12451171875

> <r_mmod_Improper_Torsional_Energy-OPLS-2005>
8.56306648254395

> <r_mmod_Van_der_Waal_Energy-OPLS-2005>
122.158042907715

> <r_mmod_Electrostatic_Energy-OPLS-2005>
-446.931213378906

> <r_mmod_Solvation_Energy-OPLS-2005>
-213.348678588867

> <b_mmod_Minimization_Converged-OPLS-2005>
0

> <r_mmod_RMS_Derivative-OPLS-2005>
2.31426906585693

$$$$
46
                    3D
 Structure written by MMmdl.
156165  0  0  1  0            999 V2000
  -30.6234  -14.8741   20.4331 C   0  0  0  0  0  0
  -30.4194  -12.5469   19.4837 C   0  0  0  0  0  0
  -29.5065  -12.5052   18.2414 C   0  0  0  0  0  0
  -28.0389  -12.3147   18.6659 C   0  0  0  0  0  0
  -27.6250  -13.2518   19.8329 C   0  0  2  0  0  0
  -28.6730  -13.2909   20.9641 C   0  0  0  0  0  0
  -25.2438  -13.8227   20.5708 C   0  0  0  0  0  0
  -24.1771  -13.0444   20.9245 C   0  0  0  0  0  0
  -24.6388  -11.6930   20.8774 C   0  0  0  0  0  0
  -23.9081  -10.4293   21.0417 C   0  0  0  0  0  0
  -24.3631   -9.4209   21.9187 C   0  0  0  0  0  0
  -23.6306   -8.2243   22.0753 C   0  0  0  0  0  0
  -22.4286   -8.0279   21.3543 C   0  0  0  0  0  0
  -21.9923   -9.0259   20.4651 C   0  0  0  0  0  0
  -22.7253  -10.2139   20.3063 C   0  0  0  0  0  0
  -21.6861   -6.0732   22.5272 C   0  0  0  0  0  0
  -21.4022   -6.5637   23.8206 C   0  0  0  0  0  0
  -21.3665   -5.6786   24.9166 C   0  0  0  0  0  0
  -21.6045   -4.3049   24.7222 C   0  0  0  0  0  0
  -21.8823   -3.8143   23.4345 C   0  0  0  0  0  0
  -21.9200   -4.6959   22.3398 C   0  0  0  0  0  0
  -22.7788  -13.5211   21.1884 C   0  0  0  0  0  0
  -22.1664   -4.2145   21.0974 F   0  0  0  0  0  0
  -21.5629   -3.4527   25.7736 F   0  0  0  0  0  0
  -29.9445  -13.6676   20.3412 N   0  0  0  0  0  0
  -26.2870  -12.9472   20.3257 N   0  0  0  0  0  0
  -25.9323  -11.6598   20.5775 N   0  0  0  0  0  0
  -22.0448  -12.8191   22.0442 N   0  0  0  0  0  0
  -25.4070  -15.1950   20.4069 N   0  0  0  0  0  0
  -31.8384  -14.8449   20.2181 O   0  0  0  0  0  0
  -21.6651   -6.8880   21.4236 O   0  0  0  0  0  0
  -22.3462  -14.5507   20.6724 O   0  0  0  0  0  0
  -24.6410  -31.8479   23.1909 C   0  0  0  0  0  0
  -25.9190  -32.4718   23.8298 C   0  0  1  0  0  0
  -27.2072  -27.1624   20.1544 C   0  0  0  0  0  0
  -25.5947  -33.8522   24.2221 N   0  0  0  0  0  0
  -23.4432  -30.4672   21.5369 C   0  0  2  0  0  0
  -24.8900  -28.8981   20.1125 C   0  0  0  0  0  0
  -22.7559  -29.4561   22.4885 C   0  0  0  0  0  0
  -18.0303  -28.1392   22.8486 C   0  0  0  0  0  0
  -24.1487  -36.7260   23.2641 C   0  0  0  0  0  0
  -25.9972  -30.7285   21.3854 C   0  0  0  0  0  0
  -26.0669  -29.3414   20.7298 C   0  0  0  0  0  0
  -27.2308  -28.4897   20.7318 C   0  0  0  0  0  0
  -26.0106  -26.8151   19.4925 C   0  0  0  0  0  0
  -24.8728  -27.6473   19.4780 C   0  0  0  0  0  0
  -23.6673  -29.7978   20.1555 C   0  0  0  0  0  0
  -25.4118  -36.3051   24.0327 C   0  0  1  0  0  0
  -20.5915  -28.3714   23.1249 C   0  0  2  0  0  0
  -20.6795  -26.9425   22.5403 C   0  0  0  0  0  0
  -19.5767  -26.6382   21.5215 C   0  0  0  0  0  0
  -18.1943  -26.7931   22.1624 C   0  0  0  0  0  0
  -19.1557  -28.8872   23.2857 C   0  0  0  0  0  0
  -18.9474  -30.1468   23.8886 C   0  0  0  0  0  0
  -17.6470  -30.6593   24.0555 C   0  0  0  0  0  0
  -25.9070  -34.9424   23.5083 C   0  0  0  0  0  0
  -16.5364  -29.9085   23.6332 C   0  0  0  0  0  0
  -16.7283  -28.6497   23.0366 C   0  0  0  0  0  0
  -26.4524  -31.6570   25.0722 C   0  0  0  0  0  0
  -25.3711  -31.3739   26.1416 C   0  0  0  0  0  0
  -27.0383  -30.2976   24.6269 C   0  0  0  0  0  0
  -27.6073  -32.4327   25.7491 C   0  0  0  0  0  0
  -27.5585  -37.1781   24.8467 C   0  0  0  0  0  0
  -21.4252  -29.3041   22.3625 N   0  0  0  0  0  0
  -26.4290  -37.3761   23.9417 N   0  0  0  0  0  0
  -24.7138  -31.0357   22.0929 N   0  0  0  0  0  0
  -23.4213  -28.8111   23.3029 O   0  0  0  0  0  0
  -28.2618  -26.1919   20.1789 O   0  0  0  0  0  0
  -26.5651  -34.8920   22.4658 O   0  0  0  0  0  0
  -23.5531  -32.1342   23.7140 O   0  0  0  0  0  0
  -29.3915  -23.4499   18.7135 C   0  0  0  0  0  0
  -28.7291  -23.3921   19.9634 C   0  0  0  0  0  0
  -29.9194  -21.1572   18.7532 C   0  0  0  0  0  0
  -29.2552  -20.9506   19.9974 C   0  0  0  0  0  0
  -30.6727  -17.4435   19.9911 C   0  0  0  0  0  0
  -28.9526  -16.9645   20.9956 C   0  0  0  0  0  0
  -29.3270  -18.2454   20.1218 C   0  0  0  0  0  0
  -29.4926  -24.7288   17.9054 C   0  0  0  0  0  0
  -30.7024  -20.0864   18.0226 C   0  0  0  0  0  0
  -27.9695  -24.7179   20.5574 C   0  0  0  0  0  0
  -29.9716  -22.3671   18.1393 N   0  0  0  0  0  0
  -28.6768  -22.1092   20.5819 N   0  0  0  0  0  0
  -29.9878  -16.1356   20.2885 N   0  0  0  0  0  0
  -29.2112  -19.6717   20.6984 O   0  0  0  0  0  0
  -31.4576  -12.6678   19.1710 H   0  0  0  0  0  0
  -30.3803  -11.6005   20.0259 H   0  0  0  0  0  0
  -29.8101  -11.6982   17.5737 H   0  0  0  0  0  0
  -29.6130  -13.4316   17.6745 H   0  0  0  0  0  0
  -27.9222  -11.2742   18.9714 H   0  0  0  0  0  0
  -27.3746  -12.4560   17.8126 H   0  0  0  0  0  0
  -27.5870  -14.2534   19.4035 H   0  0  0  0  0  0
  -28.7488  -12.3280   21.4715 H   0  0  0  0  0  0
  -28.3916  -14.0255   21.7201 H   0  0  0  0  0  0
  -25.2776   -9.5679   22.4763 H   0  0  0  0  0  0
  -24.0017   -7.4629   22.7465 H   0  0  0  0  0  0
  -21.0858   -8.8782   19.8958 H   0  0  0  0  0  0
  -22.3709  -10.9682   19.6175 H   0  0  0  0  0  0
  -21.2012   -7.6146   23.9706 H   0  0  0  0  0  0
  -21.1486   -6.0516   25.9066 H   0  0  0  0  0  0
  -22.0601   -2.7602   23.2846 H   0  0  0  0  0  0
  -22.4082  -11.9877   22.4865 H   0  0  0  0  0  0
  -21.1062  -13.1201   22.2640 H   0  0  0  0  0  0
  -24.6337  -15.8432   20.5084 H   0  0  0  0  0  0
  -26.2428  -15.6292   20.0381 H   0  0  0  0  0  0
  -26.7258  -32.5339   23.1034 H   0  0  0  0  0  0
  -25.0080  -33.9644   25.0361 H   0  0  0  0  0  0
  -22.7450  -31.2925   21.3843 H   0  0  0  0  0  0
  -23.3770  -35.9570   23.3281 H   0  0  0  0  0  0
  -24.3580  -36.8907   22.2061 H   0  0  0  0  0  0
  -23.7216  -37.6444   23.6682 H   0  0  0  0  0  0
  -26.1495  -31.4822   20.6116 H   0  0  0  0  0  0
  -26.8709  -30.7802   22.0240 H   0  0  0  0  0  0
  -28.1324  -28.8233   21.2262 H   0  0  0  0  0  0
  -25.9346  -25.8633   18.9870 H   0  0  0  0  0  0
  -23.9756  -27.3069   18.9793 H   0  0  0  0  0  0
  -23.8027  -30.5724   19.3998 H   0  0  0  0  0  0
  -22.7826  -29.2383   19.8461 H   0  0  0  0  0  0
  -25.1296  -36.1892   25.0820 H   0  0  0  0  0  0
  -21.0005  -28.3295   24.1371 H   0  0  0  0  0  0
  -20.5705  -26.2324   23.3612 H   0  0  0  0  0  0
  -21.6660  -26.7446   22.1190 H   0  0  0  0  0  0
  -19.6933  -25.6287   21.1256 H   0  0  0  0  0  0
  -19.6706  -27.3183   20.6736 H   0  0  0  0  0  0
  -17.4216  -26.6679   21.4023 H   0  0  0  0  0  0
  -18.0345  -26.0075   22.9022 H   0  0  0  0  0  0
  -19.7946  -30.7284   24.2262 H   0  0  0  0  0  0
  -17.5020  -31.6276   24.5152 H   0  0  0  0  0  0
  -15.5363  -30.2982   23.7664 H   0  0  0  0  0  0
  -15.8682  -28.0801   22.7113 H   0  0  0  0  0  0
  -24.5897  -30.7089   25.7718 H   0  0  0  0  0  0
  -24.8890  -32.2910   26.4813 H   0  0  0  0  0  0
  -25.7992  -30.8920   27.0212 H   0  0  0  0  0  0
  -26.2986  -29.6706   24.1279 H   0  0  0  0  0  0
  -27.4019  -29.7269   25.4823 H   0  0  0  0  0  0
  -27.8886  -30.4235   23.9563 H   0  0  0  0  0  0
  -27.2691  -33.3649   26.2028 H   0  0  0  0  0  0
  -28.3893  -32.6851   25.0315 H   0  0  0  0  0  0
  -28.0730  -31.8474   26.5429 H   0  0  0  0  0  0
  -28.2580  -38.0100   24.7548 H   0  0  0  0  0  0
  -28.1105  -36.2636   24.6247 H   0  0  0  0  0  0
  -27.2310  -37.1370   25.8870 H   0  0  0  0  0  0
  -20.9474  -29.8730   21.6779 H   0  0  0  0  0  0
  -26.0163  -38.2829   24.1434 H   0  0  0  0  0  0
  -31.4153  -17.7238   20.7400 H   0  0  0  0  0  0
  -31.1114  -17.4757   18.9947 H   0  0  0  0  0  0
  -27.9272  -16.6293   20.8412 H   0  0  0  0  0  0
  -29.1548  -17.0947   22.0604 H   0  0  0  0  0  0
  -28.7595  -18.1962   19.1912 H   0  0  0  0  0  0
  -28.5005  -25.1054   17.6566 H   0  0  0  0  0  0
  -30.0317  -24.5706   16.9711 H   0  0  0  0  0  0
  -30.0277  -25.4930   18.4686 H   0  0  0  0  0  0
  -31.4966  -19.7054   18.6630 H   0  0  0  0  0  0
  -31.1784  -20.4875   17.1266 H   0  0  0  0  0  0
  -30.0578  -19.2718   17.7008 H   0  0  0  0  0  0
  -28.1200  -24.6736   21.6361 H   0  0  0  0  0  0
  -26.9078  -24.5134   20.4343 H   0  0  0  0  0  0
  1 25  1  0  0  0
  1 30  2  0  0  0
  1 83  1  0  0  0
  2  3  1  0  0  0
  2 25  1  0  0  0
  2 85  1  0  0  0
  2 86  1  0  0  0
  3  4  1  0  0  0
  3 87  1  0  0  0
  3 88  1  0  0  0
  4  5  1  0  0  0
  4 89  1  0  0  0
  4 90  1  0  0  0
  5  6  1  0  0  0
  5 26  1  0  0  0
  5 91  1  0  0  0
  6 25  1  0  0  0
  6 92  1  0  0  0
  6 93  1  0  0  0
  7  8  2  0  0  0
  7 26  1  0  0  0
  7 29  1  0  0  0
  8  9  1  0  0  0
  8 22  1  0  0  0
  9 10  1  0  0  0
  9 27  2  0  0  0
 10 11  2  0  0  0
 10 15  1  0  0  0
 11 12  1  0  0  0
 11 94  1  0  0  0
 12 13  2  0  0  0
 12 95  1  0  0  0
 13 14  1  0  0  0
 13 31  1  0  0  0
 14 15  2  0  0  0
 14 96  1  0  0  0
 15 97  1  0  0  0
 16 17  2  0  0  0
 16 21  1  0  0  0
 16 31  1  0  0  0
 17 18  1  0  0  0
 17 98  1  0  0  0
 18 19  2  0  0  0
 18 99  1  0  0  0
 19 20  1  0  0  0
 19 24  1  0  0  0
 20 21  2  0  0  0
 20100  1  0  0  0
 21 23  1  0  0  0
 22 28  1  0  0  0
 22 32  2  0  0  0
 26 27  1  0  0  0
 28101  1  0  0  0
 28102  1  0  0  0
 29103  1  0  0  0
 29104  1  0  0  0
 33 34  1  0  0  0
 33 66  1  0  0  0
 33 70  2  0  0  0
 34 36  1  0  0  0
 34 59  1  0  0  0
 34105  1  0  0  0
 35 44  2  0  0  0
 35 45  1  0  0  0
 35 68  1  0  0  0
 36 56  1  0  0  0
 36106  1  0  0  0
 37 39  1  0  0  0
 37 47  1  0  0  0
 37 66  1  0  0  0
 37107  1  0  0  0
 38 43  2  0  0  0
 38 46  1  0  0  0
 38 47  1  0  0  0
 39 64  1  0  0  0
 39 67  2  0  0  0
 40 52  1  0  0  0
 40 53  2  0  0  0
 40 58  1  0  0  0
 41108  1  0  0  0
 41109  1  0  0  0
 41110  1  0  0  0
 41 48  1  0  0  0
 42 43  1  0  0  0
 42 66  1  0  0  0
 42111  1  0  0  0
 42112  1  0  0  0
 43 44  1  0  0  0
 44113  1  0  0  0
 45 46  2  0  0  0
 45114  1  0  0  0
 46115  1  0  0  0
 47116  1  0  0  0
 47117  1  0  0  0
 48 56  1  0  0  0
 48 65  1  0  0  0
 48118  1  0  0  0
 49 50  1  0  0  0
 49 53  1  0  0  0
 49 64  1  0  0  0
 49119  1  0  0  0
 50 51  1  0  0  0
 50120  1  0  0  0
 50121  1  0  0  0
 51 52  1  0  0  0
 51122  1  0  0  0
 51123  1  0  0  0
 52124  1  0  0  0
 52125  1  0  0  0
 53 54  1  0  0  0
 54 55  2  0  0  0
 54126  1  0  0  0
 55 57  1  0  0  0
 55127  1  0  0  0
 56 69  2  0  0  0
 57 58  2  0  0  0
 57128  1  0  0  0
 58129  1  0  0  0
 59 60  1  0  0  0
 59 61  1  0  0  0
 59 62  1  0  0  0
 60130  1  0  0  0
 60131  1  0  0  0
 60132  1  0  0  0
 61133  1  0  0  0
 61134  1  0  0  0
 61135  1  0  0  0
 62136  1  0  0  0
 62137  1  0  0  0
 62138  1  0  0  0
 63 65  1  0  0  0
 63139  1  0  0  0
 63140  1  0  0  0
 63141  1  0  0  0
 64142  1  0  0  0
 65143  1  0  0  0
 68 80  1  0  0  0
 71 72  2  0  0  0
 71 78  1  0  0  0
 71 81  1  0  0  0
 72 80  1  0  0  0
 72 82  1  0  0  0
 73 74  1  0  0  0
 73 79  1  0  0  0
 73 81  2  0  0  0
 74 82  2  0  0  0
 74 84  1  0  0  0
 75 77  1  0  0  0
 75 83  1  0  0  0
 75144  1  0  0  0
 75145  1  0  0  0
 76 77  1  0  0  0
 76 83  1  0  0  0
 76146  1  0  0  0
 76147  1  0  0  0
 77 84  1  0  0  0
 77148  1  0  0  0
 78149  1  0  0  0
 78150  1  0  0  0
 78151  1  0  0  0
 79152  1  0  0  0
 79153  1  0  0  0
 79154  1  0  0  0
 80155  1  0  0  0
 80156  1  0  0  0
M  ISO  4   1 100  68 101  80 101  83 100
M  END
> <chiral flag>
0

> <version>
0

> <s_m_source_file>
/data/baiqing/PycharmProjects/Reinvent-master-3.2/result/LINK_invent/BTK/process_docking_weight1_custom_sum_contain_oxygen_bond_distance_aromatic_linkinvent_7_9_3/rearranged_h_0176.sdf

> <i_m_source_file_index>
47

> <r_mmod_Potential_Energy-OPLS-2005>
526.839965820312

> <r_mmod_Stretch_Energy-OPLS-2005>
205.392242431641

> <r_mmod_Bend_Energy-OPLS-2005>
270.148406982422

> <r_mmod_Torsional_Energy-OPLS-2005>
278.031677246094

> <r_mmod_Improper_Torsional_Energy-OPLS-2005>
19.4456081390381

> <r_mmod_Van_der_Waal_Energy-OPLS-2005>
135.445602416992

> <r_mmod_Electrostatic_Energy-OPLS-2005>
-318.036468505859

> <r_mmod_Solvation_Energy-OPLS-2005>
-223.172409057617

> <b_mmod_Minimization_Converged-OPLS-2005>
0

> <r_mmod_RMS_Derivative-OPLS-2005>
1.51037037372589

$$$$
47
                    3D
 Structure written by MMmdl.
163172  0  0  1  0            999 V2000
  -30.5065  -15.0881   20.4180 C   0  0  0  0  0  0
  -30.4369  -12.6901   19.5107 C   0  0  0  0  0  0
  -29.5240  -12.5615   18.2677 C   0  0  0  0  0  0
  -28.0616  -12.3212   18.6849 C   0  0  0  0  0  0
  -27.6221  -13.2599   19.8390 C   0  0  2  0  0  0
  -28.6660  -13.3201   20.9761 C   0  0  0  0  0  0
  -25.2375  -13.8210   20.5666 C   0  0  0  0  0  0
  -24.1743  -13.0414   20.9242 C   0  0  0  0  0  0
  -24.6399  -11.6915   20.8777 C   0  0  0  0  0  0
  -23.9093  -10.4279   21.0414 C   0  0  0  0  0  0
  -24.3644   -9.4193   21.9193 C   0  0  0  0  0  0
  -23.6309   -8.2230   22.0752 C   0  0  0  0  0  0
  -22.4290   -8.0276   21.3538 C   0  0  0  0  0  0
  -21.9933   -9.0255   20.4640 C   0  0  0  0  0  0
  -22.7266  -10.2128   20.3055 C   0  0  0  0  0  0
  -21.6853   -6.0742   22.5283 C   0  0  0  0  0  0
  -21.4015   -6.5638   23.8222 C   0  0  0  0  0  0
  -21.3660   -5.6785   24.9177 C   0  0  0  0  0  0
  -21.6037   -4.3048   24.7216 C   0  0  0  0  0  0
  -21.8824   -3.8146   23.4334 C   0  0  0  0  0  0
  -21.9198   -4.6971   22.3397 C   0  0  0  0  0  0
  -22.7761  -13.5176   21.1879 C   0  0  0  0  0  0
  -22.1662   -4.2160   21.0976 F   0  0  0  0  0  0
  -21.5631   -3.4533   25.7726 F   0  0  0  0  0  0
  -29.9115  -13.8081   20.3647 N   0  0  0  0  0  0
  -26.2847  -12.9481   20.3261 N   0  0  0  0  0  0
  -25.9339  -11.6597   20.5784 N   0  0  0  0  0  0
  -22.0403  -12.8181   22.0440 N   0  0  0  0  0  0
  -25.3879  -15.1931   20.3963 N   0  0  0  0  0  0
  -31.7098  -15.0934   20.1229 O   0  0  0  0  0  0
  -21.6638   -6.8885   21.4242 O   0  0  0  0  0  0
  -22.3441  -14.5469   20.6702 O   0  0  0  0  0  0
  -24.6515  -31.8350   23.1788 C   0  0  0  0  0  0
  -25.9246  -32.4650   23.8218 C   0  0  1  0  0  0
  -27.2178  -27.0439   20.1684 C   0  0  0  0  0  0
  -25.5959  -33.8458   24.2132 N   0  0  0  0  0  0
  -23.4595  -30.4502   21.5266 C   0  0  2  0  0  0
  -24.9089  -28.8534   20.1124 C   0  0  0  0  0  0
  -22.7610  -29.4505   22.4829 C   0  0  0  0  0  0
  -18.0313  -28.1401   22.8472 C   0  0  0  0  0  0
  -24.1491  -36.7240   23.2643 C   0  0  0  0  0  0
  -26.0208  -30.6799   21.3884 C   0  0  0  0  0  0
  -26.0896  -29.2800   20.7332 C   0  0  0  0  0  0
  -27.2420  -28.3937   20.7369 C   0  0  0  0  0  0
  -26.0096  -26.7341   19.5089 C   0  0  0  0  0  0
  -24.8869  -27.5974   19.4825 C   0  0  0  0  0  0
  -23.6909  -29.7699   20.1500 C   0  0  0  0  0  0
  -25.4129  -36.3007   24.0303 C   0  0  1  0  0  0
  -20.5928  -28.3739   23.1211 C   0  0  2  0  0  0
  -20.6795  -26.9429   22.5401 C   0  0  0  0  0  0
  -19.5770  -26.6377   21.5212 C   0  0  0  0  0  0
  -18.1951  -26.7937   22.1621 C   0  0  0  0  0  0
  -19.1567  -28.8888   23.2836 C   0  0  0  0  0  0
  -18.9485  -30.1484   23.8868 C   0  0  0  0  0  0
  -17.6479  -30.6598   24.0555 C   0  0  0  0  0  0
  -25.9088  -34.9385   23.5031 C   0  0  0  0  0  0
  -16.5369  -29.9090   23.6336 C   0  0  0  0  0  0
  -16.7293  -28.6505   23.0358 C   0  0  0  0  0  0
  -26.4542  -31.6551   25.0698 C   0  0  0  0  0  0
  -25.3697  -31.3770   26.1374 C   0  0  0  0  0  0
  -27.0402  -30.2926   24.6336 C   0  0  0  0  0  0
  -27.6054  -32.4331   25.7501 C   0  0  0  0  0  0
  -27.5572  -37.1782   24.8466 C   0  0  0  0  0  0
  -21.4289  -29.3053   22.3576 N   0  0  0  0  0  0
  -26.4289  -37.3727   23.9400 N   0  0  0  0  0  0
  -24.7315  -31.0123   22.0859 N   0  0  0  0  0  0
  -23.4212  -28.8066   23.3025 O   0  0  0  0  0  0
  -28.2717  -26.0332   20.2343 O   0  0  0  0  0  0
  -26.5689  -34.8899   22.4626 O   0  0  0  0  0  0
  -23.5614  -32.1269   23.6955 O   0  0  0  0  0  0
  -29.4136  -23.3314   20.1552 C   0  0  0  0  0  0
  -30.6738  -23.9920   19.9796 C   0  0  0  0  0  0
  -29.6148  -21.7970   20.2767 C   0  0  0  0  0  0
  -31.9078  -22.0874   20.2001 C   0  0  0  0  0  0
  -28.0871  -18.1237   21.1431 C   0  0  0  0  0  0
  -28.5953  -16.6398   21.3305 C   0  0  0  0  0  0
  -29.2698  -19.0519   20.8041 C   0  0  1  0  0  0
  -30.1254  -17.8361   20.0384 C   0  0  2  0  0  0
  -30.8554  -25.4706   19.6774 C   0  0  0  0  0  0
  -33.2631  -21.4153   20.2194 C   0  0  0  0  0  0
  -29.9491  -17.9565   18.5190 C   0  0  0  0  0  0
  -28.1285  -24.4350   20.1325 C   0  0  0  0  0  0
  -31.8695  -23.3825   20.0151 N   0  0  0  0  0  0
  -30.8622  -21.3116   20.3301 N   0  0  0  0  0  0
  -29.7766  -16.3560   20.4904 N   0  0  0  0  0  0
  -28.8463  -20.5211   20.2973 N   0  0  0  0  0  0
  -31.4643  -12.8668   19.1901 H   0  0  0  0  0  0
  -30.4670  -11.7529   20.0687 H   0  0  0  0  0  0
  -29.8686  -11.7522   17.6230 H   0  0  0  0  0  0
  -29.5875  -13.4752   17.6754 H   0  0  0  0  0  0
  -27.9770  -11.2821   19.0041 H   0  0  0  0  0  0
  -27.3979  -12.4286   17.8257 H   0  0  0  0  0  0
  -27.5698  -14.2542   19.3951 H   0  0  0  0  0  0
  -28.8001  -12.3388   21.4313 H   0  0  0  0  0  0
  -28.3430  -13.9711   21.7869 H   0  0  0  0  0  0
  -25.2781   -9.5672   22.4784 H   0  0  0  0  0  0
  -24.0013   -7.4622   22.7471 H   0  0  0  0  0  0
  -21.0865   -8.8775   19.8953 H   0  0  0  0  0  0
  -22.3721  -10.9676   19.6174 H   0  0  0  0  0  0
  -21.2000   -7.6147   23.9729 H   0  0  0  0  0  0
  -21.1480   -6.0510   25.9085 H   0  0  0  0  0  0
  -22.0604   -2.7610   23.2829 H   0  0  0  0  0  0
  -22.4016  -11.9871   22.4879 H   0  0  0  0  0  0
  -21.1017  -13.1219   22.2610 H   0  0  0  0  0  0
  -24.6067  -15.8312   20.5013 H   0  0  0  0  0  0
  -26.2188  -15.6398   20.0325 H   0  0  0  0  0  0
  -26.7309  -32.5234   23.0941 H   0  0  0  0  0  0
  -25.0062  -33.9563   25.0248 H   0  0  0  0  0  0
  -22.7673  -31.2790   21.3635 H   0  0  0  0  0  0
  -23.3755  -35.9572   23.3302 H   0  0  0  0  0  0
  -24.3566  -36.8886   22.2058 H   0  0  0  0  0  0
  -23.7252  -37.6433   23.6693 H   0  0  0  0  0  0
  -26.1833  -31.4273   20.6107 H   0  0  0  0  0  0
  -26.8889  -30.7371   22.0342 H   0  0  0  0  0  0
  -28.1423  -28.7177   21.2391 H   0  0  0  0  0  0
  -25.9068  -25.7739   19.0244 H   0  0  0  0  0  0
  -23.9865  -27.2649   18.9846 H   0  0  0  0  0  0
  -23.8349  -30.5400   19.3911 H   0  0  0  0  0  0
  -22.8031  -29.2178   19.8380 H   0  0  0  0  0  0
  -25.1325  -36.1824   25.0795 H   0  0  0  0  0  0
  -21.0026  -28.3333   24.1330 H   0  0  0  0  0  0
  -20.5675  -26.2358   23.3633 H   0  0  0  0  0  0
  -21.6662  -26.7414   22.1207 H   0  0  0  0  0  0
  -19.6925  -25.6276   21.1275 H   0  0  0  0  0  0
  -19.6708  -27.3161   20.6721 H   0  0  0  0  0  0
  -17.4217  -26.6674   21.4027 H   0  0  0  0  0  0
  -18.0347  -26.0088   22.9027 H   0  0  0  0  0  0
  -19.7958  -30.7307   24.2223 H   0  0  0  0  0  0
  -17.5029  -31.6275   24.5161 H   0  0  0  0  0  0
  -15.5367  -30.2985   23.7674 H   0  0  0  0  0  0
  -15.8691  -28.0816   22.7092 H   0  0  0  0  0  0
  -24.5891  -30.7106   25.7687 H   0  0  0  0  0  0
  -24.8877  -32.2961   26.4711 H   0  0  0  0  0  0
  -25.7957  -30.8998   27.0209 H   0  0  0  0  0  0
  -26.3021  -29.6647   24.1333 H   0  0  0  0  0  0
  -27.3959  -29.7246   25.4945 H   0  0  0  0  0  0
  -27.8963  -30.4132   23.9693 H   0  0  0  0  0  0
  -27.2629  -33.3655   26.2004 H   0  0  0  0  0  0
  -28.3913  -32.6854   25.0367 H   0  0  0  0  0  0
  -28.0668  -31.8506   26.5490 H   0  0  0  0  0  0
  -28.2586  -38.0078   24.7492 H   0  0  0  0  0  0
  -28.1069  -36.2604   24.6319 H   0  0  0  0  0  0
  -27.2287  -37.1460   25.8870 H   0  0  0  0  0  0
  -20.9509  -29.8758   21.6737 H   0  0  0  0  0  0
  -26.0147  -38.2793   24.1394 H   0  0  0  0  0  0
  -27.5354  -18.4689   22.0178 H   0  0  0  0  0  0
  -27.3814  -18.1395   20.3111 H   0  0  0  0  0  0
  -27.7859  -15.9581   21.0968 H   0  0  0  0  0  0
  -28.8655  -16.4703   22.3733 H   0  0  0  0  0  0
  -29.7976  -19.2305   21.7427 H   0  0  0  0  0  0
  -31.1834  -17.9941   20.2541 H   0  0  0  0  0  0
  -30.6566  -26.0766   20.5612 H   0  0  0  0  0  0
  -30.2221  -25.7877   18.8490 H   0  0  0  0  0  0
  -31.8779  -25.6959   19.3721 H   0  0  0  0  0  0
  -34.0038  -22.0066   19.6809 H   0  0  0  0  0  0
  -33.2150  -20.4311   19.7501 H   0  0  0  0  0  0
  -33.6049  -21.2847   21.2451 H   0  0  0  0  0  0
  -28.9068  -17.8154   18.2307 H   0  0  0  0  0  0
  -30.5510  -17.2173   17.9905 H   0  0  0  0  0  0
  -30.2573  -18.9453   18.1768 H   0  0  0  0  0  0
  -27.4553  -24.1341   20.9357 H   0  0  0  0  0  0
  -27.5863  -24.2246   19.2111 H   0  0  0  0  0  0
  -27.8468  -20.6550   20.1880 H   0  0  0  0  0  0
  1 25  1  0  0  0
  1 30  2  0  0  0
  1 85  1  0  0  0
  2  3  1  0  0  0
  2 25  1  0  0  0
  2 87  1  0  0  0
  2 88  1  0  0  0
  3  4  1  0  0  0
  3 89  1  0  0  0
  3 90  1  0  0  0
  4  5  1  0  0  0
  4 91  1  0  0  0
  4 92  1  0  0  0
  5  6  1  0  0  0
  5 26  1  0  0  0
  5 93  1  0  0  0
  6 25  1  0  0  0
  6 94  1  0  0  0
  6 95  1  0  0  0
  7  8  2  0  0  0
  7 26  1  0  0  0
  7 29  1  0  0  0
  8  9  1  0  0  0
  8 22  1  0  0  0
  9 10  1  0  0  0
  9 27  2  0  0  0
 10 11  2  0  0  0
 10 15  1  0  0  0
 11 12  1  0  0  0
 11 96  1  0  0  0
 12 13  2  0  0  0
 12 97  1  0  0  0
 13 14  1  0  0  0
 13 31  1  0  0  0
 14 15  2  0  0  0
 14 98  1  0  0  0
 15 99  1  0  0  0
 16 17  2  0  0  0
 16 21  1  0  0  0
 16 31  1  0  0  0
 17 18  1  0  0  0
 17100  1  0  0  0
 18 19  2  0  0  0
 18101  1  0  0  0
 19 20  1  0  0  0
 19 24  1  0  0  0
 20 21  2  0  0  0
 20102  1  0  0  0
 21 23  1  0  0  0
 22 28  1  0  0  0
 22 32  2  0  0  0
 26 27  1  0  0  0
 28103  1  0  0  0
 28104  1  0  0  0
 29105  1  0  0  0
 29106  1  0  0  0
 33 34  1  0  0  0
 33 66  1  0  0  0
 33 70  2  0  0  0
 34 36  1  0  0  0
 34 59  1  0  0  0
 34107  1  0  0  0
 35 44  2  0  0  0
 35 45  1  0  0  0
 35 68  1  0  0  0
 36 56  1  0  0  0
 36108  1  0  0  0
 37 39  1  0  0  0
 37 47  1  0  0  0
 37 66  1  0  0  0
 37109  1  0  0  0
 38 43  2  0  0  0
 38 46  1  0  0  0
 38 47  1  0  0  0
 39 64  1  0  0  0
 39 67  2  0  0  0
 40 52  1  0  0  0
 40 53  2  0  0  0
 40 58  1  0  0  0
 41110  1  0  0  0
 41111  1  0  0  0
 41112  1  0  0  0
 41 48  1  0  0  0
 42 43  1  0  0  0
 42 66  1  0  0  0
 42113  1  0  0  0
 42114  1  0  0  0
 43 44  1  0  0  0
 44115  1  0  0  0
 45 46  2  0  0  0
 45116  1  0  0  0
 46117  1  0  0  0
 47118  1  0  0  0
 47119  1  0  0  0
 48 56  1  0  0  0
 48 65  1  0  0  0
 48120  1  0  0  0
 49 50  1  0  0  0
 49 53  1  0  0  0
 49 64  1  0  0  0
 49121  1  0  0  0
 50 51  1  0  0  0
 50122  1  0  0  0
 50123  1  0  0  0
 51 52  1  0  0  0
 51124  1  0  0  0
 51125  1  0  0  0
 52126  1  0  0  0
 52127  1  0  0  0
 53 54  1  0  0  0
 54 55  2  0  0  0
 54128  1  0  0  0
 55 57  1  0  0  0
 55129  1  0  0  0
 56 69  2  0  0  0
 57 58  2  0  0  0
 57130  1  0  0  0
 58131  1  0  0  0
 59 60  1  0  0  0
 59 61  1  0  0  0
 59 62  1  0  0  0
 60132  1  0  0  0
 60133  1  0  0  0
 60134  1  0  0  0
 61135  1  0  0  0
 61136  1  0  0  0
 61137  1  0  0  0
 62138  1  0  0  0
 62139  1  0  0  0
 62140  1  0  0  0
 63 65  1  0  0  0
 63141  1  0  0  0
 63142  1  0  0  0
 63143  1  0  0  0
 64144  1  0  0  0
 65145  1  0  0  0
 68 82  1  0  0  0
 71 72  2  0  0  0
 71 73  1  0  0  0
 71 82  1  0  0  0
 72 79  1  0  0  0
 72 83  1  0  0  0
 73 84  2  0  0  0
 73 86  1  0  0  0
 74 80  1  0  0  0
 74 83  2  0  0  0
 74 84  1  0  0  0
 75 76  1  0  0  0
 75 77  1  0  0  0
 75146  1  0  0  0
 75147  1  0  0  0
 76 85  1  0  0  0
 76148  1  0  0  0
 76149  1  0  0  0
 77 78  1  0  0  0
 77 86  1  0  0  0
 77150  1  0  0  0
 78 81  1  0  0  0
 78 85  1  0  0  0
 78151  1  0  0  0
 79152  1  0  0  0
 79153  1  0  0  0
 79154  1  0  0  0
 80155  1  0  0  0
 80156  1  0  0  0
 80157  1  0  0  0
 81158  1  0  0  0
 81159  1  0  0  0
 81160  1  0  0  0
 82161  1  0  0  0
 82162  1  0  0  0
 86163  1  0  0  0
M  ISO  4   1 100  68 101  82 101  85 100
M  END
> <chiral flag>
0

> <version>
0

> <s_m_source_file>
/data/baiqing/PycharmProjects/Reinvent-master-3.2/result/LINK_invent/BTK/process_docking_weight1_custom_sum_contain_oxygen_bond_distance_aromatic_linkinvent_7_9_3/rearranged_h_0176.sdf

> <i_m_source_file_index>
48

> <r_mmod_Potential_Energy-OPLS-2005>
551.055541992188

> <r_mmod_Stretch_Energy-OPLS-2005>
377.262512207031

> <r_mmod_Bend_Energy-OPLS-2005>
441.839050292969

> <r_mmod_Torsional_Energy-OPLS-2005>
322.295166015625

> <r_mmod_Improper_Torsional_Energy-OPLS-2005>
8.93713760375977

> <r_mmod_Van_der_Waal_Energy-OPLS-2005>
141.025756835938

> <r_mmod_Electrostatic_Energy-OPLS-2005>
-793.758361816406

> <r_mmod_Solvation_Energy-OPLS-2005>
-230.097900390625

> <b_mmod_Minimization_Converged-OPLS-2005>
0

> <r_mmod_RMS_Derivative-OPLS-2005>
1.62283420562744

$$$$
48
                    3D
 Structure written by MMmdl.
166175  0  0  1  0            999 V2000
  -30.5736  -15.0489   20.4105 C   0  0  0  0  0  0
  -30.4402  -12.6725   19.4755 C   0  0  0  0  0  0
  -29.5207  -12.5670   18.2382 C   0  0  0  0  0  0
  -28.0557  -12.3264   18.6557 C   0  0  0  0  0  0
  -27.6252  -13.2347   19.8327 C   0  0  2  0  0  0
  -28.6832  -13.3149   20.9540 C   0  0  0  0  0  0
  -25.2454  -13.8039   20.5750 C   0  0  0  0  0  0
  -24.1751  -13.0322   20.9265 C   0  0  0  0  0  0
  -24.6354  -11.6812   20.8752 C   0  0  0  0  0  0
  -23.9016  -10.4221   21.0431 C   0  0  0  0  0  0
  -24.3548   -9.4172   21.9229 C   0  0  0  0  0  0
  -23.6243   -8.2197   22.0768 C   0  0  0  0  0  0
  -22.4218   -8.0236   21.3554 C   0  0  0  0  0  0
  -21.9855   -9.0213   20.4648 C   0  0  0  0  0  0
  -22.7184  -10.2092   20.3076 C   0  0  0  0  0  0
  -21.6824   -6.0712   22.5265 C   0  0  0  0  0  0
  -21.4017   -6.5617   23.8204 C   0  0  0  0  0  0
  -21.3664   -5.6777   24.9161 C   0  0  0  0  0  0
  -21.6024   -4.3033   24.7204 C   0  0  0  0  0  0
  -21.8809   -3.8139   23.4321 C   0  0  0  0  0  0
  -21.9192   -4.6953   22.3383 C   0  0  0  0  0  0
  -22.7770  -13.5173   21.1864 C   0  0  0  0  0  0
  -22.1682   -4.2157   21.0956 F   0  0  0  0  0  0
  -21.5626   -3.4516   25.7727 F   0  0  0  0  0  0
  -29.9262  -13.7982   20.3236 N   0  0  0  0  0  0
  -26.2879  -12.9290   20.3295 N   0  0  0  0  0  0
  -25.9309  -11.6418   20.5721 N   0  0  0  0  0  0
  -22.0319  -12.8253   22.0412 N   0  0  0  0  0  0
  -25.4159  -15.1707   20.4088 N   0  0  0  0  0  0
  -31.7946  -14.9896   20.2254 O   0  0  0  0  0  0
  -21.6598   -6.8837   21.4218 O   0  0  0  0  0  0
  -22.3513  -14.5507   20.6701 O   0  0  0  0  0  0
  -24.6539  -31.8362   23.1811 C   0  0  0  0  0  0
  -25.9283  -32.4632   23.8228 C   0  0  1  0  0  0
  -27.2366  -27.0518   20.1754 C   0  0  0  0  0  0
  -25.6018  -33.8420   24.2168 N   0  0  0  0  0  0
  -23.4673  -30.4507   21.5236 C   0  0  2  0  0  0
  -24.9241  -28.8625   20.1179 C   0  0  0  0  0  0
  -22.7641  -29.4483   22.4787 C   0  0  0  0  0  0
  -18.0343  -28.1351   22.8428 C   0  0  0  0  0  0
  -24.1496  -36.7168   23.2640 C   0  0  0  0  0  0
  -26.0293  -30.6849   21.3975 C   0  0  0  0  0  0
  -26.1047  -29.2852   20.7425 C   0  0  0  0  0  0
  -27.2596  -28.4020   20.7471 C   0  0  0  0  0  0
  -26.0218  -26.7542   19.5125 C   0  0  0  0  0  0
  -24.8985  -27.6101   19.4912 C   0  0  0  0  0  0
  -23.7068  -29.7730   20.1485 C   0  0  0  0  0  0
  -25.4120  -36.2947   24.0315 C   0  0  1  0  0  0
  -20.5963  -28.3705   23.1174 C   0  0  2  0  0  0
  -20.6818  -26.9395   22.5367 C   0  0  0  0  0  0
  -19.5803  -26.6355   21.5156 C   0  0  0  0  0  0
  -18.1986  -26.7901   22.1563 C   0  0  0  0  0  0
  -19.1597  -28.8845   23.2793 C   0  0  0  0  0  0
  -18.9484  -30.1451   23.8824 C   0  0  0  0  0  0
  -17.6468  -30.6538   24.0523 C   0  0  0  0  0  0
  -25.9094  -34.9355   23.5029 C   0  0  0  0  0  0
  -16.5370  -29.9002   23.6343 C   0  0  0  0  0  0
  -16.7321  -28.6431   23.0340 C   0  0  0  0  0  0
  -26.4616  -31.6494   25.0695 C   0  0  0  0  0  0
  -25.3772  -31.3687   26.1370 C   0  0  0  0  0  0
  -27.0474  -30.2863   24.6363 C   0  0  0  0  0  0
  -27.6133  -32.4248   25.7478 C   0  0  0  0  0  0
  -27.5559  -37.1731   24.8463 C   0  0  0  0  0  0
  -21.4346  -29.3038   22.3537 N   0  0  0  0  0  0
  -26.4269  -37.3683   23.9429 N   0  0  0  0  0  0
  -24.7346  -31.0134   22.0883 N   0  0  0  0  0  0
  -23.4235  -28.8041   23.2973 O   0  0  0  0  0  0
  -28.2642  -26.0039   20.2519 O   0  0  0  0  0  0
  -26.5632  -34.8876   22.4587 O   0  0  0  0  0  0
  -23.5633  -32.1245   23.6988 O   0  0  0  0  0  0
  -28.3283  -21.6682   20.1311 C   0  0  0  0  0  0
  -28.7771  -23.0177   20.2955 C   0  0  0  0  0  0
  -30.1508  -22.6595   20.5834 C   0  0  0  0  0  0
  -28.4708  -16.6259   20.5628 C   0  0  0  0  0  0
  -28.1114  -18.1688   20.6125 C   0  0  1  0  0  0
  -29.2948  -18.9834   20.0367 C   0  0  2  0  0  0
  -30.4536  -17.8466   20.4051 C   0  0  2  0  0  0
  -26.7838  -18.4136   19.8714 C   0  0  0  0  0  0
  -31.6901  -17.9963   19.4947 C   0  0  0  0  0  0
  -32.2864  -22.9424   21.9269 C   0  0  0  0  0  0
  -27.8833  -24.4595   20.1743 C   0  0  0  0  0  0
  -31.2947  -23.5891   20.9371 C   0  0  1  0  0  0
  -30.4424  -21.3245   20.4592 N   0  0  0  0  0  0
  -29.3043  -20.5938   20.2724 N   0  0  0  0  0  0
  -29.9207  -16.3583   20.4613 N   0  0  0  0  0  0
  -31.9815  -24.0027   19.7118 N   0  3  0  0  0  0
  -31.4695  -12.8273   19.1484 H   0  0  0  0  0  0
  -30.4602  -11.7345   20.0302 H   0  0  0  0  0  0
  -29.8661  -11.7740   17.5717 H   0  0  0  0  0  0
  -29.5881  -13.4891   17.6624 H   0  0  0  0  0  0
  -27.9445  -11.2795   18.9350 H   0  0  0  0  0  0
  -27.3989  -12.4896   17.7995 H   0  0  0  0  0  0
  -27.5601  -14.2140   19.3744 H   0  0  0  0  0  0
  -28.8213  -12.3364   21.4163 H   0  0  0  0  0  0
  -28.3617  -13.9726   21.7594 H   0  0  0  0  0  0
  -25.2661   -9.5696   22.4850 H   0  0  0  0  0  0
  -23.9969   -7.4574   22.7451 H   0  0  0  0  0  0
  -21.0812   -8.8683   19.8923 H   0  0  0  0  0  0
  -22.3619  -10.9629   19.6188 H   0  0  0  0  0  0
  -21.2032   -7.6133   23.9703 H   0  0  0  0  0  0
  -21.1506   -6.0507   25.9062 H   0  0  0  0  0  0
  -22.0604   -2.7608   23.2784 H   0  0  0  0  0  0
  -22.3824  -11.9962   22.4975 H   0  0  0  0  0  0
  -21.0919  -13.1341   22.2449 H   0  0  0  0  0  0
  -24.6404  -15.8190   20.4744 H   0  0  0  0  0  0
  -26.2612  -15.5858   20.0397 H   0  0  0  0  0  0
  -26.7361  -32.5239   23.0947 H   0  0  0  0  0  0
  -25.0239  -33.9536   25.0378 H   0  0  0  0  0  0
  -22.7728  -31.2759   21.3570 H   0  0  0  0  0  0
  -23.3778  -35.9471   23.3254 H   0  0  0  0  0  0
  -24.3599  -36.8832   22.2060 H   0  0  0  0  0  0
  -23.7246  -37.6355   23.6703 H   0  0  0  0  0  0
  -26.2047  -31.4376   20.6290 H   0  0  0  0  0  0
  -26.8910  -30.7320   22.0518 H   0  0  0  0  0  0
  -28.1540  -28.7242   21.2623 H   0  0  0  0  0  0
  -25.8905  -25.8020   19.0208 H   0  0  0  0  0  0
  -23.9964  -27.2774   18.9970 H   0  0  0  0  0  0
  -23.8620  -30.5406   19.3891 H   0  0  0  0  0  0
  -22.8238  -29.2178   19.8274 H   0  0  0  0  0  0
  -25.1315  -36.1724   25.0802 H   0  0  0  0  0  0
  -21.0037  -28.3286   24.1301 H   0  0  0  0  0  0
  -20.5660  -26.2319   23.3587 H   0  0  0  0  0  0
  -21.6690  -26.7370   22.1205 H   0  0  0  0  0  0
  -19.6976  -25.6251   21.1230 H   0  0  0  0  0  0
  -19.6753  -27.3122   20.6643 H   0  0  0  0  0  0
  -17.4263  -26.6603   21.3972 H   0  0  0  0  0  0
  -18.0408  -26.0054   22.8971 H   0  0  0  0  0  0
  -19.7959  -30.7272   24.2169 H   0  0  0  0  0  0
  -17.5015  -31.6213   24.5122 H   0  0  0  0  0  0
  -15.5352  -30.2827   23.7748 H   0  0  0  0  0  0
  -15.8734  -28.0719   22.7076 H   0  0  0  0  0  0
  -24.5984  -30.7031   25.7680 H   0  0  0  0  0  0
  -24.8959  -32.2857   26.4745 H   0  0  0  0  0  0
  -25.8057  -30.8885   27.0173 H   0  0  0  0  0  0
  -26.3113  -29.6546   24.1415 H   0  0  0  0  0  0
  -27.4074  -29.7241   25.4990 H   0  0  0  0  0  0
  -27.9038  -30.4047   23.9720 H   0  0  0  0  0  0
  -27.2772  -33.3581   26.1993 H   0  0  0  0  0  0
  -28.3993  -32.6723   25.0332 H   0  0  0  0  0  0
  -28.0761  -31.8400   26.5446 H   0  0  0  0  0  0
  -28.2540  -38.0064   24.7511 H   0  0  0  0  0  0
  -28.1090  -36.2580   24.6259 H   0  0  0  0  0  0
  -27.2283  -37.1333   25.8873 H   0  0  0  0  0  0
  -20.9564  -29.8698   21.6673 H   0  0  0  0  0  0
  -26.0095  -38.2744   24.1431 H   0  0  0  0  0  0
  -27.3164  -21.3840   19.8915 H   0  0  0  0  0  0
  -28.0161  -16.2156   19.6651 H   0  0  0  0  0  0
  -28.0387  -16.1233   21.4289 H   0  0  0  0  0  0
  -27.9839  -18.4557   21.6591 H   0  0  0  0  0  0
  -29.1920  -18.8943   18.9554 H   0  0  0  0  0  0
  -30.7824  -18.0659   21.4238 H   0  0  0  0  0  0
  -26.8835  -18.1534   18.8163 H   0  0  0  0  0  0
  -26.4392  -19.4419   19.9262 H   0  0  0  0  0  0
  -25.9855  -17.8013   20.2888 H   0  0  0  0  0  0
  -31.4665  -17.6906   18.4731 H   0  0  0  0  0  0
  -32.5272  -17.3927   19.8411 H   0  0  0  0  0  0
  -32.0498  -19.0257   19.4706 H   0  0  0  0  0  0
  -31.7652  -22.5372   22.7932 H   0  0  0  0  0  0
  -33.0201  -23.6632   22.2900 H   0  0  0  0  0  0
  -32.8355  -22.1211   21.4601 H   0  0  0  0  0  0
  -27.0652  -24.3632   20.8904 H   0  0  0  0  0  0
  -27.3905  -24.3697   19.2076 H   0  0  0  0  0  0
  -30.8938  -24.4825   21.4201 H   0  0  0  0  0  0
  -32.2172  -23.1902   19.1746 H   0  0  0  0  0  0
  -32.8170  -24.5135   19.9296 H   0  0  0  0  0  0
  -31.3737  -24.5849   19.1669 H   0  0  0  0  0  0
  1 25  1  0  0  0
  1 30  2  0  0  0
  1 85  1  0  0  0
  2  3  1  0  0  0
  2 25  1  0  0  0
  2 87  1  0  0  0
  2 88  1  0  0  0
  3  4  1  0  0  0
  3 89  1  0  0  0
  3 90  1  0  0  0
  4  5  1  0  0  0
  4 91  1  0  0  0
  4 92  1  0  0  0
  5  6  1  0  0  0
  5 26  1  0  0  0
  5 93  1  0  0  0
  6 25  1  0  0  0
  6 94  1  0  0  0
  6 95  1  0  0  0
  7  8  2  0  0  0
  7 26  1  0  0  0
  7 29  1  0  0  0
  8  9  1  0  0  0
  8 22  1  0  0  0
  9 10  1  0  0  0
  9 27  2  0  0  0
 10 11  2  0  0  0
 10 15  1  0  0  0
 11 12  1  0  0  0
 11 96  1  0  0  0
 12 13  2  0  0  0
 12 97  1  0  0  0
 13 14  1  0  0  0
 13 31  1  0  0  0
 14 15  2  0  0  0
 14 98  1  0  0  0
 15 99  1  0  0  0
 16 17  2  0  0  0
 16 21  1  0  0  0
 16 31  1  0  0  0
 17 18  1  0  0  0
 17100  1  0  0  0
 18 19  2  0  0  0
 18101  1  0  0  0
 19 20  1  0  0  0
 19 24  1  0  0  0
 20 21  2  0  0  0
 20102  1  0  0  0
 21 23  1  0  0  0
 22 28  1  0  0  0
 22 32  2  0  0  0
 26 27  1  0  0  0
 28103  1  0  0  0
 28104  1  0  0  0
 29105  1  0  0  0
 29106  1  0  0  0
 33 34  1  0  0  0
 33 66  1  0  0  0
 33 70  2  0  0  0
 34 36  1  0  0  0
 34 59  1  0  0  0
 34107  1  0  0  0
 35 44  2  0  0  0
 35 45  1  0  0  0
 35 68  1  0  0  0
 36 56  1  0  0  0
 36108  1  0  0  0
 37 39  1  0  0  0
 37 47  1  0  0  0
 37 66  1  0  0  0
 37109  1  0  0  0
 38 43  2  0  0  0
 38 46  1  0  0  0
 38 47  1  0  0  0
 39 64  1  0  0  0
 39 67  2  0  0  0
 40 52  1  0  0  0
 40 53  2  0  0  0
 40 58  1  0  0  0
 41110  1  0  0  0
 41111  1  0  0  0
 41112  1  0  0  0
 41 48  1  0  0  0
 42 43  1  0  0  0
 42 66  1  0  0  0
 42113  1  0  0  0
 42114  1  0  0  0
 43 44  1  0  0  0
 44115  1  0  0  0
 45 46  2  0  0  0
 45116  1  0  0  0
 46117  1  0  0  0
 47118  1  0  0  0
 47119  1  0  0  0
 48 56  1  0  0  0
 48 65  1  0  0  0
 48120  1  0  0  0
 49 50  1  0  0  0
 49 53  1  0  0  0
 49 64  1  0  0  0
 49121  1  0  0  0
 50 51  1  0  0  0
 50122  1  0  0  0
 50123  1  0  0  0
 51 52  1  0  0  0
 51124  1  0  0  0
 51125  1  0  0  0
 52126  1  0  0  0
 52127  1  0  0  0
 53 54  1  0  0  0
 54 55  2  0  0  0
 54128  1  0  0  0
 55 57  1  0  0  0
 55129  1  0  0  0
 56 69  2  0  0  0
 57 58  2  0  0  0
 57130  1  0  0  0
 58131  1  0  0  0
 59 60  1  0  0  0
 59 61  1  0  0  0
 59 62  1  0  0  0
 60132  1  0  0  0
 60133  1  0  0  0
 60134  1  0  0  0
 61135  1  0  0  0
 61136  1  0  0  0
 61137  1  0  0  0
 62138  1  0  0  0
 62139  1  0  0  0
 62140  1  0  0  0
 63 65  1  0  0  0
 63141  1  0  0  0
 63142  1  0  0  0
 63143  1  0  0  0
 64144  1  0  0  0
 65145  1  0  0  0
 68 81  1  0  0  0
 71 72  2  0  0  0
 71 84  1  0  0  0
 71146  1  0  0  0
 72 73  1  0  0  0
 72 81  1  0  0  0
 73 82  1  0  0  0
 73 83  2  0  0  0
 74 75  1  0  0  0
 74 85  1  0  0  0
 74147  1  0  0  0
 74148  1  0  0  0
 75 76  1  0  0  0
 75 78  1  0  0  0
 75149  1  0  0  0
 76 77  1  0  0  0
 76 84  1  0  0  0
 76150  1  0  0  0
 77 79  1  0  0  0
 77 85  1  0  0  0
 77151  1  0  0  0
 78152  1  0  0  0
 78153  1  0  0  0
 78154  1  0  0  0
 79155  1  0  0  0
 79156  1  0  0  0
 79157  1  0  0  0
 80158  1  0  0  0
 80159  1  0  0  0
 80160  1  0  0  0
 80 82  1  0  0  0
 81161  1  0  0  0
 81162  1  0  0  0
 82 86  1  0  0  0
 82163  1  0  0  0
 83 84  1  0  0  0
 86164  1  0  0  0
 86165  1  0  0  0
 86166  1  0  0  0
M  CHG  1  86   1
M  ISO  4   1 100  68 101  81 101  85 100
M  END
> <chiral flag>
0

> <version>
0

> <s_m_source_file>
/data/baiqing/PycharmProjects/Reinvent-master-3.2/result/LINK_invent/BTK/process_docking_weight1_custom_sum_contain_oxygen_bond_distance_aromatic_linkinvent_7_9_3/rearranged_h_0176.sdf

> <i_m_source_file_index>
49

> <r_mmod_Potential_Energy-OPLS-2005>
607.286865234375

> <r_mmod_Stretch_Energy-OPLS-2005>
335.120880126953

> <r_mmod_Bend_Energy-OPLS-2005>
369.105895996094

> <r_mmod_Torsional_Energy-OPLS-2005>
336.966522216797

> <r_mmod_Improper_Torsional_Energy-OPLS-2005>
6.2239146232605

> <r_mmod_Van_der_Waal_Energy-OPLS-2005>
107.621627807617

> <r_mmod_Electrostatic_Energy-OPLS-2005>
-349.563293457031

> <r_mmod_Solvation_Energy-OPLS-2005>
-467.321350097656

> <b_mmod_Minimization_Converged-OPLS-2005>
0

> <r_mmod_RMS_Derivative-OPLS-2005>
6.20470905303955

$$$$
49
                    3D
 Structure written by MMmdl.
153161  0  0  1  0            999 V2000
  -30.5739  -14.8276   20.4437 C   0  0  0  0  0  0
  -30.4402  -12.5060   19.4891 C   0  0  0  0  0  0
  -29.5188  -12.5215   18.2474 C   0  0  0  0  0  0
  -28.0461  -12.3308   18.6589 C   0  0  0  0  0  0
  -27.6405  -13.2381   19.8505 C   0  0  2  0  0  0
  -28.6837  -13.2000   20.9891 C   0  0  0  0  0  0
  -25.2506  -13.8205   20.5701 C   0  0  0  0  0  0
  -24.1803  -13.0442   20.9213 C   0  0  0  0  0  0
  -24.6402  -11.6925   20.8749 C   0  0  0  0  0  0
  -23.9079  -10.4299   21.0407 C   0  0  0  0  0  0
  -24.3628   -9.4212   21.9183 C   0  0  0  0  0  0
  -23.6300   -8.2245   22.0753 C   0  0  0  0  0  0
  -22.4280   -8.0284   21.3545 C   0  0  0  0  0  0
  -21.9920   -9.0259   20.4644 C   0  0  0  0  0  0
  -22.7251  -10.2137   20.3056 C   0  0  0  0  0  0
  -21.6854   -6.0738   22.5279 C   0  0  0  0  0  0
  -21.4016   -6.5642   23.8212 C   0  0  0  0  0  0
  -21.3660   -5.6794   24.9173 C   0  0  0  0  0  0
  -21.6043   -4.3056   24.7225 C   0  0  0  0  0  0
  -21.8819   -3.8147   23.4346 C   0  0  0  0  0  0
  -21.9195   -4.6966   22.3403 C   0  0  0  0  0  0
  -22.7825  -13.5220   21.1867 C   0  0  0  0  0  0
  -22.1666   -4.2153   21.0982 F   0  0  0  0  0  0
  -21.5628   -3.4538   25.7737 F   0  0  0  0  0  0
  -29.9785  -13.5783   20.4078 N   0  0  0  0  0  0
  -26.2935  -12.9422   20.3278 N   0  0  0  0  0  0
  -25.9334  -11.6560   20.5745 N   0  0  0  0  0  0
  -22.0474  -12.8209   22.0422 N   0  0  0  0  0  0
  -25.4197  -15.1929   20.4119 N   0  0  0  0  0  0
  -31.7572  -14.9339   20.1076 O   0  0  0  0  0  0
  -21.6642   -6.8880   21.4240 O   0  0  0  0  0  0
  -22.3513  -14.5528   20.6713 O   0  0  0  0  0  0
  -24.6374  -31.8494   23.1933 C   0  0  0  0  0  0
  -25.9174  -32.4720   23.8301 C   0  0  1  0  0  0
  -27.2202  -27.1981   20.1379 C   0  0  0  0  0  0
  -25.5951  -33.8527   24.2223 N   0  0  0  0  0  0
  -23.4380  -30.4704   21.5373 C   0  0  2  0  0  0
  -24.8876  -28.9098   20.1072 C   0  0  0  0  0  0
  -22.7537  -29.4570   22.4879 C   0  0  0  0  0  0
  -18.0299  -28.1390   22.8480 C   0  0  0  0  0  0
  -24.1495  -36.7269   23.2640 C   0  0  0  0  0  0
  -25.9892  -30.7415   21.3848 C   0  0  0  0  0  0
  -26.0612  -29.3591   20.7254 C   0  0  0  0  0  0
  -27.2281  -28.5167   20.7290 C   0  0  0  0  0  0
  -26.0244  -26.8411   19.4737 C   0  0  0  0  0  0
  -24.8787  -27.6617   19.4679 C   0  0  0  0  0  0
  -23.6608  -29.8035   20.1544 C   0  0  0  0  0  0
  -25.4124  -36.3048   24.0320 C   0  0  1  0  0  0
  -20.5909  -28.3709   23.1251 C   0  0  2  0  0  0
  -20.6786  -26.9418   22.5407 C   0  0  0  0  0  0
  -19.5761  -26.6379   21.5213 C   0  0  0  0  0  0
  -18.1940  -26.7932   22.1622 C   0  0  0  0  0  0
  -19.1554  -28.8868   23.2859 C   0  0  0  0  0  0
  -18.9471  -30.1468   23.8878 C   0  0  0  0  0  0
  -17.6467  -30.6588   24.0559 C   0  0  0  0  0  0
  -25.9067  -34.9421   23.5075 C   0  0  0  0  0  0
  -16.5359  -29.9079   23.6335 C   0  0  0  0  0  0
  -16.7285  -28.6500   23.0352 C   0  0  0  0  0  0
  -26.4522  -31.6566   25.0717 C   0  0  0  0  0  0
  -25.3727  -31.3732   26.1424 C   0  0  0  0  0  0
  -27.0383  -30.2970   24.6260 C   0  0  0  0  0  0
  -27.6058  -32.4324   25.7501 C   0  0  0  0  0  0
  -27.5579  -37.1793   24.8465 C   0  0  0  0  0  0
  -21.4235  -29.3046   22.3629 N   0  0  0  0  0  0
  -26.4292  -37.3753   23.9404 N   0  0  0  0  0  0
  -24.7074  -31.0402   22.0940 N   0  0  0  0  0  0
  -23.4207  -28.8113   23.3005 O   0  0  0  0  0  0
  -28.2884  -26.2497   20.2232 O   0  0  0  0  0  0
  -26.5642  -34.8906   22.4647 O   0  0  0  0  0  0
  -23.5508  -32.1345   23.7190 O   0  0  0  0  0  0
  -29.1577  -20.6902   20.0539 C   0  0  0  0  0  0
  -28.9260  -19.6135   19.0091 C   0  0  0  0  0  0
  -28.7992  -22.0288   19.7671 C   0  0  0  0  0  0
  -29.9242  -20.0786   21.2640 C   0  0  0  0  0  0
  -28.9166  -18.0664   19.3335 C   0  0  0  0  0  0
  -29.8191  -18.4950   21.5568 C   0  0  0  0  0  0
  -29.9638  -17.4840   20.3488 C   0  0  1  0  0  0
  -28.9881  -23.4889   20.4337 C   0  0  0  0  0  0
  -28.0470  -24.7615   19.9460 C   0  0  0  0  0  0
  -29.7735  -15.9614   20.6453 N   0  0  0  0  0  0
  -28.7121  -19.9135   17.8303 O   0  0  0  0  0  0
  -31.4791  -12.6453   19.1859 H   0  0  0  0  0  0
  -30.4037  -11.5355   19.9859 H   0  0  0  0  0  0
  -29.8151  -11.7411   17.5450 H   0  0  0  0  0  0
  -29.6324  -13.4692   17.7183 H   0  0  0  0  0  0
  -27.9134  -11.2829   18.9303 H   0  0  0  0  0  0
  -27.3891  -12.5085   17.8069 H   0  0  0  0  0  0
  -27.6257  -14.2546   19.4563 H   0  0  0  0  0  0
  -28.7366  -12.2067   21.4370 H   0  0  0  0  0  0
  -28.4039  -13.8830   21.7927 H   0  0  0  0  0  0
  -25.2776   -9.5686   22.4753 H   0  0  0  0  0  0
  -24.0012   -7.4634   22.7471 H   0  0  0  0  0  0
  -21.0854   -8.8777   19.8949 H   0  0  0  0  0  0
  -22.3711  -10.9675   19.6164 H   0  0  0  0  0  0
  -21.2009   -7.6150   23.9718 H   0  0  0  0  0  0
  -21.1485   -6.0523   25.9076 H   0  0  0  0  0  0
  -22.0598   -2.7609   23.2844 H   0  0  0  0  0  0
  -22.4105  -11.9884   22.4822 H   0  0  0  0  0  0
  -21.1086  -13.1218   22.2616 H   0  0  0  0  0  0
  -24.6486  -15.8435   20.5169 H   0  0  0  0  0  0
  -26.2586  -15.6296   20.0539 H   0  0  0  0  0  0
  -26.7239  -32.5350   23.1032 H   0  0  0  0  0  0
  -25.0094  -33.9655   25.0367 H   0  0  0  0  0  0
  -22.7376  -31.2946   21.3875 H   0  0  0  0  0  0
  -23.3757  -35.9601   23.3298 H   0  0  0  0  0  0
  -24.3579  -36.8902   22.2055 H   0  0  0  0  0  0
  -23.7251  -37.6467   23.6676 H   0  0  0  0  0  0
  -26.1396  -31.5000   20.6153 H   0  0  0  0  0  0
  -26.8618  -30.7889   22.0246 H   0  0  0  0  0  0
  -28.1210  -28.8529   21.2375 H   0  0  0  0  0  0
  -25.9397  -25.8922   18.9659 H   0  0  0  0  0  0
  -23.9840  -27.3153   18.9689 H   0  0  0  0  0  0
  -23.7902  -30.5796   19.3992 H   0  0  0  0  0  0
  -22.7777  -29.2408   19.8465 H   0  0  0  0  0  0
  -25.1310  -36.1884   25.0812 H   0  0  0  0  0  0
  -21.0003  -28.3294   24.1372 H   0  0  0  0  0  0
  -20.5681  -26.2319   23.3618 H   0  0  0  0  0  0
  -21.6651  -26.7429   22.1203 H   0  0  0  0  0  0
  -19.6918  -25.6286   21.1253 H   0  0  0  0  0  0
  -19.6699  -27.3180   20.6737 H   0  0  0  0  0  0
  -17.4210  -26.6678   21.4025 H   0  0  0  0  0  0
  -18.0336  -26.0078   22.9021 H   0  0  0  0  0  0
  -19.7945  -30.7292   24.2235 H   0  0  0  0  0  0
  -17.5018  -31.6265   24.5164 H   0  0  0  0  0  0
  -15.5358  -30.2971   23.7673 H   0  0  0  0  0  0
  -15.8687  -28.0815   22.7069 H   0  0  0  0  0  0
  -24.5906  -30.7082   25.7742 H   0  0  0  0  0  0
  -24.8918  -32.2908   26.4824 H   0  0  0  0  0  0
  -25.8029  -30.8918   27.0214 H   0  0  0  0  0  0
  -26.2987  -29.6693   24.1275 H   0  0  0  0  0  0
  -27.4023  -29.7263   25.4815 H   0  0  0  0  0  0
  -27.8885  -30.4217   23.9549 H   0  0  0  0  0  0
  -27.2650  -33.3631   26.2048 H   0  0  0  0  0  0
  -28.3886  -32.6873   25.0345 H   0  0  0  0  0  0
  -28.0708  -31.8471   26.5442 H   0  0  0  0  0  0
  -28.2591  -38.0093   24.7506 H   0  0  0  0  0  0
  -28.1081  -36.2622   24.6302 H   0  0  0  0  0  0
  -27.2295  -37.1452   25.8868 H   0  0  0  0  0  0
  -20.9430  -29.8765   21.6823 H   0  0  0  0  0  0
  -26.0165  -38.2825   24.1399 H   0  0  0  0  0  0
  -28.3265  -22.1569   18.8032 H   0  0  0  0  0  0
  -29.6402  -20.6321   22.1595 H   0  0  0  0  0  0
  -30.9758  -20.3143   21.0984 H   0  0  0  0  0  0
  -29.0163  -17.5317   18.3886 H   0  0  0  0  0  0
  -27.9143  -17.8388   19.6957 H   0  0  0  0  0  0
  -28.8536  -18.3137   22.0318 H   0  0  0  0  0  0
  -30.5585  -18.2389   22.3170 H   0  0  0  0  0  0
  -30.9600  -17.6062   19.9201 H   0  0  0  0  0  0
  -30.0211  -23.7665   20.2219 H   0  0  0  0  0  0
  -28.9339  -23.3828   21.5174 H   0  0  0  0  0  0
  -27.0511  -24.5229   20.3204 H   0  0  0  0  0  0
  -27.9738  -24.6878   18.8606 H   0  0  0  0  0  0
  -28.8390  -15.7173   20.9383 H   0  0  0  0  0  0
  1 25  1  0  0  0
  1 30  2  0  0  0
  1 80  1  0  0  0
  2  3  1  0  0  0
  2 25  1  0  0  0
  2 82  1  0  0  0
  2 83  1  0  0  0
  3  4  1  0  0  0
  3 84  1  0  0  0
  3 85  1  0  0  0
  4  5  1  0  0  0
  4 86  1  0  0  0
  4 87  1  0  0  0
  5  6  1  0  0  0
  5 26  1  0  0  0
  5 88  1  0  0  0
  6 25  1  0  0  0
  6 89  1  0  0  0
  6 90  1  0  0  0
  7  8  2  0  0  0
  7 26  1  0  0  0
  7 29  1  0  0  0
  8  9  1  0  0  0
  8 22  1  0  0  0
  9 10  1  0  0  0
  9 27  2  0  0  0
 10 11  2  0  0  0
 10 15  1  0  0  0
 11 12  1  0  0  0
 11 91  1  0  0  0
 12 13  2  0  0  0
 12 92  1  0  0  0
 13 14  1  0  0  0
 13 31  1  0  0  0
 14 15  2  0  0  0
 14 93  1  0  0  0
 15 94  1  0  0  0
 16 17  2  0  0  0
 16 21  1  0  0  0
 16 31  1  0  0  0
 17 18  1  0  0  0
 17 95  1  0  0  0
 18 19  2  0  0  0
 18 96  1  0  0  0
 19 20  1  0  0  0
 19 24  1  0  0  0
 20 21  2  0  0  0
 20 97  1  0  0  0
 21 23  1  0  0  0
 22 28  1  0  0  0
 22 32  2  0  0  0
 26 27  1  0  0  0
 28 98  1  0  0  0
 28 99  1  0  0  0
 29100  1  0  0  0
 29101  1  0  0  0
 33 34  1  0  0  0
 33 66  1  0  0  0
 33 70  2  0  0  0
 34 36  1  0  0  0
 34 59  1  0  0  0
 34102  1  0  0  0
 35 44  2  0  0  0
 35 45  1  0  0  0
 35 68  1  0  0  0
 36 56  1  0  0  0
 36103  1  0  0  0
 37 39  1  0  0  0
 37 47  1  0  0  0
 37 66  1  0  0  0
 37104  1  0  0  0
 38 43  2  0  0  0
 38 46  1  0  0  0
 38 47  1  0  0  0
 39 64  1  0  0  0
 39 67  2  0  0  0
 40 52  1  0  0  0
 40 53  2  0  0  0
 40 58  1  0  0  0
 41105  1  0  0  0
 41106  1  0  0  0
 41107  1  0  0  0
 41 48  1  0  0  0
 42 43  1  0  0  0
 42 66  1  0  0  0
 42108  1  0  0  0
 42109  1  0  0  0
 43 44  1  0  0  0
 44110  1  0  0  0
 45 46  2  0  0  0
 45111  1  0  0  0
 46112  1  0  0  0
 47113  1  0  0  0
 47114  1  0  0  0
 48 56  1  0  0  0
 48 65  1  0  0  0
 48115  1  0  0  0
 49 50  1  0  0  0
 49 53  1  0  0  0
 49 64  1  0  0  0
 49116  1  0  0  0
 50 51  1  0  0  0
 50117  1  0  0  0
 50118  1  0  0  0
 51 52  1  0  0  0
 51119  1  0  0  0
 51120  1  0  0  0
 52121  1  0  0  0
 52122  1  0  0  0
 53 54  1  0  0  0
 54 55  2  0  0  0
 54123  1  0  0  0
 55 57  1  0  0  0
 55124  1  0  0  0
 56 69  2  0  0  0
 57 58  2  0  0  0
 57125  1  0  0  0
 58126  1  0  0  0
 59 60  1  0  0  0
 59 61  1  0  0  0
 59 62  1  0  0  0
 60127  1  0  0  0
 60128  1  0  0  0
 60129  1  0  0  0
 61130  1  0  0  0
 61131  1  0  0  0
 61132  1  0  0  0
 62133  1  0  0  0
 62134  1  0  0  0
 62135  1  0  0  0
 63 65  1  0  0  0
 63136  1  0  0  0
 63137  1  0  0  0
 63138  1  0  0  0
 64139  1  0  0  0
 65140  1  0  0  0
 68 79  1  0  0  0
 71 72  1  0  0  0
 71 73  2  0  0  0
 71 74  1  0  0  0
 72 75  1  0  0  0
 72 81  2  0  0  0
 73 78  1  0  0  0
 73141  1  0  0  0
 74 76  1  0  0  0
 74142  1  0  0  0
 74143  1  0  0  0
 75 77  1  0  0  0
 75144  1  0  0  0
 75145  1  0  0  0
 76 77  1  0  0  0
 76146  1  0  0  0
 76147  1  0  0  0
 77 80  1  0  0  0
 77148  1  0  0  0
 78 79  1  0  0  0
 78149  1  0  0  0
 78150  1  0  0  0
 79151  1  0  0  0
 79152  1  0  0  0
 80153  1  0  0  0
M  ISO  4   1 100  68 101  79 101  80 100
M  END
> <chiral flag>
0

> <version>
0

> <s_m_source_file>
/data/baiqing/PycharmProjects/Reinvent-master-3.2/result/LINK_invent/BTK/process_docking_weight1_custom_sum_contain_oxygen_bond_distance_aromatic_linkinvent_7_9_3/rearranged_h_0176.sdf

> <i_m_source_file_index>
50

> <r_mmod_Potential_Energy-OPLS-2005>
307.887268066406

> <r_mmod_Stretch_Energy-OPLS-2005>
170.521011352539

> <r_mmod_Bend_Energy-OPLS-2005>
215.842269897461

> <r_mmod_Torsional_Energy-OPLS-2005>
212.740112304688

> <r_mmod_Improper_Torsional_Energy-OPLS-2005>
5.30517339706421

> <r_mmod_Van_der_Waal_Energy-OPLS-2005>
125.577331542969

> <r_mmod_Electrostatic_Energy-OPLS-2005>
-329.562652587891

> <r_mmod_Solvation_Energy-OPLS-2005>
-221.099273681641

> <b_mmod_Minimization_Converged-OPLS-2005>
0

> <r_mmod_RMS_Derivative-OPLS-2005>
0.607621431350708

$$$$
50
                    3D
 Structure written by MMmdl.
153162  0  0  1  0            999 V2000
  -30.3019  -15.6085   20.3334 C   0  0  0  0  0  0
  -30.4391  -13.0657   19.5234 C   0  0  0  0  0  0
  -29.5446  -12.6326   18.3249 C   0  0  0  0  0  0
  -28.1274  -12.2681   18.7879 C   0  0  0  0  0  0
  -27.6023  -13.2927   19.8161 C   0  0  2  0  0  0
  -28.6237  -13.6133   20.9336 C   0  0  0  0  0  0
  -25.2347  -13.8264   20.5785 C   0  0  0  0  0  0
  -24.1720  -13.0440   20.9285 C   0  0  0  0  0  0
  -24.6395  -11.6945   20.8782 C   0  0  0  0  0  0
  -23.9098  -10.4292   21.0414 C   0  0  0  0  0  0
  -24.3632   -9.4210   21.9191 C   0  0  0  0  0  0
  -23.6295   -8.2250   22.0754 C   0  0  0  0  0  0
  -22.4280   -8.0285   21.3538 C   0  0  0  0  0  0
  -21.9931   -9.0267   20.4649 C   0  0  0  0  0  0
  -22.7265  -10.2140   20.3065 C   0  0  0  0  0  0
  -21.6859   -6.0730   22.5271 C   0  0  0  0  0  0
  -21.4017   -6.5632   23.8200 C   0  0  0  0  0  0
  -21.3655   -5.6785   24.9166 C   0  0  0  0  0  0
  -21.6048   -4.3051   24.7219 C   0  0  0  0  0  0
  -21.8815   -3.8148   23.4339 C   0  0  0  0  0  0
  -21.9191   -4.6960   22.3394 C   0  0  0  0  0  0
  -22.7726  -13.5193   21.1911 C   0  0  0  0  0  0
  -22.1654   -4.2140   21.0970 F   0  0  0  0  0  0
  -21.5630   -3.4538   25.7737 F   0  0  0  0  0  0
  -29.8023  -14.2336   20.2847 N   0  0  0  0  0  0
  -26.2795  -12.9561   20.3253 N   0  0  0  0  0  0
  -25.9343  -11.6647   20.5745 N   0  0  0  0  0  0
  -22.0369  -12.8181   22.0462 N   0  0  0  0  0  0
  -25.4010  -15.1999   20.4221 N   0  0  0  0  0  0
  -31.5332  -15.5732   20.1442 O   0  0  0  0  0  0
  -21.6634   -6.8888   21.4237 O   0  0  0  0  0  0
  -22.3423  -14.5487   20.6742 O   0  0  0  0  0  0
  -24.6856  -31.7948   23.1494 C   0  0  0  0  0  0
  -25.9425  -32.4452   23.8039 C   0  0  1  0  0  0
  -27.2270  -26.6932   20.2152 C   0  0  0  0  0  0
  -25.6010  -33.8272   24.1947 N   0  0  0  0  0  0
  -23.5122  -30.3996   21.5002 C   0  0  2  0  0  0
  -24.9692  -28.7386   20.1120 C   0  0  0  0  0  0
  -22.7755  -29.4306   22.4657 C   0  0  0  0  0  0
  -18.0340  -28.1463   22.8475 C   0  0  0  0  0  0
  -24.1460  -36.7129   23.2641 C   0  0  0  0  0  0
  -26.0918  -30.5285   21.4088 C   0  0  0  0  0  0
  -26.1568  -29.0903   20.7654 C   0  0  0  0  0  0
  -27.2674  -28.0936   20.7906 C   0  0  0  0  0  0
  -26.0106  -26.5569   19.4937 C   0  0  0  0  0  0
  -24.9354  -27.4977   19.4506 C   0  0  0  0  0  0
  -23.7673  -29.6972   20.1347 C   0  0  0  0  0  0
  -25.4104  -36.2854   24.0271 C   0  0  1  0  0  0
  -20.5988  -28.3800   23.1147 C   0  0  2  0  0  0
  -20.6815  -26.9457   22.5395 C   0  0  0  0  0  0
  -19.5772  -26.6409   21.5224 C   0  0  0  0  0  0
  -18.1951  -26.7993   22.1626 C   0  0  0  0  0  0
  -19.1612  -28.8944   23.2809 C   0  0  0  0  0  0
  -18.9524  -30.1546   23.8835 C   0  0  0  0  0  0
  -17.6516  -30.6638   24.0577 C   0  0  0  0  0  0
  -25.9117  -34.9268   23.4939 C   0  0  0  0  0  0
  -16.5398  -29.9135   23.6377 C   0  0  0  0  0  0
  -16.7321  -28.6554   23.0385 C   0  0  0  0  0  0
  -26.4630  -31.6486   25.0640 C   0  0  0  0  0  0
  -25.3748  -31.3847   26.1299 C   0  0  0  0  0  0
  -27.0524  -30.2811   24.6512 C   0  0  0  0  0  0
  -27.6048  -32.4365   25.7475 C   0  0  0  0  0  0
  -27.5534  -37.1715   24.8462 C   0  0  0  0  0  0
  -21.4383  -29.3060   22.3450 N   0  0  0  0  0  0
  -26.4204  -37.3638   23.9453 N   0  0  0  0  0  0
  -24.7875  -30.9406   22.0738 N   0  0  0  0  0  0
  -23.4205  -28.7860   23.2963 O   0  0  0  0  0  0
  -28.1731  -25.4627   20.3325 O   0  0  0  0  0  0
  -26.5721  -34.8851   22.4535 O   0  0  0  0  0  0
  -23.5884  -32.0981   23.6482 O   0  0  0  0  0  0
  -28.2073  -19.4058   20.9567 C   0  0  0  0  0  0
  -27.8770  -20.8921   20.9276 C   0  0  0  0  0  0
  -28.6092  -22.0203   20.2937 C   0  0  0  0  0  0
  -29.7525  -21.1971   19.7643 C   0  0  0  0  0  0
  -29.3393  -18.6388   20.3909 C   0  0  0  0  0  0
  -32.2792  -21.6173   19.0647 C   0  0  0  0  0  0
  -31.7552  -22.8358   19.7792 C   0  0  0  0  0  0
  -30.7998  -21.9536   19.0022 C   0  0  0  0  0  0
  -26.5897  -21.2645   21.6391 C   0  0  0  0  0  0
  -27.9663  -23.7588   19.9648 C   0  0  0  0  0  0
  -30.0579  -19.7437   19.8179 N   0  0  0  0  0  0
  -29.4743  -16.9198   20.4482 N   0  0  0  0  0  0
  -31.4133  -13.3535   19.1226 H   0  0  0  0  0  0
  -30.6435  -12.2261   20.1878 H   0  0  0  0  0  0
  -29.9940  -11.7912   17.7949 H   0  0  0  0  0  0
  -29.4860  -13.4539   17.6100 H   0  0  0  0  0  0
  -28.1751  -11.2841   19.2571 H   0  0  0  0  0  0
  -27.4495  -12.1685   17.9389 H   0  0  0  0  0  0
  -27.4752  -14.2082   19.2382 H   0  0  0  0  0  0
  -28.8849  -12.7227   21.5081 H   0  0  0  0  0  0
  -28.1933  -14.3233   21.6420 H   0  0  0  0  0  0
  -25.2764   -9.5677   22.4782 H   0  0  0  0  0  0
  -23.9982   -7.4644   22.7496 H   0  0  0  0  0  0
  -21.0842   -8.8804   19.8972 H   0  0  0  0  0  0
  -22.3717  -10.9684   19.6179 H   0  0  0  0  0  0
  -21.2008   -7.6138   23.9700 H   0  0  0  0  0  0
  -21.1478   -6.0519   25.9066 H   0  0  0  0  0  0
  -22.0601   -2.7614   23.2840 H   0  0  0  0  0  0
  -22.3934  -11.9828   22.4877 H   0  0  0  0  0  0
  -21.0995  -13.1234   22.2666 H   0  0  0  0  0  0
  -24.6353  -15.8552   20.5401 H   0  0  0  0  0  0
  -26.2381  -15.6390   20.0656 H   0  0  0  0  0  0
  -26.7504  -32.4949   23.0759 H   0  0  0  0  0  0
  -25.0193  -33.9318   25.0136 H   0  0  0  0  0  0
  -22.8422  -31.2394   21.3116 H   0  0  0  0  0  0
  -23.3732  -35.9450   23.3219 H   0  0  0  0  0  0
  -24.3536  -36.8880   22.2073 H   0  0  0  0  0  0
  -23.7204  -37.6271   23.6787 H   0  0  0  0  0  0
  -26.2840  -31.2460   20.6086 H   0  0  0  0  0  0
  -26.9489  -30.6102   22.0657 H   0  0  0  0  0  0
  -28.1568  -28.3630   21.3436 H   0  0  0  0  0  0
  -25.8444  -25.6176   18.9821 H   0  0  0  0  0  0
  -24.0406  -27.2271   18.9043 H   0  0  0  0  0  0
  -23.9479  -30.4567   19.3741 H   0  0  0  0  0  0
  -22.8709  -29.1670   19.8097 H   0  0  0  0  0  0
  -25.1326  -36.1567   25.0753 H   0  0  0  0  0  0
  -21.0120  -28.3411   24.1264 H   0  0  0  0  0  0
  -20.5679  -26.2408   23.3650 H   0  0  0  0  0  0
  -21.6671  -26.7410   22.1194 H   0  0  0  0  0  0
  -19.6903  -25.6303   21.1284 H   0  0  0  0  0  0
  -19.6722  -27.3200   20.6743 H   0  0  0  0  0  0
  -17.4227  -26.6783   21.4019 H   0  0  0  0  0  0
  -18.0318  -26.0165   22.9044 H   0  0  0  0  0  0
  -19.8008  -30.7407   24.2138 H   0  0  0  0  0  0
  -17.5078  -31.6308   24.5214 H   0  0  0  0  0  0
  -15.5407  -30.3040   23.7743 H   0  0  0  0  0  0
  -15.8721  -28.0883   22.7130 H   0  0  0  0  0  0
  -24.5925  -30.7156   25.7709 H   0  0  0  0  0  0
  -24.8934  -32.3084   26.4514 H   0  0  0  0  0  0
  -25.7977  -30.9202   27.0214 H   0  0  0  0  0  0
  -26.3215  -29.6459   24.1479 H   0  0  0  0  0  0
  -27.3944  -29.7213   25.5233 H   0  0  0  0  0  0
  -27.9215  -30.3918   24.0014 H   0  0  0  0  0  0
  -27.2564  -33.3780   26.1742 H   0  0  0  0  0  0
  -28.4038  -32.6751   25.0445 H   0  0  0  0  0  0
  -28.0495  -31.8683   26.5656 H   0  0  0  0  0  0
  -28.2497  -38.0068   24.7565 H   0  0  0  0  0  0
  -28.1086  -36.2602   24.6212 H   0  0  0  0  0  0
  -27.2277  -37.1255   25.8866 H   0  0  0  0  0  0
  -20.9638  -29.8731   21.6560 H   0  0  0  0  0  0
  -25.9996  -38.2645   24.1573 H   0  0  0  0  0  0
  -27.4800  -18.7908   21.4678 H   0  0  0  0  0  0
  -32.5922  -20.7635   19.6693 H   0  0  0  0  0  0
  -32.8766  -21.7934   18.1711 H   0  0  0  0  0  0
  -31.9820  -23.8143   19.3583 H   0  0  0  0  0  0
  -31.7338  -22.7859   20.8683 H   0  0  0  0  0  0
  -30.4027  -22.3407   18.0640 H   0  0  0  0  0  0
  -26.4343  -20.6466   22.5241 H   0  0  0  0  0  0
  -25.7333  -21.1412   20.9774 H   0  0  0  0  0  0
  -26.6141  -22.2990   21.9801 H   0  0  0  0  0  0
  -26.8974  -23.6337   20.1260 H   0  0  0  0  0  0
  -28.0420  -23.7864   18.8776 H   0  0  0  0  0  0
  -28.5534  -16.5703   20.6552 H   0  0  0  0  0  0
  1 25  1  0  0  0
  1 30  2  0  0  0
  1 82  1  0  0  0
  2  3  1  0  0  0
  2 25  1  0  0  0
  2 83  1  0  0  0
  2 84  1  0  0  0
  3  4  1  0  0  0
  3 85  1  0  0  0
  3 86  1  0  0  0
  4  5  1  0  0  0
  4 87  1  0  0  0
  4 88  1  0  0  0
  5  6  1  0  0  0
  5 26  1  0  0  0
  5 89  1  0  0  0
  6 25  1  0  0  0
  6 90  1  0  0  0
  6 91  1  0  0  0
  7  8  2  0  0  0
  7 26  1  0  0  0
  7 29  1  0  0  0
  8  9  1  0  0  0
  8 22  1  0  0  0
  9 10  1  0  0  0
  9 27  2  0  0  0
 10 11  2  0  0  0
 10 15  1  0  0  0
 11 12  1  0  0  0
 11 92  1  0  0  0
 12 13  2  0  0  0
 12 93  1  0  0  0
 13 14  1  0  0  0
 13 31  1  0  0  0
 14 15  2  0  0  0
 14 94  1  0  0  0
 15 95  1  0  0  0
 16 17  2  0  0  0
 16 21  1  0  0  0
 16 31  1  0  0  0
 17 18  1  0  0  0
 17 96  1  0  0  0
 18 19  2  0  0  0
 18 97  1  0  0  0
 19 20  1  0  0  0
 19 24  1  0  0  0
 20 21  2  0  0  0
 20 98  1  0  0  0
 21 23  1  0  0  0
 22 28  1  0  0  0
 22 32  2  0  0  0
 26 27  1  0  0  0
 28 99  1  0  0  0
 28100  1  0  0  0
 29101  1  0  0  0
 29102  1  0  0  0
 33 34  1  0  0  0
 33 66  1  0  0  0
 33 70  2  0  0  0
 34 36  1  0  0  0
 34 59  1  0  0  0
 34103  1  0  0  0
 35 44  2  0  0  0
 35 45  1  0  0  0
 35 68  1  0  0  0
 36 56  1  0  0  0
 36104  1  0  0  0
 37 39  1  0  0  0
 37 47  1  0  0  0
 37 66  1  0  0  0
 37105  1  0  0  0
 38 43  2  0  0  0
 38 46  1  0  0  0
 38 47  1  0  0  0
 39 64  1  0  0  0
 39 67  2  0  0  0
 40 52  1  0  0  0
 40 53  2  0  0  0
 40 58  1  0  0  0
 41106  1  0  0  0
 41107  1  0  0  0
 41108  1  0  0  0
 41 48  1  0  0  0
 42 43  1  0  0  0
 42 66  1  0  0  0
 42109  1  0  0  0
 42110  1  0  0  0
 43 44  1  0  0  0
 44111  1  0  0  0
 45 46  2  0  0  0
 45112  1  0  0  0
 46113  1  0  0  0
 47114  1  0  0  0
 47115  1  0  0  0
 48 56  1  0  0  0
 48 65  1  0  0  0
 48116  1  0  0  0
 49 50  1  0  0  0
 49 53  1  0  0  0
 49 64  1  0  0  0
 49117  1  0  0  0
 50 51  1  0  0  0
 50118  1  0  0  0
 50119  1  0  0  0
 51 52  1  0  0  0
 51120  1  0  0  0
 51121  1  0  0  0
 52122  1  0  0  0
 52123  1  0  0  0
 53 54  1  0  0  0
 54 55  2  0  0  0
 54124  1  0  0  0
 55 57  1  0  0  0
 55125  1  0  0  0
 56 69  2  0  0  0
 57 58  2  0  0  0
 57126  1  0  0  0
 58127  1  0  0  0
 59 60  1  0  0  0
 59 61  1  0  0  0
 59 62  1  0  0  0
 60128  1  0  0  0
 60129  1  0  0  0
 60130  1  0  0  0
 61131  1  0  0  0
 61132  1  0  0  0
 61133  1  0  0  0
 62134  1  0  0  0
 62135  1  0  0  0
 62136  1  0  0  0
 63 65  1  0  0  0
 63137  1  0  0  0
 63138  1  0  0  0
 63139  1  0  0  0
 64140  1  0  0  0
 65141  1  0  0  0
 68 80  1  0  0  0
 71 72  2  0  0  0
 71 75  1  0  0  0
 71142  1  0  0  0
 72 73  1  0  0  0
 72 79  1  0  0  0
 73 74  2  0  0  0
 73 80  1  0  0  0
 74 81  1  0  0  0
 74 78  1  0  0  0
 75 81  2  0  0  0
 75 82  1  0  0  0
 76 77  1  0  0  0
 76 78  1  0  0  0
 76143  1  0  0  0
 76144  1  0  0  0
 77 78  1  0  0  0
 77145  1  0  0  0
 77146  1  0  0  0
 78147  1  0  0  0
 79148  1  0  0  0
 79149  1  0  0  0
 79150  1  0  0  0
 80151  1  0  0  0
 80152  1  0  0  0
 82153  1  0  0  0
M  ISO  4   1 100  68 101  80 101  82 100
M  END
> <chiral flag>
0

> <version>
0

> <s_m_source_file>
/data/baiqing/PycharmProjects/Reinvent-master-3.2/result/LINK_invent/BTK/process_docking_weight1_custom_sum_contain_oxygen_bond_distance_aromatic_linkinvent_7_9_3/rearranged_h_0176.sdf

> <i_m_source_file_index>
51

> <r_mmod_Potential_Energy-OPLS-2005>
2193.54223632812

> <r_mmod_Stretch_Energy-OPLS-2005>
943.669494628906

> <r_mmod_Bend_Energy-OPLS-2005>
683.977233886719

> <r_mmod_Torsional_Energy-OPLS-2005>
251.118270874023

> <r_mmod_Improper_Torsional_Energy-OPLS-2005>
6.44168663024902

> <r_mmod_Van_der_Waal_Energy-OPLS-2005>
130.670486450195

> <r_mmod_Electrostatic_Energy-OPLS-2005>
-479.159484863281

> <r_mmod_Solvation_Energy-OPLS-2005>
-236.848907470703

> <b_mmod_Minimization_Converged-OPLS-2005>
0

> <r_mmod_RMS_Derivative-OPLS-2005>
3.70579051971436

$$$$
51
                    3D
 Structure written by MMmdl.
143152  0  0  1  0            999 V2000
  -30.1577  -16.0771   20.2914 C   0  0  0  0  0  0
  -30.3772  -13.4292   19.5241 C   0  0  0  0  0  0
  -29.5600  -12.7705   18.3644 C   0  0  0  0  0  0
  -28.1823  -12.3056   18.8487 C   0  0  0  0  0  0
  -27.5823  -13.3519   19.8071 C   0  0  2  0  0  0
  -28.5654  -13.8843   20.8900 C   0  0  0  0  0  0
  -25.2258  -13.8347   20.5855 C   0  0  0  0  0  0
  -24.1701  -13.0440   20.9336 C   0  0  0  0  0  0
  -24.6469  -11.6968   20.8785 C   0  0  0  0  0  0
  -23.9174  -10.4299   21.0386 C   0  0  0  0  0  0
  -24.3682   -9.4208   21.9181 C   0  0  0  0  0  0
  -23.6326   -8.2261   22.0743 C   0  0  0  0  0  0
  -22.4313   -8.0304   21.3538 C   0  0  0  0  0  0
  -21.9984   -9.0288   20.4642 C   0  0  0  0  0  0
  -22.7341  -10.2149   20.3043 C   0  0  0  0  0  0
  -21.6869   -6.0762   22.5282 C   0  0  0  0  0  0
  -21.4034   -6.5658   23.8215 C   0  0  0  0  0  0
  -21.3654   -5.6800   24.9171 C   0  0  0  0  0  0
  -21.6034   -4.3057   24.7221 C   0  0  0  0  0  0
  -21.8817   -3.8164   23.4340 C   0  0  0  0  0  0
  -21.9190   -4.6990   22.3402 C   0  0  0  0  0  0
  -22.7704  -13.5141   21.1929 C   0  0  0  0  0  0
  -22.1659   -4.2173   21.0980 F   0  0  0  0  0  0
  -21.5614   -3.4536   25.7729 F   0  0  0  0  0  0
  -29.6487  -14.6496   20.1869 N   0  0  0  0  0  0
  -26.2770  -12.9771   20.3323 N   0  0  0  0  0  0
  -25.9435  -11.6789   20.5710 N   0  0  0  0  0  0
  -22.0354  -12.8135   22.0476 N   0  0  0  0  0  0
  -25.3757  -15.2089   20.4254 N   0  0  0  0  0  0
  -31.4010  -15.8816   20.2237 O   0  0  0  0  0  0
  -21.6647   -6.8920   21.4253 O   0  0  0  0  0  0
  -22.3383  -14.5436   20.6737 O   0  0  0  0  0  0
  -24.7109  -31.7646   23.1292 C   0  0  0  0  0  0
  -25.9543  -32.4297   23.7945 C   0  0  1  0  0  0
  -27.2277  -26.3965   20.2419 C   0  0  0  0  0  0
  -25.5979  -33.8143   24.1797 N   0  0  0  0  0  0
  -23.5497  -30.3546   21.4891 C   0  0  2  0  0  0
  -25.0073  -28.6303   20.1284 C   0  0  0  0  0  0
  -22.7886  -29.4134   22.4634 C   0  0  0  0  0  0
  -18.0349  -28.1433   22.8440 C   0  0  0  0  0  0
  -24.1519  -36.7122   23.2722 C   0  0  0  0  0  0
  -26.1410  -30.3960   21.4395 C   0  0  0  0  0  0
  -26.1984  -28.9261   20.7990 C   0  0  0  0  0  0
  -27.2770  -27.8466   20.8157 C   0  0  0  0  0  0
  -26.0035  -26.3919   19.5018 C   0  0  0  0  0  0
  -24.9669  -27.3932   19.4562 C   0  0  0  0  0  0
  -23.8193  -29.6243   20.1374 C   0  0  0  0  0  0
  -25.4216  -36.2828   24.0262 C   0  0  1  0  0  0
  -20.5997  -28.3804   23.1090 C   0  0  2  0  0  0
  -20.6796  -26.9429   22.5419 C   0  0  0  0  0  0
  -19.5784  -26.6356   21.5219 C   0  0  0  0  0  0
  -18.1968  -26.7954   22.1612 C   0  0  0  0  0  0
  -19.1620  -28.8947   23.2741 C   0  0  0  0  0  0
  -18.9520  -30.1523   23.8800 C   0  0  0  0  0  0
  -17.6507  -30.6605   24.0537 C   0  0  0  0  0  0
  -25.9131  -34.9187   23.4888 C   0  0  0  0  0  0
  -16.5391  -29.9077   23.6352 C   0  0  0  0  0  0
  -16.7328  -28.6503   23.0373 C   0  0  0  0  0  0
  -26.4634  -31.6464   25.0687 C   0  0  0  0  0  0
  -25.3605  -31.3776   26.1209 C   0  0  0  0  0  0
  -27.0702  -30.2813   24.6780 C   0  0  0  0  0  0
  -27.5959  -32.4436   25.7579 C   0  0  0  0  0  0
  -27.5440  -37.1948   24.8610 C   0  0  0  0  0  0
  -21.4503  -29.2990   22.3387 N   0  0  0  0  0  0
  -26.4423  -37.3482   23.9148 N   0  0  0  0  0  0
  -24.8276  -30.8794   22.0711 N   0  0  0  0  0  0
  -23.4193  -28.7783   23.3116 O   0  0  0  0  0  0
  -28.1939  -25.0706   20.2597 O   0  0  0  0  0  0
  -26.5796  -34.8785   22.4520 O   0  0  0  0  0  0
  -23.6060  -32.0859   23.6057 O   0  0  0  0  0  0
  -26.9395  -21.1703   20.2624 C   0  0  0  0  0  0
  -27.9914  -20.1322   20.2763 C   0  0  0  0  0  0
  -29.1962  -20.7517   20.2597 C   0  0  0  0  0  0
  -28.1725  -23.3903   20.2474 C   0  0  0  0  0  0
  -28.1169  -18.4161   20.2973 C   0  0  0  0  0  0
  -30.1506  -19.2445   20.2389 C   0  0  0  0  0  0
  -27.0252  -22.6151   20.2525 N   0  0  0  0  0  0
  -29.2658  -22.3183   20.2483 N   0  0  0  0  0  0
  -29.5416  -17.6316   20.2814 N   0  0  0  0  0  0
  -31.3236  -13.7571   19.0923 H   0  0  0  0  0  0
  -30.6685  -12.6867   20.2697 H   0  0  0  0  0  0
  -30.1160  -11.9378   17.9315 H   0  0  0  0  0  0
  -29.4322  -13.5016   17.5644 H   0  0  0  0  0  0
  -28.3138  -11.3651   19.3854 H   0  0  0  0  0  0
  -27.5184  -12.0982   18.0081 H   0  0  0  0  0  0
  -27.3828  -14.2029   19.1524 H   0  0  0  0  0  0
  -28.9362  -13.0831   21.5326 H   0  0  0  0  0  0
  -28.0467  -14.5788   21.5513 H   0  0  0  0  0  0
  -25.2815   -9.5685   22.4767 H   0  0  0  0  0  0
  -24.0013   -7.4666   22.7484 H   0  0  0  0  0  0
  -21.0900   -8.8854   19.8958 H   0  0  0  0  0  0
  -22.3814  -10.9698   19.6146 H   0  0  0  0  0  0
  -21.2049   -7.6163   23.9743 H   0  0  0  0  0  0
  -21.1467   -6.0512   25.9068 H   0  0  0  0  0  0
  -22.0596   -2.7630   23.2827 H   0  0  0  0  0  0
  -22.3999  -11.9844   22.4938 H   0  0  0  0  0  0
  -21.0950  -13.1133   22.2608 H   0  0  0  0  0  0
  -24.5935  -15.8465   20.5303 H   0  0  0  0  0  0
  -26.2098  -15.6573   20.0703 H   0  0  0  0  0  0
  -26.7657  -32.4695   23.0671 H   0  0  0  0  0  0
  -25.0007  -33.9131   24.9873 H   0  0  0  0  0  0
  -22.8932  -31.2011   21.2749 H   0  0  0  0  0  0
  -23.3503  -35.9853   23.4139 H   0  0  0  0  0  0
  -24.3300  -36.7975   22.1987 H   0  0  0  0  0  0
  -23.7800  -37.6744   23.6263 H   0  0  0  0  0  0
  -26.3702  -31.0956   20.6348 H   0  0  0  0  0  0
  -26.9830  -30.4792   22.1128 H   0  0  0  0  0  0
  -28.1735  -28.0950   21.3659 H   0  0  0  0  0  0
  -25.7914  -25.4811   18.9594 H   0  0  0  0  0  0
  -24.0766  -27.1564   18.8891 H   0  0  0  0  0  0
  -24.0215  -30.3697   19.3689 H   0  0  0  0  0  0
  -22.9172  -29.1082   19.8065 H   0  0  0  0  0  0
  -25.1549  -36.1696   25.0794 H   0  0  0  0  0  0
  -21.0063  -28.3453   24.1220 H   0  0  0  0  0  0
  -20.5615  -26.2438   23.3716 H   0  0  0  0  0  0
  -21.6667  -26.7322   22.1274 H   0  0  0  0  0  0
  -19.6936  -25.6235   21.1329 H   0  0  0  0  0  0
  -19.6743  -27.3103   20.6701 H   0  0  0  0  0  0
  -17.4245  -26.6697   21.4011 H   0  0  0  0  0  0
  -18.0338  -26.0118   22.9025 H   0  0  0  0  0  0
  -19.7994  -30.7360   24.2142 H   0  0  0  0  0  0
  -17.5048  -31.6271   24.5164 H   0  0  0  0  0  0
  -15.5388  -30.2943   23.7727 H   0  0  0  0  0  0
  -15.8736  -28.0786   22.7134 H   0  0  0  0  0  0
  -24.6071  -30.6780   25.7556 H   0  0  0  0  0  0
  -24.8445  -32.2934   26.4104 H   0  0  0  0  0  0
  -25.7765  -30.9439   27.0313 H   0  0  0  0  0  0
  -26.3520  -29.6296   24.1797 H   0  0  0  0  0  0
  -27.4092  -29.7399   25.5624 H   0  0  0  0  0  0
  -27.9479  -30.3962   24.0413 H   0  0  0  0  0  0
  -27.2367  -33.3780   26.1909 H   0  0  0  0  0  0
  -28.3919  -32.6952   25.0555 H   0  0  0  0  0  0
  -28.0480  -31.8772   26.5731 H   0  0  0  0  0  0
  -28.3120  -37.9438   24.6626 H   0  0  0  0  0  0
  -28.0188  -36.2146   24.7996 H   0  0  0  0  0  0
  -27.1980  -37.3435   25.8853 H   0  0  0  0  0  0
  -20.9875  -29.8613   21.6385 H   0  0  0  0  0  0
  -26.0322  -38.2698   24.0387 H   0  0  0  0  0  0
  -25.9169  -20.8207   20.2563 H   0  0  0  0  0  0
  -27.5464  -18.0436   19.4461 H   0  0  0  0  0  0
  -27.5745  -18.0648   21.1762 H   0  0  0  0  0  0
  -30.8801  -19.3242   21.0439 H   0  0  0  0  0  0
  -30.7381  -19.2995   19.3224 H   0  0  0  0  0  0
  1 25  1  0  0  0
  1 30  2  0  0  0
  1 79  1  0  0  0
  2  3  1  0  0  0
  2 25  1  0  0  0
  2 80  1  0  0  0
  2 81  1  0  0  0
  3  4  1  0  0  0
  3 82  1  0  0  0
  3 83  1  0  0  0
  4  5  1  0  0  0
  4 84  1  0  0  0
  4 85  1  0  0  0
  5  6  1  0  0  0
  5 26  1  0  0  0
  5 86  1  0  0  0
  6 25  1  0  0  0
  6 87  1  0  0  0
  6 88  1  0  0  0
  7  8  2  0  0  0
  7 26  1  0  0  0
  7 29  1  0  0  0
  8  9  1  0  0  0
  8 22  1  0  0  0
  9 10  1  0  0  0
  9 27  2  0  0  0
 10 11  2  0  0  0
 10 15  1  0  0  0
 11 12  1  0  0  0
 11 89  1  0  0  0
 12 13  2  0  0  0
 12 90  1  0  0  0
 13 14  1  0  0  0
 13 31  1  0  0  0
 14 15  2  0  0  0
 14 91  1  0  0  0
 15 92  1  0  0  0
 16 17  2  0  0  0
 16 21  1  0  0  0
 16 31  1  0  0  0
 17 18  1  0  0  0
 17 93  1  0  0  0
 18 19  2  0  0  0
 18 94  1  0  0  0
 19 20  1  0  0  0
 19 24  1  0  0  0
 20 21  2  0  0  0
 20 95  1  0  0  0
 21 23  1  0  0  0
 22 28  1  0  0  0
 22 32  2  0  0  0
 26 27  1  0  0  0
 28 96  1  0  0  0
 28 97  1  0  0  0
 29 98  1  0  0  0
 29 99  1  0  0  0
 33 34  1  0  0  0
 33 66  1  0  0  0
 33 70  2  0  0  0
 34 36  1  0  0  0
 34 59  1  0  0  0
 34100  1  0  0  0
 35 44  2  0  0  0
 35 45  1  0  0  0
 35 68  1  0  0  0
 36 56  1  0  0  0
 36101  1  0  0  0
 37 39  1  0  0  0
 37 47  1  0  0  0
 37 66  1  0  0  0
 37102  1  0  0  0
 38 43  2  0  0  0
 38 46  1  0  0  0
 38 47  1  0  0  0
 39 64  1  0  0  0
 39 67  2  0  0  0
 40 52  1  0  0  0
 40 53  2  0  0  0
 40 58  1  0  0  0
 41103  1  0  0  0
 41104  1  0  0  0
 41105  1  0  0  0
 41 48  1  0  0  0
 42 43  1  0  0  0
 42 66  1  0  0  0
 42106  1  0  0  0
 42107  1  0  0  0
 43 44  1  0  0  0
 44108  1  0  0  0
 45 46  2  0  0  0
 45109  1  0  0  0
 46110  1  0  0  0
 47111  1  0  0  0
 47112  1  0  0  0
 48 56  1  0  0  0
 48 65  1  0  0  0
 48113  1  0  0  0
 49 50  1  0  0  0
 49 53  1  0  0  0
 49 64  1  0  0  0
 49114  1  0  0  0
 50 51  1  0  0  0
 50115  1  0  0  0
 50116  1  0  0  0
 51 52  1  0  0  0
 51117  1  0  0  0
 51118  1  0  0  0
 52119  1  0  0  0
 52120  1  0  0  0
 53 54  1  0  0  0
 54 55  2  0  0  0
 54121  1  0  0  0
 55 57  1  0  0  0
 55122  1  0  0  0
 56 69  2  0  0  0
 57 58  2  0  0  0
 57123  1  0  0  0
 58124  1  0  0  0
 59 60  1  0  0  0
 59 61  1  0  0  0
 59 62  1  0  0  0
 60125  1  0  0  0
 60126  1  0  0  0
 60127  1  0  0  0
 61128  1  0  0  0
 61129  1  0  0  0
 61130  1  0  0  0
 62131  1  0  0  0
 62132  1  0  0  0
 62133  1  0  0  0
 63 65  1  0  0  0
 63134  1  0  0  0
 63135  1  0  0  0
 63136  1  0  0  0
 64137  1  0  0  0
 65138  1  0  0  0
 68 74  1  0  0  0
 71 72  2  0  0  0
 71 77  1  0  0  0
 71139  1  0  0  0
 72 73  1  0  0  0
 72 75  1  0  0  0
 73 76  1  0  0  0
 73 78  2  0  0  0
 74 77  2  0  0  0
 74 78  1  0  0  0
 75 79  1  0  0  0
 75140  1  0  0  0
 75141  1  0  0  0
 76 79  1  0  0  0
 76142  1  0  0  0
 76143  1  0  0  0
M  ISO  4   1 100  68 101  74 101  79 100
M  END
> <chiral flag>
0

> <version>
0

> <s_m_source_file>
/data/baiqing/PycharmProjects/Reinvent-master-3.2/result/LINK_invent/BTK/process_docking_weight1_custom_sum_contain_oxygen_bond_distance_aromatic_linkinvent_7_9_3/rearranged_h_0176.sdf

> <i_m_source_file_index>
52

> <r_mmod_Potential_Energy-OPLS-2005>
3459.70068359375

> <r_mmod_Stretch_Energy-OPLS-2005>
1405.26745605469

> <r_mmod_Bend_Energy-OPLS-2005>
956.300903320312

> <r_mmod_Torsional_Energy-OPLS-2005>
242.90754699707

> <r_mmod_Improper_Torsional_Energy-OPLS-2005>
5.10469913482666

> <r_mmod_Van_der_Waal_Energy-OPLS-2005>
130.856414794922

> <r_mmod_Electrostatic_Energy-OPLS-2005>
-684.505126953125

> <r_mmod_Solvation_Energy-OPLS-2005>
-251.630645751953

> <b_mmod_Minimization_Converged-OPLS-2005>
0

> <r_mmod_RMS_Derivative-OPLS-2005>
2.59654378890991

$$$$
52
                    3D
 Structure written by MMmdl.
168178  0  0  1  0            999 V2000
  -30.6751  -14.5241   20.5191 C   0  0  0  0  0  0
  -30.4291  -12.3306   19.4155 C   0  0  0  0  0  0
  -29.4975  -12.4958   18.1987 C   0  0  0  0  0  0
  -28.0179  -12.3557   18.6118 C   0  0  0  0  0  0
  -27.6583  -13.2082   19.8607 C   0  0  2  0  0  0
  -28.7038  -13.0201   20.9821 C   0  0  0  0  0  0
  -25.2602  -13.8163   20.5654 C   0  0  0  0  0  0
  -24.1838  -13.0462   20.9182 C   0  0  0  0  0  0
  -24.6403  -11.6920   20.8759 C   0  0  0  0  0  0
  -23.9063  -10.4313   21.0396 C   0  0  0  0  0  0
  -24.3623   -9.4221   21.9167 C   0  0  0  0  0  0
  -23.6300   -8.2252   22.0740 C   0  0  0  0  0  0
  -22.4288   -8.0282   21.3528 C   0  0  0  0  0  0
  -21.9906   -9.0260   20.4637 C   0  0  0  0  0  0
  -22.7236  -10.2146   20.3050 C   0  0  0  0  0  0
  -21.6854   -6.0743   22.5272 C   0  0  0  0  0  0
  -21.4011   -6.5636   23.8212 C   0  0  0  0  0  0
  -21.3656   -5.6778   24.9165 C   0  0  0  0  0  0
  -21.6056   -4.3046   24.7201 C   0  0  0  0  0  0
  -21.8826   -3.8143   23.4319 C   0  0  0  0  0  0
  -21.9189   -4.6968   22.3387 C   0  0  0  0  0  0
  -22.7868  -13.5274   21.1815 C   0  0  0  0  0  0
  -22.1659   -4.2152   21.0963 F   0  0  0  0  0  0
  -21.5636   -3.4531   25.7713 F   0  0  0  0  0  0
  -30.0257  -13.3317   20.4159 N   0  0  0  0  0  0
  -26.3019  -12.9327   20.3311 N   0  0  0  0  0  0
  -25.9319  -11.6502   20.5744 N   0  0  0  0  0  0
  -22.0472  -12.8331   22.0393 N   0  0  0  0  0  0
  -25.4359  -15.1877   20.4033 N   0  0  0  0  0  0
  -31.8255  -14.6925   20.1080 O   0  0  0  0  0  0
  -21.6634   -6.8880   21.4233 O   0  0  0  0  0  0
  -22.3583  -14.5567   20.6602 O   0  0  0  0  0  0
  -24.6227  -31.8686   23.2106 C   0  0  0  0  0  0
  -25.9099  -32.4834   23.8419 C   0  0  1  0  0  0
  -27.2134  -27.3813   20.1000 C   0  0  0  0  0  0
  -25.5927  -33.8625   24.2351 N   0  0  0  0  0  0
  -23.4116  -30.4994   21.5509 C   0  0  2  0  0  0
  -24.8530  -28.9673   20.1116 C   0  0  0  0  0  0
  -22.7464  -29.4693   22.4934 C   0  0  0  0  0  0
  -18.0294  -28.1389   22.8498 C   0  0  0  0  0  0
  -24.1480  -36.7304   23.2641 C   0  0  0  0  0  0
  -25.9497  -30.8211   21.3707 C   0  0  0  0  0  0
  -26.0210  -29.4544   20.7114 C   0  0  0  0  0  0
  -27.2060  -28.6710   20.6975 C   0  0  0  0  0  0
  -26.0189  -26.9328   19.4861 C   0  0  0  0  0  0
  -24.8493  -27.7089   19.4953 C   0  0  0  0  0  0
  -23.6242  -29.8460   20.1613 C   0  0  0  0  0  0
  -25.4099  -36.3103   24.0350 C   0  0  1  0  0  0
  -20.5894  -28.3690   23.1294 C   0  0  2  0  0  0
  -20.6776  -26.9419   22.5404 C   0  0  0  0  0  0
  -19.5747  -26.6392   21.5210 C   0  0  0  0  0  0
  -18.1929  -26.7940   22.1629 C   0  0  0  0  0  0
  -19.1542  -28.8855   23.2895 C   0  0  0  0  0  0
  -18.9464  -30.1448   23.8915 C   0  0  0  0  0  0
  -17.6467  -30.6593   24.0568 C   0  0  0  0  0  0
  -25.9041  -34.9482   23.5140 C   0  0  0  0  0  0
  -16.5356  -29.9096   23.6324 C   0  0  0  0  0  0
  -16.7280  -28.6507   23.0356 C   0  0  0  0  0  0
  -26.4493  -31.6613   25.0762 C   0  0  0  0  0  0
  -25.3749  -31.3731   26.1505 C   0  0  0  0  0  0
  -27.0324  -30.3061   24.6150 C   0  0  0  0  0  0
  -27.6095  -32.4309   25.7502 C   0  0  0  0  0  0
  -27.5578  -37.1802   24.8464 C   0  0  0  0  0  0
  -21.4181  -29.3061   22.3690 N   0  0  0  0  0  0
  -26.4275  -37.3797   23.9427 N   0  0  0  0  0  0
  -24.6808  -31.0771   22.1017 N   0  0  0  0  0  0
  -23.4222  -28.8225   23.2984 O   0  0  0  0  0  0
  -28.3473  -26.5737   20.1391 O   0  0  0  0  0  0
  -26.5588  -34.8929   22.4700 O   0  0  0  0  0  0
  -23.5413  -32.1448   23.7478 O   0  0  0  0  0  0
  -29.9902  -21.8972   20.3737 C   0  0  0  0  0  0
  -31.3014  -22.3487   20.6869 C   0  0  0  0  0  0
  -30.6049  -24.5611   20.6819 C   0  0  0  0  0  0
  -29.2877  -24.1558   20.3381 C   0  0  0  0  0  0
  -29.8217  -19.3243   20.6950 C   0  0  0  0  0  0
  -29.8846  -17.9702   20.0909 C   0  0  0  0  0  0
  -29.7656  -20.4750   19.9642 C   0  0  0  0  0  0
  -29.8896  -19.1216   22.2004 C   0  0  0  0  0  0
  -29.6657  -16.9762   24.9771 C   0  0  0  0  0  0
  -30.0719  -15.7117   24.2521 C   0  0  0  0  0  0
  -30.3952  -16.9578   21.1400 C   0  0  1  0  0  0
  -29.7924  -17.5830   22.4105 C   0  0  1  0  0  0
  -30.4421  -17.0670   23.6850 C   0  0  0  0  0  0
  -32.4933  -21.4104   20.7419 C   0  0  0  0  0  0
  -31.0222  -26.0134   20.8318 C   0  0  0  0  0  0
  -28.1183  -25.1342   20.0620 C   0  0  0  0  0  0
  -28.9975  -22.8204   20.1896 N   0  0  0  0  0  0
  -31.5969  -23.6581   20.8636 N   0  0  0  0  0  0
  -29.9346  -15.5595   20.9700 N   0  0  0  0  0  0
  -29.5880  -17.6876   18.9273 O   0  0  0  0  0  0
  -31.4716  -12.4463   19.1127 H   0  0  0  0  0  0
  -30.3477  -11.3231   19.8283 H   0  0  0  0  0  0
  -29.7488  -11.7531   17.4389 H   0  0  0  0  0  0
  -29.6552  -13.4725   17.7378 H   0  0  0  0  0  0
  -27.8357  -11.3014   18.8204 H   0  0  0  0  0  0
  -27.3685  -12.6156   17.7751 H   0  0  0  0  0  0
  -27.6919  -14.2505   19.5431 H   0  0  0  0  0  0
  -28.6921  -11.9913   21.3500 H   0  0  0  0  0  0
  -28.4688  -13.6410   21.8474 H   0  0  0  0  0  0
  -25.2767   -9.5718   22.4730 H   0  0  0  0  0  0
  -24.0021   -7.4665   22.7478 H   0  0  0  0  0  0
  -21.0827   -8.8792   19.8967 H   0  0  0  0  0  0
  -22.3684  -10.9688   19.6165 H   0  0  0  0  0  0
  -21.1994   -7.6138   23.9715 H   0  0  0  0  0  0
  -21.1481   -6.0499   25.9075 H   0  0  0  0  0  0
  -22.0605   -2.7604   23.2804 H   0  0  0  0  0  0
  -22.4038  -12.0024   22.4885 H   0  0  0  0  0  0
  -21.1068  -13.1380   22.2459 H   0  0  0  0  0  0
  -24.6721  -15.8465   20.5050 H   0  0  0  0  0  0
  -26.2839  -15.6197   20.0610 H   0  0  0  0  0  0
  -26.7187  -32.5538   23.1193 H   0  0  0  0  0  0
  -25.0068  -33.9777   25.0489 H   0  0  0  0  0  0
  -22.7018  -31.3187   21.4149 H   0  0  0  0  0  0
  -23.3749  -35.9623   23.3277 H   0  0  0  0  0  0
  -24.3590  -36.8943   22.2059 H   0  0  0  0  0  0
  -23.7202  -37.6499   23.6663 H   0  0  0  0  0  0
  -26.0705  -31.5909   20.6065 H   0  0  0  0  0  0
  -26.8368  -30.8715   21.9917 H   0  0  0  0  0  0
  -28.1057  -29.0385   21.1728 H   0  0  0  0  0  0
  -25.9518  -25.9769   18.9929 H   0  0  0  0  0  0
  -23.9506  -27.3312   19.0260 H   0  0  0  0  0  0
  -23.7511  -30.6291   19.4119 H   0  0  0  0  0  0
  -22.7436  -29.2818   19.8499 H   0  0  0  0  0  0
  -25.1262  -36.1969   25.0842 H   0  0  0  0  0  0
  -21.0006  -28.3251   24.1410 H   0  0  0  0  0  0
  -20.5690  -26.2301   23.3598 H   0  0  0  0  0  0
  -21.6644  -26.7460   22.1192 H   0  0  0  0  0  0
  -19.6899  -25.6300   21.1238 H   0  0  0  0  0  0
  -19.6676  -27.3202   20.6737 H   0  0  0  0  0  0
  -17.4206  -26.6707   21.4020 H   0  0  0  0  0  0
  -18.0314  -26.0068   22.9014 H   0  0  0  0  0  0
  -19.7942  -30.7248   24.2310 H   0  0  0  0  0  0
  -17.5026  -31.6287   24.5150 H   0  0  0  0  0  0
  -15.5355  -30.3010   23.7620 H   0  0  0  0  0  0
  -15.8685  -28.0825   22.7071 H   0  0  0  0  0  0
  -24.5921  -30.7077   25.7842 H   0  0  0  0  0  0
  -24.8930  -32.2888   26.4950 H   0  0  0  0  0  0
  -25.8093  -30.8908   27.0273 H   0  0  0  0  0  0
  -26.2887  -29.6818   24.1194 H   0  0  0  0  0  0
  -27.4086  -29.7295   25.4606 H   0  0  0  0  0  0
  -27.8714  -30.4379   23.9317 H   0  0  0  0  0  0
  -27.2763  -33.3599   26.2132 H   0  0  0  0  0  0
  -28.3872  -32.6889   25.0303 H   0  0  0  0  0  0
  -28.0808  -31.8401   26.5364 H   0  0  0  0  0  0
  -28.2596  -38.0101   24.7534 H   0  0  0  0  0  0
  -28.1068  -36.2640   24.6240 H   0  0  0  0  0  0
  -27.2318  -37.1406   25.8873 H   0  0  0  0  0  0
  -20.9337  -29.8814   21.6939 H   0  0  0  0  0  0
  -26.0163  -38.2873   24.1446 H   0  0  0  0  0  0
  -29.7322  -20.3548   18.8909 H   0  0  0  0  0  0
  -29.0765  -19.6470   22.7012 H   0  0  0  0  0  0
  -30.8305  -19.5145   22.5823 H   0  0  0  0  0  0
  -30.1884  -17.2080   25.9027 H   0  0  0  0  0  0
  -28.6104  -17.2400   24.9588 H   0  0  0  0  0  0
  -29.2881  -15.1390   23.7577 H   0  0  0  0  0  0
  -30.8664  -15.1143   24.6953 H   0  0  0  0  0  0
  -31.4840  -17.0110   21.1765 H   0  0  0  0  0  0
  -28.7304  -17.3258   22.4476 H   0  0  0  0  0  0
  -31.4982  -17.3140   23.7672 H   0  0  0  0  0  0
  -32.5067  -20.8610   21.6812 H   0  0  0  0  0  0
  -33.4328  -21.9582   20.6581 H   0  0  0  0  0  0
  -32.4644  -20.6947   19.9205 H   0  0  0  0  0  0
  -30.9192  -26.5364   19.8803 H   0  0  0  0  0  0
  -32.0618  -26.1043   21.1482 H   0  0  0  0  0  0
  -30.4052  -26.5185   21.5749 H   0  0  0  0  0  0
  -27.3178  -24.8680   20.7561 H   0  0  0  0  0  0
  -27.7719  -24.8867   19.0594 H   0  0  0  0  0  0
  -28.9792  -15.3614   21.2166 H   0  0  0  0  0  0
  1 25  1  0  0  0
  1 30  2  0  0  0
  1 89  1  0  0  0
  2  3  1  0  0  0
  2 25  1  0  0  0
  2 91  1  0  0  0
  2 92  1  0  0  0
  3  4  1  0  0  0
  3 93  1  0  0  0
  3 94  1  0  0  0
  4  5  1  0  0  0
  4 95  1  0  0  0
  4 96  1  0  0  0
  5  6  1  0  0  0
  5 26  1  0  0  0
  5 97  1  0  0  0
  6 25  1  0  0  0
  6 98  1  0  0  0
  6 99  1  0  0  0
  7  8  2  0  0  0
  7 26  1  0  0  0
  7 29  1  0  0  0
  8  9  1  0  0  0
  8 22  1  0  0  0
  9 10  1  0  0  0
  9 27  2  0  0  0
 10 11  2  0  0  0
 10 15  1  0  0  0
 11 12  1  0  0  0
 11100  1  0  0  0
 12 13  2  0  0  0
 12101  1  0  0  0
 13 14  1  0  0  0
 13 31  1  0  0  0
 14 15  2  0  0  0
 14102  1  0  0  0
 15103  1  0  0  0
 16 17  2  0  0  0
 16 21  1  0  0  0
 16 31  1  0  0  0
 17 18  1  0  0  0
 17104  1  0  0  0
 18 19  2  0  0  0
 18105  1  0  0  0
 19 20  1  0  0  0
 19 24  1  0  0  0
 20 21  2  0  0  0
 20106  1  0  0  0
 21 23  1  0  0  0
 22 28  1  0  0  0
 22 32  2  0  0  0
 26 27  1  0  0  0
 28107  1  0  0  0
 28108  1  0  0  0
 29109  1  0  0  0
 29110  1  0  0  0
 33 34  1  0  0  0
 33 66  1  0  0  0
 33 70  2  0  0  0
 34 36  1  0  0  0
 34 59  1  0  0  0
 34111  1  0  0  0
 35 44  2  0  0  0
 35 45  1  0  0  0
 35 68  1  0  0  0
 36 56  1  0  0  0
 36112  1  0  0  0
 37 39  1  0  0  0
 37 47  1  0  0  0
 37 66  1  0  0  0
 37113  1  0  0  0
 38 43  2  0  0  0
 38 46  1  0  0  0
 38 47  1  0  0  0
 39 64  1  0  0  0
 39 67  2  0  0  0
 40 52  1  0  0  0
 40 53  2  0  0  0
 40 58  1  0  0  0
 41114  1  0  0  0
 41115  1  0  0  0
 41116  1  0  0  0
 41 48  1  0  0  0
 42 43  1  0  0  0
 42 66  1  0  0  0
 42117  1  0  0  0
 42118  1  0  0  0
 43 44  1  0  0  0
 44119  1  0  0  0
 45 46  2  0  0  0
 45120  1  0  0  0
 46121  1  0  0  0
 47122  1  0  0  0
 47123  1  0  0  0
 48 56  1  0  0  0
 48 65  1  0  0  0
 48124  1  0  0  0
 49 50  1  0  0  0
 49 53  1  0  0  0
 49 64  1  0  0  0
 49125  1  0  0  0
 50 51  1  0  0  0
 50126  1  0  0  0
 50127  1  0  0  0
 51 52  1  0  0  0
 51128  1  0  0  0
 51129  1  0  0  0
 52130  1  0  0  0
 52131  1  0  0  0
 53 54  1  0  0  0
 54 55  2  0  0  0
 54132  1  0  0  0
 55 57  1  0  0  0
 55133  1  0  0  0
 56 69  2  0  0  0
 57 58  2  0  0  0
 57134  1  0  0  0
 58135  1  0  0  0
 59 60  1  0  0  0
 59 61  1  0  0  0
 59 62  1  0  0  0
 60136  1  0  0  0
 60137  1  0  0  0
 60138  1  0  0  0
 61139  1  0  0  0
 61140  1  0  0  0
 61141  1  0  0  0
 62142  1  0  0  0
 62143  1  0  0  0
 62144  1  0  0  0
 63 65  1  0  0  0
 63145  1  0  0  0
 63146  1  0  0  0
 63147  1  0  0  0
 64148  1  0  0  0
 65149  1  0  0  0
 68 86  1  0  0  0
 71 72  2  0  0  0
 71 77  1  0  0  0
 71 87  1  0  0  0
 72 84  1  0  0  0
 72 88  1  0  0  0
 73 74  1  0  0  0
 73 85  1  0  0  0
 73 88  2  0  0  0
 74 86  1  0  0  0
 74 87  2  0  0  0
 75 76  1  0  0  0
 75 77  2  0  0  0
 75 78  1  0  0  0
 76 81  1  0  0  0
 76 90  2  0  0  0
 77150  1  0  0  0
 78151  1  0  0  0
 78152  1  0  0  0
 78 82  1  0  0  0
 79 80  1  0  0  0
 79153  1  0  0  0
 79154  1  0  0  0
 79 83  1  0  0  0
 80 83  1  0  0  0
 80155  1  0  0  0
 80156  1  0  0  0
 81 82  1  0  0  0
 81 89  1  0  0  0
 81157  1  0  0  0
 82 83  1  0  0  0
 82158  1  0  0  0
 83159  1  0  0  0
 84160  1  0  0  0
 84161  1  0  0  0
 84162  1  0  0  0
 85163  1  0  0  0
 85164  1  0  0  0
 85165  1  0  0  0
 86166  1  0  0  0
 86167  1  0  0  0
 89168  1  0  0  0
M  ISO  4   1 100  68 101  86 101  89 100
M  END
> <chiral flag>
0

> <version>
0

> <s_m_source_file>
/data/baiqing/PycharmProjects/Reinvent-master-3.2/result/LINK_invent/BTK/process_docking_weight1_custom_sum_contain_oxygen_bond_distance_aromatic_linkinvent_7_9_3/rearranged_h_0176.sdf

> <i_m_source_file_index>
53

> <r_mmod_Potential_Energy-OPLS-2005>
55.6005592346191

> <r_mmod_Stretch_Energy-OPLS-2005>
52.515754699707

> <r_mmod_Bend_Energy-OPLS-2005>
151.451889038086

> <r_mmod_Torsional_Energy-OPLS-2005>
289.676635742188

> <r_mmod_Improper_Torsional_Energy-OPLS-2005>
5.49664545059204

> <r_mmod_Van_der_Waal_Energy-OPLS-2005>
147.946670532227

> <r_mmod_Electrostatic_Energy-OPLS-2005>
-394.919494628906

> <r_mmod_Solvation_Energy-OPLS-2005>
-221.199295043945

> <b_mmod_Minimization_Converged-OPLS-2005>
0

> <r_mmod_RMS_Derivative-OPLS-2005>
3.35277700424194

$$$$
53
                    3D
 Structure written by MMmdl.
164173  0  0  1  0            999 V2000
  -30.6040  -14.8929   20.3183 C   0  0  0  0  0  0
  -30.4459  -12.5354   19.4599 C   0  0  0  0  0  0
  -29.5090  -12.4200   18.2352 C   0  0  0  0  0  0
  -28.0359  -12.2820   18.6689 C   0  0  0  0  0  0
  -27.6291  -13.2326   19.8282 C   0  0  2  0  0  0
  -28.6971  -13.2933   20.9399 C   0  0  0  0  0  0
  -25.2520  -13.8186   20.5764 C   0  0  0  0  0  0
  -24.1807  -13.0433   20.9241 C   0  0  0  0  0  0
  -24.6401  -11.6911   20.8795 C   0  0  0  0  0  0
  -23.9079  -10.4284   21.0426 C   0  0  0  0  0  0
  -24.3628   -9.4196   21.9196 C   0  0  0  0  0  0
  -23.6307   -8.2228   22.0753 C   0  0  0  0  0  0
  -22.4291   -8.0278   21.3546 C   0  0  0  0  0  0
  -21.9928   -9.0250   20.4652 C   0  0  0  0  0  0
  -22.7253  -10.2130   20.3070 C   0  0  0  0  0  0
  -21.6855   -6.0744   22.5287 C   0  0  0  0  0  0
  -21.4009   -6.5645   23.8220 C   0  0  0  0  0  0
  -21.3656   -5.6795   24.9179 C   0  0  0  0  0  0
  -21.6039   -4.3061   24.7227 C   0  0  0  0  0  0
  -21.8821   -3.8157   23.4348 C   0  0  0  0  0  0
  -21.9195   -4.6973   22.3407 C   0  0  0  0  0  0
  -22.7824  -13.5215   21.1882 C   0  0  0  0  0  0
  -22.1665   -4.2157   21.0982 F   0  0  0  0  0  0
  -21.5633   -3.4548   25.7744 F   0  0  0  0  0  0
  -29.9625  -13.6620   20.2919 N   0  0  0  0  0  0
  -26.2937  -12.9377   20.3338 N   0  0  0  0  0  0
  -25.9348  -11.6527   20.5858 N   0  0  0  0  0  0
  -22.0462  -12.8223   22.0426 N   0  0  0  0  0  0
  -25.4229  -15.1907   20.4205 N   0  0  0  0  0  0
  -31.8373  -14.9064   20.3377 O   0  0  0  0  0  0
  -21.6650   -6.8884   21.4245 O   0  0  0  0  0  0
  -22.3518  -14.5525   20.6709 O   0  0  0  0  0  0
  -24.6393  -31.8501   23.1956 C   0  0  0  0  0  0
  -25.9194  -32.4723   23.8322 C   0  0  1  0  0  0
  -27.2148  -27.1825   20.1326 C   0  0  0  0  0  0
  -25.5980  -33.8528   24.2250 N   0  0  0  0  0  0
  -23.4399  -30.4737   21.5401 C   0  0  2  0  0  0
  -24.8907  -28.9223   20.1071 C   0  0  0  0  0  0
  -22.7530  -29.4585   22.4865 C   0  0  0  0  0  0
  -18.0301  -28.1404   22.8473 C   0  0  0  0  0  0
  -24.1488  -36.7250   23.2631 C   0  0  0  0  0  0
  -25.9963  -30.7372   21.3934 C   0  0  0  0  0  0
  -26.0685  -29.3555   20.7294 C   0  0  0  0  0  0
  -27.2322  -28.5008   20.7317 C   0  0  0  0  0  0
  -26.0119  -26.8601   19.4568 C   0  0  0  0  0  0
  -24.8746  -27.6852   19.4554 C   0  0  0  0  0  0
  -23.6651  -29.8171   20.1558 C   0  0  0  0  0  0
  -25.4115  -36.3036   24.0321 C   0  0  1  0  0  0
  -20.5906  -28.3722   23.1228 C   0  0  2  0  0  0
  -20.6796  -26.9435   22.5389 C   0  0  0  0  0  0
  -19.5769  -26.6395   21.5198 C   0  0  0  0  0  0
  -18.1943  -26.7952   22.1615 C   0  0  0  0  0  0
  -19.1557  -28.8884   23.2848 C   0  0  0  0  0  0
  -18.9476  -30.1482   23.8876 C   0  0  0  0  0  0
  -17.6477  -30.6603   24.0561 C   0  0  0  0  0  0
  -25.9068  -34.9411   23.5079 C   0  0  0  0  0  0
  -16.5367  -29.9095   23.6354 C   0  0  0  0  0  0
  -16.7280  -28.6514   23.0361 C   0  0  0  0  0  0
  -26.4551  -31.6556   25.0722 C   0  0  0  0  0  0
  -25.3765  -31.3724   26.1430 C   0  0  0  0  0  0
  -27.0404  -30.2951   24.6272 C   0  0  0  0  0  0
  -27.6095  -32.4310   25.7498 C   0  0  0  0  0  0
  -27.5591  -37.1751   24.8449 C   0  0  0  0  0  0
  -21.4225  -29.3060   22.3604 N   0  0  0  0  0  0
  -26.4272  -37.3753   23.9440 N   0  0  0  0  0  0
  -24.7110  -31.0387   22.0989 N   0  0  0  0  0  0
  -23.4189  -28.8127   23.3004 O   0  0  0  0  0  0
  -28.2514  -26.1876   20.2150 O   0  0  0  0  0  0
  -26.5619  -34.8902   22.4635 O   0  0  0  0  0  0
  -23.5520  -32.1383   23.7179 O   0  0  0  0  0  0
  -29.1663  -20.3371   20.2818 C   0  0  0  0  0  0
  -29.2114  -21.1891   21.4509 C   0  0  0  0  0  0
  -28.9237  -22.6242   21.4072 C   0  0  0  0  0  0
  -28.8634  -21.1315   19.1145 C   0  0  0  0  0  0
  -28.6351  -23.3086   20.1815 C   0  0  0  0  0  0
  -29.1183  -18.7181   20.3811 C   0  0  0  0  0  0
  -30.8109  -17.9533   18.5671 C   0  0  0  0  0  0
  -29.7625  -15.8452   18.3628 C   0  0  0  0  0  0
  -30.2663  -17.5921   19.9446 C   0  0  2  0  0  0
  -29.8757  -17.1793   17.6521 C   0  0  1  0  0  0
  -29.4734  -20.5485   22.8137 C   0  0  0  0  0  0
  -28.8300  -23.4120   22.7097 C   0  0  0  0  0  0
  -28.5471  -20.5254   17.7598 C   0  0  0  0  0  0
  -27.8326  -24.7247   19.9900 C   0  0  0  0  0  0
  -28.6635  -22.4997   19.0822 N   0  0  0  0  0  0
  -29.9394  -16.0452   19.8288 N   0  0  0  0  0  0
  -28.1004  -18.2464   20.8915 O   0  0  0  0  0  0
  -28.6507  -17.6922   17.5783 F   0  0  0  0  0  0
  -31.4753  -12.6888   19.1289 H   0  0  0  0  0  0
  -30.4484  -11.6095   20.0361 H   0  0  0  0  0  0
  -29.7957  -11.5511   17.6421 H   0  0  0  0  0  0
  -29.6243  -13.2646   17.5634 H   0  0  0  0  0  0
  -27.9034  -11.2481   18.9897 H   0  0  0  0  0  0
  -27.3716  -12.4149   17.8124 H   0  0  0  0  0  0
  -27.5635  -14.2250   19.3931 H   0  0  0  0  0  0
  -28.7901  -12.3393   21.4595 H   0  0  0  0  0  0
  -28.4288  -14.0408   21.6892 H   0  0  0  0  0  0
  -25.2769   -9.5683   22.4781 H   0  0  0  0  0  0
  -24.0028   -7.4624   22.7475 H   0  0  0  0  0  0
  -21.0856   -8.8767   19.8968 H   0  0  0  0  0  0
  -22.3704  -10.9677   19.6187 H   0  0  0  0  0  0
  -21.1993   -7.6147   23.9726 H   0  0  0  0  0  0
  -21.1477   -6.0524   25.9079 H   0  0  0  0  0  0
  -22.0604   -2.7624   23.2847 H   0  0  0  0  0  0
  -22.4083  -11.9894   22.4822 H   0  0  0  0  0  0
  -21.1069  -13.1244   22.2609 H   0  0  0  0  0  0
  -24.6635  -15.8494   20.5538 H   0  0  0  0  0  0
  -26.2934  -15.6387   20.1595 H   0  0  0  0  0  0
  -26.7246  -32.5356   23.1037 H   0  0  0  0  0  0
  -25.0182  -33.9666   25.0432 H   0  0  0  0  0  0
  -22.7396  -31.2982   21.3924 H   0  0  0  0  0  0
  -23.3785  -35.9540   23.3204 H   0  0  0  0  0  0
  -24.3609  -36.8967   22.2071 H   0  0  0  0  0  0
  -23.7187  -37.6396   23.6718 H   0  0  0  0  0  0
  -26.1491  -31.4990   20.6272 H   0  0  0  0  0  0
  -26.8670  -30.7810   22.0355 H   0  0  0  0  0  0
  -28.1258  -28.8247   21.2473 H   0  0  0  0  0  0
  -25.8893  -25.9311   18.9250 H   0  0  0  0  0  0
  -23.9820  -27.3496   18.9447 H   0  0  0  0  0  0
  -23.7948  -30.6007   19.4083 H   0  0  0  0  0  0
  -22.7818  -29.2568   19.8416 H   0  0  0  0  0  0
  -25.1286  -36.1852   25.0809 H   0  0  0  0  0  0
  -21.0010  -28.3324   24.1339 H   0  0  0  0  0  0
  -20.5708  -26.2330   23.3601 H   0  0  0  0  0  0
  -21.6657  -26.7456   22.1167 H   0  0  0  0  0  0
  -19.6932  -25.6289   21.1259 H   0  0  0  0  0  0
  -19.6732  -27.3181   20.6711 H   0  0  0  0  0  0
  -17.4212  -26.6682   21.4015 H   0  0  0  0  0  0
  -18.0361  -26.0093   22.9022 H   0  0  0  0  0  0
  -19.7952  -30.7315   24.2232 H   0  0  0  0  0  0
  -17.5023  -31.6285   24.5155 H   0  0  0  0  0  0
  -15.5360  -30.2991   23.7700 H   0  0  0  0  0  0
  -15.8670  -28.0829   22.7097 H   0  0  0  0  0  0
  -24.5943  -30.7067   25.7757 H   0  0  0  0  0  0
  -24.8965  -32.2900   26.4839 H   0  0  0  0  0  0
  -25.8080  -30.8913   27.0214 H   0  0  0  0  0  0
  -26.3005  -29.6666   24.1297 H   0  0  0  0  0  0
  -27.4042  -29.7244   25.4827 H   0  0  0  0  0  0
  -27.8907  -30.4174   23.9561 H   0  0  0  0  0  0
  -27.2698  -33.3623   26.2040 H   0  0  0  0  0  0
  -28.3929  -32.6848   25.0342 H   0  0  0  0  0  0
  -28.0734  -31.8461   26.5447 H   0  0  0  0  0  0
  -28.2500  -38.0153   24.7624 H   0  0  0  0  0  0
  -28.1201  -36.2686   24.6101 H   0  0  0  0  0  0
  -27.2336  -37.1174   25.8853 H   0  0  0  0  0  0
  -20.9410  -29.8771   21.6792 H   0  0  0  0  0  0
  -26.0132  -38.2790   24.1551 H   0  0  0  0  0  0
  -31.8270  -17.5800   18.4475 H   0  0  0  0  0  0
  -30.8642  -19.0228   18.3847 H   0  0  0  0  0  0
  -30.5525  -15.2225   17.9308 H   0  0  0  0  0  0
  -28.8165  -15.3706   18.1181 H   0  0  0  0  0  0
  -31.0834  -17.6926   20.6606 H   0  0  0  0  0  0
  -30.2509  -17.0853   16.6312 H   0  0  0  0  0  0
  -30.0438  -19.6241   22.7406 H   0  0  0  0  0  0
  -28.5291  -20.3241   23.3107 H   0  0  0  0  0  0
  -30.0523  -21.1998   23.4678 H   0  0  0  0  0  0
  -29.8117  -23.5033   23.1761 H   0  0  0  0  0  0
  -28.1589  -22.9169   23.4134 H   0  0  0  0  0  0
  -28.4487  -24.4221   22.5640 H   0  0  0  0  0  0
  -27.7119  -19.8334   17.8511 H   0  0  0  0  0  0
  -29.3989  -20.0310   17.3053 H   0  0  0  0  0  0
  -28.2440  -21.2867   17.0398 H   0  0  0  0  0  0
  -26.9115  -24.5762   20.5558 H   0  0  0  0  0  0
  -27.5482  -24.6871   18.9393 H   0  0  0  0  0  0
  1 25  1  0  0  0
  1 30  2  0  0  0
  1 86  1  0  0  0
  2  3  1  0  0  0
  2 25  1  0  0  0
  2 89  1  0  0  0
  2 90  1  0  0  0
  3  4  1  0  0  0
  3 91  1  0  0  0
  3 92  1  0  0  0
  4  5  1  0  0  0
  4 93  1  0  0  0
  4 94  1  0  0  0
  5  6  1  0  0  0
  5 26  1  0  0  0
  5 95  1  0  0  0
  6 25  1  0  0  0
  6 96  1  0  0  0
  6 97  1  0  0  0
  7  8  2  0  0  0
  7 26  1  0  0  0
  7 29  1  0  0  0
  8  9  1  0  0  0
  8 22  1  0  0  0
  9 10  1  0  0  0
  9 27  2  0  0  0
 10 11  2  0  0  0
 10 15  1  0  0  0
 11 12  1  0  0  0
 11 98  1  0  0  0
 12 13  2  0  0  0
 12 99  1  0  0  0
 13 14  1  0  0  0
 13 31  1  0  0  0
 14 15  2  0  0  0
 14100  1  0  0  0
 15101  1  0  0  0
 16 17  2  0  0  0
 16 21  1  0  0  0
 16 31  1  0  0  0
 17 18  1  0  0  0
 17102  1  0  0  0
 18 19  2  0  0  0
 18103  1  0  0  0
 19 20  1  0  0  0
 19 24  1  0  0  0
 20 21  2  0  0  0
 20104  1  0  0  0
 21 23  1  0  0  0
 22 28  1  0  0  0
 22 32  2  0  0  0
 26 27  1  0  0  0
 28105  1  0  0  0
 28106  1  0  0  0
 29107  1  0  0  0
 29108  1  0  0  0
 33 34  1  0  0  0
 33 66  1  0  0  0
 33 70  2  0  0  0
 34 36  1  0  0  0
 34 59  1  0  0  0
 34109  1  0  0  0
 35 44  2  0  0  0
 35 45  1  0  0  0
 35 68  1  0  0  0
 36 56  1  0  0  0
 36110  1  0  0  0
 37 39  1  0  0  0
 37 47  1  0  0  0
 37 66  1  0  0  0
 37111  1  0  0  0
 38 43  2  0  0  0
 38 46  1  0  0  0
 38 47  1  0  0  0
 39 64  1  0  0  0
 39 67  2  0  0  0
 40 52  1  0  0  0
 40 53  2  0  0  0
 40 58  1  0  0  0
 41112  1  0  0  0
 41113  1  0  0  0
 41114  1  0  0  0
 41 48  1  0  0  0
 42 43  1  0  0  0
 42 66  1  0  0  0
 42115  1  0  0  0
 42116  1  0  0  0
 43 44  1  0  0  0
 44117  1  0  0  0
 45 46  2  0  0  0
 45118  1  0  0  0
 46119  1  0  0  0
 47120  1  0  0  0
 47121  1  0  0  0
 48 56  1  0  0  0
 48 65  1  0  0  0
 48122  1  0  0  0
 49 50  1  0  0  0
 49 53  1  0  0  0
 49 64  1  0  0  0
 49123  1  0  0  0
 50 51  1  0  0  0
 50124  1  0  0  0
 50125  1  0  0  0
 51 52  1  0  0  0
 51126  1  0  0  0
 51127  1  0  0  0
 52128  1  0  0  0
 52129  1  0  0  0
 53 54  1  0  0  0
 54 55  2  0  0  0
 54130  1  0  0  0
 55 57  1  0  0  0
 55131  1  0  0  0
 56 69  2  0  0  0
 57 58  2  0  0  0
 57132  1  0  0  0
 58133  1  0  0  0
 59 60  1  0  0  0
 59 61  1  0  0  0
 59 62  1  0  0  0
 60134  1  0  0  0
 60135  1  0  0  0
 60136  1  0  0  0
 61137  1  0  0  0
 61138  1  0  0  0
 61139  1  0  0  0
 62140  1  0  0  0
 62141  1  0  0  0
 62142  1  0  0  0
 63 65  1  0  0  0
 63143  1  0  0  0
 63144  1  0  0  0
 63145  1  0  0  0
 64146  1  0  0  0
 65147  1  0  0  0
 68 84  1  0  0  0
 71 72  2  0  0  0
 71 74  1  0  0  0
 71 76  1  0  0  0
 72 73  1  0  0  0
 72 81  1  0  0  0
 73 75  2  0  0  0
 73 82  1  0  0  0
 74 83  1  0  0  0
 74 85  2  0  0  0
 75 84  1  0  0  0
 75 85  1  0  0  0
 76 87  2  0  0  0
 76 79  1  0  0  0
 77 79  1  0  0  0
 77 80  1  0  0  0
 77148  1  0  0  0
 77149  1  0  0  0
 78 80  1  0  0  0
 78 86  1  0  0  0
 78150  1  0  0  0
 78151  1  0  0  0
 79 86  1  0  0  0
 79152  1  0  0  0
 80 88  1  0  0  0
 80153  1  0  0  0
 81154  1  0  0  0
 81155  1  0  0  0
 81156  1  0  0  0
 82157  1  0  0  0
 82158  1  0  0  0
 82159  1  0  0  0
 83160  1  0  0  0
 83161  1  0  0  0
 83162  1  0  0  0
 84163  1  0  0  0
 84164  1  0  0  0
M  ISO  4   1 100  68 101  84 101  86 100
M  END
> <chiral flag>
0

> <version>
0

> <s_m_source_file>
/data/baiqing/PycharmProjects/Reinvent-master-3.2/result/LINK_invent/BTK/process_docking_weight1_custom_sum_contain_oxygen_bond_distance_aromatic_linkinvent_7_9_3/rearranged_h_0176.sdf

> <i_m_source_file_index>
54

> <r_mmod_Potential_Energy-OPLS-2005>
533.296997070312

> <r_mmod_Stretch_Energy-OPLS-2005>
219.804977416992

> <r_mmod_Bend_Energy-OPLS-2005>
303.280670166016

> <r_mmod_Torsional_Energy-OPLS-2005>
362.898986816406

> <r_mmod_Improper_Torsional_Energy-OPLS-2005>
27.7457065582275

> <r_mmod_Van_der_Waal_Energy-OPLS-2005>
161.360092163086

> <r_mmod_Electrostatic_Energy-OPLS-2005>
-500.808532714844

> <r_mmod_Solvation_Energy-OPLS-2005>
-217.204010009766

> <b_mmod_Minimization_Converged-OPLS-2005>
0

> <r_mmod_RMS_Derivative-OPLS-2005>
2.49580526351929

$$$$
54
                    3D
 Structure written by MMmdl.
149158  0  0  1  0            999 V2000
  -30.4182  -15.3310   20.3522 C   0  0  0  0  0  0
  -30.4405  -12.8505   19.5393 C   0  0  0  0  0  0
  -29.5411  -12.5900   18.3031 C   0  0  0  0  0  0
  -28.0901  -12.3097   18.7273 C   0  0  0  0  0  0
  -27.6109  -13.2873   19.8273 C   0  0  2  0  0  0
  -28.6436  -13.4813   20.9602 C   0  0  0  0  0  0
  -25.2359  -13.8282   20.5775 C   0  0  0  0  0  0
  -24.1726  -13.0456   20.9302 C   0  0  0  0  0  0
  -24.6399  -11.6955   20.8786 C   0  0  0  0  0  0
  -23.9103  -10.4308   21.0432 C   0  0  0  0  0  0
  -24.3638   -9.4210   21.9203 C   0  0  0  0  0  0
  -23.6300   -8.2246   22.0761 C   0  0  0  0  0  0
  -22.4285   -8.0289   21.3551 C   0  0  0  0  0  0
  -21.9934   -9.0274   20.4656 C   0  0  0  0  0  0
  -22.7276  -10.2146   20.3073 C   0  0  0  0  0  0
  -21.6853   -6.0741   22.5283 C   0  0  0  0  0  0
  -21.4020   -6.5644   23.8214 C   0  0  0  0  0  0
  -21.3668   -5.6792   24.9177 C   0  0  0  0  0  0
  -21.6042   -4.3052   24.7226 C   0  0  0  0  0  0
  -21.8817   -3.8149   23.4345 C   0  0  0  0  0  0
  -21.9192   -4.6967   22.3403 C   0  0  0  0  0  0
  -22.7731  -13.5198   21.1918 C   0  0  0  0  0  0
  -22.1652   -4.2145   21.0978 F   0  0  0  0  0  0
  -21.5636   -3.4542   25.7744 F   0  0  0  0  0  0
  -29.8717  -14.0060   20.3371 N   0  0  0  0  0  0
  -26.2806  -12.9585   20.3248 N   0  0  0  0  0  0
  -25.9345  -11.6676   20.5749 N   0  0  0  0  0  0
  -22.0357  -12.8213   22.0472 N   0  0  0  0  0  0
  -25.3927  -15.2024   20.4173 N   0  0  0  0  0  0
  -31.6380  -15.3075   20.1108 O   0  0  0  0  0  0
  -21.6646   -6.8884   21.4240 O   0  0  0  0  0  0
  -22.3415  -14.5482   20.6713 O   0  0  0  0  0  0
  -24.6651  -31.8183   23.1661 C   0  0  0  0  0  0
  -25.9316  -32.4561   23.8145 C   0  0  1  0  0  0
  -27.2255  -26.8874   20.1931 C   0  0  0  0  0  0
  -25.5968  -33.8381   24.2040 N   0  0  0  0  0  0
  -23.4818  -30.4270   21.5153 C   0  0  2  0  0  0
  -24.9364  -28.7994   20.1136 C   0  0  0  0  0  0
  -22.7677  -29.4408   22.4768 C   0  0  0  0  0  0
  -18.0328  -28.1402   22.8469 C   0  0  0  0  0  0
  -24.1491  -36.7216   23.2648 C   0  0  0  0  0  0
  -26.0513  -30.6120   21.3998 C   0  0  0  0  0  0
  -26.1192  -29.1952   20.7486 C   0  0  0  0  0  0
  -27.2538  -28.2609   20.7616 C   0  0  0  0  0  0
  -26.0125  -26.6472   19.5094 C   0  0  0  0  0  0
  -24.9107  -27.5479   19.4722 C   0  0  0  0  0  0
  -23.7237  -29.7336   20.1441 C   0  0  0  0  0  0
  -25.4135  -36.2958   24.0289 C   0  0  1  0  0  0
  -20.5952  -28.3748   23.1187 C   0  0  2  0  0  0
  -20.6804  -26.9427   22.5405 C   0  0  0  0  0  0
  -19.5780  -26.6368   21.5217 C   0  0  0  0  0  0
  -18.1960  -26.7935   22.1618 C   0  0  0  0  0  0
  -19.1589  -28.8900   23.2810 C   0  0  0  0  0  0
  -18.9497  -30.1489   23.8845 C   0  0  0  0  0  0
  -17.6489  -30.6593   24.0552 C   0  0  0  0  0  0
  -25.9101  -34.9343   23.4991 C   0  0  0  0  0  0
  -16.5380  -29.9082   23.6339 C   0  0  0  0  0  0
  -16.7308  -28.6500   23.0362 C   0  0  0  0  0  0
  -26.4556  -31.6518   25.0689 C   0  0  0  0  0  0
  -25.3681  -31.3798   26.1350 C   0  0  0  0  0  0
  -27.0444  -30.2877   24.6438 C   0  0  0  0  0  0
  -27.6038  -32.4330   25.7506 C   0  0  0  0  0  0
  -27.5565  -37.1766   24.8460 C   0  0  0  0  0  0
  -21.4346  -29.3032   22.3529 N   0  0  0  0  0  0
  -26.4277  -37.3695   23.9401 N   0  0  0  0  0  0
  -24.7545  -30.9819   22.0803 N   0  0  0  0  0  0
  -23.4212  -28.8001   23.3034 O   0  0  0  0  0  0
  -28.2507  -25.7913   20.2891 O   0  0  0  0  0  0
  -26.5726  -34.8880   22.4594 O   0  0  0  0  0  0
  -23.5709  -32.1172   23.6733 O   0  0  0  0  0  0
  -28.9534  -19.4512   20.6042 C   0  0  0  0  0  0
  -30.9981  -19.9342   19.1205 C   0  0  0  0  0  0
  -29.1791  -20.9342   20.2180 C   0  0  0  0  0  0
  -29.7889  -18.2140   20.2074 C   0  0  0  0  0  0
  -29.3623  -22.7764   22.1429 C   0  0  0  0  0  0
  -27.9480  -22.3004   22.1923 C   0  0  0  0  0  0
  -28.6236  -22.5115   20.8364 C   0  0  0  0  0  0
  -28.2145  -24.1210   20.0763 C   0  0  0  0  0  0
  -30.2932  -21.0282   19.4633 N   0  0  0  0  0  0
  -30.8156  -18.6375   19.4351 N   0  0  0  0  0  0
  -29.6464  -16.6105   20.5021 N   0  0  0  0  0  0
  -31.4553  -13.0615   19.1976 H   0  0  0  0  0  0
  -30.5271  -11.9542   20.1555 H   0  0  0  0  0  0
  -29.9305  -11.7555   17.7175 H   0  0  0  0  0  0
  -29.5668  -13.4634   17.6505 H   0  0  0  0  0  0
  -28.0478  -11.2884   19.1046 H   0  0  0  0  0  0
  -27.4265  -12.3484   17.8633 H   0  0  0  0  0  0
  -27.5198  -14.2501   19.3232 H   0  0  0  0  0  0
  -28.8249  -12.5521   21.5026 H   0  0  0  0  0  0
  -28.2733  -14.2010   21.6915 H   0  0  0  0  0  0
  -25.2768   -9.5693   22.4802 H   0  0  0  0  0  0
  -24.0001   -7.4646   22.7496 H   0  0  0  0  0  0
  -21.0859   -8.8811   19.8975 H   0  0  0  0  0  0
  -22.3728  -10.9694   19.6195 H   0  0  0  0  0  0
  -21.1999   -7.6150   23.9718 H   0  0  0  0  0  0
  -21.1498   -6.0526   25.9082 H   0  0  0  0  0  0
  -22.0580   -2.7609   23.2855 H   0  0  0  0  0  0
  -22.3945  -11.9885   22.4908 H   0  0  0  0  0  0
  -21.0969  -13.1249   22.2628 H   0  0  0  0  0  0
  -24.6122  -15.8410   20.5275 H   0  0  0  0  0  0
  -26.2112  -15.6462   20.0222 H   0  0  0  0  0  0
  -26.7389  -32.5091   23.0858 H   0  0  0  0  0  0
  -25.0050  -33.9457   25.0149 H   0  0  0  0  0  0
  -22.7957  -31.2580   21.3404 H   0  0  0  0  0  0
  -23.3750  -35.9548   23.3279 H   0  0  0  0  0  0
  -24.3558  -36.8901   22.2067 H   0  0  0  0  0  0
  -23.7258  -37.6398   23.6732 H   0  0  0  0  0  0
  -26.2309  -31.3469   20.6137 H   0  0  0  0  0  0
  -26.9119  -30.6764   22.0540 H   0  0  0  0  0  0
  -28.1466  -28.5633   21.2903 H   0  0  0  0  0  0
  -25.8848  -25.6875   19.0276 H   0  0  0  0  0  0
  -24.0106  -27.2378   18.9597 H   0  0  0  0  0  0
  -23.8812  -30.4990   19.3830 H   0  0  0  0  0  0
  -22.8313  -29.1898   19.8288 H   0  0  0  0  0  0
  -25.1334  -36.1747   25.0778 H   0  0  0  0  0  0
  -21.0035  -28.3354   24.1313 H   0  0  0  0  0  0
  -20.5680  -26.2366   23.3648 H   0  0  0  0  0  0
  -21.6670  -26.7397   22.1216 H   0  0  0  0  0  0
  -19.6941  -25.6266   21.1284 H   0  0  0  0  0  0
  -19.6725  -27.3147   20.6725 H   0  0  0  0  0  0
  -17.4231  -26.6675   21.4016 H   0  0  0  0  0  0
  -18.0348  -26.0087   22.9023 H   0  0  0  0  0  0
  -19.7973  -30.7321   24.2178 H   0  0  0  0  0  0
  -17.5042  -31.6270   24.5160 H   0  0  0  0  0  0
  -15.5376  -30.2964   23.7702 H   0  0  0  0  0  0
  -15.8705  -28.0804   22.7100 H   0  0  0  0  0  0
  -24.5854  -30.7150   25.7677 H   0  0  0  0  0  0
  -24.8886  -32.3013   26.4661 H   0  0  0  0  0  0
  -25.7905  -30.9041   27.0209 H   0  0  0  0  0  0
  -26.3099  -29.6554   24.1433 H   0  0  0  0  0  0
  -27.3949  -29.7246   25.5100 H   0  0  0  0  0  0
  -27.9059  -30.4049   23.9860 H   0  0  0  0  0  0
  -27.2586  -33.3664   26.1965 H   0  0  0  0  0  0
  -28.3922  -32.6834   25.0398 H   0  0  0  0  0  0
  -28.0621  -31.8538   26.5532 H   0  0  0  0  0  0
  -28.2562  -38.0077   24.7491 H   0  0  0  0  0  0
  -28.1075  -36.2603   24.6300 H   0  0  0  0  0  0
  -27.2283  -37.1429   25.8861 H   0  0  0  0  0  0
  -20.9603  -29.8694   21.6635 H   0  0  0  0  0  0
  -26.0119  -38.2750   24.1398 H   0  0  0  0  0  0
  -28.1214  -19.2667   21.2717 H   0  0  0  0  0  0
  -31.8702  -20.1306   18.5149 H   0  0  0  0  0  0
  -30.1476  -22.0754   22.4218 H   0  0  0  0  0  0
  -29.5469  -23.8112   22.4265 H   0  0  0  0  0  0
  -27.2116  -23.0137   22.5561 H   0  0  0  0  0  0
  -27.7744  -21.2764   22.5153 H   0  0  0  0  0  0
  -29.2807  -24.3260   19.9766 H   0  0  0  0  0  0
  -27.5755  -24.3419   20.9263 H   0  0  0  0  0  0
  -28.7205  -16.3935   20.8342 H   0  0  0  0  0  0
  1 25  1  0  0  0
  1 30  2  0  0  0
  1 81  1  0  0  0
  2  3  1  0  0  0
  2 25  1  0  0  0
  2 82  1  0  0  0
  2 83  1  0  0  0
  3  4  1  0  0  0
  3 84  1  0  0  0
  3 85  1  0  0  0
  4  5  1  0  0  0
  4 86  1  0  0  0
  4 87  1  0  0  0
  5  6  1  0  0  0
  5 26  1  0  0  0
  5 88  1  0  0  0
  6 25  1  0  0  0
  6 89  1  0  0  0
  6 90  1  0  0  0
  7  8  2  0  0  0
  7 26  1  0  0  0
  7 29  1  0  0  0
  8  9  1  0  0  0
  8 22  1  0  0  0
  9 10  1  0  0  0
  9 27  2  0  0  0
 10 11  2  0  0  0
 10 15  1  0  0  0
 11 12  1  0  0  0
 11 91  1  0  0  0
 12 13  2  0  0  0
 12 92  1  0  0  0
 13 14  1  0  0  0
 13 31  1  0  0  0
 14 15  2  0  0  0
 14 93  1  0  0  0
 15 94  1  0  0  0
 16 17  2  0  0  0
 16 21  1  0  0  0
 16 31  1  0  0  0
 17 18  1  0  0  0
 17 95  1  0  0  0
 18 19  2  0  0  0
 18 96  1  0  0  0
 19 20  1  0  0  0
 19 24  1  0  0  0
 20 21  2  0  0  0
 20 97  1  0  0  0
 21 23  1  0  0  0
 22 28  1  0  0  0
 22 32  2  0  0  0
 26 27  1  0  0  0
 28 98  1  0  0  0
 28 99  1  0  0  0
 29100  1  0  0  0
 29101  1  0  0  0
 33 34  1  0  0  0
 33 66  1  0  0  0
 33 70  2  0  0  0
 34 36  1  0  0  0
 34 59  1  0  0  0
 34102  1  0  0  0
 35 44  2  0  0  0
 35 45  1  0  0  0
 35 68  1  0  0  0
 36 56  1  0  0  0
 36103  1  0  0  0
 37 39  1  0  0  0
 37 47  1  0  0  0
 37 66  1  0  0  0
 37104  1  0  0  0
 38 43  2  0  0  0
 38 46  1  0  0  0
 38 47  1  0  0  0
 39 64  1  0  0  0
 39 67  2  0  0  0
 40 52  1  0  0  0
 40 53  2  0  0  0
 40 58  1  0  0  0
 41105  1  0  0  0
 41106  1  0  0  0
 41107  1  0  0  0
 41 48  1  0  0  0
 42 43  1  0  0  0
 42 66  1  0  0  0
 42108  1  0  0  0
 42109  1  0  0  0
 43 44  1  0  0  0
 44110  1  0  0  0
 45 46  2  0  0  0
 45111  1  0  0  0
 46112  1  0  0  0
 47113  1  0  0  0
 47114  1  0  0  0
 48 56  1  0  0  0
 48 65  1  0  0  0
 48115  1  0  0  0
 49 50  1  0  0  0
 49 53  1  0  0  0
 49 64  1  0  0  0
 49116  1  0  0  0
 50 51  1  0  0  0
 50117  1  0  0  0
 50118  1  0  0  0
 51 52  1  0  0  0
 51119  1  0  0  0
 51120  1  0  0  0
 52121  1  0  0  0
 52122  1  0  0  0
 53 54  1  0  0  0
 54 55  2  0  0  0
 54123  1  0  0  0
 55 57  1  0  0  0
 55124  1  0  0  0
 56 69  2  0  0  0
 57 58  2  0  0  0
 57125  1  0  0  0
 58126  1  0  0  0
 59 60  1  0  0  0
 59 61  1  0  0  0
 59 62  1  0  0  0
 60127  1  0  0  0
 60128  1  0  0  0
 60129  1  0  0  0
 61130  1  0  0  0
 61131  1  0  0  0
 61132  1  0  0  0
 62133  1  0  0  0
 62134  1  0  0  0
 62135  1  0  0  0
 63 65  1  0  0  0
 63136  1  0  0  0
 63137  1  0  0  0
 63138  1  0  0  0
 64139  1  0  0  0
 65140  1  0  0  0
 68 78  1  0  0  0
 71 73  2  0  0  0
 71 74  1  0  0  0
 71141  1  0  0  0
 72 79  2  0  0  0
 72 80  1  0  0  0
 72142  1  0  0  0
 73 77  1  0  0  0
 73 79  1  0  0  0
 74 80  2  0  0  0
 74 81  1  0  0  0
 75 76  1  0  0  0
 75 77  1  0  0  0
 75143  1  0  0  0
 75144  1  0  0  0
 76 77  1  0  0  0
 76145  1  0  0  0
 76146  1  0  0  0
 77 78  1  0  0  0
 78147  1  0  0  0
 78148  1  0  0  0
 81149  1  0  0  0
M  ISO  4   1 100  68 101  78 101  81 100
M  END
> <chiral flag>
0

> <version>
0

> <s_m_source_file>
/data/baiqing/PycharmProjects/Reinvent-master-3.2/result/LINK_invent/BTK/process_docking_weight1_custom_sum_contain_oxygen_bond_distance_aromatic_linkinvent_7_9_3/rearranged_h_0176.sdf

> <i_m_source_file_index>
55

> <r_mmod_Potential_Energy-OPLS-2005>
1257.87951660156

> <r_mmod_Stretch_Energy-OPLS-2005>
670.268859863281

> <r_mmod_Bend_Energy-OPLS-2005>
662.626708984375

> <r_mmod_Torsional_Energy-OPLS-2005>
237.633087158203

> <r_mmod_Improper_Torsional_Energy-OPLS-2005>
4.98191118240356

> <r_mmod_Van_der_Waal_Energy-OPLS-2005>
139.496795654297

> <r_mmod_Electrostatic_Energy-OPLS-2005>
-721.588012695312

> <r_mmod_Solvation_Energy-OPLS-2005>
-252.387313842773

> <b_mmod_Minimization_Converged-OPLS-2005>
0

> <r_mmod_RMS_Derivative-OPLS-2005>
2.00524950027466

$$$$
55
                    3D
 Structure written by MMmdl.
168179  0  0  1  0            999 V2000
  -30.6123  -14.8923   20.4308 C   0  0  0  0  0  0
  -30.4208  -12.5560   19.4912 C   0  0  0  0  0  0
  -29.5091  -12.5206   18.2465 C   0  0  0  0  0  0
  -28.0420  -12.3211   18.6665 C   0  0  0  0  0  0
  -27.6261  -13.2543   19.8352 C   0  0  2  0  0  0
  -28.6709  -13.2911   20.9702 C   0  0  0  0  0  0
  -25.2456  -13.8239   20.5732 C   0  0  0  0  0  0
  -24.1770  -13.0452   20.9222 C   0  0  0  0  0  0
  -24.6394  -11.6938   20.8751 C   0  0  0  0  0  0
  -23.9081  -10.4301   21.0401 C   0  0  0  0  0  0
  -24.3630   -9.4215   21.9177 C   0  0  0  0  0  0
  -23.6304   -8.2249   22.0748 C   0  0  0  0  0  0
  -22.4287   -8.0284   21.3540 C   0  0  0  0  0  0
  -21.9926   -9.0258   20.4642 C   0  0  0  0  0  0
  -22.7254  -10.2137   20.3050 C   0  0  0  0  0  0
  -21.6856   -6.0739   22.5279 C   0  0  0  0  0  0
  -21.4017   -6.5643   23.8213 C   0  0  0  0  0  0
  -21.3661   -5.6795   24.9174 C   0  0  0  0  0  0
  -21.6045   -4.3058   24.7225 C   0  0  0  0  0  0
  -21.8819   -3.8149   23.4346 C   0  0  0  0  0  0
  -21.9195   -4.6966   22.3402 C   0  0  0  0  0  0
  -22.7790  -13.5214   21.1881 C   0  0  0  0  0  0
  -22.1661   -4.2151   21.0978 F   0  0  0  0  0  0
  -21.5631   -3.4540   25.7735 F   0  0  0  0  0  0
  -29.9471  -13.6727   20.3578 N   0  0  0  0  0  0
  -26.2879  -12.9483   20.3263 N   0  0  0  0  0  0
  -25.9330  -11.6604   20.5748 N   0  0  0  0  0  0
  -22.0447  -12.8195   22.0436 N   0  0  0  0  0  0
  -25.4153  -15.1964   20.4191 N   0  0  0  0  0  0
  -31.8226  -14.8686   20.1788 O   0  0  0  0  0  0
  -21.6648   -6.8883   21.4240 O   0  0  0  0  0  0
  -22.3468  -14.5518   20.6730 O   0  0  0  0  0  0
  -24.6426  -31.8468   23.1919 C   0  0  0  0  0  0
  -25.9209  -32.4707   23.8295 C   0  0  1  0  0  0
  -27.2054  -27.1523   20.1403 C   0  0  0  0  0  0
  -25.5963  -33.8513   24.2211 N   0  0  0  0  0  0
  -23.4441  -30.4700   21.5378 C   0  0  2  0  0  0
  -24.8904  -28.9057   20.1088 C   0  0  0  0  0  0
  -22.7561  -29.4566   22.4868 C   0  0  0  0  0  0
  -18.0305  -28.1395   22.8478 C   0  0  0  0  0  0
  -24.1492  -36.7260   23.2641 C   0  0  0  0  0  0
  -26.0008  -30.7250   21.3893 C   0  0  0  0  0  0
  -26.0697  -29.3400   20.7270 C   0  0  0  0  0  0
  -27.2301  -28.4791   20.7275 C   0  0  0  0  0  0
  -25.9992  -26.8234   19.4791 C   0  0  0  0  0  0
  -24.8672  -27.6599   19.4706 C   0  0  0  0  0  0
  -23.6682  -29.8065   20.1547 C   0  0  0  0  0  0
  -25.4124  -36.3038   24.0317 C   0  0  1  0  0  0
  -20.5917  -28.3721   23.1235 C   0  0  2  0  0  0
  -20.6791  -26.9427   22.5401 C   0  0  0  0  0  0
  -19.5763  -26.6382   21.5212 C   0  0  0  0  0  0
  -18.1945  -26.7933   22.1624 C   0  0  0  0  0  0
  -19.1562  -28.8876   23.2849 C   0  0  0  0  0  0
  -18.9478  -30.1471   23.8875 C   0  0  0  0  0  0
  -17.6475  -30.6590   24.0561 C   0  0  0  0  0  0
  -25.9074  -34.9413   23.5070 C   0  0  0  0  0  0
  -16.5366  -29.9083   23.6336 C   0  0  0  0  0  0
  -16.7290  -28.6503   23.0355 C   0  0  0  0  0  0
  -26.4530  -31.6566   25.0729 C   0  0  0  0  0  0
  -25.3716  -31.3754   26.1424 C   0  0  0  0  0  0
  -27.0394  -30.2961   24.6305 C   0  0  0  0  0  0
  -27.6059  -32.4331   25.7517 C   0  0  0  0  0  0
  -27.5575  -37.1788   24.8465 C   0  0  0  0  0  0
  -21.4256  -29.3053   22.3610 N   0  0  0  0  0  0
  -26.4288  -37.3749   23.9406 N   0  0  0  0  0  0
  -24.7158  -31.0341   22.0946 N   0  0  0  0  0  0
  -23.4216  -28.8106   23.3003 O   0  0  0  0  0  0
  -28.2429  -26.1556   20.2161 O   0  0  0  0  0  0
  -26.5653  -34.8905   22.4644 O   0  0  0  0  0  0
  -23.5550  -32.1341   23.7145 O   0  0  0  0  0  0
  -30.1799  -23.3078   20.6033 C   0  0  0  0  0  0
  -28.8369  -23.3601   20.3005 C   0  0  0  0  0  0
  -29.5478  -21.1146   20.4383 C   0  0  0  0  0  0
  -31.9026  -24.5701   22.1354 C   0  0  0  0  0  0
  -30.7551  -25.5182   21.8901 C   0  0  0  0  0  0
  -33.0448  -22.2003   19.9254 C   0  0  0  0  0  0
  -32.6389  -20.7735   19.6707 C   0  0  0  0  0  0
  -29.0224  -18.4948   21.4709 C   0  0  0  0  0  0
  -29.7182  -18.6001   19.1875 C   0  0  0  0  0  0
  -29.5981  -16.9766   21.5938 C   0  0  0  0  0  0
  -30.3725  -17.1371   19.3077 C   0  0  0  0  0  0
  -31.0973  -24.4661   20.8598 C   0  0  0  0  0  0
  -29.7546  -19.4734   20.4809 C   0  0  0  0  0  0
  -32.0054  -21.5422   20.8154 C   0  0  0  0  0  0
  -27.8774  -24.6578   20.0463 C   0  0  0  0  0  0
  -28.4642  -21.9449   20.2193 N   0  0  0  0  0  0
  -30.6182  -21.9540   20.5919 N   0  0  0  0  0  0
  -29.9341  -16.1514   20.3704 N   0  0  0  0  0  0
  -31.4598  -12.6762   19.1806 H   0  0  0  0  0  0
  -30.3817  -11.6075   20.0288 H   0  0  0  0  0  0
  -29.8182  -11.7221   17.5709 H   0  0  0  0  0  0
  -29.6095  -13.4532   17.6887 H   0  0  0  0  0  0
  -27.9284  -11.2793   18.9682 H   0  0  0  0  0  0
  -27.3790  -12.4632   17.8123 H   0  0  0  0  0  0
  -27.5888  -14.2571   19.4081 H   0  0  0  0  0  0
  -28.7466  -12.3261   21.4735 H   0  0  0  0  0  0
  -28.3819  -14.0196   21.7291 H   0  0  0  0  0  0
  -25.2769   -9.5697   22.4760 H   0  0  0  0  0  0
  -24.0014   -7.4643   22.7471 H   0  0  0  0  0  0
  -21.0858   -8.8777   19.8949 H   0  0  0  0  0  0
  -22.3707  -10.9677   19.6165 H   0  0  0  0  0  0
  -21.2007   -7.6151   23.9717 H   0  0  0  0  0  0
  -21.1484   -6.0523   25.9078 H   0  0  0  0  0  0
  -22.0596   -2.7611   23.2842 H   0  0  0  0  0  0
  -22.4076  -11.9862   22.4825 H   0  0  0  0  0  0
  -21.1057  -13.1197   22.2635 H   0  0  0  0  0  0
  -24.6554  -15.8559   20.5451 H   0  0  0  0  0  0
  -26.2795  -15.6378   20.1299 H   0  0  0  0  0  0
  -26.7273  -32.5312   23.1023 H   0  0  0  0  0  0
  -25.0095  -33.9635   25.0347 H   0  0  0  0  0  0
  -22.7466  -31.2966   21.3878 H   0  0  0  0  0  0
  -23.3758  -35.9587   23.3295 H   0  0  0  0  0  0
  -24.3578  -36.8900   22.2057 H   0  0  0  0  0  0
  -23.7244  -37.6453   23.6683 H   0  0  0  0  0  0
  -26.1568  -31.4823   20.6199 H   0  0  0  0  0  0
  -26.8714  -30.7710   22.0317 H   0  0  0  0  0  0
  -28.1268  -28.8039   21.2364 H   0  0  0  0  0  0
  -25.8794  -25.8775   18.9755 H   0  0  0  0  0  0
  -23.9669  -27.3235   18.9751 H   0  0  0  0  0  0
  -23.8058  -30.5845   19.4028 H   0  0  0  0  0  0
  -22.7822  -29.2510   19.8422 H   0  0  0  0  0  0
  -25.1310  -36.1870   25.0808 H   0  0  0  0  0  0
  -21.0012  -28.3308   24.1354 H   0  0  0  0  0  0
  -20.5688  -26.2336   23.3619 H   0  0  0  0  0  0
  -21.6656  -26.7434   22.1195 H   0  0  0  0  0  0
  -19.6925  -25.6286   21.1256 H   0  0  0  0  0  0
  -19.6698  -27.3179   20.6731 H   0  0  0  0  0  0
  -17.4214  -26.6677   21.4029 H   0  0  0  0  0  0
  -18.0346  -26.0079   22.9025 H   0  0  0  0  0  0
  -19.7954  -30.7295   24.2232 H   0  0  0  0  0  0
  -17.5027  -31.6268   24.5168 H   0  0  0  0  0  0
  -15.5366  -30.2979   23.7673 H   0  0  0  0  0  0
  -15.8690  -28.0815   22.7082 H   0  0  0  0  0  0
  -24.5901  -30.7095   25.7746 H   0  0  0  0  0  0
  -24.8898  -32.2936   26.4795 H   0  0  0  0  0  0
  -25.8000  -30.8965   27.0238 H   0  0  0  0  0  0
  -26.3012  -29.6684   24.1301 H   0  0  0  0  0  0
  -27.3994  -29.7260   25.4881 H   0  0  0  0  0  0
  -27.8927  -30.4198   23.9632 H   0  0  0  0  0  0
  -27.2647  -33.3647   26.2045 H   0  0  0  0  0  0
  -28.3900  -32.6865   25.0370 H   0  0  0  0  0  0
  -28.0693  -31.8488   26.5478 H   0  0  0  0  0  0
  -28.2585  -38.0091   24.7508 H   0  0  0  0  0  0
  -28.1080  -36.2621   24.6296 H   0  0  0  0  0  0
  -27.2292  -37.1437   25.8867 H   0  0  0  0  0  0
  -20.9463  -29.8777   21.6799 H   0  0  0  0  0  0
  -26.0156  -38.2817   24.1408 H   0  0  0  0  0  0
  -31.7618  -23.7996   22.8911 H   0  0  0  0  0  0
  -32.9131  -24.9667   22.0570 H   0  0  0  0  0  0
  -30.9956  -26.5516   21.6474 H   0  0  0  0  0  0
  -29.8533  -25.3779   22.4837 H   0  0  0  0  0  0
  -32.7284  -22.9288   19.1822 H   0  0  0  0  0  0
  -34.0311  -22.3728   20.3515 H   0  0  0  0  0  0
  -33.3538  -19.9936   19.9254 H   0  0  0  0  0  0
  -32.0500  -20.5879   18.7751 H   0  0  0  0  0  0
  -29.0425  -18.9404   22.4658 H   0  0  0  0  0  0
  -27.9665  -18.4547   21.2000 H   0  0  0  0  0  0
  -28.6882  -18.5161   18.8391 H   0  0  0  0  0  0
  -30.2426  -19.1355   18.3962 H   0  0  0  0  0  0
  -28.9007  -16.3964   22.1991 H   0  0  0  0  0  0
  -30.5131  -17.0248   22.1870 H   0  0  0  0  0  0
  -31.4474  -17.2864   19.4259 H   0  0  0  0  0  0
  -30.2597  -16.6403   18.3427 H   0  0  0  0  0  0
  -31.5520  -24.8224   19.9373 H   0  0  0  0  0  0
  -30.7779  -19.3606   20.8269 H   0  0  0  0  0  0
  -32.2280  -21.2926   21.8513 H   0  0  0  0  0  0
  -26.9782  -24.5026   20.6433 H   0  0  0  0  0  0
  -27.5507  -24.5634   19.0115 H   0  0  0  0  0  0
  1 25  1  0  0  0
  1 30  2  0  0  0
  1 88  1  0  0  0
  2  3  1  0  0  0
  2 25  1  0  0  0
  2 89  1  0  0  0
  2 90  1  0  0  0
  3  4  1  0  0  0
  3 91  1  0  0  0
  3 92  1  0  0  0
  4  5  1  0  0  0
  4 93  1  0  0  0
  4 94  1  0  0  0
  5  6  1  0  0  0
  5 26  1  0  0  0
  5 95  1  0  0  0
  6 25  1  0  0  0
  6 96  1  0  0  0
  6 97  1  0  0  0
  7  8  2  0  0  0
  7 26  1  0  0  0
  7 29  1  0  0  0
  8  9  1  0  0  0
  8 22  1  0  0  0
  9 10  1  0  0  0
  9 27  2  0  0  0
 10 11  2  0  0  0
 10 15  1  0  0  0
 11 12  1  0  0  0
 11 98  1  0  0  0
 12 13  2  0  0  0
 12 99  1  0  0  0
 13 14  1  0  0  0
 13 31  1  0  0  0
 14 15  2  0  0  0
 14100  1  0  0  0
 15101  1  0  0  0
 16 17  2  0  0  0
 16 21  1  0  0  0
 16 31  1  0  0  0
 17 18  1  0  0  0
 17102  1  0  0  0
 18 19  2  0  0  0
 18103  1  0  0  0
 19 20  1  0  0  0
 19 24  1  0  0  0
 20 21  2  0  0  0
 20104  1  0  0  0
 21 23  1  0  0  0
 22 28  1  0  0  0
 22 32  2  0  0  0
 26 27  1  0  0  0
 28105  1  0  0  0
 28106  1  0  0  0
 29107  1  0  0  0
 29108  1  0  0  0
 33 34  1  0  0  0
 33 66  1  0  0  0
 33 70  2  0  0  0
 34 36  1  0  0  0
 34 59  1  0  0  0
 34109  1  0  0  0
 35 44  2  0  0  0
 35 45  1  0  0  0
 35 68  1  0  0  0
 36 56  1  0  0  0
 36110  1  0  0  0
 37 39  1  0  0  0
 37 47  1  0  0  0
 37 66  1  0  0  0
 37111  1  0  0  0
 38 43  2  0  0  0
 38 46  1  0  0  0
 38 47  1  0  0  0
 39 64  1  0  0  0
 39 67  2  0  0  0
 40 52  1  0  0  0
 40 53  2  0  0  0
 40 58  1  0  0  0
 41112  1  0  0  0
 41113  1  0  0  0
 41114  1  0  0  0
 41 48  1  0  0  0
 42 43  1  0  0  0
 42 66  1  0  0  0
 42115  1  0  0  0
 42116  1  0  0  0
 43 44  1  0  0  0
 44117  1  0  0  0
 45 46  2  0  0  0
 45118  1  0  0  0
 46119  1  0  0  0
 47120  1  0  0  0
 47121  1  0  0  0
 48 56  1  0  0  0
 48 65  1  0  0  0
 48122  1  0  0  0
 49 50  1  0  0  0
 49 53  1  0  0  0
 49 64  1  0  0  0
 49123  1  0  0  0
 50 51  1  0  0  0
 50124  1  0  0  0
 50125  1  0  0  0
 51 52  1  0  0  0
 51126  1  0  0  0
 51127  1  0  0  0
 52128  1  0  0  0
 52129  1  0  0  0
 53 54  1  0  0  0
 54 55  2  0  0  0
 54130  1  0  0  0
 55 57  1  0  0  0
 55131  1  0  0  0
 56 69  2  0  0  0
 57 58  2  0  0  0
 57132  1  0  0  0
 58133  1  0  0  0
 59 60  1  0  0  0
 59 61  1  0  0  0
 59 62  1  0  0  0
 60134  1  0  0  0
 60135  1  0  0  0
 60136  1  0  0  0
 61137  1  0  0  0
 61138  1  0  0  0
 61139  1  0  0  0
 62140  1  0  0  0
 62141  1  0  0  0
 62142  1  0  0  0
 63 65  1  0  0  0
 63143  1  0  0  0
 63144  1  0  0  0
 63145  1  0  0  0
 64146  1  0  0  0
 65147  1  0  0  0
 68 85  1  0  0  0
 71 72  2  0  0  0
 71 87  1  0  0  0
 71 82  1  0  0  0
 72 85  1  0  0  0
 72 86  1  0  0  0
 73 86  2  0  0  0
 73 87  1  0  0  0
 73 83  1  0  0  0
 74 75  1  0  0  0
 74 82  1  0  0  0
 74148  1  0  0  0
 74149  1  0  0  0
 75 82  1  0  0  0
 75150  1  0  0  0
 75151  1  0  0  0
 76 77  1  0  0  0
 76 84  1  0  0  0
 76152  1  0  0  0
 76153  1  0  0  0
 77 84  1  0  0  0
 77154  1  0  0  0
 77155  1  0  0  0
 78 80  1  0  0  0
 78 83  1  0  0  0
 78156  1  0  0  0
 78157  1  0  0  0
 79 81  1  0  0  0
 79 83  1  0  0  0
 79158  1  0  0  0
 79159  1  0  0  0
 80 88  1  0  0  0
 80160  1  0  0  0
 80161  1  0  0  0
 81 88  1  0  0  0
 81162  1  0  0  0
 81163  1  0  0  0
 82164  1  0  0  0
 83165  1  0  0  0
 84 87  1  0  0  0
 84166  1  0  0  0
 85167  1  0  0  0
 85168  1  0  0  0
M  ISO  4   1 100  68 101  85 101  88 100
M  END
> <chiral flag>
0

> <version>
0

> <s_m_source_file>
/data/baiqing/PycharmProjects/Reinvent-master-3.2/result/LINK_invent/BTK/process_docking_weight1_custom_sum_contain_oxygen_bond_distance_aromatic_linkinvent_7_9_3/rearranged_h_0176.sdf

> <i_m_source_file_index>
56

> <r_mmod_Potential_Energy-OPLS-2005>
742.194519042969

> <r_mmod_Stretch_Energy-OPLS-2005>
214.922760009766

> <r_mmod_Bend_Energy-OPLS-2005>
284.681396484375

> <r_mmod_Torsional_Energy-OPLS-2005>
404.607604980469

> <r_mmod_Improper_Torsional_Energy-OPLS-2005>
15.9175443649292

> <r_mmod_Van_der_Waal_Energy-OPLS-2005>
116.413269042969

> <r_mmod_Electrostatic_Energy-OPLS-2005>
-257.682678222656

> <r_mmod_Solvation_Energy-OPLS-2005>
-206.486053466797

> <b_mmod_Minimization_Converged-OPLS-2005>
0

> <r_mmod_RMS_Derivative-OPLS-2005>
0.467947900295258

$$$$
56
                    3D
 Structure written by MMmdl.
158167  0  0  1  0            999 V2000
  -30.3947  -15.4343   20.3613 C   0  0  0  0  0  0
  -30.4326  -12.9373   19.5356 C   0  0  0  0  0  0
  -29.5481  -12.6025   18.3051 C   0  0  0  0  0  0
  -28.1048  -12.2950   18.7330 C   0  0  0  0  0  0
  -27.6008  -13.2902   19.8075 C   0  0  2  0  0  0
  -28.6231  -13.5500   20.9365 C   0  0  0  0  0  0
  -25.2363  -13.8257   20.5786 C   0  0  0  0  0  0
  -24.1724  -13.0428   20.9251 C   0  0  0  0  0  0
  -24.6390  -11.6925   20.8710 C   0  0  0  0  0  0
  -23.9078  -10.4277   21.0360 C   0  0  0  0  0  0
  -24.3639   -9.4187   21.9129 C   0  0  0  0  0  0
  -23.6310   -8.2227   22.0721 C   0  0  0  0  0  0
  -22.4279   -8.0256   21.3531 C   0  0  0  0  0  0
  -21.9916   -9.0226   20.4630 C   0  0  0  0  0  0
  -22.7246  -10.2103   20.3017 C   0  0  0  0  0  0
  -21.6864   -6.0717   22.5266 C   0  0  0  0  0  0
  -21.4017   -6.5621   23.8194 C   0  0  0  0  0  0
  -21.3663   -5.6777   24.9162 C   0  0  0  0  0  0
  -21.6053   -4.3043   24.7216 C   0  0  0  0  0  0
  -21.8815   -3.8125   23.4338 C   0  0  0  0  0  0
  -21.9195   -4.6941   22.3391 C   0  0  0  0  0  0
  -22.7743  -13.5166   21.1884 C   0  0  0  0  0  0
  -22.1665   -4.2115   21.0976 F   0  0  0  0  0  0
  -21.5632   -3.4531   25.7734 F   0  0  0  0  0  0
  -29.8320  -14.1079   20.3008 N   0  0  0  0  0  0
  -26.2772  -12.9545   20.3167 N   0  0  0  0  0  0
  -25.9326  -11.6631   20.5640 N   0  0  0  0  0  0
  -22.0424  -12.8167   22.0469 N   0  0  0  0  0  0
  -25.4033  -15.1996   20.4330 N   0  0  0  0  0  0
  -31.6227  -15.3802   20.1761 O   0  0  0  0  0  0
  -21.6642   -6.8854   21.4230 O   0  0  0  0  0  0
  -22.3396  -14.5432   20.6671 O   0  0  0  0  0  0
  -24.6713  -31.8130   23.1609 C   0  0  0  0  0  0
  -25.9358  -32.4542   23.8102 C   0  0  1  0  0  0
  -27.2217  -26.8150   20.2052 C   0  0  0  0  0  0
  -25.6008  -33.8358   24.2008 N   0  0  0  0  0  0
  -23.4893  -30.4171   21.5130 C   0  0  2  0  0  0
  -24.9432  -28.7733   20.1198 C   0  0  0  0  0  0
  -22.7705  -29.4377   22.4784 C   0  0  0  0  0  0
  -18.0319  -28.1410   22.8453 C   0  0  0  0  0  0
  -24.1489  -36.7172   23.2626 C   0  0  0  0  0  0
  -26.0632  -30.5806   21.4079 C   0  0  0  0  0  0
  -26.1277  -29.1542   20.7645 C   0  0  0  0  0  0
  -27.2525  -28.1980   20.7787 C   0  0  0  0  0  0
  -26.0080  -26.6127   19.5035 C   0  0  0  0  0  0
  -24.9144  -27.5254   19.4721 C   0  0  0  0  0  0
  -23.7376  -29.7189   20.1449 C   0  0  0  0  0  0
  -25.4128  -36.2939   24.0289 C   0  0  1  0  0  0
  -20.5952  -28.3756   23.1188 C   0  0  2  0  0  0
  -20.6782  -26.9426   22.5432 C   0  0  0  0  0  0
  -19.5785  -26.6362   21.5218 C   0  0  0  0  0  0
  -18.1947  -26.7946   22.1586 C   0  0  0  0  0  0
  -19.1580  -28.8905   23.2803 C   0  0  0  0  0  0
  -18.9489  -30.1493   23.8850 C   0  0  0  0  0  0
  -17.6478  -30.6589   24.0546 C   0  0  0  0  0  0
  -25.9117  -34.9331   23.4972 C   0  0  0  0  0  0
  -16.5370  -29.9075   23.6336 C   0  0  0  0  0  0
  -16.7297  -28.6496   23.0350 C   0  0  0  0  0  0
  -26.4579  -31.6528   25.0667 C   0  0  0  0  0  0
  -25.3692  -31.3895   26.1332 C   0  0  0  0  0  0
  -27.0409  -30.2834   24.6500 C   0  0  0  0  0  0
  -27.6114  -32.4316   25.7431 C   0  0  0  0  0  0
  -27.5595  -37.1692   24.8411 C   0  0  0  0  0  0
  -21.4357  -29.3021   22.3522 N   0  0  0  0  0  0
  -26.4235  -37.3712   23.9469 N   0  0  0  0  0  0
  -24.7641  -30.9686   22.0796 N   0  0  0  0  0  0
  -23.4212  -28.7972   23.3064 O   0  0  0  0  0  0
  -28.2714  -25.7144   20.2330 O   0  0  0  0  0  0
  -26.5722  -34.8895   22.4565 O   0  0  0  0  0  0
  -23.5772  -32.1140   23.6671 O   0  0  0  0  0  0
  -28.1253  -21.8307   19.4296 C   0  0  0  0  0  0
  -28.9069  -21.0052   20.3759 C   0  0  0  0  0  0
  -29.3333  -22.0810   21.2896 C   0  0  0  0  0  0
  -28.2678  -24.1785   20.3325 C   0  0  0  0  0  0
  -29.3125  -17.9027   19.4462 C   0  0  0  0  0  0
  -30.1190  -18.1044   21.2292 C   0  0  0  0  0  0
  -29.1222  -19.1943   20.4742 C   0  0  0  0  0  0
  -33.8561  -22.5169   23.3600 C   0  0  0  0  0  0
  -31.6814  -22.0618   22.2647 C   0  0  0  0  0  0
  -30.1979  -21.7211   22.4971 C   0  0  1  0  0  0
  -27.8590  -23.2546   19.3895 N   0  0  0  0  0  0
  -29.0638  -23.4994   21.2304 N   0  0  0  0  0  0
  -29.6852  -16.7805   20.4898 N   0  0  0  0  0  0
  -32.4728  -22.0227   23.5140 N   0  3  0  0  0  0
  -29.7675  -22.3737   23.5836 F   0  0  0  0  0  0
  -31.4410  -13.1671   19.1857 H   0  0  0  0  0  0
  -30.5448  -12.0657   20.1843 H   0  0  0  0  0  0
  -29.9694  -11.7576   17.7573 H   0  0  0  0  0  0
  -29.5518  -13.4478   17.6144 H   0  0  0  0  0  0
  -28.0901  -11.2834   19.1377 H   0  0  0  0  0  0
  -27.4405  -12.2830   17.8665 H   0  0  0  0  0  0
  -27.4869  -14.2311   19.2665 H   0  0  0  0  0  0
  -28.8344  -12.6441   21.5056 H   0  0  0  0  0  0
  -28.2221  -14.2793   21.6431 H   0  0  0  0  0  0
  -25.2797   -9.5646   22.4679 H   0  0  0  0  0  0
  -24.0015   -7.4609   22.7435 H   0  0  0  0  0  0
  -21.0839   -8.8733   19.8951 H   0  0  0  0  0  0
  -22.3695  -10.9618   19.6103 H   0  0  0  0  0  0
  -21.2016   -7.6134   23.9684 H   0  0  0  0  0  0
  -21.1499   -6.0523   25.9071 H   0  0  0  0  0  0
  -22.0599   -2.7585   23.2846 H   0  0  0  0  0  0
  -22.4154  -11.9929   22.4953 H   0  0  0  0  0  0
  -21.0980  -13.1065   22.2585 H   0  0  0  0  0  0
  -24.6427  -15.8561   20.5696 H   0  0  0  0  0  0
  -26.2725  -15.6446   20.1676 H   0  0  0  0  0  0
  -26.7414  -32.5037   23.0800 H   0  0  0  0  0  0
  -25.0161  -33.9432   25.0171 H   0  0  0  0  0  0
  -22.8051  -31.2493   21.3325 H   0  0  0  0  0  0
  -23.3806  -35.9430   23.3143 H   0  0  0  0  0  0
  -24.3609  -36.8969   22.2068 H   0  0  0  0  0  0
  -23.7145  -37.6277   23.6777 H   0  0  0  0  0  0
  -26.2515  -31.3096   20.6193 H   0  0  0  0  0  0
  -26.9178  -30.6463   22.0690 H   0  0  0  0  0  0
  -28.1509  -28.4972   21.3023 H   0  0  0  0  0  0
  -25.8747  -25.6688   18.9941 H   0  0  0  0  0  0
  -24.0176  -27.2304   18.9445 H   0  0  0  0  0  0
  -23.9100  -30.4810   19.3824 H   0  0  0  0  0  0
  -22.8425  -29.1857   19.8245 H   0  0  0  0  0  0
  -25.1315  -36.1676   25.0766 H   0  0  0  0  0  0
  -21.0025  -28.3361   24.1324 H   0  0  0  0  0  0
  -20.5591  -26.2398   23.3685 H   0  0  0  0  0  0
  -21.6654  -26.7350   22.1305 H   0  0  0  0  0  0
  -19.6939  -25.6256   21.1292 H   0  0  0  0  0  0
  -19.6747  -27.3137   20.6723 H   0  0  0  0  0  0
  -17.4243  -26.6722   21.3952 H   0  0  0  0  0  0
  -18.0307  -26.0099   22.8988 H   0  0  0  0  0  0
  -19.7961  -30.7311   24.2214 H   0  0  0  0  0  0
  -17.5021  -31.6262   24.5157 H   0  0  0  0  0  0
  -15.5361  -30.2948   23.7682 H   0  0  0  0  0  0
  -15.8707  -28.0784   22.7091 H   0  0  0  0  0  0
  -24.5954  -30.7105   25.7729 H   0  0  0  0  0  0
  -24.8764  -32.3124   26.4399 H   0  0  0  0  0  0
  -25.7909  -30.9371   27.0314 H   0  0  0  0  0  0
  -26.3054  -29.6539   24.1472 H   0  0  0  0  0  0
  -27.3801  -29.7211   25.5206 H   0  0  0  0  0  0
  -27.9092  -30.3911   24.0001 H   0  0  0  0  0  0
  -27.2738  -33.3690   26.1869 H   0  0  0  0  0  0
  -28.3986  -32.6743   25.0279 H   0  0  0  0  0  0
  -28.0727  -31.8514   26.5438 H   0  0  0  0  0  0
  -28.2465  -38.0137   24.7687 H   0  0  0  0  0  0
  -28.1242  -36.2688   24.5912 H   0  0  0  0  0  0
  -27.2399  -37.0957   25.8823 H   0  0  0  0  0  0
  -20.9647  -29.8684   21.6612 H   0  0  0  0  0  0
  -26.0058  -38.2721   24.1647 H   0  0  0  0  0  0
  -27.6559  -21.3008   18.6138 H   0  0  0  0  0  0
  -30.1100  -18.0724   18.7175 H   0  0  0  0  0  0
  -28.3956  -17.6858   18.8942 H   0  0  0  0  0  0
  -29.9462  -18.0697   22.3067 H   0  0  0  0  0  0
  -31.1741  -18.3409   21.0715 H   0  0  0  0  0  0
  -28.1596  -18.9859   20.9433 H   0  0  0  0  0  0
  -34.3583  -22.5614   24.3264 H   0  0  0  0  0  0
  -33.8768  -23.5178   22.9260 H   0  0  0  0  0  0
  -34.4364  -21.8582   22.7136 H   0  0  0  0  0  0
  -31.7522  -23.0680   21.8485 H   0  0  0  0  0  0
  -32.1129  -21.3847   21.5267 H   0  0  0  0  0  0
  -30.0789  -20.6619   22.7257 H   0  0  0  0  0  0
  -31.9901  -22.6032   24.1827 H   0  0  0  0  0  0
  -32.4951  -21.0872   23.8869 H   0  0  0  0  0  0
  1 25  1  0  0  0
  1 30  2  0  0  0
  1 83  1  0  0  0
  2  3  1  0  0  0
  2 25  1  0  0  0
  2 86  1  0  0  0
  2 87  1  0  0  0
  3  4  1  0  0  0
  3 88  1  0  0  0
  3 89  1  0  0  0
  4  5  1  0  0  0
  4 90  1  0  0  0
  4 91  1  0  0  0
  5  6  1  0  0  0
  5 26  1  0  0  0
  5 92  1  0  0  0
  6 25  1  0  0  0
  6 93  1  0  0  0
  6 94  1  0  0  0
  7  8  2  0  0  0
  7 26  1  0  0  0
  7 29  1  0  0  0
  8  9  1  0  0  0
  8 22  1  0  0  0
  9 10  1  0  0  0
  9 27  2  0  0  0
 10 11  2  0  0  0
 10 15  1  0  0  0
 11 12  1  0  0  0
 11 95  1  0  0  0
 12 13  2  0  0  0
 12 96  1  0  0  0
 13 14  1  0  0  0
 13 31  1  0  0  0
 14 15  2  0  0  0
 14 97  1  0  0  0
 15 98  1  0  0  0
 16 17  2  0  0  0
 16 21  1  0  0  0
 16 31  1  0  0  0
 17 18  1  0  0  0
 17 99  1  0  0  0
 18 19  2  0  0  0
 18100  1  0  0  0
 19 20  1  0  0  0
 19 24  1  0  0  0
 20 21  2  0  0  0
 20101  1  0  0  0
 21 23  1  0  0  0
 22 28  1  0  0  0
 22 32  2  0  0  0
 26 27  1  0  0  0
 28102  1  0  0  0
 28103  1  0  0  0
 29104  1  0  0  0
 29105  1  0  0  0
 33 34  1  0  0  0
 33 66  1  0  0  0
 33 70  2  0  0  0
 34 36  1  0  0  0
 34 59  1  0  0  0
 34106  1  0  0  0
 35 44  2  0  0  0
 35 45  1  0  0  0
 35 68  1  0  0  0
 36 56  1  0  0  0
 36107  1  0  0  0
 37 39  1  0  0  0
 37 47  1  0  0  0
 37 66  1  0  0  0
 37108  1  0  0  0
 38 43  2  0  0  0
 38 46  1  0  0  0
 38 47  1  0  0  0
 39 64  1  0  0  0
 39 67  2  0  0  0
 40 52  1  0  0  0
 40 53  2  0  0  0
 40 58  1  0  0  0
 41109  1  0  0  0
 41110  1  0  0  0
 41111  1  0  0  0
 41 48  1  0  0  0
 42 43  1  0  0  0
 42 66  1  0  0  0
 42112  1  0  0  0
 42113  1  0  0  0
 43 44  1  0  0  0
 44114  1  0  0  0
 45 46  2  0  0  0
 45115  1  0  0  0
 46116  1  0  0  0
 47117  1  0  0  0
 47118  1  0  0  0
 48 56  1  0  0  0
 48 65  1  0  0  0
 48119  1  0  0  0
 49 50  1  0  0  0
 49 53  1  0  0  0
 49 64  1  0  0  0
 49120  1  0  0  0
 50 51  1  0  0  0
 50121  1  0  0  0
 50122  1  0  0  0
 51 52  1  0  0  0
 51123  1  0  0  0
 51124  1  0  0  0
 52125  1  0  0  0
 52126  1  0  0  0
 53 54  1  0  0  0
 54 55  2  0  0  0
 54127  1  0  0  0
 55 57  1  0  0  0
 55128  1  0  0  0
 56 69  2  0  0  0
 57 58  2  0  0  0
 57129  1  0  0  0
 58130  1  0  0  0
 59 60  1  0  0  0
 59 61  1  0  0  0
 59 62  1  0  0  0
 60131  1  0  0  0
 60132  1  0  0  0
 60133  1  0  0  0
 61134  1  0  0  0
 61135  1  0  0  0
 61136  1  0  0  0
 62137  1  0  0  0
 62138  1  0  0  0
 62139  1  0  0  0
 63 65  1  0  0  0
 63140  1  0  0  0
 63141  1  0  0  0
 63142  1  0  0  0
 64143  1  0  0  0
 65144  1  0  0  0
 68 74  1  0  0  0
 71 72  2  0  0  0
 71 81  1  0  0  0
 71145  1  0  0  0
 72 73  1  0  0  0
 72 77  1  0  0  0
 73 80  1  0  0  0
 73 82  2  0  0  0
 74 81  2  0  0  0
 74 82  1  0  0  0
 75 77  1  0  0  0
 75 83  1  0  0  0
 75146  1  0  0  0
 75147  1  0  0  0
 76 77  1  0  0  0
 76 83  1  0  0  0
 76148  1  0  0  0
 76149  1  0  0  0
 77150  1  0  0  0
 78 84  1  0  0  0
 78151  1  0  0  0
 78152  1  0  0  0
 78153  1  0  0  0
 79 80  1  0  0  0
 79 84  1  0  0  0
 79154  1  0  0  0
 79155  1  0  0  0
 80 85  1  0  0  0
 80156  1  0  0  0
 84157  1  0  0  0
 84158  1  0  0  0
M  CHG  1  84   1
M  ISO  4   1 100  68 101  74 101  83 100
M  END
> <chiral flag>
0

> <version>
0

> <s_m_source_file>
/data/baiqing/PycharmProjects/Reinvent-master-3.2/result/LINK_invent/BTK/process_docking_weight1_custom_sum_contain_oxygen_bond_distance_aromatic_linkinvent_7_9_3/rearranged_h_0176.sdf

> <i_m_source_file_index>
57

> <r_mmod_Potential_Energy-OPLS-2005>
1092.07263183594

> <r_mmod_Stretch_Energy-OPLS-2005>
607.861633300781

> <r_mmod_Bend_Energy-OPLS-2005>
566.149658203125

> <r_mmod_Torsional_Energy-OPLS-2005>
283.732177734375

> <r_mmod_Improper_Torsional_Energy-OPLS-2005>
12.7639207839966

> <r_mmod_Van_der_Waal_Energy-OPLS-2005>
131.826019287109

> <r_mmod_Electrostatic_Energy-OPLS-2005>
-642.586181640625

> <r_mmod_Solvation_Energy-OPLS-2005>
-499.047210693359

> <b_mmod_Minimization_Converged-OPLS-2005>
0

> <r_mmod_RMS_Derivative-OPLS-2005>
3.19418954849243

$$$$
57
                    3D
 Structure written by MMmdl.
161170  0  0  1  0            999 V2000
  -30.4154  -15.3555   20.3916 C   0  0  0  0  0  0
  -30.4249  -12.8738   19.5490 C   0  0  0  0  0  0
  -29.5416  -12.6197   18.2999 C   0  0  0  0  0  0
  -28.0874  -12.3350   18.7158 C   0  0  0  0  0  0
  -27.6056  -13.2994   19.8293 C   0  0  2  0  0  0
  -28.6313  -13.4929   20.9655 C   0  0  0  0  0  0
  -25.2321  -13.8291   20.5809 C   0  0  0  0  0  0
  -24.1693  -13.0440   20.9281 C   0  0  0  0  0  0
  -24.6379  -11.6940   20.8750 C   0  0  0  0  0  0
  -23.9089  -10.4281   21.0379 C   0  0  0  0  0  0
  -24.3638   -9.4201   21.9170 C   0  0  0  0  0  0
  -23.6302   -8.2243   22.0754 C   0  0  0  0  0  0
  -22.4276   -8.0279   21.3556 C   0  0  0  0  0  0
  -21.9908   -9.0251   20.4647 C   0  0  0  0  0  0
  -22.7257  -10.2116   20.3030 C   0  0  0  0  0  0
  -21.6851   -6.0726   22.5267 C   0  0  0  0  0  0
  -21.4043   -6.5631   23.8209 C   0  0  0  0  0  0
  -21.3674   -5.6781   24.9169 C   0  0  0  0  0  0
  -21.6036   -4.3038   24.7218 C   0  0  0  0  0  0
  -21.8806   -3.8136   23.4333 C   0  0  0  0  0  0
  -21.9188   -4.6952   22.3396 C   0  0  0  0  0  0
  -22.7699  -13.5172   21.1920 C   0  0  0  0  0  0
  -22.1650   -4.2139   21.0969 F   0  0  0  0  0  0
  -21.5626   -3.4522   25.7738 F   0  0  0  0  0  0
  -29.8515  -14.0333   20.3455 N   0  0  0  0  0  0
  -26.2774  -12.9618   20.3248 N   0  0  0  0  0  0
  -25.9338  -11.6690   20.5707 N   0  0  0  0  0  0
  -22.0355  -12.8158   22.0475 N   0  0  0  0  0  0
  -25.3887  -15.2039   20.4310 N   0  0  0  0  0  0
  -31.6183  -15.3196   20.0880 O   0  0  0  0  0  0
  -21.6643   -6.8874   21.4232 O   0  0  0  0  0  0
  -22.3363  -14.5465   20.6755 O   0  0  0  0  0  0
  -24.6687  -31.8191   23.1660 C   0  0  0  0  0  0
  -25.9341  -32.4561   23.8155 C   0  0  1  0  0  0
  -27.2074  -26.8620   20.2079 C   0  0  0  0  0  0
  -25.5988  -33.8378   24.2056 N   0  0  0  0  0  0
  -23.4854  -30.4290   21.5164 C   0  0  2  0  0  0
  -24.9387  -28.8040   20.1090 C   0  0  0  0  0  0
  -22.7711  -29.4416   22.4772 C   0  0  0  0  0  0
  -18.0340  -28.1408   22.8474 C   0  0  0  0  0  0
  -24.1483  -36.7189   23.2648 C   0  0  0  0  0  0
  -26.0564  -30.6029   21.4067 C   0  0  0  0  0  0
  -26.1214  -29.1856   20.7552 C   0  0  0  0  0  0
  -27.2465  -28.2356   20.7805 C   0  0  0  0  0  0
  -26.0041  -26.6541   19.4942 C   0  0  0  0  0  0
  -24.9105  -27.5616   19.4549 C   0  0  0  0  0  0
  -23.7289  -29.7420   20.1430 C   0  0  0  0  0  0
  -25.4126  -36.2952   24.0299 C   0  0  1  0  0  0
  -20.5965  -28.3756   23.1184 C   0  0  2  0  0  0
  -20.6799  -26.9430   22.5415 C   0  0  0  0  0  0
  -19.5771  -26.6374   21.5225 C   0  0  0  0  0  0
  -18.1957  -26.7941   22.1623 C   0  0  0  0  0  0
  -19.1601  -28.8902   23.2812 C   0  0  0  0  0  0
  -18.9500  -30.1494   23.8845 C   0  0  0  0  0  0
  -17.6483  -30.6583   24.0556 C   0  0  0  0  0  0
  -25.9103  -34.9335   23.5010 C   0  0  0  0  0  0
  -16.5378  -29.9077   23.6342 C   0  0  0  0  0  0
  -16.7319  -28.6503   23.0362 C   0  0  0  0  0  0
  -26.4560  -31.6522   25.0710 C   0  0  0  0  0  0
  -25.3666  -31.3792   26.1358 C   0  0  0  0  0  0
  -27.0466  -30.2881   24.6480 C   0  0  0  0  0  0
  -27.6043  -32.4347   25.7513 C   0  0  0  0  0  0
  -27.5565  -37.1749   24.8465 C   0  0  0  0  0  0
  -21.4371  -29.3033   22.3521 N   0  0  0  0  0  0
  -26.4268  -37.3694   23.9414 N   0  0  0  0  0  0
  -24.7587  -30.9800   22.0827 N   0  0  0  0  0  0
  -23.4242  -28.8009   23.3038 O   0  0  0  0  0  0
  -28.1736  -25.7094   20.3310 O   0  0  0  0  0  0
  -26.5730  -34.8883   22.4608 O   0  0  0  0  0  0
  -23.5743  -32.1194   23.6712 O   0  0  0  0  0  0
  -28.7903  -22.6002   20.5197 C   0  0  0  0  0  0
  -26.6672  -21.4526   18.4639 C   0  0  0  0  0  0
  -27.6427  -20.4103   17.9721 C   0  0  0  0  0  0
  -28.6510  -18.7523   21.7542 C   0  0  0  0  0  0
  -29.1319  -17.2074   21.7907 C   0  0  0  0  0  0
  -27.4878  -20.6506   19.4576 C   0  0  0  0  0  0
  -29.6715  -18.1557   19.7884 C   0  0  1  0  0  0
  -29.3892  -19.6379   20.6792 C   0  0  2  0  0  0
  -30.8298  -18.2939   18.7883 C   0  0  0  0  0  0
  -30.7468  -20.0314   21.2935 C   0  0  0  0  0  0
  -27.9187  -24.0795   20.0095 C   0  0  0  0  0  0
  -29.6876  -16.6829   20.5107 N   0  0  0  0  0  0
  -28.6312  -21.1147   20.2114 N   0  0  0  0  0  0
  -29.7156  -22.8829   21.2856 O   0  0  0  0  0  0
  -31.4483  -13.0648   19.2274 H   0  0  0  0  0  0
  -30.4918  -11.9772   20.1664 H   0  0  0  0  0  0
  -29.9400  -11.7952   17.7094 H   0  0  0  0  0  0
  -29.5733  -13.5020   17.6566 H   0  0  0  0  0  0
  -28.0373  -11.3079   19.0763 H   0  0  0  0  0  0
  -27.4270  -12.3966   17.8492 H   0  0  0  0  0  0
  -27.5137  -14.2676   19.3353 H   0  0  0  0  0  0
  -28.8121  -12.5622   21.5071 H   0  0  0  0  0  0
  -28.2516  -14.2033   21.7009 H   0  0  0  0  0  0
  -25.2767   -9.5692   22.4759 H   0  0  0  0  0  0
  -24.0010   -7.4619   22.7460 H   0  0  0  0  0  0
  -21.0838   -8.8752   19.8956 H   0  0  0  0  0  0
  -22.3691  -10.9653   19.6134 H   0  0  0  0  0  0
  -21.2065   -7.6137   23.9721 H   0  0  0  0  0  0
  -21.1518   -6.0504   25.9072 H   0  0  0  0  0  0
  -22.0581   -2.7594   23.2822 H   0  0  0  0  0  0
  -22.3995  -11.9877   22.4942 H   0  0  0  0  0  0
  -21.0960  -13.1157   22.2640 H   0  0  0  0  0  0
  -24.6135  -15.8456   20.5615 H   0  0  0  0  0  0
  -26.2328  -15.6621   20.1137 H   0  0  0  0  0  0
  -26.7423  -32.5083   23.0875 H   0  0  0  0  0  0
  -25.0054  -33.9439   25.0157 H   0  0  0  0  0  0
  -22.8003  -31.2613   21.3439 H   0  0  0  0  0  0
  -23.3766  -35.9497   23.3272 H   0  0  0  0  0  0
  -24.3559  -36.8879   22.2072 H   0  0  0  0  0  0
  -23.7215  -37.6351   23.6736 H   0  0  0  0  0  0
  -26.2459  -31.3380   20.6232 H   0  0  0  0  0  0
  -26.9139  -30.6643   22.0639 H   0  0  0  0  0  0
  -28.1336  -28.5240   21.3268 H   0  0  0  0  0  0
  -25.8657  -25.7072   18.9948 H   0  0  0  0  0  0
  -24.0137  -27.2645   18.9284 H   0  0  0  0  0  0
  -23.8907  -30.5099   19.3873 H   0  0  0  0  0  0
  -22.8361  -29.2039   19.8224 H   0  0  0  0  0  0
  -25.1318  -36.1738   25.0789 H   0  0  0  0  0  0
  -21.0053  -28.3365   24.1302 H   0  0  0  0  0  0
  -20.5676  -26.2375   23.3665 H   0  0  0  0  0  0
  -21.6665  -26.7391   22.1225 H   0  0  0  0  0  0
  -19.6924  -25.6278   21.1284 H   0  0  0  0  0  0
  -19.6702  -27.3159   20.6739 H   0  0  0  0  0  0
  -17.4231  -26.6711   21.4019 H   0  0  0  0  0  0
  -18.0327  -26.0097   22.9030 H   0  0  0  0  0  0
  -19.7973  -30.7341   24.2186 H   0  0  0  0  0  0
  -17.5028  -31.6248   24.5186 H   0  0  0  0  0  0
  -15.5375  -30.2944   23.7692 H   0  0  0  0  0  0
  -15.8733  -28.0798   22.7087 H   0  0  0  0  0  0
  -24.5853  -30.7141   25.7659 H   0  0  0  0  0  0
  -24.8854  -32.3004   26.4652 H   0  0  0  0  0  0
  -25.7881  -30.9036   27.0227 H   0  0  0  0  0  0
  -26.3141  -29.6542   24.1475 H   0  0  0  0  0  0
  -27.3966  -29.7259   25.5147 H   0  0  0  0  0  0
  -27.9098  -30.4046   23.9927 H   0  0  0  0  0  0
  -27.2588  -33.3672   26.1983 H   0  0  0  0  0  0
  -28.3899  -32.6874   25.0383 H   0  0  0  0  0  0
  -28.0672  -31.8564   26.5516 H   0  0  0  0  0  0
  -28.2559  -38.0066   24.7521 H   0  0  0  0  0  0
  -28.1087  -36.2596   24.6274 H   0  0  0  0  0  0
  -27.2303  -37.1371   25.8874 H   0  0  0  0  0  0
  -20.9649  -29.8698   21.6613 H   0  0  0  0  0  0
  -26.0115  -38.2753   24.1424 H   0  0  0  0  0  0
  -25.6072  -21.2073   18.4039 H   0  0  0  0  0  0
  -26.9105  -22.4650   18.1776 H   0  0  0  0  0  0
  -28.5441  -20.7733   17.4809 H   0  0  0  0  0  0
  -27.2451  -19.4772   17.5788 H   0  0  0  0  0  0
  -28.7219  -19.1993   22.7456 H   0  0  0  0  0  0
  -27.5830  -18.7250   21.5530 H   0  0  0  0  0  0
  -28.3074  -16.5719   22.1171 H   0  0  0  0  0  0
  -29.9091  -17.1033   22.5489 H   0  0  0  0  0  0
  -26.8607  -19.9392   19.9860 H   0  0  0  0  0  0
  -28.7850  -18.0693   19.1576 H   0  0  0  0  0  0
  -31.7987  -18.1978   19.2782 H   0  0  0  0  0  0
  -30.8075  -19.2648   18.2904 H   0  0  0  0  0  0
  -30.7725  -17.5272   18.0162 H   0  0  0  0  0  0
  -31.3537  -19.1570   21.5312 H   0  0  0  0  0  0
  -30.6225  -20.5898   22.2221 H   0  0  0  0  0  0
  -31.3228  -20.6568   20.6086 H   0  0  0  0  0  0
  -26.8687  -23.8851   20.2209 H   0  0  0  0  0  0
  -28.0175  -24.0637   18.9266 H   0  0  0  0  0  0
  1 25  1  0  0  0
  1 30  2  0  0  0
  1 82  1  0  0  0
  2  3  1  0  0  0
  2 25  1  0  0  0
  2 85  1  0  0  0
  2 86  1  0  0  0
  3  4  1  0  0  0
  3 87  1  0  0  0
  3 88  1  0  0  0
  4  5  1  0  0  0
  4 89  1  0  0  0
  4 90  1  0  0  0
  5  6  1  0  0  0
  5 26  1  0  0  0
  5 91  1  0  0  0
  6 25  1  0  0  0
  6 92  1  0  0  0
  6 93  1  0  0  0
  7  8  2  0  0  0
  7 26  1  0  0  0
  7 29  1  0  0  0
  8  9  1  0  0  0
  8 22  1  0  0  0
  9 10  1  0  0  0
  9 27  2  0  0  0
 10 11  2  0  0  0
 10 15  1  0  0  0
 11 12  1  0  0  0
 11 94  1  0  0  0
 12 13  2  0  0  0
 12 95  1  0  0  0
 13 14  1  0  0  0
 13 31  1  0  0  0
 14 15  2  0  0  0
 14 96  1  0  0  0
 15 97  1  0  0  0
 16 17  2  0  0  0
 16 21  1  0  0  0
 16 31  1  0  0  0
 17 18  1  0  0  0
 17 98  1  0  0  0
 18 19  2  0  0  0
 18 99  1  0  0  0
 19 20  1  0  0  0
 19 24  1  0  0  0
 20 21  2  0  0  0
 20100  1  0  0  0
 21 23  1  0  0  0
 22 28  1  0  0  0
 22 32  2  0  0  0
 26 27  1  0  0  0
 28101  1  0  0  0
 28102  1  0  0  0
 29103  1  0  0  0
 29104  1  0  0  0
 33 34  1  0  0  0
 33 66  1  0  0  0
 33 70  2  0  0  0
 34 36  1  0  0  0
 34 59  1  0  0  0
 34105  1  0  0  0
 35 44  2  0  0  0
 35 45  1  0  0  0
 35 68  1  0  0  0
 36 56  1  0  0  0
 36106  1  0  0  0
 37 39  1  0  0  0
 37 47  1  0  0  0
 37 66  1  0  0  0
 37107  1  0  0  0
 38 43  2  0  0  0
 38 46  1  0  0  0
 38 47  1  0  0  0
 39 64  1  0  0  0
 39 67  2  0  0  0
 40 52  1  0  0  0
 40 53  2  0  0  0
 40 58  1  0  0  0
 41108  1  0  0  0
 41109  1  0  0  0
 41110  1  0  0  0
 41 48  1  0  0  0
 42 43  1  0  0  0
 42 66  1  0  0  0
 42111  1  0  0  0
 42112  1  0  0  0
 43 44  1  0  0  0
 44113  1  0  0  0
 45 46  2  0  0  0
 45114  1  0  0  0
 46115  1  0  0  0
 47116  1  0  0  0
 47117  1  0  0  0
 48 56  1  0  0  0
 48 65  1  0  0  0
 48118  1  0  0  0
 49 50  1  0  0  0
 49 53  1  0  0  0
 49 64  1  0  0  0
 49119  1  0  0  0
 50 51  1  0  0  0
 50120  1  0  0  0
 50121  1  0  0  0
 51 52  1  0  0  0
 51122  1  0  0  0
 51123  1  0  0  0
 52124  1  0  0  0
 52125  1  0  0  0
 53 54  1  0  0  0
 54 55  2  0  0  0
 54126  1  0  0  0
 55 57  1  0  0  0
 55127  1  0  0  0
 56 69  2  0  0  0
 57 58  2  0  0  0
 57128  1  0  0  0
 58129  1  0  0  0
 59 60  1  0  0  0
 59 61  1  0  0  0
 59 62  1  0  0  0
 60130  1  0  0  0
 60131  1  0  0  0
 60132  1  0  0  0
 61133  1  0  0  0
 61134  1  0  0  0
 61135  1  0  0  0
 62136  1  0  0  0
 62137  1  0  0  0
 62138  1  0  0  0
 63 65  1  0  0  0
 63139  1  0  0  0
 63140  1  0  0  0
 63141  1  0  0  0
 64142  1  0  0  0
 65143  1  0  0  0
 68 81  1  0  0  0
 71 81  1  0  0  0
 71 83  1  0  0  0
 71 84  2  0  0  0
 72 73  1  0  0  0
 72 76  1  0  0  0
 72144  1  0  0  0
 72145  1  0  0  0
 73 76  1  0  0  0
 73146  1  0  0  0
 73147  1  0  0  0
 74 75  1  0  0  0
 74 78  1  0  0  0
 74148  1  0  0  0
 74149  1  0  0  0
 75 82  1  0  0  0
 75150  1  0  0  0
 75151  1  0  0  0
 76 83  1  0  0  0
 76152  1  0  0  0
 77 78  1  0  0  0
 77 79  1  0  0  0
 77 82  1  0  0  0
 77153  1  0  0  0
 78 80  1  0  0  0
 78 83  1  0  0  0
 79154  1  0  0  0
 79155  1  0  0  0
 79156  1  0  0  0
 80157  1  0  0  0
 80158  1  0  0  0
 80159  1  0  0  0
 81160  1  0  0  0
 81161  1  0  0  0
M  ISO  4   1 100  68 101  81 101  82 100
M  END
> <chiral flag>
0

> <version>
0

> <s_m_source_file>
/data/baiqing/PycharmProjects/Reinvent-master-3.2/result/LINK_invent/BTK/process_docking_weight1_custom_sum_contain_oxygen_bond_distance_aromatic_linkinvent_7_9_3/rearranged_h_0176.sdf

> <i_m_source_file_index>
58

> <r_mmod_Potential_Energy-OPLS-2005>
1917.16857910156

> <r_mmod_Stretch_Energy-OPLS-2005>
700.538818359375

> <r_mmod_Bend_Energy-OPLS-2005>
536.74755859375

> <r_mmod_Torsional_Energy-OPLS-2005>
455.319793701172

> <r_mmod_Improper_Torsional_Energy-OPLS-2005>
7.86564779281616

> <r_mmod_Van_der_Waal_Energy-OPLS-2005>
102.954605102539

> <r_mmod_Electrostatic_Energy-OPLS-2005>
-225.761322021484

> <r_mmod_Solvation_Energy-OPLS-2005>
-220.641342163086

> <b_mmod_Minimization_Converged-OPLS-2005>
0

> <r_mmod_RMS_Derivative-OPLS-2005>
3.16813516616821

$$$$
58
                    3D
 Structure written by MMmdl.
158167  0  0  1  0            999 V2000
  -30.4082  -15.5159   20.3374 C   0  0  0  0  0  0
  -30.4123  -13.0016   19.5200 C   0  0  0  0  0  0
  -29.5320  -12.6223   18.3021 C   0  0  0  0  0  0
  -28.1020  -12.2932   18.7517 C   0  0  0  0  0  0
  -27.5927  -13.3017   19.8082 C   0  0  2  0  0  0
  -28.6173  -13.6194   20.9225 C   0  0  0  0  0  0
  -25.2322  -13.8288   20.5798 C   0  0  0  0  0  0
  -24.1701  -13.0443   20.9278 C   0  0  0  0  0  0
  -24.6388  -11.6951   20.8765 C   0  0  0  0  0  0
  -23.9091  -10.4300   21.0401 C   0  0  0  0  0  0
  -24.3634   -9.4216   21.9182 C   0  0  0  0  0  0
  -23.6303   -8.2252   22.0756 C   0  0  0  0  0  0
  -22.4287   -8.0287   21.3544 C   0  0  0  0  0  0
  -21.9928   -9.0257   20.4643 C   0  0  0  0  0  0
  -22.7258  -10.2135   20.3051 C   0  0  0  0  0  0
  -21.6854   -6.0735   22.5272 C   0  0  0  0  0  0
  -21.4020   -6.5633   23.8209 C   0  0  0  0  0  0
  -21.3661   -5.6783   24.9170 C   0  0  0  0  0  0
  -21.6048   -4.3050   24.7220 C   0  0  0  0  0  0
  -21.8815   -3.8142   23.4338 C   0  0  0  0  0  0
  -21.9198   -4.6960   22.3396 C   0  0  0  0  0  0
  -22.7716  -13.5178   21.1914 C   0  0  0  0  0  0
  -22.1663   -4.2146   21.0973 F   0  0  0  0  0  0
  -21.5632   -3.4537   25.7732 F   0  0  0  0  0  0
  -29.8005  -14.1985   20.2507 N   0  0  0  0  0  0
  -26.2756  -12.9600   20.3234 N   0  0  0  0  0  0
  -25.9334  -11.6683   20.5714 N   0  0  0  0  0  0
  -22.0375  -12.8160   22.0461 N   0  0  0  0  0  0
  -25.3955  -15.2029   20.4258 N   0  0  0  0  0  0
  -31.6382  -15.3559   20.2266 O   0  0  0  0  0  0
  -21.6646   -6.8884   21.4238 O   0  0  0  0  0  0
  -22.3405  -14.5484   20.6757 O   0  0  0  0  0  0
  -24.6775  -31.8070   23.1572 C   0  0  0  0  0  0
  -25.9383  -32.4501   23.8099 C   0  0  1  0  0  0
  -27.2173  -26.7683   20.2062 C   0  0  0  0  0  0
  -25.5987  -33.8323   24.1998 N   0  0  0  0  0  0
  -23.5003  -30.4133   21.5101 C   0  0  2  0  0  0
  -24.9545  -28.7674   20.1205 C   0  0  0  0  0  0
  -22.7737  -29.4354   22.4726 C   0  0  0  0  0  0
  -18.0336  -28.1406   22.8462 C   0  0  0  0  0  0
  -24.1489  -36.7171   23.2653 C   0  0  0  0  0  0
  -26.0789  -30.5618   21.4110 C   0  0  0  0  0  0
  -26.1448  -29.1339   20.7608 C   0  0  0  0  0  0
  -27.2680  -28.1620   20.7690 C   0  0  0  0  0  0
  -25.9933  -26.5947   19.5155 C   0  0  0  0  0  0
  -24.9138  -27.5216   19.4743 C   0  0  0  0  0  0
  -23.7501  -29.7167   20.1434 C   0  0  0  0  0  0
  -25.4135  -36.2917   24.0291 C   0  0  1  0  0  0
  -20.5970  -28.3765   23.1148 C   0  0  2  0  0  0
  -20.6804  -26.9432   22.5393 C   0  0  0  0  0  0
  -19.5779  -26.6371   21.5204 C   0  0  0  0  0  0
  -18.1962  -26.7940   22.1613 C   0  0  0  0  0  0
  -19.1601  -28.8909   23.2790 C   0  0  0  0  0  0
  -18.9507  -30.1497   23.8826 C   0  0  0  0  0  0
  -17.6499  -30.6595   24.0550 C   0  0  0  0  0  0
  -25.9111  -34.9301   23.4980 C   0  0  0  0  0  0
  -16.5393  -29.9078   23.6345 C   0  0  0  0  0  0
  -16.7318  -28.6498   23.0365 C   0  0  0  0  0  0
  -26.4582  -31.6499   25.0688 C   0  0  0  0  0  0
  -25.3664  -31.3773   26.1310 C   0  0  0  0  0  0
  -27.0512  -30.2849   24.6535 C   0  0  0  0  0  0
  -27.6046  -32.4356   25.7488 C   0  0  0  0  0  0
  -27.5566  -37.1736   24.8468 C   0  0  0  0  0  0
  -21.4390  -29.3032   22.3478 N   0  0  0  0  0  0
  -26.4269  -37.3671   23.9417 N   0  0  0  0  0  0
  -24.7751  -30.9589   22.0787 N   0  0  0  0  0  0
  -23.4215  -28.7933   23.3030 O   0  0  0  0  0  0
  -28.1887  -25.5796   20.2275 O   0  0  0  0  0  0
  -26.5742  -34.8863   22.4591 O   0  0  0  0  0  0
  -23.5805  -32.1113   23.6556 O   0  0  0  0  0  0
  -29.1370  -19.5180   20.5197 C   0  0  0  0  0  0
  -29.6757  -19.4612   19.2752 C   0  0  0  0  0  0
  -28.6243  -20.9185   20.9748 C   0  0  0  0  0  0
  -29.6956  -20.6983   18.5224 C   0  0  0  0  0  0
  -28.6624  -22.2501   20.1683 C   0  0  0  0  0  0
  -29.2664  -17.9618   21.0555 C   0  0  0  0  0  0
  -30.1365  -17.9366   18.9968 C   0  0  1  0  0  0
  -30.2405  -20.6940   17.1097 C   0  0  0  0  0  0
  -31.6183  -17.8980   18.5686 C   0  0  0  0  0  0
  -27.9804  -20.9789   22.3569 C   0  0  0  0  0  0
  -27.8698  -23.8945   20.4055 C   0  0  0  0  0  0
  -29.2329  -21.9584   18.9416 N   0  0  0  0  0  0
  -29.8180  -16.9393   20.1627 N   0  0  0  0  0  0
  -28.9423  -21.3445   23.4113 N   0  3  0  0  0  0
  -28.9144  -17.7046   22.2111 O   0  0  0  0  0  0
  -31.4157  -13.2217   19.1538 H   0  0  0  0  0  0
  -30.5362  -12.1493   20.1907 H   0  0  0  0  0  0
  -29.9635  -11.7776   17.7639 H   0  0  0  0  0  0
  -29.5095  -13.4564   17.5991 H   0  0  0  0  0  0
  -28.1123  -11.2900   19.1803 H   0  0  0  0  0  0
  -27.4278  -12.2553   17.8945 H   0  0  0  0  0  0
  -27.4589  -14.2267   19.2453 H   0  0  0  0  0  0
  -28.8580  -12.7377   21.5180 H   0  0  0  0  0  0
  -28.2038  -14.3572   21.6115 H   0  0  0  0  0  0
  -25.2774   -9.5697   22.4760 H   0  0  0  0  0  0
  -24.0006   -7.4649   22.7487 H   0  0  0  0  0  0
  -21.0857   -8.8778   19.8951 H   0  0  0  0  0  0
  -22.3713  -10.9673   19.6162 H   0  0  0  0  0  0
  -21.2007   -7.6141   23.9708 H   0  0  0  0  0  0
  -21.1489   -6.0518   25.9072 H   0  0  0  0  0  0
  -22.0594   -2.7606   23.2838 H   0  0  0  0  0  0
  -22.4009  -11.9824   22.4841 H   0  0  0  0  0  0
  -21.0984  -13.1174   22.2655 H   0  0  0  0  0  0
  -24.6257  -15.8543   20.5380 H   0  0  0  0  0  0
  -26.2432  -15.6445   20.0958 H   0  0  0  0  0  0
  -26.7461  -32.4998   23.0814 H   0  0  0  0  0  0
  -25.0076  -33.9373   25.0112 H   0  0  0  0  0  0
  -22.8223  -31.2488   21.3252 H   0  0  0  0  0  0
  -23.3769  -35.9481   23.3261 H   0  0  0  0  0  0
  -24.3563  -36.8880   22.2079 H   0  0  0  0  0  0
  -23.7230  -37.6333   23.6757 H   0  0  0  0  0  0
  -26.2737  -31.2896   20.6226 H   0  0  0  0  0  0
  -26.9327  -30.6270   22.0726 H   0  0  0  0  0  0
  -28.1697  -28.4493   21.2900 H   0  0  0  0  0  0
  -25.8359  -25.6535   19.0086 H   0  0  0  0  0  0
  -24.0148  -27.2342   18.9467 H   0  0  0  0  0  0
  -23.9232  -30.4786   19.3822 H   0  0  0  0  0  0
  -22.8558  -29.1816   19.8196 H   0  0  0  0  0  0
  -25.1334  -36.1693   25.0781 H   0  0  0  0  0  0
  -21.0059  -28.3385   24.1270 H   0  0  0  0  0  0
  -20.5658  -26.2391   23.3648 H   0  0  0  0  0  0
  -21.6664  -26.7371   22.1212 H   0  0  0  0  0  0
  -19.6932  -25.6266   21.1272 H   0  0  0  0  0  0
  -19.6717  -27.3139   20.6702 H   0  0  0  0  0  0
  -17.4233  -26.6681   21.4022 H   0  0  0  0  0  0
  -18.0355  -26.0089   22.9015 H   0  0  0  0  0  0
  -19.7985  -30.7328   24.2161 H   0  0  0  0  0  0
  -17.5053  -31.6264   24.5169 H   0  0  0  0  0  0
  -15.5391  -30.2956   23.7704 H   0  0  0  0  0  0
  -15.8720  -28.0792   22.7115 H   0  0  0  0  0  0
  -24.5885  -30.7085   25.7607 H   0  0  0  0  0  0
  -24.8799  -32.2965   26.4576 H   0  0  0  0  0  0
  -25.7852  -30.9047   27.0201 H   0  0  0  0  0  0
  -26.3211  -29.6476   24.1533 H   0  0  0  0  0  0
  -27.3977  -29.7280   25.5254 H   0  0  0  0  0  0
  -27.9179  -30.4001   24.0020 H   0  0  0  0  0  0
  -27.2610  -33.3740   26.1850 H   0  0  0  0  0  0
  -28.3947  -32.6786   25.0372 H   0  0  0  0  0  0
  -28.0610  -31.8631   26.5572 H   0  0  0  0  0  0
  -28.2540  -38.0072   24.7538 H   0  0  0  0  0  0
  -28.1106  -36.2596   24.6268 H   0  0  0  0  0  0
  -27.2283  -37.1341   25.8870 H   0  0  0  0  0  0
  -20.9671  -29.8743   21.6600 H   0  0  0  0  0  0
  -26.0101  -38.2719   24.1447 H   0  0  0  0  0  0
  -29.5452  -17.5938   18.1451 H   0  0  0  0  0  0
  -30.0159  -19.7509   16.6115 H   0  0  0  0  0  0
  -31.3217  -20.8305   17.1227 H   0  0  0  0  0  0
  -29.8043  -21.4938   16.5103 H   0  0  0  0  0  0
  -32.2800  -18.2004   19.3807 H   0  0  0  0  0  0
  -31.8132  -18.5579   17.7255 H   0  0  0  0  0  0
  -31.9189  -16.9046   18.2379 H   0  0  0  0  0  0
  -27.5332  -20.0144   22.6009 H   0  0  0  0  0  0
  -27.1572  -21.6943   22.3533 H   0  0  0  0  0  0
  -27.5335  -23.8465   21.4402 H   0  0  0  0  0  0
  -26.9492  -23.7702   19.8361 H   0  0  0  0  0  0
  -29.6944  -20.6827   23.4640 H   0  0  0  0  0  0
  -28.4790  -21.3515   24.3028 H   0  0  0  0  0  0
  -29.3288  -22.2585   23.2604 H   0  0  0  0  0  0
  1 25  1  0  0  0
  1 30  2  0  0  0
  1 83  1  0  0  0
  2  3  1  0  0  0
  2 25  1  0  0  0
  2 86  1  0  0  0
  2 87  1  0  0  0
  3  4  1  0  0  0
  3 88  1  0  0  0
  3 89  1  0  0  0
  4  5  1  0  0  0
  4 90  1  0  0  0
  4 91  1  0  0  0
  5  6  1  0  0  0
  5 26  1  0  0  0
  5 92  1  0  0  0
  6 25  1  0  0  0
  6 93  1  0  0  0
  6 94  1  0  0  0
  7  8  2  0  0  0
  7 26  1  0  0  0
  7 29  1  0  0  0
  8  9  1  0  0  0
  8 22  1  0  0  0
  9 10  1  0  0  0
  9 27  2  0  0  0
 10 11  2  0  0  0
 10 15  1  0  0  0
 11 12  1  0  0  0
 11 95  1  0  0  0
 12 13  2  0  0  0
 12 96  1  0  0  0
 13 14  1  0  0  0
 13 31  1  0  0  0
 14 15  2  0  0  0
 14 97  1  0  0  0
 15 98  1  0  0  0
 16 17  2  0  0  0
 16 21  1  0  0  0
 16 31  1  0  0  0
 17 18  1  0  0  0
 17 99  1  0  0  0
 18 19  2  0  0  0
 18100  1  0  0  0
 19 20  1  0  0  0
 19 24  1  0  0  0
 20 21  2  0  0  0
 20101  1  0  0  0
 21 23  1  0  0  0
 22 28  1  0  0  0
 22 32  2  0  0  0
 26 27  1  0  0  0
 28102  1  0  0  0
 28103  1  0  0  0
 29104  1  0  0  0
 29105  1  0  0  0
 33 34  1  0  0  0
 33 66  1  0  0  0
 33 70  2  0  0  0
 34 36  1  0  0  0
 34 59  1  0  0  0
 34106  1  0  0  0
 35 44  2  0  0  0
 35 45  1  0  0  0
 35 68  1  0  0  0
 36 56  1  0  0  0
 36107  1  0  0  0
 37 39  1  0  0  0
 37 47  1  0  0  0
 37 66  1  0  0  0
 37108  1  0  0  0
 38 43  2  0  0  0
 38 46  1  0  0  0
 38 47  1  0  0  0
 39 64  1  0  0  0
 39 67  2  0  0  0
 40 52  1  0  0  0
 40 53  2  0  0  0
 40 58  1  0  0  0
 41109  1  0  0  0
 41110  1  0  0  0
 41111  1  0  0  0
 41 48  1  0  0  0
 42 43  1  0  0  0
 42 66  1  0  0  0
 42112  1  0  0  0
 42113  1  0  0  0
 43 44  1  0  0  0
 44114  1  0  0  0
 45 46  2  0  0  0
 45115  1  0  0  0
 46116  1  0  0  0
 47117  1  0  0  0
 47118  1  0  0  0
 48 56  1  0  0  0
 48 65  1  0  0  0
 48119  1  0  0  0
 49 50  1  0  0  0
 49 53  1  0  0  0
 49 64  1  0  0  0
 49120  1  0  0  0
 50 51  1  0  0  0
 50121  1  0  0  0
 50122  1  0  0  0
 51 52  1  0  0  0
 51123  1  0  0  0
 51124  1  0  0  0
 52125  1  0  0  0
 52126  1  0  0  0
 53 54  1  0  0  0
 54 55  2  0  0  0
 54127  1  0  0  0
 55 57  1  0  0  0
 55128  1  0  0  0
 56 69  2  0  0  0
 57 58  2  0  0  0
 57129  1  0  0  0
 58130  1  0  0  0
 59 60  1  0  0  0
 59 61  1  0  0  0
 59 62  1  0  0  0
 60131  1  0  0  0
 60132  1  0  0  0
 60133  1  0  0  0
 61134  1  0  0  0
 61135  1  0  0  0
 61136  1  0  0  0
 62137  1  0  0  0
 62138  1  0  0  0
 62139  1  0  0  0
 63 65  1  0  0  0
 63140  1  0  0  0
 63141  1  0  0  0
 63142  1  0  0  0
 64143  1  0  0  0
 65144  1  0  0  0
 68 81  1  0  0  0
 71 72  1  0  0  0
 71 73  2  0  0  0
 71 76  1  0  0  0
 72 74  2  0  0  0
 72 77  1  0  0  0
 73 75  1  0  0  0
 73 80  1  0  0  0
 74 78  1  0  0  0
 74 82  1  0  0  0
 75 81  1  0  0  0
 75 82  2  0  0  0
 76 83  1  0  0  0
 76 85  2  0  0  0
 77 79  1  0  0  0
 77 83  1  0  0  0
 77145  1  0  0  0
 78146  1  0  0  0
 78147  1  0  0  0
 78148  1  0  0  0
 79149  1  0  0  0
 79150  1  0  0  0
 79151  1  0  0  0
 80 84  1  0  0  0
 80152  1  0  0  0
 80153  1  0  0  0
 81154  1  0  0  0
 81155  1  0  0  0
 84156  1  0  0  0
 84157  1  0  0  0
 84158  1  0  0  0
M  CHG  1  84   1
M  ISO  4   1 100  68 101  81 101  83 100
M  END
> <chiral flag>
0

> <version>
0

> <s_m_source_file>
/data/baiqing/PycharmProjects/Reinvent-master-3.2/result/LINK_invent/BTK/process_docking_weight1_custom_sum_contain_oxygen_bond_distance_aromatic_linkinvent_7_9_3/rearranged_h_0176.sdf

> <i_m_source_file_index>
59

> <r_mmod_Potential_Energy-OPLS-2005>
1641.78344726562

> <r_mmod_Stretch_Energy-OPLS-2005>
777.562683105469

> <r_mmod_Bend_Energy-OPLS-2005>
600.778747558594

> <r_mmod_Torsional_Energy-OPLS-2005>
296.0771484375

> <r_mmod_Improper_Torsional_Energy-OPLS-2005>
14.5966205596924

> <r_mmod_Van_der_Waal_Energy-OPLS-2005>
117.656372070312

> <r_mmod_Electrostatic_Energy-OPLS-2005>
-408.380004882812

> <r_mmod_Solvation_Energy-OPLS-2005>
-493.764099121094

> <b_mmod_Minimization_Converged-OPLS-2005>
0

> <r_mmod_RMS_Derivative-OPLS-2005>
1.35364818572998

$$$$
59
                    3D
 Structure written by MMmdl.
156165  0  0  1  0            999 V2000
  -30.4193  -15.3902   20.3595 C   0  0  0  0  0  0
  -30.4298  -12.9070   19.5145 C   0  0  0  0  0  0
  -29.5332  -12.5969   18.2892 C   0  0  0  0  0  0
  -28.0931  -12.2916   18.7321 C   0  0  0  0  0  0
  -27.6021  -13.2860   19.8120 C   0  0  2  0  0  0
  -28.6349  -13.5321   20.9332 C   0  0  0  0  0  0
  -25.2360  -13.8259   20.5772 C   0  0  0  0  0  0
  -24.1726  -13.0435   20.9278 C   0  0  0  0  0  0
  -24.6397  -11.6937   20.8772 C   0  0  0  0  0  0
  -23.9095  -10.4292   21.0410 C   0  0  0  0  0  0
  -24.3638   -9.4204   21.9187 C   0  0  0  0  0  0
  -23.6305   -8.2243   22.0755 C   0  0  0  0  0  0
  -22.4288   -8.0283   21.3545 C   0  0  0  0  0  0
  -21.9929   -9.0259   20.4648 C   0  0  0  0  0  0
  -22.7266  -10.2134   20.3058 C   0  0  0  0  0  0
  -21.6856   -6.0739   22.5279 C   0  0  0  0  0  0
  -21.4017   -6.5641   23.8213 C   0  0  0  0  0  0
  -21.3660   -5.6793   24.9174 C   0  0  0  0  0  0
  -21.6044   -4.3056   24.7225 C   0  0  0  0  0  0
  -21.8817   -3.8148   23.4346 C   0  0  0  0  0  0
  -21.9192   -4.6965   22.3402 C   0  0  0  0  0  0
  -22.7742  -13.5182   21.1914 C   0  0  0  0  0  0
  -22.1661   -4.2151   21.0980 F   0  0  0  0  0  0
  -21.5628   -3.4539   25.7737 F   0  0  0  0  0  0
  -29.8392  -14.0778   20.2787 N   0  0  0  0  0  0
  -26.2789  -12.9552   20.3219 N   0  0  0  0  0  0
  -25.9337  -11.6646   20.5720 N   0  0  0  0  0  0
  -22.0398  -12.8167   22.0467 N   0  0  0  0  0  0
  -25.3978  -15.1996   20.4209 N   0  0  0  0  0  0
  -31.6519  -15.3090   20.2411 O   0  0  0  0  0  0
  -21.6645   -6.8884   21.4242 O   0  0  0  0  0  0
  -22.3422  -14.5481   20.6745 O   0  0  0  0  0  0
  -24.6708  -31.8160   23.1645 C   0  0  0  0  0  0
  -25.9353  -32.4550   23.8139 C   0  0  1  0  0  0
  -27.2156  -26.8466   20.1996 C   0  0  0  0  0  0
  -25.5987  -33.8369   24.2034 N   0  0  0  0  0  0
  -23.4892  -30.4251   21.5163 C   0  0  2  0  0  0
  -24.9429  -28.7960   20.1190 C   0  0  0  0  0  0
  -22.7702  -29.4404   22.4764 C   0  0  0  0  0  0
  -18.0329  -28.1415   22.8463 C   0  0  0  0  0  0
  -24.1495  -36.7190   23.2648 C   0  0  0  0  0  0
  -26.0638  -30.5966   21.4072 C   0  0  0  0  0  0
  -26.1309  -29.1770   20.7555 C   0  0  0  0  0  0
  -27.2621  -28.2278   20.7646 C   0  0  0  0  0  0
  -25.9968  -26.6406   19.5118 C   0  0  0  0  0  0
  -24.9061  -27.5498   19.4749 C   0  0  0  0  0  0
  -23.7342  -29.7350   20.1463 C   0  0  0  0  0  0
  -25.4139  -36.2945   24.0292 C   0  0  1  0  0  0
  -20.5957  -28.3766   23.1173 C   0  0  2  0  0  0
  -20.6803  -26.9440   22.5402 C   0  0  0  0  0  0
  -19.5776  -26.6376   21.5215 C   0  0  0  0  0  0
  -18.1959  -26.7945   22.1622 C   0  0  0  0  0  0
  -19.1591  -28.8912   23.2802 C   0  0  0  0  0  0
  -18.9499  -30.1499   23.8842 C   0  0  0  0  0  0
  -17.6491  -30.6601   24.0553 C   0  0  0  0  0  0
  -25.9110  -34.9330   23.4989 C   0  0  0  0  0  0
  -16.5381  -29.9086   23.6347 C   0  0  0  0  0  0
  -16.7309  -28.6507   23.0366 C   0  0  0  0  0  0
  -26.4573  -31.6526   25.0701 C   0  0  0  0  0  0
  -25.3674  -31.3803   26.1340 C   0  0  0  0  0  0
  -27.0480  -30.2881   24.6496 C   0  0  0  0  0  0
  -27.6049  -32.4354   25.7511 C   0  0  0  0  0  0
  -27.5569  -37.1751   24.8465 C   0  0  0  0  0  0
  -21.4364  -29.3042   22.3512 N   0  0  0  0  0  0
  -26.4278  -37.3689   23.9407 N   0  0  0  0  0  0
  -24.7635  -30.9748   22.0824 N   0  0  0  0  0  0
  -23.4213  -28.7984   23.3042 O   0  0  0  0  0  0
  -28.1987  -25.6945   20.2254 O   0  0  0  0  0  0
  -26.5731  -34.8880   22.4592 O   0  0  0  0  0  0
  -23.5760  -32.1169   23.6687 O   0  0  0  0  0  0
  -29.4100  -21.9990   19.0090 C   0  0  0  0  0  0
  -28.6616  -22.4417   20.1676 C   0  0  0  0  0  0
  -29.8294  -20.6539   19.0756 C   0  0  0  0  0  0
  -28.6959  -21.1237   20.8517 C   0  0  0  0  0  0
  -30.7718  -19.9678   18.2455 C   0  0  0  0  0  0
  -31.5660  -18.9767   18.6873 C   0  0  0  0  0  0
  -31.5325  -18.5426   20.1436 C   0  0  0  0  0  0
  -30.0717  -18.3842   20.6276 C   0  0  1  0  0  0
  -29.7516  -22.9121   17.8584 C   0  0  0  0  0  0
  -28.0868  -20.8564   22.1887 C   0  0  0  0  0  0
  -27.8577  -24.0565   20.4245 C   0  0  0  0  0  0
  -29.4210  -19.9448   20.2196 N   0  0  0  0  0  0
  -29.7059  -16.7304   20.3788 N   0  0  0  0  0  0
  -31.4384  -13.1282   19.1629 H   0  0  0  0  0  0
  -30.5328  -12.0296   20.1552 H   0  0  0  0  0  0
  -29.9393  -11.7605   17.7190 H   0  0  0  0  0  0
  -29.5324  -13.4560   17.6165 H   0  0  0  0  0  0
  -28.0811  -11.2792   19.1377 H   0  0  0  0  0  0
  -27.4190  -12.2870   17.8747 H   0  0  0  0  0  0
  -27.4923  -14.2323   19.2805 H   0  0  0  0  0  0
  -28.8427  -12.6226   21.4989 H   0  0  0  0  0  0
  -28.2506  -14.2622   21.6474 H   0  0  0  0  0  0
  -25.2780   -9.5679   22.4766 H   0  0  0  0  0  0
  -24.0009   -7.4635   22.7477 H   0  0  0  0  0  0
  -21.0859   -8.8786   19.8955 H   0  0  0  0  0  0
  -22.3726  -10.9675   19.6170 H   0  0  0  0  0  0
  -21.2014   -7.6150   23.9718 H   0  0  0  0  0  0
  -21.1484   -6.0523   25.9077 H   0  0  0  0  0  0
  -22.0595   -2.7609   23.2845 H   0  0  0  0  0  0
  -22.4030  -11.9842   22.4870 H   0  0  0  0  0  0
  -21.1008  -13.1175   22.2662 H   0  0  0  0  0  0
  -24.6262  -15.8483   20.5335 H   0  0  0  0  0  0
  -26.2394  -15.6423   20.0767 H   0  0  0  0  0  0
  -26.7426  -32.5064   23.0853 H   0  0  0  0  0  0
  -25.0066  -33.9434   25.0139 H   0  0  0  0  0  0
  -22.8069  -31.2591   21.3391 H   0  0  0  0  0  0
  -23.3771  -35.9504   23.3274 H   0  0  0  0  0  0
  -24.3568  -36.8879   22.2070 H   0  0  0  0  0  0
  -23.7239  -37.6359   23.6736 H   0  0  0  0  0  0
  -26.2520  -31.3314   20.6235 H   0  0  0  0  0  0
  -26.9205  -30.6578   22.0660 H   0  0  0  0  0  0
  -28.1630  -28.5239   21.2834 H   0  0  0  0  0  0
  -25.8534  -25.6978   19.0049 H   0  0  0  0  0  0
  -24.0074  -27.2523   18.9519 H   0  0  0  0  0  0
  -23.8992  -30.5004   19.3871 H   0  0  0  0  0  0
  -22.8416  -29.1952   19.8253 H   0  0  0  0  0  0
  -25.1342  -36.1729   25.0783 H   0  0  0  0  0  0
  -21.0042  -28.3379   24.1297 H   0  0  0  0  0  0
  -20.5681  -26.2386   23.3649 H   0  0  0  0  0  0
  -21.6665  -26.7408   22.1210 H   0  0  0  0  0  0
  -19.6935  -25.6272   21.1283 H   0  0  0  0  0  0
  -19.6716  -27.3154   20.6719 H   0  0  0  0  0  0
  -17.4227  -26.6688   21.4026 H   0  0  0  0  0  0
  -18.0352  -26.0102   22.9032 H   0  0  0  0  0  0
  -19.7973  -30.7329   24.2189 H   0  0  0  0  0  0
  -17.5041  -31.6276   24.5164 H   0  0  0  0  0  0
  -15.5378  -30.2969   23.7703 H   0  0  0  0  0  0
  -15.8711  -28.0805   22.7116 H   0  0  0  0  0  0
  -24.5873  -30.7138   25.7643 H   0  0  0  0  0  0
  -24.8845  -32.3013   26.4616 H   0  0  0  0  0  0
  -25.7882  -30.9065   27.0217 H   0  0  0  0  0  0
  -26.3165  -29.6536   24.1481 H   0  0  0  0  0  0
  -27.3952  -29.7276   25.5186 H   0  0  0  0  0  0
  -27.9131  -30.4039   23.9966 H   0  0  0  0  0  0
  -27.2605  -33.3705   26.1941 H   0  0  0  0  0  0
  -28.3937  -32.6836   25.0397 H   0  0  0  0  0  0
  -28.0633  -31.8581   26.5550 H   0  0  0  0  0  0
  -28.2562  -38.0069   24.7513 H   0  0  0  0  0  0
  -28.1088  -36.2593   24.6291 H   0  0  0  0  0  0
  -27.2283  -37.1391   25.8867 H   0  0  0  0  0  0
  -20.9637  -29.8717   21.6614 H   0  0  0  0  0  0
  -26.0118  -38.2743   24.1417 H   0  0  0  0  0  0
  -30.8222  -20.2662   17.2072 H   0  0  0  0  0  0
  -32.2681  -18.4874   18.0270 H   0  0  0  0  0  0
  -32.0185  -19.3289   20.7234 H   0  0  0  0  0  0
  -32.1520  -17.6653   20.2977 H   0  0  0  0  0  0
  -30.1103  -18.4128   21.7171 H   0  0  0  0  0  0
  -29.2359  -23.8687   17.9423 H   0  0  0  0  0  0
  -29.4653  -22.4564   16.9102 H   0  0  0  0  0  0
  -30.8243  -23.1061   17.8357 H   0  0  0  0  0  0
  -27.3598  -21.6243   22.4532 H   0  0  0  0  0  0
  -28.8506  -20.8372   22.9663 H   0  0  0  0  0  0
  -27.5706  -19.8960   22.2009 H   0  0  0  0  0  0
  -27.5444  -24.0061   21.4671 H   0  0  0  0  0  0
  -26.9269  -23.9246   19.8749 H   0  0  0  0  0  0
  -28.7074  -16.5939   20.3358 H   0  0  0  0  0  0
  1 25  1  0  0  0
  1 30  2  0  0  0
  1 83  1  0  0  0
  2  3  1  0  0  0
  2 25  1  0  0  0
  2 84  1  0  0  0
  2 85  1  0  0  0
  3  4  1  0  0  0
  3 86  1  0  0  0
  3 87  1  0  0  0
  4  5  1  0  0  0
  4 88  1  0  0  0
  4 89  1  0  0  0
  5  6  1  0  0  0
  5 26  1  0  0  0
  5 90  1  0  0  0
  6 25  1  0  0  0
  6 91  1  0  0  0
  6 92  1  0  0  0
  7  8  2  0  0  0
  7 26  1  0  0  0
  7 29  1  0  0  0
  8  9  1  0  0  0
  8 22  1  0  0  0
  9 10  1  0  0  0
  9 27  2  0  0  0
 10 11  2  0  0  0
 10 15  1  0  0  0
 11 12  1  0  0  0
 11 93  1  0  0  0
 12 13  2  0  0  0
 12 94  1  0  0  0
 13 14  1  0  0  0
 13 31  1  0  0  0
 14 15  2  0  0  0
 14 95  1  0  0  0
 15 96  1  0  0  0
 16 17  2  0  0  0
 16 21  1  0  0  0
 16 31  1  0  0  0
 17 18  1  0  0  0
 17 97  1  0  0  0
 18 19  2  0  0  0
 18 98  1  0  0  0
 19 20  1  0  0  0
 19 24  1  0  0  0
 20 21  2  0  0  0
 20 99  1  0  0  0
 21 23  1  0  0  0
 22 28  1  0  0  0
 22 32  2  0  0  0
 26 27  1  0  0  0
 28100  1  0  0  0
 28101  1  0  0  0
 29102  1  0  0  0
 29103  1  0  0  0
 33 34  1  0  0  0
 33 66  1  0  0  0
 33 70  2  0  0  0
 34 36  1  0  0  0
 34 59  1  0  0  0
 34104  1  0  0  0
 35 44  2  0  0  0
 35 45  1  0  0  0
 35 68  1  0  0  0
 36 56  1  0  0  0
 36105  1  0  0  0
 37 39  1  0  0  0
 37 47  1  0  0  0
 37 66  1  0  0  0
 37106  1  0  0  0
 38 43  2  0  0  0
 38 46  1  0  0  0
 38 47  1  0  0  0
 39 64  1  0  0  0
 39 67  2  0  0  0
 40 52  1  0  0  0
 40 53  2  0  0  0
 40 58  1  0  0  0
 41107  1  0  0  0
 41108  1  0  0  0
 41109  1  0  0  0
 41 48  1  0  0  0
 42 43  1  0  0  0
 42 66  1  0  0  0
 42110  1  0  0  0
 42111  1  0  0  0
 43 44  1  0  0  0
 44112  1  0  0  0
 45 46  2  0  0  0
 45113  1  0  0  0
 46114  1  0  0  0
 47115  1  0  0  0
 47116  1  0  0  0
 48 56  1  0  0  0
 48 65  1  0  0  0
 48117  1  0  0  0
 49 50  1  0  0  0
 49 53  1  0  0  0
 49 64  1  0  0  0
 49118  1  0  0  0
 50 51  1  0  0  0
 50119  1  0  0  0
 50120  1  0  0  0
 51 52  1  0  0  0
 51121  1  0  0  0
 51122  1  0  0  0
 52123  1  0  0  0
 52124  1  0  0  0
 53 54  1  0  0  0
 54 55  2  0  0  0
 54125  1  0  0  0
 55 57  1  0  0  0
 55126  1  0  0  0
 56 69  2  0  0  0
 57 58  2  0  0  0
 57127  1  0  0  0
 58128  1  0  0  0
 59 60  1  0  0  0
 59 61  1  0  0  0
 59 62  1  0  0  0
 60129  1  0  0  0
 60130  1  0  0  0
 60131  1  0  0  0
 61132  1  0  0  0
 61133  1  0  0  0
 61134  1  0  0  0
 62135  1  0  0  0
 62136  1  0  0  0
 62137  1  0  0  0
 63 65  1  0  0  0
 63138  1  0  0  0
 63139  1  0  0  0
 63140  1  0  0  0
 64141  1  0  0  0
 65142  1  0  0  0
 68 81  1  0  0  0
 71 72  1  0  0  0
 71 73  2  0  0  0
 71 79  1  0  0  0
 72 74  2  0  0  0
 72 81  1  0  0  0
 73 75  1  0  0  0
 73 82  1  0  0  0
 74 80  1  0  0  0
 74 82  1  0  0  0
 75 76  2  0  0  0
 75143  1  0  0  0
 76 77  1  0  0  0
 76144  1  0  0  0
 77 78  1  0  0  0
 77145  1  0  0  0
 77146  1  0  0  0
 78 82  1  0  0  0
 78 83  1  0  0  0
 78147  1  0  0  0
 79148  1  0  0  0
 79149  1  0  0  0
 79150  1  0  0  0
 80151  1  0  0  0
 80152  1  0  0  0
 80153  1  0  0  0
 81154  1  0  0  0
 81155  1  0  0  0
 83156  1  0  0  0
M  ISO  4   1 100  68 101  81 101  83 100
M  END
> <chiral flag>
0

> <version>
0

> <s_m_source_file>
/data/baiqing/PycharmProjects/Reinvent-master-3.2/result/LINK_invent/BTK/process_docking_weight1_custom_sum_contain_oxygen_bond_distance_aromatic_linkinvent_7_9_3/rearranged_h_0176.sdf

> <i_m_source_file_index>
60

> <r_mmod_Potential_Energy-OPLS-2005>
1640.85864257812

> <r_mmod_Stretch_Energy-OPLS-2005>
720.343811035156

> <r_mmod_Bend_Energy-OPLS-2005>
538.319152832031

> <r_mmod_Torsional_Energy-OPLS-2005>
277.594543457031

> <r_mmod_Improper_Torsional_Energy-OPLS-2005>
9.69458103179932

> <r_mmod_Van_der_Waal_Energy-OPLS-2005>
117.28475189209

> <r_mmod_Electrostatic_Energy-OPLS-2005>
-396.984222412109

> <r_mmod_Solvation_Energy-OPLS-2005>
-216.097442626953

> <b_mmod_Minimization_Converged-OPLS-2005>
0

> <r_mmod_RMS_Derivative-OPLS-2005>
0.309819579124451

$$$$
60
                    3D
 Structure written by MMmdl.
155164  0  0  1  0            999 V2000
  -30.4233  -15.4178   20.3298 C   0  0  0  0  0  0
  -30.4426  -12.9206   19.5120 C   0  0  0  0  0  0
  -29.5389  -12.6160   18.2893 C   0  0  0  0  0  0
  -28.1003  -12.2957   18.7322 C   0  0  0  0  0  0
  -27.6095  -13.2796   19.8225 C   0  0  2  0  0  0
  -28.6493  -13.5369   20.9365 C   0  0  0  0  0  0
  -25.2414  -13.8208   20.5831 C   0  0  0  0  0  0
  -24.1765  -13.0378   20.9232 C   0  0  0  0  0  0
  -24.6442  -11.6885   20.8754 C   0  0  0  0  0  0
  -23.9159  -10.4233   21.0408 C   0  0  0  0  0  0
  -24.3678   -9.4131   21.9193 C   0  0  0  0  0  0
  -23.6295   -8.2197   22.0775 C   0  0  0  0  0  0
  -22.4264   -8.0272   21.3578 C   0  0  0  0  0  0
  -21.9938   -9.0265   20.4683 C   0  0  0  0  0  0
  -22.7323  -10.2104   20.3064 C   0  0  0  0  0  0
  -21.6837   -6.0715   22.5287 C   0  0  0  0  0  0
  -21.4010   -6.5624   23.8226 C   0  0  0  0  0  0
  -21.3659   -5.6788   24.9192 C   0  0  0  0  0  0
  -21.6039   -4.3054   24.7229 C   0  0  0  0  0  0
  -21.8816   -3.8133   23.4355 C   0  0  0  0  0  0
  -21.9173   -4.6941   22.3402 C   0  0  0  0  0  0
  -22.7774  -13.5162   21.1832 C   0  0  0  0  0  0
  -22.1636   -4.2129   21.0978 F   0  0  0  0  0  0
  -21.5637   -3.4536   25.7744 F   0  0  0  0  0  0
  -29.8561  -14.0919   20.2878 N   0  0  0  0  0  0
  -26.2866  -12.9498   20.3336 N   0  0  0  0  0  0
  -25.9392  -11.6598   20.5781 N   0  0  0  0  0  0
  -22.0433  -12.8199   22.0409 N   0  0  0  0  0  0
  -25.3991  -15.1959   20.4377 N   0  0  0  0  0  0
  -31.6548  -15.3639   20.1824 O   0  0  0  0  0  0
  -21.6619   -6.8871   21.4257 O   0  0  0  0  0  0
  -22.3470  -14.5423   20.6606 O   0  0  0  0  0  0
  -24.6618  -31.8161   23.1645 C   0  0  0  0  0  0
  -25.9265  -32.4559   23.8174 C   0  0  1  0  0  0
  -27.2405  -26.8571   20.1881 C   0  0  0  0  0  0
  -25.5908  -33.8385   24.2050 N   0  0  0  0  0  0
  -23.4866  -30.4181   21.5115 C   0  0  2  0  0  0
  -24.9517  -28.7908   20.1037 C   0  0  0  0  0  0
  -22.7707  -29.4345   22.4740 C   0  0  0  0  0  0
  -18.0341  -28.1369   22.8470 C   0  0  0  0  0  0
  -24.1484  -36.7205   23.2659 C   0  0  0  0  0  0
  -26.0583  -30.5934   21.4094 C   0  0  0  0  0  0
  -26.1280  -29.1780   20.7524 C   0  0  0  0  0  0
  -27.2551  -28.2281   20.7779 C   0  0  0  0  0  0
  -26.0377  -26.6448   19.4727 C   0  0  0  0  0  0
  -24.9364  -27.5506   19.4426 C   0  0  0  0  0  0
  -23.7355  -29.7232   20.1412 C   0  0  0  0  0  0
  -25.4132  -36.2969   24.0310 C   0  0  1  0  0  0
  -20.5962  -28.3713   23.1170 C   0  0  2  0  0  0
  -20.6786  -26.9385   22.5394 C   0  0  0  0  0  0
  -19.5767  -26.6321   21.5202 C   0  0  0  0  0  0
  -18.1964  -26.7892   22.1623 C   0  0  0  0  0  0
  -19.1599  -28.8868   23.2802 C   0  0  0  0  0  0
  -18.9502  -30.1456   23.8836 C   0  0  0  0  0  0
  -17.6488  -30.6565   24.0532 C   0  0  0  0  0  0
  -25.9088  -34.9345   23.5025 C   0  0  0  0  0  0
  -16.5387  -29.9041   23.6336 C   0  0  0  0  0  0
  -16.7319  -28.6457   23.0380 C   0  0  0  0  0  0
  -26.4528  -31.6549   25.0731 C   0  0  0  0  0  0
  -25.3648  -31.3790   26.1379 C   0  0  0  0  0  0
  -27.0463  -30.2921   24.6524 C   0  0  0  0  0  0
  -27.5994  -32.4417   25.7536 C   0  0  0  0  0  0
  -27.5583  -37.1774   24.8475 C   0  0  0  0  0  0
  -21.4361  -29.2989   22.3510 N   0  0  0  0  0  0
  -26.4296  -37.3695   23.9396 N   0  0  0  0  0  0
  -24.7565  -30.9748   22.0805 N   0  0  0  0  0  0
  -23.4236  -28.7926   23.3007 O   0  0  0  0  0  0
  -28.2116  -25.7150   20.4154 O   0  0  0  0  0  0
  -26.5739  -34.8901   22.4647 O   0  0  0  0  0  0
  -23.5665  -32.1173   23.6657 O   0  0  0  0  0  0
  -29.3597  -21.9806   18.5266 C   0  0  0  0  0  0
  -29.1502  -23.2684   17.9396 C   0  0  0  0  0  0
  -29.0094  -21.7199   19.8818 C   0  0  0  0  0  0
  -28.3480  -24.3131   19.8534 C   0  0  0  0  0  0
  -29.4872  -17.9549   18.5754 C   0  0  0  0  0  0
  -28.5987  -16.9653   19.3997 C   0  0  0  0  0  0
  -29.9081  -18.4213   19.9896 C   0  0  2  0  0  0
  -29.9643  -20.8812   17.6642 C   0  0  0  0  0  0
  -29.5554  -23.5731   16.5046 C   0  0  0  0  0  0
  -29.1020  -20.0256   20.5139 C   0  0  0  0  0  0
  -28.6295  -24.3477   18.5642 N   0  0  0  0  0  0
  -28.5552  -23.0072   20.5074 N   0  0  0  0  0  0
  -29.6931  -16.7618   20.3398 N   0  0  0  0  0  0
  -31.4501  -13.1437   19.1514 H   0  0  0  0  0  0
  -30.5504  -12.0359   20.1397 H   0  0  0  0  0  0
  -29.9462  -11.7909   17.7035 H   0  0  0  0  0  0
  -29.5328  -13.4844   17.6277 H   0  0  0  0  0  0
  -28.0937  -11.2819   19.1289 H   0  0  0  0  0  0
  -27.4215  -12.2953   17.8760 H   0  0  0  0  0  0
  -27.4828  -14.2196   19.2946 H   0  0  0  0  0  0
  -28.8656  -12.6264   21.4988 H   0  0  0  0  0  0
  -28.2624  -14.2552   21.6606 H   0  0  0  0  0  0
  -25.2834   -9.5550   22.4790 H   0  0  0  0  0  0
  -23.9950   -7.4582   22.7508 H   0  0  0  0  0  0
  -21.0854   -8.8850   19.9011 H   0  0  0  0  0  0
  -22.3836  -10.9661   19.6167 H   0  0  0  0  0  0
  -21.2023   -7.6139   23.9728 H   0  0  0  0  0  0
  -21.1493   -6.0522   25.9104 H   0  0  0  0  0  0
  -22.0590   -2.7598   23.2872 H   0  0  0  0  0  0
  -22.4093  -11.9891   22.4812 H   0  0  0  0  0  0
  -21.1067  -13.1270   22.2616 H   0  0  0  0  0  0
  -24.6268  -15.8348   20.5847 H   0  0  0  0  0  0
  -26.2699  -15.6700   20.2405 H   0  0  0  0  0  0
  -26.7336  -32.5092   23.0896 H   0  0  0  0  0  0
  -24.9979  -33.9489   25.0147 H   0  0  0  0  0  0
  -22.8014  -31.2488   21.3271 H   0  0  0  0  0  0
  -23.3767  -35.9517   23.3308 H   0  0  0  0  0  0
  -24.3552  -36.8877   22.2083 H   0  0  0  0  0  0
  -23.7247  -37.6391   23.6721 H   0  0  0  0  0  0
  -26.2474  -31.3269   20.6257 H   0  0  0  0  0  0
  -26.9135  -30.6573   22.0696 H   0  0  0  0  0  0
  -28.1291  -28.5097   21.3505 H   0  0  0  0  0  0
  -25.8996  -25.6902   18.9862 H   0  0  0  0  0  0
  -24.0406  -27.2461   18.9176 H   0  0  0  0  0  0
  -23.8960  -30.4893   19.3818 H   0  0  0  0  0  0
  -22.8455  -29.1801   19.8180 H   0  0  0  0  0  0
  -25.1335  -36.1794   25.0808 H   0  0  0  0  0  0
  -21.0060  -28.3300   24.1284 H   0  0  0  0  0  0
  -20.5635  -26.2336   23.3635 H   0  0  0  0  0  0
  -21.6660  -26.7328   22.1233 H   0  0  0  0  0  0
  -19.6929  -25.6207   21.1294 H   0  0  0  0  0  0
  -19.6708  -27.3078   20.6687 H   0  0  0  0  0  0
  -17.4223  -26.6625   21.4039 H   0  0  0  0  0  0
  -18.0385  -26.0042   22.9034 H   0  0  0  0  0  0
  -19.7984  -30.7281   24.2191 H   0  0  0  0  0  0
  -17.5046  -31.6261   24.5098 H   0  0  0  0  0  0
  -15.5382  -30.2920   23.7667 H   0  0  0  0  0  0
  -15.8730  -28.0729   22.7146 H   0  0  0  0  0  0
  -24.5800  -30.7183   25.7664 H   0  0  0  0  0  0
  -24.8872  -32.2982   26.4788 H   0  0  0  0  0  0
  -25.7868  -30.8959   27.0198 H   0  0  0  0  0  0
  -26.3138  -29.6556   24.1538 H   0  0  0  0  0  0
  -27.3950  -29.7341   25.5227 H   0  0  0  0  0  0
  -27.9108  -30.4116   23.9982 H   0  0  0  0  0  0
  -27.2488  -33.3701   26.2069 H   0  0  0  0  0  0
  -28.3811  -32.7035   25.0383 H   0  0  0  0  0  0
  -28.0663  -31.8623   26.5518 H   0  0  0  0  0  0
  -28.2575  -38.0089   24.7484 H   0  0  0  0  0  0
  -28.1100  -36.2611   24.6330 H   0  0  0  0  0  0
  -27.2293  -37.1458   25.8877 H   0  0  0  0  0  0
  -20.9595  -29.8730   21.6690 H   0  0  0  0  0  0
  -26.0156  -38.2766   24.1362 H   0  0  0  0  0  0
  -30.5434  -17.9765   18.2883 H   0  0  0  0  0  0
  -29.7465  -17.0906   17.9610 H   0  0  0  0  0  0
  -28.2877  -16.0917   18.8294 H   0  0  0  0  0  0
  -27.7138  -17.4251   19.8460 H   0  0  0  0  0  0
  -30.9831  -18.6186   20.0475 H   0  0  0  0  0  0
  -29.1748  -20.2399   17.2667 H   0  0  0  0  0  0
  -30.6790  -20.2908   18.2341 H   0  0  0  0  0  0
  -30.5367  -21.2600   16.8197 H   0  0  0  0  0  0
  -30.6388  -23.6556   16.4397 H   0  0  0  0  0  0
  -29.1472  -24.5232   16.1568 H   0  0  0  0  0  0
  -29.2199  -22.8019   15.8140 H   0  0  0  0  0  0
  -28.0426  -19.7826   20.5758 H   0  0  0  0  0  0
  -29.3779  -20.1683   21.5592 H   0  0  0  0  0  0
  1 25  1  0  0  0
  1 30  2  0  0  0
  1 83  1  0  0  0
  2  3  1  0  0  0
  2 25  1  0  0  0
  2 84  1  0  0  0
  2 85  1  0  0  0
  3  4  1  0  0  0
  3 86  1  0  0  0
  3 87  1  0  0  0
  4  5  1  0  0  0
  4 88  1  0  0  0
  4 89  1  0  0  0
  5  6  1  0  0  0
  5 26  1  0  0  0
  5 90  1  0  0  0
  6 25  1  0  0  0
  6 91  1  0  0  0
  6 92  1  0  0  0
  7  8  2  0  0  0
  7 26  1  0  0  0
  7 29  1  0  0  0
  8  9  1  0  0  0
  8 22  1  0  0  0
  9 10  1  0  0  0
  9 27  2  0  0  0
 10 11  2  0  0  0
 10 15  1  0  0  0
 11 12  1  0  0  0
 11 93  1  0  0  0
 12 13  2  0  0  0
 12 94  1  0  0  0
 13 14  1  0  0  0
 13 31  1  0  0  0
 14 15  2  0  0  0
 14 95  1  0  0  0
 15 96  1  0  0  0
 16 17  2  0  0  0
 16 21  1  0  0  0
 16 31  1  0  0  0
 17 18  1  0  0  0
 17 97  1  0  0  0
 18 19  2  0  0  0
 18 98  1  0  0  0
 19 20  1  0  0  0
 19 24  1  0  0  0
 20 21  2  0  0  0
 20 99  1  0  0  0
 21 23  1  0  0  0
 22 28  1  0  0  0
 22 32  2  0  0  0
 26 27  1  0  0  0
 28100  1  0  0  0
 28101  1  0  0  0
 29102  1  0  0  0
 29103  1  0  0  0
 33 34  1  0  0  0
 33 66  1  0  0  0
 33 70  2  0  0  0
 34 36  1  0  0  0
 34 59  1  0  0  0
 34104  1  0  0  0
 35 44  2  0  0  0
 35 45  1  0  0  0
 35 68  1  0  0  0
 36 56  1  0  0  0
 36105  1  0  0  0
 37 39  1  0  0  0
 37 47  1  0  0  0
 37 66  1  0  0  0
 37106  1  0  0  0
 38 43  2  0  0  0
 38 46  1  0  0  0
 38 47  1  0  0  0
 39 64  1  0  0  0
 39 67  2  0  0  0
 40 52  1  0  0  0
 40 53  2  0  0  0
 40 58  1  0  0  0
 41107  1  0  0  0
 41108  1  0  0  0
 41109  1  0  0  0
 41 48  1  0  0  0
 42 43  1  0  0  0
 42 66  1  0  0  0
 42110  1  0  0  0
 42111  1  0  0  0
 43 44  1  0  0  0
 44112  1  0  0  0
 45 46  2  0  0  0
 45113  1  0  0  0
 46114  1  0  0  0
 47115  1  0  0  0
 47116  1  0  0  0
 48 56  1  0  0  0
 48 65  1  0  0  0
 48117  1  0  0  0
 49 50  1  0  0  0
 49 53  1  0  0  0
 49 64  1  0  0  0
 49118  1  0  0  0
 50 51  1  0  0  0
 50119  1  0  0  0
 50120  1  0  0  0
 51 52  1  0  0  0
 51121  1  0  0  0
 51122  1  0  0  0
 52123  1  0  0  0
 52124  1  0  0  0
 53 54  1  0  0  0
 54 55  2  0  0  0
 54125  1  0  0  0
 55 57  1  0  0  0
 55126  1  0  0  0
 56 69  2  0  0  0
 57 58  2  0  0  0
 57127  1  0  0  0
 58128  1  0  0  0
 59 60  1  0  0  0
 59 61  1  0  0  0
 59 62  1  0  0  0
 60129  1  0  0  0
 60130  1  0  0  0
 60131  1  0  0  0
 61132  1  0  0  0
 61133  1  0  0  0
 61134  1  0  0  0
 62135  1  0  0  0
 62136  1  0  0  0
 62137  1  0  0  0
 63 65  1  0  0  0
 63138  1  0  0  0
 63139  1  0  0  0
 63140  1  0  0  0
 64141  1  0  0  0
 65142  1  0  0  0
 68 74  1  0  0  0
 71 72  2  0  0  0
 71 73  1  0  0  0
 71 78  1  0  0  0
 72 79  1  0  0  0
 72 81  1  0  0  0
 73 80  1  0  0  0
 73 82  2  0  0  0
 74 81  2  0  0  0
 74 82  1  0  0  0
 75 76  1  0  0  0
 75 77  1  0  0  0
 75143  1  0  0  0
 75144  1  0  0  0
 76 83  1  0  0  0
 76145  1  0  0  0
 76146  1  0  0  0
 77 80  1  0  0  0
 77 83  1  0  0  0
 77147  1  0  0  0
 78148  1  0  0  0
 78149  1  0  0  0
 78150  1  0  0  0
 79151  1  0  0  0
 79152  1  0  0  0
 79153  1  0  0  0
 80154  1  0  0  0
 80155  1  0  0  0
M  ISO  4   1 100  68 101  74 101  83 100
M  END
> <chiral flag>
0

> <version>
0

> <s_m_source_file>
/data/baiqing/PycharmProjects/Reinvent-master-3.2/result/LINK_invent/BTK/process_docking_weight1_custom_sum_contain_oxygen_bond_distance_aromatic_linkinvent_7_9_3/rearranged_h_0176.sdf

> <i_m_source_file_index>
61

> <r_mmod_Potential_Energy-OPLS-2005>
1660.40112304688

> <r_mmod_Stretch_Energy-OPLS-2005>
742.281555175781

> <r_mmod_Bend_Energy-OPLS-2005>
703.066589355469

> <r_mmod_Torsional_Energy-OPLS-2005>
303.278594970703

> <r_mmod_Improper_Torsional_Energy-OPLS-2005>
15.0566654205322

> <r_mmod_Van_der_Waal_Energy-OPLS-2005>
148.837707519531

> <r_mmod_Electrostatic_Energy-OPLS-2005>
-621.6279296875

> <r_mmod_Solvation_Energy-OPLS-2005>
-242.923324584961

> <b_mmod_Minimization_Converged-OPLS-2005>
0

> <r_mmod_RMS_Derivative-OPLS-2005>
5.42141580581665

$$$$
61
                    3D
 Structure written by MMmdl.
158167  0  0  1  0            999 V2000
  -30.7013  -14.5956   20.4964 C   0  0  0  0  0  0
  -30.4145  -12.3673   19.4579 C   0  0  0  0  0  0
  -29.4985  -12.4891   18.2236 C   0  0  0  0  0  0
  -28.0220  -12.3426   18.6364 C   0  0  0  0  0  0
  -27.6476  -13.2274   19.8566 C   0  0  2  0  0  0
  -28.6929  -13.1213   20.9897 C   0  0  0  0  0  0
  -25.2530  -13.8202   20.5700 C   0  0  0  0  0  0
  -24.1813  -13.0454   20.9207 C   0  0  0  0  0  0
  -24.6396  -11.6927   20.8750 C   0  0  0  0  0  0
  -23.9073  -10.4303   21.0411 C   0  0  0  0  0  0
  -24.3625   -9.4214   21.9186 C   0  0  0  0  0  0
  -23.6299   -8.2249   22.0753 C   0  0  0  0  0  0
  -22.4281   -8.0288   21.3545 C   0  0  0  0  0  0
  -21.9920   -9.0262   20.4646 C   0  0  0  0  0  0
  -22.7249  -10.2141   20.3057 C   0  0  0  0  0  0
  -21.6852   -6.0741   22.5282 C   0  0  0  0  0  0
  -21.4013   -6.5643   23.8216 C   0  0  0  0  0  0
  -21.3660   -5.6794   24.9177 C   0  0  0  0  0  0
  -21.6045   -4.3057   24.7226 C   0  0  0  0  0  0
  -21.8818   -3.8151   23.4346 C   0  0  0  0  0  0
  -21.9194   -4.6969   22.3403 C   0  0  0  0  0  0
  -22.7832  -13.5234   21.1866 C   0  0  0  0  0  0
  -22.1662   -4.2155   21.0979 F   0  0  0  0  0  0
  -21.5631   -3.4538   25.7737 F   0  0  0  0  0  0
  -30.0083  -13.4193   20.4112 N   0  0  0  0  0  0
  -26.2964  -12.9407   20.3315 N   0  0  0  0  0  0
  -25.9327  -11.6551   20.5773 N   0  0  0  0  0  0
  -22.0475  -12.8219   22.0415 N   0  0  0  0  0  0
  -25.4228  -15.1925   20.4103 N   0  0  0  0  0  0
  -31.8803  -14.6602   20.1425 O   0  0  0  0  0  0
  -21.6642   -6.8885   21.4244 O   0  0  0  0  0  0
  -22.3515  -14.5541   20.6716 O   0  0  0  0  0  0
  -24.6251  -31.8628   23.2070 C   0  0  0  0  0  0
  -25.9107  -32.4793   23.8384 C   0  0  1  0  0  0
  -27.2059  -27.3239   20.1078 C   0  0  0  0  0  0
  -25.5929  -33.8594   24.2303 N   0  0  0  0  0  0
  -23.4172  -30.4924   21.5496 C   0  0  2  0  0  0
  -24.8608  -28.9621   20.1055 C   0  0  0  0  0  0
  -22.7472  -29.4640   22.4927 C   0  0  0  0  0  0
  -18.0292  -28.1377   22.8490 C   0  0  0  0  0  0
  -24.1490  -36.7298   23.2640 C   0  0  0  0  0  0
  -25.9615  -30.7939   21.3816 C   0  0  0  0  0  0
  -26.0325  -29.4259   20.7178 C   0  0  0  0  0  0
  -27.2091  -28.6171   20.7156 C   0  0  0  0  0  0
  -26.0131  -26.9341   19.4471 C   0  0  0  0  0  0
  -24.8530  -27.7209   19.4614 C   0  0  0  0  0  0
  -23.6303  -29.8401   20.1606 C   0  0  0  0  0  0
  -25.4112  -36.3091   24.0332 C   0  0  1  0  0  0
  -20.5892  -28.3679   23.1278 C   0  0  2  0  0  0
  -20.6777  -26.9400   22.5403 C   0  0  0  0  0  0
  -19.5749  -26.6379   21.5208 C   0  0  0  0  0  0
  -18.1934  -26.7922   22.1627 C   0  0  0  0  0  0
  -19.1544  -28.8843   23.2884 C   0  0  0  0  0  0
  -18.9468  -30.1450   23.8891 C   0  0  0  0  0  0
  -17.6467  -30.6578   24.0560 C   0  0  0  0  0  0
  -25.9050  -34.9458   23.5114 C   0  0  0  0  0  0
  -16.5358  -29.9074   23.6330 C   0  0  0  0  0  0
  -16.7279  -28.6496   23.0346 C   0  0  0  0  0  0
  -26.4487  -31.6592   25.0746 C   0  0  0  0  0  0
  -25.3726  -31.3730   26.1478 C   0  0  0  0  0  0
  -27.0329  -30.3018   24.6193 C   0  0  0  0  0  0
  -27.6049  -32.4320   25.7516 C   0  0  0  0  0  0
  -27.5578  -37.1809   24.8467 C   0  0  0  0  0  0
  -21.4185  -29.3046   22.3678 N   0  0  0  0  0  0
  -26.4292  -37.3783   23.9408 N   0  0  0  0  0  0
  -24.6866  -31.0655   22.1023 N   0  0  0  0  0  0
  -23.4212  -28.8158   23.2975 O   0  0  0  0  0  0
  -28.2896  -26.4284   20.1891 O   0  0  0  0  0  0
  -26.5614  -34.8916   22.4677 O   0  0  0  0  0  0
  -23.5413  -32.1422   23.7400 O   0  0  0  0  0  0
  -29.7321  -19.1963   19.4986 C   0  0  0  0  0  0
  -29.9165  -18.4726   20.6993 C   0  0  0  0  0  0
  -29.5777  -19.2144   21.8557 C   0  0  0  0  0  0
  -28.9203  -21.0637   20.6029 C   0  0  0  0  0  0
  -26.7370  -22.2833   21.2897 C   0  0  0  0  0  0
  -26.7343  -22.2002   19.7964 C   0  0  0  0  0  0
  -28.0636  -22.3608   20.5350 C   0  0  0  0  0  0
  -29.7615  -18.6397   23.2453 C   0  0  0  0  0  0
  -30.6892  -17.1040   20.7262 C   0  0  0  0  0  0
  -28.8196  -23.7542   20.4926 C   0  0  0  0  0  0
  -27.9369  -24.9972   20.0313 C   0  0  0  0  0  0
  -29.2412  -20.4633   19.4562 N   0  0  0  0  0  0
  -29.0962  -20.4855   21.7952 N   0  0  0  0  0  0
  -30.0250  -15.7540   20.7772 N   0  0  0  0  0  0
  -31.4607  -12.4480   19.1583 H   0  0  0  0  0  0
  -30.3134  -11.3828   19.9178 H   0  0  0  0  0  0
  -29.7569  -11.7285   17.4854 H   0  0  0  0  0  0
  -29.6544  -13.4540   17.7383 H   0  0  0  0  0  0
  -27.8532  -11.2921   18.8766 H   0  0  0  0  0  0
  -27.3693  -12.5682   17.7924 H   0  0  0  0  0  0
  -27.6577  -14.2574   19.4992 H   0  0  0  0  0  0
  -28.6924  -12.1211   21.4250 H   0  0  0  0  0  0
  -28.4526  -13.8074   21.8032 H   0  0  0  0  0  0
  -25.2770   -9.5690   22.4762 H   0  0  0  0  0  0
  -24.0011   -7.4638   22.7470 H   0  0  0  0  0  0
  -21.0854   -8.8784   19.8946 H   0  0  0  0  0  0
  -22.3713  -10.9682   19.6167 H   0  0  0  0  0  0
  -21.2001   -7.6150   23.9722 H   0  0  0  0  0  0
  -21.1483   -6.0521   25.9080 H   0  0  0  0  0  0
  -22.0595   -2.7613   23.2843 H   0  0  0  0  0  0
  -22.4089  -11.9877   22.4799 H   0  0  0  0  0  0
  -21.1091  -13.1239   22.2617 H   0  0  0  0  0  0
  -24.6561  -15.8472   20.5198 H   0  0  0  0  0  0
  -26.2719  -15.6313   20.0774 H   0  0  0  0  0  0
  -26.7172  -32.5459   23.1130 H   0  0  0  0  0  0
  -25.0080  -33.9749   25.0449 H   0  0  0  0  0  0
  -22.7101  -31.3136   21.4130 H   0  0  0  0  0  0
  -23.3752  -35.9634   23.3308 H   0  0  0  0  0  0
  -24.3589  -36.8905   22.2056 H   0  0  0  0  0  0
  -23.7245  -37.6504   23.6654 H   0  0  0  0  0  0
  -26.0998  -31.5602   20.6175 H   0  0  0  0  0  0
  -26.8406  -30.8356   22.0129 H   0  0  0  0  0  0
  -28.1008  -28.9609   21.2211 H   0  0  0  0  0  0
  -25.9269  -25.9958   18.9215 H   0  0  0  0  0  0
  -23.9584  -27.3643   18.9689 H   0  0  0  0  0  0
  -23.7495  -30.6225   19.4101 H   0  0  0  0  0  0
  -22.7497  -29.2724   19.8546 H   0  0  0  0  0  0
  -25.1293  -36.1946   25.0825 H   0  0  0  0  0  0
  -21.0000  -28.3244   24.1391 H   0  0  0  0  0  0
  -20.5675  -26.2282   23.3599 H   0  0  0  0  0  0
  -21.6644  -26.7420   22.1196 H   0  0  0  0  0  0
  -19.6907  -25.6293   21.1225 H   0  0  0  0  0  0
  -19.6683  -27.3199   20.6747 H   0  0  0  0  0  0
  -17.4200  -26.6668   21.4033 H   0  0  0  0  0  0
  -18.0339  -26.0064   22.9023 H   0  0  0  0  0  0
  -19.7945  -30.7273   24.2248 H   0  0  0  0  0  0
  -17.5022  -31.6258   24.5164 H   0  0  0  0  0  0
  -15.5359  -30.2972   23.7660 H   0  0  0  0  0  0
  -15.8683  -28.0816   22.7049 H   0  0  0  0  0  0
  -24.5899  -30.7073   25.7816 H   0  0  0  0  0  0
  -24.8919  -32.2897   26.4907 H   0  0  0  0  0  0
  -25.8058  -30.8915   27.0253 H   0  0  0  0  0  0
  -26.2910  -29.6781   24.1194 H   0  0  0  0  0  0
  -27.4008  -29.7255   25.4694 H   0  0  0  0  0  0
  -27.8786  -30.4312   23.9436 H   0  0  0  0  0  0
  -27.2665  -33.3615   26.2107 H   0  0  0  0  0  0
  -28.3859  -32.6881   25.0346 H   0  0  0  0  0  0
  -28.0717  -31.8438   26.5425 H   0  0  0  0  0  0
  -28.2602  -38.0101   24.7507 H   0  0  0  0  0  0
  -28.1064  -36.2631   24.6298 H   0  0  0  0  0  0
  -27.2297  -37.1469   25.8872 H   0  0  0  0  0  0
  -20.9343  -29.8807   21.6933 H   0  0  0  0  0  0
  -26.0170  -38.2858   24.1401 H   0  0  0  0  0  0
  -30.0153  -18.7649   18.5498 H   0  0  0  0  0  0
  -26.5147  -21.3664   21.8328 H   0  0  0  0  0  0
  -26.3506  -23.1834   21.7587 H   0  0  0  0  0  0
  -26.3111  -23.0383   19.2505 H   0  0  0  0  0  0
  -26.5237  -21.2266   19.3573 H   0  0  0  0  0  0
  -29.4077  -17.6094   23.2839 H   0  0  0  0  0  0
  -29.2056  -19.2089   23.9903 H   0  0  0  0  0  0
  -30.8152  -18.6523   23.5231 H   0  0  0  0  0  0
  -31.3925  -17.1407   21.5600 H   0  0  0  0  0  0
  -31.3277  -17.1187   19.8401 H   0  0  0  0  0  0
  -29.6730  -23.6598   19.8207 H   0  0  0  0  0  0
  -29.2308  -23.9376   21.4850 H   0  0  0  0  0  0
  -26.9958  -24.8784   20.5642 H   0  0  0  0  0  0
  -27.7325  -24.8399   18.9714 H   0  0  0  0  0  0
  -29.0454  -15.6889   21.0100 H   0  0  0  0  0  0
  1 25  1  0  0  0
  1 30  2  0  0  0
  1 84  1  0  0  0
  2  3  1  0  0  0
  2 25  1  0  0  0
  2 85  1  0  0  0
  2 86  1  0  0  0
  3  4  1  0  0  0
  3 87  1  0  0  0
  3 88  1  0  0  0
  4  5  1  0  0  0
  4 89  1  0  0  0
  4 90  1  0  0  0
  5  6  1  0  0  0
  5 26  1  0  0  0
  5 91  1  0  0  0
  6 25  1  0  0  0
  6 92  1  0  0  0
  6 93  1  0  0  0
  7  8  2  0  0  0
  7 26  1  0  0  0
  7 29  1  0  0  0
  8  9  1  0  0  0
  8 22  1  0  0  0
  9 10  1  0  0  0
  9 27  2  0  0  0
 10 11  2  0  0  0
 10 15  1  0  0  0
 11 12  1  0  0  0
 11 94  1  0  0  0
 12 13  2  0  0  0
 12 95  1  0  0  0
 13 14  1  0  0  0
 13 31  1  0  0  0
 14 15  2  0  0  0
 14 96  1  0  0  0
 15 97  1  0  0  0
 16 17  2  0  0  0
 16 21  1  0  0  0
 16 31  1  0  0  0
 17 18  1  0  0  0
 17 98  1  0  0  0
 18 19  2  0  0  0
 18 99  1  0  0  0
 19 20  1  0  0  0
 19 24  1  0  0  0
 20 21  2  0  0  0
 20100  1  0  0  0
 21 23  1  0  0  0
 22 28  1  0  0  0
 22 32  2  0  0  0
 26 27  1  0  0  0
 28101  1  0  0  0
 28102  1  0  0  0
 29103  1  0  0  0
 29104  1  0  0  0
 33 34  1  0  0  0
 33 66  1  0  0  0
 33 70  2  0  0  0
 34 36  1  0  0  0
 34 59  1  0  0  0
 34105  1  0  0  0
 35 44  2  0  0  0
 35 45  1  0  0  0
 35 68  1  0  0  0
 36 56  1  0  0  0
 36106  1  0  0  0
 37 39  1  0  0  0
 37 47  1  0  0  0
 37 66  1  0  0  0
 37107  1  0  0  0
 38 43  2  0  0  0
 38 46  1  0  0  0
 38 47  1  0  0  0
 39 64  1  0  0  0
 39 67  2  0  0  0
 40 52  1  0  0  0
 40 53  2  0  0  0
 40 58  1  0  0  0
 41108  1  0  0  0
 41109  1  0  0  0
 41110  1  0  0  0
 41 48  1  0  0  0
 42 43  1  0  0  0
 42 66  1  0  0  0
 42111  1  0  0  0
 42112  1  0  0  0
 43 44  1  0  0  0
 44113  1  0  0  0
 45 46  2  0  0  0
 45114  1  0  0  0
 46115  1  0  0  0
 47116  1  0  0  0
 47117  1  0  0  0
 48 56  1  0  0  0
 48 65  1  0  0  0
 48118  1  0  0  0
 49 50  1  0  0  0
 49 53  1  0  0  0
 49 64  1  0  0  0
 49119  1  0  0  0
 50 51  1  0  0  0
 50120  1  0  0  0
 50121  1  0  0  0
 51 52  1  0  0  0
 51122  1  0  0  0
 51123  1  0  0  0
 52124  1  0  0  0
 52125  1  0  0  0
 53 54  1  0  0  0
 54 55  2  0  0  0
 54126  1  0  0  0
 55 57  1  0  0  0
 55127  1  0  0  0
 56 69  2  0  0  0
 57 58  2  0  0  0
 57128  1  0  0  0
 58129  1  0  0  0
 59 60  1  0  0  0
 59 61  1  0  0  0
 59 62  1  0  0  0
 60130  1  0  0  0
 60131  1  0  0  0
 60132  1  0  0  0
 61133  1  0  0  0
 61134  1  0  0  0
 61135  1  0  0  0
 62136  1  0  0  0
 62137  1  0  0  0
 62138  1  0  0  0
 63 65  1  0  0  0
 63139  1  0  0  0
 63140  1  0  0  0
 63141  1  0  0  0
 64142  1  0  0  0
 65143  1  0  0  0
 68 81  1  0  0  0
 71 72  2  0  0  0
 71 82  1  0  0  0
 71144  1  0  0  0
 72 73  1  0  0  0
 72 79  1  0  0  0
 73 78  1  0  0  0
 73 83  2  0  0  0
 74 77  1  0  0  0
 74 82  2  0  0  0
 74 83  1  0  0  0
 75 76  1  0  0  0
 75 77  1  0  0  0
 75145  1  0  0  0
 75146  1  0  0  0
 76 77  1  0  0  0
 76147  1  0  0  0
 76148  1  0  0  0
 77 80  1  0  0  0
 78149  1  0  0  0
 78150  1  0  0  0
 78151  1  0  0  0
 79 84  1  0  0  0
 79152  1  0  0  0
 79153  1  0  0  0
 80 81  1  0  0  0
 80154  1  0  0  0
 80155  1  0  0  0
 81156  1  0  0  0
 81157  1  0  0  0
 84158  1  0  0  0
M  ISO  4   1 100  68 101  81 101  84 100
M  END
> <chiral flag>
0

> <version>
0

> <s_m_source_file>
/data/baiqing/PycharmProjects/Reinvent-master-3.2/result/LINK_invent/BTK/process_docking_weight1_custom_sum_contain_oxygen_bond_distance_aromatic_linkinvent_7_9_3/rearranged_h_0176.sdf

> <i_m_source_file_index>
62

> <r_mmod_Potential_Energy-OPLS-2005>
-284.823272705078

> <r_mmod_Stretch_Energy-OPLS-2005>
76.7395782470703

> <r_mmod_Bend_Energy-OPLS-2005>
149.522705078125

> <r_mmod_Torsional_Energy-OPLS-2005>
227.393249511719

> <r_mmod_Improper_Torsional_Energy-OPLS-2005>
7.55418586730957

> <r_mmod_Van_der_Waal_Energy-OPLS-2005>
167.062469482422

> <r_mmod_Electrostatic_Energy-OPLS-2005>
-735.320861816406

> <r_mmod_Solvation_Energy-OPLS-2005>
-227.99186706543

> <b_mmod_Minimization_Converged-OPLS-2005>
0

> <r_mmod_RMS_Derivative-OPLS-2005>
0.742978692054749

$$$$
62
                    3D
 Structure written by MMmdl.
156165  0  0  1  0            999 V2000
  -30.3850  -15.4724   20.3486 C   0  0  0  0  0  0
  -30.4221  -12.9588   19.5414 C   0  0  0  0  0  0
  -29.5394  -12.6192   18.3114 C   0  0  0  0  0  0
  -28.1014  -12.2998   18.7458 C   0  0  0  0  0  0
  -27.5987  -13.2960   19.8170 C   0  0  2  0  0  0
  -28.6203  -13.5675   20.9440 C   0  0  0  0  0  0
  -25.2340  -13.8284   20.5790 C   0  0  0  0  0  0
  -24.1710  -13.0443   20.9264 C   0  0  0  0  0  0
  -24.6388  -11.6947   20.8752 C   0  0  0  0  0  0
  -23.9090  -10.4296   21.0386 C   0  0  0  0  0  0
  -24.3632   -9.4208   21.9165 C   0  0  0  0  0  0
  -23.6297   -8.2249   22.0749 C   0  0  0  0  0  0
  -22.4281   -8.0284   21.3540 C   0  0  0  0  0  0
  -21.9918   -9.0255   20.4642 C   0  0  0  0  0  0
  -22.7254  -10.2127   20.3039 C   0  0  0  0  0  0
  -21.6862   -6.0730   22.5269 C   0  0  0  0  0  0
  -21.4019   -6.5630   23.8203 C   0  0  0  0  0  0
  -21.3663   -5.6787   24.9168 C   0  0  0  0  0  0
  -21.6042   -4.3047   24.7216 C   0  0  0  0  0  0
  -21.8824   -3.8136   23.4341 C   0  0  0  0  0  0
  -21.9195   -4.6955   22.3395 C   0  0  0  0  0  0
  -22.7728  -13.5183   21.1906 C   0  0  0  0  0  0
  -22.1663   -4.2135   21.0974 F   0  0  0  0  0  0
  -21.5628   -3.4534   25.7733 F   0  0  0  0  0  0
  -29.8213  -14.1385   20.3011 N   0  0  0  0  0  0
  -26.2769  -12.9588   20.3232 N   0  0  0  0  0  0
  -25.9329  -11.6671   20.5706 N   0  0  0  0  0  0
  -22.0397  -12.8163   22.0465 N   0  0  0  0  0  0
  -25.3984  -15.2027   20.4282 N   0  0  0  0  0  0
  -31.6054  -15.3959   20.1112 O   0  0  0  0  0  0
  -21.6650   -6.8873   21.4233 O   0  0  0  0  0  0
  -22.3397  -14.5475   20.6735 O   0  0  0  0  0  0
  -24.6749  -31.8094   23.1586 C   0  0  0  0  0  0
  -25.9376  -32.4504   23.8098 C   0  0  1  0  0  0
  -27.2167  -26.7926   20.1965 C   0  0  0  0  0  0
  -25.6001  -33.8329   24.1992 N   0  0  0  0  0  0
  -23.4961  -30.4162   21.5101 C   0  0  2  0  0  0
  -24.9509  -28.7790   20.1084 C   0  0  0  0  0  0
  -22.7725  -29.4367   22.4730 C   0  0  0  0  0  0
  -18.0333  -28.1419   22.8468 C   0  0  0  0  0  0
  -24.1488  -36.7162   23.2651 C   0  0  0  0  0  0
  -26.0724  -30.5701   21.4119 C   0  0  0  0  0  0
  -26.1367  -29.1463   20.7567 C   0  0  0  0  0  0
  -27.2561  -28.1764   20.7763 C   0  0  0  0  0  0
  -26.0057  -26.6169   19.4839 C   0  0  0  0  0  0
  -24.9194  -27.5378   19.4509 C   0  0  0  0  0  0
  -23.7438  -29.7237   20.1395 C   0  0  0  0  0  0
  -25.4137  -36.2919   24.0294 C   0  0  1  0  0  0
  -20.5966  -28.3770   23.1164 C   0  0  2  0  0  0
  -20.6813  -26.9440   22.5406 C   0  0  0  0  0  0
  -19.5781  -26.6378   21.5224 C   0  0  0  0  0  0
  -18.1961  -26.7955   22.1622 C   0  0  0  0  0  0
  -19.1602  -28.8918   23.2801 C   0  0  0  0  0  0
  -18.9507  -30.1506   23.8838 C   0  0  0  0  0  0
  -17.6501  -30.6606   24.0551 C   0  0  0  0  0  0
  -25.9118  -34.9308   23.4971 C   0  0  0  0  0  0
  -16.5389  -29.9091   23.6350 C   0  0  0  0  0  0
  -16.7314  -28.6509   23.0374 C   0  0  0  0  0  0
  -26.4586  -31.6509   25.0687 C   0  0  0  0  0  0
  -25.3679  -31.3814   26.1323 C   0  0  0  0  0  0
  -27.0498  -30.2857   24.6530 C   0  0  0  0  0  0
  -27.6049  -32.4362   25.7493 C   0  0  0  0  0  0
  -27.5561  -37.1740   24.8466 C   0  0  0  0  0  0
  -21.4381  -29.3036   22.3492 N   0  0  0  0  0  0
  -26.4262  -37.3676   23.9418 N   0  0  0  0  0  0
  -24.7700  -30.9632   22.0790 N   0  0  0  0  0  0
  -23.4221  -28.7956   23.3025 O   0  0  0  0  0  0
  -28.1724  -25.6039   20.3147 O   0  0  0  0  0  0
  -26.5737  -34.8870   22.4573 O   0  0  0  0  0  0
  -23.5790  -32.1126   23.6597 O   0  0  0  0  0  0
  -28.8496  -21.0328   19.5060 C   0  0  0  0  0  0
  -29.1950  -19.6091   19.9924 C   0  0  0  0  0  0
  -29.2801  -19.4024   21.3403 C   0  0  0  0  0  0
  -28.6170  -22.3011   20.3430 C   0  0  0  0  0  0
  -29.0536  -20.6102   22.1307 C   0  0  0  0  0  0
  -29.5229  -18.0771   19.4111 C   0  0  0  0  0  0
  -29.6348  -17.8281   21.6753 C   0  0  0  0  0  0
  -29.1142  -20.5452   23.6447 C   0  0  0  0  0  0
  -31.0137  -17.7918   22.3655 C   0  0  0  0  0  0
  -28.5799  -17.2551   22.6397 C   0  0  0  0  0  0
  -27.9563  -23.9524   19.9162 C   0  0  0  0  0  0
  -28.7516  -21.9114   21.6657 N   0  0  0  0  0  0
  -29.6927  -16.8461   20.4463 N   0  0  0  0  0  0
  -31.4315  -13.1790   19.1919 H   0  0  0  0  0  0
  -30.5339  -12.0895   20.1914 H   0  0  0  0  0  0
  -29.9614  -11.7800   17.7573 H   0  0  0  0  0  0
  -29.5329  -13.4694   17.6273 H   0  0  0  0  0  0
  -28.0950  -11.2895   19.1560 H   0  0  0  0  0  0
  -27.4322  -12.2867   17.8842 H   0  0  0  0  0  0
  -27.4811  -14.2362   19.2763 H   0  0  0  0  0  0
  -28.8406  -12.6652   21.5167 H   0  0  0  0  0  0
  -28.2108  -14.2886   21.6516 H   0  0  0  0  0  0
  -25.2772   -9.5691   22.4747 H   0  0  0  0  0  0
  -23.9999   -7.4647   22.7482 H   0  0  0  0  0  0
  -21.0841   -8.8775   19.8953 H   0  0  0  0  0  0
  -22.3699  -10.9666   19.6150 H   0  0  0  0  0  0
  -21.2016   -7.6139   23.9700 H   0  0  0  0  0  0
  -21.1478   -6.0517   25.9069 H   0  0  0  0  0  0
  -22.0598   -2.7598   23.2844 H   0  0  0  0  0  0
  -22.4041  -11.9834   22.4855 H   0  0  0  0  0  0
  -21.1006  -13.1159   22.2669 H   0  0  0  0  0  0
  -24.6331  -15.8557   20.5583 H   0  0  0  0  0  0
  -26.2553  -15.6508   20.1294 H   0  0  0  0  0  0
  -26.7445  -32.4991   23.0803 H   0  0  0  0  0  0
  -25.0118  -33.9384   25.0122 H   0  0  0  0  0  0
  -22.8171  -31.2523   21.3296 H   0  0  0  0  0  0
  -23.3762  -35.9478   23.3281 H   0  0  0  0  0  0
  -24.3568  -36.8840   22.2072 H   0  0  0  0  0  0
  -23.7228  -37.6333   23.6731 H   0  0  0  0  0  0
  -26.2721  -31.3026   20.6288 H   0  0  0  0  0  0
  -26.9256  -30.6303   22.0754 H   0  0  0  0  0  0
  -28.1427  -28.4551   21.3280 H   0  0  0  0  0  0
  -25.8517  -25.6739   18.9791 H   0  0  0  0  0  0
  -24.0221  -27.2486   18.9213 H   0  0  0  0  0  0
  -23.9092  -30.4895   19.3803 H   0  0  0  0  0  0
  -22.8495  -29.1870   19.8176 H   0  0  0  0  0  0
  -25.1341  -36.1688   25.0786 H   0  0  0  0  0  0
  -21.0061  -28.3385   24.1283 H   0  0  0  0  0  0
  -20.5684  -26.2399   23.3663 H   0  0  0  0  0  0
  -21.6679  -26.7396   22.1222 H   0  0  0  0  0  0
  -19.6938  -25.6271   21.1295 H   0  0  0  0  0  0
  -19.6725  -27.3164   20.6737 H   0  0  0  0  0  0
  -17.4241  -26.6709   21.4013 H   0  0  0  0  0  0
  -18.0321  -26.0109   22.9021 H   0  0  0  0  0  0
  -19.7983  -30.7340   24.2182 H   0  0  0  0  0  0
  -17.5046  -31.6275   24.5165 H   0  0  0  0  0  0
  -15.5385  -30.2971   23.7712 H   0  0  0  0  0  0
  -15.8714  -28.0804   22.7133 H   0  0  0  0  0  0
  -24.5896  -30.7116   25.7646 H   0  0  0  0  0  0
  -24.8826  -32.3026   26.4554 H   0  0  0  0  0  0
  -25.7889  -30.9123   27.0223 H   0  0  0  0  0  0
  -26.3194  -29.6499   24.1512 H   0  0  0  0  0  0
  -27.3941  -29.7276   25.5246 H   0  0  0  0  0  0
  -27.9174  -30.3993   24.0029 H   0  0  0  0  0  0
  -27.2596  -33.3729   26.1879 H   0  0  0  0  0  0
  -28.3954  -32.6820   25.0390 H   0  0  0  0  0  0
  -28.0612  -31.8618   26.5563 H   0  0  0  0  0  0
  -28.2550  -38.0063   24.7530 H   0  0  0  0  0  0
  -28.1081  -36.2592   24.6263 H   0  0  0  0  0  0
  -27.2292  -37.1344   25.8871 H   0  0  0  0  0  0
  -20.9655  -29.8686   21.6576 H   0  0  0  0  0  0
  -26.0089  -38.2718   24.1448 H   0  0  0  0  0  0
  -28.7325  -21.1532   18.4374 H   0  0  0  0  0  0
  -30.4374  -18.1360   18.8204 H   0  0  0  0  0  0
  -28.7316  -17.8114   18.7096 H   0  0  0  0  0  0
  -30.0917  -20.2128   23.9870 H   0  0  0  0  0  0
  -28.3494  -19.8769   24.0347 H   0  0  0  0  0  0
  -28.9359  -21.5217   24.0940 H   0  0  0  0  0  0
  -31.0370  -18.3863   23.2753 H   0  0  0  0  0  0
  -31.7942  -18.1759   21.7067 H   0  0  0  0  0  0
  -31.2984  -16.7817   22.6606 H   0  0  0  0  0  0
  -28.5803  -17.7603   23.6025 H   0  0  0  0  0  0
  -28.7636  -16.2036   22.8559 H   0  0  0  0  0  0
  -27.5749  -17.3349   22.2235 H   0  0  0  0  0  0
  -26.8902  -23.8104   20.0923 H   0  0  0  0  0  0
  -28.0382  -23.9642   18.8293 H   0  0  0  0  0  0
  1 25  1  0  0  0
  1 30  2  0  0  0
  1 83  1  0  0  0
  2  3  1  0  0  0
  2 25  1  0  0  0
  2 84  1  0  0  0
  2 85  1  0  0  0
  3  4  1  0  0  0
  3 86  1  0  0  0
  3 87  1  0  0  0
  4  5  1  0  0  0
  4 88  1  0  0  0
  4 89  1  0  0  0
  5  6  1  0  0  0
  5 26  1  0  0  0
  5 90  1  0  0  0
  6 25  1  0  0  0
  6 91  1  0  0  0
  6 92  1  0  0  0
  7  8  2  0  0  0
  7 26  1  0  0  0
  7 29  1  0  0  0
  8  9  1  0  0  0
  8 22  1  0  0  0
  9 10  1  0  0  0
  9 27  2  0  0  0
 10 11  2  0  0  0
 10 15  1  0  0  0
 11 12  1  0  0  0
 11 93  1  0  0  0
 12 13  2  0  0  0
 12 94  1  0  0  0
 13 14  1  0  0  0
 13 31  1  0  0  0
 14 15  2  0  0  0
 14 95  1  0  0  0
 15 96  1  0  0  0
 16 17  2  0  0  0
 16 21  1  0  0  0
 16 31  1  0  0  0
 17 18  1  0  0  0
 17 97  1  0  0  0
 18 19  2  0  0  0
 18 98  1  0  0  0
 19 20  1  0  0  0
 19 24  1  0  0  0
 20 21  2  0  0  0
 20 99  1  0  0  0
 21 23  1  0  0  0
 22 28  1  0  0  0
 22 32  2  0  0  0
 26 27  1  0  0  0
 28100  1  0  0  0
 28101  1  0  0  0
 29102  1  0  0  0
 29103  1  0  0  0
 33 34  1  0  0  0
 33 66  1  0  0  0
 33 70  2  0  0  0
 34 36  1  0  0  0
 34 59  1  0  0  0
 34104  1  0  0  0
 35 44  2  0  0  0
 35 45  1  0  0  0
 35 68  1  0  0  0
 36 56  1  0  0  0
 36105  1  0  0  0
 37 39  1  0  0  0
 37 47  1  0  0  0
 37 66  1  0  0  0
 37106  1  0  0  0
 38 43  2  0  0  0
 38 46  1  0  0  0
 38 47  1  0  0  0
 39 64  1  0  0  0
 39 67  2  0  0  0
 40 52  1  0  0  0
 40 53  2  0  0  0
 40 58  1  0  0  0
 41107  1  0  0  0
 41108  1  0  0  0
 41109  1  0  0  0
 41 48  1  0  0  0
 42 43  1  0  0  0
 42 66  1  0  0  0
 42110  1  0  0  0
 42111  1  0  0  0
 43 44  1  0  0  0
 44112  1  0  0  0
 45 46  2  0  0  0
 45113  1  0  0  0
 46114  1  0  0  0
 47115  1  0  0  0
 47116  1  0  0  0
 48 56  1  0  0  0
 48 65  1  0  0  0
 48117  1  0  0  0
 49 50  1  0  0  0
 49 53  1  0  0  0
 49 64  1  0  0  0
 49118  1  0  0  0
 50 51  1  0  0  0
 50119  1  0  0  0
 50120  1  0  0  0
 51 52  1  0  0  0
 51121  1  0  0  0
 51122  1  0  0  0
 52123  1  0  0  0
 52124  1  0  0  0
 53 54  1  0  0  0
 54 55  2  0  0  0
 54125  1  0  0  0
 55 57  1  0  0  0
 55126  1  0  0  0
 56 69  2  0  0  0
 57 58  2  0  0  0
 57127  1  0  0  0
 58128  1  0  0  0
 59 60  1  0  0  0
 59 61  1  0  0  0
 59 62  1  0  0  0
 60129  1  0  0  0
 60130  1  0  0  0
 60131  1  0  0  0
 61132  1  0  0  0
 61133  1  0  0  0
 61134  1  0  0  0
 62135  1  0  0  0
 62136  1  0  0  0
 62137  1  0  0  0
 63 65  1  0  0  0
 63138  1  0  0  0
 63139  1  0  0  0
 63140  1  0  0  0
 64141  1  0  0  0
 65142  1  0  0  0
 68 81  1  0  0  0
 71 72  2  0  0  0
 71 74  1  0  0  0
 71143  1  0  0  0
 72 73  1  0  0  0
 72 76  1  0  0  0
 73 75  2  0  0  0
 73 77  1  0  0  0
 74 81  1  0  0  0
 74 82  2  0  0  0
 75 78  1  0  0  0
 75 82  1  0  0  0
 76 83  1  0  0  0
 76144  1  0  0  0
 76145  1  0  0  0
 77 79  1  0  0  0
 77 80  1  0  0  0
 77 83  1  0  0  0
 78146  1  0  0  0
 78147  1  0  0  0
 78148  1  0  0  0
 79149  1  0  0  0
 79150  1  0  0  0
 79151  1  0  0  0
 80152  1  0  0  0
 80153  1  0  0  0
 80154  1  0  0  0
 81155  1  0  0  0
 81156  1  0  0  0
M  ISO  4   1 100  68 101  81 101  83 100
M  END
> <chiral flag>
0

> <version>
0

> <s_m_source_file>
/data/baiqing/PycharmProjects/Reinvent-master-3.2/result/LINK_invent/BTK/process_docking_weight1_custom_sum_contain_oxygen_bond_distance_aromatic_linkinvent_7_9_3/rearranged_h_0176.sdf

> <i_m_source_file_index>
63

> <r_mmod_Potential_Energy-OPLS-2005>
1788.36254882812

> <r_mmod_Stretch_Energy-OPLS-2005>
731.546020507812

> <r_mmod_Bend_Energy-OPLS-2005>
569.505187988281

> <r_mmod_Torsional_Energy-OPLS-2005>
286.020812988281

> <r_mmod_Improper_Torsional_Energy-OPLS-2005>
8.49482917785645

> <r_mmod_Van_der_Waal_Energy-OPLS-2005>
122.052223205566

> <r_mmod_Electrostatic_Energy-OPLS-2005>
-404.128540039062

> <r_mmod_Solvation_Energy-OPLS-2005>
-219.091262817383

> <b_mmod_Minimization_Converged-OPLS-2005>
0

> <r_mmod_RMS_Derivative-OPLS-2005>
1.37954676151276

$$$$
63
                    3D
 Structure written by MMmdl.
164174  0  0  1  0            999 V2000
  -30.7216  -14.4448   20.5941 C   0  0  0  0  0  0
  -30.4266  -12.3022   19.4112 C   0  0  0  0  0  0
  -29.4932  -12.5161   18.2039 C   0  0  0  0  0  0
  -28.0170  -12.3684   18.6171 C   0  0  0  0  0  0
  -27.6659  -13.1989   19.8800 C   0  0  2  0  0  0
  -28.7094  -12.9768   20.9989 C   0  0  0  0  0  0
  -25.2627  -13.8146   20.5731 C   0  0  0  0  0  0
  -24.1863  -13.0433   20.9145 C   0  0  0  0  0  0
  -24.6384  -11.6885   20.8684 C   0  0  0  0  0  0
  -23.9044  -10.4281   21.0378 C   0  0  0  0  0  0
  -24.3588   -9.4210   21.9179 C   0  0  0  0  0  0
  -23.6268   -8.2246   22.0745 C   0  0  0  0  0  0
  -22.4252   -8.0273   21.3537 C   0  0  0  0  0  0
  -21.9877   -9.0249   20.4654 C   0  0  0  0  0  0
  -22.7193  -10.2127   20.3073 C   0  0  0  0  0  0
  -21.6869   -6.0712   22.5267 C   0  0  0  0  0  0
  -21.4016   -6.5610   23.8196 C   0  0  0  0  0  0
  -21.3673   -5.6771   24.9161 C   0  0  0  0  0  0
  -21.6053   -4.3032   24.7214 C   0  0  0  0  0  0
  -21.8831   -3.8133   23.4333 C   0  0  0  0  0  0
  -21.9200   -4.6946   22.3389 C   0  0  0  0  0  0
  -22.7888  -13.5226   21.1846 C   0  0  0  0  0  0
  -22.1673   -4.2132   21.0976 F   0  0  0  0  0  0
  -21.5635   -3.4528   25.7730 F   0  0  0  0  0  0
  -30.0435  -13.2755   20.4467 N   0  0  0  0  0  0
  -26.3045  -12.9292   20.3395 N   0  0  0  0  0  0
  -25.9312  -11.6445   20.5722 N   0  0  0  0  0  0
  -22.0546  -12.8210   22.0388 N   0  0  0  0  0  0
  -25.4370  -15.1891   20.4190 N   0  0  0  0  0  0
  -31.8497  -14.6327   20.1316 O   0  0  0  0  0  0
  -21.6636   -6.8858   21.4229 O   0  0  0  0  0  0
  -22.3557  -14.5556   20.6738 O   0  0  0  0  0  0
  -24.6115  -31.8706   23.2116 C   0  0  0  0  0  0
  -25.9046  -32.4814   23.8391 C   0  0  1  0  0  0
  -27.2220  -27.4478   20.0911 C   0  0  0  0  0  0
  -25.5932  -33.8611   24.2331 N   0  0  0  0  0  0
  -23.3928  -30.4963   21.5554 C   0  0  2  0  0  0
  -24.8326  -28.9647   20.1180 C   0  0  0  0  0  0
  -22.7380  -29.4669   22.5030 C   0  0  0  0  0  0
  -18.0268  -28.1328   22.8504 C   0  0  0  0  0  0
  -24.1504  -36.7299   23.2639 C   0  0  0  0  0  0
  -25.9227  -30.8383   21.3651 C   0  0  0  0  0  0
  -25.9931  -29.4775   20.7071 C   0  0  0  0  0  0
  -27.1889  -28.7280   20.6849 C   0  0  0  0  0  0
  -26.0350  -26.9368   19.5114 C   0  0  0  0  0  0
  -24.8478  -27.6931   19.5200 C   0  0  0  0  0  0
  -23.5929  -29.8289   20.1704 C   0  0  0  0  0  0
  -25.4131  -36.3101   24.0336 C   0  0  1  0  0  0
  -20.5847  -28.3614   23.1337 C   0  0  2  0  0  0
  -20.6749  -26.9356   22.5410 C   0  0  0  0  0  0
  -19.5726  -26.6352   21.5202 C   0  0  0  0  0  0
  -18.1906  -26.7879   22.1623 C   0  0  0  0  0  0
  -19.1516  -28.8788   23.2906 C   0  0  0  0  0  0
  -18.9440  -30.1410   23.8896 C   0  0  0  0  0  0
  -17.6439  -30.6562   24.0532 C   0  0  0  0  0  0
  -25.9051  -34.9461   23.5127 C   0  0  0  0  0  0
  -16.5332  -29.9046   23.6316 C   0  0  0  0  0  0
  -16.7256  -28.6452   23.0362 C   0  0  0  0  0  0
  -26.4469  -31.6584   25.0717 C   0  0  0  0  0  0
  -25.3767  -31.3761   26.1515 C   0  0  0  0  0  0
  -27.0234  -30.2991   24.6114 C   0  0  0  0  0  0
  -27.6114  -32.4250   25.7420 C   0  0  0  0  0  0
  -27.5590  -37.1822   24.8475 C   0  0  0  0  0  0
  -21.4107  -29.3017   22.3780 N   0  0  0  0  0  0
  -26.4326  -37.3777   23.9386 N   0  0  0  0  0  0
  -24.6594  -31.0836   22.1010 N   0  0  0  0  0  0
  -23.4182  -28.8221   23.3054 O   0  0  0  0  0  0
  -28.4198  -26.7667   20.0892 O   0  0  0  0  0  0
  -26.5589  -34.8908   22.4672 O   0  0  0  0  0  0
  -23.5324  -32.1466   23.7539 O   0  0  0  0  0  0
  -29.0626  -20.6149   21.1234 C   0  0  0  0  0  0
  -30.5380  -19.8092   19.7207 C   0  0  0  0  0  0
  -29.8946  -20.9837   20.0246 C   0  0  0  0  0  0
  -29.2883  -22.9921   16.8938 C   0  0  0  0  0  0
  -28.8018  -21.5817   17.1042 C   0  0  0  0  0  0
  -29.2965  -16.4162   20.3513 C   0  0  0  0  0  0
  -30.6599  -16.6023   21.8734 C   0  0  0  0  0  0
  -28.9174  -22.5198   18.2885 C   0  0  0  0  0  0
  -30.4056  -17.4318   20.6119 C   0  0  0  0  0  0
  -29.8588  -24.8376   19.9822 C   0  0  0  0  0  0
  -28.4007  -25.3479   19.9320 C   0  0  0  0  0  0
  -30.0037  -22.3455   19.3512 C   0  0  1  0  0  0
  -29.1962  -19.3465   21.4809 N   0  0  0  0  0  0
  -30.0975  -18.8419   20.6101 N   0  0  0  0  0  0
  -30.0355  -15.4527   21.1825 N   0  0  0  0  0  0
  -30.0112  -23.4133   20.3891 N   0  3  0  0  0  0
  -31.4674  -12.4129   19.1005 H   0  0  0  0  0  0
  -30.3384  -11.2840   19.7959 H   0  0  0  0  0  0
  -29.7320  -11.8099   17.4087 H   0  0  0  0  0  0
  -29.6576  -13.5110   17.7881 H   0  0  0  0  0  0
  -27.8324  -11.3103   18.8061 H   0  0  0  0  0  0
  -27.3650  -12.6486   17.7885 H   0  0  0  0  0  0
  -27.7064  -14.2465   19.5857 H   0  0  0  0  0  0
  -28.6807  -11.9418   21.3452 H   0  0  0  0  0  0
  -28.4715  -13.5842   21.8734 H   0  0  0  0  0  0
  -25.2748   -9.5697   22.4734 H   0  0  0  0  0  0
  -24.0007   -7.4655   22.7451 H   0  0  0  0  0  0
  -21.0823   -8.8737   19.8959 H   0  0  0  0  0  0
  -22.3639  -10.9653   19.6179 H   0  0  0  0  0  0
  -21.1990   -7.6119   23.9676 H   0  0  0  0  0  0
  -21.1493   -6.0511   25.9064 H   0  0  0  0  0  0
  -22.0600   -2.7600   23.2829 H   0  0  0  0  0  0
  -22.4152  -11.9845   22.4749 H   0  0  0  0  0  0
  -21.1202  -13.1274   22.2670 H   0  0  0  0  0  0
  -24.6818  -15.8466   20.5733 H   0  0  0  0  0  0
  -26.3080  -15.6359   20.1633 H   0  0  0  0  0  0
  -26.7111  -32.5500   23.1141 H   0  0  0  0  0  0
  -25.0153  -33.9775   25.0527 H   0  0  0  0  0  0
  -22.6777  -31.3103   21.4232 H   0  0  0  0  0  0
  -23.3781  -35.9614   23.3278 H   0  0  0  0  0  0
  -24.3608  -36.8938   22.2057 H   0  0  0  0  0  0
  -23.7241  -37.6488   23.6671 H   0  0  0  0  0  0
  -26.0506  -31.6101   20.6045 H   0  0  0  0  0  0
  -26.8048  -30.8722   21.9927 H   0  0  0  0  0  0
  -28.0862  -29.1284   21.1330 H   0  0  0  0  0  0
  -25.9945  -25.9649   19.0441 H   0  0  0  0  0  0
  -23.9495  -27.2932   19.0691 H   0  0  0  0  0  0
  -23.6873  -30.6004   19.4060 H   0  0  0  0  0  0
  -22.7161  -29.2427   19.8874 H   0  0  0  0  0  0
  -25.1319  -36.1965   25.0835 H   0  0  0  0  0  0
  -20.9922  -28.3151   24.1458 H   0  0  0  0  0  0
  -20.5664  -26.2201   23.3580 H   0  0  0  0  0  0
  -21.6618  -26.7408   22.1201 H   0  0  0  0  0  0
  -19.6885  -25.6267   21.1218 H   0  0  0  0  0  0
  -19.6661  -27.3167   20.6734 H   0  0  0  0  0  0
  -17.4172  -26.6629   21.4016 H   0  0  0  0  0  0
  -18.0307  -26.0008   22.9014 H   0  0  0  0  0  0
  -19.7907  -30.7221   24.2258 H   0  0  0  0  0  0
  -17.4996  -31.6250   24.5106 H   0  0  0  0  0  0
  -15.5334  -30.2941   23.7650 H   0  0  0  0  0  0
  -15.8654  -28.0772   22.7092 H   0  0  0  0  0  0
  -24.5743  -30.7351   25.7846 H   0  0  0  0  0  0
  -24.9215  -32.2973   26.5158 H   0  0  0  0  0  0
  -25.8095  -30.8696   27.0155 H   0  0  0  0  0  0
  -26.2729  -29.6755   24.1239 H   0  0  0  0  0  0
  -27.4027  -29.7241   25.4575 H   0  0  0  0  0  0
  -27.8583  -30.4240   23.9218 H   0  0  0  0  0  0
  -27.2845  -33.3620   26.1937 H   0  0  0  0  0  0
  -28.3936  -32.6672   25.0212 H   0  0  0  0  0  0
  -28.0742  -31.8373   26.5361 H   0  0  0  0  0  0
  -28.2672  -38.0051   24.7431 H   0  0  0  0  0  0
  -28.1022  -36.2582   24.6427 H   0  0  0  0  0  0
  -27.2293  -37.1638   25.8877 H   0  0  0  0  0  0
  -20.9247  -29.8743   21.7024 H   0  0  0  0  0  0
  -26.0215  -38.2873   24.1314 H   0  0  0  0  0  0
  -28.3711  -21.2358   21.6756 H   0  0  0  0  0  0
  -31.2489  -19.5781   18.9368 H   0  0  0  0  0  0
  -28.6196  -23.6953   16.4014 H   0  0  0  0  0  0
  -30.3418  -23.1068   16.6338 H   0  0  0  0  0  0
  -29.5301  -20.7793   17.0026 H   0  0  0  0  0  0
  -27.8007  -21.3446   16.7466 H   0  0  0  0  0  0
  -29.1912  -16.1568   19.2970 H   0  0  0  0  0  0
  -28.3349  -16.7061   20.7819 H   0  0  0  0  0  0
  -30.0925  -16.9417   22.7417 H   0  0  0  0  0  0
  -31.7169  -16.4853   22.1185 H   0  0  0  0  0  0
  -27.9460  -22.7943   18.6889 H   0  0  0  0  0  0
  -31.2339  -17.3037   19.9098 H   0  0  0  0  0  0
  -30.3734  -25.4162   20.7512 H   0  0  0  0  0  0
  -30.3762  -25.0494   19.0457 H   0  0  0  0  0  0
  -27.7922  -24.9115   20.7285 H   0  0  0  0  0  0
  -27.9516  -25.0758   18.9777 H   0  0  0  0  0  0
  -30.9634  -22.4208   18.8379 H   0  0  0  0  0  0
  -29.3387  -23.1947   21.1050 H   0  0  0  0  0  0
  -30.9208  -23.3402   20.8195 H   0  0  0  0  0  0
  1 25  1  0  0  0
  1 30  2  0  0  0
  1 85  1  0  0  0
  2  3  1  0  0  0
  2 25  1  0  0  0
  2 87  1  0  0  0
  2 88  1  0  0  0
  3  4  1  0  0  0
  3 89  1  0  0  0
  3 90  1  0  0  0
  4  5  1  0  0  0
  4 91  1  0  0  0
  4 92  1  0  0  0
  5  6  1  0  0  0
  5 26  1  0  0  0
  5 93  1  0  0  0
  6 25  1  0  0  0
  6 94  1  0  0  0
  6 95  1  0  0  0
  7  8  2  0  0  0
  7 26  1  0  0  0
  7 29  1  0  0  0
  8  9  1  0  0  0
  8 22  1  0  0  0
  9 10  1  0  0  0
  9 27  2  0  0  0
 10 11  2  0  0  0
 10 15  1  0  0  0
 11 12  1  0  0  0
 11 96  1  0  0  0
 12 13  2  0  0  0
 12 97  1  0  0  0
 13 14  1  0  0  0
 13 31  1  0  0  0
 14 15  2  0  0  0
 14 98  1  0  0  0
 15 99  1  0  0  0
 16 17  2  0  0  0
 16 21  1  0  0  0
 16 31  1  0  0  0
 17 18  1  0  0  0
 17100  1  0  0  0
 18 19  2  0  0  0
 18101  1  0  0  0
 19 20  1  0  0  0
 19 24  1  0  0  0
 20 21  2  0  0  0
 20102  1  0  0  0
 21 23  1  0  0  0
 22 28  1  0  0  0
 22 32  2  0  0  0
 26 27  1  0  0  0
 28103  1  0  0  0
 28104  1  0  0  0
 29105  1  0  0  0
 29106  1  0  0  0
 33 34  1  0  0  0
 33 66  1  0  0  0
 33 70  2  0  0  0
 34 36  1  0  0  0
 34 59  1  0  0  0
 34107  1  0  0  0
 35 44  2  0  0  0
 35 45  1  0  0  0
 35 68  1  0  0  0
 36 56  1  0  0  0
 36108  1  0  0  0
 37 39  1  0  0  0
 37 47  1  0  0  0
 37 66  1  0  0  0
 37109  1  0  0  0
 38 43  2  0  0  0
 38 46  1  0  0  0
 38 47  1  0  0  0
 39 64  1  0  0  0
 39 67  2  0  0  0
 40 52  1  0  0  0
 40 53  2  0  0  0
 40 58  1  0  0  0
 41110  1  0  0  0
 41111  1  0  0  0
 41112  1  0  0  0
 41 48  1  0  0  0
 42 43  1  0  0  0
 42 66  1  0  0  0
 42113  1  0  0  0
 42114  1  0  0  0
 43 44  1  0  0  0
 44115  1  0  0  0
 45 46  2  0  0  0
 45116  1  0  0  0
 46117  1  0  0  0
 47118  1  0  0  0
 47119  1  0  0  0
 48 56  1  0  0  0
 48 65  1  0  0  0
 48120  1  0  0  0
 49 50  1  0  0  0
 49 53  1  0  0  0
 49 64  1  0  0  0
 49121  1  0  0  0
 50 51  1  0  0  0
 50122  1  0  0  0
 50123  1  0  0  0
 51 52  1  0  0  0
 51124  1  0  0  0
 51125  1  0  0  0
 52126  1  0  0  0
 52127  1  0  0  0
 53 54  1  0  0  0
 54 55  2  0  0  0
 54128  1  0  0  0
 55 57  1  0  0  0
 55129  1  0  0  0
 56 69  2  0  0  0
 57 58  2  0  0  0
 57130  1  0  0  0
 58131  1  0  0  0
 59 60  1  0  0  0
 59 61  1  0  0  0
 59 62  1  0  0  0
 60132  1  0  0  0
 60133  1  0  0  0
 60134  1  0  0  0
 61135  1  0  0  0
 61136  1  0  0  0
 61137  1  0  0  0
 62138  1  0  0  0
 62139  1  0  0  0
 62140  1  0  0  0
 63 65  1  0  0  0
 63141  1  0  0  0
 63142  1  0  0  0
 63143  1  0  0  0
 64144  1  0  0  0
 65145  1  0  0  0
 68 81  1  0  0  0
 71 73  1  0  0  0
 71 83  2  0  0  0
 71146  1  0  0  0
 72 73  2  0  0  0
 72 84  1  0  0  0
 72147  1  0  0  0
 73 82  1  0  0  0
 74 75  1  0  0  0
 74148  1  0  0  0
 74149  1  0  0  0
 74 78  1  0  0  0
 75 78  1  0  0  0
 75150  1  0  0  0
 75151  1  0  0  0
 76 79  1  0  0  0
 76 85  1  0  0  0
 76152  1  0  0  0
 76153  1  0  0  0
 77 79  1  0  0  0
 77 85  1  0  0  0
 77154  1  0  0  0
 77155  1  0  0  0
 78 82  1  0  0  0
 78156  1  0  0  0
 79 84  1  0  0  0
 79157  1  0  0  0
 80 81  1  0  0  0
 80 86  1  0  0  0
 80158  1  0  0  0
 80159  1  0  0  0
 81160  1  0  0  0
 81161  1  0  0  0
 82 86  1  0  0  0
 82162  1  0  0  0
 83 84  1  0  0  0
 86163  1  0  0  0
 86164  1  0  0  0
M  CHG  1  86   1
M  ISO  4   1 100  68 101  81 101  85 100
M  END
> <chiral flag>
0

> <version>
0

> <s_m_source_file>
/data/baiqing/PycharmProjects/Reinvent-master-3.2/result/LINK_invent/BTK/process_docking_weight1_custom_sum_contain_oxygen_bond_distance_aromatic_linkinvent_7_9_3/rearranged_h_0176.sdf

> <i_m_source_file_index>
64

> <r_mmod_Potential_Energy-OPLS-2005>
-94.301025390625

> <r_mmod_Stretch_Energy-OPLS-2005>
35.6426620483398

> <r_mmod_Bend_Energy-OPLS-2005>
111.517097473145

> <r_mmod_Torsional_Energy-OPLS-2005>
318.908508300781

> <r_mmod_Improper_Torsional_Energy-OPLS-2005>
10.2070188522339

> <r_mmod_Van_der_Waal_Energy-OPLS-2005>
128.010437011719

> <r_mmod_Electrostatic_Energy-OPLS-2005>
-246.323776245117

> <r_mmod_Solvation_Energy-OPLS-2005>
-463.77001953125

> <b_mmod_Minimization_Converged-OPLS-2005>
0

> <r_mmod_RMS_Derivative-OPLS-2005>
4.5868067741394

$$$$
64
                    3D
 Structure written by MMmdl.
162171  0  0  1  0            999 V2000
  -30.6351  -14.7216   20.5092 C   0  0  0  0  0  0
  -30.4296  -12.4566   19.4601 C   0  0  0  0  0  0
  -29.5084  -12.5406   18.2241 C   0  0  0  0  0  0
  -28.0245  -12.3983   18.6247 C   0  0  0  0  0  0
  -27.6466  -13.2466   19.8718 C   0  0  2  0  0  0
  -28.7007  -13.1233   20.9938 C   0  0  0  0  0  0
  -25.2490  -13.8211   20.5813 C   0  0  0  0  0  0
  -24.1772  -13.0425   20.9254 C   0  0  0  0  0  0
  -24.6385  -11.6917   20.8738 C   0  0  0  0  0  0
  -23.9072  -10.4285   21.0397 C   0  0  0  0  0  0
  -24.3607   -9.4198   21.9179 C   0  0  0  0  0  0
  -23.6283   -8.2230   22.0737 C   0  0  0  0  0  0
  -22.4269   -8.0268   21.3514 C   0  0  0  0  0  0
  -21.9918   -9.0241   20.4610 C   0  0  0  0  0  0
  -22.7250  -10.2129   20.3037 C   0  0  0  0  0  0
  -21.6856   -6.0723   22.5266 C   0  0  0  0  0  0
  -21.4010   -6.5624   23.8196 C   0  0  0  0  0  0
  -21.3657   -5.6779   24.9151 C   0  0  0  0  0  0
  -21.6064   -4.3046   24.7214 C   0  0  0  0  0  0
  -21.8822   -3.8131   23.4333 C   0  0  0  0  0  0
  -21.9186   -4.6948   22.3384 C   0  0  0  0  0  0
  -22.7790  -13.5202   21.1868 C   0  0  0  0  0  0
  -22.1660   -4.2148   21.0965 F   0  0  0  0  0  0
  -21.5629   -3.4520   25.7715 F   0  0  0  0  0  0
  -29.9949  -13.5034   20.4114 N   0  0  0  0  0  0
  -26.2955  -12.9475   20.3421 N   0  0  0  0  0  0
  -25.9333  -11.6585   20.5763 N   0  0  0  0  0  0
  -22.0395  -12.8201   22.0417 N   0  0  0  0  0  0
  -25.4142  -15.1942   20.4327 N   0  0  0  0  0  0
  -31.8274  -14.7920   20.1854 O   0  0  0  0  0  0
  -21.6630   -6.8864   21.4227 O   0  0  0  0  0  0
  -22.3507  -14.5487   20.6683 O   0  0  0  0  0  0
  -24.6353  -31.8527   23.1907 C   0  0  0  0  0  0
  -25.9179  -32.4726   23.8282 C   0  0  1  0  0  0
  -27.2280  -27.2442   20.1093 C   0  0  0  0  0  0
  -25.5990  -33.8525   24.2268 N   0  0  0  0  0  0
  -23.4335  -30.4682   21.5369 C   0  0  2  0  0  0
  -24.8747  -28.9089   20.1053 C   0  0  0  0  0  0
  -22.7519  -29.4566   22.4886 C   0  0  0  0  0  0
  -18.0272  -28.1465   22.8480 C   0  0  0  0  0  0
  -24.1483  -36.7263   23.2652 C   0  0  0  0  0  0
  -25.9754  -30.7615   21.3609 C   0  0  0  0  0  0
  -26.0455  -29.3764   20.7121 C   0  0  0  0  0  0
  -27.2206  -28.5556   20.7066 C   0  0  0  0  0  0
  -26.0252  -26.8431   19.4825 C   0  0  0  0  0  0
  -24.8699  -27.6503   19.4820 C   0  0  0  0  0  0
  -23.6476  -29.7996   20.1535 C   0  0  0  0  0  0
  -25.4110  -36.3057   24.0340 C   0  0  1  0  0  0
  -20.5905  -28.3682   23.1288 C   0  0  2  0  0  0
  -20.6668  -26.9330   22.5518 C   0  0  0  0  0  0
  -19.5708  -26.6519   21.5191 C   0  0  0  0  0  0
  -18.1877  -26.8038   22.1604 C   0  0  0  0  0  0
  -19.1559  -28.8883   23.2899 C   0  0  0  0  0  0
  -18.9511  -30.1444   23.9014 C   0  0  0  0  0  0
  -17.6517  -30.6638   24.0629 C   0  0  0  0  0  0
  -25.9060  -34.9422   23.5100 C   0  0  0  0  0  0
  -16.5380  -29.9220   23.6307 C   0  0  0  0  0  0
  -16.7256  -28.6611   23.0336 C   0  0  0  0  0  0
  -26.4510  -31.6504   25.0646 C   0  0  0  0  0  0
  -25.3699  -31.3547   26.1322 C   0  0  0  0  0  0
  -27.0387  -30.2975   24.5990 C   0  0  0  0  0  0
  -27.6041  -32.4214   25.7521 C   0  0  0  0  0  0
  -27.5562  -37.1783   24.8501 C   0  0  0  0  0  0
  -21.4223  -29.2986   22.3617 N   0  0  0  0  0  0
  -26.4292  -37.3749   23.9412 N   0  0  0  0  0  0
  -24.7018  -31.0452   22.0881 N   0  0  0  0  0  0
  -23.4190  -28.8173   23.3044 O   0  0  0  0  0  0
  -28.3440  -26.3740   20.1894 O   0  0  0  0  0  0
  -26.5604  -34.8915   22.4655 O   0  0  0  0  0  0
  -23.5501  -32.1394   23.7169 O   0  0  0  0  0  0
  -31.0130  -19.9814   21.3860 C   0  0  0  0  0  0
  -29.3962  -18.4018   20.5551 C   0  0  0  0  0  0
  -29.7593  -19.7981   20.7676 C   0  0  0  0  0  0
  -31.7801  -18.8656   21.7732 C   0  0  0  0  0  0
  -30.2581  -17.2848   20.9117 C   0  0  0  0  0  0
  -29.2768  -22.5858   20.7476 C   0  0  0  0  0  0
  -28.3049  -21.2897   19.0604 C   0  0  0  0  0  0
  -28.8268  -21.0758   20.4882 C   0  0  1  0  0  0
  -28.1672  -23.5379   20.0925 C   0  0  1  0  0  0
  -33.0436  -19.0568   22.5865 C   0  0  0  0  0  0
  -26.1368  -22.4724   19.1136 C   0  0  0  0  0  0
  -28.4639  -25.0387   19.4894 C   0  0  0  0  0  0
  -31.4265  -17.5826   21.5275 N   0  0  0  0  0  0
  -29.8711  -15.8659   20.7126 N   0  0  0  0  0  0
  -27.6084  -22.6211   19.0378 N   0  3  2  0  0  0
  -31.4698  -12.5760   19.1564 H   0  0  0  0  0  0
  -30.3675  -11.4690   19.9207 H   0  0  0  0  0  0
  -29.7764  -11.7647   17.5061 H   0  0  0  0  0  0
  -29.6637  -13.4965   17.7191 H   0  0  0  0  0  0
  -27.8276  -11.3423   18.8088 H   0  0  0  0  0  0
  -27.3894  -12.6834   17.7847 H   0  0  0  0  0  0
  -27.6524  -14.2888   19.5468 H   0  0  0  0  0  0
  -28.7403  -12.0968   21.3640 H   0  0  0  0  0  0
  -28.4486  -13.7429   21.8568 H   0  0  0  0  0  0
  -25.2751   -9.5682   22.4759 H   0  0  0  0  0  0
  -23.9977   -7.4635   22.7474 H   0  0  0  0  0  0
  -21.0849   -8.8748   19.8925 H   0  0  0  0  0  0
  -22.3695  -10.9644   19.6123 H   0  0  0  0  0  0
  -21.1997   -7.6133   23.9697 H   0  0  0  0  0  0
  -21.1492   -6.0503   25.9061 H   0  0  0  0  0  0
  -22.0607   -2.7603   23.2820 H   0  0  0  0  0  0
  -22.4005  -11.9910   22.4894 H   0  0  0  0  0  0
  -21.0957  -13.1151   22.2447 H   0  0  0  0  0  0
  -24.6535  -15.8430   20.5997 H   0  0  0  0  0  0
  -26.2622  -15.6545   20.1309 H   0  0  0  0  0  0
  -26.7255  -32.5383   23.1042 H   0  0  0  0  0  0
  -25.0237  -33.9644   25.0488 H   0  0  0  0  0  0
  -22.7326  -31.2922   21.3853 H   0  0  0  0  0  0
  -23.3750  -35.9596   23.3333 H   0  0  0  0  0  0
  -24.3577  -36.8845   22.2063 H   0  0  0  0  0  0
  -23.7232  -37.6458   23.6671 H   0  0  0  0  0  0
  -26.0948  -31.5089   20.5748 H   0  0  0  0  0  0
  -26.8671  -30.8300   21.9750 H   0  0  0  0  0  0
  -28.1193  -28.9152   21.1837 H   0  0  0  0  0  0
  -25.9365  -25.8780   19.0098 H   0  0  0  0  0  0
  -23.9719  -27.2819   19.0063 H   0  0  0  0  0  0
  -23.7798  -30.5724   19.3929 H   0  0  0  0  0  0
  -22.7631  -29.2325   19.8570 H   0  0  0  0  0  0
  -25.1297  -36.1898   25.0825 H   0  0  0  0  0  0
  -21.0044  -28.3339   24.1387 H   0  0  0  0  0  0
  -20.5203  -26.2279   23.3730 H   0  0  0  0  0  0
  -21.6589  -26.7115   22.1502 H   0  0  0  0  0  0
  -19.6802  -25.6505   21.1013 H   0  0  0  0  0  0
  -19.6693  -27.3461   20.6835 H   0  0  0  0  0  0
  -17.4113  -26.6832   21.4028 H   0  0  0  0  0  0
  -18.0286  -26.0149   22.8963 H   0  0  0  0  0  0
  -19.8010  -30.7180   24.2471 H   0  0  0  0  0  0
  -17.5113  -31.6254   24.5360 H   0  0  0  0  0  0
  -15.5410  -30.3202   23.7565 H   0  0  0  0  0  0
  -15.8646  -28.0936   22.7049 H   0  0  0  0  0  0
  -24.5867  -30.6976   25.7525 H   0  0  0  0  0  0
  -24.8915  -32.2663   26.4885 H   0  0  0  0  0  0
  -25.7969  -30.8532   27.0012 H   0  0  0  0  0  0
  -26.2974  -29.6756   24.0947 H   0  0  0  0  0  0
  -27.4130  -29.7151   25.4409 H   0  0  0  0  0  0
  -27.8808  -30.4376   23.9219 H   0  0  0  0  0  0
  -27.2645  -33.3518   26.2098 H   0  0  0  0  0  0
  -28.3920  -32.6723   25.0412 H   0  0  0  0  0  0
  -28.0644  -31.8297   26.5437 H   0  0  0  0  0  0
  -28.2618  -38.0043   24.7508 H   0  0  0  0  0  0
  -28.1016  -36.2555   24.6415 H   0  0  0  0  0  0
  -27.2269  -37.1552   25.8908 H   0  0  0  0  0  0
  -20.9503  -29.8614   21.6681 H   0  0  0  0  0  0
  -26.0164  -38.2831   24.1350 H   0  0  0  0  0  0
  -31.3676  -20.9767   21.6217 H   0  0  0  0  0  0
  -28.4333  -18.1815   20.1149 H   0  0  0  0  0  0
  -30.2372  -22.7710   20.2631 H   0  0  0  0  0  0
  -29.4142  -22.7890   21.8100 H   0  0  0  0  0  0
  -27.6633  -20.4709   18.7301 H   0  0  0  0  0  0
  -29.1473  -21.3310   18.3681 H   0  0  0  0  0  0
  -27.9566  -20.8979   21.1215 H   0  0  0  0  0  0
  -27.3925  -23.6609   20.8498 H   0  0  0  0  0  0
  -32.7859  -19.2498   23.6287 H   0  0  0  0  0  0
  -33.6289  -19.8990   22.2184 H   0  0  0  0  0  0
  -33.6755  -18.1695   22.5641 H   0  0  0  0  0  0
  -25.7563  -22.0035   18.2053 H   0  0  0  0  0  0
  -25.6387  -23.4355   19.2224 H   0  0  0  0  0  0
  -25.8535  -21.8487   19.9627 H   0  0  0  0  0  0
  -27.8842  -25.1338   18.5703 H   0  0  0  0  0  0
  -29.4860  -25.0142   19.1095 H   0  0  0  0  0  0
  -28.8791  -15.6948   20.7529 H   0  0  0  0  0  0
  -27.8019  -23.0243   18.1310 H   0  0  0  0  0  0
  1 25  1  0  0  0
  1 30  2  0  0  0
  1 84  1  0  0  0
  2  3  1  0  0  0
  2 25  1  0  0  0
  2 86  1  0  0  0
  2 87  1  0  0  0
  3  4  1  0  0  0
  3 88  1  0  0  0
  3 89  1  0  0  0
  4  5  1  0  0  0
  4 90  1  0  0  0
  4 91  1  0  0  0
  5  6  1  0  0  0
  5 26  1  0  0  0
  5 92  1  0  0  0
  6 25  1  0  0  0
  6 93  1  0  0  0
  6 94  1  0  0  0
  7  8  2  0  0  0
  7 26  1  0  0  0
  7 29  1  0  0  0
  8  9  1  0  0  0
  8 22  1  0  0  0
  9 10  1  0  0  0
  9 27  2  0  0  0
 10 11  2  0  0  0
 10 15  1  0  0  0
 11 12  1  0  0  0
 11 95  1  0  0  0
 12 13  2  0  0  0
 12 96  1  0  0  0
 13 14  1  0  0  0
 13 31  1  0  0  0
 14 15  2  0  0  0
 14 97  1  0  0  0
 15 98  1  0  0  0
 16 17  2  0  0  0
 16 21  1  0  0  0
 16 31  1  0  0  0
 17 18  1  0  0  0
 17 99  1  0  0  0
 18 19  2  0  0  0
 18100  1  0  0  0
 19 20  1  0  0  0
 19 24  1  0  0  0
 20 21  2  0  0  0
 20101  1  0  0  0
 21 23  1  0  0  0
 22 28  1  0  0  0
 22 32  2  0  0  0
 26 27  1  0  0  0
 28102  1  0  0  0
 28103  1  0  0  0
 29104  1  0  0  0
 29105  1  0  0  0
 33 34  1  0  0  0
 33 66  1  0  0  0
 33 70  2  0  0  0
 34 36  1  0  0  0
 34 59  1  0  0  0
 34106  1  0  0  0
 35 44  2  0  0  0
 35 45  1  0  0  0
 35 68  1  0  0  0
 36 56  1  0  0  0
 36107  1  0  0  0
 37 39  1  0  0  0
 37 47  1  0  0  0
 37 66  1  0  0  0
 37108  1  0  0  0
 38 43  2  0  0  0
 38 46  1  0  0  0
 38 47  1  0  0  0
 39 64  1  0  0  0
 39 67  2  0  0  0
 40 52  1  0  0  0
 40 53  2  0  0  0
 40 58  1  0  0  0
 41109  1  0  0  0
 41110  1  0  0  0
 41111  1  0  0  0
 41 48  1  0  0  0
 42 43  1  0  0  0
 42 66  1  0  0  0
 42112  1  0  0  0
 42113  1  0  0  0
 43 44  1  0  0  0
 44114  1  0  0  0
 45 46  2  0  0  0
 45115  1  0  0  0
 46116  1  0  0  0
 47117  1  0  0  0
 47118  1  0  0  0
 48 56  1  0  0  0
 48 65  1  0  0  0
 48119  1  0  0  0
 49 50  1  0  0  0
 49 53  1  0  0  0
 49 64  1  0  0  0
 49120  1  0  0  0
 50 51  1  0  0  0
 50121  1  0  0  0
 50122  1  0  0  0
 51 52  1  0  0  0
 51123  1  0  0  0
 51124  1  0  0  0
 52125  1  0  0  0
 52126  1  0  0  0
 53 54  1  0  0  0
 54 55  2  0  0  0
 54127  1  0  0  0
 55 57  1  0  0  0
 55128  1  0  0  0
 56 69  2  0  0  0
 57 58  2  0  0  0
 57129  1  0  0  0
 58130  1  0  0  0
 59 60  1  0  0  0
 59 61  1  0  0  0
 59 62  1  0  0  0
 60131  1  0  0  0
 60132  1  0  0  0
 60133  1  0  0  0
 61134  1  0  0  0
 61135  1  0  0  0
 61136  1  0  0  0
 62137  1  0  0  0
 62138  1  0  0  0
 62139  1  0  0  0
 63 65  1  0  0  0
 63140  1  0  0  0
 63141  1  0  0  0
 63142  1  0  0  0
 64143  1  0  0  0
 65144  1  0  0  0
 68 82  1  0  0  0
 71 73  2  0  0  0
 71 74  1  0  0  0
 71145  1  0  0  0
 72 73  1  0  0  0
 72 75  2  0  0  0
 72146  1  0  0  0
 73 78  1  0  0  0
 74 80  1  0  0  0
 74 83  2  0  0  0
 75 83  1  0  0  0
 75 84  1  0  0  0
 76 78  1  0  0  0
 76 79  1  0  0  0
 76147  1  0  0  0
 76148  1  0  0  0
 77 78  1  0  0  0
 77 85  1  0  0  0
 77149  1  0  0  0
 77150  1  0  0  0
 78151  1  0  0  0
 79 82  1  0  0  0
 79 85  1  0  0  0
 79152  1  0  0  0
 80153  1  0  0  0
 80154  1  0  0  0
 80155  1  0  0  0
 81156  1  0  0  0
 81157  1  0  0  0
 81158  1  0  0  0
 81 85  1  0  0  0
 82159  1  0  0  0
 82160  1  0  0  0
 84161  1  0  0  0
 85162  1  0  0  0
M  CHG  1  85   1
M  ISO  4   1 100  68 101  82 101  84 100
M  END
> <chiral flag>
0

> <version>
0

> <s_m_source_file>
/data/baiqing/PycharmProjects/Reinvent-master-3.2/result/LINK_invent/BTK/process_docking_weight1_custom_sum_contain_oxygen_bond_distance_aromatic_linkinvent_7_9_3/rearranged_h_0176.sdf

> <i_m_source_file_index>
65

> <r_mmod_Potential_Energy-OPLS-2005>
15.0558910369873

> <r_mmod_Stretch_Energy-OPLS-2005>
132.103958129883

> <r_mmod_Bend_Energy-OPLS-2005>
233.089904785156

> <r_mmod_Torsional_Energy-OPLS-2005>
267.8515625

> <r_mmod_Improper_Torsional_Energy-OPLS-2005>
6.5441312789917

> <r_mmod_Van_der_Waal_Energy-OPLS-2005>
133.765975952148

> <r_mmod_Electrostatic_Energy-OPLS-2005>
-348.611022949219

> <r_mmod_Solvation_Energy-OPLS-2005>
-489.409027099609

> <b_mmod_Minimization_Converged-OPLS-2005>
0

> <r_mmod_RMS_Derivative-OPLS-2005>
5.87655162811279

$$$$
65
                    3D
 Structure written by MMmdl.
166175  0  0  1  0            999 V2000
  -30.7773  -14.5983   20.4800 C   0  0  0  0  0  0
  -30.4027  -12.3340   19.5441 C   0  0  0  0  0  0
  -29.5662  -12.5265   18.2557 C   0  0  0  0  0  0
  -28.0591  -12.7675   18.5276 C   0  0  0  0  0  0
  -27.7226  -12.7987   20.0278 C   0  0  2  0  0  0
  -28.7316  -13.2706   21.0811 C   0  0  0  0  0  0
  -25.3089  -13.7646   20.5692 C   0  0  0  0  0  0
  -24.1871  -13.0397   20.9163 C   0  0  0  0  0  0
  -24.5816  -11.6777   20.8992 C   0  0  0  0  0  0
  -23.8456  -10.4317   21.0690 C   0  0  0  0  0  0
  -24.3217   -9.4264   21.9363 C   0  0  0  0  0  0
  -23.6079   -8.2200   22.0776 C   0  0  0  0  0  0
  -22.4096   -8.0222   21.3482 C   0  0  0  0  0  0
  -21.9626   -9.0208   20.4681 C   0  0  0  0  0  0
  -22.6798  -10.2132   20.3209 C   0  0  0  0  0  0
  -21.6850   -6.0664   22.5107 C   0  0  0  0  0  0
  -21.4126   -6.5643   23.7997 C   0  0  0  0  0  0
  -21.3619   -5.6773   24.8976 C   0  0  0  0  0  0
  -21.6015   -4.3044   24.7055 C   0  0  0  0  0  0
  -21.8941   -3.8113   23.4208 C   0  0  0  0  0  0
  -21.9256   -4.6915   22.3241 C   0  0  0  0  0  0
  -22.8030  -13.5468   21.1845 C   0  0  0  0  0  0
  -22.1793   -4.2139   21.0843 F   0  0  0  0  0  0
  -21.5465   -3.4527   25.7572 F   0  0  0  0  0  0
  -30.0666  -13.4361   20.4762 N   0  0  0  0  0  0
  -26.3130  -12.8019   20.3926 N   0  0  0  0  0  0
  -25.8507  -11.5650   20.6287 N   0  0  0  0  0  0
  -22.0617  -12.8501   22.0430 N   0  0  0  0  0  0
  -25.5554  -15.1131   20.3918 N   0  0  0  0  0  0
  -31.8851  -14.6781   19.9396 O   0  0  0  0  0  0
  -21.6602   -6.8749   21.4066 O   0  0  0  0  0  0
  -22.3769  -14.5807   20.6678 O   0  0  0  0  0  0
  -24.6167  -31.8639   23.2052 C   0  0  0  0  0  0
  -25.9049  -32.4780   23.8349 C   0  0  1  0  0  0
  -27.2453  -27.4247   20.1035 C   0  0  0  0  0  0
  -25.5871  -33.8579   24.2241 N   0  0  0  0  0  0
  -23.4026  -30.4827   21.5496 C   0  0  2  0  0  0
  -24.8502  -28.9495   20.1093 C   0  0  0  0  0  0
  -22.7410  -29.4615   22.5053 C   0  0  0  0  0  0
  -18.0255  -28.1359   22.8485 C   0  0  0  0  0  0
  -24.1500  -36.7346   23.2641 C   0  0  0  0  0  0
  -25.9318  -30.8318   21.3573 C   0  0  0  0  0  0
  -26.0105  -29.4664   20.7040 C   0  0  0  0  0  0
  -27.2089  -28.7132   20.6936 C   0  0  0  0  0  0
  -26.0674  -26.9330   19.4963 C   0  0  0  0  0  0
  -24.8777  -27.6834   19.5003 C   0  0  0  0  0  0
  -23.6045  -29.8056   20.1654 C   0  0  0  0  0  0
  -25.4113  -36.3078   24.0310 C   0  0  1  0  0  0
  -20.5839  -28.3607   23.1341 C   0  0  2  0  0  0
  -20.6723  -26.9332   22.5455 C   0  0  0  0  0  0
  -19.5714  -26.6335   21.5231 C   0  0  0  0  0  0
  -18.1890  -26.7887   22.1635 C   0  0  0  0  0  0
  -19.1502  -28.8804   23.2894 C   0  0  0  0  0  0
  -18.9446  -30.1431   23.8871 C   0  0  0  0  0  0
  -17.6442  -30.6552   24.0545 C   0  0  0  0  0  0
  -25.9048  -34.9456   23.5075 C   0  0  0  0  0  0
  -16.5331  -29.9062   23.6311 C   0  0  0  0  0  0
  -16.7243  -28.6493   23.0306 C   0  0  0  0  0  0
  -26.4438  -31.6591   25.0719 C   0  0  0  0  0  0
  -25.3670  -31.3773   26.1452 C   0  0  0  0  0  0
  -27.0264  -30.3010   24.6155 C   0  0  0  0  0  0
  -27.6013  -32.4313   25.7467 C   0  0  0  0  0  0
  -27.5572  -37.1824   24.8436 C   0  0  0  0  0  0
  -21.4135  -29.2989   22.3789 N   0  0  0  0  0  0
  -26.4289  -37.3775   23.9383 N   0  0  0  0  0  0
  -24.6676  -31.0733   22.0951 N   0  0  0  0  0  0
  -23.4169  -28.8168   23.3086 O   0  0  0  0  0  0
  -28.4179  -26.6889   20.1322 O   0  0  0  0  0  0
  -26.5670  -34.8931   22.4677 O   0  0  0  0  0  0
  -23.5356  -32.1408   23.7436 O   0  0  0  0  0  0
  -29.9371  -19.5304   20.2191 C   0  0  0  0  0  0
  -29.7651  -20.7138   20.9735 C   0  0  0  0  0  0
  -29.6882  -20.5927   22.3957 C   0  0  0  0  0  0
  -30.0468  -18.2885   20.8733 C   0  0  0  0  0  0
  -29.9167  -19.2972   22.9604 C   0  0  0  0  0  0
  -29.7249  -22.0738   20.2785 C   0  0  0  0  0  0
  -28.7337  -22.9452   22.3159 C   0  0  0  0  0  0
  -29.3835  -21.8618   23.2190 C   0  0  0  0  0  0
  -30.0550  -19.0003   24.4450 C   0  0  0  0  0  0
  -28.3070  -21.6424   24.3163 C   0  0  0  0  0  0
  -30.7070  -22.4124   23.7893 C   0  0  0  0  0  0
  -30.2036  -16.9881   20.0898 C   0  0  0  0  0  0
  -29.5807  -24.5652   20.6290 C   0  0  0  0  0  0
  -28.3180  -25.2503   20.0471 C   0  0  0  0  0  0
  -30.0549  -18.1863   22.2114 N   0  0  0  0  0  0
  -29.3840  -23.1472   21.0265 N   0  0  0  0  0  0
  -30.1577  -15.7204   20.8970 N   0  0  0  0  0  0
  -30.0330  -22.1783   19.0836 O   0  0  0  0  0  0
  -31.4710  -12.2923   19.3199 H   0  0  0  0  0  0
  -30.1762  -11.3695   20.0086 H   0  0  0  0  0  0
  -29.6982  -11.6893   17.5697 H   0  0  0  0  0  0
  -29.9744  -13.3971   17.7395 H   0  0  0  0  0  0
  -27.4518  -12.0081   18.0315 H   0  0  0  0  0  0
  -27.7768  -13.7150   18.0664 H   0  0  0  0  0  0
  -27.9831  -11.7526   20.1910 H   0  0  0  0  0  0
  -28.8362  -12.5412   21.8868 H   0  0  0  0  0  0
  -28.3465  -14.1679   21.5619 H   0  0  0  0  0  0
  -25.2411   -9.5826   22.4794 H   0  0  0  0  0  0
  -23.9889   -7.4619   22.7434 H   0  0  0  0  0  0
  -21.0561   -8.8717   19.8979 H   0  0  0  0  0  0
  -22.3326  -10.9644   19.6240 H   0  0  0  0  0  0
  -21.2385   -7.6190   23.9440 H   0  0  0  0  0  0
  -21.1222   -6.0573   25.8780 H   0  0  0  0  0  0
  -22.0817   -2.7588   23.2706 H   0  0  0  0  0  0
  -22.4182  -12.0040   22.4612 H   0  0  0  0  0  0
  -21.1243  -13.1515   22.2626 H   0  0  0  0  0  0
  -24.8331  -15.8237   20.4928 H   0  0  0  0  0  0
  -26.4290  -15.4552   20.0110 H   0  0  0  0  0  0
  -26.7148  -32.5486   23.1146 H   0  0  0  0  0  0
  -24.9853  -33.9692   25.0255 H   0  0  0  0  0  0
  -22.6923  -31.3011   21.4074 H   0  0  0  0  0  0
  -23.3711  -35.9734   23.3302 H   0  0  0  0  0  0
  -24.3592  -36.8978   22.2056 H   0  0  0  0  0  0
  -23.7327  -37.6576   23.6685 H   0  0  0  0  0  0
  -26.0440  -31.6006   20.5916 H   0  0  0  0  0  0
  -26.8181  -30.8809   21.9803 H   0  0  0  0  0  0
  -28.1025  -29.1118   21.1501 H   0  0  0  0  0  0
  -26.0569  -25.9663   19.0169 H   0  0  0  0  0  0
  -23.9927  -27.2692   19.0372 H   0  0  0  0  0  0
  -23.6983  -30.5738   19.3981 H   0  0  0  0  0  0
  -22.7336  -29.2097   19.8787 H   0  0  0  0  0  0
  -25.1309  -36.1910   25.0807 H   0  0  0  0  0  0
  -20.9912  -28.3169   24.1463 H   0  0  0  0  0  0
  -20.5540  -26.2232   23.3656 H   0  0  0  0  0  0
  -21.6613  -26.7328   22.1308 H   0  0  0  0  0  0
  -19.6862  -25.6245   21.1251 H   0  0  0  0  0  0
  -19.6657  -27.3156   20.6769 H   0  0  0  0  0  0
  -17.4161  -26.6604   21.4041 H   0  0  0  0  0  0
  -18.0301  -26.0046   22.9054 H   0  0  0  0  0  0
  -19.7927  -30.7261   24.2205 H   0  0  0  0  0  0
  -17.4993  -31.6221   24.5165 H   0  0  0  0  0  0
  -15.5317  -30.2943   23.7649 H   0  0  0  0  0  0
  -15.8660  -28.0820   22.6978 H   0  0  0  0  0  0
  -24.5811  -30.7137   25.7820 H   0  0  0  0  0  0
  -24.8891  -32.2968   26.4856 H   0  0  0  0  0  0
  -25.7978  -30.8969   27.0239 H   0  0  0  0  0  0
  -26.2845  -29.6787   24.1141 H   0  0  0  0  0  0
  -27.3909  -29.7238   25.4663 H   0  0  0  0  0  0
  -27.8724  -30.4292   23.9400 H   0  0  0  0  0  0
  -27.2612  -33.3576   26.2111 H   0  0  0  0  0  0
  -28.3783  -32.6925   25.0270 H   0  0  0  0  0  0
  -28.0734  -31.8395   26.5314 H   0  0  0  0  0  0
  -28.2593  -38.0119   24.7471 H   0  0  0  0  0  0
  -28.1057  -36.2648   24.6251 H   0  0  0  0  0  0
  -27.2305  -37.1488   25.8846 H   0  0  0  0  0  0
  -20.9306  -29.8757   21.7063 H   0  0  0  0  0  0
  -26.0148  -38.2851   24.1348 H   0  0  0  0  0  0
  -29.9824  -19.5756   19.1378 H   0  0  0  0  0  0
  -28.6463  -23.8847   22.8599 H   0  0  0  0  0  0
  -27.7123  -22.6532   22.0744 H   0  0  0  0  0  0
  -30.6857  -19.7246   24.9573 H   0  0  0  0  0  0
  -30.5148  -18.0222   24.6224 H   0  0  0  0  0  0
  -29.0749  -18.9622   24.9136 H   0  0  0  0  0  0
  -27.4345  -21.1465   23.8889 H   0  0  0  0  0  0
  -27.9531  -22.5926   24.7250 H   0  0  0  0  0  0
  -28.6281  -21.0724   25.1846 H   0  0  0  0  0  0
  -30.5848  -23.3932   24.2531 H   0  0  0  0  0  0
  -31.4595  -22.5205   23.0064 H   0  0  0  0  0  0
  -31.1424  -21.7584   24.5379 H   0  0  0  0  0  0
  -29.4035  -16.9884   19.3463 H   0  0  0  0  0  0
  -31.1137  -17.1071   19.4913 H   0  0  0  0  0  0
  -29.9157  -25.1162   21.5095 H   0  0  0  0  0  0
  -30.4031  -24.6600   19.9200 H   0  0  0  0  0  0
  -28.1795  -24.9482   19.0078 H   0  0  0  0  0  0
  -27.4423  -24.9141   20.6045 H   0  0  0  0  0  0
  -29.5229  -15.6614   21.6789 H   0  0  0  0  0  0
  1 25  1  0  0  0
  1 30  2  0  0  0
  1 87  1  0  0  0
  2  3  1  0  0  0
  2 25  1  0  0  0
  2 89  1  0  0  0
  2 90  1  0  0  0
  3  4  1  0  0  0
  3 91  1  0  0  0
  3 92  1  0  0  0
  4  5  1  0  0  0
  4 93  1  0  0  0
  4 94  1  0  0  0
  5  6  1  0  0  0
  5 26  1  0  0  0
  5 95  1  0  0  0
  6 25  1  0  0  0
  6 96  1  0  0  0
  6 97  1  0  0  0
  7  8  2  0  0  0
  7 26  1  0  0  0
  7 29  1  0  0  0
  8  9  1  0  0  0
  8 22  1  0  0  0
  9 10  1  0  0  0
  9 27  2  0  0  0
 10 11  2  0  0  0
 10 15  1  0  0  0
 11 12  1  0  0  0
 11 98  1  0  0  0
 12 13  2  0  0  0
 12 99  1  0  0  0
 13 14  1  0  0  0
 13 31  1  0  0  0
 14 15  2  0  0  0
 14100  1  0  0  0
 15101  1  0  0  0
 16 17  2  0  0  0
 16 21  1  0  0  0
 16 31  1  0  0  0
 17 18  1  0  0  0
 17102  1  0  0  0
 18 19  2  0  0  0
 18103  1  0  0  0
 19 20  1  0  0  0
 19 24  1  0  0  0
 20 21  2  0  0  0
 20104  1  0  0  0
 21 23  1  0  0  0
 22 28  1  0  0  0
 22 32  2  0  0  0
 26 27  1  0  0  0
 28105  1  0  0  0
 28106  1  0  0  0
 29107  1  0  0  0
 29108  1  0  0  0
 33 34  1  0  0  0
 33 66  1  0  0  0
 33 70  2  0  0  0
 34 36  1  0  0  0
 34 59  1  0  0  0
 34109  1  0  0  0
 35 44  2  0  0  0
 35 45  1  0  0  0
 35 68  1  0  0  0
 36 56  1  0  0  0
 36110  1  0  0  0
 37 39  1  0  0  0
 37 47  1  0  0  0
 37 66  1  0  0  0
 37111  1  0  0  0
 38 43  2  0  0  0
 38 46  1  0  0  0
 38 47  1  0  0  0
 39 64  1  0  0  0
 39 67  2  0  0  0
 40 52  1  0  0  0
 40 53  2  0  0  0
 40 58  1  0  0  0
 41112  1  0  0  0
 41113  1  0  0  0
 41114  1  0  0  0
 41 48  1  0  0  0
 42 43  1  0  0  0
 42 66  1  0  0  0
 42115  1  0  0  0
 42116  1  0  0  0
 43 44  1  0  0  0
 44117  1  0  0  0
 45 46  2  0  0  0
 45118  1  0  0  0
 46119  1  0  0  0
 47120  1  0  0  0
 47121  1  0  0  0
 48 56  1  0  0  0
 48 65  1  0  0  0
 48122  1  0  0  0
 49 50  1  0  0  0
 49 53  1  0  0  0
 49 64  1  0  0  0
 49123  1  0  0  0
 50 51  1  0  0  0
 50124  1  0  0  0
 50125  1  0  0  0
 51 52  1  0  0  0
 51126  1  0  0  0
 51127  1  0  0  0
 52128  1  0  0  0
 52129  1  0  0  0
 53 54  1  0  0  0
 54 55  2  0  0  0
 54130  1  0  0  0
 55 57  1  0  0  0
 55131  1  0  0  0
 56 69  2  0  0  0
 57 58  2  0  0  0
 57132  1  0  0  0
 58133  1  0  0  0
 59 60  1  0  0  0
 59 61  1  0  0  0
 59 62  1  0  0  0
 60134  1  0  0  0
 60135  1  0  0  0
 60136  1  0  0  0
 61137  1  0  0  0
 61138  1  0  0  0
 61139  1  0  0  0
 62140  1  0  0  0
 62141  1  0  0  0
 62142  1  0  0  0
 63 65  1  0  0  0
 63143  1  0  0  0
 63144  1  0  0  0
 63145  1  0  0  0
 64146  1  0  0  0
 65147  1  0  0  0
 68 84  1  0  0  0
 71 72  2  0  0  0
 71 74  1  0  0  0
 71148  1  0  0  0
 72 73  1  0  0  0
 72 76  1  0  0  0
 73 75  2  0  0  0
 73 78  1  0  0  0
 74 82  1  0  0  0
 74 85  2  0  0  0
 75 79  1  0  0  0
 75 85  1  0  0  0
 76 86  1  0  0  0
 76 88  2  0  0  0
 77 78  1  0  0  0
 77 86  1  0  0  0
 77149  1  0  0  0
 77150  1  0  0  0
 78 80  1  0  0  0
 78 81  1  0  0  0
 79151  1  0  0  0
 79152  1  0  0  0
 79153  1  0  0  0
 80154  1  0  0  0
 80155  1  0  0  0
 80156  1  0  0  0
 81157  1  0  0  0
 81158  1  0  0  0
 81159  1  0  0  0
 82 87  1  0  0  0
 82160  1  0  0  0
 82161  1  0  0  0
 83 84  1  0  0  0
 83 86  1  0  0  0
 83162  1  0  0  0
 83163  1  0  0  0
 84164  1  0  0  0
 84165  1  0  0  0
 87166  1  0  0  0
M  ISO  4   1 100  68 101  84 101  87 100
M  END
> <chiral flag>
0

> <version>
0

> <s_m_source_file>
/data/baiqing/PycharmProjects/Reinvent-master-3.2/result/LINK_invent/BTK/process_docking_weight1_custom_sum_contain_oxygen_bond_distance_aromatic_linkinvent_7_9_3/rearranged_h_0176.sdf

> <i_m_source_file_index>
66

> <r_mmod_Potential_Energy-OPLS-2005>
-66.1825332641602

> <r_mmod_Stretch_Energy-OPLS-2005>
51.487678527832

> <r_mmod_Bend_Energy-OPLS-2005>
179.029708862305

> <r_mmod_Torsional_Energy-OPLS-2005>
302.412322998047

> <r_mmod_Improper_Torsional_Energy-OPLS-2005>
5.22018480300903

> <r_mmod_Van_der_Waal_Energy-OPLS-2005>
191.68049621582

> <r_mmod_Electrostatic_Energy-OPLS-2005>
-648.882141113281

> <r_mmod_Solvation_Energy-OPLS-2005>
-231.916534423828

> <b_mmod_Minimization_Converged-OPLS-2005>
0

> <r_mmod_RMS_Derivative-OPLS-2005>
11.9113931655884

$$$$
66
                    3D
 Structure written by MMmdl.
149158  0  0  1  0            999 V2000
  -30.3965  -15.3345   20.3813 C   0  0  0  0  0  0
  -30.4446  -12.8752   19.4884 C   0  0  0  0  0  0
  -29.5305  -12.5760   18.2723 C   0  0  0  0  0  0
  -28.0856  -12.2873   18.7197 C   0  0  0  0  0  0
  -27.6059  -13.2730   19.8126 C   0  0  2  0  0  0
  -28.6478  -13.4756   20.9290 C   0  0  0  0  0  0
  -25.2369  -13.8209   20.5751 C   0  0  0  0  0  0
  -24.1724  -13.0412   20.9264 C   0  0  0  0  0  0
  -24.6382  -11.6928   20.8759 C   0  0  0  0  0  0
  -23.9077  -10.4288   21.0390 C   0  0  0  0  0  0
  -24.3615   -9.4205   21.9181 C   0  0  0  0  0  0
  -23.6292   -8.2239   22.0764 C   0  0  0  0  0  0
  -22.4280   -8.0267   21.3531 C   0  0  0  0  0  0
  -21.9907   -9.0245   20.4634 C   0  0  0  0  0  0
  -22.7239  -10.2124   20.3045 C   0  0  0  0  0  0
  -21.6861   -6.0723   22.5273 C   0  0  0  0  0  0
  -21.4019   -6.5623   23.8201 C   0  0  0  0  0  0
  -21.3660   -5.6777   24.9161 C   0  0  0  0  0  0
  -21.6051   -4.3040   24.7214 C   0  0  0  0  0  0
  -21.8824   -3.8131   23.4334 C   0  0  0  0  0  0
  -21.9202   -4.6951   22.3389 C   0  0  0  0  0  0
  -22.7742  -13.5190   21.1888 C   0  0  0  0  0  0
  -22.1673   -4.2133   21.0962 F   0  0  0  0  0  0
  -21.5630   -3.4516   25.7719 F   0  0  0  0  0  0
  -29.8483  -14.0194   20.2691 N   0  0  0  0  0  0
  -26.2800  -12.9500   20.3206 N   0  0  0  0  0  0
  -25.9319  -11.6605   20.5694 N   0  0  0  0  0  0
  -22.0409  -12.8191   22.0445 N   0  0  0  0  0  0
  -25.3958  -15.1950   20.4182 N   0  0  0  0  0  0
  -31.6390  -15.3169   20.3195 O   0  0  0  0  0  0
  -21.6649   -6.8865   21.4237 O   0  0  0  0  0  0
  -22.3438  -14.5493   20.6730 O   0  0  0  0  0  0
  -24.6660  -31.8177   23.1665 C   0  0  0  0  0  0
  -25.9320  -32.4555   23.8150 C   0  0  1  0  0  0
  -27.2225  -26.8913   20.2085 C   0  0  0  0  0  0
  -25.5974  -33.8372   24.2044 N   0  0  0  0  0  0
  -23.4854  -30.4282   21.5146 C   0  0  2  0  0  0
  -24.9373  -28.8035   20.1173 C   0  0  0  0  0  0
  -22.7672  -29.4430   22.4739 C   0  0  0  0  0  0
  -18.0295  -28.1420   22.8421 C   0  0  0  0  0  0
  -24.1494  -36.7199   23.2652 C   0  0  0  0  0  0
  -26.0530  -30.6173   21.4001 C   0  0  0  0  0  0
  -26.1221  -29.2022   20.7489 C   0  0  0  0  0  0
  -27.2594  -28.2695   20.7627 C   0  0  0  0  0  0
  -26.0027  -26.6450   19.5377 C   0  0  0  0  0  0
  -24.9044  -27.5461   19.4913 C   0  0  0  0  0  0
  -23.7291  -29.7408   20.1434 C   0  0  0  0  0  0
  -25.4136  -36.2947   24.0298 C   0  0  1  0  0  0
  -20.5939  -28.3781   23.1074 C   0  0  2  0  0  0
  -20.6814  -26.9493   22.5189 C   0  0  0  0  0  0
  -19.5663  -26.6351   21.5171 C   0  0  0  0  0  0
  -18.1922  -26.7913   22.1667 C   0  0  0  0  0  0
  -19.1569  -28.8914   23.2755 C   0  0  0  0  0  0
  -18.9488  -30.1480   23.8839 C   0  0  0  0  0  0
  -17.6490  -30.6617   24.0540 C   0  0  0  0  0  0
  -25.9099  -34.9334   23.4998 C   0  0  0  0  0  0
  -16.5376  -29.9114   23.6326 C   0  0  0  0  0  0
  -16.7283  -28.6524   23.0351 C   0  0  0  0  0  0
  -26.4566  -31.6527   25.0703 C   0  0  0  0  0  0
  -25.3694  -31.3786   26.1359 C   0  0  0  0  0  0
  -27.0482  -30.2894   24.6462 C   0  0  0  0  0  0
  -27.6035  -32.4362   25.7517 C   0  0  0  0  0  0
  -27.5564  -37.1762   24.8470 C   0  0  0  0  0  0
  -21.4338  -29.3080   22.3439 N   0  0  0  0  0  0
  -26.4277  -37.3685   23.9397 N   0  0  0  0  0  0
  -24.7556  -30.9833   22.0809 N   0  0  0  0  0  0
  -23.4177  -28.8033   23.3040 O   0  0  0  0  0  0
  -28.2349  -25.7833   20.2607 O   0  0  0  0  0  0
  -26.5716  -34.8883   22.4591 O   0  0  0  0  0  0
  -23.5730  -32.1147   23.6764 O   0  0  0  0  0  0
  -29.4645  -19.5375   20.0503 C   0  0  0  0  0  0
  -28.8515  -20.8568   20.5831 C   0  0  0  0  0  0
  -29.3224  -18.1145   20.6425 C   0  0  0  0  0  0
  -27.9715  -19.3459   22.1616 C   0  0  0  0  0  0
  -28.2634  -23.3218   19.1276 C   0  0  0  0  0  0
  -28.9687  -22.6141   20.2803 C   0  0  1  0  0  0
  -27.9971  -24.1311   20.3838 C   0  0  1  0  0  0
  -27.0184  -19.1989   23.3320 C   0  0  0  0  0  0
  -28.1016  -20.5917   21.6734 N   0  0  0  0  0  0
  -28.5286  -18.1973   21.7335 N   0  0  0  0  0  0
  -29.6199  -16.5912   20.1361 N   0  0  0  0  0  0
  -31.4442  -13.1297   19.1314 H   0  0  0  0  0  0
  -30.5708  -11.9892   20.1136 H   0  0  0  0  0  0
  -29.9199  -11.7353   17.6977 H   0  0  0  0  0  0
  -29.5361  -13.4351   17.6007 H   0  0  0  0  0  0
  -28.0589  -11.2696   19.1104 H   0  0  0  0  0  0
  -27.4086  -12.3005   17.8653 H   0  0  0  0  0  0
  -27.5080  -14.2303   19.2996 H   0  0  0  0  0  0
  -28.8502  -12.5506   21.4687 H   0  0  0  0  0  0
  -28.2816  -14.1919   21.6681 H   0  0  0  0  0  0
  -25.2754   -9.5694   22.4758 H   0  0  0  0  0  0
  -23.9998   -7.4637   22.7492 H   0  0  0  0  0  0
  -21.0845   -8.8753   19.8941 H   0  0  0  0  0  0
  -22.3690  -10.9655   19.6151 H   0  0  0  0  0  0
  -21.2029   -7.6132   23.9683 H   0  0  0  0  0  0
  -21.1470   -6.0513   25.9054 H   0  0  0  0  0  0
  -22.0613   -2.7590   23.2832 H   0  0  0  0  0  0
  -22.4053  -11.9880   22.4846 H   0  0  0  0  0  0
  -21.1002  -13.1166   22.2598 H   0  0  0  0  0  0
  -24.6177  -15.8360   20.5272 H   0  0  0  0  0  0
  -26.2389  -15.6442   20.0891 H   0  0  0  0  0  0
  -26.7394  -32.5088   23.0871 H   0  0  0  0  0  0
  -25.0096  -33.9426   25.0187 H   0  0  0  0  0  0
  -22.7981  -31.2565   21.3415 H   0  0  0  0  0  0
  -23.3759  -35.9528   23.3292 H   0  0  0  0  0  0
  -24.3575  -36.8866   22.2071 H   0  0  0  0  0  0
  -23.7257  -37.6384   23.6730 H   0  0  0  0  0  0
  -26.2358  -31.3565   20.6189 H   0  0  0  0  0  0
  -26.9128  -30.6773   22.0583 H   0  0  0  0  0  0
  -28.1596  -28.5782   21.2759 H   0  0  0  0  0  0
  -25.8732  -25.6816   19.0668 H   0  0  0  0  0  0
  -24.0030  -27.2308   18.9811 H   0  0  0  0  0  0
  -23.8963  -30.5092   19.3871 H   0  0  0  0  0  0
  -22.8386  -29.2011   19.8170 H   0  0  0  0  0  0
  -25.1335  -36.1738   25.0793 H   0  0  0  0  0  0
  -21.0024  -28.3301   24.1211 H   0  0  0  0  0  0
  -20.6020  -26.2354   23.3396 H   0  0  0  0  0  0
  -21.6586  -26.7653   22.0664 H   0  0  0  0  0  0
  -19.6789  -25.6196   21.1356 H   0  0  0  0  0  0
  -19.6536  -27.3024   20.6583 H   0  0  0  0  0  0
  -17.4122  -26.6496   21.4186 H   0  0  0  0  0  0
  -18.0452  -26.0154   22.9201 H   0  0  0  0  0  0
  -19.7963  -30.7277   24.2186 H   0  0  0  0  0  0
  -17.5038  -31.6263   24.5225 H   0  0  0  0  0  0
  -15.5379  -30.2997   23.7679 H   0  0  0  0  0  0
  -15.8667  -28.0834   22.7083 H   0  0  0  0  0  0
  -24.5894  -30.7106   25.7675 H   0  0  0  0  0  0
  -24.8873  -32.2995   26.4654 H   0  0  0  0  0  0
  -25.7939  -30.9046   27.0218 H   0  0  0  0  0  0
  -26.3164  -29.6548   24.1445 H   0  0  0  0  0  0
  -27.3968  -29.7278   25.5138 H   0  0  0  0  0  0
  -27.9113  -30.4062   23.9904 H   0  0  0  0  0  0
  -27.2577  -33.3707   26.1941 H   0  0  0  0  0  0
  -28.3937  -32.6836   25.0422 H   0  0  0  0  0  0
  -28.0604  -31.8595   26.5565 H   0  0  0  0  0  0
  -28.2568  -38.0064   24.7480 H   0  0  0  0  0  0
  -28.1062  -36.2583   24.6338 H   0  0  0  0  0  0
  -27.2272  -37.1457   25.8870 H   0  0  0  0  0  0
  -20.9687  -29.8653   21.6427 H   0  0  0  0  0  0
  -26.0118  -38.2739   24.1403 H   0  0  0  0  0  0
  -30.0723  -19.6268   19.1602 H   0  0  0  0  0  0
  -27.3953  -22.8200   18.7031 H   0  0  0  0  0  0
  -28.9187  -23.7671   18.3838 H   0  0  0  0  0  0
  -30.0323  -22.8143   20.3871 H   0  0  0  0  0  0
  -27.0338  -23.9915   20.8728 H   0  0  0  0  0  0
  -27.5688  -19.0642   24.2632 H   0  0  0  0  0  0
  -26.3791  -20.0760   23.4436 H   0  0  0  0  0  0
  -26.3632  -18.3377   23.1934 H   0  0  0  0  0  0
  -28.7629  -16.2594   19.7253 H   0  0  0  0  0  0
  1 25  1  0  0  0
  1 30  2  0  0  0
  1 81  1  0  0  0
  2  3  1  0  0  0
  2 25  1  0  0  0
  2 82  1  0  0  0
  2 83  1  0  0  0
  3  4  1  0  0  0
  3 84  1  0  0  0
  3 85  1  0  0  0
  4  5  1  0  0  0
  4 86  1  0  0  0
  4 87  1  0  0  0
  5  6  1  0  0  0
  5 26  1  0  0  0
  5 88  1  0  0  0
  6 25  1  0  0  0
  6 89  1  0  0  0
  6 90  1  0  0  0
  7  8  2  0  0  0
  7 26  1  0  0  0
  7 29  1  0  0  0
  8  9  1  0  0  0
  8 22  1  0  0  0
  9 10  1  0  0  0
  9 27  2  0  0  0
 10 11  2  0  0  0
 10 15  1  0  0  0
 11 12  1  0  0  0
 11 91  1  0  0  0
 12 13  2  0  0  0
 12 92  1  0  0  0
 13 14  1  0  0  0
 13 31  1  0  0  0
 14 15  2  0  0  0
 14 93  1  0  0  0
 15 94  1  0  0  0
 16 17  2  0  0  0
 16 21  1  0  0  0
 16 31  1  0  0  0
 17 18  1  0  0  0
 17 95  1  0  0  0
 18 19  2  0  0  0
 18 96  1  0  0  0
 19 20  1  0  0  0
 19 24  1  0  0  0
 20 21  2  0  0  0
 20 97  1  0  0  0
 21 23  1  0  0  0
 22 28  1  0  0  0
 22 32  2  0  0  0
 26 27  1  0  0  0
 28 98  1  0  0  0
 28 99  1  0  0  0
 29100  1  0  0  0
 29101  1  0  0  0
 33 34  1  0  0  0
 33 66  1  0  0  0
 33 70  2  0  0  0
 34 36  1  0  0  0
 34 59  1  0  0  0
 34102  1  0  0  0
 35 44  2  0  0  0
 35 45  1  0  0  0
 35 68  1  0  0  0
 36 56  1  0  0  0
 36103  1  0  0  0
 37 39  1  0  0  0
 37 47  1  0  0  0
 37 66  1  0  0  0
 37104  1  0  0  0
 38 43  2  0  0  0
 38 46  1  0  0  0
 38 47  1  0  0  0
 39 64  1  0  0  0
 39 67  2  0  0  0
 40 52  1  0  0  0
 40 53  2  0  0  0
 40 58  1  0  0  0
 41105  1  0  0  0
 41106  1  0  0  0
 41107  1  0  0  0
 41 48  1  0  0  0
 42 43  1  0  0  0
 42 66  1  0  0  0
 42108  1  0  0  0
 42109  1  0  0  0
 43 44  1  0  0  0
 44110  1  0  0  0
 45 46  2  0  0  0
 45111  1  0  0  0
 46112  1  0  0  0
 47113  1  0  0  0
 47114  1  0  0  0
 48 56  1  0  0  0
 48 65  1  0  0  0
 48115  1  0  0  0
 49 50  1  0  0  0
 49 53  1  0  0  0
 49 64  1  0  0  0
 49116  1  0  0  0
 50 51  1  0  0  0
 50117  1  0  0  0
 50118  1  0  0  0
 51 52  1  0  0  0
 51119  1  0  0  0
 51120  1  0  0  0
 52121  1  0  0  0
 52122  1  0  0  0
 53 54  1  0  0  0
 54 55  2  0  0  0
 54123  1  0  0  0
 55 57  1  0  0  0
 55124  1  0  0  0
 56 69  2  0  0  0
 57 58  2  0  0  0
 57125  1  0  0  0
 58126  1  0  0  0
 59 60  1  0  0  0
 59 61  1  0  0  0
 59 62  1  0  0  0
 60127  1  0  0  0
 60128  1  0  0  0
 60129  1  0  0  0
 61130  1  0  0  0
 61131  1  0  0  0
 61132  1  0  0  0
 62133  1  0  0  0
 62134  1  0  0  0
 62135  1  0  0  0
 63 65  1  0  0  0
 63136  1  0  0  0
 63137  1  0  0  0
 63138  1  0  0  0
 64139  1  0  0  0
 65140  1  0  0  0
 68 77  1  0  0  0
 71 72  2  0  0  0
 71 73  1  0  0  0
 71141  1  0  0  0
 72 79  1  0  0  0
 72 76  1  0  0  0
 73 80  2  0  0  0
 73 81  1  0  0  0
 74 78  1  0  0  0
 74 79  2  0  0  0
 74 80  1  0  0  0
 75 76  1  0  0  0
 75 77  1  0  0  0
 75142  1  0  0  0
 75143  1  0  0  0
 76 77  1  0  0  0
 76144  1  0  0  0
 77145  1  0  0  0
 78146  1  0  0  0
 78147  1  0  0  0
 78148  1  0  0  0
 81149  1  0  0  0
M  ISO  4   1 100  68 101  77 101  81 100
M  END
> <chiral flag>
0

> <version>
0

> <s_m_source_file>
/data/baiqing/PycharmProjects/Reinvent-master-3.2/result/LINK_invent/BTK/process_docking_weight1_custom_sum_contain_oxygen_bond_distance_aromatic_linkinvent_7_9_3/rearranged_h_0176.sdf

> <i_m_source_file_index>
67

> <r_mmod_Potential_Energy-OPLS-2005>
1060.66784667969

> <r_mmod_Stretch_Energy-OPLS-2005>
635.810729980469

> <r_mmod_Bend_Energy-OPLS-2005>
459.56396484375

> <r_mmod_Torsional_Energy-OPLS-2005>
286.163177490234

> <r_mmod_Improper_Torsional_Energy-OPLS-2005>
18.2981491088867

> <r_mmod_Van_der_Waal_Energy-OPLS-2005>
128.497177124023

> <r_mmod_Electrostatic_Energy-OPLS-2005>
-759.713256835938

> <r_mmod_Solvation_Energy-OPLS-2005>
-238.223403930664

> <b_mmod_Minimization_Converged-OPLS-2005>
0

> <r_mmod_RMS_Derivative-OPLS-2005>
3.68168592453003

$$$$
67
                    3D
 Structure written by MMmdl.
150159  0  0  1  0            999 V2000
  -30.4643  -15.2175   20.3744 C   0  0  0  0  0  0
  -30.4384  -12.7737   19.5260 C   0  0  0  0  0  0
  -29.5349  -12.5670   18.2852 C   0  0  0  0  0  0
  -28.0801  -12.3029   18.7101 C   0  0  0  0  0  0
  -27.6148  -13.2728   19.8251 C   0  0  2  0  0  0
  -28.6495  -13.4298   20.9604 C   0  0  0  0  0  0
  -25.2404  -13.8248   20.5746 C   0  0  0  0  0  0
  -24.1751  -13.0440   20.9257 C   0  0  0  0  0  0
  -24.6402  -11.6936   20.8762 C   0  0  0  0  0  0
  -23.9096  -10.4295   21.0407 C   0  0  0  0  0  0
  -24.3638   -9.4207   21.9185 C   0  0  0  0  0  0
  -23.6305   -8.2245   22.0754 C   0  0  0  0  0  0
  -22.4284   -8.0286   21.3546 C   0  0  0  0  0  0
  -21.9927   -9.0262   20.4647 C   0  0  0  0  0  0
  -22.7265  -10.2137   20.3056 C   0  0  0  0  0  0
  -21.6857   -6.0740   22.5280 C   0  0  0  0  0  0
  -21.4016   -6.5643   23.8214 C   0  0  0  0  0  0
  -21.3659   -5.6795   24.9176 C   0  0  0  0  0  0
  -21.6043   -4.3057   24.7225 C   0  0  0  0  0  0
  -21.8818   -3.8150   23.4346 C   0  0  0  0  0  0
  -21.9195   -4.6968   22.3403 C   0  0  0  0  0  0
  -22.7767  -13.5193   21.1901 C   0  0  0  0  0  0
  -22.1662   -4.2154   21.0981 F   0  0  0  0  0  0
  -21.5627   -3.4540   25.7738 F   0  0  0  0  0  0
  -29.8896  -13.9189   20.3389 N   0  0  0  0  0  0
  -26.2832  -12.9519   20.3221 N   0  0  0  0  0  0
  -25.9339  -11.6627   20.5723 N   0  0  0  0  0  0
  -22.0421  -12.8176   22.0453 N   0  0  0  0  0  0
  -25.4041  -15.1984   20.4185 N   0  0  0  0  0  0
  -31.6811  -15.2142   20.1423 O   0  0  0  0  0  0
  -21.6644   -6.8885   21.4242 O   0  0  0  0  0  0
  -22.3446  -14.5493   20.6738 O   0  0  0  0  0  0
  -24.6609  -31.8264   23.1734 C   0  0  0  0  0  0
  -25.9302  -32.4603   23.8187 C   0  0  1  0  0  0
  -27.2168  -26.9526   20.1781 C   0  0  0  0  0  0
  -25.5979  -33.8414   24.2090 N   0  0  0  0  0  0
  -23.4744  -30.4403   21.5219 C   0  0  2  0  0  0
  -24.9285  -28.8355   20.1100 C   0  0  0  0  0  0
  -22.7658  -29.4455   22.4782 C   0  0  0  0  0  0
  -18.0323  -28.1410   22.8469 C   0  0  0  0  0  0
  -24.1492  -36.7209   23.2646 C   0  0  0  0  0  0
  -26.0430  -30.6406   21.4015 C   0  0  0  0  0  0
  -26.1116  -29.2337   20.7446 C   0  0  0  0  0  0
  -27.2512  -28.3123   20.7572 C   0  0  0  0  0  0
  -26.0071  -26.7079   19.4876 C   0  0  0  0  0  0
  -24.9003  -27.5922   19.4611 C   0  0  0  0  0  0
  -23.7132  -29.7599   20.1466 C   0  0  0  0  0  0
  -25.4132  -36.2973   24.0301 C   0  0  1  0  0  0
  -20.5947  -28.3752   23.1189 C   0  0  2  0  0  0
  -20.6798  -26.9434   22.5400 C   0  0  0  0  0  0
  -19.5768  -26.6379   21.5215 C   0  0  0  0  0  0
  -18.1952  -26.7943   22.1626 C   0  0  0  0  0  0
  -19.1585  -28.8903   23.2816 C   0  0  0  0  0  0
  -18.9493  -30.1494   23.8850 C   0  0  0  0  0  0
  -17.6485  -30.6598   24.0557 C   0  0  0  0  0  0
  -25.9093  -34.9356   23.5012 C   0  0  0  0  0  0
  -16.5375  -29.9084   23.6346 C   0  0  0  0  0  0
  -16.7305  -28.6506   23.0362 C   0  0  0  0  0  0
  -26.4560  -31.6539   25.0704 C   0  0  0  0  0  0
  -25.3693  -31.3790   26.1367 C   0  0  0  0  0  0
  -27.0456  -30.2906   24.6431 C   0  0  0  0  0  0
  -27.6052  -32.4348   25.7507 C   0  0  0  0  0  0
  -27.5569  -37.1762   24.8467 C   0  0  0  0  0  0
  -21.4330  -29.3043   22.3534 N   0  0  0  0  0  0
  -26.4279  -37.3707   23.9407 N   0  0  0  0  0  0
  -24.7472  -30.9953   22.0859 N   0  0  0  0  0  0
  -23.4218  -28.8019   23.3011 O   0  0  0  0  0  0
  -28.2015  -25.8396   20.2737 O   0  0  0  0  0  0
  -26.5701  -34.8887   22.4605 O   0  0  0  0  0  0
  -23.5685  -32.1221   23.6841 O   0  0  0  0  0  0
  -28.6354  -20.3572   21.4694 C   0  0  0  0  0  0
  -28.2800  -21.7960   21.3809 C   0  0  0  0  0  0
  -29.3253  -19.6264   20.4272 C   0  0  0  0  0  0
  -29.5937  -20.5760   19.3968 C   0  0  0  0  0  0
  -28.5836  -22.7053   20.2815 C   0  0  0  0  0  0
  -30.4139  -19.8570   18.3443 C   0  0  0  0  0  0
  -30.4811  -18.3290   18.7333 C   0  0  0  0  0  0
  -30.0711  -18.0938   20.2187 C   0  0  2  0  0  0
  -27.8449  -24.2668   19.9996 C   0  0  0  0  0  0
  -29.2541  -21.9595   19.2952 N   0  0  0  0  0  0
  -29.7158  -16.4908   20.4603 N   0  0  0  0  0  0
  -31.4609  -12.9648   19.1978 H   0  0  0  0  0  0
  -30.4908  -11.8626   20.1241 H   0  0  0  0  0  0
  -29.9049  -11.7400   17.6775 H   0  0  0  0  0  0
  -29.5766  -13.4554   17.6533 H   0  0  0  0  0  0
  -28.0259  -11.2761   19.0739 H   0  0  0  0  0  0
  -27.4134  -12.3584   17.8487 H   0  0  0  0  0  0
  -27.5365  -14.2441   19.3354 H   0  0  0  0  0  0
  -28.8044  -12.4910   21.4943 H   0  0  0  0  0  0
  -28.2984  -14.1535   21.6974 H   0  0  0  0  0  0
  -25.2781   -9.5682   22.4764 H   0  0  0  0  0  0
  -24.0015   -7.4635   22.7471 H   0  0  0  0  0  0
  -21.0860   -8.8786   19.8951 H   0  0  0  0  0  0
  -22.3724  -10.9678   19.6167 H   0  0  0  0  0  0
  -21.2008   -7.6151   23.9718 H   0  0  0  0  0  0
  -21.1480   -6.0525   25.9079 H   0  0  0  0  0  0
  -22.0596   -2.7613   23.2845 H   0  0  0  0  0  0
  -22.4053  -11.9856   22.4863 H   0  0  0  0  0  0
  -21.1029  -13.1182   22.2641 H   0  0  0  0  0  0
  -24.6334  -15.8477   20.5336 H   0  0  0  0  0  0
  -26.2420  -15.6402   20.0637 H   0  0  0  0  0  0
  -26.7370  -32.5151   23.0903 H   0  0  0  0  0  0
  -25.0088  -33.9495   25.0218 H   0  0  0  0  0  0
  -22.7863  -31.2714   21.3543 H   0  0  0  0  0  0
  -23.3760  -35.9534   23.3289 H   0  0  0  0  0  0
  -24.3566  -36.8872   22.2064 H   0  0  0  0  0  0
  -23.7247  -37.6393   23.6710 H   0  0  0  0  0  0
  -26.2221  -31.3839   20.6233 H   0  0  0  0  0  0
  -26.9031  -30.6953   22.0567 H   0  0  0  0  0  0
  -28.1434  -28.6117   21.2888 H   0  0  0  0  0  0
  -25.8721  -25.7620   18.9853 H   0  0  0  0  0  0
  -24.0022  -27.2827   18.9441 H   0  0  0  0  0  0
  -23.8662  -30.5301   19.3896 H   0  0  0  0  0  0
  -22.8236  -29.2131   19.8295 H   0  0  0  0  0  0
  -25.1331  -36.1772   25.0793 H   0  0  0  0  0  0
  -21.0042  -28.3358   24.1309 H   0  0  0  0  0  0
  -20.5679  -26.2369   23.3638 H   0  0  0  0  0  0
  -21.6660  -26.7408   22.1207 H   0  0  0  0  0  0
  -19.6920  -25.6278   21.1275 H   0  0  0  0  0  0
  -19.6706  -27.3165   20.6725 H   0  0  0  0  0  0
  -17.4220  -26.6689   21.4031 H   0  0  0  0  0  0
  -18.0344  -26.0098   22.9036 H   0  0  0  0  0  0
  -19.7966  -30.7328   24.2192 H   0  0  0  0  0  0
  -17.5035  -31.6273   24.5167 H   0  0  0  0  0  0
  -15.5373  -30.2969   23.7697 H   0  0  0  0  0  0
  -15.8706  -28.0810   22.7099 H   0  0  0  0  0  0
  -24.5880  -30.7134   25.7682 H   0  0  0  0  0  0
  -24.8880  -32.2995   26.4680 H   0  0  0  0  0  0
  -25.7930  -30.9032   27.0221 H   0  0  0  0  0  0
  -26.3125  -29.6583   24.1413 H   0  0  0  0  0  0
  -27.3965  -29.7269   25.5085 H   0  0  0  0  0  0
  -27.9075  -30.4087   23.9861 H   0  0  0  0  0  0
  -27.2615  -33.3686   26.1974 H   0  0  0  0  0  0
  -28.3923  -32.6856   25.0381 H   0  0  0  0  0  0
  -28.0657  -31.8554   26.5520 H   0  0  0  0  0  0
  -28.2575  -38.0069   24.7505 H   0  0  0  0  0  0
  -28.1077  -36.2593   24.6306 H   0  0  0  0  0  0
  -27.2282  -37.1424   25.8870 H   0  0  0  0  0  0
  -20.9576  -29.8736   21.6672 H   0  0  0  0  0  0
  -26.0127  -38.2766   24.1414 H   0  0  0  0  0  0
  -28.3726  -19.8235   22.3713 H   0  0  0  0  0  0
  -27.7081  -22.2077   22.2017 H   0  0  0  0  0  0
  -31.4156  -20.2874   18.3380 H   0  0  0  0  0  0
  -29.9875  -19.9991   17.3510 H   0  0  0  0  0  0
  -31.4442  -17.8807   18.4871 H   0  0  0  0  0  0
  -29.7444  -17.8177   18.1129 H   0  0  0  0  0  0
  -30.9781  -18.2124   20.8135 H   0  0  0  0  0  0
  -26.8681  -24.1464   20.4681 H   0  0  0  0  0  0
  -27.6306  -24.2406   18.9314 H   0  0  0  0  0  0
  -28.7363  -16.3323   20.6446 H   0  0  0  0  0  0
  1 25  1  0  0  0
  1 30  2  0  0  0
  1 81  1  0  0  0
  2  3  1  0  0  0
  2 25  1  0  0  0
  2 82  1  0  0  0
  2 83  1  0  0  0
  3  4  1  0  0  0
  3 84  1  0  0  0
  3 85  1  0  0  0
  4  5  1  0  0  0
  4 86  1  0  0  0
  4 87  1  0  0  0
  5  6  1  0  0  0
  5 26  1  0  0  0
  5 88  1  0  0  0
  6 25  1  0  0  0
  6 89  1  0  0  0
  6 90  1  0  0  0
  7  8  2  0  0  0
  7 26  1  0  0  0
  7 29  1  0  0  0
  8  9  1  0  0  0
  8 22  1  0  0  0
  9 10  1  0  0  0
  9 27  2  0  0  0
 10 11  2  0  0  0
 10 15  1  0  0  0
 11 12  1  0  0  0
 11 91  1  0  0  0
 12 13  2  0  0  0
 12 92  1  0  0  0
 13 14  1  0  0  0
 13 31  1  0  0  0
 14 15  2  0  0  0
 14 93  1  0  0  0
 15 94  1  0  0  0
 16 17  2  0  0  0
 16 21  1  0  0  0
 16 31  1  0  0  0
 17 18  1  0  0  0
 17 95  1  0  0  0
 18 19  2  0  0  0
 18 96  1  0  0  0
 19 20  1  0  0  0
 19 24  1  0  0  0
 20 21  2  0  0  0
 20 97  1  0  0  0
 21 23  1  0  0  0
 22 28  1  0  0  0
 22 32  2  0  0  0
 26 27  1  0  0  0
 28 98  1  0  0  0
 28 99  1  0  0  0
 29100  1  0  0  0
 29101  1  0  0  0
 33 34  1  0  0  0
 33 66  1  0  0  0
 33 70  2  0  0  0
 34 36  1  0  0  0
 34 59  1  0  0  0
 34102  1  0  0  0
 35 44  2  0  0  0
 35 45  1  0  0  0
 35 68  1  0  0  0
 36 56  1  0  0  0
 36103  1  0  0  0
 37 39  1  0  0  0
 37 47  1  0  0  0
 37 66  1  0  0  0
 37104  1  0  0  0
 38 43  2  0  0  0
 38 46  1  0  0  0
 38 47  1  0  0  0
 39 64  1  0  0  0
 39 67  2  0  0  0
 40 52  1  0  0  0
 40 53  2  0  0  0
 40 58  1  0  0  0
 41105  1  0  0  0
 41106  1  0  0  0
 41107  1  0  0  0
 41 48  1  0  0  0
 42 43  1  0  0  0
 42 66  1  0  0  0
 42108  1  0  0  0
 42109  1  0  0  0
 43 44  1  0  0  0
 44110  1  0  0  0
 45 46  2  0  0  0
 45111  1  0  0  0
 46112  1  0  0  0
 47113  1  0  0  0
 47114  1  0  0  0
 48 56  1  0  0  0
 48 65  1  0  0  0
 48115  1  0  0  0
 49 50  1  0  0  0
 49 53  1  0  0  0
 49 64  1  0  0  0
 49116  1  0  0  0
 50 51  1  0  0  0
 50117  1  0  0  0
 50118  1  0  0  0
 51 52  1  0  0  0
 51119  1  0  0  0
 51120  1  0  0  0
 52121  1  0  0  0
 52122  1  0  0  0
 53 54  1  0  0  0
 54 55  2  0  0  0
 54123  1  0  0  0
 55 57  1  0  0  0
 55124  1  0  0  0
 56 69  2  0  0  0
 57 58  2  0  0  0
 57125  1  0  0  0
 58126  1  0  0  0
 59 60  1  0  0  0
 59 61  1  0  0  0
 59 62  1  0  0  0
 60127  1  0  0  0
 60128  1  0  0  0
 60129  1  0  0  0
 61130  1  0  0  0
 61131  1  0  0  0
 61132  1  0  0  0
 62133  1  0  0  0
 62134  1  0  0  0
 62135  1  0  0  0
 63 65  1  0  0  0
 63136  1  0  0  0
 63137  1  0  0  0
 63138  1  0  0  0
 64139  1  0  0  0
 65140  1  0  0  0
 68 79  1  0  0  0
 71 72  2  0  0  0
 71 73  1  0  0  0
 71141  1  0  0  0
 72 75  1  0  0  0
 72142  1  0  0  0
 73 74  2  0  0  0
 73 78  1  0  0  0
 74 76  1  0  0  0
 74 80  1  0  0  0
 75 79  1  0  0  0
 75 80  2  0  0  0
 76 77  1  0  0  0
 76143  1  0  0  0
 76144  1  0  0  0
 77 78  1  0  0  0
 77145  1  0  0  0
 77146  1  0  0  0
 78 81  1  0  0  0
 78147  1  0  0  0
 79148  1  0  0  0
 79149  1  0  0  0
 81150  1  0  0  0
M  ISO  4   1 100  68 101  79 101  81 100
M  END
> <chiral flag>
0

> <version>
0

> <s_m_source_file>
/data/baiqing/PycharmProjects/Reinvent-master-3.2/result/LINK_invent/BTK/process_docking_weight1_custom_sum_contain_oxygen_bond_distance_aromatic_linkinvent_7_9_3/rearranged_h_0176.sdf

> <i_m_source_file_index>
68

> <r_mmod_Potential_Energy-OPLS-2005>
1023.83270263672

> <r_mmod_Stretch_Energy-OPLS-2005>
468.066162109375

> <r_mmod_Bend_Energy-OPLS-2005>
478.942108154297

> <r_mmod_Torsional_Energy-OPLS-2005>
224.696640014648

> <r_mmod_Improper_Torsional_Energy-OPLS-2005>
8.70820331573486

> <r_mmod_Van_der_Waal_Energy-OPLS-2005>
128.323883056641

> <r_mmod_Electrostatic_Energy-OPLS-2005>
-471.363189697266

> <r_mmod_Solvation_Energy-OPLS-2005>
-231.621078491211

> <b_mmod_Minimization_Converged-OPLS-2005>
0

> <r_mmod_RMS_Derivative-OPLS-2005>
0.519014596939087

$$$$
68
                    3D
 Structure written by MMmdl.
172182  0  0  1  0            999 V2000
  -30.6339  -14.5539   20.6182 C   0  0  0  0  0  0
  -30.4446  -12.3823   19.4340 C   0  0  0  0  0  0
  -29.5022  -12.4840   18.2144 C   0  0  0  0  0  0
  -28.0295  -12.3074   18.6313 C   0  0  0  0  0  0
  -27.6441  -13.1793   19.8535 C   0  0  2  0  0  0
  -28.6804  -12.9997   20.9792 C   0  0  0  0  0  0
  -25.2510  -13.8125   20.5648 C   0  0  0  0  0  0
  -24.1742  -13.0442   20.9141 C   0  0  0  0  0  0
  -24.6270  -11.6908   20.8647 C   0  0  0  0  0  0
  -23.8920  -10.4322   21.0380 C   0  0  0  0  0  0
  -24.3557   -9.4295   21.9161 C   0  0  0  0  0  0
  -23.6310   -8.2299   22.0720 C   0  0  0  0  0  0
  -22.4281   -8.0293   21.3545 C   0  0  0  0  0  0
  -21.9854   -9.0225   20.4625 C   0  0  0  0  0  0
  -22.7103  -10.2138   20.3044 C   0  0  0  0  0  0
  -21.6881   -6.0690   22.5237 C   0  0  0  0  0  0
  -21.4030   -6.5592   23.8166 C   0  0  0  0  0  0
  -21.3654   -5.6747   24.9118 C   0  0  0  0  0  0
  -21.6053   -4.3026   24.7138 C   0  0  0  0  0  0
  -21.8860   -3.8102   23.4265 C   0  0  0  0  0  0
  -21.9225   -4.6913   22.3332 C   0  0  0  0  0  0
  -22.7783  -13.5294   21.1801 C   0  0  0  0  0  0
  -22.1713   -4.2114   21.0883 F   0  0  0  0  0  0
  -21.5622   -3.4501   25.7663 F   0  0  0  0  0  0
  -29.9952  -13.3622   20.4421 N   0  0  0  0  0  0
  -26.2878  -12.9202   20.3235 N   0  0  0  0  0  0
  -25.9167  -11.6420   20.5651 N   0  0  0  0  0  0
  -22.0427  -12.8320   22.0367 N   0  0  0  0  0  0
  -25.4264  -15.1852   20.4114 N   0  0  0  0  0  0
  -31.7773  -14.7429   20.1858 O   0  0  0  0  0  0
  -21.6693   -6.8863   21.4228 O   0  0  0  0  0  0
  -22.3483  -14.5557   20.6544 O   0  0  0  0  0  0
  -24.6267  -31.8583   23.2000 C   0  0  0  0  0  0
  -25.9113  -32.4781   23.8330 C   0  0  1  0  0  0
  -27.2336  -27.3321   20.1228 C   0  0  0  0  0  0
  -25.5904  -33.8575   24.2254 N   0  0  0  0  0  0
  -23.4204  -30.4835   21.5428 C   0  0  2  0  0  0
  -24.8671  -28.9404   20.1080 C   0  0  0  0  0  0
  -22.7485  -29.4598   22.4913 C   0  0  0  0  0  0
  -18.0290  -28.1339   22.8509 C   0  0  0  0  0  0
  -24.1492  -36.7267   23.2634 C   0  0  0  0  0  0
  -25.9601  -30.7979   21.3702 C   0  0  0  0  0  0
  -26.0310  -29.4273   20.7089 C   0  0  0  0  0  0
  -27.2128  -28.6363   20.7020 C   0  0  0  0  0  0
  -26.0437  -26.8836   19.5054 C   0  0  0  0  0  0
  -24.8750  -27.6775   19.4931 C   0  0  0  0  0  0
  -23.6338  -29.8209   20.1547 C   0  0  0  0  0  0
  -25.4120  -36.3091   24.0340 C   0  0  1  0  0  0
  -20.5894  -28.3640   23.1292 C   0  0  2  0  0  0
  -20.6743  -26.9352   22.5421 C   0  0  0  0  0  0
  -19.5735  -26.6356   21.5200 C   0  0  0  0  0  0
  -18.1918  -26.7911   22.1626 C   0  0  0  0  0  0
  -19.1530  -28.8824   23.2893 C   0  0  0  0  0  0
  -18.9460  -30.1433   23.8896 C   0  0  0  0  0  0
  -17.6444  -30.6537   24.0571 C   0  0  0  0  0  0
  -25.9068  -34.9460   23.5111 C   0  0  0  0  0  0
  -16.5347  -29.9047   23.6302 C   0  0  0  0  0  0
  -16.7278  -28.6454   23.0360 C   0  0  0  0  0  0
  -26.4463  -31.6601   25.0723 C   0  0  0  0  0  0
  -25.3701  -31.3744   26.1470 C   0  0  0  0  0  0
  -27.0224  -30.3006   24.6168 C   0  0  0  0  0  0
  -27.6062  -32.4314   25.7457 C   0  0  0  0  0  0
  -27.5583  -37.1800   24.8477 C   0  0  0  0  0  0
  -21.4198  -29.2987   22.3679 N   0  0  0  0  0  0
  -26.4287  -37.3800   23.9417 N   0  0  0  0  0  0
  -24.6863  -31.0645   22.0922 N   0  0  0  0  0  0
  -23.4204  -28.8135   23.2987 O   0  0  0  0  0  0
  -28.4005  -26.5585   20.1975 O   0  0  0  0  0  0
  -26.5626  -34.8917   22.4678 O   0  0  0  0  0  0
  -23.5459  -32.1336   23.7377 O   0  0  0  0  0  0
  -30.8069  -20.9296   20.6266 C   0  0  0  0  0  0
  -29.4758  -21.5560   20.7120 C   0  0  0  0  0  0
  -31.2050  -19.6212   20.8393 C   0  0  0  0  0  0
  -33.7034  -18.9573   19.9469 C   0  0  0  0  0  0
  -33.2029  -17.8543   20.8421 C   0  0  0  0  0  0
  -28.9490  -16.3874   20.4373 C   0  0  0  0  0  0
  -30.3887  -16.2094   22.4693 C   0  0  0  0  0  0
  -31.0363  -23.3179   20.6432 C   0  0  0  0  0  0
  -29.2396  -17.9261   20.3344 C   0  0  0  0  0  0
  -30.3831  -17.7769   22.4796 C   0  0  0  0  0  0
  -31.8183  -22.0296   20.3721 C   0  0  2  0  0  0
  -32.6667  -19.2662   21.0219 C   0  0  0  0  0  0
  -32.3624  -21.9911   18.9283 C   0  0  0  0  0  0
  -28.6283  -24.0201   20.8881 C   0  0  0  0  0  0
  -28.5046  -25.1473   19.7751 C   0  0  0  0  0  0
  -29.6281  -22.9227   20.6444 N   0  0  0  0  0  0
  -29.9285  -15.5741   21.2062 N   0  0  0  0  0  0
  -30.4405  -18.3213   21.0991 N   0  3  0  0  0  0
  -28.3980  -20.9818   20.8765 O   0  0  0  0  0  0
  -31.4775  -12.5613   19.1281 H   0  0  0  0  0  0
  -30.4315  -11.3775   19.8543 H   0  0  0  0  0  0
  -29.7685  -11.7248   17.4753 H   0  0  0  0  0  0
  -29.6333  -13.4522   17.7251 H   0  0  0  0  0  0
  -27.8889  -11.2522   18.8696 H   0  0  0  0  0  0
  -27.3695  -12.5022   17.7837 H   0  0  0  0  0  0
  -27.6612  -14.2050   19.5081 H   0  0  0  0  0  0
  -28.6943  -11.9536   21.2992 H   0  0  0  0  0  0
  -28.4113  -13.5801   21.8617 H   0  0  0  0  0  0
  -25.2758   -9.5789   22.4659 H   0  0  0  0  0  0
  -24.0037   -7.4675   22.7408 H   0  0  0  0  0  0
  -21.0783   -8.8708   19.8935 H   0  0  0  0  0  0
  -22.3590  -10.9642   19.6111 H   0  0  0  0  0  0
  -21.2067   -7.6125   23.9673 H   0  0  0  0  0  0
  -21.1437   -6.0442   25.9014 H   0  0  0  0  0  0
  -22.0652   -2.7570   23.2732 H   0  0  0  0  0  0
  -22.4088  -12.0084   22.4891 H   0  0  0  0  0  0
  -21.1004  -13.1278   22.2452 H   0  0  0  0  0  0
  -24.6621  -15.8364   20.5577 H   0  0  0  0  0  0
  -26.2764  -15.6430   20.1133 H   0  0  0  0  0  0
  -26.7215  -32.5440   23.1106 H   0  0  0  0  0  0
  -25.0109  -33.9711   25.0451 H   0  0  0  0  0  0
  -22.7144  -31.3034   21.4036 H   0  0  0  0  0  0
  -23.3780  -35.9574   23.3301 H   0  0  0  0  0  0
  -24.3579  -36.8864   22.2041 H   0  0  0  0  0  0
  -23.7187  -37.6459   23.6630 H   0  0  0  0  0  0
  -26.1032  -31.5682   20.6110 H   0  0  0  0  0  0
  -26.8305  -30.8280   22.0110 H   0  0  0  0  0  0
  -28.1168  -29.0088   21.1667 H   0  0  0  0  0  0
  -25.9703  -25.9161   19.0326 H   0  0  0  0  0  0
  -23.9867  -27.2997   19.0062 H   0  0  0  0  0  0
  -23.7423  -30.5976   19.3971 H   0  0  0  0  0  0
  -22.7559  -29.2477   19.8559 H   0  0  0  0  0  0
  -25.1300  -36.1954   25.0835 H   0  0  0  0  0  0
  -20.9997  -28.3211   24.1414 H   0  0  0  0  0  0
  -20.5575  -26.2250   23.3630 H   0  0  0  0  0  0
  -21.6619  -26.7319   22.1256 H   0  0  0  0  0  0
  -19.6830  -25.6261   21.1216 H   0  0  0  0  0  0
  -19.6656  -27.3210   20.6766 H   0  0  0  0  0  0
  -17.4193  -26.6728   21.4022 H   0  0  0  0  0  0
  -18.0236  -26.0021   22.8977 H   0  0  0  0  0  0
  -19.7930  -30.7236   24.2257 H   0  0  0  0  0  0
  -17.4998  -31.6224   24.5162 H   0  0  0  0  0  0
  -15.5343  -30.2944   23.7548 H   0  0  0  0  0  0
  -15.8709  -28.0738   22.7055 H   0  0  0  0  0  0
  -24.6038  -30.6862   25.7888 H   0  0  0  0  0  0
  -24.8685  -32.2867   26.4726 H   0  0  0  0  0  0
  -25.8077  -30.9169   27.0362 H   0  0  0  0  0  0
  -26.2731  -29.6867   24.1168 H   0  0  0  0  0  0
  -27.3830  -29.7185   25.4661 H   0  0  0  0  0  0
  -27.8680  -30.4220   23.9390 H   0  0  0  0  0  0
  -27.2731  -33.3685   26.1922 H   0  0  0  0  0  0
  -28.3897  -32.6745   25.0268 H   0  0  0  0  0  0
  -28.0682  -31.8494   26.5448 H   0  0  0  0  0  0
  -28.2642  -38.0079   24.7536 H   0  0  0  0  0  0
  -28.1025  -36.2603   24.6277 H   0  0  0  0  0  0
  -27.2300  -37.1434   25.8888 H   0  0  0  0  0  0
  -20.9349  -29.8757   21.6941 H   0  0  0  0  0  0
  -26.0186  -38.2876   24.1458 H   0  0  0  0  0  0
  -33.4065  -18.9151   18.9019 H   0  0  0  0  0  0
  -34.7400  -19.2543   20.1102 H   0  0  0  0  0  0
  -33.8287  -17.4877   21.6553 H   0  0  0  0  0  0
  -32.6356  -17.0949   20.3156 H   0  0  0  0  0  0
  -28.8406  -16.0009   19.4197 H   0  0  0  0  0  0
  -27.9825  -16.2380   20.9238 H   0  0  0  0  0  0
  -31.3950  -15.8470   22.7111 H   0  0  0  0  0  0
  -29.7400  -15.8567   23.2751 H   0  0  0  0  0  0
  -31.2459  -24.0935   19.9049 H   0  0  0  0  0  0
  -31.3048  -23.7110   21.6264 H   0  0  0  0  0  0
  -28.3694  -18.4756   20.6950 H   0  0  0  0  0  0
  -29.3670  -18.2173   19.2882 H   0  0  0  0  0  0
  -31.2327  -18.1351   23.0644 H   0  0  0  0  0  0
  -29.4938  -18.1636   22.9825 H   0  0  0  0  0  0
  -32.6551  -21.9495   21.0686 H   0  0  0  0  0  0
  -33.0785  -19.8102   21.8752 H   0  0  0  0  0  0
  -32.6579  -20.9922   18.6169 H   0  0  0  0  0  0
  -33.2422  -22.6264   18.8265 H   0  0  0  0  0  0
  -31.6213  -22.3280   18.2039 H   0  0  0  0  0  0
  -27.6339  -23.5882   21.0386 H   0  0  0  0  0  0
  -28.8896  -24.4728   21.8436 H   0  0  0  0  0  0
  -27.7373  -24.8508   19.0639 H   0  0  0  0  0  0
  -29.4161  -25.1190   19.1831 H   0  0  0  0  0  0
  -31.0796  -17.6447   20.7076 H   0  0  0  0  0  0
  1 25  1  0  0  0
  1 30  2  0  0  0
  1 87  1  0  0  0
  2  3  1  0  0  0
  2 25  1  0  0  0
  2 90  1  0  0  0
  2 91  1  0  0  0
  3  4  1  0  0  0
  3 92  1  0  0  0
  3 93  1  0  0  0
  4  5  1  0  0  0
  4 94  1  0  0  0
  4 95  1  0  0  0
  5  6  1  0  0  0
  5 26  1  0  0  0
  5 96  1  0  0  0
  6 25  1  0  0  0
  6 97  1  0  0  0
  6 98  1  0  0  0
  7  8  2  0  0  0
  7 26  1  0  0  0
  7 29  1  0  0  0
  8  9  1  0  0  0
  8 22  1  0  0  0
  9 10  1  0  0  0
  9 27  2  0  0  0
 10 11  2  0  0  0
 10 15  1  0  0  0
 11 12  1  0  0  0
 11 99  1  0  0  0
 12 13  2  0  0  0
 12100  1  0  0  0
 13 14  1  0  0  0
 13 31  1  0  0  0
 14 15  2  0  0  0
 14101  1  0  0  0
 15102  1  0  0  0
 16 17  2  0  0  0
 16 21  1  0  0  0
 16 31  1  0  0  0
 17 18  1  0  0  0
 17103  1  0  0  0
 18 19  2  0  0  0
 18104  1  0  0  0
 19 20  1  0  0  0
 19 24  1  0  0  0
 20 21  2  0  0  0
 20105  1  0  0  0
 21 23  1  0  0  0
 22 28  1  0  0  0
 22 32  2  0  0  0
 26 27  1  0  0  0
 28106  1  0  0  0
 28107  1  0  0  0
 29108  1  0  0  0
 29109  1  0  0  0
 33 34  1  0  0  0
 33 66  1  0  0  0
 33 70  2  0  0  0
 34 36  1  0  0  0
 34 59  1  0  0  0
 34110  1  0  0  0
 35 44  2  0  0  0
 35 45  1  0  0  0
 35 68  1  0  0  0
 36 56  1  0  0  0
 36111  1  0  0  0
 37 39  1  0  0  0
 37 47  1  0  0  0
 37 66  1  0  0  0
 37112  1  0  0  0
 38 43  2  0  0  0
 38 46  1  0  0  0
 38 47  1  0  0  0
 39 64  1  0  0  0
 39 67  2  0  0  0
 40 52  1  0  0  0
 40 53  2  0  0  0
 40 58  1  0  0  0
 41113  1  0  0  0
 41114  1  0  0  0
 41115  1  0  0  0
 41 48  1  0  0  0
 42 43  1  0  0  0
 42 66  1  0  0  0
 42116  1  0  0  0
 42117  1  0  0  0
 43 44  1  0  0  0
 44118  1  0  0  0
 45 46  2  0  0  0
 45119  1  0  0  0
 46120  1  0  0  0
 47121  1  0  0  0
 47122  1  0  0  0
 48 56  1  0  0  0
 48 65  1  0  0  0
 48123  1  0  0  0
 49 50  1  0  0  0
 49 53  1  0  0  0
 49 64  1  0  0  0
 49124  1  0  0  0
 50 51  1  0  0  0
 50125  1  0  0  0
 50126  1  0  0  0
 51 52  1  0  0  0
 51127  1  0  0  0
 51128  1  0  0  0
 52129  1  0  0  0
 52130  1  0  0  0
 53 54  1  0  0  0
 54 55  2  0  0  0
 54131  1  0  0  0
 55 57  1  0  0  0
 55132  1  0  0  0
 56 69  2  0  0  0
 57 58  2  0  0  0
 57133  1  0  0  0
 58134  1  0  0  0
 59 60  1  0  0  0
 59 61  1  0  0  0
 59 62  1  0  0  0
 60135  1  0  0  0
 60136  1  0  0  0
 60137  1  0  0  0
 61138  1  0  0  0
 61139  1  0  0  0
 61140  1  0  0  0
 62141  1  0  0  0
 62142  1  0  0  0
 62143  1  0  0  0
 63 65  1  0  0  0
 63144  1  0  0  0
 63145  1  0  0  0
 63146  1  0  0  0
 64147  1  0  0  0
 65148  1  0  0  0
 68 85  1  0  0  0
 71 72  1  0  0  0
 71 73  2  0  0  0
 71 81  1  0  0  0
 72 86  1  0  0  0
 72 89  2  0  0  0
 73 82  1  0  0  0
 73 88  1  0  0  0
 74 75  1  0  0  0
 74 82  1  0  0  0
 74149  1  0  0  0
 74150  1  0  0  0
 75 82  1  0  0  0
 75151  1  0  0  0
 75152  1  0  0  0
 76 79  1  0  0  0
 76 87  1  0  0  0
 76153  1  0  0  0
 76154  1  0  0  0
 77 80  1  0  0  0
 77 87  1  0  0  0
 77155  1  0  0  0
 77156  1  0  0  0
 78 81  1  0  0  0
 78 86  1  0  0  0
 78157  1  0  0  0
 78158  1  0  0  0
 79 88  1  0  0  0
 79159  1  0  0  0
 79160  1  0  0  0
 80 88  1  0  0  0
 80161  1  0  0  0
 80162  1  0  0  0
 81 83  1  0  0  0
 81163  1  0  0  0
 82164  1  0  0  0
 83165  1  0  0  0
 83166  1  0  0  0
 83167  1  0  0  0
 84 85  1  0  0  0
 84 86  1  0  0  0
 84168  1  0  0  0
 84169  1  0  0  0
 85170  1  0  0  0
 85171  1  0  0  0
 88172  1  0  0  0
M  CHG  1  88   1
M  ISO  4   1 100  68 101  85 101  87 100
M  END
> <chiral flag>
0

> <version>
0

> <s_m_source_file>
/data/baiqing/PycharmProjects/Reinvent-master-3.2/result/LINK_invent/BTK/process_docking_weight1_custom_sum_contain_oxygen_bond_distance_aromatic_linkinvent_7_9_3/rearranged_h_0176.sdf

> <i_m_source_file_index>
69

> <r_mmod_Potential_Energy-OPLS-2005>
277.767303466797

> <r_mmod_Stretch_Energy-OPLS-2005>
76.2490310668945

> <r_mmod_Bend_Energy-OPLS-2005>
227.600967407227

> <r_mmod_Torsional_Energy-OPLS-2005>
473.95654296875

> <r_mmod_Improper_Torsional_Energy-OPLS-2005>
4.05803728103638

> <r_mmod_Van_der_Waal_Energy-OPLS-2005>
128.427337646484

> <r_mmod_Electrostatic_Energy-OPLS-2005>
-251.920684814453

> <r_mmod_Solvation_Energy-OPLS-2005>
-415.851104736328

> <b_mmod_Minimization_Converged-OPLS-2005>
0

> <r_mmod_RMS_Derivative-OPLS-2005>
9.12359237670898

$$$$
69
                    3D
 Structure written by MMmdl.
168177  0  0  1  0            999 V2000
  -28.8068  -16.6160   20.5263 C   0  0  0  0  0  0
  -30.0244  -14.0297   19.6630 C   0  0  0  0  0  0
  -29.4879  -13.0342   18.5345 C   0  0  0  0  0  0
  -28.2041  -12.3221   18.9575 C   0  0  0  0  0  0
  -27.4439  -13.3219   19.8257 C   0  0  2  0  0  0
  -28.2258  -13.9147   21.0063 C   0  0  0  0  0  0
  -25.1536  -13.8094   20.5663 C   0  0  0  0  0  0
  -24.1126  -13.0240   20.9365 C   0  0  0  0  0  0
  -24.5916  -11.6775   20.8822 C   0  0  0  0  0  0
  -23.8796  -10.4151   21.0472 C   0  0  0  0  0  0
  -24.3458   -9.4113   21.9224 C   0  0  0  0  0  0
  -23.6190   -8.2134   22.0763 C   0  0  0  0  0  0
  -22.4186   -8.0162   21.3548 C   0  0  0  0  0  0
  -21.9772   -9.0101   20.4649 C   0  0  0  0  0  0
  -22.7032  -10.1995   20.3071 C   0  0  0  0  0  0
  -21.6811   -6.0668   22.5288 C   0  0  0  0  0  0
  -21.3978   -6.5595   23.8213 C   0  0  0  0  0  0
  -21.3648   -5.6768   24.9192 C   0  0  0  0  0  0
  -21.6037   -4.3028   24.7253 C   0  0  0  0  0  0
  -21.8826   -3.8100   23.4382 C   0  0  0  0  0  0
  -21.9184   -4.6905   22.3427 C   0  0  0  0  0  0
  -22.7257  -13.5055   21.2092 C   0  0  0  0  0  0
  -22.1657   -4.2091   21.1005 F   0  0  0  0  0  0
  -21.5646   -3.4519   25.7774 F   0  0  0  0  0  0
  -28.9674  -15.0329   20.3989 N   0  0  0  0  0  0
  -26.1710  -12.9303   20.2930 N   0  0  0  0  0  0
  -25.8743  -11.6427   20.5539 N   0  0  0  0  0  0
  -21.9945  -12.8071   22.0663 N   0  0  0  0  0  0
  -25.3221  -15.1857   20.4048 N   0  0  0  0  0  0
  -30.0845  -16.6975   20.3212 O   0  0  0  0  0  0
  -21.6581   -6.8766   21.4234 O   0  0  0  0  0  0
  -22.3031  -14.5393   20.6939 O   0  0  0  0  0  0
  -24.6774  -31.5996   22.7048 C   0  0  0  0  0  0
  -25.8791  -32.3446   23.5561 C   0  0  1  0  0  0
  -26.3732  -28.1377   21.6487 C   0  0  0  0  0  0
  -25.4848  -33.7294   23.9746 N   0  0  0  0  0  0
  -24.1009  -29.0724   20.8624 C   0  0  2  0  0  0
  -25.5290  -28.8834   19.3699 C   0  0  0  0  0  0
  -23.8437  -27.2749   22.6250 C   0  0  0  0  0  0
  -18.2207  -28.1576   22.7431 C   0  0  0  0  0  0
  -24.1489  -36.6902   23.2759 C   0  0  0  0  0  0
  -25.9210  -31.0159   20.7247 C   0  0  0  0  0  0
  -26.4145  -29.7064   20.1452 C   0  0  0  0  0  0
  -27.2436  -29.0048   21.0163 C   0  0  0  0  0  0
  -26.0822  -27.0776   20.6773 C   0  0  0  0  0  0
  -25.6114  -27.4865   19.4301 C   0  0  0  0  0  0
  -24.1534  -29.2141   19.3755 C   0  0  0  0  0  0
  -25.4168  -36.2334   24.0107 C   0  0  1  0  0  0
  -20.8040  -27.5726   23.3474 C   0  0  2  0  0  0
  -20.1966  -26.2694   22.9169 C   0  0  0  0  0  0
  -19.2940  -26.1391   21.6927 C   0  0  0  0  0  0
  -18.0440  -26.9141   21.9072 C   0  0  0  0  0  0
  -19.5120  -28.6433   23.2446 C   0  0  0  0  0  0
  -19.3498  -29.9155   23.9051 C   0  0  0  0  0  0
  -18.0797  -30.5673   24.0634 C   0  0  0  0  0  0
  -25.8988  -34.8808   23.4183 C   0  0  0  0  0  0
  -16.8774  -29.9873   23.6593 C   0  0  0  0  0  0
  -16.9646  -28.7649   23.0057 C   0  0  0  0  0  0
  -26.4044  -31.6348   24.9124 C   0  0  0  0  0  0
  -25.3113  -31.4111   25.9868 C   0  0  0  0  0  0
  -27.0488  -30.2715   24.6158 C   0  0  0  0  0  0
  -27.5308  -32.4626   25.6069 C   0  0  0  0  0  0
  -27.5518  -37.1488   24.8456 C   0  0  0  0  0  0
  -22.4229  -27.2194   23.3836 N   0  0  0  0  0  0
  -26.4183  -37.3265   23.9420 N   0  0  0  0  0  0
  -24.6878  -30.7816   21.4318 N   0  0  0  0  0  0
  -24.4062  -27.2253   23.7148 O   0  0  0  0  0  0
  -25.3629  -28.9506   22.5978 O   0  0  0  0  0  0
  -26.6333  -34.8887   22.4358 O   0  0  0  0  0  0
  -23.6199  -31.8994   23.3272 O   0  0  0  0  0  0
  -21.6961  -22.2242   21.2641 C   0  0  0  0  0  0
  -22.2540  -23.3510   21.8950 C   0  0  0  0  0  0
  -23.5464  -23.7408   21.2515 C   0  0  0  0  0  0
  -22.4121  -21.1199   21.7080 C   0  0  0  0  0  0
  -24.5584  -22.0751   21.2085 C   0  0  0  0  0  0
  -20.2246  -22.9720   23.5320 C   0  0  0  0  0  0
  -20.8412  -23.7188   24.5940 C   0  0  0  0  0  0
  -21.7958  -23.2153   23.4460 C   0  0  0  0  0  0
  -21.6996  -20.0032   22.4944 C   0  0  0  0  0  0
  -21.3988  -28.0513   19.7648 C   0  0  0  0  0  0
  -27.3064  -18.3663   20.9276 C   0  0  0  0  0  0
  -23.0181  -29.3834   22.6967 C   0  0  0  0  0  0
  -26.1294  -20.5377   20.6973 C   0  0  1  0  0  0
  -22.2761  -27.4272   20.9404 C   0  0  2  0  0  0
  -23.7588  -21.0871   21.6980 N   0  0  0  0  0  0
  -23.0844  -25.4973   20.7815 N   0  0  0  0  0  0
  -25.6666  -20.5257   19.3215 N   0  3  0  0  0  0
  -30.7698  -14.6540   19.1682 H   0  0  0  0  0  0
  -30.6122  -13.4875   20.4025 H   0  0  0  0  0  0
  -30.2562  -12.3167   18.2502 H   0  0  0  0  0  0
  -29.2747  -13.6042   17.6325 H   0  0  0  0  0  0
  -28.4594  -11.4447   19.5595 H   0  0  0  0  0  0
  -27.6197  -11.9674   18.1060 H   0  0  0  0  0  0
  -27.2143  -14.1160   19.1103 H   0  0  0  0  0  0
  -28.8249  -13.1796   21.5505 H   0  0  0  0  0  0
  -27.5682  -14.3615   21.7567 H   0  0  0  0  0  0
  -25.2583   -9.5654   22.4814 H   0  0  0  0  0  0
  -23.9910   -7.4536   22.7468 H   0  0  0  0  0  0
  -21.0716   -8.8571   19.8961 H   0  0  0  0  0  0
  -22.3457  -10.9534   19.6196 H   0  0  0  0  0  0
  -21.1941   -7.6097   23.9701 H   0  0  0  0  0  0
  -21.1473   -6.0503   25.9098 H   0  0  0  0  0  0
  -22.0617   -2.7554   23.2905 H   0  0  0  0  0  0
  -22.3550  -11.9690   22.4965 H   0  0  0  0  0  0
  -21.0585  -13.1137   22.2905 H   0  0  0  0  0  0
  -24.5295  -15.8166   20.4554 H   0  0  0  0  0  0
  -26.1081  -15.5733   19.9016 H   0  0  0  0  0  0
  -26.7668  -32.4679   22.9432 H   0  0  0  0  0  0
  -24.8660  -33.7939   24.7708 H   0  0  0  0  0  0
  -23.1343  -29.4811   20.5175 H   0  0  0  0  0  0
  -23.3728  -35.9277   23.3228 H   0  0  0  0  0  0
  -24.3457  -36.8920   22.2230 H   0  0  0  0  0  0
  -23.7362  -37.5971   23.7174 H   0  0  0  0  0  0
  -25.7243  -31.7401   19.9388 H   0  0  0  0  0  0
  -26.7460  -31.4428   21.2745 H   0  0  0  0  0  0
  -27.8000  -29.6508   21.6762 H   0  0  0  0  0  0
  -25.6573  -26.1391   21.0051 H   0  0  0  0  0  0
  -24.9439  -26.8071   18.9140 H   0  0  0  0  0  0
  -23.9794  -30.2140   18.9652 H   0  0  0  0  0  0
  -23.6665  -28.5192   18.7140 H   0  0  0  0  0  0
  -25.1579  -36.0694   25.0575 H   0  0  0  0  0  0
  -20.7664  -27.5080   24.4516 H   0  0  0  0  0  0
  -19.4893  -25.9902   23.7101 H   0  0  0  0  0  0
  -20.9692  -25.5258   22.8271 H   0  0  0  0  0  0
  -18.9478  -25.1019   21.6459 H   0  0  0  0  0  0
  -19.7068  -26.1861   20.6929 H   0  0  0  0  0  0
  -17.6507  -27.2288   20.9250 H   0  0  0  0  0  0
  -17.2627  -26.2859   22.3496 H   0  0  0  0  0  0
  -20.2358  -30.3342   24.3448 H   0  0  0  0  0  0
  -18.0675  -31.5070   24.6100 H   0  0  0  0  0  0
  -15.9192  -30.4661   23.8569 H   0  0  0  0  0  0
  -16.0567  -28.2915   22.6636 H   0  0  0  0  0  0
  -24.4387  -30.9077   25.5689 H   0  0  0  0  0  0
  -24.9679  -32.3594   26.4015 H   0  0  0  0  0  0
  -25.6725  -30.7954   26.8111 H   0  0  0  0  0  0
  -26.3210  -29.4635   24.6554 H   0  0  0  0  0  0
  -27.8082  -29.9965   25.3473 H   0  0  0  0  0  0
  -27.5450  -30.2643   23.6509 H   0  0  0  0  0  0
  -27.1897  -33.4387   25.9414 H   0  0  0  0  0  0
  -28.3760  -32.6279   24.9412 H   0  0  0  0  0  0
  -27.9168  -31.9600   26.4909 H   0  0  0  0  0  0
  -28.2372  -37.9924   24.7560 H   0  0  0  0  0  0
  -28.1153  -36.2435   24.6203 H   0  0  0  0  0  0
  -27.2248  -37.1013   25.8850 H   0  0  0  0  0  0
  -22.6895  -26.8713   24.2862 H   0  0  0  0  0  0
  -25.9870  -38.2230   24.1584 H   0  0  0  0  0  0
  -20.6260  -22.0543   21.3418 H   0  0  0  0  0  0
  -19.5456  -23.5448   22.8930 H   0  0  0  0  0  0
  -19.8243  -21.9791   23.7662 H   0  0  0  0  0  0
  -20.7519  -23.1266   25.5112 H   0  0  0  0  0  0
  -20.5728  -24.7463   24.7980 H   0  0  0  0  0  0
  -22.5239  -22.5481   23.9148 H   0  0  0  0  0  0
  -21.2014  -20.4361   23.3575 H   0  0  0  0  0  0
  -22.3716  -19.2688   22.9325 H   0  0  0  0  0  0
  -20.9214  -19.5018   21.9164 H   0  0  0  0  0  0
  -21.1220  -29.0753   20.0764 H   0  0  0  0  0  0
  -20.4183  -27.6099   19.5588 H   0  0  0  0  0  0
  -21.8097  -28.0995   18.7645 H   0  0  0  0  0  0
  -27.6934  -18.5777   21.9212 H   0  0  0  0  0  0
  -26.4373  -17.7484   21.1321 H   0  0  0  0  0  0
  -22.7046  -29.4619   23.7389 H   0  0  0  0  0  0
  -22.4786  -30.2443   22.3123 H   0  0  0  0  0  0
  -26.9642  -21.2126   20.7819 H   0  0  0  0  0  0
  -21.3012  -27.2068   21.2391 H   0  0  0  0  0  0
  -22.2699  -25.1658   20.2702 H   0  0  0  0  0  0
  -24.8747  -19.9218   19.2489 H   0  0  0  0  0  0
  -26.3561  -20.2989   18.6588 H   0  0  0  0  0  0
  -25.3190  -21.4479   19.1219 H   0  0  0  0  0  0
  1 25  1  0  0  0
  1 30  2  0  0  0
  1 81  1  0  0  0
  2  3  1  0  0  0
  2 25  1  0  0  0
  2 88  1  0  0  0
  2 89  1  0  0  0
  3  4  1  0  0  0
  3 90  1  0  0  0
  3 91  1  0  0  0
  4  5  1  0  0  0
  4 92  1  0  0  0
  4 93  1  0  0  0
  5  6  1  0  0  0
  5 26  1  0  0  0
  5 94  1  0  0  0
  6 25  1  0  0  0
  6 95  1  0  0  0
  6 96  1  0  0  0
  7  8  2  0  0  0
  7 26  1  0  0  0
  7 29  1  0  0  0
  8  9  1  0  0  0
  8 22  1  0  0  0
  9 10  1  0  0  0
  9 27  2  0  0  0
 10 11  2  0  0  0
 10 15  1  0  0  0
 11 12  1  0  0  0
 11 97  1  0  0  0
 12 13  2  0  0  0
 12 98  1  0  0  0
 13 14  1  0  0  0
 13 31  1  0  0  0
 14 15  2  0  0  0
 14 99  1  0  0  0
 15100  1  0  0  0
 16 17  2  0  0  0
 16 21  1  0  0  0
 16 31  1  0  0  0
 17 18  1  0  0  0
 17101  1  0  0  0
 18 19  2  0  0  0
 18102  1  0  0  0
 19 20  1  0  0  0
 19 24  1  0  0  0
 20 21  2  0  0  0
 20103  1  0  0  0
 21 23  1  0  0  0
 22 28  1  0  0  0
 22 32  2  0  0  0
 26 27  1  0  0  0
 28104  1  0  0  0
 28105  1  0  0  0
 29106  1  0  0  0
 29107  1  0  0  0
 33 34  1  0  0  0
 33 66  1  0  0  0
 33 70  2  0  0  0
 34 36  1  0  0  0
 34 59  1  0  0  0
 34108  1  0  0  0
 35 44  2  0  0  0
 35 45  1  0  0  0
 35 68  1  0  0  0
 36 56  1  0  0  0
 36109  1  0  0  0
 37 39  1  0  0  0
 37 47  1  0  0  0
 37 66  1  0  0  0
 37110  1  0  0  0
 38 43  2  0  0  0
 38 46  1  0  0  0
 38 47  1  0  0  0
 39 64  1  0  0  0
 39 67  2  0  0  0
 40 52  1  0  0  0
 40 53  2  0  0  0
 40 58  1  0  0  0
 41111  1  0  0  0
 41112  1  0  0  0
 41113  1  0  0  0
 41 48  1  0  0  0
 42 43  1  0  0  0
 42 66  1  0  0  0
 42114  1  0  0  0
 42115  1  0  0  0
 43 44  1  0  0  0
 44116  1  0  0  0
 45 46  2  0  0  0
 45117  1  0  0  0
 46118  1  0  0  0
 47119  1  0  0  0
 47120  1  0  0  0
 48 56  1  0  0  0
 48 65  1  0  0  0
 48121  1  0  0  0
 49 50  1  0  0  0
 49 53  1  0  0  0
 49 64  1  0  0  0
 49122  1  0  0  0
 50 51  1  0  0  0
 50123  1  0  0  0
 50124  1  0  0  0
 51 52  1  0  0  0
 51125  1  0  0  0
 51126  1  0  0  0
 52127  1  0  0  0
 52128  1  0  0  0
 53 54  1  0  0  0
 54 55  2  0  0  0
 54129  1  0  0  0
 55 57  1  0  0  0
 55130  1  0  0  0
 56 69  2  0  0  0
 57 58  2  0  0  0
 57131  1  0  0  0
 58132  1  0  0  0
 59 60  1  0  0  0
 59 61  1  0  0  0
 59 62  1  0  0  0
 60133  1  0  0  0
 60134  1  0  0  0
 60135  1  0  0  0
 61136  1  0  0  0
 61137  1  0  0  0
 61138  1  0  0  0
 62139  1  0  0  0
 62140  1  0  0  0
 62141  1  0  0  0
 63 65  1  0  0  0
 63142  1  0  0  0
 63143  1  0  0  0
 63144  1  0  0  0
 64145  1  0  0  0
 65146  1  0  0  0
 68 82  1  0  0  0
 71 72  2  0  0  0
 71 74  1  0  0  0
 71147  1  0  0  0
 72 73  1  0  0  0
 72 78  1  0  0  0
 73 75  2  0  0  0
 73 86  1  0  0  0
 74 79  1  0  0  0
 74 85  2  0  0  0
 75 83  1  0  0  0
 75 85  1  0  0  0
 76 77  1  0  0  0
 76 78  1  0  0  0
 76148  1  0  0  0
 76149  1  0  0  0
 77 78  1  0  0  0
 77150  1  0  0  0
 77151  1  0  0  0
 78152  1  0  0  0
 79153  1  0  0  0
 79154  1  0  0  0
 79155  1  0  0  0
 80156  1  0  0  0
 80157  1  0  0  0
 80158  1  0  0  0
 80 84  1  0  0  0
 81 83  1  0  0  0
 81159  1  0  0  0
 81160  1  0  0  0
 82 84  1  0  0  0
 82161  1  0  0  0
 82162  1  0  0  0
 83 87  1  0  0  0
 83163  1  0  0  0
 84 86  1  0  0  0
 84164  1  0  0  0
 86165  1  0  0  0
 87166  1  0  0  0
 87167  1  0  0  0
 87168  1  0  0  0
M  CHG  1  87   1
M  ISO  4   1 100  68 101  81 100  82 101
M  END
> <chiral flag>
0

> <version>
0

> <s_m_source_file>
/data/baiqing/PycharmProjects/Reinvent-master-3.2/result/LINK_invent/BTK/process_docking_weight1_custom_sum_contain_oxygen_bond_distance_aromatic_linkinvent_7_9_3/rearranged_h_0176.sdf

> <i_m_source_file_index>
70

> <r_mmod_Potential_Energy-OPLS-2005>
22647.962890625

> <r_mmod_Stretch_Energy-OPLS-2005>
9710.5478515625

> <r_mmod_Bend_Energy-OPLS-2005>
2666.59643554688

> <r_mmod_Torsional_Energy-OPLS-2005>
887.995727539062

> <r_mmod_Improper_Torsional_Energy-OPLS-2005>
150.660781860352

> <r_mmod_Van_der_Waal_Energy-OPLS-2005>
2425.85888671875

> <r_mmod_Electrostatic_Energy-OPLS-2005>
-574.688354492188

> <r_mmod_Solvation_Energy-OPLS-2005>
-514.2294921875

> <b_mmod_Minimization_Converged-OPLS-2005>
0

> <r_mmod_RMS_Derivative-OPLS-2005>
64.067008972168

$$$$
70
                    3D
 Structure written by MMmdl.
162170  0  0  1  0            999 V2000
  -30.5483  -14.9938   20.3792 C   0  0  0  0  0  0
  -30.4184  -12.6063   19.4764 C   0  0  0  0  0  0
  -29.4988  -12.5029   18.2384 C   0  0  0  0  0  0
  -28.0436  -12.2790   18.6838 C   0  0  0  0  0  0
  -27.6194  -13.2419   19.8234 C   0  0  2  0  0  0
  -28.6702  -13.3251   20.9497 C   0  0  0  0  0  0
  -25.2442  -13.8203   20.5716 C   0  0  0  0  0  0
  -24.1786  -13.0429   20.9269 C   0  0  0  0  0  0
  -24.6392  -11.6894   20.8808 C   0  0  0  0  0  0
  -23.9077  -10.4261   21.0462 C   0  0  0  0  0  0
  -24.3628   -9.4168   21.9233 C   0  0  0  0  0  0
  -23.6293   -8.2214   22.0791 C   0  0  0  0  0  0
  -22.4271   -8.0282   21.3581 C   0  0  0  0  0  0
  -21.9905   -9.0259   20.4672 C   0  0  0  0  0  0
  -22.7250  -10.2132   20.3091 C   0  0  0  0  0  0
  -21.6844   -6.0721   22.5279 C   0  0  0  0  0  0
  -21.3994   -6.5630   23.8202 C   0  0  0  0  0  0
  -21.3661   -5.6807   24.9185 C   0  0  0  0  0  0
  -21.6047   -4.3066   24.7240 C   0  0  0  0  0  0
  -21.8826   -3.8136   23.4359 C   0  0  0  0  0  0
  -21.9182   -4.6945   22.3407 C   0  0  0  0  0  0
  -22.7799  -13.5180   21.1928 C   0  0  0  0  0  0
  -22.1663   -4.2109   21.0992 F   0  0  0  0  0  0
  -21.5629   -3.4563   25.7766 F   0  0  0  0  0  0
  -29.9244  -13.7417   20.3152 N   0  0  0  0  0  0
  -26.2847  -12.9401   20.3235 N   0  0  0  0  0  0
  -25.9322  -11.6538   20.5807 N   0  0  0  0  0  0
  -22.0449  -12.8134   22.0461 N   0  0  0  0  0  0
  -25.4118  -15.1930   20.4091 N   0  0  0  0  0  0
  -31.7681  -14.9757   20.1673 O   0  0  0  0  0  0
  -21.6635   -6.8874   21.4252 O   0  0  0  0  0  0
  -22.3453  -14.5501   20.6814 O   0  0  0  0  0  0
  -24.6515  -31.8351   23.1774 C   0  0  0  0  0  0
  -25.9267  -32.4618   23.8149 C   0  0  1  0  0  0
  -27.2253  -27.0616   20.1593 C   0  0  0  0  0  0
  -25.5999  -33.8425   24.2109 N   0  0  0  0  0  0
  -23.4582  -30.4518   21.5175 C   0  0  2  0  0  0
  -24.9140  -28.8593   20.0948 C   0  0  0  0  0  0
  -22.7582  -29.4539   22.4734 C   0  0  0  0  0  0
  -18.0306  -28.1392   22.8473 C   0  0  0  0  0  0
  -24.1538  -36.7317   23.2628 C   0  0  0  0  0  0
  -26.0160  -30.6784   21.3964 C   0  0  0  0  0  0
  -26.0840  -29.2832   20.7341 C   0  0  0  0  0  0
  -27.2310  -28.3976   20.7565 C   0  0  0  0  0  0
  -26.0346  -26.7518   19.4704 C   0  0  0  0  0  0
  -24.9058  -27.6086   19.4482 C   0  0  0  0  0  0
  -23.6943  -29.7712   20.1383 C   0  0  0  0  0  0
  -25.4149  -36.3006   24.0280 C   0  0  1  0  0  0
  -20.5923  -28.3764   23.1193 C   0  0  2  0  0  0
  -20.6819  -26.9456   22.5367 C   0  0  0  0  0  0
  -19.5786  -26.6404   21.5190 C   0  0  0  0  0  0
  -18.1956  -26.7937   22.1597 C   0  0  0  0  0  0
  -19.1566  -28.8893   23.2834 C   0  0  0  0  0  0
  -18.9471  -30.1480   23.8849 C   0  0  0  0  0  0
  -17.6457  -30.6558   24.0594 C   0  0  0  0  0  0
  -25.9090  -34.9361   23.4999 C   0  0  0  0  0  0
  -16.5366  -29.9052   23.6349 C   0  0  0  0  0  0
  -16.7285  -28.6476   23.0333 C   0  0  0  0  0  0
  -26.4543  -31.6465   25.0618 C   0  0  0  0  0  0
  -25.3684  -31.3646   26.1289 C   0  0  0  0  0  0
  -27.0445  -30.2829   24.6295 C   0  0  0  0  0  0
  -27.6071  -32.4227   25.7389 C   0  0  0  0  0  0
  -27.5577  -37.1800   24.8411 C   0  0  0  0  0  0
  -21.4254  -29.3111   22.3536 N   0  0  0  0  0  0
  -26.4306  -37.3722   23.9359 N   0  0  0  0  0  0
  -24.7263  -31.0138   22.0836 N   0  0  0  0  0  0
  -23.4208  -28.8110   23.2929 O   0  0  0  0  0  0
  -28.2699  -26.0601   20.3036 O   0  0  0  0  0  0
  -26.5682  -34.8879   22.4583 O   0  0  0  0  0  0
  -23.5627  -32.1258   23.6997 O   0  0  0  0  0  0
  -30.2206  -18.9374   23.3770 C   0  0  0  0  0  0
  -29.2945  -19.3866   22.4205 C   0  0  0  0  0  0
  -29.3997  -18.9584   21.0639 C   0  0  0  0  0  0
  -30.1731  -17.6364   20.9328 C   0  0  0  0  0  0
  -31.2604  -18.1033   22.9648 C   0  0  0  0  0  0
  -28.2426  -20.3641   22.9168 C   0  0  0  0  0  0
  -27.3875  -19.8708   19.5452 C   0  0  0  0  0  0
  -32.5976  -18.5094   24.9096 C   0  0  0  0  0  0
  -28.1648  -22.9838   20.3689 C   0  0  0  0  0  0
  -28.3922  -24.5779   19.7329 C   0  0  0  0  0  0
  -28.8437  -20.1252   19.9940 C   0  0  1  0  0  0
  -31.2176  -17.4806   21.7803 N   0  0  0  0  0  0
  -29.8123  -16.2400   20.3813 N   0  0  0  0  0  0
  -29.1441  -21.7208   20.1074 N   0  3  0  0  0  0
  -32.3550  -17.7585   23.7238 O   0  0  0  0  0  0
  -31.4548  -12.7269   19.1612 H   0  0  0  0  0  0
  -30.3923  -11.6727   20.0404 H   0  0  0  0  0  0
  -29.8137  -11.6827   17.5893 H   0  0  0  0  0  0
  -29.5722  -13.4114   17.6380 H   0  0  0  0  0  0
  -27.9759  -11.2503   19.0398 H   0  0  0  0  0  0
  -27.3588  -12.3514   17.8374 H   0  0  0  0  0  0
  -27.5647  -14.2291   19.3643 H   0  0  0  0  0  0
  -28.7754  -12.3682   21.4655 H   0  0  0  0  0  0
  -28.3719  -14.0560   21.7018 H   0  0  0  0  0  0
  -25.2797   -9.5595   22.4797 H   0  0  0  0  0  0
  -23.9983   -7.4576   22.7501 H   0  0  0  0  0  0
  -21.0828   -8.8787   19.8978 H   0  0  0  0  0  0
  -22.3740  -10.9691   19.6186 H   0  0  0  0  0  0
  -21.1988   -7.6142   23.9674 H   0  0  0  0  0  0
  -21.1487   -6.0564   25.9082 H   0  0  0  0  0  0
  -22.0602   -2.7588   23.2892 H   0  0  0  0  0  0
  -22.4105  -11.9737   22.4721 H   0  0  0  0  0  0
  -21.1105  -13.1153   22.2800 H   0  0  0  0  0  0
  -24.6400  -15.8410   20.5233 H   0  0  0  0  0  0
  -26.2367  -15.6297   20.0220 H   0  0  0  0  0  0
  -26.7309  -32.5257   23.0831 H   0  0  0  0  0  0
  -25.0071  -33.9448   25.0221 H   0  0  0  0  0  0
  -22.7617  -31.2742   21.3443 H   0  0  0  0  0  0
  -23.3745  -35.9696   23.3247 H   0  0  0  0  0  0
  -24.3624  -36.9041   22.2044 H   0  0  0  0  0  0
  -23.7357  -37.6523   23.6717 H   0  0  0  0  0  0
  -26.1940  -31.4282   20.6270 H   0  0  0  0  0  0
  -26.8820  -30.7231   22.0461 H   0  0  0  0  0  0
  -28.1087  -28.7091   21.3084 H   0  0  0  0  0  0
  -25.9377  -25.7889   18.9903 H   0  0  0  0  0  0
  -24.0155  -27.2725   18.9360 H   0  0  0  0  0  0
  -23.8288  -30.5409   19.3779 H   0  0  0  0  0  0
  -22.8086  -29.2132   19.8334 H   0  0  0  0  0  0
  -25.1360  -36.1775   25.0764 H   0  0  0  0  0  0
  -21.0012  -28.3389   24.1320 H   0  0  0  0  0  0
  -20.5761  -26.2378   23.3598 H   0  0  0  0  0  0
  -21.6666  -26.7460   22.1140 H   0  0  0  0  0  0
  -19.6968  -25.6334   21.1173 H   0  0  0  0  0  0
  -19.6757  -27.3239   20.6745 H   0  0  0  0  0  0
  -17.4279  -26.6751   21.3943 H   0  0  0  0  0  0
  -18.0291  -26.0037   22.8942 H   0  0  0  0  0  0
  -19.7946  -30.7354   24.2141 H   0  0  0  0  0  0
  -17.5005  -31.6224   24.5215 H   0  0  0  0  0  0
  -15.5360  -30.2941   23.7695 H   0  0  0  0  0  0
  -15.8698  -28.0829   22.6944 H   0  0  0  0  0  0
  -24.5847  -30.7065   25.7543 H   0  0  0  0  0  0
  -24.8931  -32.2826   26.4703 H   0  0  0  0  0  0
  -25.7953  -30.8712   27.0034 H   0  0  0  0  0  0
  -26.3089  -29.6412   24.1423 H   0  0  0  0  0  0
  -27.4156  -29.7265   25.4924 H   0  0  0  0  0  0
  -27.8961  -30.4019   23.9601 H   0  0  0  0  0  0
  -27.2662  -33.3558   26.1874 H   0  0  0  0  0  0
  -28.3878  -32.6736   25.0191 H   0  0  0  0  0  0
  -28.0748  -31.8401   26.5328 H   0  0  0  0  0  0
  -28.2566  -38.0121   24.7484 H   0  0  0  0  0  0
  -28.1119  -36.2657   24.6235 H   0  0  0  0  0  0
  -27.2295  -37.1459   25.8810 H   0  0  0  0  0  0
  -20.9472  -29.8829   21.6696 H   0  0  0  0  0  0
  -26.0161  -38.2812   24.1261 H   0  0  0  0  0  0
  -30.1686  -19.3021   24.3935 H   0  0  0  0  0  0
  -27.9101  -20.0427   23.9039 H   0  0  0  0  0  0
  -27.3503  -20.3940   22.2965 H   0  0  0  0  0  0
  -28.6440  -21.3716   23.0233 H   0  0  0  0  0  0
  -27.2342  -18.8291   19.2614 H   0  0  0  0  0  0
  -27.1316  -20.4815   18.6781 H   0  0  0  0  0  0
  -26.6595  -20.1080   20.3155 H   0  0  0  0  0  0
  -31.9507  -18.1814   25.7222 H   0  0  0  0  0  0
  -32.4620  -19.5800   24.7589 H   0  0  0  0  0  0
  -33.6301  -18.3585   25.2281 H   0  0  0  0  0  0
  -28.0475  -23.0747   21.4473 H   0  0  0  0  0  0
  -27.1803  -22.6779   20.0172 H   0  0  0  0  0  0
  -27.8748  -24.5947   18.7764 H   0  0  0  0  0  0
  -29.4405  -24.5690   19.4354 H   0  0  0  0  0  0
  -29.4368  -19.8632   19.1158 H   0  0  0  0  0  0
  -28.8340  -16.1305   20.1787 H   0  0  0  0  0  0
  -29.5116  -21.9219   19.1893 H   0  0  0  0  0  0
  -29.9449  -21.8282   20.7112 H   0  0  0  0  0  0
  1 25  1  0  0  0
  1 30  2  0  0  0
  1 83  1  0  0  0
  2  3  1  0  0  0
  2 25  1  0  0  0
  2 86  1  0  0  0
  2 87  1  0  0  0
  3  4  1  0  0  0
  3 88  1  0  0  0
  3 89  1  0  0  0
  4  5  1  0  0  0
  4 90  1  0  0  0
  4 91  1  0  0  0
  5  6  1  0  0  0
  5 26  1  0  0  0
  5 92  1  0  0  0
  6 25  1  0  0  0
  6 93  1  0  0  0
  6 94  1  0  0  0
  7  8  2  0  0  0
  7 26  1  0  0  0
  7 29  1  0  0  0
  8  9  1  0  0  0
  8 22  1  0  0  0
  9 10  1  0  0  0
  9 27  2  0  0  0
 10 11  2  0  0  0
 10 15  1  0  0  0
 11 12  1  0  0  0
 11 95  1  0  0  0
 12 13  2  0  0  0
 12 96  1  0  0  0
 13 14  1  0  0  0
 13 31  1  0  0  0
 14 15  2  0  0  0
 14 97  1  0  0  0
 15 98  1  0  0  0
 16 17  2  0  0  0
 16 21  1  0  0  0
 16 31  1  0  0  0
 17 18  1  0  0  0
 17 99  1  0  0  0
 18 19  2  0  0  0
 18100  1  0  0  0
 19 20  1  0  0  0
 19 24  1  0  0  0
 20 21  2  0  0  0
 20101  1  0  0  0
 21 23  1  0  0  0
 22 28  1  0  0  0
 22 32  2  0  0  0
 26 27  1  0  0  0
 28102  1  0  0  0
 28103  1  0  0  0
 29104  1  0  0  0
 29105  1  0  0  0
 33 34  1  0  0  0
 33 66  1  0  0  0
 33 70  2  0  0  0
 34 36  1  0  0  0
 34 59  1  0  0  0
 34106  1  0  0  0
 35 44  2  0  0  0
 35 45  1  0  0  0
 35 68  1  0  0  0
 36 56  1  0  0  0
 36107  1  0  0  0
 37 39  1  0  0  0
 37 47  1  0  0  0
 37 66  1  0  0  0
 37108  1  0  0  0
 38 43  2  0  0  0
 38 46  1  0  0  0
 38 47  1  0  0  0
 39 64  1  0  0  0
 39 67  2  0  0  0
 40 52  1  0  0  0
 40 53  2  0  0  0
 40 58  1  0  0  0
 41109  1  0  0  0
 41110  1  0  0  0
 41111  1  0  0  0
 41 48  1  0  0  0
 42 43  1  0  0  0
 42 66  1  0  0  0
 42112  1  0  0  0
 42113  1  0  0  0
 43 44  1  0  0  0
 44114  1  0  0  0
 45 46  2  0  0  0
 45115  1  0  0  0
 46116  1  0  0  0
 47117  1  0  0  0
 47118  1  0  0  0
 48 56  1  0  0  0
 48 65  1  0  0  0
 48119  1  0  0  0
 49 50  1  0  0  0
 49 53  1  0  0  0
 49 64  1  0  0  0
 49120  1  0  0  0
 50 51  1  0  0  0
 50121  1  0  0  0
 50122  1  0  0  0
 51 52  1  0  0  0
 51123  1  0  0  0
 51124  1  0  0  0
 52125  1  0  0  0
 52126  1  0  0  0
 53 54  1  0  0  0
 54 55  2  0  0  0
 54127  1  0  0  0
 55 57  1  0  0  0
 55128  1  0  0  0
 56 69  2  0  0  0
 57 58  2  0  0  0
 57129  1  0  0  0
 58130  1  0  0  0
 59 60  1  0  0  0
 59 61  1  0  0  0
 59 62  1  0  0  0
 60131  1  0  0  0
 60132  1  0  0  0
 60133  1  0  0  0
 61134  1  0  0  0
 61135  1  0  0  0
 61136  1  0  0  0
 62137  1  0  0  0
 62138  1  0  0  0
 62139  1  0  0  0
 63 65  1  0  0  0
 63140  1  0  0  0
 63141  1  0  0  0
 63142  1  0  0  0
 64143  1  0  0  0
 65144  1  0  0  0
 68 80  1  0  0  0
 71 72  2  0  0  0
 71 75  1  0  0  0
 71145  1  0  0  0
 72 73  1  0  0  0
 72 76  1  0  0  0
 73 74  2  0  0  0
 73 81  1  0  0  0
 74 82  1  0  0  0
 74 83  1  0  0  0
 75 82  2  0  0  0
 75 85  1  0  0  0
 76146  1  0  0  0
 76147  1  0  0  0
 76148  1  0  0  0
 77149  1  0  0  0
 77150  1  0  0  0
 77151  1  0  0  0
 77 81  1  0  0  0
 78 85  1  0  0  0
 78152  1  0  0  0
 78153  1  0  0  0
 78154  1  0  0  0
 79 80  1  0  0  0
 79 84  1  0  0  0
 79155  1  0  0  0
 79156  1  0  0  0
 80157  1  0  0  0
 80158  1  0  0  0
 81 84  1  0  0  0
 81159  1  0  0  0
 83160  1  0  0  0
 84161  1  0  0  0
 84162  1  0  0  0
M  CHG  1  84   1
M  ISO  4   1 100  68 101  80 101  83 100
M  END
> <chiral flag>
0

> <version>
0

> <s_m_source_file>
/data/baiqing/PycharmProjects/Reinvent-master-3.2/result/LINK_invent/BTK/process_docking_weight1_custom_sum_contain_oxygen_bond_distance_aromatic_linkinvent_7_9_3/rearranged_h_0176.sdf

> <i_m_source_file_index>
71

> <r_mmod_Potential_Energy-OPLS-2005>
675.818298339844

> <r_mmod_Stretch_Energy-OPLS-2005>
367.204925537109

> <r_mmod_Bend_Energy-OPLS-2005>
406.385620117188

> <r_mmod_Torsional_Energy-OPLS-2005>
355.655639648438

> <r_mmod_Improper_Torsional_Energy-OPLS-2005>
14.0483875274658

> <r_mmod_Van_der_Waal_Energy-OPLS-2005>
140.029586791992

> <r_mmod_Electrostatic_Energy-OPLS-2005>
-350.696411132812

> <r_mmod_Solvation_Energy-OPLS-2005>
-502.739776611328

> <b_mmod_Minimization_Converged-OPLS-2005>
0

> <r_mmod_RMS_Derivative-OPLS-2005>
5.54943609237671

$$$$
71
                    3D
 Structure written by MMmdl.
150159  0  0  1  0            999 V2000
  -30.4342  -15.2090   20.3746 C   0  0  0  0  0  0
  -30.4419  -12.7667   19.5260 C   0  0  0  0  0  0
  -29.5354  -12.5647   18.2858 C   0  0  0  0  0  0
  -28.0808  -12.2967   18.7109 C   0  0  0  0  0  0
  -27.6143  -13.2654   19.8262 C   0  0  2  0  0  0
  -28.6470  -13.4111   20.9637 C   0  0  0  0  0  0
  -25.2400  -13.8231   20.5723 C   0  0  0  0  0  0
  -24.1741  -13.0439   20.9254 C   0  0  0  0  0  0
  -24.6380  -11.6928   20.8763 C   0  0  0  0  0  0
  -23.9066  -10.4296   21.0419 C   0  0  0  0  0  0
  -24.3616   -9.4211   21.9194 C   0  0  0  0  0  0
  -23.6290   -8.2247   22.0758 C   0  0  0  0  0  0
  -22.4274   -8.0279   21.3548 C   0  0  0  0  0  0
  -21.9908   -9.0252   20.4651 C   0  0  0  0  0  0
  -22.7237  -10.2134   20.3069 C   0  0  0  0  0  0
  -21.6850   -6.0738   22.5283 C   0  0  0  0  0  0
  -21.4011   -6.5643   23.8217 C   0  0  0  0  0  0
  -21.3659   -5.6795   24.9178 C   0  0  0  0  0  0
  -21.6045   -4.3058   24.7230 C   0  0  0  0  0  0
  -21.8812   -3.8148   23.4351 C   0  0  0  0  0  0
  -21.9189   -4.6965   22.3407 C   0  0  0  0  0  0
  -22.7767  -13.5213   21.1902 C   0  0  0  0  0  0
  -22.1660   -4.2149   21.0986 F   0  0  0  0  0  0
  -21.5628   -3.4544   25.7746 F   0  0  0  0  0  0
  -29.8874  -13.9007   20.3458 N   0  0  0  0  0  0
  -26.2815  -12.9484   20.3205 N   0  0  0  0  0  0
  -25.9309  -11.6599   20.5713 N   0  0  0  0  0  0
  -22.0409  -12.8209   22.0451 N   0  0  0  0  0  0
  -25.4038  -15.1964   20.4141 N   0  0  0  0  0  0
  -31.6516  -15.2420   20.1450 O   0  0  0  0  0  0
  -21.6637   -6.8876   21.4243 O   0  0  0  0  0  0
  -22.3459  -14.5514   20.6730 O   0  0  0  0  0  0
  -24.6570  -31.8268   23.1721 C   0  0  0  0  0  0
  -25.9274  -32.4596   23.8176 C   0  0  1  0  0  0
  -27.2240  -26.9654   20.1920 C   0  0  0  0  0  0
  -25.5963  -33.8411   24.2086 N   0  0  0  0  0  0
  -23.4698  -30.4362   21.5205 C   0  0  2  0  0  0
  -24.9217  -28.8204   20.1184 C   0  0  0  0  0  0
  -22.7636  -29.4445   22.4805 C   0  0  0  0  0  0
  -18.0319  -28.1399   22.8469 C   0  0  0  0  0  0
  -24.1498  -36.7216   23.2649 C   0  0  0  0  0  0
  -26.0337  -30.6436   21.3970 C   0  0  0  0  0  0
  -26.1003  -29.2336   20.7506 C   0  0  0  0  0  0
  -27.2438  -28.3255   20.7639 C   0  0  0  0  0  0
  -26.0177  -26.6876   19.5132 C   0  0  0  0  0  0
  -24.9017  -27.5658   19.4826 C   0  0  0  0  0  0
  -23.7068  -29.7457   20.1481 C   0  0  0  0  0  0
  -25.4133  -36.2970   24.0303 C   0  0  1  0  0  0
  -20.5937  -28.3736   23.1205 C   0  0  2  0  0  0
  -20.6792  -26.9424   22.5402 C   0  0  0  0  0  0
  -19.5767  -26.6374   21.5211 C   0  0  0  0  0  0
  -18.1950  -26.7933   22.1621 C   0  0  0  0  0  0
  -19.1578  -28.8891   23.2823 C   0  0  0  0  0  0
  -18.9488  -30.1483   23.8853 C   0  0  0  0  0  0
  -17.6480  -30.6589   24.0554 C   0  0  0  0  0  0
  -25.9092  -34.9351   23.5017 C   0  0  0  0  0  0
  -16.5373  -29.9073   23.6342 C   0  0  0  0  0  0
  -16.7301  -28.6496   23.0359 C   0  0  0  0  0  0
  -26.4546  -31.6526   25.0688 C   0  0  0  0  0  0
  -25.3692  -31.3761   26.1363 C   0  0  0  0  0  0
  -27.0443  -30.2899   24.6391 C   0  0  0  0  0  0
  -27.6042  -32.4340   25.7478 C   0  0  0  0  0  0
  -27.5575  -37.1759   24.8464 C   0  0  0  0  0  0
  -21.4313  -29.3031   22.3560 N   0  0  0  0  0  0
  -26.4280  -37.3704   23.9411 N   0  0  0  0  0  0
  -24.7408  -30.9967   22.0835 N   0  0  0  0  0  0
  -23.4202  -28.8023   23.3043 O   0  0  0  0  0  0
  -28.3055  -25.9556   20.2046 O   0  0  0  0  0  0
  -26.5705  -34.8882   22.4613 O   0  0  0  0  0  0
  -23.5653  -32.1225   23.6843 O   0  0  0  0  0  0
  -29.8098  -22.2251   20.0259 C   0  0  0  0  0  0
  -29.6343  -23.6907   19.9629 C   0  0  0  0  0  0
  -28.7872  -21.2538   20.3599 C   0  0  0  0  0  0
  -27.5944  -22.0904   20.5939 C   0  0  0  0  0  0
  -28.4122  -24.4272   20.2131 C   0  0  0  0  0  0
  -28.9045  -18.6889   19.2490 C   0  0  0  0  0  0
  -28.8619  -19.5039   20.5148 C   0  0  1  0  0  0
  -29.8423  -18.0476   20.2549 C   0  0  1  0  0  0
  -26.3178  -21.3749   20.9840 C   0  0  0  0  0  0
  -27.4186  -23.5102   20.5307 N   0  0  0  0  0  0
  -29.6243  -16.4384   20.4491 N   0  0  0  0  0  0
  -31.4627  -12.9697   19.1988 H   0  0  0  0  0  0
  -30.4994  -11.8530   20.1202 H   0  0  0  0  0  0
  -29.9058  -11.7419   17.6729 H   0  0  0  0  0  0
  -29.5754  -13.4562   17.6585 H   0  0  0  0  0  0
  -28.0302  -11.2698   19.0748 H   0  0  0  0  0  0
  -27.4127  -12.3484   17.8506 H   0  0  0  0  0  0
  -27.5395  -14.2393   19.3414 H   0  0  0  0  0  0
  -28.8005  -12.4685   21.4918 H   0  0  0  0  0  0
  -28.2943  -14.1291   21.7057 H   0  0  0  0  0  0
  -25.2757   -9.5694   22.4773 H   0  0  0  0  0  0
  -23.9998   -7.4642   22.7481 H   0  0  0  0  0  0
  -21.0838   -8.8780   19.8959 H   0  0  0  0  0  0
  -22.3692  -10.9679   19.6188 H   0  0  0  0  0  0
  -21.2003   -7.6152   23.9721 H   0  0  0  0  0  0
  -21.1486   -6.0528   25.9082 H   0  0  0  0  0  0
  -22.0587   -2.7610   23.2856 H   0  0  0  0  0  0
  -22.4016  -11.9879   22.4865 H   0  0  0  0  0  0
  -21.1025  -13.1247   22.2640 H   0  0  0  0  0  0
  -24.6259  -15.8399   20.5109 H   0  0  0  0  0  0
  -26.2304  -15.6334   20.0289 H   0  0  0  0  0  0
  -26.7332  -32.5144   23.0885 H   0  0  0  0  0  0
  -25.0060  -33.9493   25.0204 H   0  0  0  0  0  0
  -22.7801  -31.2652   21.3490 H   0  0  0  0  0  0
  -23.3767  -35.9540   23.3273 H   0  0  0  0  0  0
  -24.3580  -36.8897   22.2072 H   0  0  0  0  0  0
  -23.7251  -37.6394   23.6727 H   0  0  0  0  0  0
  -26.2091  -31.3823   20.6141 H   0  0  0  0  0  0
  -26.8960  -30.7029   22.0490 H   0  0  0  0  0  0
  -28.1447  -28.6464   21.2672 H   0  0  0  0  0  0
  -25.9210  -25.7296   19.0215 H   0  0  0  0  0  0
  -24.0059  -27.2432   18.9701 H   0  0  0  0  0  0
  -23.8594  -30.5106   19.3861 H   0  0  0  0  0  0
  -22.8174  -29.1959   19.8353 H   0  0  0  0  0  0
  -25.1325  -36.1771   25.0792 H   0  0  0  0  0  0
  -21.0024  -28.3339   24.1329 H   0  0  0  0  0  0
  -20.5673  -26.2352   23.3633 H   0  0  0  0  0  0
  -21.6655  -26.7400   22.1209 H   0  0  0  0  0  0
  -19.6923  -25.6274   21.1265 H   0  0  0  0  0  0
  -19.6707  -27.3162   20.6723 H   0  0  0  0  0  0
  -17.4216  -26.6681   21.4025 H   0  0  0  0  0  0
  -18.0345  -26.0080   22.9024 H   0  0  0  0  0  0
  -19.7964  -30.7317   24.2194 H   0  0  0  0  0  0
  -17.5029  -31.6265   24.5165 H   0  0  0  0  0  0
  -15.5368  -30.2957   23.7691 H   0  0  0  0  0  0
  -15.8704  -28.0797   22.7094 H   0  0  0  0  0  0
  -24.5877  -30.7101   25.7684 H   0  0  0  0  0  0
  -24.8877  -32.2953   26.4705 H   0  0  0  0  0  0
  -25.7947  -30.8988   27.0198 H   0  0  0  0  0  0
  -26.3101  -29.6577   24.1386 H   0  0  0  0  0  0
  -27.3981  -29.7259   25.5033 H   0  0  0  0  0  0
  -27.9037  -30.4095   23.9792 H   0  0  0  0  0  0
  -27.2606  -33.3681   26.1935 H   0  0  0  0  0  0
  -28.3905  -32.6841   25.0343 H   0  0  0  0  0  0
  -28.0649  -31.8552   26.5494 H   0  0  0  0  0  0
  -28.2560  -38.0084   24.7518 H   0  0  0  0  0  0
  -28.1102  -36.2611   24.6276 H   0  0  0  0  0  0
  -27.2295  -37.1377   25.8867 H   0  0  0  0  0  0
  -20.9561  -29.8715   21.6690 H   0  0  0  0  0  0
  -26.0131  -38.2763   24.1421 H   0  0  0  0  0  0
  -30.7977  -21.8421   19.8142 H   0  0  0  0  0  0
  -30.5084  -24.2771   19.7167 H   0  0  0  0  0  0
  -29.3939  -19.1357   18.3857 H   0  0  0  0  0  0
  -27.9842  -18.1654   18.9952 H   0  0  0  0  0  0
  -28.0654  -19.2783   21.2201 H   0  0  0  0  0  0
  -30.8973  -18.3039   20.1747 H   0  0  0  0  0  0
  -26.0868  -20.5878   20.2665 H   0  0  0  0  0  0
  -25.4658  -22.0542   21.0205 H   0  0  0  0  0  0
  -26.4289  -20.9220   21.9692 H   0  0  0  0  0  0
  -28.6558  -16.2107   20.6196 H   0  0  0  0  0  0
  1 25  1  0  0  0
  1 30  2  0  0  0
  1 81  1  0  0  0
  2  3  1  0  0  0
  2 25  1  0  0  0
  2 82  1  0  0  0
  2 83  1  0  0  0
  3  4  1  0  0  0
  3 84  1  0  0  0
  3 85  1  0  0  0
  4  5  1  0  0  0
  4 86  1  0  0  0
  4 87  1  0  0  0
  5  6  1  0  0  0
  5 26  1  0  0  0
  5 88  1  0  0  0
  6 25  1  0  0  0
  6 89  1  0  0  0
  6 90  1  0  0  0
  7  8  2  0  0  0
  7 26  1  0  0  0
  7 29  1  0  0  0
  8  9  1  0  0  0
  8 22  1  0  0  0
  9 10  1  0  0  0
  9 27  2  0  0  0
 10 11  2  0  0  0
 10 15  1  0  0  0
 11 12  1  0  0  0
 11 91  1  0  0  0
 12 13  2  0  0  0
 12 92  1  0  0  0
 13 14  1  0  0  0
 13 31  1  0  0  0
 14 15  2  0  0  0
 14 93  1  0  0  0
 15 94  1  0  0  0
 16 17  2  0  0  0
 16 21  1  0  0  0
 16 31  1  0  0  0
 17 18  1  0  0  0
 17 95  1  0  0  0
 18 19  2  0  0  0
 18 96  1  0  0  0
 19 20  1  0  0  0
 19 24  1  0  0  0
 20 21  2  0  0  0
 20 97  1  0  0  0
 21 23  1  0  0  0
 22 28  1  0  0  0
 22 32  2  0  0  0
 26 27  1  0  0  0
 28 98  1  0  0  0
 28 99  1  0  0  0
 29100  1  0  0  0
 29101  1  0  0  0
 33 34  1  0  0  0
 33 66  1  0  0  0
 33 70  2  0  0  0
 34 36  1  0  0  0
 34 59  1  0  0  0
 34102  1  0  0  0
 35 44  2  0  0  0
 35 45  1  0  0  0
 35 68  1  0  0  0
 36 56  1  0  0  0
 36103  1  0  0  0
 37 39  1  0  0  0
 37 47  1  0  0  0
 37 66  1  0  0  0
 37104  1  0  0  0
 38 43  2  0  0  0
 38 46  1  0  0  0
 38 47  1  0  0  0
 39 64  1  0  0  0
 39 67  2  0  0  0
 40 52  1  0  0  0
 40 53  2  0  0  0
 40 58  1  0  0  0
 41105  1  0  0  0
 41106  1  0  0  0
 41107  1  0  0  0
 41 48  1  0  0  0
 42 43  1  0  0  0
 42 66  1  0  0  0
 42108  1  0  0  0
 42109  1  0  0  0
 43 44  1  0  0  0
 44110  1  0  0  0
 45 46  2  0  0  0
 45111  1  0  0  0
 46112  1  0  0  0
 47113  1  0  0  0
 47114  1  0  0  0
 48 56  1  0  0  0
 48 65  1  0  0  0
 48115  1  0  0  0
 49 50  1  0  0  0
 49 53  1  0  0  0
 49 64  1  0  0  0
 49116  1  0  0  0
 50 51  1  0  0  0
 50117  1  0  0  0
 50118  1  0  0  0
 51 52  1  0  0  0
 51119  1  0  0  0
 51120  1  0  0  0
 52121  1  0  0  0
 52122  1  0  0  0
 53 54  1  0  0  0
 54 55  2  0  0  0
 54123  1  0  0  0
 55 57  1  0  0  0
 55124  1  0  0  0
 56 69  2  0  0  0
 57 58  2  0  0  0
 57125  1  0  0  0
 58126  1  0  0  0
 59 60  1  0  0  0
 59 61  1  0  0  0
 59 62  1  0  0  0
 60127  1  0  0  0
 60128  1  0  0  0
 60129  1  0  0  0
 61130  1  0  0  0
 61131  1  0  0  0
 61132  1  0  0  0
 62133  1  0  0  0
 62134  1  0  0  0
 62135  1  0  0  0
 63 65  1  0  0  0
 63136  1  0  0  0
 63137  1  0  0  0
 63138  1  0  0  0
 64139  1  0  0  0
 65140  1  0  0  0
 68 75  1  0  0  0
 71 72  2  0  0  0
 71 73  1  0  0  0
 71141  1  0  0  0
 72 75  1  0  0  0
 72142  1  0  0  0
 73 74  2  0  0  0
 73 77  1  0  0  0
 74 79  1  0  0  0
 74 80  1  0  0  0
 75 80  2  0  0  0
 76 77  1  0  0  0
 76 78  1  0  0  0
 76143  1  0  0  0
 76144  1  0  0  0
 77 78  1  0  0  0
 77145  1  0  0  0
 78 81  1  0  0  0
 78146  1  0  0  0
 79147  1  0  0  0
 79148  1  0  0  0
 79149  1  0  0  0
 81150  1  0  0  0
M  ISO  4   1 100  68 101  75 101  81 100
M  END
> <chiral flag>
0

> <version>
0

> <s_m_source_file>
/data/baiqing/PycharmProjects/Reinvent-master-3.2/result/LINK_invent/BTK/process_docking_weight1_custom_sum_contain_oxygen_bond_distance_aromatic_linkinvent_7_9_3/rearranged_h_0176.sdf

> <i_m_source_file_index>
72

> <r_mmod_Potential_Energy-OPLS-2005>
908.9560546875

> <r_mmod_Stretch_Energy-OPLS-2005>
471.820098876953

> <r_mmod_Bend_Energy-OPLS-2005>
398.583587646484

> <r_mmod_Torsional_Energy-OPLS-2005>
250.172790527344

> <r_mmod_Improper_Torsional_Energy-OPLS-2005>
4.72406721115112

> <r_mmod_Van_der_Waal_Energy-OPLS-2005>
126.853012084961

> <r_mmod_Electrostatic_Energy-OPLS-2005>
-512.380737304688

> <r_mmod_Solvation_Energy-OPLS-2005>
-220.562377929688

> <b_mmod_Minimization_Converged-OPLS-2005>
0

> <r_mmod_RMS_Derivative-OPLS-2005>
1.15689671039581

$$$$
72
                    3D
 Structure written by MMmdl.
167176  0  0  1  0            999 V2000
  -30.5985  -14.7153   20.4746 C   0  0  0  0  0  0
  -30.4489  -12.4377   19.4661 C   0  0  0  0  0  0
  -29.5165  -12.5238   18.2334 C   0  0  0  0  0  0
  -28.0438  -12.3353   18.6487 C   0  0  0  0  0  0
  -27.6558  -13.2194   19.8616 C   0  0  2  0  0  0
  -28.7022  -13.1091   20.9971 C   0  0  0  0  0  0
  -25.2600  -13.8155   20.5694 C   0  0  0  0  0  0
  -24.1861  -13.0445   20.9204 C   0  0  0  0  0  0
  -24.6427  -11.6909   20.8758 C   0  0  0  0  0  0
  -23.9100  -10.4291   21.0431 C   0  0  0  0  0  0
  -24.3645   -9.4198   21.9201 C   0  0  0  0  0  0
  -23.6300   -8.2243   22.0765 C   0  0  0  0  0  0
  -22.4269   -8.0312   21.3576 C   0  0  0  0  0  0
  -21.9933   -9.0291   20.4675 C   0  0  0  0  0  0
  -22.7272  -10.2156   20.3081 C   0  0  0  0  0  0
  -21.6855   -6.0746   22.5289 C   0  0  0  0  0  0
  -21.4012   -6.5658   23.8226 C   0  0  0  0  0  0
  -21.3651   -5.6807   24.9189 C   0  0  0  0  0  0
  -21.6048   -4.3069   24.7234 C   0  0  0  0  0  0
  -21.8804   -3.8156   23.4354 C   0  0  0  0  0  0
  -21.9182   -4.6972   22.3408 C   0  0  0  0  0  0
  -22.7894  -13.5268   21.1836 C   0  0  0  0  0  0
  -22.1657   -4.2169   21.0986 F   0  0  0  0  0  0
  -21.5617   -3.4552   25.7734 F   0  0  0  0  0  0
  -30.0165  -13.4673   20.4373 N   0  0  0  0  0  0
  -26.3022  -12.9339   20.3306 N   0  0  0  0  0  0
  -25.9356  -11.6506   20.5777 N   0  0  0  0  0  0
  -22.0500  -12.8300   22.0402 N   0  0  0  0  0  0
  -25.4294  -15.1868   20.4017 N   0  0  0  0  0  0
  -31.7448  -14.8926   20.0536 O   0  0  0  0  0  0
  -21.6648   -6.8899   21.4257 O   0  0  0  0  0  0
  -22.3594  -14.5556   20.6641 O   0  0  0  0  0  0
  -24.6285  -31.8574   23.1977 C   0  0  0  0  0  0
  -25.9125  -32.4765   23.8305 C   0  0  1  0  0  0
  -27.2428  -27.2941   20.1217 C   0  0  0  0  0  0
  -25.5931  -33.8560   24.2259 N   0  0  0  0  0  0
  -23.4222  -30.4745   21.5422 C   0  0  2  0  0  0
  -24.8696  -28.9076   20.1217 C   0  0  0  0  0  0
  -22.7475  -29.4608   22.4957 C   0  0  0  0  0  0
  -18.0299  -28.1378   22.8495 C   0  0  0  0  0  0
  -24.1475  -36.7247   23.2644 C   0  0  0  0  0  0
  -25.9605  -30.7756   21.3729 C   0  0  0  0  0  0
  -26.0341  -29.3938   20.7273 C   0  0  0  0  0  0
  -27.2170  -28.5965   20.7168 C   0  0  0  0  0  0
  -26.0532  -26.8535   19.4999 C   0  0  0  0  0  0
  -24.8805  -27.6428   19.5049 C   0  0  0  0  0  0
  -23.6389  -29.7952   20.1620 C   0  0  0  0  0  0
  -25.4110  -36.3063   24.0338 C   0  0  1  0  0  0
  -20.5882  -28.3674   23.1312 C   0  0  2  0  0  0
  -20.6760  -26.9395   22.5430 C   0  0  0  0  0  0
  -19.5733  -26.6384   21.5229 C   0  0  0  0  0  0
  -18.1918  -26.7925   22.1639 C   0  0  0  0  0  0
  -19.1540  -28.8849   23.2893 C   0  0  0  0  0  0
  -18.9464  -30.1449   23.8913 C   0  0  0  0  0  0
  -17.6460  -30.6585   24.0554 C   0  0  0  0  0  0
  -25.9056  -34.9450   23.5094 C   0  0  0  0  0  0
  -16.5358  -29.9074   23.6323 C   0  0  0  0  0  0
  -16.7277  -28.6490   23.0364 C   0  0  0  0  0  0
  -26.4528  -31.6592   25.0684 C   0  0  0  0  0  0
  -25.3783  -31.3730   26.1424 C   0  0  0  0  0  0
  -27.0384  -30.3027   24.6138 C   0  0  0  0  0  0
  -27.6078  -32.4344   25.7448 C   0  0  0  0  0  0
  -27.5569  -37.1773   24.8480 C   0  0  0  0  0  0
  -21.4193  -29.3019   22.3700 N   0  0  0  0  0  0
  -26.4278  -37.3775   23.9428 N   0  0  0  0  0  0
  -24.6886  -31.0549   22.0948 N   0  0  0  0  0  0
  -23.4201  -28.8202   23.3076 O   0  0  0  0  0  0
  -28.4408  -26.5584   20.0466 O   0  0  0  0  0  0
  -26.5603  -34.8929   22.4652 O   0  0  0  0  0  0
  -23.5439  -32.1397   23.7292 O   0  0  0  0  0  0
  -30.1281  -23.4468   19.7887 C   0  0  0  0  0  0
  -29.3424  -22.4761   20.4652 C   0  0  0  0  0  0
  -28.0700  -23.0188   20.8321 C   0  0  0  0  0  0
  -28.5894  -25.1705   20.0574 C   0  0  0  0  0  0
  -30.0416  -17.7788   19.0364 C   0  0  0  0  0  0
  -29.7399  -19.3173   19.1310 C   0  0  0  0  0  0
  -29.9188  -18.4435   21.3682 C   0  0  0  0  0  0
  -29.6032  -17.2348   20.4054 C   0  0  1  0  0  0
  -27.0270  -22.1922   21.5515 C   0  0  0  0  0  0
  -29.5328  -20.6359   23.5851 C   0  0  0  0  0  0
  -31.9224  -21.1047   22.8514 C   0  0  0  0  0  0
  -30.0526  -21.1517   21.0505 C   0  0  1  0  0  0
  -30.4278  -21.3456   22.5572 C   0  0  0  0  0  0
  -29.7662  -24.7439   19.6022 N   0  0  0  0  0  0
  -27.7150  -24.3354   20.6388 N   0  0  0  0  0  0
  -29.7622  -15.7615   20.8015 N   0  0  0  0  0  0
  -30.0862  -19.6929   20.5191 N   0  3  2  0  0  0
  -31.4870  -12.5720   19.1590 H   0  0  0  0  0  0
  -30.3986  -11.4447   19.9194 H   0  0  0  0  0  0
  -29.8025  -11.7735   17.4944 H   0  0  0  0  0  0
  -29.6350  -13.4909   17.7441 H   0  0  0  0  0  0
  -27.9134  -11.2826   18.9029 H   0  0  0  0  0  0
  -27.3822  -12.5369   17.8057 H   0  0  0  0  0  0
  -27.6685  -14.2479   19.5027 H   0  0  0  0  0  0
  -28.7277  -12.0987   21.4078 H   0  0  0  0  0  0
  -28.4328  -13.7639   21.8270 H   0  0  0  0  0  0
  -25.2790   -9.5662   22.4785 H   0  0  0  0  0  0
  -24.0003   -7.4634   22.7482 H   0  0  0  0  0  0
  -21.0860   -8.8833   19.8997 H   0  0  0  0  0  0
  -22.3744  -10.9711   19.6203 H   0  0  0  0  0  0
  -21.2030   -7.6167   23.9742 H   0  0  0  0  0  0
  -21.1484   -6.0541   25.9098 H   0  0  0  0  0  0
  -22.0584   -2.7617   23.2852 H   0  0  0  0  0  0
  -22.4106  -11.9997   22.4852 H   0  0  0  0  0  0
  -21.1129  -13.1380   22.2562 H   0  0  0  0  0  0
  -24.6530  -15.8325   20.4952 H   0  0  0  0  0  0
  -26.2521  -15.6148   19.9979 H   0  0  0  0  0  0
  -26.7183  -32.5429   23.1033 H   0  0  0  0  0  0
  -25.0130  -33.9697   25.0437 H   0  0  0  0  0  0
  -22.7162  -31.2932   21.3926 H   0  0  0  0  0  0
  -23.3760  -35.9556   23.3333 H   0  0  0  0  0  0
  -24.3557  -36.8834   22.2051 H   0  0  0  0  0  0
  -23.7217  -37.6452   23.6649 H   0  0  0  0  0  0
  -26.0889  -31.5327   20.5975 H   0  0  0  0  0  0
  -26.8408  -30.8310   22.0020 H   0  0  0  0  0  0
  -28.1229  -28.9800   21.1675 H   0  0  0  0  0  0
  -26.0285  -25.8942   19.0001 H   0  0  0  0  0  0
  -23.9859  -27.2659   19.0289 H   0  0  0  0  0  0
  -23.7572  -30.5647   19.3974 H   0  0  0  0  0  0
  -22.7591  -29.2232   19.8622 H   0  0  0  0  0  0
  -25.1297  -36.1894   25.0831 H   0  0  0  0  0  0
  -20.9976  -28.3233   24.1433 H   0  0  0  0  0  0
  -20.5658  -26.2280   23.3620 H   0  0  0  0  0  0
  -21.6626  -26.7399   22.1230 H   0  0  0  0  0  0
  -19.6869  -25.6301   21.1231 H   0  0  0  0  0  0
  -19.6669  -27.3214   20.6775 H   0  0  0  0  0  0
  -17.4190  -26.6712   21.4029 H   0  0  0  0  0  0
  -18.0282  -26.0061   22.9024 H   0  0  0  0  0  0
  -19.7948  -30.7252   24.2295 H   0  0  0  0  0  0
  -17.5025  -31.6267   24.5134 H   0  0  0  0  0  0
  -15.5354  -30.2974   23.7644 H   0  0  0  0  0  0
  -15.8691  -28.0797   22.7086 H   0  0  0  0  0  0
  -24.5929  -30.7111   25.7764 H   0  0  0  0  0  0
  -24.9008  -32.2898   26.4893 H   0  0  0  0  0  0
  -25.8125  -30.8878   27.0169 H   0  0  0  0  0  0
  -26.2950  -29.6752   24.1212 H   0  0  0  0  0  0
  -27.4160  -29.7315   25.4626 H   0  0  0  0  0  0
  -27.8782  -30.4340   23.9311 H   0  0  0  0  0  0
  -27.2682  -33.3640   26.2030 H   0  0  0  0  0  0
  -28.3878  -32.6926   25.0271 H   0  0  0  0  0  0
  -28.0766  -31.8477   26.5357 H   0  0  0  0  0  0
  -28.2610  -38.0047   24.7508 H   0  0  0  0  0  0
  -28.1034  -36.2578   24.6326 H   0  0  0  0  0  0
  -27.2270  -37.1440   25.8878 H   0  0  0  0  0  0
  -20.9391  -29.8738   21.6879 H   0  0  0  0  0  0
  -26.0151  -38.2835   24.1465 H   0  0  0  0  0  0
  -31.1431  -23.2275   19.4916 H   0  0  0  0  0  0
  -31.1098  -17.6077   18.8864 H   0  0  0  0  0  0
  -29.5076  -17.3066   18.2092 H   0  0  0  0  0  0
  -28.6825  -19.5241   18.9517 H   0  0  0  0  0  0
  -30.3182  -19.8878   18.4012 H   0  0  0  0  0  0
  -30.8273  -18.2700   21.9450 H   0  0  0  0  0  0
  -29.0832  -18.5547   22.0568 H   0  0  0  0  0  0
  -28.5142  -17.2758   20.3314 H   0  0  0  0  0  0
  -27.1583  -22.2773   22.6295 H   0  0  0  0  0  0
  -27.0878  -21.1425   21.2662 H   0  0  0  0  0  0
  -26.0213  -22.5426   21.3158 H   0  0  0  0  0  0
  -29.5397  -21.1759   24.5327 H   0  0  0  0  0  0
  -29.8737  -19.6265   23.8086 H   0  0  0  0  0  0
  -28.4981  -20.5698   23.2548 H   0  0  0  0  0  0
  -32.1532  -21.3536   23.8874 H   0  0  0  0  0  0
  -32.5645  -21.7278   22.2252 H   0  0  0  0  0  0
  -32.2151  -20.0671   22.6937 H   0  0  0  0  0  0
  -31.0160  -21.3492   20.5832 H   0  0  0  0  0  0
  -30.2903  -22.4073   22.7611 H   0  0  0  0  0  0
  -28.9290  -15.4025   21.2421 H   0  0  0  0  0  0
  -31.0919  -19.6340   20.4307 H   0  0  0  0  0  0
  1 25  1  0  0  0
  1 30  2  0  0  0
  1 86  1  0  0  0
  2  3  1  0  0  0
  2 25  1  0  0  0
  2 88  1  0  0  0
  2 89  1  0  0  0
  3  4  1  0  0  0
  3 90  1  0  0  0
  3 91  1  0  0  0
  4  5  1  0  0  0
  4 92  1  0  0  0
  4 93  1  0  0  0
  5  6  1  0  0  0
  5 26  1  0  0  0
  5 94  1  0  0  0
  6 25  1  0  0  0
  6 95  1  0  0  0
  6 96  1  0  0  0
  7  8  2  0  0  0
  7 26  1  0  0  0
  7 29  1  0  0  0
  8  9  1  0  0  0
  8 22  1  0  0  0
  9 10  1  0  0  0
  9 27  2  0  0  0
 10 11  2  0  0  0
 10 15  1  0  0  0
 11 12  1  0  0  0
 11 97  1  0  0  0
 12 13  2  0  0  0
 12 98  1  0  0  0
 13 14  1  0  0  0
 13 31  1  0  0  0
 14 15  2  0  0  0
 14 99  1  0  0  0
 15100  1  0  0  0
 16 17  2  0  0  0
 16 21  1  0  0  0
 16 31  1  0  0  0
 17 18  1  0  0  0
 17101  1  0  0  0
 18 19  2  0  0  0
 18102  1  0  0  0
 19 20  1  0  0  0
 19 24  1  0  0  0
 20 21  2  0  0  0
 20103  1  0  0  0
 21 23  1  0  0  0
 22 28  1  0  0  0
 22 32  2  0  0  0
 26 27  1  0  0  0
 28104  1  0  0  0
 28105  1  0  0  0
 29106  1  0  0  0
 29107  1  0  0  0
 33 34  1  0  0  0
 33 66  1  0  0  0
 33 70  2  0  0  0
 34 36  1  0  0  0
 34 59  1  0  0  0
 34108  1  0  0  0
 35 44  2  0  0  0
 35 45  1  0  0  0
 35 68  1  0  0  0
 36 56  1  0  0  0
 36109  1  0  0  0
 37 39  1  0  0  0
 37 47  1  0  0  0
 37 66  1  0  0  0
 37110  1  0  0  0
 38 43  2  0  0  0
 38 46  1  0  0  0
 38 47  1  0  0  0
 39 64  1  0  0  0
 39 67  2  0  0  0
 40 52  1  0  0  0
 40 53  2  0  0  0
 40 58  1  0  0  0
 41111  1  0  0  0
 41112  1  0  0  0
 41113  1  0  0  0
 41 48  1  0  0  0
 42 43  1  0  0  0
 42 66  1  0  0  0
 42114  1  0  0  0
 42115  1  0  0  0
 43 44  1  0  0  0
 44116  1  0  0  0
 45 46  2  0  0  0
 45117  1  0  0  0
 46118  1  0  0  0
 47119  1  0  0  0
 47120  1  0  0  0
 48 56  1  0  0  0
 48 65  1  0  0  0
 48121  1  0  0  0
 49 50  1  0  0  0
 49 53  1  0  0  0
 49 64  1  0  0  0
 49122  1  0  0  0
 50 51  1  0  0  0
 50123  1  0  0  0
 50124  1  0  0  0
 51 52  1  0  0  0
 51125  1  0  0  0
 51126  1  0  0  0
 52127  1  0  0  0
 52128  1  0  0  0
 53 54  1  0  0  0
 54 55  2  0  0  0
 54129  1  0  0  0
 55 57  1  0  0  0
 55130  1  0  0  0
 56 69  2  0  0  0
 57 58  2  0  0  0
 57131  1  0  0  0
 58132  1  0  0  0
 59 60  1  0  0  0
 59 61  1  0  0  0
 59 62  1  0  0  0
 60133  1  0  0  0
 60134  1  0  0  0
 60135  1  0  0  0
 61136  1  0  0  0
 61137  1  0  0  0
 61138  1  0  0  0
 62139  1  0  0  0
 62140  1  0  0  0
 62141  1  0  0  0
 63 65  1  0  0  0
 63142  1  0  0  0
 63143  1  0  0  0
 63144  1  0  0  0
 64145  1  0  0  0
 65146  1  0  0  0
 68 74  1  0  0  0
 71 72  2  0  0  0
 71 84  1  0  0  0
 71147  1  0  0  0
 72 73  1  0  0  0
 72 82  1  0  0  0
 73 79  1  0  0  0
 73 85  2  0  0  0
 74 84  2  0  0  0
 74 85  1  0  0  0
 75 76  1  0  0  0
 75 78  1  0  0  0
 75148  1  0  0  0
 75149  1  0  0  0
 76150  1  0  0  0
 76151  1  0  0  0
 76 87  1  0  0  0
 77 78  1  0  0  0
 77 87  1  0  0  0
 77152  1  0  0  0
 77153  1  0  0  0
 78 86  1  0  0  0
 78154  1  0  0  0
 79155  1  0  0  0
 79156  1  0  0  0
 79157  1  0  0  0
 80158  1  0  0  0
 80159  1  0  0  0
 80160  1  0  0  0
 80 83  1  0  0  0
 81 83  1  0  0  0
 81161  1  0  0  0
 81162  1  0  0  0
 81163  1  0  0  0
 82 83  1  0  0  0
 82 87  1  0  0  0
 82164  1  0  0  0
 83165  1  0  0  0
 86166  1  0  0  0
 87167  1  0  0  0
M  CHG  1  87   1
M  ISO  4   1 100  68 101  74 101  86 100
M  END
> <chiral flag>
0

> <version>
0

> <s_m_source_file>
/data/baiqing/PycharmProjects/Reinvent-master-3.2/result/LINK_invent/BTK/process_docking_weight1_custom_sum_contain_oxygen_bond_distance_aromatic_linkinvent_7_9_3/rearranged_h_0176.sdf

> <i_m_source_file_index>
73

> <r_mmod_Potential_Energy-OPLS-2005>
-141.891036987305

> <r_mmod_Stretch_Energy-OPLS-2005>
102.939865112305

> <r_mmod_Bend_Energy-OPLS-2005>
348.438232421875

> <r_mmod_Torsional_Energy-OPLS-2005>
295.153106689453

> <r_mmod_Improper_Torsional_Energy-OPLS-2005>
11.0340805053711

> <r_mmod_Van_der_Waal_Energy-OPLS-2005>
136.529251098633

> <r_mmod_Electrostatic_Energy-OPLS-2005>
-626.012512207031

> <r_mmod_Solvation_Energy-OPLS-2005>
-470.790191650391

> <b_mmod_Minimization_Converged-OPLS-2005>
0

> <r_mmod_RMS_Derivative-OPLS-2005>
3.59030818939209

$$$$
73
                    3D
 Structure written by MMmdl.
159168  0  0  1  0            999 V2000
  -30.4718  -15.2035   20.3803 C   0  0  0  0  0  0
  -30.4365  -12.7682   19.5137 C   0  0  0  0  0  0
  -29.5289  -12.5631   18.2766 C   0  0  0  0  0  0
  -28.0753  -12.2996   18.7067 C   0  0  0  0  0  0
  -27.6126  -13.2708   19.8221 C   0  0  2  0  0  0
  -28.6504  -13.4266   20.9534 C   0  0  0  0  0  0
  -25.2397  -13.8243   20.5745 C   0  0  0  0  0  0
  -24.1745  -13.0436   20.9259 C   0  0  0  0  0  0
  -24.6395  -11.6932   20.8766 C   0  0  0  0  0  0
  -23.9089  -10.4292   21.0408 C   0  0  0  0  0  0
  -24.3634   -9.4205   21.9185 C   0  0  0  0  0  0
  -23.6303   -8.2243   22.0754 C   0  0  0  0  0  0
  -22.4285   -8.0283   21.3544 C   0  0  0  0  0  0
  -21.9926   -9.0257   20.4645 C   0  0  0  0  0  0
  -22.7261  -10.2133   20.3056 C   0  0  0  0  0  0
  -21.6856   -6.0738   22.5278 C   0  0  0  0  0  0
  -21.4016   -6.5641   23.8212 C   0  0  0  0  0  0
  -21.3660   -5.6793   24.9174 C   0  0  0  0  0  0
  -21.6043   -4.3056   24.7224 C   0  0  0  0  0  0
  -21.8819   -3.8148   23.4346 C   0  0  0  0  0  0
  -21.9194   -4.6965   22.3402 C   0  0  0  0  0  0
  -22.7762  -13.5191   21.1905 C   0  0  0  0  0  0
  -22.1662   -4.2151   21.0979 F   0  0  0  0  0  0
  -21.5628   -3.4539   25.7736 F   0  0  0  0  0  0
  -29.8870  -13.9129   20.3229 N   0  0  0  0  0  0
  -26.2821  -12.9511   20.3221 N   0  0  0  0  0  0
  -25.9331  -11.6620   20.5728 N   0  0  0  0  0  0
  -22.0420  -12.8171   22.0457 N   0  0  0  0  0  0
  -25.4028  -15.1977   20.4176 N   0  0  0  0  0  0
  -31.6956  -15.1925   20.1903 O   0  0  0  0  0  0
  -21.6644   -6.8883   21.4241 O   0  0  0  0  0  0
  -22.3441  -14.5490   20.6743 O   0  0  0  0  0  0
  -24.6606  -31.8276   23.1745 C   0  0  0  0  0  0
  -25.9302  -32.4608   23.8193 C   0  0  1  0  0  0
  -27.2137  -26.9605   20.1743 C   0  0  0  0  0  0
  -25.5980  -33.8422   24.2098 N   0  0  0  0  0  0
  -23.4733  -30.4425   21.5235 C   0  0  2  0  0  0
  -24.9258  -28.8401   20.1120 C   0  0  0  0  0  0
  -22.7656  -29.4467   22.4792 C   0  0  0  0  0  0
  -18.0322  -28.1412   22.8468 C   0  0  0  0  0  0
  -24.1492  -36.7212   23.2646 C   0  0  0  0  0  0
  -26.0421  -30.6445   21.4011 C   0  0  0  0  0  0
  -26.1104  -29.2387   20.7435 C   0  0  0  0  0  0
  -27.2516  -28.3200   20.7516 C   0  0  0  0  0  0
  -25.9996  -26.7129   19.4926 C   0  0  0  0  0  0
  -24.8940  -27.5962   19.4667 C   0  0  0  0  0  0
  -23.7112  -29.7641   20.1479 C   0  0  0  0  0  0
  -25.4133  -36.2978   24.0302 C   0  0  1  0  0  0
  -20.5946  -28.3755   23.1192 C   0  0  2  0  0  0
  -20.6802  -26.9439   22.5401 C   0  0  0  0  0  0
  -19.5773  -26.6382   21.5215 C   0  0  0  0  0  0
  -18.1954  -26.7946   22.1624 C   0  0  0  0  0  0
  -19.1584  -28.8903   23.2817 C   0  0  0  0  0  0
  -18.9495  -30.1492   23.8853 C   0  0  0  0  0  0
  -17.6489  -30.6600   24.0558 C   0  0  0  0  0  0
  -25.9097  -34.9360   23.5018 C   0  0  0  0  0  0
  -16.5378  -29.9089   23.6345 C   0  0  0  0  0  0
  -16.7304  -28.6510   23.0362 C   0  0  0  0  0  0
  -26.4561  -31.6541   25.0708 C   0  0  0  0  0  0
  -25.3692  -31.3781   26.1366 C   0  0  0  0  0  0
  -27.0457  -30.2912   24.6422 C   0  0  0  0  0  0
  -27.6056  -32.4345   25.7509 C   0  0  0  0  0  0
  -27.5569  -37.1763   24.8467 C   0  0  0  0  0  0
  -21.4328  -29.3050   22.3541 N   0  0  0  0  0  0
  -26.4280  -37.3712   23.9409 N   0  0  0  0  0  0
  -24.7465  -30.9970   22.0868 N   0  0  0  0  0  0
  -23.4217  -28.8027   23.3017 O   0  0  0  0  0  0
  -28.2029  -25.8522   20.2475 O   0  0  0  0  0  0
  -26.5702  -34.8889   22.4610 O   0  0  0  0  0  0
  -23.5682  -32.1233   23.6855 O   0  0  0  0  0  0
  -29.1485  -20.3769   19.1787 C   0  0  0  0  0  0
  -28.7663  -21.8025   19.0892 C   0  0  0  0  0  0
  -29.4019  -19.6343   20.3979 C   0  0  0  0  0  0
  -29.2129  -20.6215   21.4677 C   0  0  0  0  0  0
  -28.5971  -22.7263   20.1954 C   0  0  0  0  0  0
  -30.8847  -18.1898   21.9271 C   0  0  0  0  0  0
  -29.9254  -18.6890   23.0214 C   0  0  0  0  0  0
  -30.1604  -18.0746   20.5764 C   0  0  1  0  0  0
  -29.5257  -20.1899   22.9145 C   0  0  0  0  0  0
  -28.2820  -20.3956   23.8043 C   0  0  0  0  0  0
  -30.6912  -21.0408   23.4660 C   0  0  0  0  0  0
  -27.8011  -24.2761   20.1024 C   0  0  0  0  0  0
  -28.8182  -21.9958   21.3638 N   0  0  0  0  0  0
  -29.7328  -16.4807   20.4580 N   0  0  0  0  0  0
  -31.4578  -12.9615   19.1829 H   0  0  0  0  0  0
  -30.4898  -11.8575   20.1127 H   0  0  0  0  0  0
  -29.8964  -11.7371   17.6662 H   0  0  0  0  0  0
  -29.5678  -13.4528   17.6462 H   0  0  0  0  0  0
  -28.0226  -11.2732   19.0716 H   0  0  0  0  0  0
  -27.4055  -12.3535   17.8476 H   0  0  0  0  0  0
  -27.5334  -14.2422   19.3327 H   0  0  0  0  0  0
  -28.8060  -12.4878   21.4870 H   0  0  0  0  0  0
  -28.3029  -14.1516   21.6913 H   0  0  0  0  0  0
  -25.2776   -9.5680   22.4767 H   0  0  0  0  0  0
  -24.0008   -7.4634   22.7475 H   0  0  0  0  0  0
  -21.0858   -8.8781   19.8950 H   0  0  0  0  0  0
  -22.3720  -10.9675   19.6168 H   0  0  0  0  0  0
  -21.2010   -7.6150   23.9716 H   0  0  0  0  0  0
  -21.1481   -6.0523   25.9076 H   0  0  0  0  0  0
  -22.0598   -2.7611   23.2845 H   0  0  0  0  0  0
  -22.4054  -11.9841   22.4848 H   0  0  0  0  0  0
  -21.1030  -13.1174   22.2659 H   0  0  0  0  0  0
  -24.6307  -15.8459   20.5299 H   0  0  0  0  0  0
  -26.2413  -15.6405   20.0658 H   0  0  0  0  0  0
  -26.7369  -32.5157   23.0908 H   0  0  0  0  0  0
  -25.0082  -33.9507   25.0217 H   0  0  0  0  0  0
  -22.7851  -31.2738   21.3568 H   0  0  0  0  0  0
  -23.3767  -35.9530   23.3284 H   0  0  0  0  0  0
  -24.3569  -36.8882   22.2066 H   0  0  0  0  0  0
  -23.7238  -37.6390   23.6716 H   0  0  0  0  0  0
  -26.2199  -31.3888   20.6238 H   0  0  0  0  0  0
  -26.9033  -30.6989   22.0551 H   0  0  0  0  0  0
  -28.1473  -28.6225   21.2758 H   0  0  0  0  0  0
  -25.8565  -25.7698   18.9893 H   0  0  0  0  0  0
  -23.9948  -27.2860   18.9522 H   0  0  0  0  0  0
  -23.8650  -30.5354   19.3924 H   0  0  0  0  0  0
  -22.8214  -29.2182   19.8293 H   0  0  0  0  0  0
  -25.1329  -36.1779   25.0793 H   0  0  0  0  0  0
  -21.0037  -28.3364   24.1315 H   0  0  0  0  0  0
  -20.5693  -26.2373   23.3639 H   0  0  0  0  0  0
  -21.6664  -26.7424   22.1199 H   0  0  0  0  0  0
  -19.6934  -25.6282   21.1272 H   0  0  0  0  0  0
  -19.6711  -27.3170   20.6727 H   0  0  0  0  0  0
  -17.4223  -26.6690   21.4027 H   0  0  0  0  0  0
  -18.0347  -26.0101   22.9034 H   0  0  0  0  0  0
  -19.7971  -30.7319   24.2204 H   0  0  0  0  0  0
  -17.5042  -31.6277   24.5168 H   0  0  0  0  0  0
  -15.5377  -30.2975   23.7697 H   0  0  0  0  0  0
  -15.8706  -28.0813   22.7102 H   0  0  0  0  0  0
  -24.5894  -30.7111   25.7671 H   0  0  0  0  0  0
  -24.8861  -32.2978   26.4672 H   0  0  0  0  0  0
  -25.7927  -30.9026   27.0221 H   0  0  0  0  0  0
  -26.3123  -29.6589   24.1406 H   0  0  0  0  0  0
  -27.3978  -29.7271   25.5069 H   0  0  0  0  0  0
  -27.9067  -30.4101   23.9842 H   0  0  0  0  0  0
  -27.2630  -33.3689   26.1965 H   0  0  0  0  0  0
  -28.3929  -32.6835   25.0382 H   0  0  0  0  0  0
  -28.0653  -31.8552   26.5527 H   0  0  0  0  0  0
  -28.2569  -38.0075   24.7513 H   0  0  0  0  0  0
  -28.1082  -36.2601   24.6296 H   0  0  0  0  0  0
  -27.2283  -37.1407   25.8869 H   0  0  0  0  0  0
  -20.9577  -29.8745   21.6677 H   0  0  0  0  0  0
  -26.0130  -38.2770   24.1421 H   0  0  0  0  0  0
  -29.2796  -19.8458   18.2469 H   0  0  0  0  0  0
  -28.5663  -22.1921   18.1002 H   0  0  0  0  0  0
  -31.3324  -17.2417   22.2257 H   0  0  0  0  0  0
  -31.7232  -18.8805   21.8355 H   0  0  0  0  0  0
  -30.3530  -18.4880   24.0042 H   0  0  0  0  0  0
  -29.0280  -18.0704   22.9686 H   0  0  0  0  0  0
  -30.9401  -18.1227   19.8143 H   0  0  0  0  0  0
  -27.4283  -19.8344   23.4230 H   0  0  0  0  0  0
  -27.9862  -21.4439   23.8501 H   0  0  0  0  0  0
  -28.4647  -20.0670   24.8276 H   0  0  0  0  0  0
  -31.5812  -20.9535   22.8436 H   0  0  0  0  0  0
  -30.9633  -20.7417   24.4783 H   0  0  0  0  0  0
  -30.4312  -22.0989   23.5051 H   0  0  0  0  0  0
  -26.9535  -24.1623   20.7784 H   0  0  0  0  0  0
  -27.3606  -24.2233   19.1080 H   0  0  0  0  0  0
  -28.7357  -16.3358   20.5096 H   0  0  0  0  0  0
  1 25  1  0  0  0
  1 30  2  0  0  0
  1 84  1  0  0  0
  2  3  1  0  0  0
  2 25  1  0  0  0
  2 85  1  0  0  0
  2 86  1  0  0  0
  3  4  1  0  0  0
  3 87  1  0  0  0
  3 88  1  0  0  0
  4  5  1  0  0  0
  4 89  1  0  0  0
  4 90  1  0  0  0
  5  6  1  0  0  0
  5 26  1  0  0  0
  5 91  1  0  0  0
  6 25  1  0  0  0
  6 92  1  0  0  0
  6 93  1  0  0  0
  7  8  2  0  0  0
  7 26  1  0  0  0
  7 29  1  0  0  0
  8  9  1  0  0  0
  8 22  1  0  0  0
  9 10  1  0  0  0
  9 27  2  0  0  0
 10 11  2  0  0  0
 10 15  1  0  0  0
 11 12  1  0  0  0
 11 94  1  0  0  0
 12 13  2  0  0  0
 12 95  1  0  0  0
 13 14  1  0  0  0
 13 31  1  0  0  0
 14 15  2  0  0  0
 14 96  1  0  0  0
 15 97  1  0  0  0
 16 17  2  0  0  0
 16 21  1  0  0  0
 16 31  1  0  0  0
 17 18  1  0  0  0
 17 98  1  0  0  0
 18 19  2  0  0  0
 18 99  1  0  0  0
 19 20  1  0  0  0
 19 24  1  0  0  0
 20 21  2  0  0  0
 20100  1  0  0  0
 21 23  1  0  0  0
 22 28  1  0  0  0
 22 32  2  0  0  0
 26 27  1  0  0  0
 28101  1  0  0  0
 28102  1  0  0  0
 29103  1  0  0  0
 29104  1  0  0  0
 33 34  1  0  0  0
 33 66  1  0  0  0
 33 70  2  0  0  0
 34 36  1  0  0  0
 34 59  1  0  0  0
 34105  1  0  0  0
 35 44  2  0  0  0
 35 45  1  0  0  0
 35 68  1  0  0  0
 36 56  1  0  0  0
 36106  1  0  0  0
 37 39  1  0  0  0
 37 47  1  0  0  0
 37 66  1  0  0  0
 37107  1  0  0  0
 38 43  2  0  0  0
 38 46  1  0  0  0
 38 47  1  0  0  0
 39 64  1  0  0  0
 39 67  2  0  0  0
 40 52  1  0  0  0
 40 53  2  0  0  0
 40 58  1  0  0  0
 41108  1  0  0  0
 41109  1  0  0  0
 41110  1  0  0  0
 41 48  1  0  0  0
 42 43  1  0  0  0
 42 66  1  0  0  0
 42111  1  0  0  0
 42112  1  0  0  0
 43 44  1  0  0  0
 44113  1  0  0  0
 45 46  2  0  0  0
 45114  1  0  0  0
 46115  1  0  0  0
 47116  1  0  0  0
 47117  1  0  0  0
 48 56  1  0  0  0
 48 65  1  0  0  0
 48118  1  0  0  0
 49 50  1  0  0  0
 49 53  1  0  0  0
 49 64  1  0  0  0
 49119  1  0  0  0
 50 51  1  0  0  0
 50120  1  0  0  0
 50121  1  0  0  0
 51 52  1  0  0  0
 51122  1  0  0  0
 51123  1  0  0  0
 52124  1  0  0  0
 52125  1  0  0  0
 53 54  1  0  0  0
 54 55  2  0  0  0
 54126  1  0  0  0
 55 57  1  0  0  0
 55127  1  0  0  0
 56 69  2  0  0  0
 57 58  2  0  0  0
 57128  1  0  0  0
 58129  1  0  0  0
 59 60  1  0  0  0
 59 61  1  0  0  0
 59 62  1  0  0  0
 60130  1  0  0  0
 60131  1  0  0  0
 60132  1  0  0  0
 61133  1  0  0  0
 61134  1  0  0  0
 61135  1  0  0  0
 62136  1  0  0  0
 62137  1  0  0  0
 62138  1  0  0  0
 63 65  1  0  0  0
 63139  1  0  0  0
 63140  1  0  0  0
 63141  1  0  0  0
 64142  1  0  0  0
 65143  1  0  0  0
 68 82  1  0  0  0
 71 72  2  0  0  0
 71 73  1  0  0  0
 71144  1  0  0  0
 72 75  1  0  0  0
 72145  1  0  0  0
 73 74  2  0  0  0
 73 78  1  0  0  0
 74 79  1  0  0  0
 74 83  1  0  0  0
 75 82  1  0  0  0
 75 83  2  0  0  0
 76 77  1  0  0  0
 76 78  1  0  0  0
 76146  1  0  0  0
 76147  1  0  0  0
 77 79  1  0  0  0
 77148  1  0  0  0
 77149  1  0  0  0
 78 84  1  0  0  0
 78150  1  0  0  0
 79 80  1  0  0  0
 79 81  1  0  0  0
 80151  1  0  0  0
 80152  1  0  0  0
 80153  1  0  0  0
 81154  1  0  0  0
 81155  1  0  0  0
 81156  1  0  0  0
 82157  1  0  0  0
 82158  1  0  0  0
 84159  1  0  0  0
M  ISO  4   1 100  68 101  82 101  84 100
M  END
> <chiral flag>
0

> <version>
0

> <s_m_source_file>
/data/baiqing/PycharmProjects/Reinvent-master-3.2/result/LINK_invent/BTK/process_docking_weight1_custom_sum_contain_oxygen_bond_distance_aromatic_linkinvent_7_9_3/rearranged_h_0176.sdf

> <i_m_source_file_index>
74

> <r_mmod_Potential_Energy-OPLS-2005>
961.723937988281

> <r_mmod_Stretch_Energy-OPLS-2005>
474.067474365234

> <r_mmod_Bend_Energy-OPLS-2005>
432.540435791016

> <r_mmod_Torsional_Energy-OPLS-2005>
222.289688110352

> <r_mmod_Improper_Torsional_Energy-OPLS-2005>
9.80133533477783

> <r_mmod_Van_der_Waal_Energy-OPLS-2005>
143.780868530273

> <r_mmod_Electrostatic_Energy-OPLS-2005>
-507.317352294922

> <r_mmod_Solvation_Energy-OPLS-2005>
-218.616714477539

> <b_mmod_Minimization_Converged-OPLS-2005>
0

> <r_mmod_RMS_Derivative-OPLS-2005>
0.241103515028954

$$$$
74
                    3D
 Structure written by MMmdl.
166176  0  0  1  0            999 V2000
  -30.6829  -14.6278   20.4931 C   0  0  0  0  0  0
  -30.4091  -12.3887   19.4599 C   0  0  0  0  0  0
  -29.4949  -12.4987   18.2229 C   0  0  0  0  0  0
  -28.0185  -12.3376   18.6336 C   0  0  0  0  0  0
  -27.6380  -13.2215   19.8529 C   0  0  2  0  0  0
  -28.6833  -13.1069   20.9844 C   0  0  0  0  0  0
  -25.2460  -13.8181   20.5696 C   0  0  0  0  0  0
  -24.1753  -13.0435   20.9224 C   0  0  0  0  0  0
  -24.6350  -11.6905   20.8757 C   0  0  0  0  0  0
  -23.9039  -10.4289   21.0417 C   0  0  0  0  0  0
  -24.3601   -9.4214   21.9191 C   0  0  0  0  0  0
  -23.6278   -8.2246   22.0755 C   0  0  0  0  0  0
  -22.4256   -8.0282   21.3547 C   0  0  0  0  0  0
  -21.9899   -9.0252   20.4645 C   0  0  0  0  0  0
  -22.7227  -10.2133   20.3057 C   0  0  0  0  0  0
  -21.6852   -6.0730   22.5274 C   0  0  0  0  0  0
  -21.4020   -6.5628   23.8208 C   0  0  0  0  0  0
  -21.3662   -5.6787   24.9165 C   0  0  0  0  0  0
  -21.6043   -4.3051   24.7220 C   0  0  0  0  0  0
  -21.8813   -3.8137   23.4340 C   0  0  0  0  0  0
  -21.9194   -4.6957   22.3397 C   0  0  0  0  0  0
  -22.7784  -13.5238   21.1860 C   0  0  0  0  0  0
  -22.1668   -4.2143   21.0971 F   0  0  0  0  0  0
  -21.5624   -3.4533   25.7736 F   0  0  0  0  0  0
  -29.9863  -13.4468   20.4015 N   0  0  0  0  0  0
  -26.2889  -12.9387   20.3284 N   0  0  0  0  0  0
  -25.9273  -11.6537   20.5756 N   0  0  0  0  0  0
  -22.0408  -12.8229   22.0411 N   0  0  0  0  0  0
  -25.4068  -15.1907   20.4067 N   0  0  0  0  0  0
  -31.8844  -14.6402   20.2080 O   0  0  0  0  0  0
  -21.6625   -6.8872   21.4237 O   0  0  0  0  0  0
  -22.3473  -14.5550   20.6708 O   0  0  0  0  0  0
  -24.6203  -31.8655   23.2049 C   0  0  0  0  0  0
  -25.9083  -32.4803   23.8357 C   0  0  1  0  0  0
  -27.2276  -27.3631   20.1237 C   0  0  0  0  0  0
  -25.5908  -33.8599   24.2284 N   0  0  0  0  0  0
  -23.4123  -30.4868   21.5481 C   0  0  2  0  0  0
  -24.8613  -28.9348   20.1262 C   0  0  0  0  0  0
  -22.7451  -29.4655   22.4990 C   0  0  0  0  0  0
  -18.0281  -28.1361   22.8493 C   0  0  0  0  0  0
  -24.1494  -36.7333   23.2633 C   0  0  0  0  0  0
  -25.9476  -30.8053   21.3731 C   0  0  0  0  0  0
  -26.0249  -29.4296   20.7312 C   0  0  0  0  0  0
  -27.2153  -28.6494   20.7298 C   0  0  0  0  0  0
  -26.0495  -26.9054   19.5022 C   0  0  0  0  0  0
  -24.8696  -27.6728   19.5088 C   0  0  0  0  0  0
  -23.6282  -29.8127   20.1668 C   0  0  0  0  0  0
  -25.4108  -36.3097   24.0324 C   0  0  1  0  0  0
  -20.5881  -28.3670   23.1299 C   0  0  2  0  0  0
  -20.6765  -26.9405   22.5405 C   0  0  0  0  0  0
  -19.5743  -26.6389   21.5197 C   0  0  0  0  0  0
  -18.1921  -26.7915   22.1609 C   0  0  0  0  0  0
  -19.1527  -28.8828   23.2895 C   0  0  0  0  0  0
  -18.9457  -30.1437   23.8918 C   0  0  0  0  0  0
  -17.6459  -30.6577   24.0543 C   0  0  0  0  0  0
  -25.9045  -34.9467   23.5103 C   0  0  0  0  0  0
  -16.5350  -29.9072   23.6328 C   0  0  0  0  0  0
  -16.7273  -28.6471   23.0376 C   0  0  0  0  0  0
  -26.4480  -31.6591   25.0711 C   0  0  0  0  0  0
  -25.3729  -31.3738   26.1448 C   0  0  0  0  0  0
  -27.0276  -30.2991   24.6148 C   0  0  0  0  0  0
  -27.6019  -32.4339   25.7511 C   0  0  0  0  0  0
  -27.5582  -37.1829   24.8453 C   0  0  0  0  0  0
  -21.4164  -29.3058   22.3718 N   0  0  0  0  0  0
  -26.4287  -37.3793   23.9416 N   0  0  0  0  0  0
  -24.6787  -31.0686   22.1000 N   0  0  0  0  0  0
  -23.4189  -28.8197   23.3058 O   0  0  0  0  0  0
  -28.3527  -26.5640   19.9935 O   0  0  0  0  0  0
  -26.5627  -34.8917   22.4673 O   0  0  0  0  0  0
  -23.5375  -32.1453   23.7405 O   0  0  0  0  0  0
  -27.4393  -22.3441   20.2481 C   0  0  0  0  0  0
  -29.6961  -21.1330   21.1910 C   0  0  0  0  0  0
  -28.7767  -20.2930   20.5092 C   0  0  0  0  0  0
  -27.6103  -20.9549   20.0242 C   0  0  0  0  0  0
  -28.3750  -23.0836   20.9989 C   0  0  0  0  0  0
  -27.6923  -24.4592   23.0801 C   0  0  0  0  0  0
  -26.5891  -24.6775   22.0934 C   0  0  0  0  0  0
  -30.3533  -18.3201   19.6979 C   0  0  0  0  0  0
  -28.8797  -17.8703   21.5871 C   0  0  0  0  0  0
  -30.3669  -16.8036   19.3218 C   0  0  0  0  0  0
  -28.9460  -16.3193   21.3294 C   0  0  0  0  0  0
  -29.0119  -18.7458   20.3184 C   0  0  0  0  0  0
  -28.0146  -24.4773   21.5910 C   0  0  0  0  0  0
  -26.4929  -20.2112   19.3115 C   0  0  0  0  0  0
  -28.8109  -25.7266   21.0892 C   0  0  0  0  0  0
  -29.5001  -22.4631   21.4437 N   0  0  0  0  0  0
  -29.9854  -15.8222   20.3859 N   0  0  0  0  0  0
  -31.4560  -12.4704   19.1655 H   0  0  0  0  0  0
  -30.3131  -11.4091   19.9284 H   0  0  0  0  0  0
  -29.7638  -11.7435   17.4829 H   0  0  0  0  0  0
  -29.6397  -13.4674   17.7418 H   0  0  0  0  0  0
  -27.8581  -11.2881   18.8798 H   0  0  0  0  0  0
  -27.3634  -12.5529   17.7890 H   0  0  0  0  0  0
  -27.6462  -14.2482   19.4908 H   0  0  0  0  0  0
  -28.7037  -12.0944   21.3913 H   0  0  0  0  0  0
  -28.4277  -13.7513   21.8222 H   0  0  0  0  0  0
  -25.2738   -9.5704   22.4782 H   0  0  0  0  0  0
  -23.9986   -7.4638   22.7487 H   0  0  0  0  0  0
  -21.0825   -8.8778   19.8945 H   0  0  0  0  0  0
  -22.3686  -10.9677   19.6174 H   0  0  0  0  0  0
  -21.2019   -7.6139   23.9719 H   0  0  0  0  0  0
  -21.1494   -6.0502   25.9073 H   0  0  0  0  0  0
  -22.0590   -2.7598   23.2834 H   0  0  0  0  0  0
  -22.4025  -11.9912   22.4839 H   0  0  0  0  0  0
  -21.1032  -13.1262   22.2597 H   0  0  0  0  0  0
  -24.6361  -15.8349   20.5400 H   0  0  0  0  0  0
  -26.2404  -15.6376   20.0513 H   0  0  0  0  0  0
  -26.7157  -32.5503   23.1118 H   0  0  0  0  0  0
  -24.9995  -33.9739   25.0387 H   0  0  0  0  0  0
  -22.7033  -31.3056   21.4018 H   0  0  0  0  0  0
  -23.3726  -35.9694   23.3291 H   0  0  0  0  0  0
  -24.3582  -36.8962   22.2043 H   0  0  0  0  0  0
  -23.7279  -37.6546   23.6667 H   0  0  0  0  0  0
  -26.0739  -31.5629   20.5979 H   0  0  0  0  0  0
  -26.8286  -30.8593   22.0001 H   0  0  0  0  0  0
  -28.1192  -29.0347   21.1799 H   0  0  0  0  0  0
  -26.0444  -25.9422   19.0092 H   0  0  0  0  0  0
  -23.9770  -27.2879   19.0340 H   0  0  0  0  0  0
  -23.7490  -30.5820   19.4038 H   0  0  0  0  0  0
  -22.7489  -29.2396   19.8657 H   0  0  0  0  0  0
  -25.1296  -36.1943   25.0817 H   0  0  0  0  0  0
  -20.9966  -28.3216   24.1417 H   0  0  0  0  0  0
  -20.5640  -26.2281   23.3589 H   0  0  0  0  0  0
  -21.6634  -26.7431   22.1202 H   0  0  0  0  0  0
  -19.6889  -25.6309   21.1207 H   0  0  0  0  0  0
  -19.6653  -27.3195   20.6714 H   0  0  0  0  0  0
  -17.4191  -26.6693   21.3998 H   0  0  0  0  0  0
  -18.0301  -26.0031   22.8974 H   0  0  0  0  0  0
  -19.7942  -30.7221   24.2302 H   0  0  0  0  0  0
  -17.5030  -31.6254   24.5149 H   0  0  0  0  0  0
  -15.5360  -30.2972   23.7652 H   0  0  0  0  0  0
  -15.8665  -28.0772   22.7138 H   0  0  0  0  0  0
  -24.5885  -30.7104   25.7801 H   0  0  0  0  0  0
  -24.8934  -32.2899   26.4890 H   0  0  0  0  0  0
  -25.8054  -30.8915   27.0218 H   0  0  0  0  0  0
  -26.2802  -29.6786   24.1172 H   0  0  0  0  0  0
  -27.3928  -29.7218   25.4655 H   0  0  0  0  0  0
  -27.8719  -30.4234   23.9362 H   0  0  0  0  0  0
  -27.2574  -33.3607   26.2117 H   0  0  0  0  0  0
  -28.3819  -32.6964   25.0357 H   0  0  0  0  0  0
  -28.0696  -31.8462   26.5418 H   0  0  0  0  0  0
  -28.2598  -38.0132   24.7486 H   0  0  0  0  0  0
  -28.1088  -36.2658   24.6285 H   0  0  0  0  0  0
  -27.2313  -37.1470   25.8863 H   0  0  0  0  0  0
  -20.9345  -29.8796   21.6943 H   0  0  0  0  0  0
  -26.0166  -38.2879   24.1393 H   0  0  0  0  0  0
  -26.5328  -22.8352   19.9212 H   0  0  0  0  0  0
  -30.6045  -20.7101   21.5973 H   0  0  0  0  0  0
  -27.7353  -23.4971   23.5870 H   0  0  0  0  0  0
  -27.9703  -25.3153   23.6943 H   0  0  0  0  0  0
  -26.1582  -25.6754   22.0829 H   0  0  0  0  0  0
  -25.8761  -23.8648   21.9744 H   0  0  0  0  0  0
  -30.5447  -18.9060   18.7955 H   0  0  0  0  0  0
  -31.1773  -18.5377   20.3777 H   0  0  0  0  0  0
  -29.6592  -18.1495   22.2964 H   0  0  0  0  0  0
  -27.9375  -18.0976   22.0873 H   0  0  0  0  0  0
  -31.3441  -16.5818   18.8904 H   0  0  0  0  0  0
  -29.6645  -16.6469   18.5025 H   0  0  0  0  0  0
  -27.9805  -16.0133   20.9366 H   0  0  0  0  0  0
  -29.0547  -15.8224   22.2941 H   0  0  0  0  0  0
  -28.2611  -18.3934   19.6131 H   0  0  0  0  0  0
  -26.2666  -19.2648   19.8024 H   0  0  0  0  0  0
  -26.7589  -20.0209   18.2711 H   0  0  0  0  0  0
  -25.5686  -20.7891   19.3208 H   0  0  0  0  0  0
  -29.8208  -25.3956   20.8500 H   0  0  0  0  0  0
  -28.9422  -26.4023   21.9348 H   0  0  0  0  0  0
  1 25  1  0  0  0
  1 30  2  0  0  0
  1 87  1  0  0  0
  2  3  1  0  0  0
  2 25  1  0  0  0
  2 88  1  0  0  0
  2 89  1  0  0  0
  3  4  1  0  0  0
  3 90  1  0  0  0
  3 91  1  0  0  0
  4  5  1  0  0  0
  4 92  1  0  0  0
  4 93  1  0  0  0
  5  6  1  0  0  0
  5 26  1  0  0  0
  5 94  1  0  0  0
  6 25  1  0  0  0
  6 95  1  0  0  0
  6 96  1  0  0  0
  7  8  2  0  0  0
  7 26  1  0  0  0
  7 29  1  0  0  0
  8  9  1  0  0  0
  8 22  1  0  0  0
  9 10  1  0  0  0
  9 27  2  0  0  0
 10 11  2  0  0  0
 10 15  1  0  0  0
 11 12  1  0  0  0
 11 97  1  0  0  0
 12 13  2  0  0  0
 12 98  1  0  0  0
 13 14  1  0  0  0
 13 31  1  0  0  0
 14 15  2  0  0  0
 14 99  1  0  0  0
 15100  1  0  0  0
 16 17  2  0  0  0
 16 21  1  0  0  0
 16 31  1  0  0  0
 17 18  1  0  0  0
 17101  1  0  0  0
 18 19  2  0  0  0
 18102  1  0  0  0
 19 20  1  0  0  0
 19 24  1  0  0  0
 20 21  2  0  0  0
 20103  1  0  0  0
 21 23  1  0  0  0
 22 28  1  0  0  0
 22 32  2  0  0  0
 26 27  1  0  0  0
 28104  1  0  0  0
 28105  1  0  0  0
 29106  1  0  0  0
 29107  1  0  0  0
 33 34  1  0  0  0
 33 66  1  0  0  0
 33 70  2  0  0  0
 34 36  1  0  0  0
 34 59  1  0  0  0
 34108  1  0  0  0
 35 44  2  0  0  0
 35 45  1  0  0  0
 35 68  1  0  0  0
 36 56  1  0  0  0
 36109  1  0  0  0
 37 39  1  0  0  0
 37 47  1  0  0  0
 37 66  1  0  0  0
 37110  1  0  0  0
 38 43  2  0  0  0
 38 46  1  0  0  0
 38 47  1  0  0  0
 39 64  1  0  0  0
 39 67  2  0  0  0
 40 52  1  0  0  0
 40 53  2  0  0  0
 40 58  1  0  0  0
 41111  1  0  0  0
 41112  1  0  0  0
 41113  1  0  0  0
 41 48  1  0  0  0
 42 43  1  0  0  0
 42 66  1  0  0  0
 42114  1  0  0  0
 42115  1  0  0  0
 43 44  1  0  0  0
 44116  1  0  0  0
 45 46  2  0  0  0
 45117  1  0  0  0
 46118  1  0  0  0
 47119  1  0  0  0
 47120  1  0  0  0
 48 56  1  0  0  0
 48 65  1  0  0  0
 48121  1  0  0  0
 49 50  1  0  0  0
 49 53  1  0  0  0
 49 64  1  0  0  0
 49122  1  0  0  0
 50 51  1  0  0  0
 50123  1  0  0  0
 50124  1  0  0  0
 51 52  1  0  0  0
 51125  1  0  0  0
 51126  1  0  0  0
 52127  1  0  0  0
 52128  1  0  0  0
 53 54  1  0  0  0
 54 55  2  0  0  0
 54129  1  0  0  0
 55 57  1  0  0  0
 55130  1  0  0  0
 56 69  2  0  0  0
 57 58  2  0  0  0
 57131  1  0  0  0
 58132  1  0  0  0
 59 60  1  0  0  0
 59 61  1  0  0  0
 59 62  1  0  0  0
 60133  1  0  0  0
 60134  1  0  0  0
 60135  1  0  0  0
 61136  1  0  0  0
 61137  1  0  0  0
 61138  1  0  0  0
 62139  1  0  0  0
 62140  1  0  0  0
 62141  1  0  0  0
 63 65  1  0  0  0
 63142  1  0  0  0
 63143  1  0  0  0
 63144  1  0  0  0
 64145  1  0  0  0
 65146  1  0  0  0
 68 85  1  0  0  0
 71 74  2  0  0  0
 71 75  1  0  0  0
 71147  1  0  0  0
 72 73  2  0  0  0
 72 86  1  0  0  0
 72148  1  0  0  0
 73 74  1  0  0  0
 73 82  1  0  0  0
 74 84  1  0  0  0
 75 83  1  0  0  0
 75 86  2  0  0  0
 76 77  1  0  0  0
 76 83  1  0  0  0
 76149  1  0  0  0
 76150  1  0  0  0
 77 83  1  0  0  0
 77151  1  0  0  0
 77152  1  0  0  0
 78 80  1  0  0  0
 78 82  1  0  0  0
 78153  1  0  0  0
 78154  1  0  0  0
 79 81  1  0  0  0
 79 82  1  0  0  0
 79155  1  0  0  0
 79156  1  0  0  0
 80 87  1  0  0  0
 80157  1  0  0  0
 80158  1  0  0  0
 81 87  1  0  0  0
 81159  1  0  0  0
 81160  1  0  0  0
 82161  1  0  0  0
 83 85  1  0  0  0
 84162  1  0  0  0
 84163  1  0  0  0
 84164  1  0  0  0
 85165  1  0  0  0
 85166  1  0  0  0
M  ISO  4   1 100  68 101  85 101  87 100
M  END
> <chiral flag>
0

> <version>
0

> <s_m_source_file>
/data/baiqing/PycharmProjects/Reinvent-master-3.2/result/LINK_invent/BTK/process_docking_weight1_custom_sum_contain_oxygen_bond_distance_aromatic_linkinvent_7_9_3/rearranged_h_0176.sdf

> <i_m_source_file_index>
75

> <r_mmod_Potential_Energy-OPLS-2005>
198.546646118164

> <r_mmod_Stretch_Energy-OPLS-2005>
71.8165817260742

> <r_mmod_Bend_Energy-OPLS-2005>
160.179351806641

> <r_mmod_Torsional_Energy-OPLS-2005>
371.526580810547

> <r_mmod_Improper_Torsional_Energy-OPLS-2005>
18.9348011016846

> <r_mmod_Van_der_Waal_Energy-OPLS-2005>
141.567733764648

> <r_mmod_Electrostatic_Energy-OPLS-2005>
-399.872375488281

> <r_mmod_Solvation_Energy-OPLS-2005>
-206.549240112305

> <b_mmod_Minimization_Converged-OPLS-2005>
0

> <r_mmod_RMS_Derivative-OPLS-2005>
3.24304175376892

$$$$
75
                    3D
 Structure written by MMmdl.
151160  0  0  1  0            999 V2000
  -30.3639  -15.4081   20.3642 C   0  0  0  0  0  0
  -30.4416  -12.9134   19.5446 C   0  0  0  0  0  0
  -29.5434  -12.6072   18.3145 C   0  0  0  0  0  0
  -28.1013  -12.2944   18.7455 C   0  0  0  0  0  0
  -27.6085  -13.2821   19.8285 C   0  0  2  0  0  0
  -28.6320  -13.5059   20.9655 C   0  0  0  0  0  0
  -25.2337  -13.8205   20.5730 C   0  0  0  0  0  0
  -24.1715  -13.0401   20.9283 C   0  0  0  0  0  0
  -24.6394  -11.6906   20.8801 C   0  0  0  0  0  0
  -23.9089  -10.4271   21.0425 C   0  0  0  0  0  0
  -24.3621   -9.4190   21.9202 C   0  0  0  0  0  0
  -23.6291   -8.2230   22.0767 C   0  0  0  0  0  0
  -22.4280   -8.0278   21.3551 C   0  0  0  0  0  0
  -21.9917   -9.0252   20.4654 C   0  0  0  0  0  0
  -22.7256  -10.2123   20.3074 C   0  0  0  0  0  0
  -21.6849   -6.0728   22.5278 C   0  0  0  0  0  0
  -21.3996   -6.5638   23.8206 C   0  0  0  0  0  0
  -21.3655   -5.6804   24.9174 C   0  0  0  0  0  0
  -21.6038   -4.3061   24.7244 C   0  0  0  0  0  0
  -21.8816   -3.8145   23.4371 C   0  0  0  0  0  0
  -21.9179   -4.6953   22.3408 C   0  0  0  0  0  0
  -22.7735  -13.5162   21.1932 C   0  0  0  0  0  0
  -22.1658   -4.2127   21.0991 F   0  0  0  0  0  0
  -21.5625   -3.4551   25.7759 F   0  0  0  0  0  0
  -29.8507  -14.0616   20.3464 N   0  0  0  0  0  0
  -26.2790  -12.9515   20.3251 N   0  0  0  0  0  0
  -25.9333  -11.6611   20.5757 N   0  0  0  0  0  0
  -22.0397  -12.8144   22.0480 N   0  0  0  0  0  0
  -25.3908  -15.1907   20.4019 N   0  0  0  0  0  0
  -31.5768  -15.4214   20.0938 O   0  0  0  0  0  0
  -21.6640   -6.8881   21.4247 O   0  0  0  0  0  0
  -22.3424  -14.5476   20.6792 O   0  0  0  0  0  0
  -24.6692  -31.8151   23.1625 C   0  0  0  0  0  0
  -25.9332  -32.4544   23.8138 C   0  0  1  0  0  0
  -27.2315  -26.8542   20.1971 C   0  0  0  0  0  0
  -25.5969  -33.8364   24.2041 N   0  0  0  0  0  0
  -23.4897  -30.4208   21.5135 C   0  0  2  0  0  0
  -24.9473  -28.7900   20.1160 C   0  0  0  0  0  0
  -22.7698  -29.4382   22.4753 C   0  0  0  0  0  0
  -18.0320  -28.1412   22.8465 C   0  0  0  0  0  0
  -24.1492  -36.7187   23.2651 C   0  0  0  0  0  0
  -26.0620  -30.5965   21.4056 C   0  0  0  0  0  0
  -26.1322  -29.1780   20.7526 C   0  0  0  0  0  0
  -27.2658  -28.2340   20.7635 C   0  0  0  0  0  0
  -26.0154  -26.6351   19.5094 C   0  0  0  0  0  0
  -24.9182  -27.5404   19.4738 C   0  0  0  0  0  0
  -23.7364  -29.7276   20.1440 C   0  0  0  0  0  0
  -25.4131  -36.2935   24.0301 C   0  0  1  0  0  0
  -20.5948  -28.3750   23.1174 C   0  0  2  0  0  0
  -20.6793  -26.9423   22.5403 C   0  0  0  0  0  0
  -19.5769  -26.6375   21.5213 C   0  0  0  0  0  0
  -18.1955  -26.7944   22.1627 C   0  0  0  0  0  0
  -19.1585  -28.8903   23.2805 C   0  0  0  0  0  0
  -18.9497  -30.1491   23.8839 C   0  0  0  0  0  0
  -17.6489  -30.6595   24.0555 C   0  0  0  0  0  0
  -25.9103  -34.9323   23.4996 C   0  0  0  0  0  0
  -16.5377  -29.9085   23.6345 C   0  0  0  0  0  0
  -16.7300  -28.6511   23.0359 C   0  0  0  0  0  0
  -26.4564  -31.6521   25.0697 C   0  0  0  0  0  0
  -25.3679  -31.3785   26.1342 C   0  0  0  0  0  0
  -27.0494  -30.2889   24.6490 C   0  0  0  0  0  0
  -27.6034  -32.4353   25.7502 C   0  0  0  0  0  0
  -27.5566  -37.1729   24.8457 C   0  0  0  0  0  0
  -21.4356  -29.3027   22.3513 N   0  0  0  0  0  0
  -26.4262  -37.3684   23.9421 N   0  0  0  0  0  0
  -24.7623  -30.9730   22.0810 N   0  0  0  0  0  0
  -23.4211  -28.7967   23.3036 O   0  0  0  0  0  0
  -28.2362  -25.7253   20.2656 O   0  0  0  0  0  0
  -26.5731  -34.8867   22.4603 O   0  0  0  0  0  0
  -23.5737  -32.1165   23.6649 O   0  0  0  0  0  0
  -29.8368  -19.4807   20.7343 C   0  0  0  0  0  0
  -29.0020  -20.7109   20.2552 C   0  0  0  0  0  0
  -29.3625  -18.1580   20.2969 C   0  0  0  0  0  0
  -28.8104  -23.3830   19.1051 C   0  0  0  0  0  0
  -29.0289  -22.5213   20.3427 C   0  0  1  0  0  0
  -28.0266  -24.0459   20.2270 C   0  0  1  0  0  0
  -31.0367  -19.6584   21.6228 C   0  0  0  0  0  0
  -27.2158  -17.8600   18.9575 C   0  0  0  0  0  0
  -28.0578  -20.0474   19.5655 N   0  0  0  0  0  0
  -28.2418  -18.6519   19.6021 N   0  0  0  0  0  0
  -29.5479  -16.6591   20.5895 N   0  0  0  0  0  0
  -31.4452  -13.1578   19.1918 H   0  0  0  0  0  0
  -30.5636  -12.0267   20.1680 H   0  0  0  0  0  0
  -29.9531  -11.7743   17.7408 H   0  0  0  0  0  0
  -29.5417  -13.4701   17.6477 H   0  0  0  0  0  0
  -28.0853  -11.2781   19.1425 H   0  0  0  0  0  0
  -27.4300  -12.2939   17.8855 H   0  0  0  0  0  0
  -27.5124  -14.2371   19.3102 H   0  0  0  0  0  0
  -28.8319  -12.5831   21.5118 H   0  0  0  0  0  0
  -28.2361  -14.2146   21.6955 H   0  0  0  0  0  0
  -25.2764   -9.5661   22.4785 H   0  0  0  0  0  0
  -23.9979   -7.4623   22.7489 H   0  0  0  0  0  0
  -21.0845   -8.8783   19.8972 H   0  0  0  0  0  0
  -22.3715  -10.9669   19.6197 H   0  0  0  0  0  0
  -21.1995   -7.6143   23.9688 H   0  0  0  0  0  0
  -21.1480   -6.0550   25.9066 H   0  0  0  0  0  0
  -22.0600   -2.7601   23.2885 H   0  0  0  0  0  0
  -22.4030  -11.9815   22.4883 H   0  0  0  0  0  0
  -21.1028  -13.1169   22.2704 H   0  0  0  0  0  0
  -24.5901  -15.8147   20.4339 H   0  0  0  0  0  0
  -26.1851  -15.5867   19.9227 H   0  0  0  0  0  0
  -26.7404  -32.5067   23.0850 H   0  0  0  0  0  0
  -25.0031  -33.9450   25.0133 H   0  0  0  0  0  0
  -22.8063  -31.2531   21.3335 H   0  0  0  0  0  0
  -23.3772  -35.9496   23.3248 H   0  0  0  0  0  0
  -24.3577  -36.8900   22.2078 H   0  0  0  0  0  0
  -23.7219  -37.6346   23.6749 H   0  0  0  0  0  0
  -26.2475  -31.3325   20.6231 H   0  0  0  0  0  0
  -26.9191  -30.6606   22.0635 H   0  0  0  0  0  0
  -28.1624  -28.5326   21.2884 H   0  0  0  0  0  0
  -25.8845  -25.6843   19.0135 H   0  0  0  0  0  0
  -24.0197  -27.2360   18.9557 H   0  0  0  0  0  0
  -23.9000  -30.4941   19.3849 H   0  0  0  0  0  0
  -22.8457  -29.1844   19.8227 H   0  0  0  0  0  0
  -25.1316  -36.1724   25.0788 H   0  0  0  0  0  0
  -21.0031  -28.3359   24.1298 H   0  0  0  0  0  0
  -20.5666  -26.2362   23.3647 H   0  0  0  0  0  0
  -21.6656  -26.7393   22.1206 H   0  0  0  0  0  0
  -19.6930  -25.6274   21.1273 H   0  0  0  0  0  0
  -19.6720  -27.3156   20.6722 H   0  0  0  0  0  0
  -17.4218  -26.6663   21.4040 H   0  0  0  0  0  0
  -18.0365  -26.0105   22.9045 H   0  0  0  0  0  0
  -19.7970  -30.7326   24.2184 H   0  0  0  0  0  0
  -17.5038  -31.6271   24.5162 H   0  0  0  0  0  0
  -15.5374  -30.2969   23.7704 H   0  0  0  0  0  0
  -15.8699  -28.0812   22.7104 H   0  0  0  0  0  0
  -24.5877  -30.7121   25.7639 H   0  0  0  0  0  0
  -24.8863  -32.2997   26.4636 H   0  0  0  0  0  0
  -25.7912  -30.9038   27.0206 H   0  0  0  0  0  0
  -26.3201  -29.6528   24.1472 H   0  0  0  0  0  0
  -27.3973  -29.7284   25.5176 H   0  0  0  0  0  0
  -27.9146  -30.4053   23.9963 H   0  0  0  0  0  0
  -27.2587  -33.3695   26.1941 H   0  0  0  0  0  0
  -28.3919  -32.6855   25.0393 H   0  0  0  0  0  0
  -28.0627  -31.8589   26.5541 H   0  0  0  0  0  0
  -28.2514  -38.0091   24.7558 H   0  0  0  0  0  0
  -28.1135  -36.2617   24.6211 H   0  0  0  0  0  0
  -27.2297  -37.1264   25.8860 H   0  0  0  0  0  0
  -20.9614  -29.8722   21.6641 H   0  0  0  0  0  0
  -26.0106  -38.2727   24.1489 H   0  0  0  0  0  0
  -28.2069  -22.9540   18.3085 H   0  0  0  0  0  0
  -29.6870  -23.9093   18.7340 H   0  0  0  0  0  0
  -29.9410  -22.7379   20.8950 H   0  0  0  0  0  0
  -26.9562  -23.8584   20.2733 H   0  0  0  0  0  0
  -31.4924  -20.6400   21.4970 H   0  0  0  0  0  0
  -31.8130  -18.9242   21.4113 H   0  0  0  0  0  0
  -30.7770  -19.5560   22.6767 H   0  0  0  0  0  0
  -27.6448  -16.9454   18.5472 H   0  0  0  0  0  0
  -26.7521  -18.4223   18.1456 H   0  0  0  0  0  0
  -26.4530  -17.6031   19.6901 H   0  0  0  0  0  0
  -28.6504  -16.3101   20.8859 H   0  0  0  0  0  0
  1 25  1  0  0  0
  1 30  2  0  0  0
  1 81  1  0  0  0
  2  3  1  0  0  0
  2 25  1  0  0  0
  2 82  1  0  0  0
  2 83  1  0  0  0
  3  4  1  0  0  0
  3 84  1  0  0  0
  3 85  1  0  0  0
  4  5  1  0  0  0
  4 86  1  0  0  0
  4 87  1  0  0  0
  5  6  1  0  0  0
  5 26  1  0  0  0
  5 88  1  0  0  0
  6 25  1  0  0  0
  6 89  1  0  0  0
  6 90  1  0  0  0
  7  8  2  0  0  0
  7 26  1  0  0  0
  7 29  1  0  0  0
  8  9  1  0  0  0
  8 22  1  0  0  0
  9 10  1  0  0  0
  9 27  2  0  0  0
 10 11  2  0  0  0
 10 15  1  0  0  0
 11 12  1  0  0  0
 11 91  1  0  0  0
 12 13  2  0  0  0
 12 92  1  0  0  0
 13 14  1  0  0  0
 13 31  1  0  0  0
 14 15  2  0  0  0
 14 93  1  0  0  0
 15 94  1  0  0  0
 16 17  2  0  0  0
 16 21  1  0  0  0
 16 31  1  0  0  0
 17 18  1  0  0  0
 17 95  1  0  0  0
 18 19  2  0  0  0
 18 96  1  0  0  0
 19 20  1  0  0  0
 19 24  1  0  0  0
 20 21  2  0  0  0
 20 97  1  0  0  0
 21 23  1  0  0  0
 22 28  1  0  0  0
 22 32  2  0  0  0
 26 27  1  0  0  0
 28 98  1  0  0  0
 28 99  1  0  0  0
 29100  1  0  0  0
 29101  1  0  0  0
 33 34  1  0  0  0
 33 66  1  0  0  0
 33 70  2  0  0  0
 34 36  1  0  0  0
 34 59  1  0  0  0
 34102  1  0  0  0
 35 44  2  0  0  0
 35 45  1  0  0  0
 35 68  1  0  0  0
 36 56  1  0  0  0
 36103  1  0  0  0
 37 39  1  0  0  0
 37 47  1  0  0  0
 37 66  1  0  0  0
 37104  1  0  0  0
 38 43  2  0  0  0
 38 46  1  0  0  0
 38 47  1  0  0  0
 39 64  1  0  0  0
 39 67  2  0  0  0
 40 52  1  0  0  0
 40 53  2  0  0  0
 40 58  1  0  0  0
 41105  1  0  0  0
 41106  1  0  0  0
 41107  1  0  0  0
 41 48  1  0  0  0
 42 43  1  0  0  0
 42 66  1  0  0  0
 42108  1  0  0  0
 42109  1  0  0  0
 43 44  1  0  0  0
 44110  1  0  0  0
 45 46  2  0  0  0
 45111  1  0  0  0
 46112  1  0  0  0
 47113  1  0  0  0
 47114  1  0  0  0
 48 56  1  0  0  0
 48 65  1  0  0  0
 48115  1  0  0  0
 49 50  1  0  0  0
 49 53  1  0  0  0
 49 64  1  0  0  0
 49116  1  0  0  0
 50 51  1  0  0  0
 50117  1  0  0  0
 50118  1  0  0  0
 51 52  1  0  0  0
 51119  1  0  0  0
 51120  1  0  0  0
 52121  1  0  0  0
 52122  1  0  0  0
 53 54  1  0  0  0
 54 55  2  0  0  0
 54123  1  0  0  0
 55 57  1  0  0  0
 55124  1  0  0  0
 56 69  2  0  0  0
 57 58  2  0  0  0
 57125  1  0  0  0
 58126  1  0  0  0
 59 60  1  0  0  0
 59 61  1  0  0  0
 59 62  1  0  0  0
 60127  1  0  0  0
 60128  1  0  0  0
 60129  1  0  0  0
 61130  1  0  0  0
 61131  1  0  0  0
 61132  1  0  0  0
 62133  1  0  0  0
 62134  1  0  0  0
 62135  1  0  0  0
 63 65  1  0  0  0
 63136  1  0  0  0
 63137  1  0  0  0
 63138  1  0  0  0
 64139  1  0  0  0
 65140  1  0  0  0
 68 76  1  0  0  0
 71 72  1  0  0  0
 71 73  2  0  0  0
 71 77  1  0  0  0
 72 79  2  0  0  0
 72 75  1  0  0  0
 73 80  1  0  0  0
 73 81  1  0  0  0
 74 75  1  0  0  0
 74 76  1  0  0  0
 74141  1  0  0  0
 74142  1  0  0  0
 75 76  1  0  0  0
 75143  1  0  0  0
 76144  1  0  0  0
 77145  1  0  0  0
 77146  1  0  0  0
 77147  1  0  0  0
 78 80  1  0  0  0
 78148  1  0  0  0
 78149  1  0  0  0
 78150  1  0  0  0
 79 80  1  0  0  0
 81151  1  0  0  0
M  ISO  4   1 100  68 101  76 101  81 100
M  END
> <chiral flag>
0

> <version>
0

> <s_m_source_file>
/data/baiqing/PycharmProjects/Reinvent-master-3.2/result/LINK_invent/BTK/process_docking_weight1_custom_sum_contain_oxygen_bond_distance_aromatic_linkinvent_7_9_3/rearranged_h_0176.sdf

> <i_m_source_file_index>
76

> <r_mmod_Potential_Energy-OPLS-2005>
1514.87268066406

> <r_mmod_Stretch_Energy-OPLS-2005>
690.936401367188

> <r_mmod_Bend_Energy-OPLS-2005>
508.769195556641

> <r_mmod_Torsional_Energy-OPLS-2005>
264.242462158203

> <r_mmod_Improper_Torsional_Energy-OPLS-2005>
7.63024950027466

> <r_mmod_Van_der_Waal_Energy-OPLS-2005>
98.4232559204102

> <r_mmod_Electrostatic_Energy-OPLS-2005>
-427.244598388672

> <r_mmod_Solvation_Energy-OPLS-2005>
-228.443466186523

> <b_mmod_Minimization_Converged-OPLS-2005>
0

> <r_mmod_RMS_Derivative-OPLS-2005>
2.85671782493591

$$$$
76
                    3D
 Structure written by MMmdl.
163172  0  0  1  0            999 V2000
  -30.7260  -14.4798   20.6135 C   0  0  0  0  0  0
  -30.4253  -12.3278   19.4305 C   0  0  0  0  0  0
  -29.5030  -12.5181   18.2099 C   0  0  0  0  0  0
  -28.0247  -12.3686   18.6193 C   0  0  0  0  0  0
  -27.6640  -13.2121   19.8725 C   0  0  2  0  0  0
  -28.7020  -13.0103   20.9997 C   0  0  0  0  0  0
  -25.2619  -13.8176   20.5682 C   0  0  0  0  0  0
  -24.1866  -13.0455   20.9171 C   0  0  0  0  0  0
  -24.6405  -11.6924   20.8721 C   0  0  0  0  0  0
  -23.9047  -10.4308   21.0397 C   0  0  0  0  0  0
  -24.3599   -9.4223   21.9180 C   0  0  0  0  0  0
  -23.6292   -8.2251   22.0746 C   0  0  0  0  0  0
  -22.4276   -8.0277   21.3535 C   0  0  0  0  0  0
  -21.9894   -9.0250   20.4633 C   0  0  0  0  0  0
  -22.7220  -10.2138   20.3043 C   0  0  0  0  0  0
  -21.6850   -6.0721   22.5274 C   0  0  0  0  0  0
  -21.4003   -6.5624   23.8210 C   0  0  0  0  0  0
  -21.3665   -5.6780   24.9175 C   0  0  0  0  0  0
  -21.6052   -4.3037   24.7223 C   0  0  0  0  0  0
  -21.8826   -3.8123   23.4343 C   0  0  0  0  0  0
  -21.9194   -4.6949   22.3404 C   0  0  0  0  0  0
  -22.7891  -13.5265   21.1828 C   0  0  0  0  0  0
  -22.1677   -4.2137   21.0984 F   0  0  0  0  0  0
  -21.5637   -3.4523   25.7730 F   0  0  0  0  0  0
  -30.0361  -13.3144   20.4549 N   0  0  0  0  0  0
  -26.3038  -12.9343   20.3324 N   0  0  0  0  0  0
  -25.9325  -11.6494   20.5720 N   0  0  0  0  0  0
  -22.0487  -12.8292   22.0364 N   0  0  0  0  0  0
  -25.4385  -15.1898   20.4145 N   0  0  0  0  0  0
  -31.8254  -14.6701   20.0842 O   0  0  0  0  0  0
  -21.6647   -6.8868   21.4232 O   0  0  0  0  0  0
  -22.3599  -14.5564   20.6653 O   0  0  0  0  0  0
  -24.6171  -31.8674   23.2065 C   0  0  0  0  0  0
  -25.9060  -32.4820   23.8364 C   0  0  1  0  0  0
  -27.2370  -27.4115   20.1064 C   0  0  0  0  0  0
  -25.5914  -33.8617   24.2300 N   0  0  0  0  0  0
  -23.4065  -30.4882   21.5495 C   0  0  2  0  0  0
  -24.8545  -28.9574   20.1102 C   0  0  0  0  0  0
  -22.7431  -29.4655   22.5001 C   0  0  0  0  0  0
  -18.0273  -28.1393   22.8484 C   0  0  0  0  0  0
  -24.1494  -36.7310   23.2633 C   0  0  0  0  0  0
  -25.9384  -30.8258   21.3644 C   0  0  0  0  0  0
  -26.0166  -29.4607   20.7089 C   0  0  0  0  0  0
  -27.2111  -28.6982   20.7006 C   0  0  0  0  0  0
  -26.0572  -26.9409   19.4810 C   0  0  0  0  0  0
  -24.8734  -27.6999   19.4866 C   0  0  0  0  0  0
  -23.6127  -29.8174   20.1653 C   0  0  0  0  0  0
  -25.4123  -36.3106   24.0325 C   0  0  1  0  0  0
  -20.5864  -28.3678   23.1320 C   0  0  2  0  0  0
  -20.6788  -26.9416   22.5418 C   0  0  0  0  0  0
  -19.5764  -26.6389   21.5226 C   0  0  0  0  0  0
  -18.1930  -26.7939   22.1612 C   0  0  0  0  0  0
  -19.1520  -28.8856   23.2884 C   0  0  0  0  0  0
  -18.9444  -30.1471   23.8875 C   0  0  0  0  0  0
  -17.6448  -30.6600   24.0555 C   0  0  0  0  0  0
  -25.9050  -34.9481   23.5108 C   0  0  0  0  0  0
  -16.5337  -29.9088   23.6342 C   0  0  0  0  0  0
  -16.7259  -28.6509   23.0350 C   0  0  0  0  0  0
  -26.4471  -31.6610   25.0707 C   0  0  0  0  0  0
  -25.3710  -31.3748   26.1436 C   0  0  0  0  0  0
  -27.0300  -30.3039   24.6118 C   0  0  0  0  0  0
  -27.6049  -32.4324   25.7475 C   0  0  0  0  0  0
  -27.5591  -37.1802   24.8455 C   0  0  0  0  0  0
  -21.4161  -29.3033   22.3729 N   0  0  0  0  0  0
  -26.4302  -37.3800   23.9401 N   0  0  0  0  0  0
  -24.6720  -31.0752   22.0978 N   0  0  0  0  0  0
  -23.4199  -28.8207   23.3052 O   0  0  0  0  0  0
  -28.3870  -26.6348   20.1629 O   0  0  0  0  0  0
  -26.5607  -34.8933   22.4665 O   0  0  0  0  0  0
  -23.5359  -32.1435   23.7451 O   0  0  0  0  0  0
  -29.1805  -20.5929   21.5118 C   0  0  0  0  0  0
  -29.8753  -19.4200   21.0979 C   0  0  0  0  0  0
  -29.5528  -21.8136   20.8999 C   0  0  0  0  0  0
  -31.1078  -20.7089   19.6513 C   0  0  0  0  0  0
  -29.6347  -17.7241   23.1372 C   0  0  0  0  0  0
  -31.0108  -17.0787   22.9687 C   0  0  0  0  0  0
  -29.5869  -17.9821   21.6142 C   0  0  2  0  0  0
  -30.6569  -16.8355   21.4959 C   0  0  2  0  0  0
  -28.0765  -20.5578   22.5636 C   0  0  0  0  0  0
  -32.2008  -20.7718   18.6084 C   0  0  0  0  0  0
  -29.3474  -24.3663   20.7853 C   0  0  0  0  0  0
  -28.1842  -25.2019   20.1833 C   0  0  0  0  0  0
  -30.8254  -19.5117   20.1491 N   0  0  0  0  0  0
  -30.5203  -21.8549   19.9763 N   0  0  0  0  0  0
  -28.9074  -23.0233   21.2161 N   0  0  0  0  0  0
  -30.1146  -15.4632   21.3058 N   0  0  0  0  0  0
  -31.4706  -12.4223   19.1299 H   0  0  0  0  0  0
  -30.3268  -11.3170   19.8296 H   0  0  0  0  0  0
  -29.7545  -11.7922   17.4344 H   0  0  0  0  0  0
  -29.6681  -13.5028   17.7705 H   0  0  0  0  0  0
  -27.8423  -11.3117   18.8181 H   0  0  0  0  0  0
  -27.3743  -12.6357   17.7854 H   0  0  0  0  0  0
  -27.7037  -14.2590   19.5703 H   0  0  0  0  0  0
  -28.6827  -11.9780   21.3531 H   0  0  0  0  0  0
  -28.4519  -13.6199   21.8678 H   0  0  0  0  0  0
  -25.2743   -9.5717   22.4742 H   0  0  0  0  0  0
  -24.0011   -7.4634   22.7461 H   0  0  0  0  0  0
  -21.0821   -8.8749   19.8943 H   0  0  0  0  0  0
  -22.3670  -10.9657   19.6142 H   0  0  0  0  0  0
  -21.1983   -7.6129   23.9711 H   0  0  0  0  0  0
  -21.1493   -6.0503   25.9083 H   0  0  0  0  0  0
  -22.0601   -2.7580   23.2841 H   0  0  0  0  0  0
  -22.4069  -11.9973   22.4819 H   0  0  0  0  0  0
  -21.1087  -13.1332   22.2468 H   0  0  0  0  0  0
  -24.6749  -15.8494   20.5188 H   0  0  0  0  0  0
  -26.2948  -15.6194   20.0866 H   0  0  0  0  0  0
  -26.7136  -32.5522   23.1133 H   0  0  0  0  0  0
  -25.0089  -33.9780   25.0457 H   0  0  0  0  0  0
  -22.6954  -31.3049   21.4092 H   0  0  0  0  0  0
  -23.3764  -35.9633   23.3299 H   0  0  0  0  0  0
  -24.3579  -36.8923   22.2046 H   0  0  0  0  0  0
  -23.7236  -37.6509   23.6646 H   0  0  0  0  0  0
  -26.0562  -31.5917   20.5969 H   0  0  0  0  0  0
  -26.8242  -30.8763   21.9859 H   0  0  0  0  0  0
  -28.1035  -29.0799   21.1769 H   0  0  0  0  0  0
  -26.0291  -25.9809   18.9866 H   0  0  0  0  0  0
  -23.9858  -27.3119   19.0068 H   0  0  0  0  0  0
  -23.7052  -30.5866   19.3980 H   0  0  0  0  0  0
  -22.7407  -29.2243   19.8819 H   0  0  0  0  0  0
  -25.1303  -36.1972   25.0817 H   0  0  0  0  0  0
  -20.9937  -28.3246   24.1449 H   0  0  0  0  0  0
  -20.5753  -26.2271   23.3600 H   0  0  0  0  0  0
  -21.6652  -26.7510   22.1168 H   0  0  0  0  0  0
  -19.6938  -25.6303   21.1250 H   0  0  0  0  0  0
  -19.6726  -27.3201   20.6761 H   0  0  0  0  0  0
  -17.4227  -26.6700   21.3986 H   0  0  0  0  0  0
  -18.0301  -26.0076   22.8993 H   0  0  0  0  0  0
  -19.7930  -30.7290   24.2215 H   0  0  0  0  0  0
  -17.5010  -31.6284   24.5156 H   0  0  0  0  0  0
  -15.5336  -30.2978   23.7705 H   0  0  0  0  0  0
  -15.8655  -28.0832   22.7066 H   0  0  0  0  0  0
  -24.5873  -30.7122   25.7743 H   0  0  0  0  0  0
  -24.8918  -32.2928   26.4852 H   0  0  0  0  0  0
  -25.8020  -30.8908   27.0209 H   0  0  0  0  0  0
  -26.2857  -29.6804   24.1154 H   0  0  0  0  0  0
  -27.4029  -29.7277   25.4596 H   0  0  0  0  0  0
  -27.8709  -30.4330   23.9299 H   0  0  0  0  0  0
  -27.2672  -33.3617   26.2074 H   0  0  0  0  0  0
  -28.3854  -32.6897   25.0301 H   0  0  0  0  0  0
  -28.0728  -31.8433   26.5374 H   0  0  0  0  0  0
  -28.2602  -38.0109   24.7533 H   0  0  0  0  0  0
  -28.1094  -36.2643   24.6251 H   0  0  0  0  0  0
  -27.2298  -37.1404   25.8852 H   0  0  0  0  0  0
  -20.9356  -29.8692   21.6879 H   0  0  0  0  0  0
  -26.0197  -38.2874   24.1405 H   0  0  0  0  0  0
  -29.6288  -18.6119   23.7700 H   0  0  0  0  0  0
  -28.8828  -17.0045   23.4662 H   0  0  0  0  0  0
  -31.1810  -16.1849   23.5698 H   0  0  0  0  0  0
  -31.8216  -17.7993   23.0965 H   0  0  0  0  0  0
  -28.6311  -17.6648   21.1959 H   0  0  0  0  0  0
  -31.4759  -17.0859   20.8200 H   0  0  0  0  0  0
  -27.6699  -19.5575   22.7088 H   0  0  0  0  0  0
  -27.2386  -21.1971   22.2829 H   0  0  0  0  0  0
  -28.4647  -20.9125   23.5201 H   0  0  0  0  0  0
  -32.8107  -19.8682   18.6197 H   0  0  0  0  0  0
  -32.8582  -21.6207   18.7910 H   0  0  0  0  0  0
  -31.7676  -20.8823   17.6153 H   0  0  0  0  0  0
  -29.7260  -24.8749   21.6726 H   0  0  0  0  0  0
  -30.1813  -24.3261   20.0840 H   0  0  0  0  0  0
  -27.2933  -24.9872   20.7773 H   0  0  0  0  0  0
  -27.9872  -24.8552   19.1681 H   0  0  0  0  0  0
  -28.1907  -22.9813   21.9303 H   0  0  0  0  0  0
  -29.2198  -15.2461   21.7171 H   0  0  0  0  0  0
  1 25  1  0  0  0
  1 30  2  0  0  0
  1 86  1  0  0  0
  2  3  1  0  0  0
  2 25  1  0  0  0
  2 87  1  0  0  0
  2 88  1  0  0  0
  3  4  1  0  0  0
  3 89  1  0  0  0
  3 90  1  0  0  0
  4  5  1  0  0  0
  4 91  1  0  0  0
  4 92  1  0  0  0
  5  6  1  0  0  0
  5 26  1  0  0  0
  5 93  1  0  0  0
  6 25  1  0  0  0
  6 94  1  0  0  0
  6 95  1  0  0  0
  7  8  2  0  0  0
  7 26  1  0  0  0
  7 29  1  0  0  0
  8  9  1  0  0  0
  8 22  1  0  0  0
  9 10  1  0  0  0
  9 27  2  0  0  0
 10 11  2  0  0  0
 10 15  1  0  0  0
 11 12  1  0  0  0
 11 96  1  0  0  0
 12 13  2  0  0  0
 12 97  1  0  0  0
 13 14  1  0  0  0
 13 31  1  0  0  0
 14 15  2  0  0  0
 14 98  1  0  0  0
 15 99  1  0  0  0
 16 17  2  0  0  0
 16 21  1  0  0  0
 16 31  1  0  0  0
 17 18  1  0  0  0
 17100  1  0  0  0
 18 19  2  0  0  0
 18101  1  0  0  0
 19 20  1  0  0  0
 19 24  1  0  0  0
 20 21  2  0  0  0
 20102  1  0  0  0
 21 23  1  0  0  0
 22 28  1  0  0  0
 22 32  2  0  0  0
 26 27  1  0  0  0
 28103  1  0  0  0
 28104  1  0  0  0
 29105  1  0  0  0
 29106  1  0  0  0
 33 34  1  0  0  0
 33 66  1  0  0  0
 33 70  2  0  0  0
 34 36  1  0  0  0
 34 59  1  0  0  0
 34107  1  0  0  0
 35 44  2  0  0  0
 35 45  1  0  0  0
 35 68  1  0  0  0
 36 56  1  0  0  0
 36108  1  0  0  0
 37 39  1  0  0  0
 37 47  1  0  0  0
 37 66  1  0  0  0
 37109  1  0  0  0
 38 43  2  0  0  0
 38 46  1  0  0  0
 38 47  1  0  0  0
 39 64  1  0  0  0
 39 67  2  0  0  0
 40 52  1  0  0  0
 40 53  2  0  0  0
 40 58  1  0  0  0
 41110  1  0  0  0
 41111  1  0  0  0
 41112  1  0  0  0
 41 48  1  0  0  0
 42 43  1  0  0  0
 42 66  1  0  0  0
 42113  1  0  0  0
 42114  1  0  0  0
 43 44  1  0  0  0
 44115  1  0  0  0
 45 46  2  0  0  0
 45116  1  0  0  0
 46117  1  0  0  0
 47118  1  0  0  0
 47119  1  0  0  0
 48 56  1  0  0  0
 48 65  1  0  0  0
 48120  1  0  0  0
 49 50  1  0  0  0
 49 53  1  0  0  0
 49 64  1  0  0  0
 49121  1  0  0  0
 50 51  1  0  0  0
 50122  1  0  0  0
 50123  1  0  0  0
 51 52  1  0  0  0
 51124  1  0  0  0
 51125  1  0  0  0
 52126  1  0  0  0
 52127  1  0  0  0
 53 54  1  0  0  0
 54 55  2  0  0  0
 54128  1  0  0  0
 55 57  1  0  0  0
 55129  1  0  0  0
 56 69  2  0  0  0
 57 58  2  0  0  0
 57130  1  0  0  0
 58131  1  0  0  0
 59 60  1  0  0  0
 59 61  1  0  0  0
 59 62  1  0  0  0
 60132  1  0  0  0
 60133  1  0  0  0
 60134  1  0  0  0
 61135  1  0  0  0
 61136  1  0  0  0
 61137  1  0  0  0
 62138  1  0  0  0
 62139  1  0  0  0
 62140  1  0  0  0
 63 65  1  0  0  0
 63141  1  0  0  0
 63142  1  0  0  0
 63143  1  0  0  0
 64144  1  0  0  0
 65145  1  0  0  0
 68 82  1  0  0  0
 71 72  2  0  0  0
 71 73  1  0  0  0
 71 79  1  0  0  0
 72 83  1  0  0  0
 72 77  1  0  0  0
 73 84  2  0  0  0
 73 85  1  0  0  0
 74 80  1  0  0  0
 74 83  2  0  0  0
 74 84  1  0  0  0
 75 76  1  0  0  0
 75 77  1  0  0  0
 75146  1  0  0  0
 75147  1  0  0  0
 76 78  1  0  0  0
 76148  1  0  0  0
 76149  1  0  0  0
 77 78  1  0  0  0
 77150  1  0  0  0
 78 86  1  0  0  0
 78151  1  0  0  0
 79152  1  0  0  0
 79153  1  0  0  0
 79154  1  0  0  0
 80155  1  0  0  0
 80156  1  0  0  0
 80157  1  0  0  0
 81 82  1  0  0  0
 81 85  1  0  0  0
 81158  1  0  0  0
 81159  1  0  0  0
 82160  1  0  0  0
 82161  1  0  0  0
 85162  1  0  0  0
 86163  1  0  0  0
M  ISO  4   1 100  68 101  82 101  86 100
M  END
> <chiral flag>
0

> <version>
0

> <s_m_source_file>
/data/baiqing/PycharmProjects/Reinvent-master-3.2/result/LINK_invent/BTK/process_docking_weight1_custom_sum_contain_oxygen_bond_distance_aromatic_linkinvent_7_9_3/rearranged_h_0176.sdf

> <i_m_source_file_index>
77

> <r_mmod_Potential_Energy-OPLS-2005>
-498.613708496094

> <r_mmod_Stretch_Energy-OPLS-2005>
46.001895904541

> <r_mmod_Bend_Energy-OPLS-2005>
126.536506652832

> <r_mmod_Torsional_Energy-OPLS-2005>
235.852935791016

> <r_mmod_Improper_Torsional_Energy-OPLS-2005>
2.7113630771637

> <r_mmod_Van_der_Waal_Energy-OPLS-2005>
170.414810180664

> <r_mmod_Electrostatic_Energy-OPLS-2005>
-854.004150390625

> <r_mmod_Solvation_Energy-OPLS-2005>
-242.156036376953

> <b_mmod_Minimization_Converged-OPLS-2005>
0

> <r_mmod_RMS_Derivative-OPLS-2005>
2.25124192237854

$$$$
77
                    3D
 Structure written by MMmdl.
157166  0  0  1  0            999 V2000
  -30.5426  -14.9637   20.4097 C   0  0  0  0  0  0
  -30.4383  -12.5985   19.5035 C   0  0  0  0  0  0
  -29.5254  -12.5373   18.2576 C   0  0  0  0  0  0
  -28.0574  -12.3225   18.6697 C   0  0  0  0  0  0
  -27.6278  -13.2536   19.8355 C   0  0  2  0  0  0
  -28.6678  -13.2914   20.9755 C   0  0  0  0  0  0
  -25.2454  -13.8218   20.5728 C   0  0  0  0  0  0
  -24.1770  -13.0433   20.9265 C   0  0  0  0  0  0
  -24.6400  -11.6923   20.8756 C   0  0  0  0  0  0
  -23.9079  -10.4288   21.0410 C   0  0  0  0  0  0
  -24.3630   -9.4192   21.9181 C   0  0  0  0  0  0
  -23.6301   -8.2226   22.0766 C   0  0  0  0  0  0
  -22.4285   -8.0268   21.3557 C   0  0  0  0  0  0
  -21.9920   -9.0242   20.4655 C   0  0  0  0  0  0
  -22.7247  -10.2123   20.3062 C   0  0  0  0  0  0
  -21.6846   -6.0726   22.5289 C   0  0  0  0  0  0
  -21.3992   -6.5637   23.8215 C   0  0  0  0  0  0
  -21.3664   -5.6801   24.9188 C   0  0  0  0  0  0
  -21.6051   -4.3063   24.7241 C   0  0  0  0  0  0
  -21.8815   -3.8143   23.4367 C   0  0  0  0  0  0
  -21.9186   -4.6954   22.3415 C   0  0  0  0  0  0
  -22.7778  -13.5199   21.1890 C   0  0  0  0  0  0
  -22.1655   -4.2134   21.0995 F   0  0  0  0  0  0
  -21.5638   -3.4554   25.7753 F   0  0  0  0  0  0
  -29.9443  -13.7032   20.3776 N   0  0  0  0  0  0
  -26.2872  -12.9459   20.3213 N   0  0  0  0  0  0
  -25.9328  -11.6579   20.5696 N   0  0  0  0  0  0
  -22.0402  -12.8185   22.0431 N   0  0  0  0  0  0
  -25.4088  -15.1948   20.4140 N   0  0  0  0  0  0
  -31.7468  -15.0142   20.1330 O   0  0  0  0  0  0
  -21.6646   -6.8872   21.4253 O   0  0  0  0  0  0
  -22.3456  -14.5491   20.6715 O   0  0  0  0  0  0
  -24.6462  -31.8422   23.1862 C   0  0  0  0  0  0
  -25.9234  -32.4681   23.8262 C   0  0  1  0  0  0
  -27.2195  -27.1157   20.1406 C   0  0  0  0  0  0
  -25.5977  -33.8489   24.2179 N   0  0  0  0  0  0
  -23.4509  -30.4608   21.5330 C   0  0  2  0  0  0
  -24.8997  -28.8829   20.1110 C   0  0  0  0  0  0
  -22.7581  -29.4540   22.4858 C   0  0  0  0  0  0
  -18.0306  -28.1397   22.8474 C   0  0  0  0  0  0
  -24.1491  -36.7251   23.2645 C   0  0  0  0  0  0
  -26.0089  -30.7072   21.3889 C   0  0  0  0  0  0
  -26.0788  -29.3162   20.7299 C   0  0  0  0  0  0
  -27.2380  -28.4480   20.7295 C   0  0  0  0  0  0
  -26.0118  -26.7913   19.4833 C   0  0  0  0  0  0
  -24.8790  -27.6336   19.4748 C   0  0  0  0  0  0
  -23.6779  -29.7892   20.1529 C   0  0  0  0  0  0
  -25.4123  -36.3025   24.0310 C   0  0  1  0  0  0
  -20.5918  -28.3730   23.1220 C   0  0  2  0  0  0
  -20.6796  -26.9439   22.5393 C   0  0  0  0  0  0
  -19.5771  -26.6385   21.5206 C   0  0  0  0  0  0
  -18.1947  -26.7938   22.1611 C   0  0  0  0  0  0
  -19.1561  -28.8883   23.2838 C   0  0  0  0  0  0
  -18.9488  -30.1484   23.8865 C   0  0  0  0  0  0
  -17.6484  -30.6601   24.0557 C   0  0  0  0  0  0
  -25.9078  -34.9400   23.5049 C   0  0  0  0  0  0
  -16.5374  -29.9093   23.6342 C   0  0  0  0  0  0
  -16.7291  -28.6508   23.0365 C   0  0  0  0  0  0
  -26.4551  -31.6560   25.0718 C   0  0  0  0  0  0
  -25.3729  -31.3747   26.1409 C   0  0  0  0  0  0
  -27.0443  -30.2960   24.6316 C   0  0  0  0  0  0
  -27.6062  -32.4333   25.7515 C   0  0  0  0  0  0
  -27.5568  -37.1782   24.8468 C   0  0  0  0  0  0
  -21.4267  -29.3051   22.3591 N   0  0  0  0  0  0
  -26.4279  -37.3743   23.9411 N   0  0  0  0  0  0
  -24.7221  -31.0246   22.0912 N   0  0  0  0  0  0
  -23.4206  -28.8093   23.3031 O   0  0  0  0  0  0
  -28.2655  -26.1139   20.2046 O   0  0  0  0  0  0
  -26.5657  -34.8902   22.4624 O   0  0  0  0  0  0
  -23.5574  -32.1306   23.7072 O   0  0  0  0  0  0
  -30.0551  -17.9053   18.7416 C   0  0  0  0  0  0
  -28.6570  -18.5274   18.9141 C   0  0  0  0  0  0
  -29.2355  -22.7130   21.6252 C   0  0  0  0  0  0
  -29.7765  -21.2192   21.5895 C   0  0  0  0  0  0
  -28.5761  -21.6909   19.6475 C   0  0  0  0  0  0
  -28.9476  -23.2030   20.1880 C   0  0  1  0  0  0
  -30.1353  -17.6936   20.2642 C   0  0  1  0  0  0
  -29.0598  -19.0127   20.3158 C   0  0  1  0  0  0
  -27.9815  -24.5899   19.9664 C   0  0  0  0  0  0
  -29.7765  -16.1637   20.5318 N   0  0  0  0  0  0
  -29.4554  -20.5725   20.2836 N   0  3  2  0  0  0
  -31.4746  -12.7504   19.1971 H   0  0  0  0  0  0
  -30.4247  -11.6484   20.0400 H   0  0  0  0  0  0
  -29.8501  -11.7407   17.5870 H   0  0  0  0  0  0
  -29.6153  -13.4672   17.6933 H   0  0  0  0  0  0
  -27.9512  -11.2814   18.9728 H   0  0  0  0  0  0
  -27.3999  -12.4584   17.8105 H   0  0  0  0  0  0
  -27.5852  -14.2550   19.4047 H   0  0  0  0  0  0
  -28.7550  -12.3173   21.4589 H   0  0  0  0  0  0
  -28.3644  -13.9963   21.7514 H   0  0  0  0  0  0
  -25.2785   -9.5658   22.4746 H   0  0  0  0  0  0
  -23.9999   -7.4617   22.7499 H   0  0  0  0  0  0
  -21.0843   -8.8758   19.8971 H   0  0  0  0  0  0
  -22.3698  -10.9656   19.6169 H   0  0  0  0  0  0
  -21.1961   -7.6142   23.9713 H   0  0  0  0  0  0
  -21.1504   -6.0539   25.9093 H   0  0  0  0  0  0
  -22.0594   -2.7604   23.2884 H   0  0  0  0  0  0
  -22.4008  -11.9881   22.4883 H   0  0  0  0  0  0
  -21.1005  -13.1191   22.2585 H   0  0  0  0  0  0
  -24.6363  -15.8411   20.5325 H   0  0  0  0  0  0
  -26.2253  -15.6289   20.0041 H   0  0  0  0  0  0
  -26.7299  -32.5280   23.0987 H   0  0  0  0  0  0
  -25.0146  -33.9611   25.0341 H   0  0  0  0  0  0
  -22.7549  -31.2874   21.3766 H   0  0  0  0  0  0
  -23.3757  -35.9579   23.3287 H   0  0  0  0  0  0
  -24.3574  -36.8913   22.2067 H   0  0  0  0  0  0
  -23.7244  -37.6433   23.6706 H   0  0  0  0  0  0
  -26.1660  -31.4588   20.6133 H   0  0  0  0  0  0
  -26.8783  -30.7586   22.0328 H   0  0  0  0  0  0
  -28.1349  -28.7732   21.2380 H   0  0  0  0  0  0
  -25.9060  -25.8406   18.9842 H   0  0  0  0  0  0
  -23.9793  -27.2962   18.9790 H   0  0  0  0  0  0
  -23.8194  -30.5633   19.3975 H   0  0  0  0  0  0
  -22.7918  -29.2336   19.8411 H   0  0  0  0  0  0
  -25.1310  -36.1835   25.0800 H   0  0  0  0  0  0
  -21.0006  -28.3337   24.1343 H   0  0  0  0  0  0
  -20.5701  -26.2358   23.3620 H   0  0  0  0  0  0
  -21.6665  -26.7450   22.1195 H   0  0  0  0  0  0
  -19.6938  -25.6284   21.1269 H   0  0  0  0  0  0
  -19.6703  -27.3169   20.6717 H   0  0  0  0  0  0
  -17.4220  -26.6686   21.4015 H   0  0  0  0  0  0
  -18.0341  -26.0081   22.9009 H   0  0  0  0  0  0
  -19.7967  -30.7304   24.2220 H   0  0  0  0  0  0
  -17.5045  -31.6279   24.5168 H   0  0  0  0  0  0
  -15.5380  -30.2991   23.7681 H   0  0  0  0  0  0
  -15.8689  -28.0819   22.7101 H   0  0  0  0  0  0
  -24.5931  -30.7064   25.7731 H   0  0  0  0  0  0
  -24.8899  -32.2932   26.4749 H   0  0  0  0  0  0
  -25.8022  -30.8987   27.0238 H   0  0  0  0  0  0
  -26.3085  -29.6653   24.1319 H   0  0  0  0  0  0
  -27.4058  -29.7278   25.4896 H   0  0  0  0  0  0
  -27.8976  -30.4197   23.9648 H   0  0  0  0  0  0
  -27.2651  -33.3662   26.2005 H   0  0  0  0  0  0
  -28.3934  -32.6842   25.0397 H   0  0  0  0  0  0
  -28.0666  -31.8519   26.5515 H   0  0  0  0  0  0
  -28.2568  -38.0097   24.7529 H   0  0  0  0  0  0
  -28.1086  -36.2625   24.6279 H   0  0  0  0  0  0
  -27.2291  -37.1402   25.8874 H   0  0  0  0  0  0
  -20.9488  -29.8756   21.6748 H   0  0  0  0  0  0
  -26.0137  -38.2798   24.1433 H   0  0  0  0  0  0
  -30.7949  -18.6154   18.3679 H   0  0  0  0  0  0
  -30.0566  -16.9964   18.1364 H   0  0  0  0  0  0
  -27.8669  -17.7734   18.9473 H   0  0  0  0  0  0
  -28.4177  -19.2984   18.1827 H   0  0  0  0  0  0
  -29.9263  -23.3788   22.1444 H   0  0  0  0  0  0
  -28.3024  -22.7304   22.1893 H   0  0  0  0  0  0
  -29.3515  -20.6458   22.4135 H   0  0  0  0  0  0
  -30.8585  -21.2009   21.7212 H   0  0  0  0  0  0
  -28.6420  -21.6478   18.5608 H   0  0  0  0  0  0
  -27.5364  -21.4752   19.9001 H   0  0  0  0  0  0
  -29.9073  -23.4457   19.7317 H   0  0  0  0  0  0
  -31.1186  -17.9547   20.6592 H   0  0  0  0  0  0
  -28.2509  -18.8563   21.0309 H   0  0  0  0  0  0
  -27.0443  -24.3777   20.4803 H   0  0  0  0  0  0
  -27.7297  -24.5524   18.9054 H   0  0  0  0  0  0
  -28.8099  -15.9992   20.7744 H   0  0  0  0  0  0
  -30.3180  -20.6151   19.7600 H   0  0  0  0  0  0
  1 25  1  0  0  0
  1 30  2  0  0  0
  1 80  1  0  0  0
  2  3  1  0  0  0
  2 25  1  0  0  0
  2 82  1  0  0  0
  2 83  1  0  0  0
  3  4  1  0  0  0
  3 84  1  0  0  0
  3 85  1  0  0  0
  4  5  1  0  0  0
  4 86  1  0  0  0
  4 87  1  0  0  0
  5  6  1  0  0  0
  5 26  1  0  0  0
  5 88  1  0  0  0
  6 25  1  0  0  0
  6 89  1  0  0  0
  6 90  1  0  0  0
  7  8  2  0  0  0
  7 26  1  0  0  0
  7 29  1  0  0  0
  8  9  1  0  0  0
  8 22  1  0  0  0
  9 10  1  0  0  0
  9 27  2  0  0  0
 10 11  2  0  0  0
 10 15  1  0  0  0
 11 12  1  0  0  0
 11 91  1  0  0  0
 12 13  2  0  0  0
 12 92  1  0  0  0
 13 14  1  0  0  0
 13 31  1  0  0  0
 14 15  2  0  0  0
 14 93  1  0  0  0
 15 94  1  0  0  0
 16 17  2  0  0  0
 16 21  1  0  0  0
 16 31  1  0  0  0
 17 18  1  0  0  0
 17 95  1  0  0  0
 18 19  2  0  0  0
 18 96  1  0  0  0
 19 20  1  0  0  0
 19 24  1  0  0  0
 20 21  2  0  0  0
 20 97  1  0  0  0
 21 23  1  0  0  0
 22 28  1  0  0  0
 22 32  2  0  0  0
 26 27  1  0  0  0
 28 98  1  0  0  0
 28 99  1  0  0  0
 29100  1  0  0  0
 29101  1  0  0  0
 33 34  1  0  0  0
 33 66  1  0  0  0
 33 70  2  0  0  0
 34 36  1  0  0  0
 34 59  1  0  0  0
 34102  1  0  0  0
 35 44  2  0  0  0
 35 45  1  0  0  0
 35 68  1  0  0  0
 36 56  1  0  0  0
 36103  1  0  0  0
 37 39  1  0  0  0
 37 47  1  0  0  0
 37 66  1  0  0  0
 37104  1  0  0  0
 38 43  2  0  0  0
 38 46  1  0  0  0
 38 47  1  0  0  0
 39 64  1  0  0  0
 39 67  2  0  0  0
 40 52  1  0  0  0
 40 53  2  0  0  0
 40 58  1  0  0  0
 41105  1  0  0  0
 41106  1  0  0  0
 41107  1  0  0  0
 41 48  1  0  0  0
 42 43  1  0  0  0
 42 66  1  0  0  0
 42108  1  0  0  0
 42109  1  0  0  0
 43 44  1  0  0  0
 44110  1  0  0  0
 45 46  2  0  0  0
 45111  1  0  0  0
 46112  1  0  0  0
 47113  1  0  0  0
 47114  1  0  0  0
 48 56  1  0  0  0
 48 65  1  0  0  0
 48115  1  0  0  0
 49 50  1  0  0  0
 49 53  1  0  0  0
 49 64  1  0  0  0
 49116  1  0  0  0
 50 51  1  0  0  0
 50117  1  0  0  0
 50118  1  0  0  0
 51 52  1  0  0  0
 51119  1  0  0  0
 51120  1  0  0  0
 52121  1  0  0  0
 52122  1  0  0  0
 53 54  1  0  0  0
 54 55  2  0  0  0
 54123  1  0  0  0
 55 57  1  0  0  0
 55124  1  0  0  0
 56 69  2  0  0  0
 57 58  2  0  0  0
 57125  1  0  0  0
 58126  1  0  0  0
 59 60  1  0  0  0
 59 61  1  0  0  0
 59 62  1  0  0  0
 60127  1  0  0  0
 60128  1  0  0  0
 60129  1  0  0  0
 61130  1  0  0  0
 61131  1  0  0  0
 61132  1  0  0  0
 62133  1  0  0  0
 62134  1  0  0  0
 62135  1  0  0  0
 63 65  1  0  0  0
 63136  1  0  0  0
 63137  1  0  0  0
 63138  1  0  0  0
 64139  1  0  0  0
 65140  1  0  0  0
 68 79  1  0  0  0
 71 72  1  0  0  0
 71 77  1  0  0  0
 71141  1  0  0  0
 71142  1  0  0  0
 72143  1  0  0  0
 72144  1  0  0  0
 72 78  1  0  0  0
 73 74  1  0  0  0
 73 76  1  0  0  0
 73145  1  0  0  0
 73146  1  0  0  0
 74147  1  0  0  0
 74148  1  0  0  0
 74 81  1  0  0  0
 75 76  1  0  0  0
 75 81  1  0  0  0
 75149  1  0  0  0
 75150  1  0  0  0
 76 79  1  0  0  0
 76151  1  0  0  0
 77 78  1  0  0  0
 77 80  1  0  0  0
 77152  1  0  0  0
 78 81  1  0  0  0
 78153  1  0  0  0
 79154  1  0  0  0
 79155  1  0  0  0
 80156  1  0  0  0
 81157  1  0  0  0
M  CHG  1  81   1
M  ISO  4   1 100  68 101  79 101  80 100
M  END
> <chiral flag>
0

> <version>
0

> <s_m_source_file>
/data/baiqing/PycharmProjects/Reinvent-master-3.2/result/LINK_invent/BTK/process_docking_weight1_custom_sum_contain_oxygen_bond_distance_aromatic_linkinvent_7_9_3/rearranged_h_0176.sdf

> <i_m_source_file_index>
78

> <r_mmod_Potential_Energy-OPLS-2005>
509.160736083984

> <r_mmod_Stretch_Energy-OPLS-2005>
278.545471191406

> <r_mmod_Bend_Energy-OPLS-2005>
321.145141601562

> <r_mmod_Torsional_Energy-OPLS-2005>
311.824096679688

> <r_mmod_Improper_Torsional_Energy-OPLS-2005>
4.94109964370728

> <r_mmod_Van_der_Waal_Energy-OPLS-2005>
110.48681640625

> <r_mmod_Electrostatic_Energy-OPLS-2005>
-255.213912963867

> <r_mmod_Solvation_Energy-OPLS-2005>
-469.558532714844

> <b_mmod_Minimization_Converged-OPLS-2005>
0

> <r_mmod_RMS_Derivative-OPLS-2005>
2.10460638999939

$$$$
78
                    3D
 Structure written by MMmdl.
156166  0  0  1  0            999 V2000
  -30.5702  -14.8697   20.5078 C   0  0  0  0  0  0
  -30.4462  -12.5529   19.4878 C   0  0  0  0  0  0
  -29.5208  -12.5502   18.2467 C   0  0  0  0  0  0
  -28.0467  -12.3473   18.6498 C   0  0  0  0  0  0
  -27.6417  -13.2349   19.8545 C   0  0  2  0  0  0
  -28.6850  -13.1409   20.9839 C   0  0  0  0  0  0
  -25.2503  -13.8194   20.5682 C   0  0  0  0  0  0
  -24.1800  -13.0436   20.9200 C   0  0  0  0  0  0
  -24.6398  -11.6915   20.8734 C   0  0  0  0  0  0
  -23.9074  -10.4292   21.0401 C   0  0  0  0  0  0
  -24.3625   -9.4208   21.9180 C   0  0  0  0  0  0
  -23.6298   -8.2243   22.0753 C   0  0  0  0  0  0
  -22.4278   -8.0281   21.3545 C   0  0  0  0  0  0
  -21.9915   -9.0254   20.4645 C   0  0  0  0  0  0
  -22.7246  -10.2132   20.3052 C   0  0  0  0  0  0
  -21.6853   -6.0735   22.5277 C   0  0  0  0  0  0
  -21.4016   -6.5639   23.8212 C   0  0  0  0  0  0
  -21.3660   -5.6791   24.9173 C   0  0  0  0  0  0
  -21.6045   -4.3053   24.7223 C   0  0  0  0  0  0
  -21.8819   -3.8145   23.4343 C   0  0  0  0  0  0
  -21.9194   -4.6963   22.3400 C   0  0  0  0  0  0
  -22.7824  -13.5217   21.1866 C   0  0  0  0  0  0
  -22.1661   -4.2149   21.0979 F   0  0  0  0  0  0
  -21.5630   -3.4536   25.7736 F   0  0  0  0  0  0
  -29.9670  -13.6099   20.4275 N   0  0  0  0  0  0
  -26.2931  -12.9402   20.3270 N   0  0  0  0  0  0
  -25.9326  -11.6539   20.5721 N   0  0  0  0  0  0
  -22.0474  -12.8206   22.0425 N   0  0  0  0  0  0
  -25.4191  -15.1919   20.4096 N   0  0  0  0  0  0
  -31.7186  -14.9666   20.0595 O   0  0  0  0  0  0
  -21.6642   -6.8877   21.4240 O   0  0  0  0  0  0
  -22.3504  -14.5523   20.6715 O   0  0  0  0  0  0
  -24.6397  -31.8482   23.1929 C   0  0  0  0  0  0
  -25.9187  -32.4718   23.8304 C   0  0  1  0  0  0
  -27.2164  -27.1807   20.1456 C   0  0  0  0  0  0
  -25.5952  -33.8523   24.2220 N   0  0  0  0  0  0
  -23.4416  -30.4696   21.5376 C   0  0  2  0  0  0
  -24.8920  -28.9061   20.1110 C   0  0  0  0  0  0
  -22.7551  -29.4568   22.4876 C   0  0  0  0  0  0
  -18.0302  -28.1392   22.8479 C   0  0  0  0  0  0
  -24.1492  -36.7268   23.2641 C   0  0  0  0  0  0
  -25.9955  -30.7349   21.3876 C   0  0  0  0  0  0
  -26.0683  -29.3501   20.7303 C   0  0  0  0  0  0
  -27.2351  -28.5026   20.7339 C   0  0  0  0  0  0
  -26.0228  -26.8386   19.4732 C   0  0  0  0  0  0
  -24.8795  -27.6611   19.4671 C   0  0  0  0  0  0
  -23.6665  -29.8024   20.1557 C   0  0  0  0  0  0
  -25.4120  -36.3047   24.0321 C   0  0  1  0  0  0
  -20.5913  -28.3715   23.1243 C   0  0  2  0  0  0
  -20.6787  -26.9424   22.5402 C   0  0  0  0  0  0
  -19.5760  -26.6382   21.5211 C   0  0  0  0  0  0
  -18.1943  -26.7932   22.1624 C   0  0  0  0  0  0
  -19.1558  -28.8871   23.2853 C   0  0  0  0  0  0
  -18.9474  -30.1469   23.8877 C   0  0  0  0  0  0
  -17.6471  -30.6589   24.0560 C   0  0  0  0  0  0
  -25.9068  -34.9421   23.5075 C   0  0  0  0  0  0
  -16.5362  -29.9083   23.6335 C   0  0  0  0  0  0
  -16.7288  -28.6502   23.0355 C   0  0  0  0  0  0
  -26.4520  -31.6569   25.0727 C   0  0  0  0  0  0
  -25.3716  -31.3746   26.1429 C   0  0  0  0  0  0
  -27.0377  -30.2968   24.6283 C   0  0  0  0  0  0
  -27.6059  -32.4325   25.7509 C   0  0  0  0  0  0
  -27.5578  -37.1790   24.8463 C   0  0  0  0  0  0
  -21.4247  -29.3048   22.3623 N   0  0  0  0  0  0
  -26.4286  -37.3756   23.9412 N   0  0  0  0  0  0
  -24.7119  -31.0375   22.0947 N   0  0  0  0  0  0
  -23.4212  -28.8110   23.3005 O   0  0  0  0  0  0
  -28.2563  -26.1947   20.1821 O   0  0  0  0  0  0
  -26.5648  -34.8910   22.4649 O   0  0  0  0  0  0
  -23.5524  -32.1342   23.7169 O   0  0  0  0  0  0
  -28.7145  -21.1627   19.1554 C   0  0  0  0  0  0
  -28.4507  -22.5843   19.1883 C   0  0  0  0  0  0
  -29.1213  -20.4400   20.3222 C   0  0  0  0  0  0
  -28.5922  -23.3365   20.3927 C   0  0  0  0  0  0
  -29.4067  -15.5463   23.3064 C   0  0  0  0  0  0
  -29.2665  -17.0301   23.1210 C   0  0  0  0  0  0
  -29.1796  -17.9749   19.2157 C   0  0  0  0  0  0
  -29.0693  -18.8098   20.4717 C   0  0  1  0  0  0
  -28.9548  -16.0969   21.9605 C   0  0  0  0  0  0
  -30.0759  -17.4989   20.3348 C   0  0  1  0  0  0
  -27.8763  -24.7856   20.6726 C   0  0  0  0  0  0
  -29.3026  -21.2355   21.4337 N   0  0  0  0  0  0
  -29.0466  -22.5893   21.4657 N   0  0  0  0  0  0
  -29.8349  -16.0510   20.8212 N   0  0  0  0  0  0
  -31.4790  -12.7130   19.1752 H   0  0  0  0  0  0
  -30.4439  -11.5747   19.9714 H   0  0  0  0  0  0
  -29.8285  -11.7734   17.5453 H   0  0  0  0  0  0
  -29.6244  -13.4982   17.7165 H   0  0  0  0  0  0
  -27.9144  -11.2956   18.9068 H   0  0  0  0  0  0
  -27.3903  -12.5374   17.8000 H   0  0  0  0  0  0
  -27.6397  -14.2638   19.4933 H   0  0  0  0  0  0
  -28.7694  -12.1112   21.3339 H   0  0  0  0  0  0
  -28.3569  -13.6904   21.8573 H   0  0  0  0  0  0
  -25.2770   -9.5685   22.4754 H   0  0  0  0  0  0
  -24.0006   -7.4635   22.7473 H   0  0  0  0  0  0
  -21.0845   -8.8772   19.8953 H   0  0  0  0  0  0
  -22.3702  -10.9669   19.6159 H   0  0  0  0  0  0
  -21.2007   -7.6146   23.9717 H   0  0  0  0  0  0
  -21.1484   -6.0519   25.9078 H   0  0  0  0  0  0
  -22.0599   -2.7606   23.2841 H   0  0  0  0  0  0
  -22.4092  -11.9864   22.4804 H   0  0  0  0  0  0
  -21.1093  -13.1229   22.2638 H   0  0  0  0  0  0
  -24.6505  -15.8450   20.5157 H   0  0  0  0  0  0
  -26.2659  -15.6276   20.0683 H   0  0  0  0  0  0
  -26.7256  -32.5339   23.1040 H   0  0  0  0  0  0
  -25.0087  -33.9649   25.0358 H   0  0  0  0  0  0
  -22.7417  -31.2940   21.3864 H   0  0  0  0  0  0
  -23.3760  -35.9593   23.3285 H   0  0  0  0  0  0
  -24.3584  -36.8913   22.2059 H   0  0  0  0  0  0
  -23.7239  -37.6458   23.6682 H   0  0  0  0  0  0
  -26.1460  -31.4902   20.6152 H   0  0  0  0  0  0
  -26.8682  -30.7847   22.0271 H   0  0  0  0  0  0
  -28.1314  -28.8361   21.2382 H   0  0  0  0  0  0
  -25.9521  -25.8951   18.9516 H   0  0  0  0  0  0
  -23.9864  -27.3206   18.9612 H   0  0  0  0  0  0
  -23.7991  -30.5785   19.4010 H   0  0  0  0  0  0
  -22.7826  -29.2419   19.8459 H   0  0  0  0  0  0
  -25.1304  -36.1881   25.0813 H   0  0  0  0  0  0
  -21.0004  -28.3301   24.1365 H   0  0  0  0  0  0
  -20.5680  -26.2331   23.3617 H   0  0  0  0  0  0
  -21.6653  -26.7433   22.1198 H   0  0  0  0  0  0
  -19.6920  -25.6288   21.1254 H   0  0  0  0  0  0
  -19.6698  -27.3181   20.6732 H   0  0  0  0  0  0
  -17.4211  -26.6677   21.4029 H   0  0  0  0  0  0
  -18.0346  -26.0078   22.9024 H   0  0  0  0  0  0
  -19.7949  -30.7291   24.2237 H   0  0  0  0  0  0
  -17.5024  -31.6267   24.5164 H   0  0  0  0  0  0
  -15.5361  -30.2976   23.7668 H   0  0  0  0  0  0
  -15.8690  -28.0813   22.7078 H   0  0  0  0  0  0
  -24.5899  -30.7089   25.7751 H   0  0  0  0  0  0
  -24.8901  -32.2924   26.4813 H   0  0  0  0  0  0
  -25.8009  -30.8948   27.0233 H   0  0  0  0  0  0
  -26.2986  -29.6699   24.1283 H   0  0  0  0  0  0
  -27.3990  -29.7256   25.4845 H   0  0  0  0  0  0
  -27.8896  -30.4209   23.9595 H   0  0  0  0  0  0
  -27.2659  -33.3640   26.2045 H   0  0  0  0  0  0
  -28.3893  -32.6859   25.0355 H   0  0  0  0  0  0
  -28.0700  -31.8477   26.5459 H   0  0  0  0  0  0
  -28.2580  -38.0101   24.7519 H   0  0  0  0  0  0
  -28.1089  -36.2631   24.6274 H   0  0  0  0  0  0
  -27.2301  -37.1416   25.8867 H   0  0  0  0  0  0
  -20.9449  -29.8772   21.6818 H   0  0  0  0  0  0
  -26.0156  -38.2825   24.1415 H   0  0  0  0  0  0
  -28.5024  -20.6153   18.2486 H   0  0  0  0  0  0
  -28.0392  -23.0676   18.3142 H   0  0  0  0  0  0
  -28.6608  -15.0500   23.9250 H   0  0  0  0  0  0
  -30.4187  -15.1578   23.4043 H   0  0  0  0  0  0
  -30.1871  -17.6107   23.0972 H   0  0  0  0  0  0
  -28.4260  -17.5191   23.6101 H   0  0  0  0  0  0
  -29.6921  -18.4088   18.3593 H   0  0  0  0  0  0
  -28.3091  -17.3744   18.9603 H   0  0  0  0  0  0
  -28.1818  -18.6266   21.0733 H   0  0  0  0  0  0
  -27.8962  -15.9904   21.7300 H   0  0  0  0  0  0
  -31.1277  -17.7688   20.2607 H   0  0  0  0  0  0
  -27.8625  -24.8855   21.7583 H   0  0  0  0  0  0
  -26.8339  -24.5918   20.4296 H   0  0  0  0  0  0
  1 25  1  0  0  0
  1 30  2  0  0  0
  1 84  1  0  0  0
  2  3  1  0  0  0
  2 25  1  0  0  0
  2 85  1  0  0  0
  2 86  1  0  0  0
  3  4  1  0  0  0
  3 87  1  0  0  0
  3 88  1  0  0  0
  4  5  1  0  0  0
  4 89  1  0  0  0
  4 90  1  0  0  0
  5  6  1  0  0  0
  5 26  1  0  0  0
  5 91  1  0  0  0
  6 25  1  0  0  0
  6 92  1  0  0  0
  6 93  1  0  0  0
  7  8  2  0  0  0
  7 26  1  0  0  0
  7 29  1  0  0  0
  8  9  1  0  0  0
  8 22  1  0  0  0
  9 10  1  0  0  0
  9 27  2  0  0  0
 10 11  2  0  0  0
 10 15  1  0  0  0
 11 12  1  0  0  0
 11 94  1  0  0  0
 12 13  2  0  0  0
 12 95  1  0  0  0
 13 14  1  0  0  0
 13 31  1  0  0  0
 14 15  2  0  0  0
 14 96  1  0  0  0
 15 97  1  0  0  0
 16 17  2  0  0  0
 16 21  1  0  0  0
 16 31  1  0  0  0
 17 18  1  0  0  0
 17 98  1  0  0  0
 18 19  2  0  0  0
 18 99  1  0  0  0
 19 20  1  0  0  0
 19 24  1  0  0  0
 20 21  2  0  0  0
 20100  1  0  0  0
 21 23  1  0  0  0
 22 28  1  0  0  0
 22 32  2  0  0  0
 26 27  1  0  0  0
 28101  1  0  0  0
 28102  1  0  0  0
 29103  1  0  0  0
 29104  1  0  0  0
 33 34  1  0  0  0
 33 66  1  0  0  0
 33 70  2  0  0  0
 34 36  1  0  0  0
 34 59  1  0  0  0
 34105  1  0  0  0
 35 44  2  0  0  0
 35 45  1  0  0  0
 35 68  1  0  0  0
 36 56  1  0  0  0
 36106  1  0  0  0
 37 39  1  0  0  0
 37 47  1  0  0  0
 37 66  1  0  0  0
 37107  1  0  0  0
 38 43  2  0  0  0
 38 46  1  0  0  0
 38 47  1  0  0  0
 39 64  1  0  0  0
 39 67  2  0  0  0
 40 52  1  0  0  0
 40 53  2  0  0  0
 40 58  1  0  0  0
 41108  1  0  0  0
 41109  1  0  0  0
 41110  1  0  0  0
 41 48  1  0  0  0
 42 43  1  0  0  0
 42 66  1  0  0  0
 42111  1  0  0  0
 42112  1  0  0  0
 43 44  1  0  0  0
 44113  1  0  0  0
 45 46  2  0  0  0
 45114  1  0  0  0
 46115  1  0  0  0
 47116  1  0  0  0
 47117  1  0  0  0
 48 56  1  0  0  0
 48 65  1  0  0  0
 48118  1  0  0  0
 49 50  1  0  0  0
 49 53  1  0  0  0
 49 64  1  0  0  0
 49119  1  0  0  0
 50 51  1  0  0  0
 50120  1  0  0  0
 50121  1  0  0  0
 51 52  1  0  0  0
 51122  1  0  0  0
 51123  1  0  0  0
 52124  1  0  0  0
 52125  1  0  0  0
 53 54  1  0  0  0
 54 55  2  0  0  0
 54126  1  0  0  0
 55 57  1  0  0  0
 55127  1  0  0  0
 56 69  2  0  0  0
 57 58  2  0  0  0
 57128  1  0  0  0
 58129  1  0  0  0
 59 60  1  0  0  0
 59 61  1  0  0  0
 59 62  1  0  0  0
 60130  1  0  0  0
 60131  1  0  0  0
 60132  1  0  0  0
 61133  1  0  0  0
 61134  1  0  0  0
 61135  1  0  0  0
 62136  1  0  0  0
 62137  1  0  0  0
 62138  1  0  0  0
 63 65  1  0  0  0
 63139  1  0  0  0
 63140  1  0  0  0
 63141  1  0  0  0
 64142  1  0  0  0
 65143  1  0  0  0
 68 81  1  0  0  0
 71 72  2  0  0  0
 71 73  1  0  0  0
 71144  1  0  0  0
 72 74  1  0  0  0
 72145  1  0  0  0
 73 82  2  0  0  0
 73 78  1  0  0  0
 74 81  1  0  0  0
 74 83  2  0  0  0
 75 76  1  0  0  0
 75 79  1  0  0  0
 75146  1  0  0  0
 75147  1  0  0  0
 76 79  1  0  0  0
 76148  1  0  0  0
 76149  1  0  0  0
 77 78  1  0  0  0
 77 80  1  0  0  0
 77150  1  0  0  0
 77151  1  0  0  0
 78 80  1  0  0  0
 78152  1  0  0  0
 79 84  1  0  0  0
 79153  1  0  0  0
 80 84  1  0  0  0
 80154  1  0  0  0
 81155  1  0  0  0
 81156  1  0  0  0
 82 83  1  0  0  0
M  ISO  4   1 100  68 101  81 101  84 100
M  END
> <chiral flag>
0

> <version>
0

> <s_m_source_file>
/data/baiqing/PycharmProjects/Reinvent-master-3.2/result/LINK_invent/BTK/process_docking_weight1_custom_sum_contain_oxygen_bond_distance_aromatic_linkinvent_7_9_3/rearranged_h_0176.sdf

> <i_m_source_file_index>
79

> <r_mmod_Potential_Energy-OPLS-2005>
748.570068359375

> <r_mmod_Stretch_Energy-OPLS-2005>
215.428741455078

> <r_mmod_Bend_Energy-OPLS-2005>
248.820983886719

> <r_mmod_Torsional_Energy-OPLS-2005>
452.625579833984

> <r_mmod_Improper_Torsional_Energy-OPLS-2005>
12.1682481765747

> <r_mmod_Van_der_Waal_Energy-OPLS-2005>
139.037643432617

> <r_mmod_Electrostatic_Energy-OPLS-2005>
-238.909088134766

> <r_mmod_Solvation_Energy-OPLS-2005>
-223.251235961914

> <b_mmod_Minimization_Converged-OPLS-2005>
0

> <r_mmod_RMS_Derivative-OPLS-2005>
0.437009572982788

$$$$
79
                    3D
 Structure written by MMmdl.
167177  0  0  1  0            999 V2000
  -30.5613  -14.9489   20.3251 C   0  0  0  0  0  0
  -30.4495  -12.5709   19.4878 C   0  0  0  0  0  0
  -29.5248  -12.4347   18.2562 C   0  0  0  0  0  0
  -28.0484  -12.2654   18.6774 C   0  0  0  0  0  0
  -27.6196  -13.2114   19.8312 C   0  0  2  0  0  0
  -28.6803  -13.3014   20.9492 C   0  0  0  0  0  0
  -25.2493  -13.8098   20.5793 C   0  0  0  0  0  0
  -24.1762  -13.0375   20.9258 C   0  0  0  0  0  0
  -24.6334  -11.6851   20.8806 C   0  0  0  0  0  0
  -23.9015  -10.4249   21.0437 C   0  0  0  0  0  0
  -24.3591   -9.4170   21.9200 C   0  0  0  0  0  0
  -23.6271   -8.2206   22.0754 C   0  0  0  0  0  0
  -22.4254   -8.0253   21.3535 C   0  0  0  0  0  0
  -21.9883   -9.0228   20.4640 C   0  0  0  0  0  0
  -22.7207  -10.2105   20.3061 C   0  0  0  0  0  0
  -21.6840   -6.0724   22.5283 C   0  0  0  0  0  0
  -21.4003   -6.5633   23.8218 C   0  0  0  0  0  0
  -21.3656   -5.6787   24.9186 C   0  0  0  0  0  0
  -21.6043   -4.3049   24.7234 C   0  0  0  0  0  0
  -21.8818   -3.8141   23.4357 C   0  0  0  0  0  0
  -21.9189   -4.6953   22.3412 C   0  0  0  0  0  0
  -22.7801  -13.5202   21.1897 C   0  0  0  0  0  0
  -22.1659   -4.2135   21.0985 F   0  0  0  0  0  0
  -21.5632   -3.4533   25.7752 F   0  0  0  0  0  0
  -29.9461  -13.6977   20.3145 N   0  0  0  0  0  0
  -26.2861  -12.9237   20.3342 N   0  0  0  0  0  0
  -25.9253  -11.6419   20.5832 N   0  0  0  0  0  0
  -22.0423  -12.8198   22.0439 N   0  0  0  0  0  0
  -25.4238  -15.1830   20.4276 N   0  0  0  0  0  0
  -31.7935  -14.9731   20.2465 O   0  0  0  0  0  0
  -21.6617   -6.8859   21.4239 O   0  0  0  0  0  0
  -22.3510  -14.5517   20.6734 O   0  0  0  0  0  0
  -24.6358  -31.8490   23.1915 C   0  0  0  0  0  0
  -25.9143  -32.4736   23.8304 C   0  0  1  0  0  0
  -27.2321  -27.1983   20.1471 C   0  0  0  0  0  0
  -25.5936  -33.8534   24.2239 N   0  0  0  0  0  0
  -23.4395  -30.4679   21.5335 C   0  0  2  0  0  0
  -24.8963  -28.9013   20.1119 C   0  0  0  0  0  0
  -22.7550  -29.4556   22.4869 C   0  0  0  0  0  0
  -18.0322  -28.1405   22.8480 C   0  0  0  0  0  0
  -24.1476  -36.7248   23.2641 C   0  0  0  0  0  0
  -25.9922  -30.7436   21.3817 C   0  0  0  0  0  0
  -26.0696  -29.3572   20.7290 C   0  0  0  0  0  0
  -27.2444  -28.5220   20.7269 C   0  0  0  0  0  0
  -26.0367  -26.8289   19.4968 C   0  0  0  0  0  0
  -24.8874  -27.6491   19.4814 C   0  0  0  0  0  0
  -23.6672  -29.7958   20.1529 C   0  0  0  0  0  0
  -25.4115  -36.3049   24.0323 C   0  0  1  0  0  0
  -20.5926  -28.3703   23.1265 C   0  0  2  0  0  0
  -20.6783  -26.9414   22.5417 C   0  0  0  0  0  0
  -19.5760  -26.6377   21.5219 C   0  0  0  0  0  0
  -18.1947  -26.7957   22.1617 C   0  0  0  0  0  0
  -19.1571  -28.8874   23.2866 C   0  0  0  0  0  0
  -18.9492  -30.1480   23.8875 C   0  0  0  0  0  0
  -17.6483  -30.6601   24.0560 C   0  0  0  0  0  0
  -25.9042  -34.9430   23.5079 C   0  0  0  0  0  0
  -16.5374  -29.9094   23.6334 C   0  0  0  0  0  0
  -16.7300  -28.6515   23.0344 C   0  0  0  0  0  0
  -26.4502  -31.6574   25.0707 C   0  0  0  0  0  0
  -25.3696  -31.3783   26.1409 C   0  0  0  0  0  0
  -27.0354  -30.2991   24.6238 C   0  0  0  0  0  0
  -27.6049  -32.4327   25.7494 C   0  0  0  0  0  0
  -27.5578  -37.1791   24.8474 C   0  0  0  0  0  0
  -21.4246  -29.3033   22.3635 N   0  0  0  0  0  0
  -26.4282  -37.3755   23.9420 N   0  0  0  0  0  0
  -24.7076  -31.0410   22.0907 N   0  0  0  0  0  0
  -23.4239  -28.8095   23.2971 O   0  0  0  0  0  0
  -28.2926  -26.2389   20.1471 O   0  0  0  0  0  0
  -26.5627  -34.8906   22.4654 O   0  0  0  0  0  0
  -23.5488  -32.1314   23.7181 O   0  0  0  0  0  0
  -29.8568  -22.8595   20.6173 C   0  0  0  0  0  0
  -30.1607  -21.4338   20.6232 C   0  0  0  0  0  0
  -28.5315  -23.3958   20.5025 C   0  0  0  0  0  0
  -29.1209  -20.4526   20.5055 C   0  0  0  0  0  0
  -27.5873  -22.3342   20.3155 C   0  0  0  0  0  0
  -32.0887  -20.1410   21.8898 C   0  0  0  0  0  0
  -32.5002  -21.5913   21.8124 C   0  0  0  0  0  0
  -30.5853  -18.0106   18.7735 C   0  0  0  0  0  0
  -29.0000  -16.1755   18.9010 C   0  0  0  0  0  0
  -31.5926  -21.0038   20.7531 C   0  0  0  0  0  0
  -29.4721  -17.3314   18.0031 C   0  0  2  0  0  0
  -30.2293  -17.6675   20.2153 C   0  0  1  0  0  0
  -26.1098  -22.6423   20.1683 C   0  0  0  0  0  0
  -28.0785  -24.9272   20.8947 C   0  0  0  0  0  0
  -29.1895  -18.8321   20.7955 C   0  0  0  0  0  0
  -27.8690  -20.9790   20.3164 N   0  0  0  0  0  0
  -29.8051  -16.1516   20.1402 N   0  0  0  0  0  0
  -29.9342  -16.8861   16.7408 O   0  0  0  0  0  0
  -31.4774  -12.7383   19.1614 H   0  0  0  0  0  0
  -30.4694  -11.6499   20.0720 H   0  0  0  0  0  0
  -29.8334  -11.5706   17.6660 H   0  0  0  0  0  0
  -29.6410  -13.2932   17.5967 H   0  0  0  0  0  0
  -27.9271  -11.2293   18.9979 H   0  0  0  0  0  0
  -27.3926  -12.3955   17.8153 H   0  0  0  0  0  0
  -27.5262  -14.1819   19.3711 H   0  0  0  0  0  0
  -28.7827  -12.3477   21.4695 H   0  0  0  0  0  0
  -28.3872  -14.0398   21.6973 H   0  0  0  0  0  0
  -25.2729   -9.5652   22.4780 H   0  0  0  0  0  0
  -23.9982   -7.4586   22.7455 H   0  0  0  0  0  0
  -21.0821   -8.8738   19.8940 H   0  0  0  0  0  0
  -22.3663  -10.9650   19.6177 H   0  0  0  0  0  0
  -21.1982   -7.6138   23.9719 H   0  0  0  0  0  0
  -21.1482   -6.0519   25.9088 H   0  0  0  0  0  0
  -22.0596   -2.7597   23.2862 H   0  0  0  0  0  0
  -22.4035  -11.9863   22.4842 H   0  0  0  0  0  0
  -21.1033  -13.1223   22.2630 H   0  0  0  0  0  0
  -24.6645  -15.8427   20.5568 H   0  0  0  0  0  0
  -26.2939  -15.6251   20.1655 H   0  0  0  0  0  0
  -26.7217  -32.5382   23.1035 H   0  0  0  0  0  0
  -25.0111  -33.9679   25.0416 H   0  0  0  0  0  0
  -22.7397  -31.2926   21.3803 H   0  0  0  0  0  0
  -23.3746  -35.9564   23.3296 H   0  0  0  0  0  0
  -24.3564  -36.8866   22.2052 H   0  0  0  0  0  0
  -23.7210  -37.6445   23.6669 H   0  0  0  0  0  0
  -26.1400  -31.4997   20.6100 H   0  0  0  0  0  0
  -26.8651  -30.7997   22.0193 H   0  0  0  0  0  0
  -28.1465  -28.8725   21.2100 H   0  0  0  0  0  0
  -25.9834  -25.8683   19.0057 H   0  0  0  0  0  0
  -23.9923  -27.2997   18.9845 H   0  0  0  0  0  0
  -23.7982  -30.5690   19.3947 H   0  0  0  0  0  0
  -22.7834  -29.2339   19.8439 H   0  0  0  0  0  0
  -25.1299  -36.1870   25.0816 H   0  0  0  0  0  0
  -21.0028  -28.3261   24.1373 H   0  0  0  0  0  0
  -20.5674  -26.2308   23.3619 H   0  0  0  0  0  0
  -21.6664  -26.7413   22.1227 H   0  0  0  0  0  0
  -19.6910  -25.6288   21.1251 H   0  0  0  0  0  0
  -19.6709  -27.3191   20.6760 H   0  0  0  0  0  0
  -17.4225  -26.6708   21.4004 H   0  0  0  0  0  0
  -18.0319  -26.0139   22.9040 H   0  0  0  0  0  0
  -19.7968  -30.7316   24.2214 H   0  0  0  0  0  0
  -17.5042  -31.6276   24.5179 H   0  0  0  0  0  0
  -15.5380  -30.2982   23.7688 H   0  0  0  0  0  0
  -15.8701  -28.0840   22.7038 H   0  0  0  0  0  0
  -24.5922  -30.7054   25.7787 H   0  0  0  0  0  0
  -24.8825  -32.2960   26.4711 H   0  0  0  0  0  0
  -25.7990  -30.9097   27.0268 H   0  0  0  0  0  0
  -26.2966  -29.6749   24.1211 H   0  0  0  0  0  0
  -27.3972  -29.7250   25.4784 H   0  0  0  0  0  0
  -27.8856  -30.4258   23.9530 H   0  0  0  0  0  0
  -27.2665  -33.3669   26.1987 H   0  0  0  0  0  0
  -28.3916  -32.6804   25.0346 H   0  0  0  0  0  0
  -28.0634  -31.8479   26.5480 H   0  0  0  0  0  0
  -28.2596  -38.0096   24.7536 H   0  0  0  0  0  0
  -28.1065  -36.2626   24.6265 H   0  0  0  0  0  0
  -27.2301  -37.1414   25.8879 H   0  0  0  0  0  0
  -20.9438  -29.8758   21.6842 H   0  0  0  0  0  0
  -26.0133  -38.2807   24.1462 H   0  0  0  0  0  0
  -30.6696  -23.5551   20.7716 H   0  0  0  0  0  0
  -31.3895  -19.8611   22.6749 H   0  0  0  0  0  0
  -32.8526  -19.4001   21.6612 H   0  0  0  0  0  0
  -33.5318  -21.7956   21.5320 H   0  0  0  0  0  0
  -32.0750  -22.2582   22.5611 H   0  0  0  0  0  0
  -30.6433  -19.0817   18.5715 H   0  0  0  0  0  0
  -31.5566  -17.5772   18.5293 H   0  0  0  0  0  0
  -29.0376  -15.2511   18.3308 H   0  0  0  0  0  0
  -27.9568  -16.3404   19.1718 H   0  0  0  0  0  0
  -32.0212  -20.8247   19.7673 H   0  0  0  0  0  0
  -28.6435  -18.0261   17.8485 H   0  0  0  0  0  0
  -31.1479  -17.7316   20.7996 H   0  0  0  0  0  0
  -25.6686  -22.8567   21.1412 H   0  0  0  0  0  0
  -25.5674  -21.8068   19.7249 H   0  0  0  0  0  0
  -25.9554  -23.5076   19.5248 H   0  0  0  0  0  0
  -28.5950  -25.1033   21.8377 H   0  0  0  0  0  0
  -27.0347  -24.8899   21.2029 H   0  0  0  0  0  0
  -28.1947  -18.4805   20.5230 H   0  0  0  0  0  0
  -29.1991  -18.7391   21.8819 H   0  0  0  0  0  0
  -30.7428  -16.3987   16.8712 H   0  0  0  0  0  0
  1 25  1  0  0  0
  1 30  2  0  0  0
  1 87  1  0  0  0
  2  3  1  0  0  0
  2 25  1  0  0  0
  2 89  1  0  0  0
  2 90  1  0  0  0
  3  4  1  0  0  0
  3 91  1  0  0  0
  3 92  1  0  0  0
  4  5  1  0  0  0
  4 93  1  0  0  0
  4 94  1  0  0  0
  5  6  1  0  0  0
  5 26  1  0  0  0
  5 95  1  0  0  0
  6 25  1  0  0  0
  6 96  1  0  0  0
  6 97  1  0  0  0
  7  8  2  0  0  0
  7 26  1  0  0  0
  7 29  1  0  0  0
  8  9  1  0  0  0
  8 22  1  0  0  0
  9 10  1  0  0  0
  9 27  2  0  0  0
 10 11  2  0  0  0
 10 15  1  0  0  0
 11 12  1  0  0  0
 11 98  1  0  0  0
 12 13  2  0  0  0
 12 99  1  0  0  0
 13 14  1  0  0  0
 13 31  1  0  0  0
 14 15  2  0  0  0
 14100  1  0  0  0
 15101  1  0  0  0
 16 17  2  0  0  0
 16 21  1  0  0  0
 16 31  1  0  0  0
 17 18  1  0  0  0
 17102  1  0  0  0
 18 19  2  0  0  0
 18103  1  0  0  0
 19 20  1  0  0  0
 19 24  1  0  0  0
 20 21  2  0  0  0
 20104  1  0  0  0
 21 23  1  0  0  0
 22 28  1  0  0  0
 22 32  2  0  0  0
 26 27  1  0  0  0
 28105  1  0  0  0
 28106  1  0  0  0
 29107  1  0  0  0
 29108  1  0  0  0
 33 34  1  0  0  0
 33 66  1  0  0  0
 33 70  2  0  0  0
 34 36  1  0  0  0
 34 59  1  0  0  0
 34109  1  0  0  0
 35 44  2  0  0  0
 35 45  1  0  0  0
 35 68  1  0  0  0
 36 56  1  0  0  0
 36110  1  0  0  0
 37 39  1  0  0  0
 37 47  1  0  0  0
 37 66  1  0  0  0
 37111  1  0  0  0
 38 43  2  0  0  0
 38 46  1  0  0  0
 38 47  1  0  0  0
 39 64  1  0  0  0
 39 67  2  0  0  0
 40 52  1  0  0  0
 40 53  2  0  0  0
 40 58  1  0  0  0
 41112  1  0  0  0
 41113  1  0  0  0
 41114  1  0  0  0
 41 48  1  0  0  0
 42 43  1  0  0  0
 42 66  1  0  0  0
 42115  1  0  0  0
 42116  1  0  0  0
 43 44  1  0  0  0
 44117  1  0  0  0
 45 46  2  0  0  0
 45118  1  0  0  0
 46119  1  0  0  0
 47120  1  0  0  0
 47121  1  0  0  0
 48 56  1  0  0  0
 48 65  1  0  0  0
 48122  1  0  0  0
 49 50  1  0  0  0
 49 53  1  0  0  0
 49 64  1  0  0  0
 49123  1  0  0  0
 50 51  1  0  0  0
 50124  1  0  0  0
 50125  1  0  0  0
 51 52  1  0  0  0
 51126  1  0  0  0
 51127  1  0  0  0
 52128  1  0  0  0
 52129  1  0  0  0
 53 54  1  0  0  0
 54 55  2  0  0  0
 54130  1  0  0  0
 55 57  1  0  0  0
 55131  1  0  0  0
 56 69  2  0  0  0
 57 58  2  0  0  0
 57132  1  0  0  0
 58133  1  0  0  0
 59 60  1  0  0  0
 59 61  1  0  0  0
 59 62  1  0  0  0
 60134  1  0  0  0
 60135  1  0  0  0
 60136  1  0  0  0
 61137  1  0  0  0
 61138  1  0  0  0
 61139  1  0  0  0
 62140  1  0  0  0
 62141  1  0  0  0
 62142  1  0  0  0
 63 65  1  0  0  0
 63143  1  0  0  0
 63144  1  0  0  0
 63145  1  0  0  0
 64146  1  0  0  0
 65147  1  0  0  0
 68 84  1  0  0  0
 71 72  2  0  0  0
 71 73  1  0  0  0
 71148  1  0  0  0
 72 74  1  0  0  0
 72 80  1  0  0  0
 73 75  2  0  0  0
 73 84  1  0  0  0
 74 85  1  0  0  0
 74 86  2  0  0  0
 75 83  1  0  0  0
 75 86  1  0  0  0
 76 77  1  0  0  0
 76 80  1  0  0  0
 76149  1  0  0  0
 76150  1  0  0  0
 77 80  1  0  0  0
 77151  1  0  0  0
 77152  1  0  0  0
 78 81  1  0  0  0
 78 82  1  0  0  0
 78153  1  0  0  0
 78154  1  0  0  0
 79 81  1  0  0  0
 79 87  1  0  0  0
 79155  1  0  0  0
 79156  1  0  0  0
 80157  1  0  0  0
 81 88  1  0  0  0
 81158  1  0  0  0
 82 85  1  0  0  0
 82 87  1  0  0  0
 82159  1  0  0  0
 83160  1  0  0  0
 83161  1  0  0  0
 83162  1  0  0  0
 84163  1  0  0  0
 84164  1  0  0  0
 85165  1  0  0  0
 85166  1  0  0  0
 88167  1  0  0  0
M  ISO  4   1 100  68 101  84 101  87 100
M  END
> <chiral flag>
0

> <version>
0

> <s_m_source_file>
/data/baiqing/PycharmProjects/Reinvent-master-3.2/result/LINK_invent/BTK/process_docking_weight1_custom_sum_contain_oxygen_bond_distance_aromatic_linkinvent_7_9_3/rearranged_h_0176.sdf

> <i_m_source_file_index>
80

> <r_mmod_Potential_Energy-OPLS-2005>
576.854858398438

> <r_mmod_Stretch_Energy-OPLS-2005>
205.814559936523

> <r_mmod_Bend_Energy-OPLS-2005>
287.475555419922

> <r_mmod_Torsional_Energy-OPLS-2005>
424.816955566406

> <r_mmod_Improper_Torsional_Energy-OPLS-2005>
14.5675916671753

> <r_mmod_Van_der_Waal_Energy-OPLS-2005>
126.003913879395

> <r_mmod_Electrostatic_Energy-OPLS-2005>
-433.190765380859

> <r_mmod_Solvation_Energy-OPLS-2005>
-227.27783203125

> <b_mmod_Minimization_Converged-OPLS-2005>
0

> <r_mmod_RMS_Derivative-OPLS-2005>
3.01112580299377

$$$$
80
                    3D
 Structure written by MMmdl.
153162  0  0  1  0            999 V2000
  -30.4100  -15.3651   20.3446 C   0  0  0  0  0  0
  -30.4302  -12.8750   19.5410 C   0  0  0  0  0  0
  -29.5396  -12.5995   18.3020 C   0  0  0  0  0  0
  -28.0926  -12.3052   18.7296 C   0  0  0  0  0  0
  -27.6057  -13.2891   19.8217 C   0  0  2  0  0  0
  -28.6336  -13.5087   20.9539 C   0  0  0  0  0  0
  -25.2353  -13.8270   20.5772 C   0  0  0  0  0  0
  -24.1724  -13.0438   20.9272 C   0  0  0  0  0  0
  -24.6403  -11.6944   20.8769 C   0  0  0  0  0  0
  -23.9105  -10.4295   21.0406 C   0  0  0  0  0  0
  -24.3646   -9.4204   21.9184 C   0  0  0  0  0  0
  -23.6307   -8.2244   22.0754 C   0  0  0  0  0  0
  -22.4286   -8.0289   21.3547 C   0  0  0  0  0  0
  -21.9932   -9.0266   20.4647 C   0  0  0  0  0  0
  -22.7273  -10.2137   20.3054 C   0  0  0  0  0  0
  -21.6854   -6.0743   22.5281 C   0  0  0  0  0  0
  -21.4019   -6.5644   23.8217 C   0  0  0  0  0  0
  -21.3658   -5.6793   24.9178 C   0  0  0  0  0  0
  -21.6042   -4.3056   24.7225 C   0  0  0  0  0  0
  -21.8818   -3.8151   23.4344 C   0  0  0  0  0  0
  -21.9193   -4.6970   22.3402 C   0  0  0  0  0  0
  -22.7738  -13.5177   21.1916 C   0  0  0  0  0  0
  -22.1660   -4.2157   21.0979 F   0  0  0  0  0  0
  -21.5624   -3.4537   25.7735 F   0  0  0  0  0  0
  -29.8531  -14.0417   20.3218 N   0  0  0  0  0  0
  -26.2793  -12.9575   20.3230 N   0  0  0  0  0  0
  -25.9342  -11.6664   20.5720 N   0  0  0  0  0  0
  -22.0396  -12.8162   22.0469 N   0  0  0  0  0  0
  -25.3953  -15.2010   20.4214 N   0  0  0  0  0  0
  -31.6294  -15.3224   20.1174 O   0  0  0  0  0  0
  -21.6641   -6.8891   21.4245 O   0  0  0  0  0  0
  -22.3418  -14.5478   20.6752 O   0  0  0  0  0  0
  -24.6681  -31.8158   23.1652 C   0  0  0  0  0  0
  -25.9331  -32.4549   23.8141 C   0  0  1  0  0  0
  -27.2213  -26.8590   20.1915 C   0  0  0  0  0  0
  -25.5971  -33.8370   24.2038 N   0  0  0  0  0  0
  -23.4883  -30.4236   21.5143 C   0  0  2  0  0  0
  -24.9456  -28.7994   20.1092 C   0  0  0  0  0  0
  -22.7704  -29.4387   22.4746 C   0  0  0  0  0  0
  -18.0327  -28.1407   22.8460 C   0  0  0  0  0  0
  -24.1491  -36.7189   23.2647 C   0  0  0  0  0  0
  -26.0606  -30.5985   21.4095 C   0  0  0  0  0  0
  -26.1282  -29.1817   20.7537 C   0  0  0  0  0  0
  -27.2554  -28.2321   20.7723 C   0  0  0  0  0  0
  -26.0147  -26.6524   19.4833 C   0  0  0  0  0  0
  -24.9188  -27.5578   19.4527 C   0  0  0  0  0  0
  -23.7347  -29.7349   20.1423 C   0  0  0  0  0  0
  -25.4136  -36.2945   24.0290 C   0  0  1  0  0  0
  -20.5956  -28.3754   23.1173 C   0  0  2  0  0  0
  -20.6800  -26.9429   22.5403 C   0  0  0  0  0  0
  -19.5777  -26.6372   21.5210 C   0  0  0  0  0  0
  -18.1959  -26.7941   22.1615 C   0  0  0  0  0  0
  -19.1590  -28.8902   23.2802 C   0  0  0  0  0  0
  -18.9500  -30.1490   23.8839 C   0  0  0  0  0  0
  -17.6492  -30.6596   24.0548 C   0  0  0  0  0  0
  -25.9104  -34.9329   23.4995 C   0  0  0  0  0  0
  -16.5380  -29.9081   23.6346 C   0  0  0  0  0  0
  -16.7308  -28.6503   23.0363 C   0  0  0  0  0  0
  -26.4561  -31.6524   25.0703 C   0  0  0  0  0  0
  -25.3668  -31.3799   26.1350 C   0  0  0  0  0  0
  -27.0468  -30.2875   24.6508 C   0  0  0  0  0  0
  -27.6044  -32.4355   25.7496 C   0  0  0  0  0  0
  -27.5577  -37.1741   24.8457 C   0  0  0  0  0  0
  -21.4362  -29.3029   22.3509 N   0  0  0  0  0  0
  -26.4271  -37.3695   23.9418 N   0  0  0  0  0  0
  -24.7605  -30.9752   22.0826 N   0  0  0  0  0  0
  -23.4218  -28.7966   23.3023 O   0  0  0  0  0  0
  -28.1945  -25.7101   20.3199 O   0  0  0  0  0  0
  -26.5729  -34.8873   22.4602 O   0  0  0  0  0  0
  -23.5731  -32.1161   23.6694 O   0  0  0  0  0  0
  -29.2822  -21.4007   22.6663 C   0  0  0  0  0  0
  -28.8542  -22.5532   21.9639 C   0  0  0  0  0  0
  -29.5297  -20.1431   22.0540 C   0  0  0  0  0  0
  -29.2777  -19.9082   20.6815 C   0  0  0  0  0  0
  -28.6498  -22.5502   20.5755 C   0  0  0  0  0  0
  -31.4786  -18.4733   22.1042 C   0  0  0  0  0  0
  -31.3848  -18.5292   20.5581 C   0  0  0  0  0  0
  -30.2627  -19.0779   22.8638 C   0  0  2  0  0  0
  -29.9278  -18.3405   20.1186 C   0  0  1  0  0  0
  -28.0398  -24.0856   19.9036 C   0  0  0  0  0  0
  -28.8792  -21.1817   19.9907 N   0  0  0  0  0  0
  -29.6678  -16.6773   20.4193 N   0  0  0  0  0  0
  -29.1171  -17.8026   23.3647 Cl  0  0  0  0  0  0
  -31.4489  -13.0775   19.2088 H   0  0  0  0  0  0
  -30.5071  -11.9851   20.1679 H   0  0  0  0  0  0
  -29.9382  -11.7666   17.7215 H   0  0  0  0  0  0
  -29.5559  -13.4697   17.6441 H   0  0  0  0  0  0
  -28.0640  -11.2867   19.1182 H   0  0  0  0  0  0
  -27.4255  -12.3239   17.8671 H   0  0  0  0  0  0
  -27.5054  -14.2440   19.3041 H   0  0  0  0  0  0
  -28.8231  -12.5876   21.5070 H   0  0  0  0  0  0
  -28.2553  -14.2327   21.6768 H   0  0  0  0  0  0
  -25.2788   -9.5674   22.4768 H   0  0  0  0  0  0
  -24.0008   -7.4634   22.7478 H   0  0  0  0  0  0
  -21.0859   -8.8798   19.8958 H   0  0  0  0  0  0
  -22.3736  -10.9681   19.6168 H   0  0  0  0  0  0
  -21.2017   -7.6153   23.9726 H   0  0  0  0  0  0
  -21.1478   -6.0521   25.9081 H   0  0  0  0  0  0
  -22.0597   -2.7612   23.2841 H   0  0  0  0  0  0
  -22.4018  -11.9824   22.4858 H   0  0  0  0  0  0
  -21.1010  -13.1179   22.2676 H   0  0  0  0  0  0
  -24.6224  -15.8472   20.5414 H   0  0  0  0  0  0
  -26.2334  -15.6474   20.0743 H   0  0  0  0  0  0
  -26.7406  -32.5060   23.0854 H   0  0  0  0  0  0
  -25.0044  -33.9434   25.0139 H   0  0  0  0  0  0
  -22.8044  -31.2560   21.3374 H   0  0  0  0  0  0
  -23.3775  -35.9495   23.3249 H   0  0  0  0  0  0
  -24.3569  -36.8908   22.2076 H   0  0  0  0  0  0
  -23.7220  -37.6344   23.6749 H   0  0  0  0  0  0
  -26.2520  -31.3364   20.6292 H   0  0  0  0  0  0
  -26.9158  -30.6565   22.0713 H   0  0  0  0  0  0
  -28.1434  -28.5193   21.3175 H   0  0  0  0  0  0
  -25.8737  -25.7083   18.9784 H   0  0  0  0  0  0
  -24.0233  -27.2614   18.9235 H   0  0  0  0  0  0
  -23.8973  -30.5014   19.3838 H   0  0  0  0  0  0
  -22.8437  -29.1923   19.8216 H   0  0  0  0  0  0
  -25.1334  -36.1731   25.0778 H   0  0  0  0  0  0
  -21.0037  -28.3368   24.1299 H   0  0  0  0  0  0
  -20.5673  -26.2370   23.3647 H   0  0  0  0  0  0
  -21.6664  -26.7391   22.1214 H   0  0  0  0  0  0
  -19.6931  -25.6269   21.1275 H   0  0  0  0  0  0
  -19.6724  -27.3150   20.6715 H   0  0  0  0  0  0
  -17.4231  -26.6682   21.4017 H   0  0  0  0  0  0
  -18.0347  -26.0094   22.9020 H   0  0  0  0  0  0
  -19.7974  -30.7320   24.2186 H   0  0  0  0  0  0
  -17.5045  -31.6271   24.5162 H   0  0  0  0  0  0
  -15.5379  -30.2964   23.7707 H   0  0  0  0  0  0
  -15.8708  -28.0804   22.7110 H   0  0  0  0  0  0
  -24.5866  -30.7132   25.7658 H   0  0  0  0  0  0
  -24.8836  -32.3004   26.4631 H   0  0  0  0  0  0
  -25.7880  -30.9061   27.0225 H   0  0  0  0  0  0
  -26.3152  -29.6523   24.1505 H   0  0  0  0  0  0
  -27.3941  -29.7283   25.5205 H   0  0  0  0  0  0
  -27.9119  -30.4024   23.9978 H   0  0  0  0  0  0
  -27.2617  -33.3724   26.1898 H   0  0  0  0  0  0
  -28.3932  -32.6811   25.0372 H   0  0  0  0  0  0
  -28.0623  -31.8602   26.5551 H   0  0  0  0  0  0
  -28.2535  -38.0097   24.7562 H   0  0  0  0  0  0
  -28.1136  -36.2623   24.6211 H   0  0  0  0  0  0
  -27.2299  -37.1292   25.8859 H   0  0  0  0  0  0
  -20.9628  -29.8717   21.6628 H   0  0  0  0  0  0
  -26.0110  -38.2739   24.1474 H   0  0  0  0  0  0
  -29.4783  -21.5071   23.7236 H   0  0  0  0  0  0
  -28.6931  -23.4726   22.5108 H   0  0  0  0  0  0
  -32.3749  -19.0257   22.3886 H   0  0  0  0  0  0
  -31.6530  -17.4525   22.4456 H   0  0  0  0  0  0
  -32.0573  -17.8060   20.1009 H   0  0  0  0  0  0
  -31.7388  -19.5002   20.2075 H   0  0  0  0  0  0
  -30.6293  -19.5122   23.7956 H   0  0  0  0  0  0
  -29.8894  -18.4180   19.0315 H   0  0  0  0  0  0
  -26.9637  -23.9199   19.8719 H   0  0  0  0  0  0
  -28.3437  -24.0540   18.8573 H   0  0  0  0  0  0
  -28.6955  -16.5158   20.6331 H   0  0  0  0  0  0
  1 25  1  0  0  0
  1 30  2  0  0  0
  1 82  1  0  0  0
  2  3  1  0  0  0
  2 25  1  0  0  0
  2 84  1  0  0  0
  2 85  1  0  0  0
  3  4  1  0  0  0
  3 86  1  0  0  0
  3 87  1  0  0  0
  4  5  1  0  0  0
  4 88  1  0  0  0
  4 89  1  0  0  0
  5  6  1  0  0  0
  5 26  1  0  0  0
  5 90  1  0  0  0
  6 25  1  0  0  0
  6 91  1  0  0  0
  6 92  1  0  0  0
  7  8  2  0  0  0
  7 26  1  0  0  0
  7 29  1  0  0  0
  8  9  1  0  0  0
  8 22  1  0  0  0
  9 10  1  0  0  0
  9 27  2  0  0  0
 10 11  2  0  0  0
 10 15  1  0  0  0
 11 12  1  0  0  0
 11 93  1  0  0  0
 12 13  2  0  0  0
 12 94  1  0  0  0
 13 14  1  0  0  0
 13 31  1  0  0  0
 14 15  2  0  0  0
 14 95  1  0  0  0
 15 96  1  0  0  0
 16 17  2  0  0  0
 16 21  1  0  0  0
 16 31  1  0  0  0
 17 18  1  0  0  0
 17 97  1  0  0  0
 18 19  2  0  0  0
 18 98  1  0  0  0
 19 20  1  0  0  0
 19 24  1  0  0  0
 20 21  2  0  0  0
 20 99  1  0  0  0
 21 23  1  0  0  0
 22 28  1  0  0  0
 22 32  2  0  0  0
 26 27  1  0  0  0
 28100  1  0  0  0
 28101  1  0  0  0
 29102  1  0  0  0
 29103  1  0  0  0
 33 34  1  0  0  0
 33 66  1  0  0  0
 33 70  2  0  0  0
 34 36  1  0  0  0
 34 59  1  0  0  0
 34104  1  0  0  0
 35 44  2  0  0  0
 35 45  1  0  0  0
 35 68  1  0  0  0
 36 56  1  0  0  0
 36105  1  0  0  0
 37 39  1  0  0  0
 37 47  1  0  0  0
 37 66  1  0  0  0
 37106  1  0  0  0
 38 43  2  0  0  0
 38 46  1  0  0  0
 38 47  1  0  0  0
 39 64  1  0  0  0
 39 67  2  0  0  0
 40 52  1  0  0  0
 40 53  2  0  0  0
 40 58  1  0  0  0
 41107  1  0  0  0
 41108  1  0  0  0
 41109  1  0  0  0
 41 48  1  0  0  0
 42 43  1  0  0  0
 42 66  1  0  0  0
 42110  1  0  0  0
 42111  1  0  0  0
 43 44  1  0  0  0
 44112  1  0  0  0
 45 46  2  0  0  0
 45113  1  0  0  0
 46114  1  0  0  0
 47115  1  0  0  0
 47116  1  0  0  0
 48 56  1  0  0  0
 48 65  1  0  0  0
 48117  1  0  0  0
 49 50  1  0  0  0
 49 53  1  0  0  0
 49 64  1  0  0  0
 49118  1  0  0  0
 50 51  1  0  0  0
 50119  1  0  0  0
 50120  1  0  0  0
 51 52  1  0  0  0
 51121  1  0  0  0
 51122  1  0  0  0
 52123  1  0  0  0
 52124  1  0  0  0
 53 54  1  0  0  0
 54 55  2  0  0  0
 54125  1  0  0  0
 55 57  1  0  0  0
 55126  1  0  0  0
 56 69  2  0  0  0
 57 58  2  0  0  0
 57127  1  0  0  0
 58128  1  0  0  0
 59 60  1  0  0  0
 59 61  1  0  0  0
 59 62  1  0  0  0
 60129  1  0  0  0
 60130  1  0  0  0
 60131  1  0  0  0
 61132  1  0  0  0
 61133  1  0  0  0
 61134  1  0  0  0
 62135  1  0  0  0
 62136  1  0  0  0
 62137  1  0  0  0
 63 65  1  0  0  0
 63138  1  0  0  0
 63139  1  0  0  0
 63140  1  0  0  0
 64141  1  0  0  0
 65142  1  0  0  0
 68 80  1  0  0  0
 71 72  2  0  0  0
 71 73  1  0  0  0
 71143  1  0  0  0
 72 75  1  0  0  0
 72144  1  0  0  0
 73 74  2  0  0  0
 73 78  1  0  0  0
 74 79  1  0  0  0
 74 81  1  0  0  0
 75 80  1  0  0  0
 75 81  2  0  0  0
 76 77  1  0  0  0
 76 78  1  0  0  0
 76145  1  0  0  0
 76146  1  0  0  0
 77 79  1  0  0  0
 77147  1  0  0  0
 77148  1  0  0  0
 78 83  1  0  0  0
 78149  1  0  0  0
 79 82  1  0  0  0
 79150  1  0  0  0
 80151  1  0  0  0
 80152  1  0  0  0
 82153  1  0  0  0
M  ISO  4   1 100  68 101  80 101  82 100
M  END
> <chiral flag>
0

> <version>
0

> <s_m_source_file>
/data/baiqing/PycharmProjects/Reinvent-master-3.2/result/LINK_invent/BTK/process_docking_weight1_custom_sum_contain_oxygen_bond_distance_aromatic_linkinvent_7_9_3/rearranged_h_0176.sdf

> <i_m_source_file_index>
81

> <r_mmod_Potential_Energy-OPLS-2005>
1371.14575195312

> <r_mmod_Stretch_Energy-OPLS-2005>
708.916198730469

> <r_mmod_Bend_Energy-OPLS-2005>
505.127044677734

> <r_mmod_Torsional_Energy-OPLS-2005>
234.48258972168

> <r_mmod_Improper_Torsional_Energy-OPLS-2005>
9.36664962768555

> <r_mmod_Van_der_Waal_Energy-OPLS-2005>
133.68278503418

> <r_mmod_Electrostatic_Energy-OPLS-2005>
-563.719055175781

> <r_mmod_Solvation_Energy-OPLS-2005>
-226.807266235352

> <b_mmod_Minimization_Converged-OPLS-2005>
0

> <r_mmod_RMS_Derivative-OPLS-2005>
0.817717373371124

$$$$
81
                    3D
 Structure written by MMmdl.
145153  0  0  1  0            999 V2000
  -30.4623  -15.2187   20.3783 C   0  0  0  0  0  0
  -30.4372  -12.7769   19.5213 C   0  0  0  0  0  0
  -29.5318  -12.5654   18.2829 C   0  0  0  0  0  0
  -28.0782  -12.2993   18.7112 C   0  0  0  0  0  0
  -27.6130  -13.2713   19.8244 C   0  0  2  0  0  0
  -28.6484  -13.4317   20.9576 C   0  0  0  0  0  0
  -25.2394  -13.8242   20.5745 C   0  0  0  0  0  0
  -24.1743  -13.0436   20.9259 C   0  0  0  0  0  0
  -24.6394  -11.6932   20.8765 C   0  0  0  0  0  0
  -23.9087  -10.4293   21.0409 C   0  0  0  0  0  0
  -24.3633   -9.4206   21.9185 C   0  0  0  0  0  0
  -23.6306   -8.2242   22.0751 C   0  0  0  0  0  0
  -22.4287   -8.0281   21.3544 C   0  0  0  0  0  0
  -21.9926   -9.0255   20.4644 C   0  0  0  0  0  0
  -22.7258  -10.2134   20.3057 C   0  0  0  0  0  0
  -21.6856   -6.0738   22.5279 C   0  0  0  0  0  0
  -21.4015   -6.5640   23.8211 C   0  0  0  0  0  0
  -21.3660   -5.6793   24.9173 C   0  0  0  0  0  0
  -21.6046   -4.3056   24.7224 C   0  0  0  0  0  0
  -21.8819   -3.8148   23.4345 C   0  0  0  0  0  0
  -21.9195   -4.6965   22.3401 C   0  0  0  0  0  0
  -22.7760  -13.5189   21.1908 C   0  0  0  0  0  0
  -22.1663   -4.2150   21.0980 F   0  0  0  0  0  0
  -21.5630   -3.4539   25.7737 F   0  0  0  0  0  0
  -29.8854  -13.9222   20.3307 N   0  0  0  0  0  0
  -26.2821  -12.9513   20.3227 N   0  0  0  0  0  0
  -25.9330  -11.6620   20.5730 N   0  0  0  0  0  0
  -22.0425  -12.8166   22.0463 N   0  0  0  0  0  0
  -25.4026  -15.1976   20.4167 N   0  0  0  0  0  0
  -31.6833  -15.2156   20.1708 O   0  0  0  0  0  0
  -21.6646   -6.8882   21.4242 O   0  0  0  0  0  0
  -22.3438  -14.5493   20.6753 O   0  0  0  0  0  0
  -24.6611  -31.8263   23.1738 C   0  0  0  0  0  0
  -25.9303  -32.4604   23.8189 C   0  0  1  0  0  0
  -27.2144  -26.9514   20.1779 C   0  0  0  0  0  0
  -25.5982  -33.8417   24.2094 N   0  0  0  0  0  0
  -23.4744  -30.4404   21.5224 C   0  0  2  0  0  0
  -24.9273  -28.8358   20.1115 C   0  0  0  0  0  0
  -22.7656  -29.4458   22.4788 C   0  0  0  0  0  0
  -18.0320  -28.1411   22.8472 C   0  0  0  0  0  0
  -24.1487  -36.7202   23.2646 C   0  0  0  0  0  0
  -26.0432  -30.6407   21.4016 C   0  0  0  0  0  0
  -26.1116  -29.2339   20.7443 C   0  0  0  0  0  0
  -27.2516  -28.3125   20.7545 C   0  0  0  0  0  0
  -26.0013  -26.7062   19.4939 C   0  0  0  0  0  0
  -24.8964  -27.5917   19.4659 C   0  0  0  0  0  0
  -23.7128  -29.7604   20.1473 C   0  0  0  0  0  0
  -25.4128  -36.2972   24.0302 C   0  0  1  0  0  0
  -20.5944  -28.3751   23.1191 C   0  0  2  0  0  0
  -20.6794  -26.9435   22.5401 C   0  0  0  0  0  0
  -19.5767  -26.6383   21.5213 C   0  0  0  0  0  0
  -18.1951  -26.7945   22.1626 C   0  0  0  0  0  0
  -19.1582  -28.8902   23.2820 C   0  0  0  0  0  0
  -18.9494  -30.1491   23.8856 C   0  0  0  0  0  0
  -17.6488  -30.6603   24.0556 C   0  0  0  0  0  0
  -25.9096  -34.9357   23.5015 C   0  0  0  0  0  0
  -16.5377  -29.9090   23.6347 C   0  0  0  0  0  0
  -16.7302  -28.6508   23.0371 C   0  0  0  0  0  0
  -26.4561  -31.6543   25.0709 C   0  0  0  0  0  0
  -25.3697  -31.3792   26.1372 C   0  0  0  0  0  0
  -27.0452  -30.2911   24.6431 C   0  0  0  0  0  0
  -27.6054  -32.4352   25.7510 C   0  0  0  0  0  0
  -27.5565  -37.1756   24.8469 C   0  0  0  0  0  0
  -21.4329  -29.3045   22.3539 N   0  0  0  0  0  0
  -26.4272  -37.3709   23.9413 N   0  0  0  0  0  0
  -24.7474  -30.9952   22.0863 N   0  0  0  0  0  0
  -23.4214  -28.8022   23.3018 O   0  0  0  0  0  0
  -28.2013  -25.8384   20.2589 O   0  0  0  0  0  0
  -26.5699  -34.8888   22.4607 O   0  0  0  0  0  0
  -23.5686  -32.1221   23.6848 O   0  0  0  0  0  0
  -29.0786  -20.5763   21.4575 C   0  0  0  0  0  0
  -28.8793  -21.7837   19.1124 C   0  0  0  0  0  0
  -29.3542  -19.6577   20.3491 C   0  0  0  0  0  0
  -28.6042  -22.7055   20.2146 C   0  0  0  0  0  0
  -30.1316  -18.0935   20.4024 C   0  0  0  0  0  0
  -27.8148  -24.2589   20.0703 C   0  0  0  0  0  0
  -29.2428  -20.4030   19.1717 N   0  0  0  0  0  0
  -28.7086  -21.9599   21.3973 N   0  0  0  0  0  0
  -29.7173  -16.4912   20.4559 N   0  0  0  0  0  0
  -31.4582  -12.9724   19.1909 H   0  0  0  0  0  0
  -30.4931  -11.8677   20.1223 H   0  0  0  0  0  0
  -29.9026  -11.7378   17.6765 H   0  0  0  0  0  0
  -29.5692  -13.4527   17.6490 H   0  0  0  0  0  0
  -28.0275  -11.2735   19.0785 H   0  0  0  0  0  0
  -27.4092  -12.3507   17.8513 H   0  0  0  0  0  0
  -27.5333  -14.2415   19.3328 H   0  0  0  0  0  0
  -28.8059  -12.4945   21.4933 H   0  0  0  0  0  0
  -28.2965  -14.1563   21.6935 H   0  0  0  0  0  0
  -25.2774   -9.5683   22.4764 H   0  0  0  0  0  0
  -24.0015   -7.4630   22.7468 H   0  0  0  0  0  0
  -21.0859   -8.8777   19.8945 H   0  0  0  0  0  0
  -22.3715  -10.9675   19.6168 H   0  0  0  0  0  0
  -21.2004   -7.6147   23.9715 H   0  0  0  0  0  0
  -21.1483   -6.0523   25.9077 H   0  0  0  0  0  0
  -22.0598   -2.7610   23.2845 H   0  0  0  0  0  0
  -22.4064  -11.9834   22.4846 H   0  0  0  0  0  0
  -21.1035  -13.1164   22.2674 H   0  0  0  0  0  0
  -24.6293  -15.8455   20.5234 H   0  0  0  0  0  0
  -26.2401  -15.6384   20.0601 H   0  0  0  0  0  0
  -26.7371  -32.5148   23.0905 H   0  0  0  0  0  0
  -25.0093  -33.9499   25.0219 H   0  0  0  0  0  0
  -22.7864  -31.2716   21.3546 H   0  0  0  0  0  0
  -23.3765  -35.9518   23.3288 H   0  0  0  0  0  0
  -24.3562  -36.8866   22.2065 H   0  0  0  0  0  0
  -23.7231  -37.6380   23.6710 H   0  0  0  0  0  0
  -26.2219  -31.3847   20.6241 H   0  0  0  0  0  0
  -26.9040  -30.6952   22.0562 H   0  0  0  0  0  0
  -28.1459  -28.6136   21.2814 H   0  0  0  0  0  0
  -25.8597  -25.7602   18.9947 H   0  0  0  0  0  0
  -23.9971  -27.2815   18.9511 H   0  0  0  0  0  0
  -23.8668  -30.5304   19.3904 H   0  0  0  0  0  0
  -22.8231  -29.2140   19.8294 H   0  0  0  0  0  0
  -25.1328  -36.1767   25.0793 H   0  0  0  0  0  0
  -21.0034  -28.3356   24.1313 H   0  0  0  0  0  0
  -20.5671  -26.2372   23.3641 H   0  0  0  0  0  0
  -21.6658  -26.7412   22.1209 H   0  0  0  0  0  0
  -19.6923  -25.6284   21.1271 H   0  0  0  0  0  0
  -19.6703  -27.3168   20.6721 H   0  0  0  0  0  0
  -17.4217  -26.6689   21.4032 H   0  0  0  0  0  0
  -18.0348  -26.0100   22.9035 H   0  0  0  0  0  0
  -19.7969  -30.7318   24.2209 H   0  0  0  0  0  0
  -17.5041  -31.6280   24.5163 H   0  0  0  0  0  0
  -15.5376  -30.2980   23.7696 H   0  0  0  0  0  0
  -15.8702  -28.0808   22.7121 H   0  0  0  0  0  0
  -24.5892  -30.7122   25.7691 H   0  0  0  0  0  0
  -24.8872  -32.2994   26.4675 H   0  0  0  0  0  0
  -25.7942  -30.9047   27.0229 H   0  0  0  0  0  0
  -26.3115  -29.6596   24.1409 H   0  0  0  0  0  0
  -27.3955  -29.7267   25.5083 H   0  0  0  0  0  0
  -27.9071  -30.4093   23.9862 H   0  0  0  0  0  0
  -27.2621  -33.3694   26.1966 H   0  0  0  0  0  0
  -28.3930  -32.6849   25.0387 H   0  0  0  0  0  0
  -28.0650  -31.8563   26.5529 H   0  0  0  0  0  0
  -28.2572  -38.0062   24.7518 H   0  0  0  0  0  0
  -28.1073  -36.2592   24.6298 H   0  0  0  0  0  0
  -27.2285  -37.1403   25.8872 H   0  0  0  0  0  0
  -20.9575  -29.8736   21.6675 H   0  0  0  0  0  0
  -26.0121  -38.2765   24.1437 H   0  0  0  0  0  0
  -29.1988  -20.1986   22.4626 H   0  0  0  0  0  0
  -28.7574  -22.1582   18.1064 H   0  0  0  0  0  0
  -30.7971  -18.1934   21.2602 H   0  0  0  0  0  0
  -30.8124  -18.1355   19.5520 H   0  0  0  0  0  0
  -26.9206  -24.1381   20.6823 H   0  0  0  0  0  0
  -27.4448  -24.2174   19.0464 H   0  0  0  0  0  0
  -28.7244  -16.3497   20.5652 H   0  0  0  0  0  0
  1 25  1  0  0  0
  1 30  2  0  0  0
  1 79  1  0  0  0
  2  3  1  0  0  0
  2 25  1  0  0  0
  2 80  1  0  0  0
  2 81  1  0  0  0
  3  4  1  0  0  0
  3 82  1  0  0  0
  3 83  1  0  0  0
  4  5  1  0  0  0
  4 84  1  0  0  0
  4 85  1  0  0  0
  5  6  1  0  0  0
  5 26  1  0  0  0
  5 86  1  0  0  0
  6 25  1  0  0  0
  6 87  1  0  0  0
  6 88  1  0  0  0
  7  8  2  0  0  0
  7 26  1  0  0  0
  7 29  1  0  0  0
  8  9  1  0  0  0
  8 22  1  0  0  0
  9 10  1  0  0  0
  9 27  2  0  0  0
 10 11  2  0  0  0
 10 15  1  0  0  0
 11 12  1  0  0  0
 11 89  1  0  0  0
 12 13  2  0  0  0
 12 90  1  0  0  0
 13 14  1  0  0  0
 13 31  1  0  0  0
 14 15  2  0  0  0
 14 91  1  0  0  0
 15 92  1  0  0  0
 16 17  2  0  0  0
 16 21  1  0  0  0
 16 31  1  0  0  0
 17 18  1  0  0  0
 17 93  1  0  0  0
 18 19  2  0  0  0
 18 94  1  0  0  0
 19 20  1  0  0  0
 19 24  1  0  0  0
 20 21  2  0  0  0
 20 95  1  0  0  0
 21 23  1  0  0  0
 22 28  1  0  0  0
 22 32  2  0  0  0
 26 27  1  0  0  0
 28 96  1  0  0  0
 28 97  1  0  0  0
 29 98  1  0  0  0
 29 99  1  0  0  0
 33 34  1  0  0  0
 33 66  1  0  0  0
 33 70  2  0  0  0
 34 36  1  0  0  0
 34 59  1  0  0  0
 34100  1  0  0  0
 35 44  2  0  0  0
 35 45  1  0  0  0
 35 68  1  0  0  0
 36 56  1  0  0  0
 36101  1  0  0  0
 37 39  1  0  0  0
 37 47  1  0  0  0
 37 66  1  0  0  0
 37102  1  0  0  0
 38 43  2  0  0  0
 38 46  1  0  0  0
 38 47  1  0  0  0
 39 64  1  0  0  0
 39 67  2  0  0  0
 40 52  1  0  0  0
 40 53  2  0  0  0
 40 58  1  0  0  0
 41103  1  0  0  0
 41104  1  0  0  0
 41105  1  0  0  0
 41 48  1  0  0  0
 42 43  1  0  0  0
 42 66  1  0  0  0
 42106  1  0  0  0
 42107  1  0  0  0
 43 44  1  0  0  0
 44108  1  0  0  0
 45 46  2  0  0  0
 45109  1  0  0  0
 46110  1  0  0  0
 47111  1  0  0  0
 47112  1  0  0  0
 48 56  1  0  0  0
 48 65  1  0  0  0
 48113  1  0  0  0
 49 50  1  0  0  0
 49 53  1  0  0  0
 49 64  1  0  0  0
 49114  1  0  0  0
 50 51  1  0  0  0
 50115  1  0  0  0
 50116  1  0  0  0
 51 52  1  0  0  0
 51117  1  0  0  0
 51118  1  0  0  0
 52119  1  0  0  0
 52120  1  0  0  0
 53 54  1  0  0  0
 54 55  2  0  0  0
 54121  1  0  0  0
 55 57  1  0  0  0
 55122  1  0  0  0
 56 69  2  0  0  0
 57 58  2  0  0  0
 57123  1  0  0  0
 58124  1  0  0  0
 59 60  1  0  0  0
 59 61  1  0  0  0
 59 62  1  0  0  0
 60125  1  0  0  0
 60126  1  0  0  0
 60127  1  0  0  0
 61128  1  0  0  0
 61129  1  0  0  0
 61130  1  0  0  0
 62131  1  0  0  0
 62132  1  0  0  0
 62133  1  0  0  0
 63 65  1  0  0  0
 63134  1  0  0  0
 63135  1  0  0  0
 63136  1  0  0  0
 64137  1  0  0  0
 65138  1  0  0  0
 68 76  1  0  0  0
 71 73  2  0  0  0
 71 78  1  0  0  0
 71139  1  0  0  0
 72 74  1  0  0  0
 72 77  2  0  0  0
 72140  1  0  0  0
 73 75  1  0  0  0
 73 77  1  0  0  0
 74 76  1  0  0  0
 74 78  2  0  0  0
 75 79  1  0  0  0
 75141  1  0  0  0
 75142  1  0  0  0
 76143  1  0  0  0
 76144  1  0  0  0
 79145  1  0  0  0
M  ISO  4   1 100  68 101  76 101  79 100
M  END
> <chiral flag>
0

> <version>
0

> <s_m_source_file>
/data/baiqing/PycharmProjects/Reinvent-master-3.2/result/LINK_invent/BTK/process_docking_weight1_custom_sum_contain_oxygen_bond_distance_aromatic_linkinvent_7_9_3/rearranged_h_0176.sdf

> <i_m_source_file_index>
82

> <r_mmod_Potential_Energy-OPLS-2005>
1152.01684570312

> <r_mmod_Stretch_Energy-OPLS-2005>
491.399719238281

> <r_mmod_Bend_Energy-OPLS-2005>
425.907958984375

> <r_mmod_Torsional_Energy-OPLS-2005>
221.702178955078

> <r_mmod_Improper_Torsional_Energy-OPLS-2005>
9.51778602600098

> <r_mmod_Van_der_Waal_Energy-OPLS-2005>
134.639434814453

> <r_mmod_Electrostatic_Energy-OPLS-2005>
-310.6953125

> <r_mmod_Solvation_Energy-OPLS-2005>
-240.205139160156

> <b_mmod_Minimization_Converged-OPLS-2005>
0

> <r_mmod_RMS_Derivative-OPLS-2005>
0.432188928127289

$$$$
82
                    3D
 Structure written by MMmdl.
146154  0  0  1  0            999 V2000
  -30.2960  -15.6131   20.3262 C   0  0  0  0  0  0
  -30.4298  -13.0600   19.5434 C   0  0  0  0  0  0
  -29.5518  -12.6551   18.3237 C   0  0  0  0  0  0
  -28.1242  -12.2989   18.7649 C   0  0  0  0  0  0
  -27.5989  -13.3038   19.8153 C   0  0  2  0  0  0
  -28.6156  -13.6217   20.9380 C   0  0  0  0  0  0
  -25.2329  -13.8273   20.5773 C   0  0  0  0  0  0
  -24.1717  -13.0426   20.9279 C   0  0  0  0  0  0
  -24.6415  -11.6938   20.8758 C   0  0  0  0  0  0
  -23.9110  -10.4290   21.0393 C   0  0  0  0  0  0
  -24.3648   -9.4203   21.9174 C   0  0  0  0  0  0
  -23.6310   -8.2245   22.0752 C   0  0  0  0  0  0
  -22.4292   -8.0287   21.3544 C   0  0  0  0  0  0
  -21.9935   -9.0262   20.4646 C   0  0  0  0  0  0
  -22.7274  -10.2132   20.3050 C   0  0  0  0  0  0
  -21.6861   -6.0737   22.5274 C   0  0  0  0  0  0
  -21.4019   -6.5641   23.8205 C   0  0  0  0  0  0
  -21.3660   -5.6795   24.9166 C   0  0  0  0  0  0
  -21.6043   -4.3056   24.7220 C   0  0  0  0  0  0
  -21.8819   -3.8148   23.4343 C   0  0  0  0  0  0
  -21.9195   -4.6965   22.3399 C   0  0  0  0  0  0
  -22.7730  -13.5162   21.1914 C   0  0  0  0  0  0
  -22.1663   -4.2149   21.0975 F   0  0  0  0  0  0
  -21.5627   -3.4541   25.7733 F   0  0  0  0  0  0
  -29.7987  -14.2375   20.2935 N   0  0  0  0  0  0
  -26.2780  -12.9601   20.3223 N   0  0  0  0  0  0
  -25.9361  -11.6678   20.5700 N   0  0  0  0  0  0
  -22.0398  -12.8149   22.0472 N   0  0  0  0  0  0
  -25.3900  -15.2014   20.4186 N   0  0  0  0  0  0
  -31.5277  -15.5760   20.1277 O   0  0  0  0  0  0
  -21.6649   -6.8889   21.4242 O   0  0  0  0  0  0
  -22.3414  -14.5462   20.6751 O   0  0  0  0  0  0
  -24.6846  -31.7989   23.1505 C   0  0  0  0  0  0
  -25.9427  -32.4459   23.8044 C   0  0  1  0  0  0
  -27.2301  -26.7052   20.2072 C   0  0  0  0  0  0
  -25.6002  -33.8285   24.1944 N   0  0  0  0  0  0
  -23.5107  -30.4026   21.5019 C   0  0  2  0  0  0
  -24.9697  -28.7447   20.1125 C   0  0  0  0  0  0
  -22.7774  -29.4331   22.4685 C   0  0  0  0  0  0
  -18.0352  -28.1450   22.8468 C   0  0  0  0  0  0
  -24.1474  -36.7140   23.2655 C   0  0  0  0  0  0
  -26.0915  -30.5328   21.4156 C   0  0  0  0  0  0
  -26.1579  -29.0980   20.7637 C   0  0  0  0  0  0
  -27.2708  -28.1052   20.7821 C   0  0  0  0  0  0
  -26.0124  -26.5646   19.4924 C   0  0  0  0  0  0
  -24.9368  -27.5038   19.4529 C   0  0  0  0  0  0
  -23.7645  -29.6986   20.1370 C   0  0  0  0  0  0
  -25.4132  -36.2888   24.0279 C   0  0  1  0  0  0
  -20.5988  -28.3806   23.1138 C   0  0  2  0  0  0
  -20.6816  -26.9463   22.5407 C   0  0  0  0  0  0
  -19.5782  -26.6395   21.5225 C   0  0  0  0  0  0
  -18.1965  -26.7984   22.1629 C   0  0  0  0  0  0
  -19.1623  -28.8953   23.2786 C   0  0  0  0  0  0
  -18.9529  -30.1537   23.8832 C   0  0  0  0  0  0
  -17.6518  -30.6629   24.0566 C   0  0  0  0  0  0
  -25.9117  -34.9281   23.4946 C   0  0  0  0  0  0
  -16.5405  -29.9115   23.6364 C   0  0  0  0  0  0
  -16.7332  -28.6538   23.0377 C   0  0  0  0  0  0
  -26.4614  -31.6498   25.0667 C   0  0  0  0  0  0
  -25.3677  -31.3839   26.1277 C   0  0  0  0  0  0
  -27.0546  -30.2829   24.6586 C   0  0  0  0  0  0
  -27.6052  -32.4368   25.7490 C   0  0  0  0  0  0
  -27.5547  -37.1735   24.8481 C   0  0  0  0  0  0
  -21.4420  -29.3042   22.3434 N   0  0  0  0  0  0
  -26.4262  -37.3649   23.9409 N   0  0  0  0  0  0
  -24.7856  -30.9447   22.0747 N   0  0  0  0  0  0
  -23.4219  -28.7938   23.3035 O   0  0  0  0  0  0
  -28.1781  -25.4762   20.3098 O   0  0  0  0  0  0
  -26.5755  -34.8861   22.4565 O   0  0  0  0  0  0
  -23.5868  -32.1065   23.6462 O   0  0  0  0  0  0
  -27.8093  -20.8774   20.7599 C   0  0  0  0  0  0
  -28.1298  -19.3950   20.8041 C   0  0  0  0  0  0
  -28.5903  -22.0356   20.2640 C   0  0  0  0  0  0
  -29.7830  -21.2254   19.8261 C   0  0  0  0  0  0
  -29.3264  -18.6469   20.3635 C   0  0  0  0  0  0
  -30.8939  -21.9942   19.1421 C   0  0  0  0  0  0
  -27.9289  -23.7722   19.9854 C   0  0  0  0  0  0
  -30.0944  -19.7720   19.8921 N   0  0  0  0  0  0
  -29.4681  -16.9277   20.4321 N   0  0  0  0  0  0
  -31.4254  -13.3207   19.1825 H   0  0  0  0  0  0
  -30.5832  -12.2082   20.2084 H   0  0  0  0  0  0
  -30.0022  -11.8196   17.7860 H   0  0  0  0  0  0
  -29.5124  -13.4875   17.6191 H   0  0  0  0  0  0
  -28.1489  -11.2988   19.1993 H   0  0  0  0  0  0
  -27.4538  -12.2455   17.9061 H   0  0  0  0  0  0
  -27.4666  -14.2291   19.2525 H   0  0  0  0  0  0
  -28.8669  -12.7338   21.5203 H   0  0  0  0  0  0
  -28.1848  -14.3371   21.6404 H   0  0  0  0  0  0
  -25.2794   -9.5678   22.4745 H   0  0  0  0  0  0
  -24.0011   -7.4644   22.7485 H   0  0  0  0  0  0
  -21.0858   -8.8787   19.8962 H   0  0  0  0  0  0
  -22.3729  -10.9670   19.6158 H   0  0  0  0  0  0
  -21.2013   -7.6150   23.9708 H   0  0  0  0  0  0
  -21.1482   -6.0523   25.9067 H   0  0  0  0  0  0
  -22.0598   -2.7611   23.2838 H   0  0  0  0  0  0
  -22.4046  -11.9813   22.4845 H   0  0  0  0  0  0
  -21.1011  -13.1149   22.2686 H   0  0  0  0  0  0
  -24.6050  -15.8373   20.5079 H   0  0  0  0  0  0
  -26.2121  -15.6422   20.0293 H   0  0  0  0  0  0
  -26.7501  -32.4933   23.0747 H   0  0  0  0  0  0
  -25.0070  -33.9308   25.0044 H   0  0  0  0  0  0
  -22.8376  -31.2409   21.3108 H   0  0  0  0  0  0
  -23.3742  -35.9463   23.3306 H   0  0  0  0  0  0
  -24.3532  -36.8813   22.2070 H   0  0  0  0  0  0
  -23.7224  -37.6316   23.6737 H   0  0  0  0  0  0
  -26.2991  -31.2603   20.6299 H   0  0  0  0  0  0
  -26.9404  -30.5968   22.0840 H   0  0  0  0  0  0
  -28.1603  -28.3783   21.3318 H   0  0  0  0  0  0
  -25.8463  -25.6254   18.9840 H   0  0  0  0  0  0
  -24.0414  -27.2259   18.9143 H   0  0  0  0  0  0
  -23.9359  -30.4575   19.3726 H   0  0  0  0  0  0
  -22.8699  -29.1635   19.8142 H   0  0  0  0  0  0
  -25.1345  -36.1647   25.0768 H   0  0  0  0  0  0
  -21.0091  -28.3437   24.1255 H   0  0  0  0  0  0
  -20.5701  -26.2427   23.3674 H   0  0  0  0  0  0
  -21.6670  -26.7420   22.1205 H   0  0  0  0  0  0
  -19.6931  -25.6288   21.1297 H   0  0  0  0  0  0
  -19.6718  -27.3181   20.6733 H   0  0  0  0  0  0
  -17.4236  -26.6754   21.4023 H   0  0  0  0  0  0
  -18.0336  -26.0157   22.9050 H   0  0  0  0  0  0
  -19.8004  -30.7387   24.2154 H   0  0  0  0  0  0
  -17.5068  -31.6297   24.5196 H   0  0  0  0  0  0
  -15.5403  -30.2998   23.7733 H   0  0  0  0  0  0
  -15.8730  -28.0840   22.7119 H   0  0  0  0  0  0
  -24.5876  -30.7173   25.7584 H   0  0  0  0  0  0
  -24.8849  -32.3070   26.4486 H   0  0  0  0  0  0
  -25.7841  -30.9146   27.0194 H   0  0  0  0  0  0
  -26.3272  -29.6429   24.1584 H   0  0  0  0  0  0
  -27.3970  -29.7291   25.5337 H   0  0  0  0  0  0
  -27.9247  -30.3940   24.0114 H   0  0  0  0  0  0
  -27.2582  -33.3744   26.1846 H   0  0  0  0  0  0
  -28.3976  -32.6820   25.0403 H   0  0  0  0  0  0
  -28.0589  -31.8648   26.5592 H   0  0  0  0  0  0
  -28.2577  -38.0018   24.7482 H   0  0  0  0  0  0
  -28.1026  -36.2543   24.6365 H   0  0  0  0  0  0
  -27.2261  -37.1446   25.8885 H   0  0  0  0  0  0
  -20.9723  -29.8654   21.6465 H   0  0  0  0  0  0
  -26.0085  -38.2694   24.1420 H   0  0  0  0  0  0
  -26.8198  -21.1270   21.1138 H   0  0  0  0  0  0
  -27.3384  -18.7794   21.2088 H   0  0  0  0  0  0
  -30.5944  -23.0183   18.9220 H   0  0  0  0  0  0
  -31.1680  -21.5171   18.2016 H   0  0  0  0  0  0
  -31.7780  -22.0305   19.7787 H   0  0  0  0  0  0
  -26.8960  -23.6507   20.3129 H   0  0  0  0  0  0
  -27.8487  -23.7853   18.8983 H   0  0  0  0  0  0
  -28.5456  -16.5804   20.6400 H   0  0  0  0  0  0
  1 25  1  0  0  0
  1 30  2  0  0  0
  1 79  1  0  0  0
  2  3  1  0  0  0
  2 25  1  0  0  0
  2 80  1  0  0  0
  2 81  1  0  0  0
  3  4  1  0  0  0
  3 82  1  0  0  0
  3 83  1  0  0  0
  4  5  1  0  0  0
  4 84  1  0  0  0
  4 85  1  0  0  0
  5  6  1  0  0  0
  5 26  1  0  0  0
  5 86  1  0  0  0
  6 25  1  0  0  0
  6 87  1  0  0  0
  6 88  1  0  0  0
  7  8  2  0  0  0
  7 26  1  0  0  0
  7 29  1  0  0  0
  8  9  1  0  0  0
  8 22  1  0  0  0
  9 10  1  0  0  0
  9 27  2  0  0  0
 10 11  2  0  0  0
 10 15  1  0  0  0
 11 12  1  0  0  0
 11 89  1  0  0  0
 12 13  2  0  0  0
 12 90  1  0  0  0
 13 14  1  0  0  0
 13 31  1  0  0  0
 14 15  2  0  0  0
 14 91  1  0  0  0
 15 92  1  0  0  0
 16 17  2  0  0  0
 16 21  1  0  0  0
 16 31  1  0  0  0
 17 18  1  0  0  0
 17 93  1  0  0  0
 18 19  2  0  0  0
 18 94  1  0  0  0
 19 20  1  0  0  0
 19 24  1  0  0  0
 20 21  2  0  0  0
 20 95  1  0  0  0
 21 23  1  0  0  0
 22 28  1  0  0  0
 22 32  2  0  0  0
 26 27  1  0  0  0
 28 96  1  0  0  0
 28 97  1  0  0  0
 29 98  1  0  0  0
 29 99  1  0  0  0
 33 34  1  0  0  0
 33 66  1  0  0  0
 33 70  2  0  0  0
 34 36  1  0  0  0
 34 59  1  0  0  0
 34100  1  0  0  0
 35 44  2  0  0  0
 35 45  1  0  0  0
 35 68  1  0  0  0
 36 56  1  0  0  0
 36101  1  0  0  0
 37 39  1  0  0  0
 37 47  1  0  0  0
 37 66  1  0  0  0
 37102  1  0  0  0
 38 43  2  0  0  0
 38 46  1  0  0  0
 38 47  1  0  0  0
 39 64  1  0  0  0
 39 67  2  0  0  0
 40 52  1  0  0  0
 40 53  2  0  0  0
 40 58  1  0  0  0
 41103  1  0  0  0
 41104  1  0  0  0
 41105  1  0  0  0
 41 48  1  0  0  0
 42 43  1  0  0  0
 42 66  1  0  0  0
 42106  1  0  0  0
 42107  1  0  0  0
 43 44  1  0  0  0
 44108  1  0  0  0
 45 46  2  0  0  0
 45109  1  0  0  0
 46110  1  0  0  0
 47111  1  0  0  0
 47112  1  0  0  0
 48 56  1  0  0  0
 48 65  1  0  0  0
 48113  1  0  0  0
 49 50  1  0  0  0
 49 53  1  0  0  0
 49 64  1  0  0  0
 49114  1  0  0  0
 50 51  1  0  0  0
 50115  1  0  0  0
 50116  1  0  0  0
 51 52  1  0  0  0
 51117  1  0  0  0
 51118  1  0  0  0
 52119  1  0  0  0
 52120  1  0  0  0
 53 54  1  0  0  0
 54 55  2  0  0  0
 54121  1  0  0  0
 55 57  1  0  0  0
 55122  1  0  0  0
 56 69  2  0  0  0
 57 58  2  0  0  0
 57123  1  0  0  0
 58124  1  0  0  0
 59 60  1  0  0  0
 59 61  1  0  0  0
 59 62  1  0  0  0
 60125  1  0  0  0
 60126  1  0  0  0
 60127  1  0  0  0
 61128  1  0  0  0
 61129  1  0  0  0
 61130  1  0  0  0
 62131  1  0  0  0
 62132  1  0  0  0
 62133  1  0  0  0
 63 65  1  0  0  0
 63134  1  0  0  0
 63135  1  0  0  0
 63136  1  0  0  0
 64137  1  0  0  0
 65138  1  0  0  0
 68 77  1  0  0  0
 71 72  2  0  0  0
 71 73  1  0  0  0
 71139  1  0  0  0
 72 75  1  0  0  0
 72140  1  0  0  0
 73 74  2  0  0  0
 73 77  1  0  0  0
 74 76  1  0  0  0
 74 78  1  0  0  0
 75 78  2  0  0  0
 75 79  1  0  0  0
 76141  1  0  0  0
 76142  1  0  0  0
 76143  1  0  0  0
 77144  1  0  0  0
 77145  1  0  0  0
 79146  1  0  0  0
M  ISO  4   1 100  68 101  77 101  79 100
M  END
> <chiral flag>
0

> <version>
0

> <s_m_source_file>
/data/baiqing/PycharmProjects/Reinvent-master-3.2/result/LINK_invent/BTK/process_docking_weight1_custom_sum_contain_oxygen_bond_distance_aromatic_linkinvent_7_9_3/rearranged_h_0176.sdf

> <i_m_source_file_index>
83

> <r_mmod_Potential_Energy-OPLS-2005>
2154.05810546875

> <r_mmod_Stretch_Energy-OPLS-2005>
937.371032714844

> <r_mmod_Bend_Energy-OPLS-2005>
692.173034667969

> <r_mmod_Torsional_Energy-OPLS-2005>
219.083602905273

> <r_mmod_Improper_Torsional_Energy-OPLS-2005>
6.6822681427002

> <r_mmod_Van_der_Waal_Energy-OPLS-2005>
134.004669189453

> <r_mmod_Electrostatic_Energy-OPLS-2005>
-483.310485839844

> <r_mmod_Solvation_Energy-OPLS-2005>
-237.927536010742

> <b_mmod_Minimization_Converged-OPLS-2005>
0

> <r_mmod_RMS_Derivative-OPLS-2005>
1.33145105838776

$$$$
83
                    3D
 Structure written by MMmdl.
162171  0  0  1  0            999 V2000
  -30.5250  -14.9956   20.4153 C   0  0  0  0  0  0
  -30.4432  -12.6203   19.4989 C   0  0  0  0  0  0
  -29.5227  -12.5360   18.2585 C   0  0  0  0  0  0
  -28.0575  -12.3141   18.6787 C   0  0  0  0  0  0
  -27.6285  -13.2512   19.8374 C   0  0  2  0  0  0
  -28.6720  -13.2966   20.9735 C   0  0  0  0  0  0
  -25.2465  -13.8219   20.5720 C   0  0  0  0  0  0
  -24.1785  -13.0438   20.9231 C   0  0  0  0  0  0
  -24.6403  -11.6925   20.8757 C   0  0  0  0  0  0
  -23.9084  -10.4293   21.0407 C   0  0  0  0  0  0
  -24.3631   -9.4209   21.9187 C   0  0  0  0  0  0
  -23.6303   -8.2247   22.0757 C   0  0  0  0  0  0
  -22.4286   -8.0284   21.3545 C   0  0  0  0  0  0
  -21.9921   -9.0257   20.4647 C   0  0  0  0  0  0
  -22.7254  -10.2135   20.3058 C   0  0  0  0  0  0
  -21.6854   -6.0739   22.5279 C   0  0  0  0  0  0
  -21.4014   -6.5643   23.8211 C   0  0  0  0  0  0
  -21.3658   -5.6795   24.9172 C   0  0  0  0  0  0
  -21.6044   -4.3057   24.7222 C   0  0  0  0  0  0
  -21.8819   -3.8148   23.4342 C   0  0  0  0  0  0
  -21.9194   -4.6967   22.3400 C   0  0  0  0  0  0
  -22.7803  -13.5209   21.1881 C   0  0  0  0  0  0
  -22.1665   -4.2154   21.0977 F   0  0  0  0  0  0
  -21.5626   -3.4540   25.7732 F   0  0  0  0  0  0
  -29.9417  -13.7246   20.3714 N   0  0  0  0  0  0
  -26.2885  -12.9454   20.3249 N   0  0  0  0  0  0
  -25.9337  -11.6579   20.5747 N   0  0  0  0  0  0
  -22.0457  -12.8193   22.0431 N   0  0  0  0  0  0
  -25.4117  -15.1949   20.4137 N   0  0  0  0  0  0
  -31.7284  -15.0607   20.1400 O   0  0  0  0  0  0
  -21.6645   -6.8883   21.4240 O   0  0  0  0  0  0
  -22.3489  -14.5513   20.6726 O   0  0  0  0  0  0
  -24.6489  -31.8397   23.1855 C   0  0  0  0  0  0
  -25.9236  -32.4676   23.8258 C   0  0  1  0  0  0
  -27.2139  -27.0849   20.1518 C   0  0  0  0  0  0
  -25.5965  -33.8483   24.2166 N   0  0  0  0  0  0
  -23.4561  -30.4605   21.5318 C   0  0  2  0  0  0
  -24.9063  -28.8850   20.1078 C   0  0  0  0  0  0
  -22.7606  -29.4536   22.4832 C   0  0  0  0  0  0
  -18.0320  -28.1410   22.8478 C   0  0  0  0  0  0
  -24.1487  -36.7240   23.2647 C   0  0  0  0  0  0
  -26.0176  -30.6954   21.3969 C   0  0  0  0  0  0
  -26.0863  -29.3040   20.7345 C   0  0  0  0  0  0
  -27.2393  -28.4206   20.7418 C   0  0  0  0  0  0
  -26.0076  -26.7931   19.4708 C   0  0  0  0  0  0
  -24.8827  -27.6438   19.4597 C   0  0  0  0  0  0
  -23.6857  -29.7924   20.1509 C   0  0  0  0  0  0
  -25.4125  -36.3020   24.0313 C   0  0  1  0  0  0
  -20.5937  -28.3737   23.1218 C   0  0  2  0  0  0
  -20.6800  -26.9435   22.5398 C   0  0  0  0  0  0
  -19.5767  -26.6382   21.5216 C   0  0  0  0  0  0
  -18.1950  -26.7952   22.1623 C   0  0  0  0  0  0
  -19.1578  -28.8894   23.2843 C   0  0  0  0  0  0
  -18.9490  -30.1487   23.8870 C   0  0  0  0  0  0
  -17.6483  -30.6601   24.0562 C   0  0  0  0  0  0
  -25.9078  -34.9397   23.5047 C   0  0  0  0  0  0
  -16.5373  -29.9092   23.6343 C   0  0  0  0  0  0
  -16.7303  -28.6514   23.0362 C   0  0  0  0  0  0
  -26.4535  -31.6573   25.0726 C   0  0  0  0  0  0
  -25.3693  -31.3783   26.1399 C   0  0  0  0  0  0
  -27.0420  -30.2961   24.6363 C   0  0  0  0  0  0
  -27.6055  -32.4358   25.7510 C   0  0  0  0  0  0
  -27.5573  -37.1783   24.8470 C   0  0  0  0  0  0
  -21.4293  -29.3057   22.3583 N   0  0  0  0  0  0
  -26.4284  -37.3740   23.9411 N   0  0  0  0  0  0
  -24.7276  -31.0206   22.0923 N   0  0  0  0  0  0
  -23.4223  -28.8081   23.3003 O   0  0  0  0  0  0
  -28.2269  -26.0376   20.2438 O   0  0  0  0  0  0
  -26.5666  -34.8903   22.4625 O   0  0  0  0  0  0
  -23.5588  -32.1293   23.7035 O   0  0  0  0  0  0
  -28.6225  -23.0613   20.2255 C   0  0  0  0  0  0
  -28.1241  -21.7221   20.1102 C   0  0  0  0  0  0
  -29.9646  -22.6752   20.5638 C   0  0  0  0  0  0
  -29.6066  -18.5159   21.7261 C   0  0  0  0  0  0
  -28.9380  -19.0394   20.4774 C   0  0  2  0  0  0
  -30.0166  -17.7293   20.4999 C   0  0  2  0  0  0
  -26.1186  -22.0586   18.5515 C   0  0  0  0  0  0
  -25.7807  -21.4459   20.9866 C   0  0  0  0  0  0
  -32.2230  -23.2101   21.3769 C   0  0  0  0  0  0
  -27.8403  -24.5351   19.9642 C   0  0  0  0  0  0
  -26.7073  -21.3272   19.7690 C   0  0  0  0  0  0
  -30.2293  -21.3440   20.6566 N   0  0  0  0  0  0
  -29.0842  -20.6519   20.3886 N   0  0  0  0  0  0
  -30.9616  -23.6266   20.7775 N   0  0  0  0  0  0
  -29.7341  -16.1787   20.5810 N   0  0  0  0  0  0
  -31.4735  -12.7891   19.1816 H   0  0  0  0  0  0
  -30.4506  -11.6737   20.0420 H   0  0  0  0  0  0
  -29.8487  -11.7317   17.5974 H   0  0  0  0  0  0
  -29.6011  -13.4588   17.6808 H   0  0  0  0  0  0
  -27.9600  -11.2741   18.9926 H   0  0  0  0  0  0
  -27.3925  -12.4372   17.8226 H   0  0  0  0  0  0
  -27.5856  -14.2498   19.4011 H   0  0  0  0  0  0
  -28.7722  -12.3240   21.4573 H   0  0  0  0  0  0
  -28.3636  -13.9989   21.7496 H   0  0  0  0  0  0
  -25.2775   -9.5685   22.4763 H   0  0  0  0  0  0
  -24.0007   -7.4637   22.7479 H   0  0  0  0  0  0
  -21.0852   -8.8777   19.8952 H   0  0  0  0  0  0
  -22.3712  -10.9675   19.6168 H   0  0  0  0  0  0
  -21.2005   -7.6152   23.9714 H   0  0  0  0  0  0
  -21.1480   -6.0527   25.9076 H   0  0  0  0  0  0
  -22.0599   -2.7611   23.2839 H   0  0  0  0  0  0
  -22.4083  -11.9852   22.4803 H   0  0  0  0  0  0
  -21.1076  -13.1210   22.2649 H   0  0  0  0  0  0
  -24.6363  -15.8404   20.5161 H   0  0  0  0  0  0
  -26.2441  -15.6333   20.0420 H   0  0  0  0  0  0
  -26.7303  -32.5257   23.0980 H   0  0  0  0  0  0
  -25.0102  -33.9593   25.0308 H   0  0  0  0  0  0
  -22.7621  -31.2888   21.3755 H   0  0  0  0  0  0
  -23.3761  -35.9560   23.3295 H   0  0  0  0  0  0
  -24.3575  -36.8885   22.2065 H   0  0  0  0  0  0
  -23.7220  -37.6422   23.6694 H   0  0  0  0  0  0
  -26.1859  -31.4503   20.6278 H   0  0  0  0  0  0
  -26.8828  -30.7404   22.0465 H   0  0  0  0  0  0
  -28.1320  -28.7337   21.2649 H   0  0  0  0  0  0
  -25.8789  -25.8545   18.9551 H   0  0  0  0  0  0
  -23.9853  -27.3184   18.9522 H   0  0  0  0  0  0
  -23.8285  -30.5675   19.3968 H   0  0  0  0  0  0
  -22.7992  -29.2392   19.8362 H   0  0  0  0  0  0
  -25.1317  -36.1843   25.0806 H   0  0  0  0  0  0
  -21.0034  -28.3325   24.1338 H   0  0  0  0  0  0
  -20.5696  -26.2356   23.3626 H   0  0  0  0  0  0
  -21.6662  -26.7436   22.1186 H   0  0  0  0  0  0
  -19.6921  -25.6284   21.1266 H   0  0  0  0  0  0
  -19.6698  -27.3180   20.6737 H   0  0  0  0  0  0
  -17.4220  -26.6708   21.4024 H   0  0  0  0  0  0
  -18.0336  -26.0106   22.9026 H   0  0  0  0  0  0
  -19.7966  -30.7317   24.2219 H   0  0  0  0  0  0
  -17.5037  -31.6281   24.5169 H   0  0  0  0  0  0
  -15.5373  -30.2981   23.7694 H   0  0  0  0  0  0
  -15.8705  -28.0822   22.7088 H   0  0  0  0  0  0
  -24.5876  -30.7138   25.7700 H   0  0  0  0  0  0
  -24.8880  -32.2976   26.4748 H   0  0  0  0  0  0
  -25.7941  -30.8988   27.0225 H   0  0  0  0  0  0
  -26.3063  -29.6665   24.1343 H   0  0  0  0  0  0
  -27.3988  -29.7284   25.4968 H   0  0  0  0  0  0
  -27.8991  -30.4191   23.9736 H   0  0  0  0  0  0
  -27.2643  -33.3695   26.1990 H   0  0  0  0  0  0
  -28.3908  -32.6856   25.0364 H   0  0  0  0  0  0
  -28.0674  -31.8545   26.5498 H   0  0  0  0  0  0
  -28.2583  -38.0088   24.7520 H   0  0  0  0  0  0
  -28.1073  -36.2616   24.6292 H   0  0  0  0  0  0
  -27.2295  -37.1421   25.8874 H   0  0  0  0  0  0
  -20.9516  -29.8770   21.6751 H   0  0  0  0  0  0
  -26.0144  -38.2805   24.1414 H   0  0  0  0  0  0
  -28.9522  -18.0276   22.4457 H   0  0  0  0  0  0
  -30.3905  -19.1141   22.1863 H   0  0  0  0  0  0
  -27.8937  -18.7692   20.3524 H   0  0  0  0  0  0
  -30.9924  -17.9726   20.0826 H   0  0  0  0  0  0
  -26.7827  -21.9849   17.6894 H   0  0  0  0  0  0
  -25.9220  -23.1103   18.7431 H   0  0  0  0  0  0
  -25.1656  -21.6146   18.2635 H   0  0  0  0  0  0
  -26.1438  -20.8344   21.8132 H   0  0  0  0  0  0
  -24.7712  -21.1095   20.7494 H   0  0  0  0  0  0
  -25.7142  -22.4750   21.3401 H   0  0  0  0  0  0
  -32.8880  -24.0649   21.5052 H   0  0  0  0  0  0
  -32.7307  -22.4782   20.7466 H   0  0  0  0  0  0
  -32.0588  -22.7612   22.3580 H   0  0  0  0  0  0
  -26.8674  -24.4336   20.4442 H   0  0  0  0  0  0
  -27.6338  -24.5551   18.8951 H   0  0  0  0  0  0
  -26.7007  -20.2814   19.4727 H   0  0  0  0  0  0
  -30.7027  -24.6101   20.7957 H   0  0  0  0  0  0
  -28.7645  -15.9599   20.7538 H   0  0  0  0  0  0
  1 25  1  0  0  0
  1 30  2  0  0  0
  1 85  1  0  0  0
  2  3  1  0  0  0
  2 25  1  0  0  0
  2 86  1  0  0  0
  2 87  1  0  0  0
  3  4  1  0  0  0
  3 88  1  0  0  0
  3 89  1  0  0  0
  4  5  1  0  0  0
  4 90  1  0  0  0
  4 91  1  0  0  0
  5  6  1  0  0  0
  5 26  1  0  0  0
  5 92  1  0  0  0
  6 25  1  0  0  0
  6 93  1  0  0  0
  6 94  1  0  0  0
  7  8  2  0  0  0
  7 26  1  0  0  0
  7 29  1  0  0  0
  8  9  1  0  0  0
  8 22  1  0  0  0
  9 10  1  0  0  0
  9 27  2  0  0  0
 10 11  2  0  0  0
 10 15  1  0  0  0
 11 12  1  0  0  0
 11 95  1  0  0  0
 12 13  2  0  0  0
 12 96  1  0  0  0
 13 14  1  0  0  0
 13 31  1  0  0  0
 14 15  2  0  0  0
 14 97  1  0  0  0
 15 98  1  0  0  0
 16 17  2  0  0  0
 16 21  1  0  0  0
 16 31  1  0  0  0
 17 18  1  0  0  0
 17 99  1  0  0  0
 18 19  2  0  0  0
 18100  1  0  0  0
 19 20  1  0  0  0
 19 24  1  0  0  0
 20 21  2  0  0  0
 20101  1  0  0  0
 21 23  1  0  0  0
 22 28  1  0  0  0
 22 32  2  0  0  0
 26 27  1  0  0  0
 28102  1  0  0  0
 28103  1  0  0  0
 29104  1  0  0  0
 29105  1  0  0  0
 33 34  1  0  0  0
 33 66  1  0  0  0
 33 70  2  0  0  0
 34 36  1  0  0  0
 34 59  1  0  0  0
 34106  1  0  0  0
 35 44  2  0  0  0
 35 45  1  0  0  0
 35 68  1  0  0  0
 36 56  1  0  0  0
 36107  1  0  0  0
 37 39  1  0  0  0
 37 47  1  0  0  0
 37 66  1  0  0  0
 37108  1  0  0  0
 38 43  2  0  0  0
 38 46  1  0  0  0
 38 47  1  0  0  0
 39 64  1  0  0  0
 39 67  2  0  0  0
 40 52  1  0  0  0
 40 53  2  0  0  0
 40 58  1  0  0  0
 41109  1  0  0  0
 41110  1  0  0  0
 41111  1  0  0  0
 41 48  1  0  0  0
 42 43  1  0  0  0
 42 66  1  0  0  0
 42112  1  0  0  0
 42113  1  0  0  0
 43 44  1  0  0  0
 44114  1  0  0  0
 45 46  2  0  0  0
 45115  1  0  0  0
 46116  1  0  0  0
 47117  1  0  0  0
 47118  1  0  0  0
 48 56  1  0  0  0
 48 65  1  0  0  0
 48119  1  0  0  0
 49 50  1  0  0  0
 49 53  1  0  0  0
 49 64  1  0  0  0
 49120  1  0  0  0
 50 51  1  0  0  0
 50121  1  0  0  0
 50122  1  0  0  0
 51 52  1  0  0  0
 51123  1  0  0  0
 51124  1  0  0  0
 52125  1  0  0  0
 52126  1  0  0  0
 53 54  1  0  0  0
 54 55  2  0  0  0
 54127  1  0  0  0
 55 57  1  0  0  0
 55128  1  0  0  0
 56 69  2  0  0  0
 57 58  2  0  0  0
 57129  1  0  0  0
 58130  1  0  0  0
 59 60  1  0  0  0
 59 61  1  0  0  0
 59 62  1  0  0  0
 60131  1  0  0  0
 60132  1  0  0  0
 60133  1  0  0  0
 61134  1  0  0  0
 61135  1  0  0  0
 61136  1  0  0  0
 62137  1  0  0  0
 62138  1  0  0  0
 62139  1  0  0  0
 63 65  1  0  0  0
 63140  1  0  0  0
 63141  1  0  0  0
 63142  1  0  0  0
 64143  1  0  0  0
 65144  1  0  0  0
 68 80  1  0  0  0
 71 72  2  0  0  0
 71 73  1  0  0  0
 71 80  1  0  0  0
 72 81  1  0  0  0
 72 83  1  0  0  0
 73 82  2  0  0  0
 73 84  1  0  0  0
 74 75  1  0  0  0
 74 76  1  0  0  0
 74145  1  0  0  0
 74146  1  0  0  0
 75 76  1  0  0  0
 75 83  1  0  0  0
 75147  1  0  0  0
 76 85  1  0  0  0
 76148  1  0  0  0
 77149  1  0  0  0
 77150  1  0  0  0
 77151  1  0  0  0
 77 81  1  0  0  0
 78 81  1  0  0  0
 78152  1  0  0  0
 78153  1  0  0  0
 78154  1  0  0  0
 79 84  1  0  0  0
 79155  1  0  0  0
 79156  1  0  0  0
 79157  1  0  0  0
 80158  1  0  0  0
 80159  1  0  0  0
 81160  1  0  0  0
 82 83  1  0  0  0
 84161  1  0  0  0
 85162  1  0  0  0
M  ISO  4   1 100  68 101  80 101  85 100
M  END
> <chiral flag>
0

> <version>
0

> <s_m_source_file>
/data/baiqing/PycharmProjects/Reinvent-master-3.2/result/LINK_invent/BTK/process_docking_weight1_custom_sum_contain_oxygen_bond_distance_aromatic_linkinvent_7_9_3/rearranged_h_0176.sdf

> <i_m_source_file_index>
84

> <r_mmod_Potential_Energy-OPLS-2005>
595.744323730469

> <r_mmod_Stretch_Energy-OPLS-2005>
315.227661132812

> <r_mmod_Bend_Energy-OPLS-2005>
318.242034912109

> <r_mmod_Torsional_Energy-OPLS-2005>
278.433319091797

> <r_mmod_Improper_Torsional_Energy-OPLS-2005>
5.17472982406616

> <r_mmod_Van_der_Waal_Energy-OPLS-2005>
115.623901367188

> <r_mmod_Electrostatic_Energy-OPLS-2005>
-430.827026367188

> <r_mmod_Solvation_Energy-OPLS-2005>
-244.990051269531

> <b_mmod_Minimization_Converged-OPLS-2005>
0

> <r_mmod_RMS_Derivative-OPLS-2005>
0.981211721897125

$$$$
84
                    3D
 Structure written by MMmdl.
161171  0  0  1  0            999 V2000
  -30.5962  -14.6942   20.5126 C   0  0  0  0  0  0
  -30.4423  -12.4275   19.4687 C   0  0  0  0  0  0
  -29.5140  -12.5265   18.2366 C   0  0  0  0  0  0
  -28.0380  -12.3500   18.6438 C   0  0  0  0  0  0
  -27.6557  -13.2210   19.8708 C   0  0  2  0  0  0
  -28.6985  -13.0848   21.0036 C   0  0  0  0  0  0
  -25.2574  -13.8176   20.5686 C   0  0  0  0  0  0
  -24.1845  -13.0431   20.9178 C   0  0  0  0  0  0
  -24.6408  -11.6903   20.8723 C   0  0  0  0  0  0
  -23.9082  -10.4285   21.0383 C   0  0  0  0  0  0
  -24.3635   -9.4200   21.9161 C   0  0  0  0  0  0
  -23.6309   -8.2238   22.0751 C   0  0  0  0  0  0
  -22.4289   -8.0273   21.3538 C   0  0  0  0  0  0
  -21.9915   -9.0240   20.4634 C   0  0  0  0  0  0
  -22.7249  -10.2121   20.3034 C   0  0  0  0  0  0
  -21.6862   -6.0723   22.5274 C   0  0  0  0  0  0
  -21.4008   -6.5624   23.8202 C   0  0  0  0  0  0
  -21.3675   -5.6784   24.9171 C   0  0  0  0  0  0
  -21.6056   -4.3044   24.7228 C   0  0  0  0  0  0
  -21.8825   -3.8132   23.4347 C   0  0  0  0  0  0
  -21.9191   -4.6948   22.3400 C   0  0  0  0  0  0
  -22.7871  -13.5217   21.1847 C   0  0  0  0  0  0
  -22.1652   -4.2133   21.0981 F   0  0  0  0  0  0
  -21.5657   -3.4529   25.7746 F   0  0  0  0  0  0
  -30.0109  -13.4502   20.4486 N   0  0  0  0  0  0
  -26.3008  -12.9362   20.3350 N   0  0  0  0  0  0
  -25.9349  -11.6508   20.5784 N   0  0  0  0  0  0
  -22.0513  -12.8212   22.0409 N   0  0  0  0  0  0
  -25.4305  -15.1903   20.4127 N   0  0  0  0  0  0
  -31.7288  -14.8784   20.0545 O   0  0  0  0  0  0
  -21.6649   -6.8870   21.4239 O   0  0  0  0  0  0
  -22.3542  -14.5505   20.6685 O   0  0  0  0  0  0
  -24.6309  -31.8543   23.2021 C   0  0  0  0  0  0
  -25.9137  -32.4762   23.8361 C   0  0  1  0  0  0
  -27.2150  -27.2731   20.1083 C   0  0  0  0  0  0
  -25.5920  -33.8564   24.2266 N   0  0  0  0  0  0
  -23.4273  -30.4806   21.5413 C   0  0  2  0  0  0
  -24.8716  -28.9285   20.1049 C   0  0  0  0  0  0
  -22.7502  -29.4609   22.4887 C   0  0  0  0  0  0
  -18.0289  -28.1386   22.8490 C   0  0  0  0  0  0
  -24.1466  -36.7275   23.2655 C   0  0  0  0  0  0
  -25.9740  -30.7673   21.3828 C   0  0  0  0  0  0
  -26.0404  -29.3934   20.7179 C   0  0  0  0  0  0
  -27.2099  -28.5706   20.7209 C   0  0  0  0  0  0
  -26.0250  -26.8722   19.4650 C   0  0  0  0  0  0
  -24.8659  -27.6733   19.4740 C   0  0  0  0  0  0
  -23.6453  -29.8189   20.1542 C   0  0  0  0  0  0
  -25.4098  -36.3073   24.0339 C   0  0  1  0  0  0
  -20.5901  -28.3707   23.1249 C   0  0  2  0  0  0
  -20.6771  -26.9415   22.5411 C   0  0  0  0  0  0
  -19.5746  -26.6378   21.5213 C   0  0  0  0  0  0
  -18.1930  -26.7929   22.1621 C   0  0  0  0  0  0
  -19.1550  -28.8860   23.2872 C   0  0  0  0  0  0
  -18.9476  -30.1454   23.8902 C   0  0  0  0  0  0
  -17.6478  -30.6595   24.0557 C   0  0  0  0  0  0
  -25.9035  -34.9444   23.5095 C   0  0  0  0  0  0
  -16.5363  -29.9097   23.6317 C   0  0  0  0  0  0
  -16.7280  -28.6504   23.0359 C   0  0  0  0  0  0
  -26.4514  -31.6619   25.0760 C   0  0  0  0  0  0
  -25.3745  -31.3765   26.1486 C   0  0  0  0  0  0
  -27.0382  -30.3034   24.6284 C   0  0  0  0  0  0
  -27.6062  -32.4397   25.7511 C   0  0  0  0  0  0
  -27.5570  -37.1790   24.8475 C   0  0  0  0  0  0
  -21.4215  -29.3051   22.3637 N   0  0  0  0  0  0
  -26.4277  -37.3780   23.9421 N   0  0  0  0  0  0
  -24.6961  -31.0525   22.0970 N   0  0  0  0  0  0
  -23.4193  -28.8134   23.2991 O   0  0  0  0  0  0
  -28.3033  -26.3881   20.2301 O   0  0  0  0  0  0
  -26.5621  -34.8916   22.4670 O   0  0  0  0  0  0
  -23.5460  -32.1359   23.7314 O   0  0  0  0  0  0
  -29.6372  -19.2036   19.2676 C   0  0  0  0  0  0
  -29.8044  -17.7879   19.5143 C   0  0  0  0  0  0
  -29.6565  -18.0634   21.9525 C   0  0  0  0  0  0
  -29.4255  -20.0385   20.3847 C   0  0  0  0  0  0
  -29.4880  -19.4480   21.6857 C   0  0  0  0  0  0
  -29.8100  -17.1806   20.8267 C   0  0  0  0  0  0
  -29.4963  -20.8126   22.3452 C   0  0  0  0  0  0
  -26.9546  -22.0391   20.5313 C   0  0  0  0  0  0
  -27.2423  -23.1711   18.4811 C   0  0  0  0  0  0
  -29.4798  -21.5300   20.8853 C   0  0  2  0  0  0
  -28.3526  -22.6671   20.6487 C   0  0  1  0  0  0
  -28.4172  -23.6435   19.3736 C   0  0  2  0  0  0
  -28.5960  -25.2729   19.2898 C   0  0  0  0  0  0
  -29.8380  -15.7185   21.0379 N   0  0  0  0  0  0
  -26.6778  -21.9595   19.0934 N   0  3  0  0  0  0
  -31.4825  -12.5621   19.1663 H   0  0  0  0  0  0
  -30.3879  -11.4313   19.9113 H   0  0  0  0  0  0
  -29.7922  -11.7773   17.4945 H   0  0  0  0  0  0
  -29.6464  -13.4961   17.7561 H   0  0  0  0  0  0
  -27.8843  -11.2966   18.8778 H   0  0  0  0  0  0
  -27.3830  -12.5733   17.7997 H   0  0  0  0  0  0
  -27.6719  -14.2563   19.5304 H   0  0  0  0  0  0
  -28.7265  -12.0611   21.3803 H   0  0  0  0  0  0
  -28.4309  -13.7089   21.8582 H   0  0  0  0  0  0
  -25.2773   -9.5691   22.4743 H   0  0  0  0  0  0
  -24.0019   -7.4639   22.7481 H   0  0  0  0  0  0
  -21.0838   -8.8746   19.8950 H   0  0  0  0  0  0
  -22.3674  -10.9664   19.6154 H   0  0  0  0  0  0
  -21.1974   -7.6128   23.9703 H   0  0  0  0  0  0
  -21.1514   -6.0511   25.9083 H   0  0  0  0  0  0
  -22.0595   -2.7592   23.2852 H   0  0  0  0  0  0
  -22.4103  -11.9854   22.4791 H   0  0  0  0  0  0
  -21.1134  -13.1247   22.2624 H   0  0  0  0  0  0
  -24.6685  -15.8522   20.5200 H   0  0  0  0  0  0
  -26.2943  -15.6271   20.1150 H   0  0  0  0  0  0
  -26.7196  -32.5391   23.1096 H   0  0  0  0  0  0
  -25.0067  -33.9712   25.0408 H   0  0  0  0  0  0
  -22.7266  -31.3063   21.3981 H   0  0  0  0  0  0
  -23.3736  -35.9598   23.3314 H   0  0  0  0  0  0
  -24.3577  -36.8882   22.2074 H   0  0  0  0  0  0
  -23.7179  -37.6459   23.6675 H   0  0  0  0  0  0
  -26.1243  -31.5349   20.6213 H   0  0  0  0  0  0
  -26.8464  -30.8063   22.0250 H   0  0  0  0  0  0
  -28.1019  -28.9125   21.2273 H   0  0  0  0  0  0
  -25.9546  -25.9064   18.9949 H   0  0  0  0  0  0
  -23.9625  -27.3105   19.0006 H   0  0  0  0  0  0
  -23.7835  -30.5982   19.4036 H   0  0  0  0  0  0
  -22.7599  -29.2642   19.8389 H   0  0  0  0  0  0
  -25.1276  -36.1931   25.0837 H   0  0  0  0  0  0
  -21.0024  -28.3291   24.1358 H   0  0  0  0  0  0
  -20.5642  -26.2339   23.3638 H   0  0  0  0  0  0
  -21.6642  -26.7428   22.1217 H   0  0  0  0  0  0
  -19.6895  -25.6285   21.1247 H   0  0  0  0  0  0
  -19.6650  -27.3185   20.6737 H   0  0  0  0  0  0
  -17.4199  -26.6698   21.4017 H   0  0  0  0  0  0
  -18.0312  -26.0067   22.9015 H   0  0  0  0  0  0
  -19.7955  -30.7259   24.2288 H   0  0  0  0  0  0
  -17.5030  -31.6274   24.5162 H   0  0  0  0  0  0
  -15.5362  -30.3001   23.7627 H   0  0  0  0  0  0
  -15.8682  -28.0808   22.7089 H   0  0  0  0  0  0
  -24.5892  -30.7150   25.7809 H   0  0  0  0  0  0
  -24.8981  -32.2935   26.4966 H   0  0  0  0  0  0
  -25.8068  -30.8895   27.0233 H   0  0  0  0  0  0
  -26.2982  -29.6752   24.1305 H   0  0  0  0  0  0
  -27.4030  -29.7345   25.4843 H   0  0  0  0  0  0
  -27.8883  -30.4297   23.9572 H   0  0  0  0  0  0
  -27.2660  -33.3697   26.2084 H   0  0  0  0  0  0
  -28.3865  -32.6963   25.0334 H   0  0  0  0  0  0
  -28.0753  -31.8539   26.5423 H   0  0  0  0  0  0
  -28.2600  -38.0080   24.7528 H   0  0  0  0  0  0
  -28.1046  -36.2608   24.6285 H   0  0  0  0  0  0
  -27.2311  -37.1432   25.8888 H   0  0  0  0  0  0
  -20.9410  -29.8804   21.6859 H   0  0  0  0  0  0
  -26.0145  -38.2846   24.1439 H   0  0  0  0  0  0
  -29.7190  -19.6099   18.2695 H   0  0  0  0  0  0
  -29.9356  -17.1466   18.6547 H   0  0  0  0  0  0
  -29.6949  -17.6928   22.9698 H   0  0  0  0  0  0
  -30.3993  -20.9972   22.9279 H   0  0  0  0  0  0
  -28.5956  -20.9749   22.9390 H   0  0  0  0  0  0
  -26.2133  -22.7013   20.9825 H   0  0  0  0  0  0
  -26.8611  -21.0677   21.0166 H   0  0  0  0  0  0
  -27.5495  -22.9821   17.4502 H   0  0  0  0  0  0
  -26.4481  -23.9122   18.4475 H   0  0  0  0  0  0
  -30.4793  -21.9127   20.6769 H   0  0  0  0  0  0
  -28.3569  -23.3118   21.5287 H   0  0  0  0  0  0
  -29.2993  -23.2792   18.8440 H   0  0  0  0  0  0
  -28.1940  -25.5796   18.3238 H   0  0  0  0  0  0
  -29.6665  -25.4116   19.1397 H   0  0  0  0  0  0
  -29.0695  -15.3730   21.5948 H   0  0  0  0  0  0
  -25.6890  -21.8826   18.9112 H   0  0  0  0  0  0
  -27.1341  -21.1453   18.7137 H   0  0  0  0  0  0
  1 25  1  0  0  0
  1 30  2  0  0  0
  1 84  1  0  0  0
  2  3  1  0  0  0
  2 25  1  0  0  0
  2 86  1  0  0  0
  2 87  1  0  0  0
  3  4  1  0  0  0
  3 88  1  0  0  0
  3 89  1  0  0  0
  4  5  1  0  0  0
  4 90  1  0  0  0
  4 91  1  0  0  0
  5  6  1  0  0  0
  5 26  1  0  0  0
  5 92  1  0  0  0
  6 25  1  0  0  0
  6 93  1  0  0  0
  6 94  1  0  0  0
  7  8  2  0  0  0
  7 26  1  0  0  0
  7 29  1  0  0  0
  8  9  1  0  0  0
  8 22  1  0  0  0
  9 10  1  0  0  0
  9 27  2  0  0  0
 10 11  2  0  0  0
 10 15  1  0  0  0
 11 12  1  0  0  0
 11 95  1  0  0  0
 12 13  2  0  0  0
 12 96  1  0  0  0
 13 14  1  0  0  0
 13 31  1  0  0  0
 14 15  2  0  0  0
 14 97  1  0  0  0
 15 98  1  0  0  0
 16 17  2  0  0  0
 16 21  1  0  0  0
 16 31  1  0  0  0
 17 18  1  0  0  0
 17 99  1  0  0  0
 18 19  2  0  0  0
 18100  1  0  0  0
 19 20  1  0  0  0
 19 24  1  0  0  0
 20 21  2  0  0  0
 20101  1  0  0  0
 21 23  1  0  0  0
 22 28  1  0  0  0
 22 32  2  0  0  0
 26 27  1  0  0  0
 28102  1  0  0  0
 28103  1  0  0  0
 29104  1  0  0  0
 29105  1  0  0  0
 33 34  1  0  0  0
 33 66  1  0  0  0
 33 70  2  0  0  0
 34 36  1  0  0  0
 34 59  1  0  0  0
 34106  1  0  0  0
 35 44  2  0  0  0
 35 45  1  0  0  0
 35 68  1  0  0  0
 36 56  1  0  0  0
 36107  1  0  0  0
 37 39  1  0  0  0
 37 47  1  0  0  0
 37 66  1  0  0  0
 37108  1  0  0  0
 38 43  2  0  0  0
 38 46  1  0  0  0
 38 47  1  0  0  0
 39 64  1  0  0  0
 39 67  2  0  0  0
 40 52  1  0  0  0
 40 53  2  0  0  0
 40 58  1  0  0  0
 41109  1  0  0  0
 41110  1  0  0  0
 41111  1  0  0  0
 41 48  1  0  0  0
 42 43  1  0  0  0
 42 66  1  0  0  0
 42112  1  0  0  0
 42113  1  0  0  0
 43 44  1  0  0  0
 44114  1  0  0  0
 45 46  2  0  0  0
 45115  1  0  0  0
 46116  1  0  0  0
 47117  1  0  0  0
 47118  1  0  0  0
 48 56  1  0  0  0
 48 65  1  0  0  0
 48119  1  0  0  0
 49 50  1  0  0  0
 49 53  1  0  0  0
 49 64  1  0  0  0
 49120  1  0  0  0
 50 51  1  0  0  0
 50121  1  0  0  0
 50122  1  0  0  0
 51 52  1  0  0  0
 51123  1  0  0  0
 51124  1  0  0  0
 52125  1  0  0  0
 52126  1  0  0  0
 53 54  1  0  0  0
 54 55  2  0  0  0
 54127  1  0  0  0
 55 57  1  0  0  0
 55128  1  0  0  0
 56 69  2  0  0  0
 57 58  2  0  0  0
 57129  1  0  0  0
 58130  1  0  0  0
 59 60  1  0  0  0
 59 61  1  0  0  0
 59 62  1  0  0  0
 60131  1  0  0  0
 60132  1  0  0  0
 60133  1  0  0  0
 61134  1  0  0  0
 61135  1  0  0  0
 61136  1  0  0  0
 62137  1  0  0  0
 62138  1  0  0  0
 62139  1  0  0  0
 63 65  1  0  0  0
 63140  1  0  0  0
 63141  1  0  0  0
 63142  1  0  0  0
 64143  1  0  0  0
 65144  1  0  0  0
 68 83  1  0  0  0
 71 72  2  0  0  0
 71 74  1  0  0  0
 71145  1  0  0  0
 72 76  1  0  0  0
 72146  1  0  0  0
 73 75  1  0  0  0
 73 76  2  0  0  0
 73147  1  0  0  0
 74 75  2  0  0  0
 74 80  1  0  0  0
 75 77  1  0  0  0
 76 84  1  0  0  0
 77148  1  0  0  0
 77149  1  0  0  0
 77 80  1  0  0  0
 78 85  1  0  0  0
 78150  1  0  0  0
 78151  1  0  0  0
 78 81  1  0  0  0
 79 82  1  0  0  0
 79 85  1  0  0  0
 79152  1  0  0  0
 79153  1  0  0  0
 80 81  1  0  0  0
 80154  1  0  0  0
 81 82  1  0  0  0
 81155  1  0  0  0
 82 83  1  0  0  0
 82156  1  0  0  0
 83157  1  0  0  0
 83158  1  0  0  0
 84159  1  0  0  0
 85160  1  0  0  0
 85161  1  0  0  0
M  CHG  1  85   1
M  ISO  4   1 100  68 101  83 101  84 100
M  END
> <chiral flag>
0

> <version>
0

> <s_m_source_file>
/data/baiqing/PycharmProjects/Reinvent-master-3.2/result/LINK_invent/BTK/process_docking_weight1_custom_sum_contain_oxygen_bond_distance_aromatic_linkinvent_7_9_3/rearranged_h_0176.sdf

> <i_m_source_file_index>
85

> <r_mmod_Potential_Energy-OPLS-2005>
495.266967773438

> <r_mmod_Stretch_Energy-OPLS-2005>
129.372589111328

> <r_mmod_Bend_Energy-OPLS-2005>
612.462097167969

> <r_mmod_Torsional_Energy-OPLS-2005>
342.431945800781

> <r_mmod_Improper_Torsional_Energy-OPLS-2005>
8.12210655212402

> <r_mmod_Van_der_Waal_Energy-OPLS-2005>
125.261436462402

> <r_mmod_Electrostatic_Energy-OPLS-2005>
-310.968139648438

> <r_mmod_Solvation_Energy-OPLS-2005>
-484.051818847656

> <b_mmod_Minimization_Converged-OPLS-2005>
0

> <r_mmod_RMS_Derivative-OPLS-2005>
3.06753373146057

$$$$
85
                    3D
 Structure written by MMmdl.
158167  0  0  1  0            999 V2000
  -30.6134  -14.8035   20.4419 C   0  0  0  0  0  0
  -30.4242  -12.4950   19.4798 C   0  0  0  0  0  0
  -29.5070  -12.5091   18.2385 C   0  0  0  0  0  0
  -28.0354  -12.3277   18.6553 C   0  0  0  0  0  0
  -27.6323  -13.2433   19.8429 C   0  0  2  0  0  0
  -28.6770  -13.2269   20.9781 C   0  0  0  0  0  0
  -25.2476  -13.8220   20.5712 C   0  0  0  0  0  0
  -24.1780  -13.0446   20.9210 C   0  0  0  0  0  0
  -24.6391  -11.6931   20.8748 C   0  0  0  0  0  0
  -23.9074  -10.4297   21.0404 C   0  0  0  0  0  0
  -24.3625   -9.4213   21.9180 C   0  0  0  0  0  0
  -23.6303   -8.2247   22.0751 C   0  0  0  0  0  0
  -22.4283   -8.0279   21.3545 C   0  0  0  0  0  0
  -21.9920   -9.0249   20.4646 C   0  0  0  0  0  0
  -22.7245  -10.2129   20.3058 C   0  0  0  0  0  0
  -21.6860   -6.0736   22.5276 C   0  0  0  0  0  0
  -21.4018   -6.5643   23.8208 C   0  0  0  0  0  0
  -21.3660   -5.6797   24.9172 C   0  0  0  0  0  0
  -21.6049   -4.3059   24.7228 C   0  0  0  0  0  0
  -21.8821   -3.8149   23.4349 C   0  0  0  0  0  0
  -21.9197   -4.6964   22.3404 C   0  0  0  0  0  0
  -22.7803  -13.5210   21.1872 C   0  0  0  0  0  0
  -22.1661   -4.2150   21.0980 F   0  0  0  0  0  0
  -21.5631   -3.4543   25.7741 F   0  0  0  0  0  0
  -29.9661  -13.5842   20.3789 N   0  0  0  0  0  0
  -26.2898  -12.9447   20.3275 N   0  0  0  0  0  0
  -25.9325  -11.6581   20.5761 N   0  0  0  0  0  0
  -22.0462  -12.8187   22.0428 N   0  0  0  0  0  0
  -25.4183  -15.1947   20.4146 N   0  0  0  0  0  0
  -31.8161  -14.8434   20.1616 O   0  0  0  0  0  0
  -21.6650   -6.8875   21.4235 O   0  0  0  0  0  0
  -22.3480  -14.5510   20.6720 O   0  0  0  0  0  0
  -24.6347  -31.8504   23.1942 C   0  0  0  0  0  0
  -25.9159  -32.4724   23.8303 C   0  0  1  0  0  0
  -27.2155  -27.2106   20.1432 C   0  0  0  0  0  0
  -25.5940  -33.8531   24.2220 N   0  0  0  0  0  0
  -23.4336  -30.4709   21.5384 C   0  0  2  0  0  0
  -24.8806  -28.9057   20.1129 C   0  0  0  0  0  0
  -22.7519  -29.4575   22.4897 C   0  0  0  0  0  0
  -18.0291  -28.1390   22.8482 C   0  0  0  0  0  0
  -24.1485  -36.7268   23.2640 C   0  0  0  0  0  0
  -25.9824  -30.7458   21.3831 C   0  0  0  0  0  0
  -26.0517  -29.3613   20.7313 C   0  0  0  0  0  0
  -27.2191  -28.5256   20.7359 C   0  0  0  0  0  0
  -26.0271  -26.8401   19.4792 C   0  0  0  0  0  0
  -24.8751  -27.6545   19.4759 C   0  0  0  0  0  0
  -23.6549  -29.8006   20.1565 C   0  0  0  0  0  0
  -25.4116  -36.3047   24.0318 C   0  0  1  0  0  0
  -20.5896  -28.3701   23.1256 C   0  0  2  0  0  0
  -20.6776  -26.9413   22.5408 C   0  0  0  0  0  0
  -19.5755  -26.6382   21.5212 C   0  0  0  0  0  0
  -18.1930  -26.7935   22.1620 C   0  0  0  0  0  0
  -19.1546  -28.8866   23.2865 C   0  0  0  0  0  0
  -18.9468  -30.1466   23.8887 C   0  0  0  0  0  0
  -17.6467  -30.6592   24.0562 C   0  0  0  0  0  0
  -25.9065  -34.9424   23.5075 C   0  0  0  0  0  0
  -16.5358  -29.9087   23.6336 C   0  0  0  0  0  0
  -16.7277  -28.6504   23.0357 C   0  0  0  0  0  0
  -26.4518  -31.6573   25.0717 C   0  0  0  0  0  0
  -25.3726  -31.3744   26.1427 C   0  0  0  0  0  0
  -27.0377  -30.2977   24.6254 C   0  0  0  0  0  0
  -27.6054  -32.4333   25.7498 C   0  0  0  0  0  0
  -27.5579  -37.1779   24.8460 C   0  0  0  0  0  0
  -21.4221  -29.3037   22.3640 N   0  0  0  0  0  0
  -26.4279  -37.3758   23.9420 N   0  0  0  0  0  0
  -24.7028  -31.0429   22.0940 N   0  0  0  0  0  0
  -23.4195  -28.8120   23.3018 O   0  0  0  0  0  0
  -28.3262  -26.3201   20.1483 O   0  0  0  0  0  0
  -26.5644  -34.8911   22.4648 O   0  0  0  0  0  0
  -23.5489  -32.1348   23.7214 O   0  0  0  0  0  0
  -29.4538  -24.0281   20.0232 C   0  0  0  0  0  0
  -27.1801  -22.8281   20.7220 C   0  0  0  0  0  0
  -28.3300  -21.9803   20.5009 C   0  0  0  0  0  0
  -28.3046  -24.8702   20.2486 C   0  0  0  0  0  0
  -29.8564  -16.9211   19.3431 C   0  0  0  0  0  0
  -30.1916  -16.9620   21.6502 C   0  0  0  0  0  0
  -28.9963  -18.2720   19.4070 C   0  0  0  0  0  0
  -29.3276  -18.3020   21.7660 C   0  0  0  0  0  0
  -25.8386  -22.2359   21.1182 C   0  0  0  0  0  0
  -28.2094  -20.3701   20.7219 C   0  0  0  0  0  0
  -29.4795  -22.6381   20.1434 N   0  0  0  0  0  0
  -27.1675  -24.2066   20.6092 N   0  0  0  0  0  0
  -29.8892  -16.0113   20.5369 N   0  0  0  0  0  0
  -29.2502  -19.2129   20.5605 N   0  3  0  0  0  0
  -31.4649  -12.6154   19.1738 H   0  0  0  0  0  0
  -30.3728  -11.5311   19.9892 H   0  0  0  0  0  0
  -29.7978  -11.7221   17.5416 H   0  0  0  0  0  0
  -29.6254  -13.4526   17.7027 H   0  0  0  0  0  0
  -27.8999  -11.2811   18.9322 H   0  0  0  0  0  0
  -27.3768  -12.5019   17.8034 H   0  0  0  0  0  0
  -27.6110  -14.2565   19.4411 H   0  0  0  0  0  0
  -28.7279  -12.2469   21.4545 H   0  0  0  0  0  0
  -28.4059  -13.9408   21.7582 H   0  0  0  0  0  0
  -25.2769   -9.5693   22.4751 H   0  0  0  0  0  0
  -24.0018   -7.4643   22.7468 H   0  0  0  0  0  0
  -21.0856   -8.8764   19.8950 H   0  0  0  0  0  0
  -22.3699  -10.9664   19.6168 H   0  0  0  0  0  0
  -21.2005   -7.6151   23.9706 H   0  0  0  0  0  0
  -21.1479   -6.0530   25.9071 H   0  0  0  0  0  0
  -22.0601   -2.7612   23.2853 H   0  0  0  0  0  0
  -22.4106  -11.9856   22.4813 H   0  0  0  0  0  0
  -21.1071  -13.1183   22.2635 H   0  0  0  0  0  0
  -24.6531  -15.8510   20.5251 H   0  0  0  0  0  0
  -26.2759  -15.6301   20.1017 H   0  0  0  0  0  0
  -26.7222  -32.5353   23.1034 H   0  0  0  0  0  0
  -25.0080  -33.9664   25.0360 H   0  0  0  0  0  0
  -22.7328  -31.2947   21.3885 H   0  0  0  0  0  0
  -23.3758  -35.9586   23.3273 H   0  0  0  0  0  0
  -24.3574  -36.8930   22.2061 H   0  0  0  0  0  0
  -23.7229  -37.6450   23.6694 H   0  0  0  0  0  0
  -26.1288  -31.5009   20.6093 H   0  0  0  0  0  0
  -26.8572  -30.7962   22.0195 H   0  0  0  0  0  0
  -28.1184  -28.8730   21.2244 H   0  0  0  0  0  0
  -25.9735  -25.8869   18.9731 H   0  0  0  0  0  0
  -23.9813  -27.3041   18.9782 H   0  0  0  0  0  0
  -23.7848  -30.5744   19.3996 H   0  0  0  0  0  0
  -22.7715  -29.2379   19.8489 H   0  0  0  0  0  0
  -25.1298  -36.1877   25.0809 H   0  0  0  0  0  0
  -20.9987  -28.3286   24.1377 H   0  0  0  0  0  0
  -20.5675  -26.2312   23.3616 H   0  0  0  0  0  0
  -21.6644  -26.7431   22.1205 H   0  0  0  0  0  0
  -19.6914  -25.6290   21.1247 H   0  0  0  0  0  0
  -19.6692  -27.3186   20.6738 H   0  0  0  0  0  0
  -17.4200  -26.6682   21.4019 H   0  0  0  0  0  0
  -18.0328  -26.0079   22.9018 H   0  0  0  0  0  0
  -19.7943  -30.7285   24.2248 H   0  0  0  0  0  0
  -17.5019  -31.6269   24.5165 H   0  0  0  0  0  0
  -15.5355  -30.2985   23.7675 H   0  0  0  0  0  0
  -15.8677  -28.0823   22.7081 H   0  0  0  0  0  0
  -24.5901  -30.7094   25.7755 H   0  0  0  0  0  0
  -24.8921  -32.2924   26.4824 H   0  0  0  0  0  0
  -25.8027  -30.8940   27.0224 H   0  0  0  0  0  0
  -26.2980  -29.6706   24.1266 H   0  0  0  0  0  0
  -27.4018  -29.7266   25.4807 H   0  0  0  0  0  0
  -27.8875  -30.4230   23.9538 H   0  0  0  0  0  0
  -27.2643  -33.3637   26.2052 H   0  0  0  0  0  0
  -28.3878  -32.6892   25.0340 H   0  0  0  0  0  0
  -28.0711  -31.8481   26.5439 H   0  0  0  0  0  0
  -28.2562  -38.0109   24.7545 H   0  0  0  0  0  0
  -28.1108  -36.2640   24.6231 H   0  0  0  0  0  0
  -27.2304  -37.1365   25.8863 H   0  0  0  0  0  0
  -20.9418  -29.8746   21.6824 H   0  0  0  0  0  0
  -26.0147  -38.2817   24.1454 H   0  0  0  0  0  0
  -30.3911  -24.4867   19.7439 H   0  0  0  0  0  0
  -30.8842  -17.1860   19.0872 H   0  0  0  0  0  0
  -29.4981  -16.3362   18.4937 H   0  0  0  0  0  0
  -30.0940  -16.4143   22.5895 H   0  0  0  0  0  0
  -31.2467  -17.2360   21.5903 H   0  0  0  0  0  0
  -27.9449  -17.9813   19.4286 H   0  0  0  0  0  0
  -29.1281  -18.8275   18.4772 H   0  0  0  0  0  0
  -29.6920  -18.8844   22.6134 H   0  0  0  0  0  0
  -28.3104  -18.0061   22.0293 H   0  0  0  0  0  0
  -25.4801  -21.5460   20.3543 H   0  0  0  0  0  0
  -25.0797  -23.0096   21.2400 H   0  0  0  0  0  0
  -25.9162  -21.7008   22.0644 H   0  0  0  0  0  0
  -27.3307  -20.0668   20.1534 H   0  0  0  0  0  0
  -27.8769  -20.3076   21.7579 H   0  0  0  0  0  0
  -30.1531  -19.6452   20.4350 H   0  0  0  0  0  0
  1 25  1  0  0  0
  1 30  2  0  0  0
  1 83  1  0  0  0
  2  3  1  0  0  0
  2 25  1  0  0  0
  2 85  1  0  0  0
  2 86  1  0  0  0
  3  4  1  0  0  0
  3 87  1  0  0  0
  3 88  1  0  0  0
  4  5  1  0  0  0
  4 89  1  0  0  0
  4 90  1  0  0  0
  5  6  1  0  0  0
  5 26  1  0  0  0
  5 91  1  0  0  0
  6 25  1  0  0  0
  6 92  1  0  0  0
  6 93  1  0  0  0
  7  8  2  0  0  0
  7 26  1  0  0  0
  7 29  1  0  0  0
  8  9  1  0  0  0
  8 22  1  0  0  0
  9 10  1  0  0  0
  9 27  2  0  0  0
 10 11  2  0  0  0
 10 15  1  0  0  0
 11 12  1  0  0  0
 11 94  1  0  0  0
 12 13  2  0  0  0
 12 95  1  0  0  0
 13 14  1  0  0  0
 13 31  1  0  0  0
 14 15  2  0  0  0
 14 96  1  0  0  0
 15 97  1  0  0  0
 16 17  2  0  0  0
 16 21  1  0  0  0
 16 31  1  0  0  0
 17 18  1  0  0  0
 17 98  1  0  0  0
 18 19  2  0  0  0
 18 99  1  0  0  0
 19 20  1  0  0  0
 19 24  1  0  0  0
 20 21  2  0  0  0
 20100  1  0  0  0
 21 23  1  0  0  0
 22 28  1  0  0  0
 22 32  2  0  0  0
 26 27  1  0  0  0
 28101  1  0  0  0
 28102  1  0  0  0
 29103  1  0  0  0
 29104  1  0  0  0
 33 34  1  0  0  0
 33 66  1  0  0  0
 33 70  2  0  0  0
 34 36  1  0  0  0
 34 59  1  0  0  0
 34105  1  0  0  0
 35 44  2  0  0  0
 35 45  1  0  0  0
 35 68  1  0  0  0
 36 56  1  0  0  0
 36106  1  0  0  0
 37 39  1  0  0  0
 37 47  1  0  0  0
 37 66  1  0  0  0
 37107  1  0  0  0
 38 43  2  0  0  0
 38 46  1  0  0  0
 38 47  1  0  0  0
 39 64  1  0  0  0
 39 67  2  0  0  0
 40 52  1  0  0  0
 40 53  2  0  0  0
 40 58  1  0  0  0
 41108  1  0  0  0
 41109  1  0  0  0
 41110  1  0  0  0
 41 48  1  0  0  0
 42 43  1  0  0  0
 42 66  1  0  0  0
 42111  1  0  0  0
 42112  1  0  0  0
 43 44  1  0  0  0
 44113  1  0  0  0
 45 46  2  0  0  0
 45114  1  0  0  0
 46115  1  0  0  0
 47116  1  0  0  0
 47117  1  0  0  0
 48 56  1  0  0  0
 48 65  1  0  0  0
 48118  1  0  0  0
 49 50  1  0  0  0
 49 53  1  0  0  0
 49 64  1  0  0  0
 49119  1  0  0  0
 50 51  1  0  0  0
 50120  1  0  0  0
 50121  1  0  0  0
 51 52  1  0  0  0
 51122  1  0  0  0
 51123  1  0  0  0
 52124  1  0  0  0
 52125  1  0  0  0
 53 54  1  0  0  0
 54 55  2  0  0  0
 54126  1  0  0  0
 55 57  1  0  0  0
 55127  1  0  0  0
 56 69  2  0  0  0
 57 58  2  0  0  0
 57128  1  0  0  0
 58129  1  0  0  0
 59 60  1  0  0  0
 59 61  1  0  0  0
 59 62  1  0  0  0
 60130  1  0  0  0
 60131  1  0  0  0
 60132  1  0  0  0
 61133  1  0  0  0
 61134  1  0  0  0
 61135  1  0  0  0
 62136  1  0  0  0
 62137  1  0  0  0
 62138  1  0  0  0
 63 65  1  0  0  0
 63139  1  0  0  0
 63140  1  0  0  0
 63141  1  0  0  0
 64142  1  0  0  0
 65143  1  0  0  0
 68 74  1  0  0  0
 71 74  2  0  0  0
 71 81  1  0  0  0
 71144  1  0  0  0
 72 73  1  0  0  0
 72 79  1  0  0  0
 72 82  2  0  0  0
 73 80  1  0  0  0
 73 81  2  0  0  0
 74 82  1  0  0  0
 75 77  1  0  0  0
 75 83  1  0  0  0
 75145  1  0  0  0
 75146  1  0  0  0
 76 78  1  0  0  0
 76 83  1  0  0  0
 76147  1  0  0  0
 76148  1  0  0  0
 77 84  1  0  0  0
 77149  1  0  0  0
 77150  1  0  0  0
 78 84  1  0  0  0
 78151  1  0  0  0
 78152  1  0  0  0
 79153  1  0  0  0
 79154  1  0  0  0
 79155  1  0  0  0
 80156  1  0  0  0
 80157  1  0  0  0
 80 84  1  0  0  0
 84158  1  0  0  0
M  CHG  1  84   1
M  ISO  4   1 100  68 101  74 101  83 100
M  END
> <chiral flag>
0

> <version>
0

> <s_m_source_file>
/data/baiqing/PycharmProjects/Reinvent-master-3.2/result/LINK_invent/BTK/process_docking_weight1_custom_sum_contain_oxygen_bond_distance_aromatic_linkinvent_7_9_3/rearranged_h_0176.sdf

> <i_m_source_file_index>
86

> <r_mmod_Potential_Energy-OPLS-2005>
417.89599609375

> <r_mmod_Stretch_Energy-OPLS-2005>
152.221664428711

> <r_mmod_Bend_Energy-OPLS-2005>
244.725311279297

> <r_mmod_Torsional_Energy-OPLS-2005>
380.077484130859

> <r_mmod_Improper_Torsional_Energy-OPLS-2005>
11.942099571228

> <r_mmod_Van_der_Waal_Energy-OPLS-2005>
146.02880859375

> <r_mmod_Electrostatic_Energy-OPLS-2005>
-168.405120849609

> <r_mmod_Solvation_Energy-OPLS-2005>
-460.797882080078

> <b_mmod_Minimization_Converged-OPLS-2005>
0

> <r_mmod_RMS_Derivative-OPLS-2005>
0.851537048816681

$$$$
86
                    3D
 Structure written by MMmdl.
163172  0  0  1  0            999 V2000
  -30.6048  -14.7534   20.4674 C   0  0  0  0  0  0
  -30.4332  -12.4662   19.4658 C   0  0  0  0  0  0
  -29.5104  -12.5215   18.2283 C   0  0  0  0  0  0
  -28.0350  -12.3457   18.6413 C   0  0  0  0  0  0
  -27.6416  -13.2368   19.8496 C   0  0  2  0  0  0
  -28.6893  -13.1582   20.9821 C   0  0  0  0  0  0
  -25.2513  -13.8217   20.5722 C   0  0  0  0  0  0
  -24.1802  -13.0457   20.9224 C   0  0  0  0  0  0
  -24.6407  -11.6935   20.8753 C   0  0  0  0  0  0
  -23.9091  -10.4304   21.0400 C   0  0  0  0  0  0
  -24.3641   -9.4215   21.9176 C   0  0  0  0  0  0
  -23.6300   -8.2251   22.0743 C   0  0  0  0  0  0
  -22.4269   -8.0309   21.3540 C   0  0  0  0  0  0
  -21.9909   -9.0285   20.4634 C   0  0  0  0  0  0
  -22.7263  -10.2151   20.3044 C   0  0  0  0  0  0
  -21.6845   -6.0744   22.5278 C   0  0  0  0  0  0
  -21.4024   -6.5625   23.8228 C   0  0  0  0  0  0
  -21.3667   -5.6773   24.9178 C   0  0  0  0  0  0
  -21.6041   -4.3035   24.7201 C   0  0  0  0  0  0
  -21.8832   -3.8141   23.4319 C   0  0  0  0  0  0
  -21.9194   -4.6976   22.3384 C   0  0  0  0  0  0
  -22.7823  -13.5241   21.1876 C   0  0  0  0  0  0
  -22.1669   -4.2177   21.0946 F   0  0  0  0  0  0
  -21.5619   -3.4511   25.7715 F   0  0  0  0  0  0
  -29.9833  -13.5253   20.3978 N   0  0  0  0  0  0
  -26.2941  -12.9433   20.3289 N   0  0  0  0  0  0
  -25.9328  -11.6572   20.5747 N   0  0  0  0  0  0
  -22.0440  -12.8237   22.0413 N   0  0  0  0  0  0
  -25.4193  -15.1950   20.4142 N   0  0  0  0  0  0
  -31.7960  -14.8520   20.1611 O   0  0  0  0  0  0
  -21.6631   -6.8904   21.4245 O   0  0  0  0  0  0
  -22.3525  -14.5550   20.6729 O   0  0  0  0  0  0
  -24.6300  -31.8540   23.1984 C   0  0  0  0  0  0
  -25.9125  -32.4749   23.8318 C   0  0  1  0  0  0
  -27.2335  -27.2704   20.1204 C   0  0  0  0  0  0
  -25.5921  -33.8547   24.2251 N   0  0  0  0  0  0
  -23.4266  -30.4745   21.5412 C   0  0  2  0  0  0
  -24.8766  -28.9212   20.1051 C   0  0  0  0  0  0
  -22.7512  -29.4572   22.4923 C   0  0  0  0  0  0
  -18.0300  -28.1405   22.8479 C   0  0  0  0  0  0
  -24.1482  -36.7270   23.2631 C   0  0  0  0  0  0
  -25.9700  -30.7682   21.3774 C   0  0  0  0  0  0
  -26.0446  -29.3906   20.7200 C   0  0  0  0  0  0
  -27.2176  -28.5723   20.7250 C   0  0  0  0  0  0
  -26.0410  -26.8621   19.4812 C   0  0  0  0  0  0
  -24.8798  -27.6643   19.4774 C   0  0  0  0  0  0
  -23.6446  -29.8057   20.1568 C   0  0  0  0  0  0
  -25.4109  -36.3058   24.0319 C   0  0  1  0  0  0
  -20.5899  -28.3692   23.1290 C   0  0  2  0  0  0
  -20.6780  -26.9408   22.5423 C   0  0  0  0  0  0
  -19.5755  -26.6387   21.5222 C   0  0  0  0  0  0
  -18.1936  -26.7953   22.1628 C   0  0  0  0  0  0
  -19.1554  -28.8875   23.2877 C   0  0  0  0  0  0
  -18.9465  -30.1478   23.8891 C   0  0  0  0  0  0
  -17.6461  -30.6588   24.0572 C   0  0  0  0  0  0
  -25.9051  -34.9434   23.5094 C   0  0  0  0  0  0
  -16.5353  -29.9083   23.6338 C   0  0  0  0  0  0
  -16.7282  -28.6514   23.0339 C   0  0  0  0  0  0
  -26.4493  -31.6579   25.0711 C   0  0  0  0  0  0
  -25.3714  -31.3738   26.1439 C   0  0  0  0  0  0
  -27.0327  -30.2994   24.6184 C   0  0  0  0  0  0
  -27.6051  -32.4322   25.7478 C   0  0  0  0  0  0
  -27.5594  -37.1775   24.8446 C   0  0  0  0  0  0
  -21.4220  -29.3024   22.3672 N   0  0  0  0  0  0
  -26.4274  -37.3771   23.9432 N   0  0  0  0  0  0
  -24.6946  -31.0499   22.0954 N   0  0  0  0  0  0
  -23.4214  -28.8131   23.3035 O   0  0  0  0  0  0
  -28.3431  -26.3990   20.2336 O   0  0  0  0  0  0
  -26.5631  -34.8904   22.4667 O   0  0  0  0  0  0
  -23.5449  -32.1362   23.7284 O   0  0  0  0  0  0
  -28.5901  -23.6807   19.8139 C   0  0  0  0  0  0
  -27.5577  -22.7098   19.6045 C   0  0  0  0  0  0
  -29.6178  -22.8412   20.2582 C   0  0  0  0  0  0
  -29.5361  -18.1105   21.8630 C   0  0  0  0  0  0
  -29.4322  -18.7054   20.4893 C   0  0  2  0  0  0
  -30.2564  -17.3331   20.7749 C   0  0  2  0  0  0
  -26.1580  -22.9599   19.1161 C   0  0  0  0  0  0
  -30.9801  -23.2819   20.6947 C   0  0  0  0  0  0
  -31.8742  -21.0771   18.4793 C   0  0  0  0  0  0
  -28.5698  -25.2185   19.3492 C   0  0  0  0  0  0
  -30.8648  -19.9821   18.8564 C   0  0  0  0  0  0
  -30.0860  -20.1504   20.1876 C   0  0  1  0  0  0
  -27.9492  -21.4365   19.7850 N   0  0  0  0  0  0
  -29.2522  -21.4580   20.1519 N   0  0  0  0  0  0
  -29.8321  -15.8875   20.6962 N   0  0  0  0  0  0
  -31.4747  -12.5884   19.1678 H   0  0  0  0  0  0
  -30.3724  -11.4885   19.9444 H   0  0  0  0  0  0
  -29.7889  -11.7495   17.5097 H   0  0  0  0  0  0
  -29.6433  -13.4764   17.7164 H   0  0  0  0  0  0
  -27.8861  -11.2946   18.8940 H   0  0  0  0  0  0
  -27.3835  -12.5544   17.7912 H   0  0  0  0  0  0
  -27.6381  -14.2619   19.4781 H   0  0  0  0  0  0
  -28.7295  -12.1506   21.4004 H   0  0  0  0  0  0
  -28.4257  -13.8221   21.8052 H   0  0  0  0  0  0
  -25.2782   -9.5681   22.4749 H   0  0  0  0  0  0
  -24.0015   -7.4629   22.7439 H   0  0  0  0  0  0
  -21.0843   -8.8822   19.8916 H   0  0  0  0  0  0
  -22.3747  -10.9698   19.6154 H   0  0  0  0  0  0
  -21.2018   -7.6141   23.9752 H   0  0  0  0  0  0
  -21.1469   -6.0472   25.9090 H   0  0  0  0  0  0
  -22.0590   -2.7604   23.2800 H   0  0  0  0  0  0
  -22.3999  -11.9902   22.4847 H   0  0  0  0  0  0
  -21.1057  -13.1312   22.2573 H   0  0  0  0  0  0
  -24.6486  -15.8449   20.5146 H   0  0  0  0  0  0
  -26.2574  -15.6358   20.0578 H   0  0  0  0  0  0
  -26.7185  -32.5408   23.1050 H   0  0  0  0  0  0
  -25.0053  -33.9664   25.0388 H   0  0  0  0  0  0
  -22.7206  -31.2952   21.3959 H   0  0  0  0  0  0
  -23.3762  -35.9580   23.3241 H   0  0  0  0  0  0
  -24.3596  -36.8951   22.2062 H   0  0  0  0  0  0
  -23.7193  -37.6431   23.6696 H   0  0  0  0  0  0
  -26.1080  -31.5287   20.6077 H   0  0  0  0  0  0
  -26.8475  -30.8174   22.0105 H   0  0  0  0  0  0
  -28.1077  -28.9237   21.2291 H   0  0  0  0  0  0
  -25.9668  -25.8914   19.0162 H   0  0  0  0  0  0
  -23.9835  -27.2973   18.9958 H   0  0  0  0  0  0
  -23.7623  -30.5795   19.3974 H   0  0  0  0  0  0
  -22.7633  -29.2358   19.8573 H   0  0  0  0  0  0
  -25.1275  -36.1896   25.0801 H   0  0  0  0  0  0
  -20.9983  -28.3270   24.1417 H   0  0  0  0  0  0
  -20.5688  -26.2288   23.3615 H   0  0  0  0  0  0
  -21.6651  -26.7436   22.1218 H   0  0  0  0  0  0
  -19.6900  -25.6298   21.1246 H   0  0  0  0  0  0
  -19.6694  -27.3200   20.6753 H   0  0  0  0  0  0
  -17.4204  -26.6707   21.4031 H   0  0  0  0  0  0
  -18.0319  -26.0103   22.9028 H   0  0  0  0  0  0
  -19.7938  -30.7319   24.2238 H   0  0  0  0  0  0
  -17.4999  -31.6268   24.5175 H   0  0  0  0  0  0
  -15.5346  -30.2968   23.7667 H   0  0  0  0  0  0
  -15.8691  -28.0823   22.7039 H   0  0  0  0  0  0
  -24.5860  -30.7118   25.7777 H   0  0  0  0  0  0
  -24.8942  -32.2911   26.4890 H   0  0  0  0  0  0
  -25.8023  -30.8888   27.0203 H   0  0  0  0  0  0
  -26.2897  -29.6764   24.1189 H   0  0  0  0  0  0
  -27.3993  -29.7238   25.4693 H   0  0  0  0  0  0
  -27.8783  -30.4279   23.9425 H   0  0  0  0  0  0
  -27.2659  -33.3634   26.2028 H   0  0  0  0  0  0
  -28.3860  -32.6863   25.0299 H   0  0  0  0  0  0
  -28.0703  -31.8462   26.5413 H   0  0  0  0  0  0
  -28.2532  -38.0153   24.7603 H   0  0  0  0  0  0
  -28.1167  -36.2692   24.6110 H   0  0  0  0  0  0
  -27.2342  -37.1233   25.8850 H   0  0  0  0  0  0
  -20.9415  -29.8712   21.6845 H   0  0  0  0  0  0
  -26.0145  -38.2822   24.1505 H   0  0  0  0  0  0
  -28.6201  -17.6897   22.2742 H   0  0  0  0  0  0
  -30.1619  -18.6144   22.5961 H   0  0  0  0  0  0
  -28.4942  -18.5559   19.9574 H   0  0  0  0  0  0
  -31.3365  -17.4690   20.7360 H   0  0  0  0  0  0
  -25.5354  -23.3722   19.9105 H   0  0  0  0  0  0
  -25.6812  -22.0441   18.7674 H   0  0  0  0  0  0
  -26.1453  -23.6644   18.2841 H   0  0  0  0  0  0
  -30.8987  -24.0098   21.5012 H   0  0  0  0  0  0
  -31.5206  -23.7597   19.8776 H   0  0  0  0  0  0
  -31.5851  -22.4579   21.0661 H   0  0  0  0  0  0
  -32.4115  -20.7979   17.5726 H   0  0  0  0  0  0
  -32.6202  -21.2245   19.2616 H   0  0  0  0  0  0
  -31.3888  -22.0304   18.2741 H   0  0  0  0  0  0
  -27.9567  -25.3206   18.4550 H   0  0  0  0  0  0
  -29.5613  -25.4309   18.9480 H   0  0  0  0  0  0
  -31.4251  -19.0470   18.8970 H   0  0  0  0  0  0
  -30.1519  -19.8612   18.0410 H   0  0  0  0  0  0
  -30.8310  -20.2995   20.9691 H   0  0  0  0  0  0
  -28.8563  -15.7037   20.8753 H   0  0  0  0  0  0
  1 25  1  0  0  0
  1 30  2  0  0  0
  1 85  1  0  0  0
  2  3  1  0  0  0
  2 25  1  0  0  0
  2 86  1  0  0  0
  2 87  1  0  0  0
  3  4  1  0  0  0
  3 88  1  0  0  0
  3 89  1  0  0  0
  4  5  1  0  0  0
  4 90  1  0  0  0
  4 91  1  0  0  0
  5  6  1  0  0  0
  5 26  1  0  0  0
  5 92  1  0  0  0
  6 25  1  0  0  0
  6 93  1  0  0  0
  6 94  1  0  0  0
  7  8  2  0  0  0
  7 26  1  0  0  0
  7 29  1  0  0  0
  8  9  1  0  0  0
  8 22  1  0  0  0
  9 10  1  0  0  0
  9 27  2  0  0  0
 10 11  2  0  0  0
 10 15  1  0  0  0
 11 12  1  0  0  0
 11 95  1  0  0  0
 12 13  2  0  0  0
 12 96  1  0  0  0
 13 14  1  0  0  0
 13 31  1  0  0  0
 14 15  2  0  0  0
 14 97  1  0  0  0
 15 98  1  0  0  0
 16 17  2  0  0  0
 16 21  1  0  0  0
 16 31  1  0  0  0
 17 18  1  0  0  0
 17 99  1  0  0  0
 18 19  2  0  0  0
 18100  1  0  0  0
 19 20  1  0  0  0
 19 24  1  0  0  0
 20 21  2  0  0  0
 20101  1  0  0  0
 21 23  1  0  0  0
 22 28  1  0  0  0
 22 32  2  0  0  0
 26 27  1  0  0  0
 28102  1  0  0  0
 28103  1  0  0  0
 29104  1  0  0  0
 29105  1  0  0  0
 33 34  1  0  0  0
 33 66  1  0  0  0
 33 70  2  0  0  0
 34 36  1  0  0  0
 34 59  1  0  0  0
 34106  1  0  0  0
 35 44  2  0  0  0
 35 45  1  0  0  0
 35 68  1  0  0  0
 36 56  1  0  0  0
 36107  1  0  0  0
 37 39  1  0  0  0
 37 47  1  0  0  0
 37 66  1  0  0  0
 37108  1  0  0  0
 38 43  2  0  0  0
 38 46  1  0  0  0
 38 47  1  0  0  0
 39 64  1  0  0  0
 39 67  2  0  0  0
 40 52  1  0  0  0
 40 53  2  0  0  0
 40 58  1  0  0  0
 41109  1  0  0  0
 41110  1  0  0  0
 41111  1  0  0  0
 41 48  1  0  0  0
 42 43  1  0  0  0
 42 66  1  0  0  0
 42112  1  0  0  0
 42113  1  0  0  0
 43 44  1  0  0  0
 44114  1  0  0  0
 45 46  2  0  0  0
 45115  1  0  0  0
 46116  1  0  0  0
 47117  1  0  0  0
 47118  1  0  0  0
 48 56  1  0  0  0
 48 65  1  0  0  0
 48119  1  0  0  0
 49 50  1  0  0  0
 49 53  1  0  0  0
 49 64  1  0  0  0
 49120  1  0  0  0
 50 51  1  0  0  0
 50121  1  0  0  0
 50122  1  0  0  0
 51 52  1  0  0  0
 51123  1  0  0  0
 51124  1  0  0  0
 52125  1  0  0  0
 52126  1  0  0  0
 53 54  1  0  0  0
 54 55  2  0  0  0
 54127  1  0  0  0
 55 57  1  0  0  0
 55128  1  0  0  0
 56 69  2  0  0  0
 57 58  2  0  0  0
 57129  1  0  0  0
 58130  1  0  0  0
 59 60  1  0  0  0
 59 61  1  0  0  0
 59 62  1  0  0  0
 60131  1  0  0  0
 60132  1  0  0  0
 60133  1  0  0  0
 61134  1  0  0  0
 61135  1  0  0  0
 61136  1  0  0  0
 62137  1  0  0  0
 62138  1  0  0  0
 62139  1  0  0  0
 63 65  1  0  0  0
 63140  1  0  0  0
 63141  1  0  0  0
 63142  1  0  0  0
 64143  1  0  0  0
 65144  1  0  0  0
 68 80  1  0  0  0
 71 72  1  0  0  0
 71 73  2  0  0  0
 71 80  1  0  0  0
 72 77  1  0  0  0
 72 83  2  0  0  0
 73 78  1  0  0  0
 73 84  1  0  0  0
 74 76  1  0  0  0
 74145  1  0  0  0
 74146  1  0  0  0
 74 75  1  0  0  0
 75 76  1  0  0  0
 75 82  1  0  0  0
 75147  1  0  0  0
 76 85  1  0  0  0
 76148  1  0  0  0
 77149  1  0  0  0
 77150  1  0  0  0
 77151  1  0  0  0
 78152  1  0  0  0
 78153  1  0  0  0
 78154  1  0  0  0
 79 81  1  0  0  0
 79155  1  0  0  0
 79156  1  0  0  0
 79157  1  0  0  0
 80158  1  0  0  0
 80159  1  0  0  0
 81160  1  0  0  0
 81161  1  0  0  0
 81 82  1  0  0  0
 82 84  1  0  0  0
 82162  1  0  0  0
 83 84  1  0  0  0
 85163  1  0  0  0
M  ISO  4   1 100  68 101  80 101  85 100
M  END
> <chiral flag>
0

> <version>
0

> <s_m_source_file>
/data/baiqing/PycharmProjects/Reinvent-master-3.2/result/LINK_invent/BTK/process_docking_weight1_custom_sum_contain_oxygen_bond_distance_aromatic_linkinvent_7_9_3/rearranged_h_0176.sdf

> <i_m_source_file_index>
87

> <r_mmod_Potential_Energy-OPLS-2005>
253.005615234375

> <r_mmod_Stretch_Energy-OPLS-2005>
135.930801391602

> <r_mmod_Bend_Energy-OPLS-2005>
194.870544433594

> <r_mmod_Torsional_Energy-OPLS-2005>
312.045532226562

> <r_mmod_Improper_Torsional_Energy-OPLS-2005>
7.47780561447144

> <r_mmod_Van_der_Waal_Energy-OPLS-2005>
107.441284179688

> <r_mmod_Electrostatic_Energy-OPLS-2005>
-374.031982421875

> <r_mmod_Solvation_Energy-OPLS-2005>
-216.440475463867

> <b_mmod_Minimization_Converged-OPLS-2005>
0

> <r_mmod_RMS_Derivative-OPLS-2005>
2.86081290245056

$$$$
87
                    3D
 Structure written by MMmdl.
176187  0  0  1  0            999 V2000
  -30.7394  -14.4950   20.5081 C   0  0  0  0  0  0
  -30.4064  -12.3081   19.4331 C   0  0  0  0  0  0
  -29.4867  -12.4859   18.2112 C   0  0  0  0  0  0
  -28.0097  -12.3479   18.6275 C   0  0  0  0  0  0
  -27.6496  -13.2104   19.8670 C   0  0  2  0  0  0
  -28.7024  -13.0737   20.9915 C   0  0  0  0  0  0
  -25.2572  -13.8164   20.5731 C   0  0  0  0  0  0
  -24.1818  -13.0422   20.9197 C   0  0  0  0  0  0
  -24.6377  -11.6904   20.8750 C   0  0  0  0  0  0
  -23.9039  -10.4284   21.0411 C   0  0  0  0  0  0
  -24.3598   -9.4208   21.9189 C   0  0  0  0  0  0
  -23.6284   -8.2230   22.0752 C   0  0  0  0  0  0
  -22.4268   -8.0263   21.3536 C   0  0  0  0  0  0
  -21.9895   -9.0237   20.4639 C   0  0  0  0  0  0
  -22.7213  -10.2129   20.3056 C   0  0  0  0  0  0
  -21.6858   -6.0732   22.5277 C   0  0  0  0  0  0
  -21.4019   -6.5638   23.8210 C   0  0  0  0  0  0
  -21.3666   -5.6797   24.9173 C   0  0  0  0  0  0
  -21.6045   -4.3053   24.7228 C   0  0  0  0  0  0
  -21.8817   -3.8144   23.4346 C   0  0  0  0  0  0
  -21.9187   -4.6959   22.3404 C   0  0  0  0  0  0
  -22.7836  -13.5229   21.1853 C   0  0  0  0  0  0
  -22.1651   -4.2147   21.0979 F   0  0  0  0  0  0
  -21.5628   -3.4533   25.7737 F   0  0  0  0  0  0
  -30.0255  -13.3389   20.4107 N   0  0  0  0  0  0
  -26.2983  -12.9322   20.3398 N   0  0  0  0  0  0
  -25.9314  -11.6484   20.5823 N   0  0  0  0  0  0
  -22.0482  -12.8213   22.0411 N   0  0  0  0  0  0
  -25.4296  -15.1877   20.4163 N   0  0  0  0  0  0
  -31.9187  -14.5667   20.1496 O   0  0  0  0  0  0
  -21.6626   -6.8867   21.4237 O   0  0  0  0  0  0
  -22.3517  -14.5536   20.6720 O   0  0  0  0  0  0
  -24.6142  -31.8714   23.2098 C   0  0  0  0  0  0
  -25.9055  -32.4820   23.8402 C   0  0  1  0  0  0
  -27.2244  -27.4065   20.0989 C   0  0  0  0  0  0
  -25.5950  -33.8626   24.2353 N   0  0  0  0  0  0
  -23.4019  -30.4915   21.5523 C   0  0  2  0  0  0
  -24.8501  -28.9621   20.1048 C   0  0  0  0  0  0
  -22.7428  -29.4656   22.5026 C   0  0  0  0  0  0
  -18.0283  -28.1367   22.8496 C   0  0  0  0  0  0
  -24.1501  -36.7301   23.2622 C   0  0  0  0  0  0
  -25.9327  -30.8204   21.3717 C   0  0  0  0  0  0
  -26.0075  -29.4518   20.7228 C   0  0  0  0  0  0
  -27.1912  -28.6748   20.7304 C   0  0  0  0  0  0
  -26.0728  -26.9809   19.4078 C   0  0  0  0  0  0
  -24.8795  -27.7263   19.4411 C   0  0  0  0  0  0
  -23.6099  -29.8265   20.1645 C   0  0  0  0  0  0
  -25.4118  -36.3117   24.0328 C   0  0  1  0  0  0
  -20.5868  -28.3653   23.1354 C   0  0  2  0  0  0
  -20.6785  -26.9413   22.5429 C   0  0  0  0  0  0
  -19.5767  -26.6383   21.5229 C   0  0  0  0  0  0
  -18.1930  -26.7926   22.1611 C   0  0  0  0  0  0
  -19.1528  -28.8827   23.2911 C   0  0  0  0  0  0
  -18.9449  -30.1438   23.8900 C   0  0  0  0  0  0
  -17.6447  -30.6569   24.0566 C   0  0  0  0  0  0
  -25.9040  -34.9469   23.5124 C   0  0  0  0  0  0
  -16.5341  -29.9069   23.6308 C   0  0  0  0  0  0
  -16.7272  -28.6487   23.0337 C   0  0  0  0  0  0
  -26.4486  -31.6551   25.0693 C   0  0  0  0  0  0
  -25.3726  -31.3646   26.1416 C   0  0  0  0  0  0
  -27.0267  -30.2973   24.6031 C   0  0  0  0  0  0
  -27.6110  -32.4246   25.7424 C   0  0  0  0  0  0
  -27.5588  -37.1818   24.8455 C   0  0  0  0  0  0
  -21.4158  -29.3020   22.3752 N   0  0  0  0  0  0
  -26.4303  -37.3796   23.9403 N   0  0  0  0  0  0
  -24.6670  -31.0789   22.1019 N   0  0  0  0  0  0
  -23.4200  -28.8208   23.3073 O   0  0  0  0  0  0
  -28.3709  -26.6352   20.1984 O   0  0  0  0  0  0
  -26.5578  -34.8923   22.4666 O   0  0  0  0  0  0
  -23.5339  -32.1503   23.7491 O   0  0  0  0  0  0
  -28.5048  -20.5562   21.8063 C   0  0  0  0  0  0
  -28.0534  -21.8931   21.8585 C   0  0  0  0  0  0
  -29.2368  -20.0992   20.6905 C   0  0  0  0  0  0
  -28.3046  -22.7577   20.7624 C   0  0  0  0  0  0
  -29.4869  -21.0486   19.6628 C   0  0  0  0  0  0
  -27.3019  -22.3520   23.0997 C   0  0  0  0  0  0
  -26.4853  -23.6353   22.9100 C   0  0  0  0  0  0
  -30.1614  -21.4824   17.1450 C   0  0  0  0  0  0
  -29.8699  -20.0117   17.2651 C   0  0  0  0  0  0
  -27.2140  -24.6623   22.0306 C   0  0  0  0  0  0
  -30.0019  -17.9282   21.9598 C   0  0  0  0  0  0
  -28.8965  -17.6933   19.7979 C   0  0  0  0  0  0
  -30.6900  -16.5472   21.7712 C   0  0  0  0  0  0
  -29.6507  -16.3712   19.5433 C   0  0  0  0  0  0
  -29.7756  -18.6488   20.6161 C   0  0  0  0  0  0
  -30.3709  -20.7752   18.4730 C   0  0  0  0  0  0
  -27.5722  -24.1242   20.6223 C   0  0  2  0  0  0
  -26.2752  -23.7667   19.8503 C   0  0  0  0  0  0
  -28.4159  -25.2227   19.8364 C   0  0  0  0  0  0
  -29.0053  -22.3149   19.6967 N   0  0  0  0  0  0
  -30.0617  -15.6452   20.7701 N   0  0  0  0  0  0
  -31.4530  -12.3747   19.1294 H   0  0  0  0  0  0
  -30.2850  -11.3145   19.8668 H   0  0  0  0  0  0
  -29.7286  -11.7446   17.4491 H   0  0  0  0  0  0
  -29.6558  -13.4618   17.7545 H   0  0  0  0  0  0
  -27.8275  -11.2948   18.8453 H   0  0  0  0  0  0
  -27.3567  -12.6011   17.7913 H   0  0  0  0  0  0
  -27.6532  -14.2424   19.5305 H   0  0  0  0  0  0
  -28.6819  -12.0702   21.4191 H   0  0  0  0  0  0
  -28.4827  -13.7588   21.8122 H   0  0  0  0  0  0
  -25.2748   -9.5685   22.4756 H   0  0  0  0  0  0
  -23.9998   -7.4625   22.7476 H   0  0  0  0  0  0
  -21.0823   -8.8752   19.8939 H   0  0  0  0  0  0
  -22.3671  -10.9663   19.6153 H   0  0  0  0  0  0
  -21.2015   -7.6146   23.9719 H   0  0  0  0  0  0
  -21.1493   -6.0520   25.9084 H   0  0  0  0  0  0
  -22.0592   -2.7602   23.2845 H   0  0  0  0  0  0
  -22.4093  -11.9856   22.4769 H   0  0  0  0  0  0
  -21.1104  -13.1238   22.2655 H   0  0  0  0  0  0
  -24.6713  -15.8493   20.5414 H   0  0  0  0  0  0
  -26.3010  -15.6267   20.1470 H   0  0  0  0  0  0
  -26.7100  -32.5537   23.1170 H   0  0  0  0  0  0
  -25.0238  -33.9805   25.0597 H   0  0  0  0  0  0
  -22.6857  -31.3038   21.4107 H   0  0  0  0  0  0
  -23.3774  -35.9621   23.3288 H   0  0  0  0  0  0
  -24.3611  -36.8894   22.2034 H   0  0  0  0  0  0
  -23.7226  -37.6504   23.6611 H   0  0  0  0  0  0
  -26.0419  -31.5767   20.5955 H   0  0  0  0  0  0
  -26.8260  -30.8852   21.9791 H   0  0  0  0  0  0
  -28.0747  -29.0369   21.2387 H   0  0  0  0  0  0
  -26.0903  -26.0840   18.8160 H   0  0  0  0  0  0
  -24.0061  -27.3656   18.9186 H   0  0  0  0  0  0
  -23.7075  -30.6050   19.4065 H   0  0  0  0  0  0
  -22.7362  -29.2439   19.8698 H   0  0  0  0  0  0
  -25.1292  -36.2004   25.0813 H   0  0  0  0  0  0
  -20.9965  -28.3232   24.1479 H   0  0  0  0  0  0
  -20.5729  -26.2299   23.3636 H   0  0  0  0  0  0
  -21.6656  -26.7497   22.1214 H   0  0  0  0  0  0
  -19.6977  -25.6308   21.1251 H   0  0  0  0  0  0
  -19.6694  -27.3222   20.6787 H   0  0  0  0  0  0
  -17.4250  -26.6736   21.3973 H   0  0  0  0  0  0
  -18.0252  -26.0049   22.8960 H   0  0  0  0  0  0
  -19.7904  -30.7267   24.2298 H   0  0  0  0  0  0
  -17.4974  -31.6244   24.5181 H   0  0  0  0  0  0
  -15.5331  -30.2967   23.7605 H   0  0  0  0  0  0
  -15.8682  -28.0786   22.7057 H   0  0  0  0  0  0
  -24.6107  -30.6753   25.7774 H   0  0  0  0  0  0
  -24.8663  -32.2739   26.4646 H   0  0  0  0  0  0
  -25.8090  -30.9059   27.0290 H   0  0  0  0  0  0
  -26.2771  -29.6842   24.1020 H   0  0  0  0  0  0
  -27.3950  -29.7117   25.4458 H   0  0  0  0  0  0
  -27.8659  -30.4261   23.9193 H   0  0  0  0  0  0
  -27.2838  -33.3661   26.1853 H   0  0  0  0  0  0
  -28.3979  -32.6605   25.0239 H   0  0  0  0  0  0
  -28.0688  -31.8416   26.5435 H   0  0  0  0  0  0
  -28.2617  -38.0117   24.7541 H   0  0  0  0  0  0
  -28.1082  -36.2656   24.6256 H   0  0  0  0  0  0
  -27.2283  -37.1414   25.8850 H   0  0  0  0  0  0
  -20.9352  -29.8717   21.6923 H   0  0  0  0  0  0
  -26.0201  -38.2864   24.1447 H   0  0  0  0  0  0
  -28.2821  -19.8951   22.6314 H   0  0  0  0  0  0
  -28.0397  -22.5148   23.8855 H   0  0  0  0  0  0
  -26.6510  -21.5490   23.4509 H   0  0  0  0  0  0
  -26.2387  -24.0636   23.8807 H   0  0  0  0  0  0
  -25.5268  -23.3909   22.4517 H   0  0  0  0  0  0
  -29.3062  -22.1468   17.0347 H   0  0  0  0  0  0
  -31.0490  -21.7754   16.5897 H   0  0  0  0  0  0
  -30.5597  -19.3315   16.7727 H   0  0  0  0  0  0
  -28.8233  -19.7202   17.2297 H   0  0  0  0  0  0
  -28.1295  -24.9721   22.5341 H   0  0  0  0  0  0
  -26.5941  -25.5540   21.9578 H   0  0  0  0  0  0
  -30.6242  -18.5452   22.6092 H   0  0  0  0  0  0
  -29.0551  -17.7830   22.4819 H   0  0  0  0  0  0
  -27.9518  -17.5055   20.3137 H   0  0  0  0  0  0
  -28.6358  -18.1319   18.8379 H   0  0  0  0  0  0
  -30.7209  -16.0353   22.7345 H   0  0  0  0  0  0
  -31.7328  -16.7299   21.4984 H   0  0  0  0  0  0
  -30.5391  -16.5911   18.9454 H   0  0  0  0  0  0
  -29.0390  -15.7355   18.9056 H   0  0  0  0  0  0
  -30.7509  -18.7144   20.1313 H   0  0  0  0  0  0
  -31.4028  -20.6158   18.7849 H   0  0  0  0  0  0
  -25.8570  -22.8215   20.1938 H   0  0  0  0  0  0
  -26.4663  -23.6385   18.7845 H   0  0  0  0  0  0
  -25.4797  -24.4925   19.9881 H   0  0  0  0  0  0
  -29.4674  -24.9832   20.0052 H   0  0  0  0  0  0
  -28.3024  -25.1244   18.7566 H   0  0  0  0  0  0
  1 25  1  0  0  0
  1 30  2  0  0  0
  1 91  1  0  0  0
  2  3  1  0  0  0
  2 25  1  0  0  0
  2 92  1  0  0  0
  2 93  1  0  0  0
  3  4  1  0  0  0
  3 94  1  0  0  0
  3 95  1  0  0  0
  4  5  1  0  0  0
  4 96  1  0  0  0
  4 97  1  0  0  0
  5  6  1  0  0  0
  5 26  1  0  0  0
  5 98  1  0  0  0
  6 25  1  0  0  0
  6 99  1  0  0  0
  6100  1  0  0  0
  7  8  2  0  0  0
  7 26  1  0  0  0
  7 29  1  0  0  0
  8  9  1  0  0  0
  8 22  1  0  0  0
  9 10  1  0  0  0
  9 27  2  0  0  0
 10 11  2  0  0  0
 10 15  1  0  0  0
 11 12  1  0  0  0
 11101  1  0  0  0
 12 13  2  0  0  0
 12102  1  0  0  0
 13 14  1  0  0  0
 13 31  1  0  0  0
 14 15  2  0  0  0
 14103  1  0  0  0
 15104  1  0  0  0
 16 17  2  0  0  0
 16 21  1  0  0  0
 16 31  1  0  0  0
 17 18  1  0  0  0
 17105  1  0  0  0
 18 19  2  0  0  0
 18106  1  0  0  0
 19 20  1  0  0  0
 19 24  1  0  0  0
 20 21  2  0  0  0
 20107  1  0  0  0
 21 23  1  0  0  0
 22 28  1  0  0  0
 22 32  2  0  0  0
 26 27  1  0  0  0
 28108  1  0  0  0
 28109  1  0  0  0
 29110  1  0  0  0
 29111  1  0  0  0
 33 34  1  0  0  0
 33 66  1  0  0  0
 33 70  2  0  0  0
 34 36  1  0  0  0
 34 59  1  0  0  0
 34112  1  0  0  0
 35 44  2  0  0  0
 35 45  1  0  0  0
 35 68  1  0  0  0
 36 56  1  0  0  0
 36113  1  0  0  0
 37 39  1  0  0  0
 37 47  1  0  0  0
 37 66  1  0  0  0
 37114  1  0  0  0
 38 43  2  0  0  0
 38 46  1  0  0  0
 38 47  1  0  0  0
 39 64  1  0  0  0
 39 67  2  0  0  0
 40 52  1  0  0  0
 40 53  2  0  0  0
 40 58  1  0  0  0
 41115  1  0  0  0
 41116  1  0  0  0
 41117  1  0  0  0
 41 48  1  0  0  0
 42 43  1  0  0  0
 42 66  1  0  0  0
 42118  1  0  0  0
 42119  1  0  0  0
 43 44  1  0  0  0
 44120  1  0  0  0
 45 46  2  0  0  0
 45121  1  0  0  0
 46122  1  0  0  0
 47123  1  0  0  0
 47124  1  0  0  0
 48 56  1  0  0  0
 48 65  1  0  0  0
 48125  1  0  0  0
 49 50  1  0  0  0
 49 53  1  0  0  0
 49 64  1  0  0  0
 49126  1  0  0  0
 50 51  1  0  0  0
 50127  1  0  0  0
 50128  1  0  0  0
 51 52  1  0  0  0
 51129  1  0  0  0
 51130  1  0  0  0
 52131  1  0  0  0
 52132  1  0  0  0
 53 54  1  0  0  0
 54 55  2  0  0  0
 54133  1  0  0  0
 55 57  1  0  0  0
 55134  1  0  0  0
 56 69  2  0  0  0
 57 58  2  0  0  0
 57135  1  0  0  0
 58136  1  0  0  0
 59 60  1  0  0  0
 59 61  1  0  0  0
 59 62  1  0  0  0
 60137  1  0  0  0
 60138  1  0  0  0
 60139  1  0  0  0
 61140  1  0  0  0
 61141  1  0  0  0
 61142  1  0  0  0
 62143  1  0  0  0
 62144  1  0  0  0
 62145  1  0  0  0
 63 65  1  0  0  0
 63146  1  0  0  0
 63147  1  0  0  0
 63148  1  0  0  0
 64149  1  0  0  0
 65150  1  0  0  0
 68 89  1  0  0  0
 71 72  2  0  0  0
 71 73  1  0  0  0
 71151  1  0  0  0
 72 74  1  0  0  0
 72 76  1  0  0  0
 73 75  2  0  0  0
 73 85  1  0  0  0
 74 87  1  0  0  0
 74 90  2  0  0  0
 75 90  1  0  0  0
 75 86  1  0  0  0
 76 77  1  0  0  0
 76152  1  0  0  0
 76153  1  0  0  0
 77 80  1  0  0  0
 77154  1  0  0  0
 77155  1  0  0  0
 78 79  1  0  0  0
 78 86  1  0  0  0
 78156  1  0  0  0
 78157  1  0  0  0
 79 86  1  0  0  0
 79158  1  0  0  0
 79159  1  0  0  0
 80 87  1  0  0  0
 80160  1  0  0  0
 80161  1  0  0  0
 81 83  1  0  0  0
 81 85  1  0  0  0
 81162  1  0  0  0
 81163  1  0  0  0
 82 84  1  0  0  0
 82 85  1  0  0  0
 82164  1  0  0  0
 82165  1  0  0  0
 83 91  1  0  0  0
 83166  1  0  0  0
 83167  1  0  0  0
 84 91  1  0  0  0
 84168  1  0  0  0
 84169  1  0  0  0
 85170  1  0  0  0
 86171  1  0  0  0
 87 88  1  0  0  0
 87 89  1  0  0  0
 88172  1  0  0  0
 88173  1  0  0  0
 88174  1  0  0  0
 89175  1  0  0  0
 89176  1  0  0  0
M  ISO  4   1 100  68 101  89 101  91 100
M  END
> <chiral flag>
0

> <version>
0

> <s_m_source_file>
/data/baiqing/PycharmProjects/Reinvent-master-3.2/result/LINK_invent/BTK/process_docking_weight1_custom_sum_contain_oxygen_bond_distance_aromatic_linkinvent_7_9_3/rearranged_h_0176.sdf

> <i_m_source_file_index>
88

> <r_mmod_Potential_Energy-OPLS-2005>
148.942047119141

> <r_mmod_Stretch_Energy-OPLS-2005>
53.7314414978027

> <r_mmod_Bend_Energy-OPLS-2005>
154.607849121094

> <r_mmod_Torsional_Energy-OPLS-2005>
368.970855712891

> <r_mmod_Improper_Torsional_Energy-OPLS-2005>
11.5450134277344

> <r_mmod_Van_der_Waal_Energy-OPLS-2005>
163.909591674805

> <r_mmod_Electrostatic_Energy-OPLS-2005>
-435.380340576172

> <r_mmod_Solvation_Energy-OPLS-2005>
-195.691314697266

> <b_mmod_Minimization_Converged-OPLS-2005>
0

> <r_mmod_RMS_Derivative-OPLS-2005>
3.71672034263611

$$$$
88
                    3D
 Structure written by MMmdl.
150159  0  0  1  0            999 V2000
  -30.3986  -15.3745   20.3510 C   0  0  0  0  0  0
  -30.4341  -12.8811   19.5480 C   0  0  0  0  0  0
  -29.5423  -12.6037   18.3085 C   0  0  0  0  0  0
  -28.0965  -12.3046   18.7349 C   0  0  0  0  0  0
  -27.6079  -13.2881   19.8258 C   0  0  2  0  0  0
  -28.6343  -13.5082   20.9604 C   0  0  0  0  0  0
  -25.2356  -13.8271   20.5763 C   0  0  0  0  0  0
  -24.1720  -13.0440   20.9257 C   0  0  0  0  0  0
  -24.6396  -11.6942   20.8758 C   0  0  0  0  0  0
  -23.9097  -10.4291   21.0399 C   0  0  0  0  0  0
  -24.3637   -9.4207   21.9181 C   0  0  0  0  0  0
  -23.6302   -8.2246   22.0757 C   0  0  0  0  0  0
  -22.4285   -8.0280   21.3542 C   0  0  0  0  0  0
  -21.9924   -9.0257   20.4646 C   0  0  0  0  0  0
  -22.7264  -10.2131   20.3053 C   0  0  0  0  0  0
  -21.6858   -6.0731   22.5275 C   0  0  0  0  0  0
  -21.4021   -6.5639   23.8206 C   0  0  0  0  0  0
  -21.3660   -5.6792   24.9171 C   0  0  0  0  0  0
  -21.6043   -4.3053   24.7225 C   0  0  0  0  0  0
  -21.8818   -3.8144   23.4346 C   0  0  0  0  0  0
  -21.9194   -4.6959   22.3402 C   0  0  0  0  0  0
  -22.7734  -13.5175   21.1905 C   0  0  0  0  0  0
  -22.1660   -4.2142   21.0979 F   0  0  0  0  0  0
  -21.5625   -3.4539   25.7738 F   0  0  0  0  0  0
  -29.8574  -14.0433   20.3364 N   0  0  0  0  0  0
  -26.2799  -12.9566   20.3240 N   0  0  0  0  0  0
  -25.9342  -11.6656   20.5725 N   0  0  0  0  0  0
  -22.0404  -12.8151   22.0465 N   0  0  0  0  0  0
  -25.3966  -15.2010   20.4202 N   0  0  0  0  0  0
  -31.6111  -15.3628   20.0865 O   0  0  0  0  0  0
  -21.6643   -6.8878   21.4239 O   0  0  0  0  0  0
  -22.3412  -14.5477   20.6749 O   0  0  0  0  0  0
  -24.6690  -31.8155   23.1638 C   0  0  0  0  0  0
  -25.9340  -32.4548   23.8124 C   0  0  1  0  0  0
  -27.2244  -26.8544   20.1965 C   0  0  0  0  0  0
  -25.5976  -33.8368   24.2027 N   0  0  0  0  0  0
  -23.4883  -30.4226   21.5137 C   0  0  2  0  0  0
  -24.9459  -28.7962   20.1087 C   0  0  0  0  0  0
  -22.7698  -29.4396   22.4751 C   0  0  0  0  0  0
  -18.0320  -28.1414   22.8459 C   0  0  0  0  0  0
  -24.1497  -36.7193   23.2652 C   0  0  0  0  0  0
  -26.0607  -30.5965   21.4081 C   0  0  0  0  0  0
  -26.1280  -29.1787   20.7542 C   0  0  0  0  0  0
  -27.2553  -28.2285   20.7760 C   0  0  0  0  0  0
  -26.0176  -26.6482   19.4861 C   0  0  0  0  0  0
  -24.9214  -27.5542   19.4525 C   0  0  0  0  0  0
  -23.7330  -29.7314   20.1422 C   0  0  0  0  0  0
  -25.4143  -36.2952   24.0297 C   0  0  1  0  0  0
  -20.5955  -28.3765   23.1177 C   0  0  2  0  0  0
  -20.6805  -26.9440   22.5414 C   0  0  0  0  0  0
  -19.5787  -26.6379   21.5223 C   0  0  0  0  0  0
  -18.1957  -26.7947   22.1618 C   0  0  0  0  0  0
  -19.1588  -28.8909   23.2799 C   0  0  0  0  0  0
  -18.9504  -30.1492   23.8844 C   0  0  0  0  0  0
  -17.6498  -30.6604   24.0551 C   0  0  0  0  0  0
  -25.9113  -34.9331   23.4996 C   0  0  0  0  0  0
  -16.5381  -29.9093   23.6350 C   0  0  0  0  0  0
  -16.7305  -28.6514   23.0369 C   0  0  0  0  0  0
  -26.4563  -31.6523   25.0685 C   0  0  0  0  0  0
  -25.3663  -31.3794   26.1321 C   0  0  0  0  0  0
  -27.0468  -30.2878   24.6480 C   0  0  0  0  0  0
  -27.6041  -32.4350   25.7488 C   0  0  0  0  0  0
  -27.5567  -37.1751   24.8468 C   0  0  0  0  0  0
  -21.4361  -29.3033   22.3499 N   0  0  0  0  0  0
  -26.4277  -37.3692   23.9409 N   0  0  0  0  0  0
  -24.7609  -30.9742   22.0818 N   0  0  0  0  0  0
  -23.4206  -28.7984   23.3038 O   0  0  0  0  0  0
  -28.2021  -25.7073   20.3291 O   0  0  0  0  0  0
  -26.5740  -34.8879   22.4601 O   0  0  0  0  0  0
  -23.5741  -32.1170   23.6674 O   0  0  0  0  0  0
  -28.5847  -22.3162   21.9969 C   0  0  0  0  0  0
  -28.8145  -21.0660   22.5779 C   0  0  0  0  0  0
  -28.6131  -22.5103   20.6002 C   0  0  0  0  0  0
  -29.1974  -19.8762   20.6322 C   0  0  0  0  0  0
  -28.2694  -23.2920   23.0739 C   0  0  0  0  0  0
  -28.6677  -21.2017   24.0749 C   0  0  0  0  0  0
  -28.0608  -24.0747   19.9221 C   0  0  0  0  0  0
  -29.7797  -18.3074   20.0305 C   0  0  0  0  0  0
  -29.0993  -19.8879   21.9607 N   0  0  0  0  0  0
  -28.9439  -21.1790   19.9717 N   0  0  0  0  0  0
  -28.3335  -22.6231   24.2316 N   0  0  0  0  0  0
  -29.6368  -16.6665   20.4632 N   0  0  0  0  0  0
  -28.0003  -24.4808   22.9337 O   0  0  0  0  0  0
  -31.4518  -13.0887   19.2153 H   0  0  0  0  0  0
  -30.5147  -11.9899   20.1720 H   0  0  0  0  0  0
  -29.9434  -11.7744   17.7243 H   0  0  0  0  0  0
  -29.5547  -13.4758   17.6531 H   0  0  0  0  0  0
  -28.0698  -11.2862   19.1235 H   0  0  0  0  0  0
  -27.4291  -12.3205   17.8725 H   0  0  0  0  0  0
  -27.5082  -14.2429   19.3083 H   0  0  0  0  0  0
  -28.8234  -12.5887   21.5161 H   0  0  0  0  0  0
  -28.2532  -14.2331   21.6809 H   0  0  0  0  0  0
  -25.2780   -9.5678   22.4761 H   0  0  0  0  0  0
  -23.9999   -7.4641   22.7492 H   0  0  0  0  0  0
  -21.0844   -8.8781   19.8964 H   0  0  0  0  0  0
  -22.3717  -10.9665   19.6159 H   0  0  0  0  0  0
  -21.2019   -7.6147   23.9707 H   0  0  0  0  0  0
  -21.1482   -6.0524   25.9070 H   0  0  0  0  0  0
  -22.0598   -2.7604   23.2850 H   0  0  0  0  0  0
  -22.4045  -11.9815   22.4829 H   0  0  0  0  0  0
  -21.1024  -13.1162   22.2704 H   0  0  0  0  0  0
  -24.6216  -15.8466   20.5301 H   0  0  0  0  0  0
  -26.2326  -15.6440   20.0644 H   0  0  0  0  0  0
  -26.7408  -32.5057   23.0829 H   0  0  0  0  0  0
  -25.0041  -33.9438   25.0122 H   0  0  0  0  0  0
  -22.8059  -31.2557   21.3358 H   0  0  0  0  0  0
  -23.3772  -35.9507   23.3293 H   0  0  0  0  0  0
  -24.3571  -36.8878   22.2070 H   0  0  0  0  0  0
  -23.7247  -37.6370   23.6731 H   0  0  0  0  0  0
  -26.2503  -31.3312   20.6245 H   0  0  0  0  0  0
  -26.9169  -30.6534   22.0679 H   0  0  0  0  0  0
  -28.1419  -28.5132   21.3256 H   0  0  0  0  0  0
  -25.8756  -25.7024   18.9841 H   0  0  0  0  0  0
  -24.0260  -27.2564   18.9241 H   0  0  0  0  0  0
  -23.8926  -30.4981   19.3835 H   0  0  0  0  0  0
  -22.8411  -29.1891   19.8241 H   0  0  0  0  0  0
  -25.1338  -36.1742   25.0785 H   0  0  0  0  0  0
  -21.0026  -28.3392   24.1306 H   0  0  0  0  0  0
  -20.5705  -26.2371   23.3658 H   0  0  0  0  0  0
  -21.6665  -26.7430   22.1201 H   0  0  0  0  0  0
  -19.6955  -25.6277   21.1286 H   0  0  0  0  0  0
  -19.6738  -27.3157   20.6733 H   0  0  0  0  0  0
  -17.4231  -26.6692   21.4016 H   0  0  0  0  0  0
  -18.0345  -26.0101   22.9029 H   0  0  0  0  0  0
  -19.7979  -30.7317   24.2200 H   0  0  0  0  0  0
  -17.5052  -31.6282   24.5156 H   0  0  0  0  0  0
  -15.5379  -30.2977   23.7712 H   0  0  0  0  0  0
  -15.8706  -28.0813   22.7125 H   0  0  0  0  0  0
  -24.5871  -30.7125   25.7621 H   0  0  0  0  0  0
  -24.8812  -32.2987   26.4597 H   0  0  0  0  0  0
  -25.7852  -30.9056   27.0207 H   0  0  0  0  0  0
  -26.3149  -29.6527   24.1481 H   0  0  0  0  0  0
  -27.3958  -29.7280   25.5170 H   0  0  0  0  0  0
  -27.9109  -30.4046   23.9940 H   0  0  0  0  0  0
  -27.2620  -33.3715   26.1901 H   0  0  0  0  0  0
  -28.3920  -32.6816   25.0359 H   0  0  0  0  0  0
  -28.0630  -31.8590   26.5535 H   0  0  0  0  0  0
  -28.2560  -38.0067   24.7499 H   0  0  0  0  0  0
  -28.1081  -36.2586   24.6305 H   0  0  0  0  0  0
  -27.2274  -37.1406   25.8868 H   0  0  0  0  0  0
  -20.9634  -29.8695   21.6594 H   0  0  0  0  0  0
  -26.0128  -38.2752   24.1406 H   0  0  0  0  0  0
  -29.5974  -20.9512   24.5874 H   0  0  0  0  0  0
  -27.8642  -20.5679   24.4503 H   0  0  0  0  0  0
  -26.9853  -23.9188   19.8513 H   0  0  0  0  0  0
  -28.4021  -24.0399   18.8880 H   0  0  0  0  0  0
  -30.8589  -18.4552   19.9874 H   0  0  0  0  0  0
  -29.4799  -18.3167   18.9834 H   0  0  0  0  0  0
  -28.1653  -23.0377   25.1380 H   0  0  0  0  0  0
  -28.6892  -16.4861   20.7582 H   0  0  0  0  0  0
  1 25  1  0  0  0
  1 30  2  0  0  0
  1 82  1  0  0  0
  2  3  1  0  0  0
  2 25  1  0  0  0
  2 84  1  0  0  0
  2 85  1  0  0  0
  3  4  1  0  0  0
  3 86  1  0  0  0
  3 87  1  0  0  0
  4  5  1  0  0  0
  4 88  1  0  0  0
  4 89  1  0  0  0
  5  6  1  0  0  0
  5 26  1  0  0  0
  5 90  1  0  0  0
  6 25  1  0  0  0
  6 91  1  0  0  0
  6 92  1  0  0  0
  7  8  2  0  0  0
  7 26  1  0  0  0
  7 29  1  0  0  0
  8  9  1  0  0  0
  8 22  1  0  0  0
  9 10  1  0  0  0
  9 27  2  0  0  0
 10 11  2  0  0  0
 10 15  1  0  0  0
 11 12  1  0  0  0
 11 93  1  0  0  0
 12 13  2  0  0  0
 12 94  1  0  0  0
 13 14  1  0  0  0
 13 31  1  0  0  0
 14 15  2  0  0  0
 14 95  1  0  0  0
 15 96  1  0  0  0
 16 17  2  0  0  0
 16 21  1  0  0  0
 16 31  1  0  0  0
 17 18  1  0  0  0
 17 97  1  0  0  0
 18 19  2  0  0  0
 18 98  1  0  0  0
 19 20  1  0  0  0
 19 24  1  0  0  0
 20 21  2  0  0  0
 20 99  1  0  0  0
 21 23  1  0  0  0
 22 28  1  0  0  0
 22 32  2  0  0  0
 26 27  1  0  0  0
 28100  1  0  0  0
 28101  1  0  0  0
 29102  1  0  0  0
 29103  1  0  0  0
 33 34  1  0  0  0
 33 66  1  0  0  0
 33 70  2  0  0  0
 34 36  1  0  0  0
 34 59  1  0  0  0
 34104  1  0  0  0
 35 44  2  0  0  0
 35 45  1  0  0  0
 35 68  1  0  0  0
 36 56  1  0  0  0
 36105  1  0  0  0
 37 39  1  0  0  0
 37 47  1  0  0  0
 37 66  1  0  0  0
 37106  1  0  0  0
 38 43  2  0  0  0
 38 46  1  0  0  0
 38 47  1  0  0  0
 39 64  1  0  0  0
 39 67  2  0  0  0
 40 52  1  0  0  0
 40 53  2  0  0  0
 40 58  1  0  0  0
 41107  1  0  0  0
 41108  1  0  0  0
 41109  1  0  0  0
 41 48  1  0  0  0
 42 43  1  0  0  0
 42 66  1  0  0  0
 42110  1  0  0  0
 42111  1  0  0  0
 43 44  1  0  0  0
 44112  1  0  0  0
 45 46  2  0  0  0
 45113  1  0  0  0
 46114  1  0  0  0
 47115  1  0  0  0
 47116  1  0  0  0
 48 56  1  0  0  0
 48 65  1  0  0  0
 48117  1  0  0  0
 49 50  1  0  0  0
 49 53  1  0  0  0
 49 64  1  0  0  0
 49118  1  0  0  0
 50 51  1  0  0  0
 50119  1  0  0  0
 50120  1  0  0  0
 51 52  1  0  0  0
 51121  1  0  0  0
 51122  1  0  0  0
 52123  1  0  0  0
 52124  1  0  0  0
 53 54  1  0  0  0
 54 55  2  0  0  0
 54125  1  0  0  0
 55 57  1  0  0  0
 55126  1  0  0  0
 56 69  2  0  0  0
 57 58  2  0  0  0
 57127  1  0  0  0
 58128  1  0  0  0
 59 60  1  0  0  0
 59 61  1  0  0  0
 59 62  1  0  0  0
 60129  1  0  0  0
 60130  1  0  0  0
 60131  1  0  0  0
 61132  1  0  0  0
 61133  1  0  0  0
 61134  1  0  0  0
 62135  1  0  0  0
 62136  1  0  0  0
 62137  1  0  0  0
 63 65  1  0  0  0
 63138  1  0  0  0
 63139  1  0  0  0
 63140  1  0  0  0
 64141  1  0  0  0
 65142  1  0  0  0
 68 77  1  0  0  0
 71 72  2  0  0  0
 71 73  1  0  0  0
 71 75  1  0  0  0
 72 76  1  0  0  0
 72 79  1  0  0  0
 73 77  1  0  0  0
 73 80  2  0  0  0
 74 78  1  0  0  0
 74 79  2  0  0  0
 74 80  1  0  0  0
 75 81  1  0  0  0
 75 83  2  0  0  0
 76 81  1  0  0  0
 76143  1  0  0  0
 76144  1  0  0  0
 77145  1  0  0  0
 77146  1  0  0  0
 78 82  1  0  0  0
 78147  1  0  0  0
 78148  1  0  0  0
 81149  1  0  0  0
 82150  1  0  0  0
M  ISO  4   1 100  68 101  77 101  82 100
M  END
> <chiral flag>
0

> <version>
0

> <s_m_source_file>
/data/baiqing/PycharmProjects/Reinvent-master-3.2/result/LINK_invent/BTK/process_docking_weight1_custom_sum_contain_oxygen_bond_distance_aromatic_linkinvent_7_9_3/rearranged_h_0176.sdf

> <i_m_source_file_index>
89

> <r_mmod_Potential_Energy-OPLS-2005>
1015.61102294922

> <r_mmod_Stretch_Energy-OPLS-2005>
704.00244140625

> <r_mmod_Bend_Energy-OPLS-2005>
552.496643066406

> <r_mmod_Torsional_Energy-OPLS-2005>
229.832183837891

> <r_mmod_Improper_Torsional_Energy-OPLS-2005>
6.07174873352051

> <r_mmod_Van_der_Waal_Energy-OPLS-2005>
125.986389160156

> <r_mmod_Electrostatic_Energy-OPLS-2005>
-886.983581542969

> <r_mmod_Solvation_Energy-OPLS-2005>
-297.614410400391

> <b_mmod_Minimization_Converged-OPLS-2005>
0

> <r_mmod_RMS_Derivative-OPLS-2005>
1.44781589508057

$$$$
89
                    3D
 Structure written by MMmdl.
154163  0  0  1  0            999 V2000
  -30.7007  -14.5928   20.4937 C   0  0  0  0  0  0
  -30.4132  -12.3704   19.4485 C   0  0  0  0  0  0
  -29.4933  -12.4883   18.2166 C   0  0  0  0  0  0
  -28.0183  -12.3357   18.6342 C   0  0  0  0  0  0
  -27.6453  -13.2201   19.8547 C   0  0  2  0  0  0
  -28.6931  -13.1042   20.9839 C   0  0  0  0  0  0
  -25.2518  -13.8178   20.5669 C   0  0  0  0  0  0
  -24.1804  -13.0440   20.9208 C   0  0  0  0  0  0
  -24.6386  -11.6915   20.8762 C   0  0  0  0  0  0
  -23.9063  -10.4295   21.0418 C   0  0  0  0  0  0
  -24.3618   -9.4208   21.9192 C   0  0  0  0  0  0
  -23.6295   -8.2241   22.0755 C   0  0  0  0  0  0
  -22.4279   -8.0281   21.3542 C   0  0  0  0  0  0
  -21.9913   -9.0254   20.4646 C   0  0  0  0  0  0
  -22.7238  -10.2136   20.3061 C   0  0  0  0  0  0
  -21.6853   -6.0738   22.5279 C   0  0  0  0  0  0
  -21.4013   -6.5640   23.8212 C   0  0  0  0  0  0
  -21.3657   -5.6793   24.9174 C   0  0  0  0  0  0
  -21.6044   -4.3056   24.7227 C   0  0  0  0  0  0
  -21.8817   -3.8148   23.4348 C   0  0  0  0  0  0
  -21.9192   -4.6965   22.3404 C   0  0  0  0  0  0
  -22.7828  -13.5225   21.1864 C   0  0  0  0  0  0
  -22.1661   -4.2150   21.0983 F   0  0  0  0  0  0
  -21.5631   -3.4539   25.7740 F   0  0  0  0  0  0
  -29.9987  -13.4228   20.3976 N   0  0  0  0  0  0
  -26.2950  -12.9373   20.3305 N   0  0  0  0  0  0
  -25.9314  -11.6526   20.5782 N   0  0  0  0  0  0
  -22.0475  -12.8217   22.0421 N   0  0  0  0  0  0
  -25.4184  -15.1891   20.4015 N   0  0  0  0  0  0
  -31.8882  -14.6451   20.1771 O   0  0  0  0  0  0
  -21.6640   -6.8881   21.4241 O   0  0  0  0  0  0
  -22.3511  -14.5531   20.6711 O   0  0  0  0  0  0
  -24.6215  -31.8625   23.2050 C   0  0  0  0  0  0
  -25.9077  -32.4794   23.8367 C   0  0  1  0  0  0
  -27.2228  -27.3640   20.1175 C   0  0  0  0  0  0
  -25.5909  -33.8593   24.2296 N   0  0  0  0  0  0
  -23.4135  -30.4860   21.5464 C   0  0  2  0  0  0
  -24.8603  -28.9441   20.1122 C   0  0  0  0  0  0
  -22.7453  -29.4637   22.4955 C   0  0  0  0  0  0
  -18.0283  -28.1383   22.8487 C   0  0  0  0  0  0
  -24.1488  -36.7304   23.2640 C   0  0  0  0  0  0
  -25.9493  -30.8087   21.3680 C   0  0  0  0  0  0
  -26.0259  -29.4388   20.7125 C   0  0  0  0  0  0
  -27.2148  -28.6597   20.7044 C   0  0  0  0  0  0
  -26.0423  -26.9061   19.4968 C   0  0  0  0  0  0
  -24.8673  -27.6811   19.4966 C   0  0  0  0  0  0
  -23.6257  -29.8191   20.1616 C   0  0  0  0  0  0
  -25.4112  -36.3094   24.0333 C   0  0  1  0  0  0
  -20.5879  -28.3683   23.1297 C   0  0  2  0  0  0
  -20.6775  -26.9412   22.5415 C   0  0  0  0  0  0
  -19.5752  -26.6379   21.5221 C   0  0  0  0  0  0
  -18.1933  -26.7920   22.1633 C   0  0  0  0  0  0
  -19.1535  -28.8851   23.2887 C   0  0  0  0  0  0
  -18.9454  -30.1458   23.8896 C   0  0  0  0  0  0
  -17.6453  -30.6589   24.0555 C   0  0  0  0  0  0
  -25.9042  -34.9462   23.5116 C   0  0  0  0  0  0
  -16.5345  -29.9086   23.6322 C   0  0  0  0  0  0
  -16.7270  -28.6503   23.0347 C   0  0  0  0  0  0
  -26.4483  -31.6592   25.0721 C   0  0  0  0  0  0
  -25.3731  -31.3716   26.1459 C   0  0  0  0  0  0
  -27.0322  -30.3025   24.6141 C   0  0  0  0  0  0
  -27.6047  -32.4324   25.7490 C   0  0  0  0  0  0
  -27.5581  -37.1808   24.8466 C   0  0  0  0  0  0
  -21.4170  -29.3041   22.3700 N   0  0  0  0  0  0
  -26.4295  -37.3784   23.9406 N   0  0  0  0  0  0
  -24.6799  -31.0679   22.0974 N   0  0  0  0  0  0
  -23.4197  -28.8176   23.3014 O   0  0  0  0  0  0
  -28.3396  -26.5364   20.1361 O   0  0  0  0  0  0
  -26.5611  -34.8923   22.4682 O   0  0  0  0  0  0
  -23.5390  -32.1402   23.7407 O   0  0  0  0  0  0
  -28.1286  -19.8196   22.8305 C   0  0  0  0  0  0
  -28.3594  -18.4371   22.6371 C   0  0  0  0  0  0
  -29.2185  -18.8547   20.3886 C   0  0  0  0  0  0
  -28.4390  -20.7153   21.7914 C   0  0  0  0  0  0
  -28.9760  -20.2521   20.5934 C   0  0  0  0  0  0
  -28.9018  -17.9204   21.4301 C   0  0  0  0  0  0
  -28.2543  -22.1885   21.7575 C   0  0  0  0  0  0
  -28.7044  -22.6834   20.4313 C   0  0  0  0  0  0
  -28.6645  -23.9893   20.0085 C   0  0  0  0  0  0
  -29.1963  -21.4407   19.6502 C   0  0  0  0  0  0
  -29.0202  -16.3658   21.3317 C   0  0  0  0  0  0
  -28.1548  -25.2341   20.7827 C   0  0  0  0  0  0
  -30.0369  -15.7808   20.4426 N   0  0  0  0  0  0
  -27.7985  -22.8712   22.6794 O   0  0  0  0  0  0
  -31.4581  -12.4582   19.1451 H   0  0  0  0  0  0
  -30.3208  -11.3850   19.9076 H   0  0  0  0  0  0
  -29.7525  -11.7305   17.4760 H   0  0  0  0  0  0
  -29.6429  -13.4551   17.7334 H   0  0  0  0  0  0
  -27.8544  -11.2850   18.8756 H   0  0  0  0  0  0
  -27.3617  -12.5583   17.7924 H   0  0  0  0  0  0
  -27.6570  -14.2486   19.4950 H   0  0  0  0  0  0
  -28.7023  -12.0947   21.3977 H   0  0  0  0  0  0
  -28.4524  -13.7647   21.8162 H   0  0  0  0  0  0
  -25.2764   -9.5681   22.4769 H   0  0  0  0  0  0
  -24.0002   -7.4631   22.7475 H   0  0  0  0  0  0
  -21.0842   -8.8772   19.8955 H   0  0  0  0  0  0
  -22.3694  -10.9677   19.6172 H   0  0  0  0  0  0
  -21.2004   -7.6148   23.9712 H   0  0  0  0  0  0
  -21.1482   -6.0527   25.9076 H   0  0  0  0  0  0
  -22.0599   -2.7611   23.2849 H   0  0  0  0  0  0
  -22.4093  -11.9872   22.4798 H   0  0  0  0  0  0
  -21.1095  -13.1240   22.2639 H   0  0  0  0  0  0
  -24.6463  -15.8392   20.4995 H   0  0  0  0  0  0
  -26.2547  -15.6218   20.0311 H   0  0  0  0  0  0
  -26.7148  -32.5485   23.1124 H   0  0  0  0  0  0
  -25.0053  -33.9744   25.0438 H   0  0  0  0  0  0
  -22.7057  -31.3051   21.4047 H   0  0  0  0  0  0
  -23.3747  -35.9641   23.3310 H   0  0  0  0  0  0
  -24.3580  -36.8914   22.2053 H   0  0  0  0  0  0
  -23.7246  -37.6513   23.6654 H   0  0  0  0  0  0
  -26.0728  -31.5738   20.6001 H   0  0  0  0  0  0
  -26.8326  -30.8590   21.9929 H   0  0  0  0  0  0
  -28.1128  -29.0340   21.1759 H   0  0  0  0  0  0
  -26.0267  -25.9347   19.0220 H   0  0  0  0  0  0
  -23.9731  -27.2966   19.0256 H   0  0  0  0  0  0
  -23.7396  -30.5947   19.4033 H   0  0  0  0  0  0
  -22.7470  -29.2441   19.8631 H   0  0  0  0  0  0
  -25.1293  -36.1954   25.0826 H   0  0  0  0  0  0
  -20.9973  -28.3259   24.1417 H   0  0  0  0  0  0
  -21.6644  -26.7451   22.1200 H   0  0  0  0  0  0
  -20.5690  -26.2291   23.3614 H   0  0  0  0  0  0
  -19.6916  -25.6290   21.1252 H   0  0  0  0  0  0
  -19.6685  -27.3186   20.6747 H   0  0  0  0  0  0
  -17.4201  -26.6651   21.4038 H   0  0  0  0  0  0
  -18.0344  -26.0065   22.9038 H   0  0  0  0  0  0
  -19.7927  -30.7275   24.2272 H   0  0  0  0  0  0
  -17.5006  -31.6271   24.5154 H   0  0  0  0  0  0
  -15.5347  -30.2988   23.7645 H   0  0  0  0  0  0
  -15.8675  -28.0817   22.7064 H   0  0  0  0  0  0
  -24.5901  -30.7070   25.7793 H   0  0  0  0  0  0
  -24.8929  -32.2878   26.4905 H   0  0  0  0  0  0
  -25.8069  -30.8882   27.0221 H   0  0  0  0  0  0
  -26.2884  -29.6782   24.1177 H   0  0  0  0  0  0
  -27.4053  -29.7272   25.4625 H   0  0  0  0  0  0
  -27.8738  -30.4333   23.9333 H   0  0  0  0  0  0
  -27.2655  -33.3614   26.2088 H   0  0  0  0  0  0
  -28.3847  -32.6901   25.0312 H   0  0  0  0  0  0
  -28.0729  -31.8437   26.5391 H   0  0  0  0  0  0
  -28.2605  -38.0099   24.7503 H   0  0  0  0  0  0
  -28.1069  -36.2629   24.6302 H   0  0  0  0  0  0
  -27.2297  -37.1472   25.8869 H   0  0  0  0  0  0
  -20.9341  -29.8761   21.6915 H   0  0  0  0  0  0
  -26.0181  -38.2865   24.1395 H   0  0  0  0  0  0
  -27.7055  -20.1831   23.7570 H   0  0  0  0  0  0
  -28.0930  -17.7569   23.4349 H   0  0  0  0  0  0
  -29.6133  -18.5059   19.4444 H   0  0  0  0  0  0
  -29.0173  -24.1994   19.0101 H   0  0  0  0  0  0
  -28.6256  -21.3137   18.7300 H   0  0  0  0  0  0
  -30.2529  -21.5402   19.3992 H   0  0  0  0  0  0
  -28.0444  -15.9935   21.0268 H   0  0  0  0  0  0
  -29.1925  -15.9737   22.3359 H   0  0  0  0  0  0
  -28.6929  -25.2776   21.7300 H   0  0  0  0  0  0
  -27.1116  -25.0579   21.0501 H   0  0  0  0  0  0
  -30.6374  -16.4953   20.0615 H   0  0  0  0  0  0
  1 25  1  0  0  0
  1 30  2  0  0  0
  1 83  1  0  0  0
  2  3  1  0  0  0
  2 25  1  0  0  0
  2 85  1  0  0  0
  2 86  1  0  0  0
  3  4  1  0  0  0
  3 87  1  0  0  0
  3 88  1  0  0  0
  4  5  1  0  0  0
  4 89  1  0  0  0
  4 90  1  0  0  0
  5  6  1  0  0  0
  5 26  1  0  0  0
  5 91  1  0  0  0
  6 25  1  0  0  0
  6 92  1  0  0  0
  6 93  1  0  0  0
  7  8  2  0  0  0
  7 26  1  0  0  0
  7 29  1  0  0  0
  8  9  1  0  0  0
  8 22  1  0  0  0
  9 10  1  0  0  0
  9 27  2  0  0  0
 10 11  2  0  0  0
 10 15  1  0  0  0
 11 12  1  0  0  0
 11 94  1  0  0  0
 12 13  2  0  0  0
 12 95  1  0  0  0
 13 14  1  0  0  0
 13 31  1  0  0  0
 14 15  2  0  0  0
 14 96  1  0  0  0
 15 97  1  0  0  0
 16 17  2  0  0  0
 16 21  1  0  0  0
 16 31  1  0  0  0
 17 18  1  0  0  0
 17 98  1  0  0  0
 18 19  2  0  0  0
 18 99  1  0  0  0
 19 20  1  0  0  0
 19 24  1  0  0  0
 20 21  2  0  0  0
 20100  1  0  0  0
 21 23  1  0  0  0
 22 28  1  0  0  0
 22 32  2  0  0  0
 26 27  1  0  0  0
 28101  1  0  0  0
 28102  1  0  0  0
 29103  1  0  0  0
 29104  1  0  0  0
 33 34  1  0  0  0
 33 66  1  0  0  0
 33 70  2  0  0  0
 34 36  1  0  0  0
 34 59  1  0  0  0
 34105  1  0  0  0
 35 44  2  0  0  0
 35 45  1  0  0  0
 35 68  1  0  0  0
 36 56  1  0  0  0
 36106  1  0  0  0
 37 39  1  0  0  0
 37 47  1  0  0  0
 37 66  1  0  0  0
 37107  1  0  0  0
 38 43  2  0  0  0
 38 46  1  0  0  0
 38 47  1  0  0  0
 39 64  1  0  0  0
 39 67  2  0  0  0
 40 52  1  0  0  0
 40 53  2  0  0  0
 40 58  1  0  0  0
 41108  1  0  0  0
 41109  1  0  0  0
 41110  1  0  0  0
 41 48  1  0  0  0
 42 43  1  0  0  0
 42 66  1  0  0  0
 42111  1  0  0  0
 42112  1  0  0  0
 43 44  1  0  0  0
 44113  1  0  0  0
 45 46  2  0  0  0
 45114  1  0  0  0
 46115  1  0  0  0
 47116  1  0  0  0
 47117  1  0  0  0
 48 56  1  0  0  0
 48 65  1  0  0  0
 48118  1  0  0  0
 49 50  1  0  0  0
 49 53  1  0  0  0
 49 64  1  0  0  0
 49119  1  0  0  0
 50 51  1  0  0  0
 50120  1  0  0  0
 50121  1  0  0  0
 51 52  1  0  0  0
 51122  1  0  0  0
 51123  1  0  0  0
 52124  1  0  0  0
 52125  1  0  0  0
 53 54  1  0  0  0
 54 55  2  0  0  0
 54126  1  0  0  0
 55 57  1  0  0  0
 55127  1  0  0  0
 56 69  2  0  0  0
 57 58  2  0  0  0
 57128  1  0  0  0
 58129  1  0  0  0
 59 60  1  0  0  0
 59 61  1  0  0  0
 59 62  1  0  0  0
 60130  1  0  0  0
 60131  1  0  0  0
 60132  1  0  0  0
 61133  1  0  0  0
 61134  1  0  0  0
 61135  1  0  0  0
 62136  1  0  0  0
 62137  1  0  0  0
 62138  1  0  0  0
 63 65  1  0  0  0
 63139  1  0  0  0
 63140  1  0  0  0
 63141  1  0  0  0
 64142  1  0  0  0
 65143  1  0  0  0
 68 82  1  0  0  0
 71 72  2  0  0  0
 71 74  1  0  0  0
 71144  1  0  0  0
 72 76  1  0  0  0
 72145  1  0  0  0
 73 75  1  0  0  0
 73 76  2  0  0  0
 73146  1  0  0  0
 74 75  2  0  0  0
 74 77  1  0  0  0
 75 80  1  0  0  0
 76 81  1  0  0  0
 77 78  1  0  0  0
 77 84  2  0  0  0
 78 79  2  0  0  0
 78 80  1  0  0  0
 79 82  1  0  0  0
 79147  1  0  0  0
 80148  1  0  0  0
 80149  1  0  0  0
 81 83  1  0  0  0
 81150  1  0  0  0
 81151  1  0  0  0
 82152  1  0  0  0
 82153  1  0  0  0
 83154  1  0  0  0
M  ISO  4   1 100  68 101  82 101  83 100
M  END
> <chiral flag>
0

> <version>
0

> <s_m_source_file>
/data/baiqing/PycharmProjects/Reinvent-master-3.2/result/LINK_invent/BTK/process_docking_weight1_custom_sum_contain_oxygen_bond_distance_aromatic_linkinvent_7_9_3/rearranged_h_0176.sdf

> <i_m_source_file_index>
90

> <r_mmod_Potential_Energy-OPLS-2005>
78.0318450927734

> <r_mmod_Stretch_Energy-OPLS-2005>
57.3351402282715

> <r_mmod_Bend_Energy-OPLS-2005>
181.788909912109

> <r_mmod_Torsional_Energy-OPLS-2005>
261.995788574219

> <r_mmod_Improper_Torsional_Energy-OPLS-2005>
18.4149188995361

> <r_mmod_Van_der_Waal_Energy-OPLS-2005>
134.012161254883

> <r_mmod_Electrostatic_Energy-OPLS-2005>
-403.611114501953

> <r_mmod_Solvation_Energy-OPLS-2005>
-210.508224487305

> <b_mmod_Minimization_Converged-OPLS-2005>
0

> <r_mmod_RMS_Derivative-OPLS-2005>
0.762124538421631

$$$$
90
                    3D
 Structure written by MMmdl.
168177  0  0  1  0            999 V2000
  -30.6369  -14.8543   20.4275 C   0  0  0  0  0  0
  -30.3883  -12.5339   19.4825 C   0  0  0  0  0  0
  -29.4728  -12.5071   18.2421 C   0  0  0  0  0  0
  -28.0129  -12.3012   18.6849 C   0  0  0  0  0  0
  -27.6187  -13.2379   19.8549 C   0  0  2  0  0  0
  -28.6714  -13.2963   20.9853 C   0  0  0  0  0  0
  -25.2434  -13.8134   20.5838 C   0  0  0  0  0  0
  -24.1715  -13.0389   20.9158 C   0  0  0  0  0  0
  -24.6299  -11.6816   20.8765 C   0  0  0  0  0  0
  -23.9052  -10.4151   21.0466 C   0  0  0  0  0  0
  -24.3620   -9.3992   21.9148 C   0  0  0  0  0  0
  -23.6179   -8.2116   22.0817 C   0  0  0  0  0  0
  -22.4112   -8.0190   21.3748 C   0  0  0  0  0  0
  -21.9663   -9.0273   20.5044 C   0  0  0  0  0  0
  -22.7081  -10.2094   20.3329 C   0  0  0  0  0  0
  -21.6651   -6.0717   22.5498 C   0  0  0  0  0  0
  -21.3931   -6.5679   23.8474 C   0  0  0  0  0  0
  -21.3637   -5.6847   24.9425 C   0  0  0  0  0  0
  -21.5904   -4.3117   24.7431 C   0  0  0  0  0  0
  -21.8676   -3.8165   23.4624 C   0  0  0  0  0  0
  -21.9081   -4.6959   22.3611 C   0  0  0  0  0  0
  -22.7734  -13.5294   21.1920 C   0  0  0  0  0  0
  -22.1552   -4.2146   21.1166 F   0  0  0  0  0  0
  -21.5584   -3.4613   25.7929 F   0  0  0  0  0  0
  -29.9368  -13.6656   20.3429 N   0  0  0  0  0  0
  -26.2843  -12.9380   20.3485 N   0  0  0  0  0  0
  -25.9268  -11.6516   20.5936 N   0  0  0  0  0  0
  -22.0382  -12.8099   22.0305 N   0  0  0  0  0  0
  -25.4230  -15.1858   20.4288 N   0  0  0  0  0  0
  -31.8507  -14.8022   20.2085 O   0  0  0  0  0  0
  -21.6448   -6.8824   21.4467 O   0  0  0  0  0  0
  -22.3542  -14.5823   20.6997 O   0  0  0  0  0  0
  -24.6324  -31.8574   23.2019 C   0  0  0  0  0  0
  -25.9141  -32.4777   23.8357 C   0  0  1  0  0  0
  -27.2078  -27.2319   20.1524 C   0  0  0  0  0  0
  -25.5927  -33.8578   24.2298 N   0  0  0  0  0  0
  -23.4338  -30.4820   21.5517 C   0  0  2  0  0  0
  -24.8716  -28.9246   20.1302 C   0  0  0  0  0  0
  -22.7518  -29.4636   22.4952 C   0  0  0  0  0  0
  -18.0278  -28.1389   22.8468 C   0  0  0  0  0  0
  -24.1497  -36.7282   23.2645 C   0  0  0  0  0  0
  -25.9832  -30.7694   21.3794 C   0  0  0  0  0  0
  -26.0545  -29.3900   20.7180 C   0  0  0  0  0  0
  -27.2346  -28.5714   20.6865 C   0  0  0  0  0  0
  -25.9739  -26.8123   19.6220 C   0  0  0  0  0  0
  -24.8339  -27.6441   19.5715 C   0  0  0  0  0  0
  -23.6515  -29.8192   20.1669 C   0  0  0  0  0  0
  -25.4124  -36.3084   24.0327 C   0  0  1  0  0  0
  -20.5897  -28.3715   23.1267 C   0  0  2  0  0  0
  -20.6780  -26.9436   22.5407 C   0  0  0  0  0  0
  -19.5756  -26.6388   21.5204 C   0  0  0  0  0  0
  -18.1940  -26.7918   22.1618 C   0  0  0  0  0  0
  -19.1546  -28.8847   23.2861 C   0  0  0  0  0  0
  -18.9452  -30.1449   23.8875 C   0  0  0  0  0  0
  -17.6452  -30.6584   24.0556 C   0  0  0  0  0  0
  -25.9040  -34.9452   23.5117 C   0  0  0  0  0  0
  -16.5339  -29.9079   23.6352 C   0  0  0  0  0  0
  -16.7266  -28.6514   23.0356 C   0  0  0  0  0  0
  -26.4481  -31.6581   25.0758 C   0  0  0  0  0  0
  -25.3715  -31.3743   26.1491 C   0  0  0  0  0  0
  -27.0360  -30.3008   24.6271 C   0  0  0  0  0  0
  -27.6056  -32.4351   25.7517 C   0  0  0  0  0  0
  -27.5599  -37.1800   24.8479 C   0  0  0  0  0  0
  -21.4220  -29.3043   22.3667 N   0  0  0  0  0  0
  -26.4306  -37.3786   23.9403 N   0  0  0  0  0  0
  -24.7041  -31.0536   22.0995 N   0  0  0  0  0  0
  -23.4203  -28.8161   23.3068 O   0  0  0  0  0  0
  -28.3371  -26.3765   20.0350 O   0  0  0  0  0  0
  -26.5640  -34.8915   22.4708 O   0  0  0  0  0  0
  -23.5474  -32.1390   23.7308 O   0  0  0  0  0  0
  -27.4947  -23.4519   18.7369 C   0  0  0  0  0  0
  -28.2698  -23.5769   19.9038 C   0  0  0  0  0  0
  -26.8068  -22.2313   18.6291 C   0  0  0  0  0  0
  -28.2918  -21.1428   20.0021 C   0  0  0  0  0  0
  -27.8211  -18.3970   21.9303 C   0  0  0  0  0  0
  -29.0814  -17.5601   22.2818 C   0  0  0  0  0  0
  -28.3140  -18.4714   20.4629 C   0  0  1  0  0  0
  -28.9099  -16.9618   20.8875 C   0  0  1  0  0  0
  -24.6427  -23.2036   18.4000 C   0  0  0  0  0  0
  -28.1102  -24.6858   15.1943 C   0  0  0  0  0  0
  -27.4537  -24.4960   17.5996 C   0  0  0  0  0  0
  -28.4567  -24.9987   20.6582 C   0  0  0  0  0  0
  -28.7264  -22.3647   20.4624 N   0  0  0  0  0  0
  -27.2310  -21.0834   19.1924 N   0  0  0  0  0  0
  -25.6155  -22.2114   17.9057 N   0  0  0  0  0  0
  -28.9462  -19.8781   20.3503 N   0  0  0  0  0  0
  -30.0807  -16.1482   20.3090 N   0  0  0  0  0  0
  -27.5376  -23.8547   16.2658 N   0  3  0  0  0  0
  -31.4318  -12.6174   19.1785 H   0  0  0  0  0  0
  -30.3141  -11.5895   20.0195 H   0  0  0  0  0  0
  -29.7716  -11.6996   17.5675 H   0  0  0  0  0  0
  -29.5674  -13.4367   17.6822 H   0  0  0  0  0  0
  -27.8941  -11.2595   18.9838 H   0  0  0  0  0  0
  -27.3232  -12.4398   17.8485 H   0  0  0  0  0  0
  -27.5669  -14.2297   19.4084 H   0  0  0  0  0  0
  -28.7648  -12.3484   21.5195 H   0  0  0  0  0  0
  -28.4031  -14.0473   21.7296 H   0  0  0  0  0  0
  -25.2757   -9.5309   22.4776 H   0  0  0  0  0  0
  -23.9793   -7.4532   22.7580 H   0  0  0  0  0  0
  -21.0295   -8.9125   19.9727 H   0  0  0  0  0  0
  -22.3230  -10.9851   19.6850 H   0  0  0  0  0  0
  -21.1964   -7.6218   24.0091 H   0  0  0  0  0  0
  -21.1527   -6.0520   25.9393 H   0  0  0  0  0  0
  -22.0391   -2.7588   23.3192 H   0  0  0  0  0  0
  -21.1262  -13.1279   22.3256 H   0  0  0  0  0  0
  -22.3565  -11.8998   22.3334 H   0  0  0  0  0  0
  -26.2884  -15.6033   20.1127 H   0  0  0  0  0  0
  -24.6832  -15.8675   20.5532 H   0  0  0  0  0  0
  -26.7216  -32.5412   23.1112 H   0  0  0  0  0  0
  -25.0014  -33.9726   25.0399 H   0  0  0  0  0  0
  -22.7319  -31.3057   21.4093 H   0  0  0  0  0  0
  -23.3782  -35.9599   23.3309 H   0  0  0  0  0  0
  -24.3578  -36.8909   22.2064 H   0  0  0  0  0  0
  -23.7230  -37.6471   23.6665 H   0  0  0  0  0  0
  -26.1274  -31.5398   20.6220 H   0  0  0  0  0  0
  -26.8556  -30.8101   22.0201 H   0  0  0  0  0  0
  -28.1579  -28.9451   21.1034 H   0  0  0  0  0  0
  -25.8518  -25.8039   19.2775 H   0  0  0  0  0  0
  -23.9149  -27.2778   19.1374 H   0  0  0  0  0  0
  -23.7808  -30.6014   19.4141 H   0  0  0  0  0  0
  -22.7653  -29.2578   19.8607 H   0  0  0  0  0  0
  -25.1313  -36.1959   25.0820 H   0  0  0  0  0  0
  -20.9945  -28.3264   24.1404 H   0  0  0  0  0  0
  -20.5698  -26.2292   23.3603 H   0  0  0  0  0  0
  -21.6641  -26.7468   22.1188 H   0  0  0  0  0  0
  -19.6938  -25.6304   21.1227 H   0  0  0  0  0  0
  -19.6687  -27.3200   20.6749 H   0  0  0  0  0  0
  -17.4209  -26.6651   21.4039 H   0  0  0  0  0  0
  -18.0361  -26.0062   22.9014 H   0  0  0  0  0  0
  -19.7928  -30.7273   24.2246 H   0  0  0  0  0  0
  -17.5014  -31.6256   24.5149 H   0  0  0  0  0  0
  -15.5358  -30.2970   23.7679 H   0  0  0  0  0  0
  -15.8682  -28.0822   22.7092 H   0  0  0  0  0  0
  -24.5850  -30.7138   25.7811 H   0  0  0  0  0  0
  -24.8905  -32.2897   26.4952 H   0  0  0  0  0  0
  -25.7981  -30.8877   27.0266 H   0  0  0  0  0  0
  -26.2953  -29.6753   24.1253 H   0  0  0  0  0  0
  -27.3994  -29.7285   25.4812 H   0  0  0  0  0  0
  -27.8842  -30.4319   23.9559 H   0  0  0  0  0  0
  -27.2675  -33.3670   26.2068 H   0  0  0  0  0  0
  -28.3826  -32.6869   25.0302 H   0  0  0  0  0  0
  -28.0746  -31.8492   26.5444 H   0  0  0  0  0  0
  -28.2618  -38.0099   24.7518 H   0  0  0  0  0  0
  -28.1079  -36.2616   24.6305 H   0  0  0  0  0  0
  -27.2286  -37.1455   25.8875 H   0  0  0  0  0  0
  -20.9448  -29.8712   21.6810 H   0  0  0  0  0  0
  -26.0198  -38.2865   24.1395 H   0  0  0  0  0  0
  -27.7413  -19.3434   22.4601 H   0  0  0  0  0  0
  -26.8934  -17.8310   22.0454 H   0  0  0  0  0  0
  -28.9527  -16.8568   23.1028 H   0  0  0  0  0  0
  -29.9883  -18.1661   22.3990 H   0  0  0  0  0  0
  -27.5070  -18.3537   19.7362 H   0  0  0  0  0  0
  -28.0618  -16.2724   20.9195 H   0  0  0  0  0  0
  -24.3112  -23.8442   17.5785 H   0  0  0  0  0  0
  -25.0334  -23.8558   19.1883 H   0  0  0  0  0  0
  -23.7663  -22.7389   18.8543 H   0  0  0  0  0  0
  -27.9100  -24.2449   14.2162 H   0  0  0  0  0  0
  -29.1929  -24.7555   15.3057 H   0  0  0  0  0  0
  -27.6909  -25.6891   15.2132 H   0  0  0  0  0  0
  -28.2696  -25.2113   17.7191 H   0  0  0  0  0  0
  -26.5380  -25.0788   17.5619 H   0  0  0  0  0  0
  -27.8771  -24.9884   21.5810 H   0  0  0  0  0  0
  -29.4869  -24.9727   21.0090 H   0  0  0  0  0  0
  -25.2322  -21.2792   17.7996 H   0  0  0  0  0  0
  -29.7488  -20.0265   20.9468 H   0  0  0  0  0  0
  -30.8090  -16.7607   19.9842 H   0  0  0  0  0  0
  -28.0554  -22.9912   16.3039 H   0  0  0  0  0  0
  -26.5872  -23.6162   16.0171 H   0  0  0  0  0  0
  1 25  1  0  0  0
  1 30  2  0  0  0
  1 87  1  0  0  0
  2  3  1  0  0  0
  2 25  1  0  0  0
  2 89  1  0  0  0
  2 90  1  0  0  0
  3  4  1  0  0  0
  3 91  1  0  0  0
  3 92  1  0  0  0
  4  5  1  0  0  0
  4 93  1  0  0  0
  4 94  1  0  0  0
  5  6  1  0  0  0
  5 26  1  0  0  0
  5 95  1  0  0  0
  6 25  1  0  0  0
  6 96  1  0  0  0
  6 97  1  0  0  0
  7  8  2  0  0  0
  7 26  1  0  0  0
  7 29  1  0  0  0
  8  9  1  0  0  0
  8 22  1  0  0  0
  9 10  1  0  0  0
  9 27  2  0  0  0
 10 11  2  0  0  0
 10 15  1  0  0  0
 11 12  1  0  0  0
 11 98  1  0  0  0
 12 13  2  0  0  0
 12 99  1  0  0  0
 13 14  1  0  0  0
 13 31  1  0  0  0
 14 15  2  0  0  0
 14100  1  0  0  0
 15101  1  0  0  0
 16 17  2  0  0  0
 16 21  1  0  0  0
 16 31  1  0  0  0
 17 18  1  0  0  0
 17102  1  0  0  0
 18 19  2  0  0  0
 18103  1  0  0  0
 19 20  1  0  0  0
 19 24  1  0  0  0
 20 21  2  0  0  0
 20104  1  0  0  0
 21 23  1  0  0  0
 22 28  1  0  0  0
 22 32  2  0  0  0
 26 27  1  0  0  0
 28105  1  0  0  0
 28106  1  0  0  0
 29107  1  0  0  0
 29108  1  0  0  0
 33 34  1  0  0  0
 33 66  1  0  0  0
 33 70  2  0  0  0
 34 36  1  0  0  0
 34 59  1  0  0  0
 34109  1  0  0  0
 35 44  2  0  0  0
 35 45  1  0  0  0
 35 68  1  0  0  0
 36 56  1  0  0  0
 36110  1  0  0  0
 37 39  1  0  0  0
 37 47  1  0  0  0
 37 66  1  0  0  0
 37111  1  0  0  0
 38 43  2  0  0  0
 38 46  1  0  0  0
 38 47  1  0  0  0
 39 64  1  0  0  0
 39 67  2  0  0  0
 40 52  1  0  0  0
 40 53  2  0  0  0
 40 58  1  0  0  0
 41112  1  0  0  0
 41113  1  0  0  0
 41114  1  0  0  0
 41 48  1  0  0  0
 42 43  1  0  0  0
 42 66  1  0  0  0
 42115  1  0  0  0
 42116  1  0  0  0
 43 44  1  0  0  0
 44117  1  0  0  0
 45 46  2  0  0  0
 45118  1  0  0  0
 46119  1  0  0  0
 47120  1  0  0  0
 47121  1  0  0  0
 48 56  1  0  0  0
 48 65  1  0  0  0
 48122  1  0  0  0
 49 50  1  0  0  0
 49 53  1  0  0  0
 49 64  1  0  0  0
 49123  1  0  0  0
 50 51  1  0  0  0
 50124  1  0  0  0
 50125  1  0  0  0
 51 52  1  0  0  0
 51126  1  0  0  0
 51127  1  0  0  0
 52128  1  0  0  0
 52129  1  0  0  0
 53 54  1  0  0  0
 54 55  2  0  0  0
 54130  1  0  0  0
 55 57  1  0  0  0
 55131  1  0  0  0
 56 69  2  0  0  0
 57 58  2  0  0  0
 57132  1  0  0  0
 58133  1  0  0  0
 59 60  1  0  0  0
 59 61  1  0  0  0
 59 62  1  0  0  0
 60134  1  0  0  0
 60135  1  0  0  0
 60136  1  0  0  0
 61137  1  0  0  0
 61138  1  0  0  0
 61139  1  0  0  0
 62140  1  0  0  0
 62141  1  0  0  0
 62142  1  0  0  0
 63 65  1  0  0  0
 63143  1  0  0  0
 63144  1  0  0  0
 63145  1  0  0  0
 64146  1  0  0  0
 65147  1  0  0  0
 68 82  1  0  0  0
 71 72  2  0  0  0
 71 73  1  0  0  0
 71 81  1  0  0  0
 72 82  1  0  0  0
 72 83  1  0  0  0
 73 84  2  0  0  0
 73 85  1  0  0  0
 74 83  2  0  0  0
 74 84  1  0  0  0
 74 86  1  0  0  0
 75 76  1  0  0  0
 75 77  1  0  0  0
 75148  1  0  0  0
 75149  1  0  0  0
 76 78  1  0  0  0
 76150  1  0  0  0
 76151  1  0  0  0
 77 78  1  0  0  0
 77 86  1  0  0  0
 77152  1  0  0  0
 78 87  1  0  0  0
 78153  1  0  0  0
 79 85  1  0  0  0
 79154  1  0  0  0
 79155  1  0  0  0
 79156  1  0  0  0
 80 88  1  0  0  0
 80157  1  0  0  0
 80158  1  0  0  0
 80159  1  0  0  0
 81 88  1  0  0  0
 81160  1  0  0  0
 81161  1  0  0  0
 82162  1  0  0  0
 82163  1  0  0  0
 85164  1  0  0  0
 86165  1  0  0  0
 87166  1  0  0  0
 88167  1  0  0  0
 88168  1  0  0  0
M  CHG  1  88   1
M  ISO  4   1 100  68 101  82 101  87 100
M  END
> <chiral flag>
0

> <version>
0

> <s_m_source_file>
/data/baiqing/PycharmProjects/Reinvent-master-3.2/result/LINK_invent/BTK/process_docking_weight1_custom_sum_contain_oxygen_bond_distance_aromatic_linkinvent_7_9_3/rearranged_h_0176.sdf

> <i_m_source_file_index>
91

> <r_mmod_Potential_Energy-OPLS-2005>
-118.790283203125

> <r_mmod_Stretch_Energy-OPLS-2005>
178.700225830078

> <r_mmod_Bend_Energy-OPLS-2005>
379.4375

> <r_mmod_Torsional_Energy-OPLS-2005>
398.579864501953

> <r_mmod_Improper_Torsional_Energy-OPLS-2005>
21.898811340332

> <r_mmod_Van_der_Waal_Energy-OPLS-2005>
153.576278686523

> <r_mmod_Electrostatic_Energy-OPLS-2005>
-912.5556640625

> <r_mmod_Solvation_Energy-OPLS-2005>
-464.504760742188

> <b_mmod_Minimization_Converged-OPLS-2005>
0

> <r_mmod_RMS_Derivative-OPLS-2005>
12.0938234329224

$$$$
91
                    3D
 Structure written by MMmdl.
163172  0  0  1  0            999 V2000
  -30.3516  -15.5466   20.3543 C   0  0  0  0  0  0
  -30.4313  -13.0211   19.5250 C   0  0  0  0  0  0
  -29.5453  -12.6383   18.3071 C   0  0  0  0  0  0
  -28.1127  -12.3007   18.7503 C   0  0  0  0  0  0
  -27.5997  -13.3006   19.8118 C   0  0  2  0  0  0
  -28.6264  -13.6023   20.9291 C   0  0  0  0  0  0
  -25.2348  -13.8283   20.5804 C   0  0  0  0  0  0
  -24.1727  -13.0427   20.9293 C   0  0  0  0  0  0
  -24.6414  -11.6940   20.8763 C   0  0  0  0  0  0
  -23.9108  -10.4294   21.0389 C   0  0  0  0  0  0
  -24.3643   -9.4201   21.9173 C   0  0  0  0  0  0
  -23.6305   -8.2240   22.0751 C   0  0  0  0  0  0
  -22.4283   -8.0281   21.3540 C   0  0  0  0  0  0
  -21.9925   -9.0256   20.4643 C   0  0  0  0  0  0
  -22.7270  -10.2130   20.3042 C   0  0  0  0  0  0
  -21.6862   -6.0726   22.5276 C   0  0  0  0  0  0
  -21.4020   -6.5633   23.8208 C   0  0  0  0  0  0
  -21.3664   -5.6789   24.9174 C   0  0  0  0  0  0
  -21.6041   -4.3052   24.7236 C   0  0  0  0  0  0
  -21.8820   -3.8139   23.4353 C   0  0  0  0  0  0
  -21.9193   -4.6950   22.3401 C   0  0  0  0  0  0
  -22.7745  -13.5170   21.1924 C   0  0  0  0  0  0
  -22.1665   -4.2130   21.0981 F   0  0  0  0  0  0
  -21.5630   -3.4534   25.7751 F   0  0  0  0  0  0
  -29.8081  -14.2009   20.2692 N   0  0  0  0  0  0
  -26.2790  -12.9604   20.3235 N   0  0  0  0  0  0
  -25.9359  -11.6678   20.5698 N   0  0  0  0  0  0
  -22.0400  -12.8147   22.0477 N   0  0  0  0  0  0
  -25.3931  -15.2025   20.4281 N   0  0  0  0  0  0
  -31.5885  -15.4821   20.2379 O   0  0  0  0  0  0
  -21.6647   -6.8874   21.4236 O   0  0  0  0  0  0
  -22.3409  -14.5456   20.6752 O   0  0  0  0  0  0
  -24.6805  -31.8033   23.1555 C   0  0  0  0  0  0
  -25.9394  -32.4494   23.8094 C   0  0  1  0  0  0
  -27.2323  -26.7359   20.2205 C   0  0  0  0  0  0
  -25.5965  -33.8320   24.1969 N   0  0  0  0  0  0
  -23.5070  -30.4041   21.5083 C   0  0  2  0  0  0
  -24.9649  -28.7488   20.1252 C   0  0  0  0  0  0
  -22.7763  -29.4305   22.4719 C   0  0  0  0  0  0
  -18.0343  -28.1397   22.8452 C   0  0  0  0  0  0
  -24.1478  -36.7194   23.2650 C   0  0  0  0  0  0
  -26.0842  -30.5490   21.4128 C   0  0  0  0  0  0
  -26.1534  -29.1142   20.7690 C   0  0  0  0  0  0
  -27.2774  -28.1367   20.7773 C   0  0  0  0  0  0
  -26.0077  -26.5668   19.5279 C   0  0  0  0  0  0
  -24.9268  -27.4995   19.4818 C   0  0  0  0  0  0
  -23.7611  -29.7022   20.1435 C   0  0  0  0  0  0
  -25.4130  -36.2929   24.0269 C   0  0  1  0  0  0
  -20.5974  -28.3767   23.1127 C   0  0  2  0  0  0
  -20.6810  -26.9420   22.5391 C   0  0  0  0  0  0
  -19.5787  -26.6353   21.5191 C   0  0  0  0  0  0
  -18.1973  -26.7934   22.1597 C   0  0  0  0  0  0
  -19.1613  -28.8905   23.2764 C   0  0  0  0  0  0
  -18.9518  -30.1487   23.8805 C   0  0  0  0  0  0
  -17.6511  -30.6586   24.0535 C   0  0  0  0  0  0
  -25.9108  -34.9303   23.4959 C   0  0  0  0  0  0
  -16.5401  -29.9075   23.6335 C   0  0  0  0  0  0
  -16.7326  -28.6492   23.0359 C   0  0  0  0  0  0
  -26.4564  -31.6528   25.0722 C   0  0  0  0  0  0
  -25.3617  -31.3834   26.1327 C   0  0  0  0  0  0
  -27.0504  -30.2881   24.6597 C   0  0  0  0  0  0
  -27.5998  -32.4411   25.7548 C   0  0  0  0  0  0
  -27.5568  -37.1747   24.8457 C   0  0  0  0  0  0
  -21.4415  -29.3035   22.3482 N   0  0  0  0  0  0
  -26.4278  -37.3669   23.9398 N   0  0  0  0  0  0
  -24.7799  -30.9503   22.0797 N   0  0  0  0  0  0
  -23.4221  -28.7878   23.3027 O   0  0  0  0  0  0
  -28.2335  -25.5595   20.2123 O   0  0  0  0  0  0
  -26.5767  -34.8875   22.4592 O   0  0  0  0  0  0
  -23.5825  -32.1088   23.6529 O   0  0  0  0  0  0
  -27.7017  -19.9591   21.4102 C   0  0  0  0  0  0
  -28.0479  -18.7823   22.3452 C   0  0  0  0  0  0
  -29.9437  -20.9080   21.9527 C   0  0  0  0  0  0
  -30.2605  -19.7736   22.9117 C   0  0  1  0  0  0
  -29.8534  -18.6178   20.7098 C   0  0  1  0  0  0
  -29.0404  -20.3839   20.8045 C   0  0  1  0  0  0
  -29.5828  -18.5547   22.2621 C   0  0  2  0  0  0
  -31.7717  -19.6351   23.1975 C   0  0  0  0  0  0
  -29.9720  -17.2899   23.0716 C   0  0  0  0  0  0
  -30.1569  -22.4465   19.2925 C   0  0  0  0  0  0
  -28.1249  -23.8440   20.5186 C   0  0  0  0  0  0
  -28.8370  -22.1262   20.0138 C   0  0  2  0  0  0
  -29.6071  -16.9021   20.3937 N   0  0  0  0  0  0
  -31.4296  -13.2723   19.1639 H   0  0  0  0  0  0
  -30.5737  -12.1660   20.1885 H   0  0  0  0  0  0
  -29.9815  -11.8014   17.7601 H   0  0  0  0  0  0
  -29.5189  -13.4795   17.6129 H   0  0  0  0  0  0
  -28.1209  -11.2954   19.1718 H   0  0  0  0  0  0
  -27.4431  -12.2698   17.8905 H   0  0  0  0  0  0
  -27.4712  -14.2325   19.2590 H   0  0  0  0  0  0
  -28.8743  -12.7101   21.5067 H   0  0  0  0  0  0
  -28.2155  -14.3255   21.6361 H   0  0  0  0  0  0
  -25.2781   -9.5678   22.4758 H   0  0  0  0  0  0
  -24.0006   -7.4639   22.7478 H   0  0  0  0  0  0
  -21.0850   -8.8780   19.8963 H   0  0  0  0  0  0
  -22.3717  -10.9663   19.6156 H   0  0  0  0  0  0
  -21.2017   -7.6140   23.9709 H   0  0  0  0  0  0
  -21.1489   -6.0520   25.9079 H   0  0  0  0  0  0
  -22.0594   -2.7591   23.2866 H   0  0  0  0  0  0
  -22.4045  -11.9830   22.4885 H   0  0  0  0  0  0
  -21.0987  -13.1129   22.2650 H   0  0  0  0  0  0
  -24.6188  -15.8464   20.5553 H   0  0  0  0  0  0
  -26.2300  -15.6531   20.0840 H   0  0  0  0  0  0
  -26.7494  -32.4989   23.0820 H   0  0  0  0  0  0
  -24.9978  -33.9347   25.0031 H   0  0  0  0  0  0
  -22.8282  -31.2389   21.3213 H   0  0  0  0  0  0
  -23.3758  -35.9514   23.3280 H   0  0  0  0  0  0
  -24.3519  -36.8929   22.2074 H   0  0  0  0  0  0
  -23.7240  -37.6351   23.6771 H   0  0  0  0  0  0
  -26.2761  -31.2759   20.6223 H   0  0  0  0  0  0
  -26.9361  -30.6198   22.0764 H   0  0  0  0  0  0
  -28.1820  -28.4282   21.2923 H   0  0  0  0  0  0
  -25.8569  -25.6242   19.0224 H   0  0  0  0  0  0
  -24.0288  -27.2140   18.9512 H   0  0  0  0  0  0
  -23.9375  -30.4624   19.3816 H   0  0  0  0  0  0
  -22.8657  -29.1693   19.8200 H   0  0  0  0  0  0
  -25.1335  -36.1705   25.0755 H   0  0  0  0  0  0
  -21.0036  -28.3413   24.1253 H   0  0  0  0  0  0
  -20.5656  -26.2393   23.3663 H   0  0  0  0  0  0
  -21.6675  -26.7350   22.1213 H   0  0  0  0  0  0
  -19.6922  -25.6231   21.1306 H   0  0  0  0  0  0
  -19.6743  -27.3088   20.6663 H   0  0  0  0  0  0
  -17.4240  -26.6678   21.3999 H   0  0  0  0  0  0
  -18.0341  -26.0075   22.8980 H   0  0  0  0  0  0
  -19.8000  -30.7312   24.2156 H   0  0  0  0  0  0
  -17.5073  -31.6262   24.5153 H   0  0  0  0  0  0
  -15.5393  -30.2946   23.7719 H   0  0  0  0  0  0
  -15.8727  -28.0790   22.7114 H   0  0  0  0  0  0
  -24.5825  -30.7156   25.7611 H   0  0  0  0  0  0
  -24.8764  -32.3049   26.4542 H   0  0  0  0  0  0
  -25.7764  -30.9133   27.0255 H   0  0  0  0  0  0
  -26.3214  -29.6471   24.1621 H   0  0  0  0  0  0
  -27.3967  -29.7353   25.5337 H   0  0  0  0  0  0
  -27.9177  -30.4005   24.0094 H   0  0  0  0  0  0
  -27.2525  -33.3787   26.1885 H   0  0  0  0  0  0
  -28.3912  -32.6854   25.0454 H   0  0  0  0  0  0
  -28.0542  -31.8732   26.5663 H   0  0  0  0  0  0
  -28.2539  -38.0086   24.7520 H   0  0  0  0  0  0
  -28.1123  -36.2610   24.6286 H   0  0  0  0  0  0
  -27.2282  -37.1389   25.8860 H   0  0  0  0  0  0
  -20.9713  -29.8782   21.6627 H   0  0  0  0  0  0
  -26.0130  -38.2720   24.1441 H   0  0  0  0  0  0
  -27.2280  -20.7776   21.9556 H   0  0  0  0  0  0
  -27.0098  -19.6406   20.6293 H   0  0  0  0  0  0
  -27.5071  -17.8895   22.0300 H   0  0  0  0  0  0
  -27.7265  -18.9896   23.3669 H   0  0  0  0  0  0
  -30.8808  -21.2792   21.5431 H   0  0  0  0  0  0
  -29.4878  -21.7415   22.4886 H   0  0  0  0  0  0
  -29.7800  -19.9803   23.8713 H   0  0  0  0  0  0
  -30.9145  -18.7671   20.5044 H   0  0  0  0  0  0
  -32.3341  -19.3582   22.3065 H   0  0  0  0  0  0
  -31.9692  -18.8825   23.9626 H   0  0  0  0  0  0
  -32.1826  -20.5736   23.5726 H   0  0  0  0  0  0
  -29.9127  -17.4839   24.1432 H   0  0  0  0  0  0
  -30.9953  -16.9766   22.8563 H   0  0  0  0  0  0
  -29.3091  -16.4439   22.8910 H   0  0  0  0  0  0
  -30.5774  -21.5595   18.8173 H   0  0  0  0  0  0
  -30.9053  -22.8563   19.9712 H   0  0  0  0  0  0
  -29.9954  -23.1892   18.5103 H   0  0  0  0  0  0
  -28.3593  -23.8519   21.5825 H   0  0  0  0  0  0
  -27.0477  -23.6745   20.5101 H   0  0  0  0  0  0
  -28.1639  -21.8762   19.1916 H   0  0  0  0  0  0
  -28.6174  -16.7221   20.3281 H   0  0  0  0  0  0
  1 25  1  0  0  0
  1 30  2  0  0  0
  1 83  1  0  0  0
  2  3  1  0  0  0
  2 25  1  0  0  0
  2 84  1  0  0  0
  2 85  1  0  0  0
  3  4  1  0  0  0
  3 86  1  0  0  0
  3 87  1  0  0  0
  4  5  1  0  0  0
  4 88  1  0  0  0
  4 89  1  0  0  0
  5  6  1  0  0  0
  5 26  1  0  0  0
  5 90  1  0  0  0
  6 25  1  0  0  0
  6 91  1  0  0  0
  6 92  1  0  0  0
  7  8  2  0  0  0
  7 26  1  0  0  0
  7 29  1  0  0  0
  8  9  1  0  0  0
  8 22  1  0  0  0
  9 10  1  0  0  0
  9 27  2  0  0  0
 10 11  2  0  0  0
 10 15  1  0  0  0
 11 12  1  0  0  0
 11 93  1  0  0  0
 12 13  2  0  0  0
 12 94  1  0  0  0
 13 14  1  0  0  0
 13 31  1  0  0  0
 14 15  2  0  0  0
 14 95  1  0  0  0
 15 96  1  0  0  0
 16 17  2  0  0  0
 16 21  1  0  0  0
 16 31  1  0  0  0
 17 18  1  0  0  0
 17 97  1  0  0  0
 18 19  2  0  0  0
 18 98  1  0  0  0
 19 20  1  0  0  0
 19 24  1  0  0  0
 20 21  2  0  0  0
 20 99  1  0  0  0
 21 23  1  0  0  0
 22 28  1  0  0  0
 22 32  2  0  0  0
 26 27  1  0  0  0
 28100  1  0  0  0
 28101  1  0  0  0
 29102  1  0  0  0
 29103  1  0  0  0
 33 34  1  0  0  0
 33 66  1  0  0  0
 33 70  2  0  0  0
 34 36  1  0  0  0
 34 59  1  0  0  0
 34104  1  0  0  0
 35 44  2  0  0  0
 35 45  1  0  0  0
 35 68  1  0  0  0
 36 56  1  0  0  0
 36105  1  0  0  0
 37 39  1  0  0  0
 37 47  1  0  0  0
 37 66  1  0  0  0
 37106  1  0  0  0
 38 43  2  0  0  0
 38 46  1  0  0  0
 38 47  1  0  0  0
 39 64  1  0  0  0
 39 67  2  0  0  0
 40 52  1  0  0  0
 40 53  2  0  0  0
 40 58  1  0  0  0
 41107  1  0  0  0
 41108  1  0  0  0
 41109  1  0  0  0
 41 48  1  0  0  0
 42 43  1  0  0  0
 42 66  1  0  0  0
 42110  1  0  0  0
 42111  1  0  0  0
 43 44  1  0  0  0
 44112  1  0  0  0
 45 46  2  0  0  0
 45113  1  0  0  0
 46114  1  0  0  0
 47115  1  0  0  0
 47116  1  0  0  0
 48 56  1  0  0  0
 48 65  1  0  0  0
 48117  1  0  0  0
 49 50  1  0  0  0
 49 53  1  0  0  0
 49 64  1  0  0  0
 49118  1  0  0  0
 50 51  1  0  0  0
 50119  1  0  0  0
 50120  1  0  0  0
 51 52  1  0  0  0
 51121  1  0  0  0
 51122  1  0  0  0
 52123  1  0  0  0
 52124  1  0  0  0
 53 54  1  0  0  0
 54 55  2  0  0  0
 54125  1  0  0  0
 55 57  1  0  0  0
 55126  1  0  0  0
 56 69  2  0  0  0
 57 58  2  0  0  0
 57127  1  0  0  0
 58128  1  0  0  0
 59 60  1  0  0  0
 59 61  1  0  0  0
 59 62  1  0  0  0
 60129  1  0  0  0
 60130  1  0  0  0
 60131  1  0  0  0
 61132  1  0  0  0
 61133  1  0  0  0
 61134  1  0  0  0
 62135  1  0  0  0
 62136  1  0  0  0
 62137  1  0  0  0
 63 65  1  0  0  0
 63138  1  0  0  0
 63139  1  0  0  0
 63140  1  0  0  0
 64141  1  0  0  0
 65142  1  0  0  0
 68 81  1  0  0  0
 71 72  1  0  0  0
 71143  1  0  0  0
 71144  1  0  0  0
 71 76  1  0  0  0
 72 77  1  0  0  0
 72145  1  0  0  0
 72146  1  0  0  0
 73 74  1  0  0  0
 73 76  1  0  0  0
 73147  1  0  0  0
 73148  1  0  0  0
 74 77  1  0  0  0
 74 78  1  0  0  0
 74149  1  0  0  0
 75 76  1  0  0  0
 75 77  1  0  0  0
 75 83  1  0  0  0
 75150  1  0  0  0
 76 82  1  0  0  0
 77 79  1  0  0  0
 78151  1  0  0  0
 78152  1  0  0  0
 78153  1  0  0  0
 79154  1  0  0  0
 79155  1  0  0  0
 79156  1  0  0  0
 80157  1  0  0  0
 80158  1  0  0  0
 80159  1  0  0  0
 80 82  1  0  0  0
 81 82  1  0  0  0
 81160  1  0  0  0
 81161  1  0  0  0
 82162  1  0  0  0
 83163  1  0  0  0
M  ISO  4   1 100  68 101  81 101  83 100
M  END
> <chiral flag>
0

> <version>
0

> <s_m_source_file>
/data/baiqing/PycharmProjects/Reinvent-master-3.2/result/LINK_invent/BTK/process_docking_weight1_custom_sum_contain_oxygen_bond_distance_aromatic_linkinvent_7_9_3/rearranged_h_0176.sdf

> <i_m_source_file_index>
92

> <r_mmod_Potential_Energy-OPLS-2005>
2579.8759765625

> <r_mmod_Stretch_Energy-OPLS-2005>
1117.50305175781

> <r_mmod_Bend_Energy-OPLS-2005>
833.92333984375

> <r_mmod_Torsional_Energy-OPLS-2005>
337.402526855469

> <r_mmod_Improper_Torsional_Energy-OPLS-2005>
3.75655889511108

> <r_mmod_Van_der_Waal_Energy-OPLS-2005>
123.458595275879

> <r_mmod_Electrostatic_Energy-OPLS-2005>
-426.932067871094

> <r_mmod_Solvation_Energy-OPLS-2005>
-197.479309082031

> <b_mmod_Minimization_Converged-OPLS-2005>
0

> <r_mmod_RMS_Derivative-OPLS-2005>
2.65299320220947

$$$$
92
                    3D
 Structure written by MMmdl.
156165  0  0  1  0            999 V2000
  -30.5790  -15.0275   20.3593 C   0  0  0  0  0  0
  -30.4414  -12.6549   19.4499 C   0  0  0  0  0  0
  -29.5043  -12.5129   18.2308 C   0  0  0  0  0  0
  -28.0507  -12.2635   18.6809 C   0  0  0  0  0  0
  -27.6162  -13.2056   19.8308 C   0  0  2  0  0  0
  -28.6852  -13.3595   20.9350 C   0  0  0  0  0  0
  -25.2518  -13.8062   20.5844 C   0  0  0  0  0  0
  -24.1777  -13.0369   20.9279 C   0  0  0  0  0  0
  -24.6349  -11.6829   20.8815 C   0  0  0  0  0  0
  -23.9020  -10.4255   21.0435 C   0  0  0  0  0  0
  -24.3583   -9.4181   21.9209 C   0  0  0  0  0  0
  -23.6276   -8.2213   22.0764 C   0  0  0  0  0  0
  -22.4258   -8.0255   21.3549 C   0  0  0  0  0  0
  -21.9881   -9.0227   20.4645 C   0  0  0  0  0  0
  -22.7199  -10.2114   20.3066 C   0  0  0  0  0  0
  -21.6845   -6.0727   22.5278 C   0  0  0  0  0  0
  -21.4007   -6.5624   23.8213 C   0  0  0  0  0  0
  -21.3662   -5.6778   24.9181 C   0  0  0  0  0  0
  -21.6048   -4.3046   24.7227 C   0  0  0  0  0  0
  -21.8817   -3.8141   23.4347 C   0  0  0  0  0  0
  -21.9208   -4.6965   22.3406 C   0  0  0  0  0  0
  -22.7806  -13.5193   21.1894 C   0  0  0  0  0  0
  -22.1673   -4.2141   21.0994 F   0  0  0  0  0  0
  -21.5641   -3.4539   25.7750 F   0  0  0  0  0  0
  -29.9309  -13.7875   20.2745 N   0  0  0  0  0  0
  -26.2870  -12.9172   20.3393 N   0  0  0  0  0  0
  -25.9275  -11.6361   20.5840 N   0  0  0  0  0  0
  -22.0420  -12.8222   22.0437 N   0  0  0  0  0  0
  -25.4302  -15.1800   20.4329 N   0  0  0  0  0  0
  -31.8123  -15.0043   20.3139 O   0  0  0  0  0  0
  -21.6640   -6.8856   21.4224 O   0  0  0  0  0  0
  -22.3527  -14.5528   20.6750 O   0  0  0  0  0  0
  -24.6435  -31.8410   23.1847 C   0  0  0  0  0  0
  -25.9216  -32.4662   23.8271 C   0  0  1  0  0  0
  -27.2484  -27.1312   20.1569 C   0  0  0  0  0  0
  -25.5946  -33.8474   24.2184 N   0  0  0  0  0  0
  -23.4514  -30.4547   21.5281 C   0  0  2  0  0  0
  -24.9069  -28.8755   20.1072 C   0  0  0  0  0  0
  -22.7592  -29.4522   22.4847 C   0  0  0  0  0  0
  -18.0306  -28.1380   22.8471 C   0  0  0  0  0  0
  -24.1487  -36.7247   23.2651 C   0  0  0  0  0  0
  -26.0069  -30.7089   21.3900 C   0  0  0  0  0  0
  -26.0786  -29.3187   20.7325 C   0  0  0  0  0  0
  -27.2416  -28.4622   20.7397 C   0  0  0  0  0  0
  -26.0496  -26.7877   19.4872 C   0  0  0  0  0  0
  -24.9069  -27.6237   19.4691 C   0  0  0  0  0  0
  -23.6809  -29.7759   20.1491 C   0  0  0  0  0  0
  -25.4114  -36.3007   24.0321 C   0  0  1  0  0  0
  -20.5919  -28.3723   23.1216 C   0  0  2  0  0  0
  -20.6786  -26.9424   22.5399 C   0  0  0  0  0  0
  -19.5758  -26.6379   21.5208 C   0  0  0  0  0  0
  -18.1943  -26.7925   22.1618 C   0  0  0  0  0  0
  -19.1560  -28.8869   23.2823 C   0  0  0  0  0  0
  -18.9481  -30.1464   23.8862 C   0  0  0  0  0  0
  -17.6477  -30.6588   24.0558 C   0  0  0  0  0  0
  -25.9066  -34.9388   23.5070 C   0  0  0  0  0  0
  -16.5366  -29.9083   23.6329 C   0  0  0  0  0  0
  -16.7289  -28.6488   23.0373 C   0  0  0  0  0  0
  -26.4544  -31.6541   25.0726 C   0  0  0  0  0  0
  -25.3747  -31.3732   26.1431 C   0  0  0  0  0  0
  -27.0432  -30.2929   24.6344 C   0  0  0  0  0  0
  -27.6048  -32.4348   25.7511 C   0  0  0  0  0  0
  -27.5573  -37.1766   24.8462 C   0  0  0  0  0  0
  -21.4280  -29.3041   22.3589 N   0  0  0  0  0  0
  -26.4272  -37.3727   23.9416 N   0  0  0  0  0  0
  -24.7200  -31.0265   22.0879 N   0  0  0  0  0  0
  -23.4212  -28.8100   23.3037 O   0  0  0  0  0  0
  -28.3425  -26.1903   20.2778 O   0  0  0  0  0  0
  -26.5663  -34.8893   22.4659 O   0  0  0  0  0  0
  -23.5558  -32.1300   23.7057 O   0  0  0  0  0  0
  -29.1992  -20.5088   20.7004 C   0  0  0  0  0  0
  -31.1539  -20.5794   18.8633 C   0  0  0  0  0  0
  -29.5104  -21.8721   20.1913 C   0  0  0  0  0  0
  -30.5831  -21.8191   19.2606 C   0  0  0  0  0  0
  -29.8630  -19.2414   20.2777 C   0  0  0  0  0  0
  -28.1140  -17.2167   20.5416 C   0  0  0  0  0  0
  -28.8217  -16.6405   19.2775 C   0  0  0  0  0  0
  -29.5734  -17.6882   20.8198 C   0  0  2  0  0  0
  -31.2139  -23.0885   18.7057 C   0  0  0  0  0  0
  -28.9421  -23.3491   20.7244 C   0  0  0  0  0  0
  -28.3904  -24.6872   19.8347 C   0  0  0  0  0  0
  -30.8166  -19.3518   19.3330 N   0  0  0  0  0  0
  -29.8962  -16.2811   20.1734 N   0  0  0  0  0  0
  -31.4578  -12.8407   19.1010 H   0  0  0  0  0  0
  -30.4834  -11.7330   20.0312 H   0  0  0  0  0  0
  -29.8379  -11.6995   17.5846 H   0  0  0  0  0  0
  -29.5518  -13.4213   17.6295 H   0  0  0  0  0  0
  -27.9789  -11.2256   19.0075 H   0  0  0  0  0  0
  -27.3710  -12.3633   17.8321 H   0  0  0  0  0  0
  -27.4967  -14.1539   19.3422 H   0  0  0  0  0  0
  -28.8299  -12.4290   21.4856 H   0  0  0  0  0  0
  -28.3682  -14.1101   21.6598 H   0  0  0  0  0  0
  -25.2724   -9.5681   22.4785 H   0  0  0  0  0  0
  -24.0007   -7.4587   22.7451 H   0  0  0  0  0  0
  -21.0835   -8.8742   19.8916 H   0  0  0  0  0  0
  -22.3667  -10.9673   19.6185 H   0  0  0  0  0  0
  -21.1966   -7.6127   23.9721 H   0  0  0  0  0  0
  -21.1490   -6.0511   25.9088 H   0  0  0  0  0  0
  -22.0597   -2.7599   23.2865 H   0  0  0  0  0  0
  -22.4006  -11.9884   22.4847 H   0  0  0  0  0  0
  -21.1012  -13.1241   22.2563 H   0  0  0  0  0  0
  -24.6783  -15.8444   20.5761 H   0  0  0  0  0  0
  -26.3167  -15.6186   20.2213 H   0  0  0  0  0  0
  -26.7297  -32.5256   23.1008 H   0  0  0  0  0  0
  -25.0070  -33.9577   25.0315 H   0  0  0  0  0  0
  -22.7547  -31.2795   21.3662 H   0  0  0  0  0  0
  -23.3746  -35.9577   23.3283 H   0  0  0  0  0  0
  -24.3585  -36.8916   22.2072 H   0  0  0  0  0  0
  -23.7241  -37.6442   23.6705 H   0  0  0  0  0  0
  -26.1719  -31.4616   20.6184 H   0  0  0  0  0  0
  -26.8756  -30.7540   22.0358 H   0  0  0  0  0  0
  -28.1330  -28.7996   21.2508 H   0  0  0  0  0  0
  -25.9564  -25.8352   18.9890 H   0  0  0  0  0  0
  -24.0167  -27.2824   18.9588 H   0  0  0  0  0  0
  -23.8163  -30.5486   19.3898 H   0  0  0  0  0  0
  -22.7975  -29.2123   19.8406 H   0  0  0  0  0  0
  -25.1292  -36.1848   25.0811 H   0  0  0  0  0  0
  -20.9982  -28.3339   24.1346 H   0  0  0  0  0  0
  -20.5668  -26.2367   23.3638 H   0  0  0  0  0  0
  -21.6658  -26.7428   22.1202 H   0  0  0  0  0  0
  -19.6930  -25.6281   21.1266 H   0  0  0  0  0  0
  -19.6679  -27.3177   20.6723 H   0  0  0  0  0  0
  -17.4211  -26.6665   21.4023 H   0  0  0  0  0  0
  -18.0318  -26.0065   22.9002 H   0  0  0  0  0  0
  -19.7968  -30.7272   24.2230 H   0  0  0  0  0  0
  -17.5044  -31.6261   24.5172 H   0  0  0  0  0  0
  -15.5369  -30.2981   23.7661 H   0  0  0  0  0  0
  -15.8690  -28.0791   22.7123 H   0  0  0  0  0  0
  -24.5893  -30.7101   25.7781 H   0  0  0  0  0  0
  -24.8963  -32.2909   26.4861 H   0  0  0  0  0  0
  -25.8044  -30.8914   27.0226 H   0  0  0  0  0  0
  -26.3069  -29.6613   24.1337 H   0  0  0  0  0  0
  -27.4025  -29.7245   25.4946 H   0  0  0  0  0  0
  -27.8993  -30.4148   23.9690 H   0  0  0  0  0  0
  -27.2596  -33.3658   26.2027 H   0  0  0  0  0  0
  -28.3881  -32.6918   25.0362 H   0  0  0  0  0  0
  -28.0700  -31.8540   26.5487 H   0  0  0  0  0  0
  -28.2556  -38.0095   24.7532 H   0  0  0  0  0  0
  -28.1101  -36.2624   24.6243 H   0  0  0  0  0  0
  -27.2303  -37.1371   25.8868 H   0  0  0  0  0  0
  -20.9520  -29.8746   21.6741 H   0  0  0  0  0  0
  -26.0140  -38.2795   24.1426 H   0  0  0  0  0  0
  -28.4448  -20.4306   21.4702 H   0  0  0  0  0  0
  -31.9648  -20.5738   18.1484 H   0  0  0  0  0  0
  -27.4060  -17.5599   19.7857 H   0  0  0  0  0  0
  -27.7640  -18.1901   20.8786 H   0  0  0  0  0  0
  -28.3241  -15.8288   18.7690 H   0  0  0  0  0  0
  -29.0993  -17.3691   18.5081 H   0  0  0  0  0  0
  -29.7782  -17.6762   21.8917 H   0  0  0  0  0  0
  -30.6182  -23.4972   17.8896 H   0  0  0  0  0  0
  -32.2157  -22.8860   18.3216 H   0  0  0  0  0  0
  -31.3276  -23.8499   19.4790 H   0  0  0  0  0  0
  -29.7678  -23.7352   21.3239 H   0  0  0  0  0  0
  -28.1710  -23.1240   21.4602 H   0  0  0  0  0  0
  -27.4219  -24.3965   19.4423 H   0  0  0  0  0  0
  -29.0205  -24.7432   18.9499 H   0  0  0  0  0  0
  1 25  1  0  0  0
  1 30  2  0  0  0
  1 83  1  0  0  0
  2  3  1  0  0  0
  2 25  1  0  0  0
  2 84  1  0  0  0
  2 85  1  0  0  0
  3  4  1  0  0  0
  3 86  1  0  0  0
  3 87  1  0  0  0
  4  5  1  0  0  0
  4 88  1  0  0  0
  4 89  1  0  0  0
  5  6  1  0  0  0
  5 26  1  0  0  0
  5 90  1  0  0  0
  6 25  1  0  0  0
  6 91  1  0  0  0
  6 92  1  0  0  0
  7  8  2  0  0  0
  7 26  1  0  0  0
  7 29  1  0  0  0
  8  9  1  0  0  0
  8 22  1  0  0  0
  9 10  1  0  0  0
  9 27  2  0  0  0
 10 11  2  0  0  0
 10 15  1  0  0  0
 11 12  1  0  0  0
 11 93  1  0  0  0
 12 13  2  0  0  0
 12 94  1  0  0  0
 13 14  1  0  0  0
 13 31  1  0  0  0
 14 15  2  0  0  0
 14 95  1  0  0  0
 15 96  1  0  0  0
 16 17  2  0  0  0
 16 21  1  0  0  0
 16 31  1  0  0  0
 17 18  1  0  0  0
 17 97  1  0  0  0
 18 19  2  0  0  0
 18 98  1  0  0  0
 19 20  1  0  0  0
 19 24  1  0  0  0
 20 21  2  0  0  0
 20 99  1  0  0  0
 21 23  1  0  0  0
 22 28  1  0  0  0
 22 32  2  0  0  0
 26 27  1  0  0  0
 28100  1  0  0  0
 28101  1  0  0  0
 29102  1  0  0  0
 29103  1  0  0  0
 33 34  1  0  0  0
 33 66  1  0  0  0
 33 70  2  0  0  0
 34 36  1  0  0  0
 34 59  1  0  0  0
 34104  1  0  0  0
 35 44  2  0  0  0
 35 45  1  0  0  0
 35 68  1  0  0  0
 36 56  1  0  0  0
 36105  1  0  0  0
 37 39  1  0  0  0
 37 47  1  0  0  0
 37 66  1  0  0  0
 37106  1  0  0  0
 38 43  2  0  0  0
 38 46  1  0  0  0
 38 47  1  0  0  0
 39 64  1  0  0  0
 39 67  2  0  0  0
 40 52  1  0  0  0
 40 53  2  0  0  0
 40 58  1  0  0  0
 41107  1  0  0  0
 41108  1  0  0  0
 41109  1  0  0  0
 41 48  1  0  0  0
 42 43  1  0  0  0
 42 66  1  0  0  0
 42110  1  0  0  0
 42111  1  0  0  0
 43 44  1  0  0  0
 44112  1  0  0  0
 45 46  2  0  0  0
 45113  1  0  0  0
 46114  1  0  0  0
 47115  1  0  0  0
 47116  1  0  0  0
 48 56  1  0  0  0
 48 65  1  0  0  0
 48117  1  0  0  0
 49 50  1  0  0  0
 49 53  1  0  0  0
 49 64  1  0  0  0
 49118  1  0  0  0
 50 51  1  0  0  0
 50119  1  0  0  0
 50120  1  0  0  0
 51 52  1  0  0  0
 51121  1  0  0  0
 51122  1  0  0  0
 52123  1  0  0  0
 52124  1  0  0  0
 53 54  1  0  0  0
 54 55  2  0  0  0
 54125  1  0  0  0
 55 57  1  0  0  0
 55126  1  0  0  0
 56 69  2  0  0  0
 57 58  2  0  0  0
 57127  1  0  0  0
 58128  1  0  0  0
 59 60  1  0  0  0
 59 61  1  0  0  0
 59 62  1  0  0  0
 60129  1  0  0  0
 60130  1  0  0  0
 60131  1  0  0  0
 61132  1  0  0  0
 61133  1  0  0  0
 61134  1  0  0  0
 62135  1  0  0  0
 62136  1  0  0  0
 62137  1  0  0  0
 63 65  1  0  0  0
 63138  1  0  0  0
 63139  1  0  0  0
 63140  1  0  0  0
 64141  1  0  0  0
 65142  1  0  0  0
 68 81  1  0  0  0
 71 73  2  0  0  0
 71 75  1  0  0  0
 71143  1  0  0  0
 72 74  2  0  0  0
 72 82  1  0  0  0
 72144  1  0  0  0
 73 74  1  0  0  0
 73 80  1  0  0  0
 74 79  1  0  0  0
 75 82  2  0  0  0
 75 78  1  0  0  0
 76 77  1  0  0  0
 76 78  1  0  0  0
 76145  1  0  0  0
 76146  1  0  0  0
 77 83  1  0  0  0
 77147  1  0  0  0
 77148  1  0  0  0
 78 83  1  0  0  0
 78149  1  0  0  0
 79150  1  0  0  0
 79151  1  0  0  0
 79152  1  0  0  0
 80 81  1  0  0  0
 80153  1  0  0  0
 80154  1  0  0  0
 81155  1  0  0  0
 81156  1  0  0  0
M  ISO  4   1 100  68 101  81 101  83 100
M  END
> <chiral flag>
0

> <version>
0

> <s_m_source_file>
/data/baiqing/PycharmProjects/Reinvent-master-3.2/result/LINK_invent/BTK/process_docking_weight1_custom_sum_contain_oxygen_bond_distance_aromatic_linkinvent_7_9_3/rearranged_h_0176.sdf

> <i_m_source_file_index>
93

> <r_mmod_Potential_Energy-OPLS-2005>
738.022583007812

> <r_mmod_Stretch_Energy-OPLS-2005>
283.720947265625

> <r_mmod_Bend_Energy-OPLS-2005>
499.176910400391

> <r_mmod_Torsional_Energy-OPLS-2005>
302.871246337891

> <r_mmod_Improper_Torsional_Energy-OPLS-2005>
9.77277278900146

> <r_mmod_Van_der_Waal_Energy-OPLS-2005>
142.521438598633

> <r_mmod_Electrostatic_Energy-OPLS-2005>
-504.784790039062

> <r_mmod_Solvation_Energy-OPLS-2005>
-229.999298095703

> <b_mmod_Minimization_Converged-OPLS-2005>
0

> <r_mmod_RMS_Derivative-OPLS-2005>
3.34467673301697

$$$$
93
                    3D
 Structure written by MMmdl.
161171  0  0  1  0            999 V2000
  -30.6882  -14.7216   20.4518 C   0  0  0  0  0  0
  -30.4134  -12.4505   19.4604 C   0  0  0  0  0  0
  -29.4955  -12.4973   18.2233 C   0  0  0  0  0  0
  -28.0231  -12.3336   18.6440 C   0  0  0  0  0  0
  -27.6356  -13.2409   19.8444 C   0  0  2  0  0  0
  -28.6889  -13.1943   20.9712 C   0  0  0  0  0  0
  -25.2492  -13.8229   20.5731 C   0  0  0  0  0  0
  -24.1791  -13.0455   20.9219 C   0  0  0  0  0  0
  -24.6394  -11.6935   20.8759 C   0  0  0  0  0  0
  -23.9072  -10.4307   21.0410 C   0  0  0  0  0  0
  -24.3626   -9.4217   21.9182 C   0  0  0  0  0  0
  -23.6302   -8.2252   22.0750 C   0  0  0  0  0  0
  -22.4281   -8.0290   21.3546 C   0  0  0  0  0  0
  -21.9916   -9.0263   20.4649 C   0  0  0  0  0  0
  -22.7240  -10.2144   20.3060 C   0  0  0  0  0  0
  -21.6854   -6.0746   22.5281 C   0  0  0  0  0  0
  -21.4018   -6.5646   23.8217 C   0  0  0  0  0  0
  -21.3662   -5.6793   24.9175 C   0  0  0  0  0  0
  -21.6050   -4.3060   24.7225 C   0  0  0  0  0  0
  -21.8817   -3.8154   23.4345 C   0  0  0  0  0  0
  -21.9192   -4.6971   22.3401 C   0  0  0  0  0  0
  -22.7811  -13.5228   21.1873 C   0  0  0  0  0  0
  -22.1658   -4.2157   21.0977 F   0  0  0  0  0  0
  -21.5628   -3.4543   25.7739 F   0  0  0  0  0  0
  -29.9764  -13.5434   20.3607 N   0  0  0  0  0  0
  -26.2923  -12.9449   20.3310 N   0  0  0  0  0  0
  -25.9333  -11.6582   20.5782 N   0  0  0  0  0  0
  -22.0460  -12.8224   22.0431 N   0  0  0  0  0  0
  -25.4192  -15.1953   20.4177 N   0  0  0  0  0  0
  -31.9009  -14.6734   20.2209 O   0  0  0  0  0  0
  -21.6639   -6.8889   21.4244 O   0  0  0  0  0  0
  -22.3491  -14.5530   20.6717 O   0  0  0  0  0  0
  -24.6340  -31.8587   23.2037 C   0  0  0  0  0  0
  -25.9176  -32.4763   23.8377 C   0  0  1  0  0  0
  -27.2016  -27.2556   20.1041 C   0  0  0  0  0  0
  -25.5983  -33.8572   24.2294 N   0  0  0  0  0  0
  -23.4287  -30.4873   21.5495 C   0  0  2  0  0  0
  -24.8708  -28.9492   20.1090 C   0  0  0  0  0  0
  -22.7518  -29.4625   22.4922 C   0  0  0  0  0  0
  -18.0300  -28.1390   22.8490 C   0  0  0  0  0  0
  -24.1493  -36.7278   23.2628 C   0  0  0  0  0  0
  -25.9810  -30.7634   21.3930 C   0  0  0  0  0  0
  -26.0482  -29.3910   20.7258 C   0  0  0  0  0  0
  -27.2156  -28.5552   20.7213 C   0  0  0  0  0  0
  -25.9985  -26.9110   19.4353 C   0  0  0  0  0  0
  -24.8514  -27.7161   19.4556 C   0  0  0  0  0  0
  -23.6448  -29.8366   20.1622 C   0  0  0  0  0  0
  -25.4116  -36.3071   24.0320 C   0  0  1  0  0  0
  -20.5905  -28.3710   23.1253 C   0  0  2  0  0  0
  -20.6787  -26.9422   22.5405 C   0  0  0  0  0  0
  -19.5763  -26.6375   21.5214 C   0  0  0  0  0  0
  -18.1936  -26.7937   22.1613 C   0  0  0  0  0  0
  -19.1555  -28.8870   23.2861 C   0  0  0  0  0  0
  -18.9472  -30.1465   23.8889 C   0  0  0  0  0  0
  -17.6468  -30.6590   24.0559 C   0  0  0  0  0  0
  -25.9074  -34.9440   23.5103 C   0  0  0  0  0  0
  -16.5361  -29.9079   23.6333 C   0  0  0  0  0  0
  -16.7285  -28.6493   23.0364 C   0  0  0  0  0  0
  -26.4513  -31.6584   25.0778 C   0  0  0  0  0  0
  -25.3713  -31.3824   26.1496 C   0  0  0  0  0  0
  -27.0299  -30.2956   24.6324 C   0  0  0  0  0  0
  -27.6099  -32.4293   25.7525 C   0  0  0  0  0  0
  -27.5592  -37.1775   24.8442 C   0  0  0  0  0  0
  -21.4228  -29.3060   22.3650 N   0  0  0  0  0  0
  -26.4281  -37.3778   23.9424 N   0  0  0  0  0  0
  -24.7002  -31.0542   22.1034 N   0  0  0  0  0  0
  -23.4210  -28.8141   23.3008 O   0  0  0  0  0  0
  -28.2585  -26.3047   20.1740 O   0  0  0  0  0  0
  -26.5624  -34.8906   22.4659 O   0  0  0  0  0  0
  -23.5487  -32.1434   23.7315 O   0  0  0  0  0  0
  -29.3940  -21.4474   19.1518 C   0  0  0  0  0  0
  -29.3662  -20.6926   20.3629 C   0  0  0  0  0  0
  -28.6824  -22.8654   21.3410 C   0  0  0  0  0  0
  -29.0160  -21.5045   21.4724 C   0  0  0  0  0  0
  -28.6878  -23.5445   20.0978 C   0  0  0  0  0  0
  -28.2376  -23.3856   22.6667 C   0  0  0  0  0  0
  -28.7993  -18.1554   21.1734 C   0  0  0  0  0  0
  -30.1365  -18.3897   19.1929 C   0  0  0  0  0  0
  -29.3081  -16.6607   21.4002 C   0  0  0  0  0  0
  -30.7569  -16.9633   19.4228 C   0  0  0  0  0  0
  -28.5884  -22.2015   23.5962 C   0  0  0  0  0  0
  -29.7889  -19.1521   20.4935 C   0  0  0  0  0  0
  -27.8875  -24.8917   19.8015 C   0  0  0  0  0  0
  -29.0674  -22.7829   19.0250 N   0  0  0  0  0  0
  -30.0565  -15.9678   20.3051 N   0  0  0  0  0  0
  -28.9162  -21.0725   22.7655 O   0  0  0  0  0  0
  -31.4549  -12.5450   19.1477 H   0  0  0  0  0  0
  -30.3430  -11.4852   19.9636 H   0  0  0  0  0  0
  -29.7715  -11.7149   17.5148 H   0  0  0  0  0  0
  -29.6265  -13.4466   17.7012 H   0  0  0  0  0  0
  -27.8753  -11.2858   18.9086 H   0  0  0  0  0  0
  -27.3649  -12.5276   17.7964 H   0  0  0  0  0  0
  -27.6228  -14.2604   19.4573 H   0  0  0  0  0  0
  -28.7330  -12.2020   21.4221 H   0  0  0  0  0  0
  -28.4346  -13.8784   21.7790 H   0  0  0  0  0  0
  -25.2771   -9.5691   22.4754 H   0  0  0  0  0  0
  -24.0022   -7.4637   22.7458 H   0  0  0  0  0  0
  -21.0851   -8.8781   19.8951 H   0  0  0  0  0  0
  -22.3695  -10.9688   19.6179 H   0  0  0  0  0  0
  -21.2005   -7.6152   23.9727 H   0  0  0  0  0  0
  -21.1486   -6.0520   25.9078 H   0  0  0  0  0  0
  -22.0590   -2.7614   23.2845 H   0  0  0  0  0  0
  -22.4086  -11.9900   22.4842 H   0  0  0  0  0  0
  -21.1084  -13.1263   22.2646 H   0  0  0  0  0  0
  -24.6554  -15.8523   20.5360 H   0  0  0  0  0  0
  -26.2792  -15.6367   20.1177 H   0  0  0  0  0  0
  -26.7245  -32.5393   23.1116 H   0  0  0  0  0  0
  -25.0167  -33.9727   25.0465 H   0  0  0  0  0  0
  -22.7252  -31.3106   21.4095 H   0  0  0  0  0  0
  -23.3784  -35.9575   23.3230 H   0  0  0  0  0  0
  -24.3614  -36.8975   22.2058 H   0  0  0  0  0  0
  -23.7192  -37.6432   23.6707 H   0  0  0  0  0  0
  -26.1352  -31.5273   20.6295 H   0  0  0  0  0  0
  -26.8528  -30.7992   22.0346 H   0  0  0  0  0  0
  -28.1103  -28.8810   21.2323 H   0  0  0  0  0  0
  -25.8768  -25.9891   18.8902 H   0  0  0  0  0  0
  -23.9529  -27.3792   18.9567 H   0  0  0  0  0  0
  -23.7724  -30.6193   19.4134 H   0  0  0  0  0  0
  -22.7611  -29.2761   19.8512 H   0  0  0  0  0  0
  -25.1282  -36.1910   25.0804 H   0  0  0  0  0  0
  -20.9994  -28.3298   24.1374 H   0  0  0  0  0  0
  -20.5688  -26.2330   23.3627 H   0  0  0  0  0  0
  -21.6654  -26.7433   22.1204 H   0  0  0  0  0  0
  -19.6928  -25.6275   21.1273 H   0  0  0  0  0  0
  -19.6700  -27.3164   20.6728 H   0  0  0  0  0  0
  -17.4208  -26.6715   21.4004 H   0  0  0  0  0  0
  -18.0307  -26.0062   22.8987 H   0  0  0  0  0  0
  -19.7942  -30.7290   24.2255 H   0  0  0  0  0  0
  -17.5014  -31.6272   24.5154 H   0  0  0  0  0  0
  -15.5360  -30.2970   23.7661 H   0  0  0  0  0  0
  -15.8689  -28.0796   22.7097 H   0  0  0  0  0  0
  -24.5814  -30.7268   25.7821 H   0  0  0  0  0  0
  -24.9007  -32.3048   26.4911 H   0  0  0  0  0  0
  -25.7973  -30.8965   27.0284 H   0  0  0  0  0  0
  -26.2874  -29.6737   24.1315 H   0  0  0  0  0  0
  -27.3858  -29.7212   25.4888 H   0  0  0  0  0  0
  -27.8836  -30.4150   23.9651 H   0  0  0  0  0  0
  -27.2765  -33.3633   26.2061 H   0  0  0  0  0  0
  -28.3927  -32.6776   25.0345 H   0  0  0  0  0  0
  -28.0744  -31.8433   26.5469 H   0  0  0  0  0  0
  -28.2543  -38.0134   24.7558 H   0  0  0  0  0  0
  -28.1152  -36.2669   24.6155 H   0  0  0  0  0  0
  -27.2349  -37.1280   25.8851 H   0  0  0  0  0  0
  -20.9427  -29.8804   21.6869 H   0  0  0  0  0  0
  -26.0158  -38.2839   24.1477 H   0  0  0  0  0  0
  -29.6797  -20.9654   18.2287 H   0  0  0  0  0  0
  -27.1647  -23.5793   22.6499 H   0  0  0  0  0  0
  -28.7592  -24.3019   22.9445 H   0  0  0  0  0  0
  -28.4940  -18.5571   22.1395 H   0  0  0  0  0  0
  -27.8856  -18.1231   20.5785 H   0  0  0  0  0  0
  -29.2499  -18.3058   18.5625 H   0  0  0  0  0  0
  -30.8563  -18.9708   18.6149 H   0  0  0  0  0  0
  -28.4400  -16.0593   21.6660 H   0  0  0  0  0  0
  -29.9521  -16.6531   22.2811 H   0  0  0  0  0  0
  -31.7591  -17.1267   19.8244 H   0  0  0  0  0  0
  -30.9047  -16.4988   18.4458 H   0  0  0  0  0  0
  -27.7679  -21.9635   24.2735 H   0  0  0  0  0  0
  -29.4602  -22.4410   24.2062 H   0  0  0  0  0  0
  -30.6937  -19.1737   21.1034 H   0  0  0  0  0  0
  -26.9221  -24.6755   20.2609 H   0  0  0  0  0  0
  -27.7243  -24.8928   18.7228 H   0  0  0  0  0  0
  1 25  1  0  0  0
  1 30  2  0  0  0
  1 85  1  0  0  0
  2  3  1  0  0  0
  2 25  1  0  0  0
  2 87  1  0  0  0
  2 88  1  0  0  0
  3  4  1  0  0  0
  3 89  1  0  0  0
  3 90  1  0  0  0
  4  5  1  0  0  0
  4 91  1  0  0  0
  4 92  1  0  0  0
  5  6  1  0  0  0
  5 26  1  0  0  0
  5 93  1  0  0  0
  6 25  1  0  0  0
  6 94  1  0  0  0
  6 95  1  0  0  0
  7  8  2  0  0  0
  7 26  1  0  0  0
  7 29  1  0  0  0
  8  9  1  0  0  0
  8 22  1  0  0  0
  9 10  1  0  0  0
  9 27  2  0  0  0
 10 11  2  0  0  0
 10 15  1  0  0  0
 11 12  1  0  0  0
 11 96  1  0  0  0
 12 13  2  0  0  0
 12 97  1  0  0  0
 13 14  1  0  0  0
 13 31  1  0  0  0
 14 15  2  0  0  0
 14 98  1  0  0  0
 15 99  1  0  0  0
 16 17  2  0  0  0
 16 21  1  0  0  0
 16 31  1  0  0  0
 17 18  1  0  0  0
 17100  1  0  0  0
 18 19  2  0  0  0
 18101  1  0  0  0
 19 20  1  0  0  0
 19 24  1  0  0  0
 20 21  2  0  0  0
 20102  1  0  0  0
 21 23  1  0  0  0
 22 28  1  0  0  0
 22 32  2  0  0  0
 26 27  1  0  0  0
 28103  1  0  0  0
 28104  1  0  0  0
 29105  1  0  0  0
 29106  1  0  0  0
 33 34  1  0  0  0
 33 66  1  0  0  0
 33 70  2  0  0  0
 34 36  1  0  0  0
 34 59  1  0  0  0
 34107  1  0  0  0
 35 44  2  0  0  0
 35 45  1  0  0  0
 35 68  1  0  0  0
 36 56  1  0  0  0
 36108  1  0  0  0
 37 39  1  0  0  0
 37 47  1  0  0  0
 37 66  1  0  0  0
 37109  1  0  0  0
 38 43  2  0  0  0
 38 46  1  0  0  0
 38 47  1  0  0  0
 39 64  1  0  0  0
 39 67  2  0  0  0
 40 52  1  0  0  0
 40 53  2  0  0  0
 40 58  1  0  0  0
 41110  1  0  0  0
 41111  1  0  0  0
 41112  1  0  0  0
 41 48  1  0  0  0
 42 43  1  0  0  0
 42 66  1  0  0  0
 42113  1  0  0  0
 42114  1  0  0  0
 43 44  1  0  0  0
 44115  1  0  0  0
 45 46  2  0  0  0
 45116  1  0  0  0
 46117  1  0  0  0
 47118  1  0  0  0
 47119  1  0  0  0
 48 56  1  0  0  0
 48 65  1  0  0  0
 48120  1  0  0  0
 49 50  1  0  0  0
 49 53  1  0  0  0
 49 64  1  0  0  0
 49121  1  0  0  0
 50 51  1  0  0  0
 50122  1  0  0  0
 50123  1  0  0  0
 51 52  1  0  0  0
 51124  1  0  0  0
 51125  1  0  0  0
 52126  1  0  0  0
 52127  1  0  0  0
 53 54  1  0  0  0
 54 55  2  0  0  0
 54128  1  0  0  0
 55 57  1  0  0  0
 55129  1  0  0  0
 56 69  2  0  0  0
 57 58  2  0  0  0
 57130  1  0  0  0
 58131  1  0  0  0
 59 60  1  0  0  0
 59 61  1  0  0  0
 59 62  1  0  0  0
 60132  1  0  0  0
 60133  1  0  0  0
 60134  1  0  0  0
 61135  1  0  0  0
 61136  1  0  0  0
 61137  1  0  0  0
 62138  1  0  0  0
 62139  1  0  0  0
 62140  1  0  0  0
 63 65  1  0  0  0
 63141  1  0  0  0
 63142  1  0  0  0
 63143  1  0  0  0
 64144  1  0  0  0
 65145  1  0  0  0
 68 83  1  0  0  0
 71 72  2  0  0  0
 71 84  1  0  0  0
 71146  1  0  0  0
 72 74  1  0  0  0
 72 82  1  0  0  0
 73 74  2  0  0  0
 73 75  1  0  0  0
 73 76  1  0  0  0
 74 86  1  0  0  0
 75 83  1  0  0  0
 75 84  2  0  0  0
 76 81  1  0  0  0
 76147  1  0  0  0
 76148  1  0  0  0
 77 79  1  0  0  0
 77 82  1  0  0  0
 77149  1  0  0  0
 77150  1  0  0  0
 78 80  1  0  0  0
 78 82  1  0  0  0
 78151  1  0  0  0
 78152  1  0  0  0
 79 85  1  0  0  0
 79153  1  0  0  0
 79154  1  0  0  0
 80 85  1  0  0  0
 80155  1  0  0  0
 80156  1  0  0  0
 81 86  1  0  0  0
 81157  1  0  0  0
 81158  1  0  0  0
 82159  1  0  0  0
 83160  1  0  0  0
 83161  1  0  0  0
M  ISO  4   1 100  68 101  83 101  85 100
M  END
> <chiral flag>
0

> <version>
0

> <s_m_source_file>
/data/baiqing/PycharmProjects/Reinvent-master-3.2/result/LINK_invent/BTK/process_docking_weight1_custom_sum_contain_oxygen_bond_distance_aromatic_linkinvent_7_9_3/rearranged_h_0176.sdf

> <i_m_source_file_index>
94

> <r_mmod_Potential_Energy-OPLS-2005>
333.445068359375

> <r_mmod_Stretch_Energy-OPLS-2005>
115.269630432129

> <r_mmod_Bend_Energy-OPLS-2005>
244.825729370117

> <r_mmod_Torsional_Energy-OPLS-2005>
336.057983398438

> <r_mmod_Improper_Torsional_Energy-OPLS-2005>
22.1691799163818

> <r_mmod_Van_der_Waal_Energy-OPLS-2005>
156.463500976562

> <r_mmod_Electrostatic_Energy-OPLS-2005>
-419.591888427734

> <r_mmod_Solvation_Energy-OPLS-2005>
-215.988433837891

> <b_mmod_Minimization_Converged-OPLS-2005>
0

> <r_mmod_RMS_Derivative-OPLS-2005>
1.26333689689636

$$$$
94
                    3D
 Structure written by MMmdl.
149158  0  0  1  0            999 V2000
  -30.3848  -15.3862   20.3669 C   0  0  0  0  0  0
  -30.4246  -12.9044   19.5338 C   0  0  0  0  0  0
  -29.5331  -12.5989   18.3034 C   0  0  0  0  0  0
  -28.1031  -12.2606   18.7459 C   0  0  0  0  0  0
  -27.5958  -13.2732   19.8002 C   0  0  2  0  0  0
  -28.6106  -13.5321   20.9315 C   0  0  0  0  0  0
  -25.2334  -13.8226   20.5697 C   0  0  0  0  0  0
  -24.1699  -13.0429   20.9222 C   0  0  0  0  0  0
  -24.6343  -11.6906   20.8734 C   0  0  0  0  0  0
  -23.9084  -10.4277   21.0399 C   0  0  0  0  0  0
  -24.3645   -9.4185   21.9167 C   0  0  0  0  0  0
  -23.6313   -8.2232   22.0730 C   0  0  0  0  0  0
  -22.4295   -8.0282   21.3525 C   0  0  0  0  0  0
  -21.9936   -9.0241   20.4621 C   0  0  0  0  0  0
  -22.7269  -10.2114   20.3025 C   0  0  0  0  0  0
  -21.6842   -6.0763   22.5279 C   0  0  0  0  0  0
  -21.4017   -6.5661   23.8218 C   0  0  0  0  0  0
  -21.3651   -5.6812   24.9178 C   0  0  0  0  0  0
  -21.6036   -4.3075   24.7231 C   0  0  0  0  0  0
  -21.8820   -3.8174   23.4351 C   0  0  0  0  0  0
  -21.9188   -4.6994   22.3410 C   0  0  0  0  0  0
  -22.7739  -13.5155   21.1946 C   0  0  0  0  0  0
  -22.1661   -4.2168   21.0999 F   0  0  0  0  0  0
  -21.5612   -3.4571   25.7751 F   0  0  0  0  0  0
  -29.8294  -14.0670   20.2997 N   0  0  0  0  0  0
  -26.2734  -12.9468   20.3119 N   0  0  0  0  0  0
  -25.9261  -11.6570   20.5628 N   0  0  0  0  0  0
  -22.0493  -12.8053   22.0505 N   0  0  0  0  0  0
  -25.4037  -15.1980   20.4143 N   0  0  0  0  0  0
  -31.6178  -15.3576   20.2115 O   0  0  0  0  0  0
  -21.6626   -6.8889   21.4241 O   0  0  0  0  0  0
  -22.3371  -14.5462   20.6838 O   0  0  0  0  0  0
  -24.6672  -31.8177   23.1662 C   0  0  0  0  0  0
  -25.9302  -32.4580   23.8155 C   0  0  1  0  0  0
  -27.2062  -26.8847   20.2000 C   0  0  0  0  0  0
  -25.5898  -33.8403   24.2031 N   0  0  0  0  0  0
  -23.4853  -30.4324   21.5193 C   0  0  2  0  0  0
  -24.9301  -28.8120   20.1027 C   0  0  0  0  0  0
  -22.7712  -29.4420   22.4768 C   0  0  0  0  0  0
  -18.0373  -28.1469   22.8359 C   0  0  0  0  0  0
  -24.1450  -36.7250   23.2666 C   0  0  0  0  0  0
  -26.0538  -30.6131   21.3964 C   0  0  0  0  0  0
  -26.1161  -29.1994   20.7434 C   0  0  0  0  0  0
  -27.2465  -28.2622   20.7611 C   0  0  0  0  0  0
  -25.9984  -26.6603   19.4986 C   0  0  0  0  0  0
  -24.9039  -27.5668   19.4526 C   0  0  0  0  0  0
  -23.7185  -29.7436   20.1461 C   0  0  0  0  0  0
  -25.4108  -36.3005   24.0306 C   0  0  1  0  0  0
  -20.5940  -28.3943   23.1272 C   0  0  2  0  0  0
  -20.6817  -26.9580   22.5614 C   0  0  0  0  0  0
  -19.5999  -26.6717   21.5145 C   0  0  0  0  0  0
  -18.2179  -26.7965   22.1589 C   0  0  0  0  0  0
  -19.1556  -28.9065   23.2708 C   0  0  0  0  0  0
  -18.9371  -30.1734   23.8542 C   0  0  0  0  0  0
  -17.6319  -30.6732   24.0242 C   0  0  0  0  0  0
  -25.9083  -34.9361   23.5010 C   0  0  0  0  0  0
  -16.5283  -29.9029   23.6185 C   0  0  0  0  0  0
  -16.7328  -28.6460   23.0268 C   0  0  0  0  0  0
  -26.4487  -31.6606   25.0764 C   0  0  0  0  0  0
  -25.3597  -31.3879   26.1423 C   0  0  0  0  0  0
  -27.0358  -30.2965   24.6544 C   0  0  0  0  0  0
  -27.5948  -32.4457   25.7596 C   0  0  0  0  0  0
  -27.5529  -37.1790   24.8474 C   0  0  0  0  0  0
  -21.4363  -29.3194   22.3645 N   0  0  0  0  0  0
  -26.4257  -37.3728   23.9384 N   0  0  0  0  0  0
  -24.7599  -30.9809   22.0803 N   0  0  0  0  0  0
  -23.4278  -28.7849   23.2873 O   0  0  0  0  0  0
  -28.1820  -25.7484   20.3310 O   0  0  0  0  0  0
  -26.5776  -34.8904   22.4652 O   0  0  0  0  0  0
  -23.5725  -32.1160   23.6717 O   0  0  0  0  0  0
  -29.0489  -22.6852   21.9714 C   0  0  0  0  0  0
  -29.6735  -20.4043   22.0987 C   0  0  0  0  0  0
  -29.2669  -20.0304   20.8039 C   0  0  0  0  0  0
  -28.6553  -22.6247   20.6156 C   0  0  0  0  0  0
  -30.5402  -19.3611   22.7605 C   0  0  0  0  0  0
  -31.0281  -18.4584   21.6075 C   0  0  0  0  0  0
  -29.9103  -18.3771   20.5382 C   0  0  2  0  0  0
  -27.9850  -24.1303   19.9681 C   0  0  0  0  0  0
  -29.5546  -21.6323   22.6761 N   0  0  0  0  0  0
  -28.7884  -21.2321   20.0556 N   0  0  0  0  0  0
  -29.6285  -16.6944   20.4198 N   0  0  0  0  0  0
  -31.4318  -13.1375   19.1872 H   0  0  0  0  0  0
  -30.5283  -12.0285   20.1783 H   0  0  0  0  0  0
  -29.9524  -11.7843   17.7152 H   0  0  0  0  0  0
  -29.5087  -13.4807   17.6606 H   0  0  0  0  0  0
  -28.1215  -11.2599   19.1816 H   0  0  0  0  0  0
  -27.4320  -12.2132   17.8876 H   0  0  0  0  0  0
  -27.4831  -14.2068   19.2430 H   0  0  0  0  0  0
  -28.8078  -12.6289   21.5084 H   0  0  0  0  0  0
  -28.2102  -14.2719   21.6276 H   0  0  0  0  0  0
  -25.2800   -9.5673   22.4715 H   0  0  0  0  0  0
  -24.0036   -7.4614   22.7435 H   0  0  0  0  0  0
  -21.0864   -8.8759   19.8907 H   0  0  0  0  0  0
  -22.3741  -10.9647   19.6117 H   0  0  0  0  0  0
  -21.2015   -7.6176   23.9725 H   0  0  0  0  0  0
  -21.1457   -6.0557   25.9081 H   0  0  0  0  0  0
  -22.0601   -2.7639   23.2859 H   0  0  0  0  0  0
  -22.4206  -11.9665   22.4741 H   0  0  0  0  0  0
  -21.1092  -13.0931   22.2820 H   0  0  0  0  0  0
  -24.6387  -15.8569   20.5070 H   0  0  0  0  0  0
  -26.2619  -15.6312   20.1034 H   0  0  0  0  0  0
  -26.7418  -32.5092   23.0894 H   0  0  0  0  0  0
  -24.9788  -33.9448   25.0011 H   0  0  0  0  0  0
  -22.8038  -31.2692   21.3471 H   0  0  0  0  0  0
  -23.3684  -35.9607   23.3385 H   0  0  0  0  0  0
  -24.3472  -36.8858   22.2062 H   0  0  0  0  0  0
  -23.7233  -37.6459   23.6705 H   0  0  0  0  0  0
  -26.2381  -31.3441   20.6065 H   0  0  0  0  0  0
  -26.9178  -30.6729   22.0463 H   0  0  0  0  0  0
  -28.1468  -28.5666   21.2779 H   0  0  0  0  0  0
  -25.8536  -25.7066   19.0147 H   0  0  0  0  0  0
  -24.0081  -27.2667   18.9235 H   0  0  0  0  0  0
  -23.8584  -30.5055   19.3775 H   0  0  0  0  0  0
  -22.8246  -29.1918   19.8469 H   0  0  0  0  0  0
  -25.1295  -36.1822   25.0805 H   0  0  0  0  0  0
  -20.9932  -28.3642   24.1436 H   0  0  0  0  0  0
  -20.5211  -26.2740   23.3964 H   0  0  0  0  0  0
  -21.6756  -26.7319   22.1746 H   0  0  0  0  0  0
  -19.6979  -27.3827   20.6944 H   0  0  0  0  0  0
  -19.7373  -25.6831   21.0814 H   0  0  0  0  0  0
  -17.4396  -26.6319   21.4117 H   0  0  0  0  0  0
  -18.0957  -26.0176   22.9153 H   0  0  0  0  0  0
  -19.7771  -30.7788   24.1681 H   0  0  0  0  0  0
  -17.4739  -31.6467   24.4686 H   0  0  0  0  0  0
  -15.5221  -30.2742   23.7609 H   0  0  0  0  0  0
  -15.8815  -28.0554   22.7146 H   0  0  0  0  0  0
  -24.5746  -30.7267   25.7726 H   0  0  0  0  0  0
  -24.8816  -32.3100   26.4761 H   0  0  0  0  0  0
  -25.7805  -30.9078   27.0283 H   0  0  0  0  0  0
  -26.3004  -29.6694   24.1486 H   0  0  0  0  0  0
  -27.3768  -29.7294   25.5216 H   0  0  0  0  0  0
  -27.9019  -30.4120   24.0037 H   0  0  0  0  0  0
  -27.2439  -33.3760   26.2091 H   0  0  0  0  0  0
  -28.3809  -32.7053   25.0502 H   0  0  0  0  0  0
  -28.0588  -31.8683   26.5598 H   0  0  0  0  0  0
  -28.2625  -38.0000   24.7381 H   0  0  0  0  0  0
  -28.0944  -36.2519   24.6481 H   0  0  0  0  0  0
  -27.2248  -37.1692   25.8884 H   0  0  0  0  0  0
  -20.9542  -29.9317   21.7214 H   0  0  0  0  0  0
  -26.0129  -38.2815   24.1302 H   0  0  0  0  0  0
  -28.9583  -23.6155   22.5133 H   0  0  0  0  0  0
  -29.9547  -18.7914   23.4830 H   0  0  0  0  0  0
  -31.3823  -19.8055   23.2951 H   0  0  0  0  0  0
  -31.8946  -18.9497   21.1569 H   0  0  0  0  0  0
  -31.3697  -17.4975   21.9876 H   0  0  0  0  0  0
  -28.9622  -18.2086   21.0514 H   0  0  0  0  0  0
  -28.1933  -24.0786   18.9015 H   0  0  0  0  0  0
  -26.9078  -23.9763   20.0438 H   0  0  0  0  0  0
  -28.6355  -16.5153   20.4056 H   0  0  0  0  0  0
  1 25  1  0  0  0
  1 30  2  0  0  0
  1 81  1  0  0  0
  2  3  1  0  0  0
  2 25  1  0  0  0
  2 82  1  0  0  0
  2 83  1  0  0  0
  3  4  1  0  0  0
  3 84  1  0  0  0
  3 85  1  0  0  0
  4  5  1  0  0  0
  4 86  1  0  0  0
  4 87  1  0  0  0
  5  6  1  0  0  0
  5 26  1  0  0  0
  5 88  1  0  0  0
  6 25  1  0  0  0
  6 89  1  0  0  0
  6 90  1  0  0  0
  7  8  2  0  0  0
  7 26  1  0  0  0
  7 29  1  0  0  0
  8  9  1  0  0  0
  8 22  1  0  0  0
  9 10  1  0  0  0
  9 27  2  0  0  0
 10 11  2  0  0  0
 10 15  1  0  0  0
 11 12  1  0  0  0
 11 91  1  0  0  0
 12 13  2  0  0  0
 12 92  1  0  0  0
 13 14  1  0  0  0
 13 31  1  0  0  0
 14 15  2  0  0  0
 14 93  1  0  0  0
 15 94  1  0  0  0
 16 17  2  0  0  0
 16 21  1  0  0  0
 16 31  1  0  0  0
 17 18  1  0  0  0
 17 95  1  0  0  0
 18 19  2  0  0  0
 18 96  1  0  0  0
 19 20  1  0  0  0
 19 24  1  0  0  0
 20 21  2  0  0  0
 20 97  1  0  0  0
 21 23  1  0  0  0
 22 28  1  0  0  0
 22 32  2  0  0  0
 26 27  1  0  0  0
 28 98  1  0  0  0
 28 99  1  0  0  0
 29100  1  0  0  0
 29101  1  0  0  0
 33 34  1  0  0  0
 33 66  1  0  0  0
 33 70  2  0  0  0
 34 36  1  0  0  0
 34 59  1  0  0  0
 34102  1  0  0  0
 35 44  2  0  0  0
 35 45  1  0  0  0
 35 68  1  0  0  0
 36 56  1  0  0  0
 36103  1  0  0  0
 37 39  1  0  0  0
 37 47  1  0  0  0
 37 66  1  0  0  0
 37104  1  0  0  0
 38 43  2  0  0  0
 38 46  1  0  0  0
 38 47  1  0  0  0
 39 64  1  0  0  0
 39 67  2  0  0  0
 40 52  1  0  0  0
 40 53  2  0  0  0
 40 58  1  0  0  0
 41105  1  0  0  0
 41106  1  0  0  0
 41107  1  0  0  0
 41 48  1  0  0  0
 42 43  1  0  0  0
 42 66  1  0  0  0
 42108  1  0  0  0
 42109  1  0  0  0
 43 44  1  0  0  0
 44110  1  0  0  0
 45 46  2  0  0  0
 45111  1  0  0  0
 46112  1  0  0  0
 47113  1  0  0  0
 47114  1  0  0  0
 48 56  1  0  0  0
 48 65  1  0  0  0
 48115  1  0  0  0
 49 50  1  0  0  0
 49 53  1  0  0  0
 49 64  1  0  0  0
 49116  1  0  0  0
 50 51  1  0  0  0
 50117  1  0  0  0
 50118  1  0  0  0
 51 52  1  0  0  0
 51119  1  0  0  0
 51120  1  0  0  0
 52121  1  0  0  0
 52122  1  0  0  0
 53 54  1  0  0  0
 54 55  2  0  0  0
 54123  1  0  0  0
 55 57  1  0  0  0
 55124  1  0  0  0
 56 69  2  0  0  0
 57 58  2  0  0  0
 57125  1  0  0  0
 58126  1  0  0  0
 59 60  1  0  0  0
 59 61  1  0  0  0
 59 62  1  0  0  0
 60127  1  0  0  0
 60128  1  0  0  0
 60129  1  0  0  0
 61130  1  0  0  0
 61131  1  0  0  0
 61132  1  0  0  0
 62133  1  0  0  0
 62134  1  0  0  0
 62135  1  0  0  0
 63 65  1  0  0  0
 63136  1  0  0  0
 63137  1  0  0  0
 63138  1  0  0  0
 64139  1  0  0  0
 65140  1  0  0  0
 68 78  1  0  0  0
 71 74  2  0  0  0
 71 79  1  0  0  0
 71141  1  0  0  0
 72 73  1  0  0  0
 72 75  1  0  0  0
 72 79  2  0  0  0
 73 77  1  0  0  0
 73 80  2  0  0  0
 74 78  1  0  0  0
 74 80  1  0  0  0
 75 76  1  0  0  0
 75142  1  0  0  0
 75143  1  0  0  0
 76 77  1  0  0  0
 76144  1  0  0  0
 76145  1  0  0  0
 77 81  1  0  0  0
 77146  1  0  0  0
 78147  1  0  0  0
 78148  1  0  0  0
 81149  1  0  0  0
M  ISO  4   1 100  68 101  78 101  81 100
M  END
> <chiral flag>
0

> <version>
0

> <s_m_source_file>
/data/baiqing/PycharmProjects/Reinvent-master-3.2/result/LINK_invent/BTK/process_docking_weight1_custom_sum_contain_oxygen_bond_distance_aromatic_linkinvent_7_9_3/rearranged_h_0176.sdf

> <i_m_source_file_index>
95

> <r_mmod_Potential_Energy-OPLS-2005>
1775.60424804688

> <r_mmod_Stretch_Energy-OPLS-2005>
680.756225585938

> <r_mmod_Bend_Energy-OPLS-2005>
712.713806152344

> <r_mmod_Torsional_Energy-OPLS-2005>
223.821182250977

> <r_mmod_Improper_Torsional_Energy-OPLS-2005>
10.3407211303711

> <r_mmod_Van_der_Waal_Energy-OPLS-2005>
127.037216186523

> <r_mmod_Electrostatic_Energy-OPLS-2005>
-319.069030761719

> <r_mmod_Solvation_Energy-OPLS-2005>
-239.885818481445

> <b_mmod_Minimization_Converged-OPLS-2005>
0

> <r_mmod_RMS_Derivative-OPLS-2005>
6.34749364852905

$$$$
95
                    3D
 Structure written by MMmdl.
150158  0  0  1  0            999 V2000
  -30.4443  -15.4187   20.3527 C   0  0  0  0  0  0
  -30.4119  -12.9276   19.5282 C   0  0  0  0  0  0
  -29.5273  -12.6016   18.2994 C   0  0  0  0  0  0
  -28.0896  -12.2961   18.7412 C   0  0  0  0  0  0
  -27.5954  -13.2967   19.8137 C   0  0  2  0  0  0
  -28.6223  -13.5724   20.9357 C   0  0  0  0  0  0
  -25.2325  -13.8291   20.5806 C   0  0  0  0  0  0
  -24.1700  -13.0449   20.9287 C   0  0  0  0  0  0
  -24.6384  -11.6953   20.8776 C   0  0  0  0  0  0
  -23.9094  -10.4299   21.0405 C   0  0  0  0  0  0
  -24.3639   -9.4212   21.9182 C   0  0  0  0  0  0
  -23.6307   -8.2250   22.0752 C   0  0  0  0  0  0
  -22.4289   -8.0287   21.3544 C   0  0  0  0  0  0
  -21.9930   -9.0261   20.4645 C   0  0  0  0  0  0
  -22.7264  -10.2137   20.3053 C   0  0  0  0  0  0
  -21.6858   -6.0740   22.5277 C   0  0  0  0  0  0
  -21.4018   -6.5642   23.8211 C   0  0  0  0  0  0
  -21.3659   -5.6794   24.9172 C   0  0  0  0  0  0
  -21.6044   -4.3057   24.7222 C   0  0  0  0  0  0
  -21.8819   -3.8149   23.4343 C   0  0  0  0  0  0
  -21.9194   -4.6967   22.3400 C   0  0  0  0  0  0
  -22.7714  -13.5184   21.1922 C   0  0  0  0  0  0
  -22.1662   -4.2152   21.0978 F   0  0  0  0  0  0
  -21.5627   -3.4539   25.7734 F   0  0  0  0  0  0
  -29.8241  -14.1186   20.2770 N   0  0  0  0  0  0
  -26.2754  -12.9601   20.3249 N   0  0  0  0  0  0
  -25.9326  -11.6684   20.5734 N   0  0  0  0  0  0
  -22.0382  -12.8156   22.0475 N   0  0  0  0  0  0
  -25.3960  -15.2029   20.4273 N   0  0  0  0  0  0
  -31.6694  -15.2857   20.1796 O   0  0  0  0  0  0
  -21.6648   -6.8886   21.4242 O   0  0  0  0  0  0
  -22.3390  -14.5484   20.6762 O   0  0  0  0  0  0
  -24.6716  -31.8132   23.1616 C   0  0  0  0  0  0
  -25.9355  -32.4532   23.8116 C   0  0  1  0  0  0
  -27.2165  -26.8294   20.1989 C   0  0  0  0  0  0
  -25.5983  -33.8351   24.2015 N   0  0  0  0  0  0
  -23.4911  -30.4205   21.5123 C   0  0  2  0  0  0
  -24.9458  -28.7871   20.1120 C   0  0  0  0  0  0
  -22.7709  -29.4385   22.4741 C   0  0  0  0  0  0
  -18.0329  -28.1414   22.8466 C   0  0  0  0  0  0
  -24.1488  -36.7180   23.2650 C   0  0  0  0  0  0
  -26.0647  -30.5874   21.4068 C   0  0  0  0  0  0
  -26.1308  -29.1666   20.7535 C   0  0  0  0  0  0
  -27.2567  -28.2108   20.7693 C   0  0  0  0  0  0
  -26.0034  -26.6264   19.5014 C   0  0  0  0  0  0
  -24.9132  -27.5406   19.4636 C   0  0  0  0  0  0
  -23.7369  -29.7276   20.1421 C   0  0  0  0  0  0
  -25.4135  -36.2933   24.0290 C   0  0  1  0  0  0
  -20.5958  -28.3767   23.1167 C   0  0  2  0  0  0
  -20.6799  -26.9435   22.5405 C   0  0  0  0  0  0
  -19.5774  -26.6374   21.5217 C   0  0  0  0  0  0
  -18.1958  -26.7947   22.1621 C   0  0  0  0  0  0
  -19.1594  -28.8912   23.2800 C   0  0  0  0  0  0
  -18.9502  -30.1499   23.8840 C   0  0  0  0  0  0
  -17.6496  -30.6603   24.0554 C   0  0  0  0  0  0
  -25.9109  -34.9320   23.4982 C   0  0  0  0  0  0
  -16.5385  -29.9089   23.6348 C   0  0  0  0  0  0
  -16.7310  -28.6508   23.0369 C   0  0  0  0  0  0
  -26.4575  -31.6520   25.0689 C   0  0  0  0  0  0
  -25.3672  -31.3805   26.1327 C   0  0  0  0  0  0
  -27.0494  -30.2874   24.6502 C   0  0  0  0  0  0
  -27.6043  -32.4361   25.7499 C   0  0  0  0  0  0
  -27.5562  -37.1744   24.8468 C   0  0  0  0  0  0
  -21.4367  -29.3039   22.3499 N   0  0  0  0  0  0
  -26.4272  -37.3680   23.9409 N   0  0  0  0  0  0
  -24.7645  -30.9703   22.0799 N   0  0  0  0  0  0
  -23.4212  -28.7968   23.3027 O   0  0  0  0  0  0
  -28.1980  -25.6754   20.2964 O   0  0  0  0  0  0
  -26.5736  -34.8878   22.4590 O   0  0  0  0  0  0
  -23.5764  -32.1148   23.6651 O   0  0  0  0  0  0
  -28.3382  -19.2858   20.9349 C   0  0  0  0  0  0
  -30.3696  -19.7324   20.0912 C   0  0  0  0  0  0
  -28.5391  -17.5979   20.6212 C   0  0  0  0  0  0
  -30.6047  -18.0889   19.7266 C   0  0  0  0  0  0
  -28.9615  -20.5874   20.0971 C   0  0  0  0  0  0
  -28.9102  -22.4237   20.4950 C   0  0  0  0  0  0
  -28.0051  -24.0012   20.0684 C   0  0  0  0  0  0
  -29.8709  -16.8421   20.3101 N   0  0  0  0  0  0
  -31.4247  -13.1252   19.1757 H   0  0  0  0  0  0
  -30.5044  -12.0584   20.1814 H   0  0  0  0  0  0
  -29.9381  -11.7574   17.7439 H   0  0  0  0  0  0
  -29.5278  -13.4516   17.6156 H   0  0  0  0  0  0
  -28.0796  -11.2865   19.1531 H   0  0  0  0  0  0
  -27.4165  -12.2841   17.8825 H   0  0  0  0  0  0
  -27.4772  -14.2360   19.2715 H   0  0  0  0  0  0
  -28.8341  -12.6768   21.5217 H   0  0  0  0  0  0
  -28.2288  -14.3152   21.6316 H   0  0  0  0  0  0
  -25.2777   -9.5692   22.4767 H   0  0  0  0  0  0
  -24.0010   -7.4644   22.7477 H   0  0  0  0  0  0
  -21.0859   -8.8788   19.8952 H   0  0  0  0  0  0
  -22.3718  -10.9681   19.6169 H   0  0  0  0  0  0
  -21.2012   -7.6149   23.9715 H   0  0  0  0  0  0
  -21.1479   -6.0522   25.9075 H   0  0  0  0  0  0
  -22.0598   -2.7610   23.2842 H   0  0  0  0  0  0
  -22.4022  -11.9827   22.4861 H   0  0  0  0  0  0
  -21.0994  -13.1155   22.2688 H   0  0  0  0  0  0
  -24.6298  -15.8558   20.5520 H   0  0  0  0  0  0
  -26.2492  -15.6469   20.1144 H   0  0  0  0  0  0
  -26.7428  -32.5041   23.0827 H   0  0  0  0  0  0
  -25.0062  -33.9406   25.0120 H   0  0  0  0  0  0
  -22.8094  -31.2545   21.3330 H   0  0  0  0  0  0
  -23.3765  -35.9494   23.3282 H   0  0  0  0  0  0
  -24.3554  -36.8869   22.2071 H   0  0  0  0  0  0
  -23.7236  -37.6349   23.6740 H   0  0  0  0  0  0
  -26.2560  -31.3214   20.6232 H   0  0  0  0  0  0
  -26.9202  -30.6476   22.0673 H   0  0  0  0  0  0
  -28.1497  -28.4998   21.3058 H   0  0  0  0  0  0
  -25.8608  -25.6753   19.0083 H   0  0  0  0  0  0
  -24.0146  -27.2441   18.9400 H   0  0  0  0  0  0
  -23.9007  -30.4922   19.3821 H   0  0  0  0  0  0
  -22.8440  -29.1876   19.8222 H   0  0  0  0  0  0
  -25.1337  -36.1712   25.0781 H   0  0  0  0  0  0
  -21.0045  -28.3389   24.1290 H   0  0  0  0  0  0
  -20.5677  -26.2385   23.3655 H   0  0  0  0  0  0
  -21.6661  -26.7399   22.1212 H   0  0  0  0  0  0
  -19.6931  -25.6269   21.1285 H   0  0  0  0  0  0
  -19.6719  -27.3151   20.6722 H   0  0  0  0  0  0
  -17.4227  -26.6694   21.4024 H   0  0  0  0  0  0
  -18.0343  -26.0100   22.9027 H   0  0  0  0  0  0
  -19.7979  -30.7327   24.2185 H   0  0  0  0  0  0
  -17.5050  -31.6278   24.5164 H   0  0  0  0  0  0
  -15.5383  -30.2974   23.7707 H   0  0  0  0  0  0
  -15.8709  -28.0807   22.7120 H   0  0  0  0  0  0
  -24.5869  -30.7142   25.7632 H   0  0  0  0  0  0
  -24.8846  -32.3017   26.4597 H   0  0  0  0  0  0
  -25.7875  -30.9070   27.0210 H   0  0  0  0  0  0
  -26.3187  -29.6513   24.1495 H   0  0  0  0  0  0
  -27.3972  -29.7285   25.5199 H   0  0  0  0  0  0
  -27.9146  -30.4030   23.9973 H   0  0  0  0  0  0
  -27.2593  -33.3720   26.1906 H   0  0  0  0  0  0
  -28.3937  -32.6833   25.0389 H   0  0  0  0  0  0
  -28.0618  -31.8607   26.5556 H   0  0  0  0  0  0
  -28.2559  -38.0058   24.7507 H   0  0  0  0  0  0
  -28.1078  -36.2581   24.6306 H   0  0  0  0  0  0
  -27.2274  -37.1398   25.8870 H   0  0  0  0  0  0
  -20.9640  -29.8714   21.6601 H   0  0  0  0  0  0
  -26.0110  -38.2732   24.1429 H   0  0  0  0  0  0
  -28.6548  -19.4221   21.9709 H   0  0  0  0  0  0
  -27.2615  -19.4523   20.9830 H   0  0  0  0  0  0
  -31.0366  -20.2766   19.4215 H   0  0  0  0  0  0
  -30.8246  -19.8855   21.0716 H   0  0  0  0  0  0
  -27.8940  -17.3676   19.7727 H   0  0  0  0  0  0
  -28.0855  -17.0614   21.4558 H   0  0  0  0  0  0
  -31.6694  -17.9009   19.8712 H   0  0  0  0  0  0
  -30.4673  -17.9980   18.6481 H   0  0  0  0  0  0
  -28.5658  -20.5210   19.0829 H   0  0  0  0  0  0
  -29.9226  -22.7086   20.2088 H   0  0  0  0  0  0
  -28.9529  -22.4447   21.5839 H   0  0  0  0  0  0
  -26.9971  -23.8278   20.4462 H   0  0  0  0  0  0
  -27.8845  -23.9386   18.9869 H   0  0  0  0  0  0
  1 25  1  0  0  0
  1 30  2  0  0  0
  1 78  1  0  0  0
  2  3  1  0  0  0
  2 25  1  0  0  0
  2 79  1  0  0  0
  2 80  1  0  0  0
  3  4  1  0  0  0
  3 81  1  0  0  0
  3 82  1  0  0  0
  4  5  1  0  0  0
  4 83  1  0  0  0
  4 84  1  0  0  0
  5  6  1  0  0  0
  5 26  1  0  0  0
  5 85  1  0  0  0
  6 25  1  0  0  0
  6 86  1  0  0  0
  6 87  1  0  0  0
  7  8  2  0  0  0
  7 26  1  0  0  0
  7 29  1  0  0  0
  8  9  1  0  0  0
  8 22  1  0  0  0
  9 10  1  0  0  0
  9 27  2  0  0  0
 10 11  2  0  0  0
 10 15  1  0  0  0
 11 12  1  0  0  0
 11 88  1  0  0  0
 12 13  2  0  0  0
 12 89  1  0  0  0
 13 14  1  0  0  0
 13 31  1  0  0  0
 14 15  2  0  0  0
 14 90  1  0  0  0
 15 91  1  0  0  0
 16 17  2  0  0  0
 16 21  1  0  0  0
 16 31  1  0  0  0
 17 18  1  0  0  0
 17 92  1  0  0  0
 18 19  2  0  0  0
 18 93  1  0  0  0
 19 20  1  0  0  0
 19 24  1  0  0  0
 20 21  2  0  0  0
 20 94  1  0  0  0
 21 23  1  0  0  0
 22 28  1  0  0  0
 22 32  2  0  0  0
 26 27  1  0  0  0
 28 95  1  0  0  0
 28 96  1  0  0  0
 29 97  1  0  0  0
 29 98  1  0  0  0
 33 34  1  0  0  0
 33 66  1  0  0  0
 33 70  2  0  0  0
 34 36  1  0  0  0
 34 59  1  0  0  0
 34 99  1  0  0  0
 35 44  2  0  0  0
 35 45  1  0  0  0
 35 68  1  0  0  0
 36 56  1  0  0  0
 36100  1  0  0  0
 37 39  1  0  0  0
 37 47  1  0  0  0
 37 66  1  0  0  0
 37101  1  0  0  0
 38 43  2  0  0  0
 38 46  1  0  0  0
 38 47  1  0  0  0
 39 64  1  0  0  0
 39 67  2  0  0  0
 40 52  1  0  0  0
 40 53  2  0  0  0
 40 58  1  0  0  0
 41102  1  0  0  0
 41103  1  0  0  0
 41104  1  0  0  0
 41 48  1  0  0  0
 42 43  1  0  0  0
 42 66  1  0  0  0
 42105  1  0  0  0
 42106  1  0  0  0
 43 44  1  0  0  0
 44107  1  0  0  0
 45 46  2  0  0  0
 45108  1  0  0  0
 46109  1  0  0  0
 47110  1  0  0  0
 47111  1  0  0  0
 48 56  1  0  0  0
 48 65  1  0  0  0
 48112  1  0  0  0
 49 50  1  0  0  0
 49 53  1  0  0  0
 49 64  1  0  0  0
 49113  1  0  0  0
 50 51  1  0  0  0
 50114  1  0  0  0
 50115  1  0  0  0
 51 52  1  0  0  0
 51116  1  0  0  0
 51117  1  0  0  0
 52118  1  0  0  0
 52119  1  0  0  0
 53 54  1  0  0  0
 54 55  2  0  0  0
 54120  1  0  0  0
 55 57  1  0  0  0
 55121  1  0  0  0
 56 69  2  0  0  0
 57 58  2  0  0  0
 57122  1  0  0  0
 58123  1  0  0  0
 59 60  1  0  0  0
 59 61  1  0  0  0
 59 62  1  0  0  0
 60124  1  0  0  0
 60125  1  0  0  0
 60126  1  0  0  0
 61127  1  0  0  0
 61128  1  0  0  0
 61129  1  0  0  0
 62130  1  0  0  0
 62131  1  0  0  0
 62132  1  0  0  0
 63 65  1  0  0  0
 63133  1  0  0  0
 63134  1  0  0  0
 63135  1  0  0  0
 64136  1  0  0  0
 65137  1  0  0  0
 68 77  1  0  0  0
 71 73  1  0  0  0
 71 75  1  0  0  0
 71138  1  0  0  0
 71139  1  0  0  0
 72 74  1  0  0  0
 72 75  1  0  0  0
 72140  1  0  0  0
 72141  1  0  0  0
 73 78  1  0  0  0
 73142  1  0  0  0
 73143  1  0  0  0
 74 78  1  0  0  0
 74144  1  0  0  0
 74145  1  0  0  0
 75 76  1  0  0  0
 75146  1  0  0  0
 76 77  1  0  0  0
 76147  1  0  0  0
 76148  1  0  0  0
 77149  1  0  0  0
 77150  1  0  0  0
M  ISO  4   1 100  68 101  77 101  78 100
M  END
> <chiral flag>
0

> <version>
0

> <s_m_source_file>
/data/baiqing/PycharmProjects/Reinvent-master-3.2/result/LINK_invent/BTK/process_docking_weight1_custom_sum_contain_oxygen_bond_distance_aromatic_linkinvent_7_9_3/rearranged_h_0176.sdf

> <i_m_source_file_index>
96

> <r_mmod_Potential_Energy-OPLS-2005>
1987.31433105469

> <r_mmod_Stretch_Energy-OPLS-2005>
758.320434570312

> <r_mmod_Bend_Energy-OPLS-2005>
641.05517578125

> <r_mmod_Torsional_Energy-OPLS-2005>
311.031341552734

> <r_mmod_Improper_Torsional_Energy-OPLS-2005>
7.76603746414185

> <r_mmod_Van_der_Waal_Energy-OPLS-2005>
115.90389251709

> <r_mmod_Electrostatic_Energy-OPLS-2005>
-266.089538574219

> <r_mmod_Solvation_Energy-OPLS-2005>
-202.874450683594

> <b_mmod_Minimization_Converged-OPLS-2005>
0

> <r_mmod_RMS_Derivative-OPLS-2005>
0.539686918258667

$$$$
96
                    3D
 Structure written by MMmdl.
162171  0  0  1  0            999 V2000
  -30.4798  -15.0086   20.4593 C   0  0  0  0  0  0
  -30.4627  -12.6468   19.4815 C   0  0  0  0  0  0
  -29.5287  -12.5527   18.2481 C   0  0  0  0  0  0
  -28.0649  -12.3191   18.6666 C   0  0  0  0  0  0
  -27.6389  -13.2361   19.8446 C   0  0  2  0  0  0
  -28.6877  -13.1753   20.9725 C   0  0  0  0  0  0
  -25.2508  -13.8184   20.5675 C   0  0  0  0  0  0
  -24.1771  -13.0430   20.9168 C   0  0  0  0  0  0
  -24.6371  -11.6885   20.8715 C   0  0  0  0  0  0
  -23.9037  -10.4275   21.0412 C   0  0  0  0  0  0
  -24.3608   -9.4204   21.9183 C   0  0  0  0  0  0
  -23.6288   -8.2241   22.0777 C   0  0  0  0  0  0
  -22.4260   -8.0274   21.3568 C   0  0  0  0  0  0
  -21.9897   -9.0239   20.4664 C   0  0  0  0  0  0
  -22.7224  -10.2114   20.3059 C   0  0  0  0  0  0
  -21.6820   -6.0739   22.5272 C   0  0  0  0  0  0
  -21.3983   -6.5660   23.8206 C   0  0  0  0  0  0
  -21.3676   -5.6826   24.9177 C   0  0  0  0  0  0
  -21.6027   -4.3075   24.7223 C   0  0  0  0  0  0
  -21.8822   -3.8168   23.4345 C   0  0  0  0  0  0
  -21.9175   -4.6970   22.3400 C   0  0  0  0  0  0
  -22.7822  -13.5202   21.1888 C   0  0  0  0  0  0
  -22.1679   -4.2164   21.0979 F   0  0  0  0  0  0
  -21.5610   -3.4566   25.7745 F   0  0  0  0  0  0
  -29.9330  -13.7097   20.3990 N   0  0  0  0  0  0
  -26.2913  -12.9376   20.3227 N   0  0  0  0  0  0
  -25.9299  -11.6528   20.5675 N   0  0  0  0  0  0
  -22.0519  -12.8150   22.0433 N   0  0  0  0  0  0
  -25.4316  -15.1897   20.4172 N   0  0  0  0  0  0
  -31.6433  -15.1075   20.0538 O   0  0  0  0  0  0
  -21.6612   -6.8865   21.4229 O   0  0  0  0  0  0
  -22.3508  -14.5539   20.6782 O   0  0  0  0  0  0
  -24.6420  -31.8415   23.1861 C   0  0  0  0  0  0
  -25.9194  -32.4656   23.8246 C   0  0  1  0  0  0
  -27.2159  -27.0930   20.1718 C   0  0  0  0  0  0
  -25.5967  -33.8461   24.2175 N   0  0  0  0  0  0
  -23.4451  -30.4578   21.5299 C   0  0  2  0  0  0
  -24.9006  -28.8728   20.1001 C   0  0  0  0  0  0
  -22.7552  -29.4524   22.4853 C   0  0  0  0  0  0
  -18.0290  -28.1386   22.8480 C   0  0  0  0  0  0
  -24.1502  -36.7238   23.2641 C   0  0  0  0  0  0
  -26.0022  -30.6990   21.3921 C   0  0  0  0  0  0
  -26.0714  -29.3038   20.7352 C   0  0  0  0  0  0
  -27.2195  -28.4258   20.7602 C   0  0  0  0  0  0
  -26.0289  -26.7697   19.4816 C   0  0  0  0  0  0
  -24.8978  -27.6215   19.4564 C   0  0  0  0  0  0
  -23.6750  -29.7803   20.1484 C   0  0  0  0  0  0
  -25.4133  -36.2996   24.0313 C   0  0  1  0  0  0
  -20.5906  -28.3697   23.1249 C   0  0  2  0  0  0
  -20.6763  -26.9406   22.5403 C   0  0  0  0  0  0
  -19.5756  -26.6361   21.5206 C   0  0  0  0  0  0
  -18.1928  -26.7927   22.1586 C   0  0  0  0  0  0
  -19.1548  -28.8865   23.2848 C   0  0  0  0  0  0
  -18.9443  -30.1456   23.8872 C   0  0  0  0  0  0
  -17.6443  -30.6563   24.0530 C   0  0  0  0  0  0
  -25.9090  -34.9370   23.5066 C   0  0  0  0  0  0
  -16.5345  -29.9053   23.6322 C   0  0  0  0  0  0
  -16.7280  -28.6483   23.0319 C   0  0  0  0  0  0
  -26.4522  -31.6528   25.0703 C   0  0  0  0  0  0
  -25.3699  -31.3690   26.1386 C   0  0  0  0  0  0
  -27.0390  -30.2924   24.6304 C   0  0  0  0  0  0
  -27.6063  -32.4286   25.7469 C   0  0  0  0  0  0
  -27.5569  -37.1780   24.8473 C   0  0  0  0  0  0
  -21.4228  -29.3025   22.3616 N   0  0  0  0  0  0
  -26.4280  -37.3729   23.9414 N   0  0  0  0  0  0
  -24.7170  -31.0218   22.0917 N   0  0  0  0  0  0
  -23.4221  -28.8089   23.2965 O   0  0  0  0  0  0
  -28.2677  -26.1112   20.3288 O   0  0  0  0  0  0
  -26.5678  -34.8884   22.4644 O   0  0  0  0  0  0
  -23.5544  -32.1273   23.7091 O   0  0  0  0  0  0
  -26.0501  -21.8382   20.7909 C   0  0  0  0  0  0
  -26.6644  -23.0823   20.6339 C   0  0  0  0  0  0
  -26.7724  -20.6293   20.7022 C   0  0  0  0  0  0
  -28.1864  -20.6099   20.4875 C   0  0  0  0  0  0
  -28.0157  -23.1673   20.2978 C   0  0  0  0  0  0
  -28.3885  -18.1110   19.7294 C   0  0  0  0  0  0
  -28.9161  -19.1027   20.7759 C   0  0  1  0  0  0
  -29.6935  -17.6570   20.2007 C   0  0  1  0  0  0
  -25.9360  -19.3641   20.8891 C   0  0  0  0  0  0
  -28.6302  -15.5052   24.3593 C   0  0  0  0  0  0
  -28.4527  -24.6678   19.7205 C   0  0  0  0  0  0
  -28.3682  -16.1625   23.0028 C   0  0  0  0  0  0
  -29.7180  -16.4101   22.2862 C   0  0  0  0  0  0
  -28.7602  -21.9185   20.2593 N   0  0  0  0  0  0
  -29.7201  -16.1953   20.8239 N   0  0  0  0  0  0
  -31.4790  -12.8638   19.1474 H   0  0  0  0  0  0
  -30.5378  -11.6755   19.9792 H   0  0  0  0  0  0
  -29.8614  -11.7531   17.5858 H   0  0  0  0  0  0
  -29.5922  -13.4781   17.6747 H   0  0  0  0  0  0
  -27.9783  -11.2725   18.9597 H   0  0  0  0  0  0
  -27.4003  -12.4555   17.8094 H   0  0  0  0  0  0
  -27.6217  -14.2568   19.4608 H   0  0  0  0  0  0
  -28.8055  -12.1372   21.2950 H   0  0  0  0  0  0
  -28.3877  -13.7079   21.8669 H   0  0  0  0  0  0
  -25.2760   -9.5637   22.4766 H   0  0  0  0  0  0
  -23.9987   -7.4586   22.7500 H   0  0  0  0  0  0
  -21.0844   -8.8721   19.8970 H   0  0  0  0  0  0
  -22.3683  -10.9637   19.6166 H   0  0  0  0  0  0
  -21.2004   -7.6174   23.9688 H   0  0  0  0  0  0
  -21.1497   -6.0586   25.9070 H   0  0  0  0  0  0
  -22.0595   -2.7636   23.2837 H   0  0  0  0  0  0
  -22.4165  -11.9755   22.4634 H   0  0  0  0  0  0
  -21.1169  -13.1179   22.2812 H   0  0  0  0  0  0
  -24.6816  -15.8617   20.5400 H   0  0  0  0  0  0
  -26.3047  -15.6048   20.1325 H   0  0  0  0  0  0
  -26.7223  -32.5265   23.0932 H   0  0  0  0  0  0
  -25.0066  -33.9545   25.0280 H   0  0  0  0  0  0
  -22.7490  -31.2863   21.3736 H   0  0  0  0  0  0
  -23.3768  -35.9575   23.3312 H   0  0  0  0  0  0
  -24.3559  -36.8872   22.2056 H   0  0  0  0  0  0
  -23.7265  -37.6438   23.6674 H   0  0  0  0  0  0
  -26.1555  -31.4492   20.6147 H   0  0  0  0  0  0
  -26.8710  -30.7550   22.0378 H   0  0  0  0  0  0
  -28.1012  -28.7449   21.2999 H   0  0  0  0  0  0
  -25.9465  -25.8050   19.0027 H   0  0  0  0  0  0
  -24.0080  -27.2857   18.9437 H   0  0  0  0  0  0
  -23.8004  -30.5555   19.3895 H   0  0  0  0  0  0
  -22.7899  -29.2214   19.8417 H   0  0  0  0  0  0
  -25.1322  -36.1826   25.0803 H   0  0  0  0  0  0
  -21.0006  -28.3328   24.1361 H   0  0  0  0  0  0
  -20.5651  -26.2323   23.3602 H   0  0  0  0  0  0
  -21.6614  -26.7413   22.1184 H   0  0  0  0  0  0
  -19.6920  -25.6270   21.1258 H   0  0  0  0  0  0
  -19.6688  -27.3120   20.6702 H   0  0  0  0  0  0
  -17.4175  -26.6666   21.3992 H   0  0  0  0  0  0
  -18.0287  -26.0067   22.8975 H   0  0  0  0  0  0
  -19.7907  -30.7290   24.2221 H   0  0  0  0  0  0
  -17.4954  -31.6225   24.5148 H   0  0  0  0  0  0
  -15.5328  -30.2909   23.7623 H   0  0  0  0  0  0
  -15.8686  -28.0764   22.7040 H   0  0  0  0  0  0
  -24.5927  -30.6990   25.7697 H   0  0  0  0  0  0
  -24.8827  -32.2850   26.4728 H   0  0  0  0  0  0
  -25.7978  -30.8922   27.0209 H   0  0  0  0  0  0
  -26.3012  -29.6647   24.1312 H   0  0  0  0  0  0
  -27.3983  -29.7220   25.4877 H   0  0  0  0  0  0
  -27.8924  -30.4160   23.9641 H   0  0  0  0  0  0
  -27.2681  -33.3616   26.1965 H   0  0  0  0  0  0
  -28.3890  -32.6781   25.0299 H   0  0  0  0  0  0
  -28.0705  -31.8468   26.5429 H   0  0  0  0  0  0
  -28.2593  -38.0064   24.7471 H   0  0  0  0  0  0
  -28.1044  -36.2588   24.6351 H   0  0  0  0  0  0
  -27.2277  -37.1497   25.8871 H   0  0  0  0  0  0
  -20.9421  -29.8719   21.6793 H   0  0  0  0  0  0
  -26.0154  -38.2807   24.1385 H   0  0  0  0  0  0
  -24.9878  -21.8212   20.9784 H   0  0  0  0  0  0
  -26.0635  -23.9826   20.6723 H   0  0  0  0  0  0
  -28.3634  -18.4519   18.6984 H   0  0  0  0  0  0
  -27.5515  -17.4771   19.9965 H   0  0  0  0  0  0
  -28.6420  -18.9660   21.8220 H   0  0  0  0  0  0
  -30.5430  -17.8589   19.5536 H   0  0  0  0  0  0
  -25.7945  -18.8688   19.9243 H   0  0  0  0  0  0
  -24.9358  -19.5841   21.2686 H   0  0  0  0  0  0
  -26.3734  -18.6600   21.5986 H   0  0  0  0  0  0
  -29.3358  -14.6805   24.2622 H   0  0  0  0  0  0
  -27.7261  -15.1064   24.8247 H   0  0  0  0  0  0
  -29.0542  -16.2433   25.0397 H   0  0  0  0  0  0
  -28.0115  -24.7103   18.7238 H   0  0  0  0  0  0
  -29.5247  -24.5931   19.5408 H   0  0  0  0  0  0
  -27.8424  -17.1004   23.1947 H   0  0  0  0  0  0
  -27.6622  -15.5816   22.4107 H   0  0  0  0  0  0
  -30.4951  -15.7922   22.7389 H   0  0  0  0  0  0
  -30.0632  -17.4141   22.5329 H   0  0  0  0  0  0
  1 25  1  0  0  0
  1 30  2  0  0  0
  1 85  1  0  0  0
  2  3  1  0  0  0
  2 25  1  0  0  0
  2 86  1  0  0  0
  2 87  1  0  0  0
  3  4  1  0  0  0
  3 88  1  0  0  0
  3 89  1  0  0  0
  4  5  1  0  0  0
  4 90  1  0  0  0
  4 91  1  0  0  0
  5  6  1  0  0  0
  5 26  1  0  0  0
  5 92  1  0  0  0
  6 25  1  0  0  0
  6 93  1  0  0  0
  6 94  1  0  0  0
  7  8  2  0  0  0
  7 26  1  0  0  0
  7 29  1  0  0  0
  8  9  1  0  0  0
  8 22  1  0  0  0
  9 10  1  0  0  0
  9 27  2  0  0  0
 10 11  2  0  0  0
 10 15  1  0  0  0
 11 12  1  0  0  0
 11 95  1  0  0  0
 12 13  2  0  0  0
 12 96  1  0  0  0
 13 14  1  0  0  0
 13 31  1  0  0  0
 14 15  2  0  0  0
 14 97  1  0  0  0
 15 98  1  0  0  0
 16 17  2  0  0  0
 16 21  1  0  0  0
 16 31  1  0  0  0
 17 18  1  0  0  0
 17 99  1  0  0  0
 18 19  2  0  0  0
 18100  1  0  0  0
 19 20  1  0  0  0
 19 24  1  0  0  0
 20 21  2  0  0  0
 20101  1  0  0  0
 21 23  1  0  0  0
 22 28  1  0  0  0
 22 32  2  0  0  0
 26 27  1  0  0  0
 28102  1  0  0  0
 28103  1  0  0  0
 29104  1  0  0  0
 29105  1  0  0  0
 33 34  1  0  0  0
 33 66  1  0  0  0
 33 70  2  0  0  0
 34 36  1  0  0  0
 34 59  1  0  0  0
 34106  1  0  0  0
 35 44  2  0  0  0
 35 45  1  0  0  0
 35 68  1  0  0  0
 36 56  1  0  0  0
 36107  1  0  0  0
 37 39  1  0  0  0
 37 47  1  0  0  0
 37 66  1  0  0  0
 37108  1  0  0  0
 38 43  2  0  0  0
 38 46  1  0  0  0
 38 47  1  0  0  0
 39 64  1  0  0  0
 39 67  2  0  0  0
 40 52  1  0  0  0
 40 53  2  0  0  0
 40 58  1  0  0  0
 41109  1  0  0  0
 41110  1  0  0  0
 41111  1  0  0  0
 41 48  1  0  0  0
 42 43  1  0  0  0
 42 66  1  0  0  0
 42112  1  0  0  0
 42113  1  0  0  0
 43 44  1  0  0  0
 44114  1  0  0  0
 45 46  2  0  0  0
 45115  1  0  0  0
 46116  1  0  0  0
 47117  1  0  0  0
 47118  1  0  0  0
 48 56  1  0  0  0
 48 65  1  0  0  0
 48119  1  0  0  0
 49 50  1  0  0  0
 49 53  1  0  0  0
 49 64  1  0  0  0
 49120  1  0  0  0
 50 51  1  0  0  0
 50121  1  0  0  0
 50122  1  0  0  0
 51 52  1  0  0  0
 51123  1  0  0  0
 51124  1  0  0  0
 52125  1  0  0  0
 52126  1  0  0  0
 53 54  1  0  0  0
 54 55  2  0  0  0
 54127  1  0  0  0
 55 57  1  0  0  0
 55128  1  0  0  0
 56 69  2  0  0  0
 57 58  2  0  0  0
 57129  1  0  0  0
 58130  1  0  0  0
 59 60  1  0  0  0
 59 61  1  0  0  0
 59 62  1  0  0  0
 60131  1  0  0  0
 60132  1  0  0  0
 60133  1  0  0  0
 61134  1  0  0  0
 61135  1  0  0  0
 61136  1  0  0  0
 62137  1  0  0  0
 62138  1  0  0  0
 62139  1  0  0  0
 63 65  1  0  0  0
 63140  1  0  0  0
 63141  1  0  0  0
 63142  1  0  0  0
 64143  1  0  0  0
 65144  1  0  0  0
 68 81  1  0  0  0
 71 72  2  0  0  0
 71 73  1  0  0  0
 71145  1  0  0  0
 72 75  1  0  0  0
 72146  1  0  0  0
 73 74  2  0  0  0
 73 79  1  0  0  0
 74 84  1  0  0  0
 74 77  1  0  0  0
 75 81  1  0  0  0
 75 84  2  0  0  0
 76 77  1  0  0  0
 76 78  1  0  0  0
 76147  1  0  0  0
 76148  1  0  0  0
 77 78  1  0  0  0
 77149  1  0  0  0
 78 85  1  0  0  0
 78150  1  0  0  0
 79151  1  0  0  0
 79152  1  0  0  0
 79153  1  0  0  0
 80 82  1  0  0  0
 80154  1  0  0  0
 80155  1  0  0  0
 80156  1  0  0  0
 81157  1  0  0  0
 81158  1  0  0  0
 82 83  1  0  0  0
 82159  1  0  0  0
 82160  1  0  0  0
 83 85  1  0  0  0
 83161  1  0  0  0
 83162  1  0  0  0
M  ISO  4   1 100  68 101  81 101  85 100
M  END
> <chiral flag>
0

> <version>
0

> <s_m_source_file>
/data/baiqing/PycharmProjects/Reinvent-master-3.2/result/LINK_invent/BTK/process_docking_weight1_custom_sum_contain_oxygen_bond_distance_aromatic_linkinvent_7_9_3/rearranged_h_0176.sdf

> <i_m_source_file_index>
97

> <r_mmod_Potential_Energy-OPLS-2005>
923.2666015625

> <r_mmod_Stretch_Energy-OPLS-2005>
378.430236816406

> <r_mmod_Bend_Energy-OPLS-2005>
425.395599365234

> <r_mmod_Torsional_Energy-OPLS-2005>
361.226013183594

> <r_mmod_Improper_Torsional_Energy-OPLS-2005>
10.08571434021

> <r_mmod_Van_der_Waal_Energy-OPLS-2005>
137.193634033203

> <r_mmod_Electrostatic_Energy-OPLS-2005>
-408.676544189453

> <r_mmod_Solvation_Energy-OPLS-2005>
-211.1494140625

> <b_mmod_Minimization_Converged-OPLS-2005>
0

> <r_mmod_RMS_Derivative-OPLS-2005>
7.63271856307983

$$$$
97
                    3D
 Structure written by MMmdl.
151159  0  0  1  0            999 V2000
  -30.4645  -15.2136   20.3805 C   0  0  0  0  0  0
  -30.4388  -12.7742   19.5216 C   0  0  0  0  0  0
  -29.5325  -12.5597   18.2844 C   0  0  0  0  0  0
  -28.0794  -12.2923   18.7144 C   0  0  0  0  0  0
  -27.6131  -13.2691   19.8225 C   0  0  2  0  0  0
  -28.6479  -13.4281   20.9563 C   0  0  0  0  0  0
  -25.2397  -13.8236   20.5743 C   0  0  0  0  0  0
  -24.1743  -13.0431   20.9247 C   0  0  0  0  0  0
  -24.6394  -11.6929   20.8761 C   0  0  0  0  0  0
  -23.9092  -10.4284   21.0404 C   0  0  0  0  0  0
  -24.3635   -9.4201   21.9184 C   0  0  0  0  0  0
  -23.6300   -8.2242   22.0760 C   0  0  0  0  0  0
  -22.4283   -8.0280   21.3548 C   0  0  0  0  0  0
  -21.9924   -9.0252   20.4647 C   0  0  0  0  0  0
  -22.7263  -10.2126   20.3052 C   0  0  0  0  0  0
  -21.6851   -6.0731   22.5274 C   0  0  0  0  0  0
  -21.4012   -6.5637   23.8206 C   0  0  0  0  0  0
  -21.3657   -5.6791   24.9168 C   0  0  0  0  0  0
  -21.6045   -4.3052   24.7220 C   0  0  0  0  0  0
  -21.8822   -3.8146   23.4338 C   0  0  0  0  0  0
  -21.9193   -4.6961   22.3394 C   0  0  0  0  0  0
  -22.7759  -13.5186   21.1883 C   0  0  0  0  0  0
  -22.1662   -4.2148   21.0970 F   0  0  0  0  0  0
  -21.5628   -3.4539   25.7729 F   0  0  0  0  0  0
  -29.8866  -13.9186   20.3320 N   0  0  0  0  0  0
  -26.2823  -12.9504   20.3212 N   0  0  0  0  0  0
  -25.9331  -11.6619   20.5725 N   0  0  0  0  0  0
  -22.0417  -12.8171   22.0440 N   0  0  0  0  0  0
  -25.4047  -15.1966   20.4177 N   0  0  0  0  0  0
  -31.6846  -15.2117   20.1657 O   0  0  0  0  0  0
  -21.6644   -6.8881   21.4237 O   0  0  0  0  0  0
  -22.3434  -14.5478   20.6706 O   0  0  0  0  0  0
  -24.6614  -31.8275   23.1746 C   0  0  0  0  0  0
  -25.9307  -32.4613   23.8192 C   0  0  1  0  0  0
  -27.2102  -26.9482   20.1816 C   0  0  0  0  0  0
  -25.6004  -33.8426   24.2113 N   0  0  0  0  0  0
  -23.4743  -30.4419   21.5236 C   0  0  2  0  0  0
  -24.9258  -28.8364   20.1140 C   0  0  0  0  0  0
  -22.7652  -29.4476   22.4811 C   0  0  0  0  0  0
  -18.0316  -28.1419   22.8476 C   0  0  0  0  0  0
  -24.1485  -36.7207   23.2645 C   0  0  0  0  0  0
  -26.0436  -30.6417   21.3995 C   0  0  0  0  0  0
  -26.1110  -29.2337   20.7454 C   0  0  0  0  0  0
  -27.2500  -28.3109   20.7555 C   0  0  0  0  0  0
  -25.9960  -26.7057   19.4976 C   0  0  0  0  0  0
  -24.8930  -27.5924   19.4696 C   0  0  0  0  0  0
  -23.7122  -29.7612   20.1486 C   0  0  0  0  0  0
  -25.4122  -36.2978   24.0303 C   0  0  1  0  0  0
  -20.5939  -28.3759   23.1205 C   0  0  2  0  0  0
  -20.6794  -26.9443   22.5411 C   0  0  0  0  0  0
  -19.5767  -26.6386   21.5223 C   0  0  0  0  0  0
  -18.1946  -26.7958   22.1620 C   0  0  0  0  0  0
  -19.1579  -28.8908   23.2829 C   0  0  0  0  0  0
  -18.9490  -30.1500   23.8859 C   0  0  0  0  0  0
  -17.6484  -30.6611   24.0557 C   0  0  0  0  0  0
  -25.9095  -34.9361   23.5020 C   0  0  0  0  0  0
  -16.5375  -29.9097   23.6349 C   0  0  0  0  0  0
  -16.7294  -28.6515   23.0369 C   0  0  0  0  0  0
  -26.4574  -31.6541   25.0698 C   0  0  0  0  0  0
  -25.3709  -31.3782   26.1361 C   0  0  0  0  0  0
  -27.0458  -30.2918   24.6381 C   0  0  0  0  0  0
  -27.6094  -32.4329   25.7487 C   0  0  0  0  0  0
  -27.5570  -37.1743   24.8453 C   0  0  0  0  0  0
  -21.4326  -29.3058   22.3560 N   0  0  0  0  0  0
  -26.4257  -37.3727   23.9433 N   0  0  0  0  0  0
  -24.7484  -30.9958   22.0868 N   0  0  0  0  0  0
  -23.4215  -28.8036   23.3033 O   0  0  0  0  0  0
  -28.1971  -25.8340   20.2551 O   0  0  0  0  0  0
  -26.5693  -34.8897   22.4609 O   0  0  0  0  0  0
  -23.5686  -32.1230   23.6853 O   0  0  0  0  0  0
  -29.2644  -20.6204   21.4810 C   0  0  0  0  0  0
  -28.6787  -21.7166   19.1347 C   0  0  0  0  0  0
  -29.3595  -19.6503   20.3827 C   0  0  0  0  0  0
  -28.5885  -22.6934   20.2273 C   0  0  0  0  0  0
  -29.6400  -20.1700   22.8784 C   0  0  0  0  0  0
  -28.2876  -22.1536   17.7361 C   0  0  0  0  0  0
  -30.1375  -18.0841   20.3867 C   0  0  0  0  0  0
  -27.7894  -24.2507   20.1571 C   0  0  0  0  0  0
  -29.0564  -20.3408   19.2092 N   0  0  0  0  0  0
  -28.8849  -22.0006   21.4074 N   0  0  0  0  0  0
  -29.7215  -16.4850   20.4673 N   0  0  0  0  0  0
  -31.4589  -12.9695   19.1890 H   0  0  0  0  0  0
  -30.4995  -11.8657   20.1227 H   0  0  0  0  0  0
  -29.9042  -11.7299   17.6816 H   0  0  0  0  0  0
  -29.5700  -13.4441   17.6464 H   0  0  0  0  0  0
  -28.0321  -11.2682   19.0877 H   0  0  0  0  0  0
  -27.4101  -12.3344   17.8549 H   0  0  0  0  0  0
  -27.5343  -14.2385   19.3283 H   0  0  0  0  0  0
  -28.8054  -12.4892   21.4890 H   0  0  0  0  0  0
  -28.2957  -14.1501   21.6947 H   0  0  0  0  0  0
  -25.2786   -9.5664   22.4758 H   0  0  0  0  0  0
  -23.9998   -7.4632   22.7486 H   0  0  0  0  0  0
  -21.0858   -8.8772   19.8952 H   0  0  0  0  0  0
  -22.3730  -10.9659   19.6152 H   0  0  0  0  0  0
  -21.2008   -7.6148   23.9703 H   0  0  0  0  0  0
  -21.1474   -6.0523   25.9067 H   0  0  0  0  0  0
  -22.0607   -2.7610   23.2834 H   0  0  0  0  0  0
  -22.4059  -11.9850   22.4837 H   0  0  0  0  0  0
  -21.1022  -13.1164   22.2628 H   0  0  0  0  0  0
  -24.6370  -15.8492   20.5372 H   0  0  0  0  0  0
  -26.2456  -15.6381   20.0695 H   0  0  0  0  0  0
  -26.7370  -32.5158   23.0906 H   0  0  0  0  0  0
  -25.0123  -33.9514   25.0243 H   0  0  0  0  0  0
  -22.7870  -31.2740   21.3554 H   0  0  0  0  0  0
  -23.3777  -35.9505   23.3235 H   0  0  0  0  0  0
  -24.3586  -36.8914   22.2078 H   0  0  0  0  0  0
  -23.7190  -37.6356   23.6736 H   0  0  0  0  0  0
  -26.2161  -31.3809   20.6163 H   0  0  0  0  0  0
  -26.9091  -30.7048   22.0467 H   0  0  0  0  0  0
  -28.1444  -28.6114   21.2813 H   0  0  0  0  0  0
  -25.8491  -25.7632   18.9932 H   0  0  0  0  0  0
  -23.9921  -27.2844   18.9570 H   0  0  0  0  0  0
  -23.8665  -30.5308   19.3919 H   0  0  0  0  0  0
  -22.8221  -29.2163   19.8300 H   0  0  0  0  0  0
  -25.1312  -36.1768   25.0790 H   0  0  0  0  0  0
  -21.0026  -28.3346   24.1328 H   0  0  0  0  0  0
  -20.5686  -26.2370   23.3646 H   0  0  0  0  0  0
  -21.6653  -26.7431   22.1210 H   0  0  0  0  0  0
  -19.6923  -25.6287   21.1277 H   0  0  0  0  0  0
  -19.6702  -27.3171   20.6734 H   0  0  0  0  0  0
  -17.4223  -26.6715   21.4014 H   0  0  0  0  0  0
  -18.0320  -26.0114   22.9023 H   0  0  0  0  0  0
  -19.7963  -30.7330   24.2207 H   0  0  0  0  0  0
  -17.5034  -31.6285   24.5166 H   0  0  0  0  0  0
  -15.5374  -30.2986   23.7708 H   0  0  0  0  0  0
  -15.8688  -28.0819   22.7121 H   0  0  0  0  0  0
  -24.5923  -30.7094   25.7678 H   0  0  0  0  0  0
  -24.8863  -32.2975   26.4662 H   0  0  0  0  0  0
  -25.7957  -30.9043   27.0215 H   0  0  0  0  0  0
  -26.3108  -29.6620   24.1357 H   0  0  0  0  0  0
  -27.3993  -29.7261   25.5011 H   0  0  0  0  0  0
  -27.9048  -30.4139   23.9779 H   0  0  0  0  0  0
  -27.2713  -33.3710   26.1903 H   0  0  0  0  0  0
  -28.3990  -32.6744   25.0357 H   0  0  0  0  0  0
  -28.0652  -31.8533   26.5526 H   0  0  0  0  0  0
  -28.2525  -38.0105   24.7607 H   0  0  0  0  0  0
  -28.1130  -36.2646   24.6139 H   0  0  0  0  0  0
  -27.2314  -37.1209   25.8858 H   0  0  0  0  0  0
  -20.9575  -29.8743   21.6687 H   0  0  0  0  0  0
  -26.0094  -38.2760   24.1531 H   0  0  0  0  0  0
  -30.6920  -20.3791   23.0727 H   0  0  0  0  0  0
  -29.4776  -19.0994   23.0048 H   0  0  0  0  0  0
  -29.0427  -20.6829   23.6324 H   0  0  0  0  0  0
  -27.2078  -22.2884   17.6708 H   0  0  0  0  0  0
  -28.5789  -21.4175   16.9857 H   0  0  0  0  0  0
  -28.7667  -23.0977   17.4782 H   0  0  0  0  0  0
  -30.8664  -18.1762   21.1922 H   0  0  0  0  0  0
  -30.7582  -18.1245   19.4914 H   0  0  0  0  0  0
  -26.9966  -24.1498   20.8988 H   0  0  0  0  0  0
  -27.2653  -24.1860   19.2069 H   0  0  0  0  0  0
  -28.7296  -16.3438   20.5883 H   0  0  0  0  0  0
  1 25  1  0  0  0
  1 30  2  0  0  0
  1 81  1  0  0  0
  2  3  1  0  0  0
  2 25  1  0  0  0
  2 82  1  0  0  0
  2 83  1  0  0  0
  3  4  1  0  0  0
  3 84  1  0  0  0
  3 85  1  0  0  0
  4  5  1  0  0  0
  4 86  1  0  0  0
  4 87  1  0  0  0
  5  6  1  0  0  0
  5 26  1  0  0  0
  5 88  1  0  0  0
  6 25  1  0  0  0
  6 89  1  0  0  0
  6 90  1  0  0  0
  7  8  2  0  0  0
  7 26  1  0  0  0
  7 29  1  0  0  0
  8  9  1  0  0  0
  8 22  1  0  0  0
  9 10  1  0  0  0
  9 27  2  0  0  0
 10 11  2  0  0  0
 10 15  1  0  0  0
 11 12  1  0  0  0
 11 91  1  0  0  0
 12 13  2  0  0  0
 12 92  1  0  0  0
 13 14  1  0  0  0
 13 31  1  0  0  0
 14 15  2  0  0  0
 14 93  1  0  0  0
 15 94  1  0  0  0
 16 17  2  0  0  0
 16 21  1  0  0  0
 16 31  1  0  0  0
 17 18  1  0  0  0
 17 95  1  0  0  0
 18 19  2  0  0  0
 18 96  1  0  0  0
 19 20  1  0  0  0
 19 24  1  0  0  0
 20 21  2  0  0  0
 20 97  1  0  0  0
 21 23  1  0  0  0
 22 28  1  0  0  0
 22 32  2  0  0  0
 26 27  1  0  0  0
 28 98  1  0  0  0
 28 99  1  0  0  0
 29100  1  0  0  0
 29101  1  0  0  0
 33 34  1  0  0  0
 33 66  1  0  0  0
 33 70  2  0  0  0
 34 36  1  0  0  0
 34 59  1  0  0  0
 34102  1  0  0  0
 35 44  2  0  0  0
 35 45  1  0  0  0
 35 68  1  0  0  0
 36 56  1  0  0  0
 36103  1  0  0  0
 37 39  1  0  0  0
 37 47  1  0  0  0
 37 66  1  0  0  0
 37104  1  0  0  0
 38 43  2  0  0  0
 38 46  1  0  0  0
 38 47  1  0  0  0
 39 64  1  0  0  0
 39 67  2  0  0  0
 40 52  1  0  0  0
 40 53  2  0  0  0
 40 58  1  0  0  0
 41105  1  0  0  0
 41106  1  0  0  0
 41107  1  0  0  0
 41 48  1  0  0  0
 42 43  1  0  0  0
 42 66  1  0  0  0
 42108  1  0  0  0
 42109  1  0  0  0
 43 44  1  0  0  0
 44110  1  0  0  0
 45 46  2  0  0  0
 45111  1  0  0  0
 46112  1  0  0  0
 47113  1  0  0  0
 47114  1  0  0  0
 48 56  1  0  0  0
 48 65  1  0  0  0
 48115  1  0  0  0
 49 50  1  0  0  0
 49 53  1  0  0  0
 49 64  1  0  0  0
 49116  1  0  0  0
 50 51  1  0  0  0
 50117  1  0  0  0
 50118  1  0  0  0
 51 52  1  0  0  0
 51119  1  0  0  0
 51120  1  0  0  0
 52121  1  0  0  0
 52122  1  0  0  0
 53 54  1  0  0  0
 54 55  2  0  0  0
 54123  1  0  0  0
 55 57  1  0  0  0
 55124  1  0  0  0
 56 69  2  0  0  0
 57 58  2  0  0  0
 57125  1  0  0  0
 58126  1  0  0  0
 59 60  1  0  0  0
 59 61  1  0  0  0
 59 62  1  0  0  0
 60127  1  0  0  0
 60128  1  0  0  0
 60129  1  0  0  0
 61130  1  0  0  0
 61131  1  0  0  0
 61132  1  0  0  0
 62133  1  0  0  0
 62134  1  0  0  0
 62135  1  0  0  0
 63 65  1  0  0  0
 63136  1  0  0  0
 63137  1  0  0  0
 63138  1  0  0  0
 64139  1  0  0  0
 65140  1  0  0  0
 68 78  1  0  0  0
 71 73  2  0  0  0
 71 75  1  0  0  0
 71 80  1  0  0  0
 72 74  1  0  0  0
 72 76  1  0  0  0
 72 79  2  0  0  0
 73 77  1  0  0  0
 73 79  1  0  0  0
 74 78  1  0  0  0
 74 80  2  0  0  0
 75141  1  0  0  0
 75142  1  0  0  0
 75143  1  0  0  0
 76144  1  0  0  0
 76145  1  0  0  0
 76146  1  0  0  0
 77 81  1  0  0  0
 77147  1  0  0  0
 77148  1  0  0  0
 78149  1  0  0  0
 78150  1  0  0  0
 81151  1  0  0  0
M  ISO  4   1 100  68 101  78 101  81 100
M  END
> <chiral flag>
0

> <version>
0

> <s_m_source_file>
/data/baiqing/PycharmProjects/Reinvent-master-3.2/result/LINK_invent/BTK/process_docking_weight1_custom_sum_contain_oxygen_bond_distance_aromatic_linkinvent_7_9_3/rearranged_h_0176.sdf

> <i_m_source_file_index>
98

> <r_mmod_Potential_Energy-OPLS-2005>
1113.2900390625

> <r_mmod_Stretch_Energy-OPLS-2005>
494.396911621094

> <r_mmod_Bend_Energy-OPLS-2005>
427.422882080078

> <r_mmod_Torsional_Energy-OPLS-2005>
222.403930664062

> <r_mmod_Improper_Torsional_Energy-OPLS-2005>
9.36775588989258

> <r_mmod_Van_der_Waal_Energy-OPLS-2005>
134.200668334961

> <r_mmod_Electrostatic_Energy-OPLS-2005>
-356.280456542969

> <r_mmod_Solvation_Energy-OPLS-2005>
-236.440841674805

> <b_mmod_Minimization_Converged-OPLS-2005>
0

> <r_mmod_RMS_Derivative-OPLS-2005>
1.42285561561584

$$$$
98
                    3D
 Structure written by MMmdl.
161171  0  0  1  0            999 V2000
  -30.5674  -15.0215   20.3248 C   0  0  0  0  0  0
  -30.4342  -12.6311   19.4716 C   0  0  0  0  0  0
  -29.5118  -12.4987   18.2409 C   0  0  0  0  0  0
  -28.0581  -12.2645   18.6929 C   0  0  0  0  0  0
  -27.6191  -13.2481   19.8108 C   0  0  2  0  0  0
  -28.6733  -13.3617   20.9304 C   0  0  0  0  0  0
  -25.2456  -13.8204   20.5699 C   0  0  0  0  0  0
  -24.1792  -13.0432   20.9232 C   0  0  0  0  0  0
  -24.6397  -11.6923   20.8786 C   0  0  0  0  0  0
  -23.9103  -10.4295   21.0440 C   0  0  0  0  0  0
  -24.3650   -9.4195   21.9208 C   0  0  0  0  0  0
  -23.6293   -8.2246   22.0781 C   0  0  0  0  0  0
  -22.4290   -8.0288   21.3541 C   0  0  0  0  0  0
  -21.9923   -9.0274   20.4665 C   0  0  0  0  0  0
  -22.7280  -10.2134   20.3078 C   0  0  0  0  0  0
  -21.6861   -6.0758   22.5285 C   0  0  0  0  0  0
  -21.4005   -6.5654   23.8222 C   0  0  0  0  0  0
  -21.3663   -5.6799   24.9183 C   0  0  0  0  0  0
  -21.6036   -4.3062   24.7225 C   0  0  0  0  0  0
  -21.8823   -3.8153   23.4353 C   0  0  0  0  0  0
  -21.9168   -4.6974   22.3409 C   0  0  0  0  0  0
  -22.7809  -13.5200   21.1876 C   0  0  0  0  0  0
  -22.1652   -4.2161   21.0988 F   0  0  0  0  0  0
  -21.5620   -3.4548   25.7731 F   0  0  0  0  0  0
  -29.9309  -13.7748   20.2851 N   0  0  0  0  0  0
  -26.2867  -12.9427   20.3191 N   0  0  0  0  0  0
  -25.9319  -11.6563   20.5754 N   0  0  0  0  0  0
  -22.0465  -12.8198   22.0429 N   0  0  0  0  0  0
  -25.4093  -15.1932   20.4080 N   0  0  0  0  0  0
  -31.7944  -15.0161   20.2111 O   0  0  0  0  0  0
  -21.6632   -6.8902   21.4241 O   0  0  0  0  0  0
  -22.3485  -14.5511   20.6700 O   0  0  0  0  0  0
  -24.6476  -31.8387   23.1826 C   0  0  0  0  0  0
  -25.9217  -32.4662   23.8266 C   0  0  1  0  0  0
  -27.2525  -27.1104   20.1240 C   0  0  0  0  0  0
  -25.5913  -33.8455   24.2187 N   0  0  0  0  0  0
  -23.4594  -30.4528   21.5295 C   0  0  2  0  0  0
  -24.9133  -28.8662   20.1114 C   0  0  0  0  0  0
  -22.7617  -29.4471   22.4796 C   0  0  0  0  0  0
  -18.0315  -28.1393   22.8472 C   0  0  0  0  0  0
  -24.1448  -36.7257   23.2627 C   0  0  0  0  0  0
  -26.0153  -30.6972   21.3899 C   0  0  0  0  0  0
  -26.0914  -29.3035   20.7288 C   0  0  0  0  0  0
  -27.2566  -28.4431   20.7167 C   0  0  0  0  0  0
  -26.0429  -26.7797   19.4700 C   0  0  0  0  0  0
  -24.9046  -27.6211   19.4655 C   0  0  0  0  0  0
  -23.6880  -29.7695   20.1533 C   0  0  0  0  0  0
  -25.4090  -36.3004   24.0284 C   0  0  1  0  0  0
  -20.5932  -28.3707   23.1199 C   0  0  2  0  0  0
  -20.6800  -26.9408   22.5376 C   0  0  0  0  0  0
  -19.5764  -26.6390   21.5185 C   0  0  0  0  0  0
  -18.1961  -26.7962   22.1586 C   0  0  0  0  0  0
  -19.1587  -28.8863   23.2818 C   0  0  0  0  0  0
  -18.9509  -30.1469   23.8833 C   0  0  0  0  0  0
  -17.6495  -30.6602   24.0552 C   0  0  0  0  0  0
  -25.9042  -34.9355   23.5043 C   0  0  0  0  0  0
  -16.5363  -29.9089   23.6331 C   0  0  0  0  0  0
  -16.7306  -28.6509   23.0360 C   0  0  0  0  0  0
  -26.4542  -31.6555   25.0743 C   0  0  0  0  0  0
  -25.3712  -31.3784   26.1470 C   0  0  0  0  0  0
  -27.0405  -30.2908   24.6409 C   0  0  0  0  0  0
  -27.6059  -32.4422   25.7460 C   0  0  0  0  0  0
  -27.5596  -37.1700   24.8439 C   0  0  0  0  0  0
  -21.4299  -29.3022   22.3546 N   0  0  0  0  0  0
  -26.4240  -37.3741   23.9446 N   0  0  0  0  0  0
  -24.7281  -31.0183   22.0898 N   0  0  0  0  0  0
  -23.4241  -28.8075   23.3004 O   0  0  0  0  0  0
  -28.3327  -26.1373   20.1866 O   0  0  0  0  0  0
  -26.5652  -34.8850   22.4630 O   0  0  0  0  0  0
  -23.5573  -32.1251   23.6983 O   0  0  0  0  0  0
  -29.4262  -20.4440   20.5772 C   0  0  0  0  0  0
  -29.1488  -21.8347   19.9415 C   0  0  0  0  0  0
  -29.1524  -21.8365   18.5962 C   0  0  0  0  0  0
  -29.7631  -19.2642   19.8751 C   0  0  0  0  0  0
  -29.3227  -20.5781   17.8248 C   0  0  0  0  0  0
  -29.0404  -23.3297   20.6156 C   0  0  0  0  0  0
  -29.1867  -23.1829   17.8322 C   0  0  0  0  0  0
  -28.2689  -24.3371   18.3478 C   0  0  0  0  0  0
  -31.6390  -19.0693   16.6749 C   0  0  0  0  0  0
  -32.0468  -18.1909   17.8236 C   0  0  0  0  0  0
  -30.5741  -18.5245   17.6288 C   0  0  0  0  0  0
  -28.2128  -24.5966   19.8789 C   0  0  2  0  0  0
  -30.2945  -17.7882   20.4992 C   0  0  0  0  0  0
  -29.8933  -19.4873   18.4647 N   0  0  0  0  0  0
  -29.8508  -16.2677   20.2616 N   0  0  0  0  0  0
  -29.0609  -20.5377   16.6170 O   0  0  0  0  0  0
  -31.4662  -12.7818   19.1466 H   0  0  0  0  0  0
  -30.4369  -11.7108   20.0574 H   0  0  0  0  0  0
  -29.8402  -11.6699   17.6107 H   0  0  0  0  0  0
  -29.5715  -13.3993   17.6297 H   0  0  0  0  0  0
  -28.0033  -11.2408   19.0719 H   0  0  0  0  0  0
  -27.3749  -12.3058   17.8416 H   0  0  0  0  0  0
  -27.5574  -14.2222   19.3262 H   0  0  0  0  0  0
  -28.7863  -12.4153   21.4599 H   0  0  0  0  0  0
  -28.3634  -14.1052   21.6666 H   0  0  0  0  0  0
  -25.2793   -9.5648   22.4795 H   0  0  0  0  0  0
  -23.9975   -7.4640   22.7511 H   0  0  0  0  0  0
  -21.0855   -8.8822   19.8974 H   0  0  0  0  0  0
  -22.3759  -10.9685   19.6199 H   0  0  0  0  0  0
  -21.2028   -7.6169   23.9717 H   0  0  0  0  0  0
  -21.1472   -6.0544   25.9076 H   0  0  0  0  0  0
  -22.0586   -2.7610   23.2851 H   0  0  0  0  0  0
  -22.4038  -11.9850   22.4854 H   0  0  0  0  0  0
  -21.1085  -13.1224   22.2674 H   0  0  0  0  0  0
  -24.6319  -15.8383   20.5087 H   0  0  0  0  0  0
  -26.2532  -15.6403   20.0712 H   0  0  0  0  0  0
  -26.7281  -32.5221   23.0984 H   0  0  0  0  0  0
  -25.0019  -33.9551   25.0320 H   0  0  0  0  0  0
  -22.7609  -31.2746   21.3660 H   0  0  0  0  0  0
  -23.3684  -35.9606   23.3230 H   0  0  0  0  0  0
  -24.3568  -36.9033   22.2081 H   0  0  0  0  0  0
  -23.7236  -37.6423   23.6726 H   0  0  0  0  0  0
  -26.1769  -31.4417   20.6102 H   0  0  0  0  0  0
  -26.8838  -30.7536   22.0379 H   0  0  0  0  0  0
  -28.1594  -28.7683   21.2147 H   0  0  0  0  0  0
  -25.9513  -25.8290   18.9669 H   0  0  0  0  0  0
  -24.0094  -27.2839   18.9633 H   0  0  0  0  0  0
  -23.8206  -30.5341   19.3884 H   0  0  0  0  0  0
  -22.8024  -29.2043   19.8533 H   0  0  0  0  0  0
  -25.1252  -36.1810   25.0772 H   0  0  0  0  0  0
  -21.0005  -28.3362   24.1320 H   0  0  0  0  0  0
  -20.5737  -26.2333   23.3629 H   0  0  0  0  0  0
  -21.6687  -26.7472   22.1168 H   0  0  0  0  0  0
  -19.6924  -25.6302   21.1247 H   0  0  0  0  0  0
  -19.6716  -27.3141   20.6699 H   0  0  0  0  0  0
  -17.4253  -26.6703   21.3965 H   0  0  0  0  0  0
  -18.0311  -26.0080   22.8957 H   0  0  0  0  0  0
  -19.7968  -30.7299   24.2192 H   0  0  0  0  0  0
  -17.5049  -31.6257   24.5193 H   0  0  0  0  0  0
  -15.5365  -30.2969   23.7705 H   0  0  0  0  0  0
  -15.8717  -28.0817   22.7108 H   0  0  0  0  0  0
  -24.5859  -30.7157   25.7852 H   0  0  0  0  0  0
  -24.8871  -32.2953   26.4797 H   0  0  0  0  0  0
  -25.7993  -30.9074   27.0319 H   0  0  0  0  0  0
  -26.3043  -29.6591   24.1445 H   0  0  0  0  0  0
  -27.3973  -29.7340   25.5064 H   0  0  0  0  0  0
  -27.8975  -30.4126   23.9803 H   0  0  0  0  0  0
  -27.2651  -33.3791   26.1868 H   0  0  0  0  0  0
  -28.3863  -32.6938   25.0266 H   0  0  0  0  0  0
  -28.0706  -31.8712   26.5485 H   0  0  0  0  0  0
  -28.2484  -38.0137   24.7677 H   0  0  0  0  0  0
  -28.1236  -36.2660   24.5996 H   0  0  0  0  0  0
  -27.2343  -37.1103   25.8853 H   0  0  0  0  0  0
  -20.9514  -29.8751   21.6726 H   0  0  0  0  0  0
  -26.0077  -38.2750   24.1651 H   0  0  0  0  0  0
  -29.4256  -20.3987   21.6576 H   0  0  0  0  0  0
  -30.0771  -23.6647   20.7104 H   0  0  0  0  0  0
  -28.6929  -23.2185   21.6416 H   0  0  0  0  0  0
  -28.9835  -23.0343   16.7696 H   0  0  0  0  0  0
  -30.2224  -23.5290   17.8653 H   0  0  0  0  0  0
  -27.2556  -24.1543   17.9868 H   0  0  0  0  0  0
  -28.5829  -25.2524   17.8378 H   0  0  0  0  0  0
  -31.7003  -18.6559   15.6704 H   0  0  0  0  0  0
  -31.9060  -20.1255   16.7559 H   0  0  0  0  0  0
  -32.6001  -18.6746   18.6268 H   0  0  0  0  0  0
  -32.3724  -17.1842   17.5768 H   0  0  0  0  0  0
  -29.9418  -17.7389   17.2143 H   0  0  0  0  0  0
  -27.1837  -24.3773   20.1655 H   0  0  0  0  0  0
  -30.1582  -17.9125   21.5743 H   0  0  0  0  0  0
  -31.3767  -17.7885   20.3949 H   0  0  0  0  0  0
  -28.8509  -16.1410   20.1989 H   0  0  0  0  0  0
  1 25  1  0  0  0
  1 30  2  0  0  0
  1 85  1  0  0  0
  2  3  1  0  0  0
  2 25  1  0  0  0
  2 87  1  0  0  0
  2 88  1  0  0  0
  3  4  1  0  0  0
  3 89  1  0  0  0
  3 90  1  0  0  0
  4  5  1  0  0  0
  4 91  1  0  0  0
  4 92  1  0  0  0
  5  6  1  0  0  0
  5 26  1  0  0  0
  5 93  1  0  0  0
  6 25  1  0  0  0
  6 94  1  0  0  0
  6 95  1  0  0  0
  7  8  2  0  0  0
  7 26  1  0  0  0
  7 29  1  0  0  0
  8  9  1  0  0  0
  8 22  1  0  0  0
  9 10  1  0  0  0
  9 27  2  0  0  0
 10 11  2  0  0  0
 10 15  1  0  0  0
 11 12  1  0  0  0
 11 96  1  0  0  0
 12 13  2  0  0  0
 12 97  1  0  0  0
 13 14  1  0  0  0
 13 31  1  0  0  0
 14 15  2  0  0  0
 14 98  1  0  0  0
 15 99  1  0  0  0
 16 17  2  0  0  0
 16 21  1  0  0  0
 16 31  1  0  0  0
 17 18  1  0  0  0
 17100  1  0  0  0
 18 19  2  0  0  0
 18101  1  0  0  0
 19 20  1  0  0  0
 19 24  1  0  0  0
 20 21  2  0  0  0
 20102  1  0  0  0
 21 23  1  0  0  0
 22 28  1  0  0  0
 22 32  2  0  0  0
 26 27  1  0  0  0
 28103  1  0  0  0
 28104  1  0  0  0
 29105  1  0  0  0
 29106  1  0  0  0
 33 34  1  0  0  0
 33 66  1  0  0  0
 33 70  2  0  0  0
 34 36  1  0  0  0
 34 59  1  0  0  0
 34107  1  0  0  0
 35 44  2  0  0  0
 35 45  1  0  0  0
 35 68  1  0  0  0
 36 56  1  0  0  0
 36108  1  0  0  0
 37 39  1  0  0  0
 37 47  1  0  0  0
 37 66  1  0  0  0
 37109  1  0  0  0
 38 43  2  0  0  0
 38 46  1  0  0  0
 38 47  1  0  0  0
 39 64  1  0  0  0
 39 67  2  0  0  0
 40 52  1  0  0  0
 40 53  2  0  0  0
 40 58  1  0  0  0
 41110  1  0  0  0
 41111  1  0  0  0
 41112  1  0  0  0
 41 48  1  0  0  0
 42 43  1  0  0  0
 42 66  1  0  0  0
 42113  1  0  0  0
 42114  1  0  0  0
 43 44  1  0  0  0
 44115  1  0  0  0
 45 46  2  0  0  0
 45116  1  0  0  0
 46117  1  0  0  0
 47118  1  0  0  0
 47119  1  0  0  0
 48 56  1  0  0  0
 48 65  1  0  0  0
 48120  1  0  0  0
 49 50  1  0  0  0
 49 53  1  0  0  0
 49 64  1  0  0  0
 49121  1  0  0  0
 50 51  1  0  0  0
 50122  1  0  0  0
 50123  1  0  0  0
 51 52  1  0  0  0
 51124  1  0  0  0
 51125  1  0  0  0
 52126  1  0  0  0
 52127  1  0  0  0
 53 54  1  0  0  0
 54 55  2  0  0  0
 54128  1  0  0  0
 55 57  1  0  0  0
 55129  1  0  0  0
 56 69  2  0  0  0
 57 58  2  0  0  0
 57130  1  0  0  0
 58131  1  0  0  0
 59 60  1  0  0  0
 59 61  1  0  0  0
 59 62  1  0  0  0
 60132  1  0  0  0
 60133  1  0  0  0
 60134  1  0  0  0
 61135  1  0  0  0
 61136  1  0  0  0
 61137  1  0  0  0
 62138  1  0  0  0
 62139  1  0  0  0
 62140  1  0  0  0
 63 65  1  0  0  0
 63141  1  0  0  0
 63142  1  0  0  0
 63143  1  0  0  0
 64144  1  0  0  0
 65145  1  0  0  0
 68 82  1  0  0  0
 71 72  1  0  0  0
 71 74  2  0  0  0
 71146  1  0  0  0
 72 73  2  0  0  0
 72 76  1  0  0  0
 73 75  1  0  0  0
 73 77  1  0  0  0
 74 83  1  0  0  0
 74 84  1  0  0  0
 75 84  1  0  0  0
 75 86  2  0  0  0
 76 82  1  0  0  0
 76147  1  0  0  0
 76148  1  0  0  0
 77 78  1  0  0  0
 77149  1  0  0  0
 77150  1  0  0  0
 78 82  1  0  0  0
 78151  1  0  0  0
 78152  1  0  0  0
 79 80  1  0  0  0
 79 81  1  0  0  0
 79153  1  0  0  0
 79154  1  0  0  0
 80 81  1  0  0  0
 80155  1  0  0  0
 80156  1  0  0  0
 81 84  1  0  0  0
 81157  1  0  0  0
 82158  1  0  0  0
 83 85  1  0  0  0
 83159  1  0  0  0
 83160  1  0  0  0
 85161  1  0  0  0
M  ISO  4   1 100  68 101  82 101  85 100
M  END
> <chiral flag>
0

> <version>
0

> <s_m_source_file>
/data/baiqing/PycharmProjects/Reinvent-master-3.2/result/LINK_invent/BTK/process_docking_weight1_custom_sum_contain_oxygen_bond_distance_aromatic_linkinvent_7_9_3/rearranged_h_0176.sdf

> <i_m_source_file_index>
99

> <r_mmod_Potential_Energy-OPLS-2005>
833.44189453125

> <r_mmod_Stretch_Energy-OPLS-2005>
305.377563476562

> <r_mmod_Bend_Energy-OPLS-2005>
301.499786376953

> <r_mmod_Torsional_Energy-OPLS-2005>
360.805206298828

> <r_mmod_Improper_Torsional_Energy-OPLS-2005>
6.65858459472656

> <r_mmod_Van_der_Waal_Energy-OPLS-2005>
147.013809204102

> <r_mmod_Electrostatic_Energy-OPLS-2005>
-310.246643066406

> <r_mmod_Solvation_Energy-OPLS-2005>
-216.521377563477

> <b_mmod_Minimization_Converged-OPLS-2005>
0

> <r_mmod_RMS_Derivative-OPLS-2005>
6.62587070465088

$$$$
99
                    3D
 Structure written by MMmdl.
156165  0  0  1  0            999 V2000
  -30.4645  -15.2140   20.3821 C   0  0  0  0  0  0
  -30.4364  -12.7755   19.5149 C   0  0  0  0  0  0
  -29.5291  -12.5664   18.2776 C   0  0  0  0  0  0
  -28.0757  -12.3004   18.7068 C   0  0  0  0  0  0
  -27.6124  -13.2710   19.8222 C   0  0  2  0  0  0
  -28.6495  -13.4287   20.9537 C   0  0  0  0  0  0
  -25.2396  -13.8241   20.5746 C   0  0  0  0  0  0
  -24.1746  -13.0436   20.9256 C   0  0  0  0  0  0
  -24.6396  -11.6930   20.8764 C   0  0  0  0  0  0
  -23.9091  -10.4294   21.0411 C   0  0  0  0  0  0
  -24.3635   -9.4206   21.9187 C   0  0  0  0  0  0
  -23.6302   -8.2243   22.0755 C   0  0  0  0  0  0
  -22.4284   -8.0284   21.3544 C   0  0  0  0  0  0
  -21.9926   -9.0259   20.4645 C   0  0  0  0  0  0
  -22.7262  -10.2136   20.3057 C   0  0  0  0  0  0
  -21.6856   -6.0741   22.5279 C   0  0  0  0  0  0
  -21.4013   -6.5642   23.8213 C   0  0  0  0  0  0
  -21.3657   -5.6793   24.9172 C   0  0  0  0  0  0
  -21.6045   -4.3057   24.7222 C   0  0  0  0  0  0
  -21.8818   -3.8148   23.4343 C   0  0  0  0  0  0
  -21.9193   -4.6967   22.3400 C   0  0  0  0  0  0
  -22.7764  -13.5192   21.1898 C   0  0  0  0  0  0
  -22.1663   -4.2153   21.0979 F   0  0  0  0  0  0
  -21.5628   -3.4539   25.7735 F   0  0  0  0  0  0
  -29.8848  -13.9198   20.3244 N   0  0  0  0  0  0
  -26.2822  -12.9511   20.3224 N   0  0  0  0  0  0
  -25.9332  -11.6621   20.5727 N   0  0  0  0  0  0
  -22.0424  -12.8174   22.0453 N   0  0  0  0  0  0
  -25.4028  -15.1975   20.4177 N   0  0  0  0  0  0
  -31.6875  -15.2051   20.1871 O   0  0  0  0  0  0
  -21.6642   -6.8884   21.4242 O   0  0  0  0  0  0
  -22.3443  -14.5494   20.6740 O   0  0  0  0  0  0
  -24.6605  -31.8264   23.1738 C   0  0  0  0  0  0
  -25.9298  -32.4604   23.8188 C   0  0  1  0  0  0
  -27.2136  -26.9522   20.1793 C   0  0  0  0  0  0
  -25.5976  -33.8417   24.2091 N   0  0  0  0  0  0
  -23.4739  -30.4415   21.5219 C   0  0  2  0  0  0
  -24.9271  -28.8377   20.1118 C   0  0  0  0  0  0
  -22.7653  -29.4464   22.4778 C   0  0  0  0  0  0
  -18.0320  -28.1412   22.8463 C   0  0  0  0  0  0
  -24.1489  -36.7211   23.2650 C   0  0  0  0  0  0
  -26.0433  -30.6415   21.4019 C   0  0  0  0  0  0
  -26.1114  -29.2352   20.7447 C   0  0  0  0  0  0
  -27.2509  -28.3130   20.7565 C   0  0  0  0  0  0
  -26.0007  -26.7083   19.4946 C   0  0  0  0  0  0
  -24.8968  -27.5940   19.4657 C   0  0  0  0  0  0
  -23.7125  -29.7618   20.1468 C   0  0  0  0  0  0
  -25.4130  -36.2977   24.0302 C   0  0  1  0  0  0
  -20.5946  -28.3752   23.1185 C   0  0  2  0  0  0
  -20.6800  -26.9435   22.5398 C   0  0  0  0  0  0
  -19.5773  -26.6378   21.5210 C   0  0  0  0  0  0
  -18.1954  -26.7947   22.1617 C   0  0  0  0  0  0
  -19.1583  -28.8900   23.2815 C   0  0  0  0  0  0
  -18.9498  -30.1491   23.8853 C   0  0  0  0  0  0
  -17.6491  -30.6602   24.0552 C   0  0  0  0  0  0
  -25.9097  -34.9358   23.5015 C   0  0  0  0  0  0
  -16.5378  -29.9087   23.6346 C   0  0  0  0  0  0
  -16.7303  -28.6507   23.0365 C   0  0  0  0  0  0
  -26.4558  -31.6543   25.0706 C   0  0  0  0  0  0
  -25.3684  -31.3791   26.1360 C   0  0  0  0  0  0
  -27.0458  -30.2914   24.6433 C   0  0  0  0  0  0
  -27.6056  -32.4351   25.7505 C   0  0  0  0  0  0
  -27.5563  -37.1766   24.8470 C   0  0  0  0  0  0
  -21.4326  -29.3050   22.3533 N   0  0  0  0  0  0
  -26.4275  -37.3710   23.9409 N   0  0  0  0  0  0
  -24.7471  -30.9954   22.0863 N   0  0  0  0  0  0
  -23.4211  -28.8019   23.3003 O   0  0  0  0  0  0
  -28.2011  -25.8395   20.2554 O   0  0  0  0  0  0
  -26.5701  -34.8890   22.4607 O   0  0  0  0  0  0
  -23.5679  -32.1219   23.6844 O   0  0  0  0  0  0
  -29.1438  -22.0033   21.3781 C   0  0  0  0  0  0
  -29.5166  -20.5676   21.3957 C   0  0  0  0  0  0
  -29.3566  -19.6231   20.3413 C   0  0  0  0  0  0
  -28.5823  -22.6987   20.2289 C   0  0  0  0  0  0
  -28.8036  -20.3677   19.2234 C   0  0  0  0  0  0
  -30.1980  -19.8469   22.5385 C   0  0  0  0  0  0
  -30.0926  -18.0934   20.6135 C   0  0  1  0  0  0
  -30.5057  -18.3600   22.1023 C   0  0  1  0  0  0
  -28.5998  -19.6484   17.9076 C   0  0  0  0  0  0
  -31.9619  -17.9690   22.4000 C   0  0  0  0  0  0
  -27.7967  -24.2588   20.1259 C   0  0  0  0  0  0
  -28.4395  -21.7495   19.2001 N   0  0  0  0  0  0
  -29.7150  -16.4858   20.4626 N   0  0  0  0  0  0
  -31.4570  -12.9719   19.1839 H   0  0  0  0  0  0
  -30.4923  -11.8654   20.1144 H   0  0  0  0  0  0
  -29.8989  -11.7408   17.6682 H   0  0  0  0  0  0
  -29.5658  -13.4548   17.6454 H   0  0  0  0  0  0
  -28.0232  -11.2738   19.0709 H   0  0  0  0  0  0
  -27.4058  -12.3543   17.8477 H   0  0  0  0  0  0
  -27.5320  -14.2420   19.3324 H   0  0  0  0  0  0
  -28.8079  -12.4899   21.4863 H   0  0  0  0  0  0
  -28.2997  -14.1514   21.6926 H   0  0  0  0  0  0
  -25.2779   -9.5681   22.4765 H   0  0  0  0  0  0
  -24.0008   -7.4635   22.7479 H   0  0  0  0  0  0
  -21.0856   -8.8781   19.8950 H   0  0  0  0  0  0
  -22.3721  -10.9676   19.6164 H   0  0  0  0  0  0
  -21.2004   -7.6150   23.9716 H   0  0  0  0  0  0
  -21.1479   -6.0523   25.9076 H   0  0  0  0  0  0
  -22.0599   -2.7612   23.2841 H   0  0  0  0  0  0
  -22.4057  -11.9838   22.4835 H   0  0  0  0  0  0
  -21.1037  -13.1180   22.2663 H   0  0  0  0  0  0
  -24.6301  -15.8455   20.5293 H   0  0  0  0  0  0
  -26.2406  -15.6404   20.0641 H   0  0  0  0  0  0
  -26.7358  -32.5149   23.0899 H   0  0  0  0  0  0
  -25.0081  -33.9506   25.0210 H   0  0  0  0  0  0
  -22.7867  -31.2732   21.3531 H   0  0  0  0  0  0
  -23.3765  -35.9531   23.3296 H   0  0  0  0  0  0
  -24.3563  -36.8870   22.2068 H   0  0  0  0  0  0
  -23.7238  -37.6392   23.6712 H   0  0  0  0  0  0
  -26.2223  -31.3851   20.6241 H   0  0  0  0  0  0
  -26.9042  -30.6959   22.0565 H   0  0  0  0  0  0
  -28.1443  -28.6136   21.2851 H   0  0  0  0  0  0
  -25.8580  -25.7651   18.9905 H   0  0  0  0  0  0
  -23.9982  -27.2858   18.9490 H   0  0  0  0  0  0
  -23.8660  -30.5317   19.3898 H   0  0  0  0  0  0
  -22.8232  -29.2152   19.8278 H   0  0  0  0  0  0
  -25.1332  -36.1775   25.0795 H   0  0  0  0  0  0
  -21.0035  -28.3356   24.1307 H   0  0  0  0  0  0
  -20.5683  -26.2368   23.3636 H   0  0  0  0  0  0
  -21.6662  -26.7415   22.1200 H   0  0  0  0  0  0
  -19.6936  -25.6278   21.1269 H   0  0  0  0  0  0
  -19.6716  -27.3161   20.6723 H   0  0  0  0  0  0
  -17.4221  -26.6686   21.4021 H   0  0  0  0  0  0
  -18.0350  -26.0105   22.9031 H   0  0  0  0  0  0
  -19.7976  -30.7318   24.2200 H   0  0  0  0  0  0
  -17.5047  -31.6279   24.5162 H   0  0  0  0  0  0
  -15.5380  -30.2976   23.7708 H   0  0  0  0  0  0
  -15.8701  -28.0812   22.7116 H   0  0  0  0  0  0
  -24.5887  -30.7116   25.7668 H   0  0  0  0  0  0
  -24.8849  -32.2990   26.4658 H   0  0  0  0  0  0
  -25.7914  -30.9042   27.0221 H   0  0  0  0  0  0
  -26.3127  -29.6589   24.1415 H   0  0  0  0  0  0
  -27.3972  -29.7283   25.5091 H   0  0  0  0  0  0
  -27.9073  -30.4110   23.9860 H   0  0  0  0  0  0
  -27.2636  -33.3708   26.1942 H   0  0  0  0  0  0
  -28.3940  -32.6818   25.0379 H   0  0  0  0  0  0
  -28.0639  -31.8564   26.5536 H   0  0  0  0  0  0
  -28.2574  -38.0066   24.7503 H   0  0  0  0  0  0
  -28.1063  -36.2593   24.6314 H   0  0  0  0  0  0
  -27.2278  -37.1426   25.8871 H   0  0  0  0  0  0
  -20.9570  -29.8742   21.6671 H   0  0  0  0  0  0
  -26.0125  -38.2769   24.1417 H   0  0  0  0  0  0
  -29.2786  -22.5763   22.2858 H   0  0  0  0  0  0
  -29.5561  -19.8680   23.4203 H   0  0  0  0  0  0
  -31.1123  -20.3843   22.7936 H   0  0  0  0  0  0
  -30.9885  -18.1775   19.9961 H   0  0  0  0  0  0
  -29.8645  -17.7346   22.7253 H   0  0  0  0  0  0
  -29.2127  -18.7484   17.8535 H   0  0  0  0  0  0
  -28.8709  -20.2873   17.0673 H   0  0  0  0  0  0
  -27.5558  -19.3569   17.7950 H   0  0  0  0  0  0
  -32.6587  -18.5548   21.7992 H   0  0  0  0  0  0
  -32.1469  -16.9168   22.1903 H   0  0  0  0  0  0
  -32.2052  -18.1365   23.4493 H   0  0  0  0  0  0
  -26.9557  -24.1541   20.8118 H   0  0  0  0  0  0
  -27.3465  -24.2017   19.1364 H   0  0  0  0  0  0
  -28.7214  -16.3196   20.5149 H   0  0  0  0  0  0
  1 25  1  0  0  0
  1 30  2  0  0  0
  1 83  1  0  0  0
  2  3  1  0  0  0
  2 25  1  0  0  0
  2 84  1  0  0  0
  2 85  1  0  0  0
  3  4  1  0  0  0
  3 86  1  0  0  0
  3 87  1  0  0  0
  4  5  1  0  0  0
  4 88  1  0  0  0
  4 89  1  0  0  0
  5  6  1  0  0  0
  5 26  1  0  0  0
  5 90  1  0  0  0
  6 25  1  0  0  0
  6 91  1  0  0  0
  6 92  1  0  0  0
  7  8  2  0  0  0
  7 26  1  0  0  0
  7 29  1  0  0  0
  8  9  1  0  0  0
  8 22  1  0  0  0
  9 10  1  0  0  0
  9 27  2  0  0  0
 10 11  2  0  0  0
 10 15  1  0  0  0
 11 12  1  0  0  0
 11 93  1  0  0  0
 12 13  2  0  0  0
 12 94  1  0  0  0
 13 14  1  0  0  0
 13 31  1  0  0  0
 14 15  2  0  0  0
 14 95  1  0  0  0
 15 96  1  0  0  0
 16 17  2  0  0  0
 16 21  1  0  0  0
 16 31  1  0  0  0
 17 18  1  0  0  0
 17 97  1  0  0  0
 18 19  2  0  0  0
 18 98  1  0  0  0
 19 20  1  0  0  0
 19 24  1  0  0  0
 20 21  2  0  0  0
 20 99  1  0  0  0
 21 23  1  0  0  0
 22 28  1  0  0  0
 22 32  2  0  0  0
 26 27  1  0  0  0
 28100  1  0  0  0
 28101  1  0  0  0
 29102  1  0  0  0
 29103  1  0  0  0
 33 34  1  0  0  0
 33 66  1  0  0  0
 33 70  2  0  0  0
 34 36  1  0  0  0
 34 59  1  0  0  0
 34104  1  0  0  0
 35 44  2  0  0  0
 35 45  1  0  0  0
 35 68  1  0  0  0
 36 56  1  0  0  0
 36105  1  0  0  0
 37 39  1  0  0  0
 37 47  1  0  0  0
 37 66  1  0  0  0
 37106  1  0  0  0
 38 43  2  0  0  0
 38 46  1  0  0  0
 38 47  1  0  0  0
 39 64  1  0  0  0
 39 67  2  0  0  0
 40 52  1  0  0  0
 40 53  2  0  0  0
 40 58  1  0  0  0
 41107  1  0  0  0
 41108  1  0  0  0
 41109  1  0  0  0
 41 48  1  0  0  0
 42 43  1  0  0  0
 42 66  1  0  0  0
 42110  1  0  0  0
 42111  1  0  0  0
 43 44  1  0  0  0
 44112  1  0  0  0
 45 46  2  0  0  0
 45113  1  0  0  0
 46114  1  0  0  0
 47115  1  0  0  0
 47116  1  0  0  0
 48 56  1  0  0  0
 48 65  1  0  0  0
 48117  1  0  0  0
 49 50  1  0  0  0
 49 53  1  0  0  0
 49 64  1  0  0  0
 49118  1  0  0  0
 50 51  1  0  0  0
 50119  1  0  0  0
 50120  1  0  0  0
 51 52  1  0  0  0
 51121  1  0  0  0
 51122  1  0  0  0
 52123  1  0  0  0
 52124  1  0  0  0
 53 54  1  0  0  0
 54 55  2  0  0  0
 54125  1  0  0  0
 55 57  1  0  0  0
 55126  1  0  0  0
 56 69  2  0  0  0
 57 58  2  0  0  0
 57127  1  0  0  0
 58128  1  0  0  0
 59 60  1  0  0  0
 59 61  1  0  0  0
 59 62  1  0  0  0
 60129  1  0  0  0
 60130  1  0  0  0
 60131  1  0  0  0
 61132  1  0  0  0
 61133  1  0  0  0
 61134  1  0  0  0
 62135  1  0  0  0
 62136  1  0  0  0
 62137  1  0  0  0
 63 65  1  0  0  0
 63138  1  0  0  0
 63139  1  0  0  0
 63140  1  0  0  0
 64141  1  0  0  0
 65142  1  0  0  0
 68 81  1  0  0  0
 71 72  2  0  0  0
 71 74  1  0  0  0
 71143  1  0  0  0
 72 73  1  0  0  0
 72 76  1  0  0  0
 73 75  2  0  0  0
 73 77  1  0  0  0
 74 81  1  0  0  0
 74 82  2  0  0  0
 75 79  1  0  0  0
 75 82  1  0  0  0
 76 78  1  0  0  0
 76144  1  0  0  0
 76145  1  0  0  0
 77 78  1  0  0  0
 77 83  1  0  0  0
 77146  1  0  0  0
 78 80  1  0  0  0
 78147  1  0  0  0
 79148  1  0  0  0
 79149  1  0  0  0
 79150  1  0  0  0
 80151  1  0  0  0
 80152  1  0  0  0
 80153  1  0  0  0
 81154  1  0  0  0
 81155  1  0  0  0
 83156  1  0  0  0
M  ISO  4   1 100  68 101  81 101  83 100
M  END
> <chiral flag>
0

> <version>
0

> <s_m_source_file>
/data/baiqing/PycharmProjects/Reinvent-master-3.2/result/LINK_invent/BTK/process_docking_weight1_custom_sum_contain_oxygen_bond_distance_aromatic_linkinvent_7_9_3/rearranged_h_0176.sdf

> <i_m_source_file_index>
100

> <r_mmod_Potential_Energy-OPLS-2005>
1020.33734130859

> <r_mmod_Stretch_Energy-OPLS-2005>
468.433746337891

> <r_mmod_Bend_Energy-OPLS-2005>
480.329772949219

> <r_mmod_Torsional_Energy-OPLS-2005>
228.221267700195

> <r_mmod_Improper_Torsional_Energy-OPLS-2005>
8.18973731994629

> <r_mmod_Van_der_Waal_Energy-OPLS-2005>
126.261558532715

> <r_mmod_Electrostatic_Energy-OPLS-2005>
-482.338928222656

> <r_mmod_Solvation_Energy-OPLS-2005>
-224.738876342773

> <b_mmod_Minimization_Converged-OPLS-2005>
0

> <r_mmod_RMS_Derivative-OPLS-2005>
0.806458592414856

$$$$
