0
                    3D
 Structure written by MMmdl.
161169  0  0  1  0            999 V2000
  -30.6201  -14.9402   20.3132 C   0  0  0  0  0  0
  -30.4324  -12.5734   19.4753 C   0  0  0  0  0  0
  -29.5053  -12.4775   18.2443 C   0  0  0  0  0  0
  -28.0514  -12.2296   18.6887 C   0  0  0  0  0  0
  -27.6094  -13.1903   19.8164 C   0  0  2  0  0  0
  -28.6719  -13.3516   20.9287 C   0  0  0  0  0  0
  -25.2471  -13.8025   20.5781 C   0  0  0  0  0  0
  -24.1750  -13.0334   20.9298 C   0  0  0  0  0  0
  -24.6315  -11.6804   20.8848 C   0  0  0  0  0  0
  -23.8993  -10.4225   21.0473 C   0  0  0  0  0  0
  -24.3565   -9.4143   21.9230 C   0  0  0  0  0  0
  -23.6251   -8.2181   22.0769 C   0  0  0  0  0  0
  -22.4241   -8.0237   21.3545 C   0  0  0  0  0  0
  -21.9873   -9.0213   20.4653 C   0  0  0  0  0  0
  -22.7191  -10.2094   20.3088 C   0  0  0  0  0  0
  -21.6831   -6.0712   22.5276 C   0  0  0  0  0  0
  -21.3998   -6.5626   23.8206 C   0  0  0  0  0  0
  -21.3654   -5.6787   24.9173 C   0  0  0  0  0  0
  -21.6044   -4.3049   24.7229 C   0  0  0  0  0  0
  -21.8820   -3.8134   23.4352 C   0  0  0  0  0  0
  -21.9186   -4.6944   22.3404 C   0  0  0  0  0  0
  -22.7786  -13.5171   21.1908 C   0  0  0  0  0  0
  -22.1658   -4.2130   21.0983 F   0  0  0  0  0  0
  -21.5635   -3.4535   25.7745 F   0  0  0  0  0  0
  -29.9549  -13.7127   20.3045 N   0  0  0  0  0  0
  -26.2816  -12.9121   20.3314 N   0  0  0  0  0  0
  -25.9224  -11.6327   20.5858 N   0  0  0  0  0  0
  -22.0403  -12.8195   22.0459 N   0  0  0  0  0  0
  -25.4128  -15.1751   20.4173 N   0  0  0  0  0  0
  -31.8516  -14.8597   20.3437 O   0  0  0  0  0  0
  -21.6606   -6.8843   21.4235 O   0  0  0  0  0  0
  -22.3509  -14.5480   20.6721 O   0  0  0  0  0  0
  -24.6379  -31.8499   23.1943 C   0  0  0  0  0  0
  -25.9175  -32.4728   23.8314 C   0  0  1  0  0  0
  -27.2245  -27.1965   20.1509 C   0  0  0  0  0  0
  -25.5944  -33.8533   24.2228 N   0  0  0  0  0  0
  -23.4404  -30.4699   21.5385 C   0  0  2  0  0  0
  -24.8931  -28.9090   20.1120 C   0  0  0  0  0  0
  -22.7548  -29.4567   22.4886 C   0  0  0  0  0  0
  -18.0299  -28.1395   22.8479 C   0  0  0  0  0  0
  -24.1489  -36.7267   23.2642 C   0  0  0  0  0  0
  -25.9925  -30.7416   21.3878 C   0  0  0  0  0  0
  -26.0674  -29.3582   20.7311 C   0  0  0  0  0  0
  -27.2369  -28.5169   20.7373 C   0  0  0  0  0  0
  -26.0332  -26.8462   19.4767 C   0  0  0  0  0  0
  -24.8855  -27.6635   19.4689 C   0  0  0  0  0  0
  -23.6658  -29.8028   20.1563 C   0  0  0  0  0  0
  -25.4121  -36.3054   24.0320 C   0  0  1  0  0  0
  -20.5908  -28.3715   23.1249 C   0  0  2  0  0  0
  -20.6786  -26.9424   22.5407 C   0  0  0  0  0  0
  -19.5761  -26.6383   21.5213 C   0  0  0  0  0  0
  -18.1940  -26.7934   22.1623 C   0  0  0  0  0  0
  -19.1555  -28.8873   23.2856 C   0  0  0  0  0  0
  -18.9473  -30.1469   23.8883 C   0  0  0  0  0  0
  -17.6471  -30.6593   24.0558 C   0  0  0  0  0  0
  -25.9066  -34.9426   23.5079 C   0  0  0  0  0  0
  -16.5362  -29.9087   23.6336 C   0  0  0  0  0  0
  -16.7284  -28.6504   23.0360 C   0  0  0  0  0  0
  -26.4518  -31.6578   25.0732 C   0  0  0  0  0  0
  -25.3717  -31.3744   26.1435 C   0  0  0  0  0  0
  -27.0376  -30.2984   24.6273 C   0  0  0  0  0  0
  -27.6059  -32.4335   25.7510 C   0  0  0  0  0  0
  -27.5578  -37.1789   24.8465 C   0  0  0  0  0  0
  -21.4245  -29.3047   22.3629 N   0  0  0  0  0  0
  -26.4289  -37.3760   23.9408 N   0  0  0  0  0  0
  -24.7094  -31.0398   22.0959 N   0  0  0  0  0  0
  -23.4210  -28.8110   23.3017 O   0  0  0  0  0  0
  -28.2719  -26.2217   20.2006 O   0  0  0  0  0  0
  -26.5646  -34.8912   22.4654 O   0  0  0  0  0  0
  -23.5509  -32.1351   23.7191 O   0  0  0  0  0  0
  -29.3275  -21.1087   21.4679 C   0  0  0  0  0  0
  -28.9504  -22.5037   21.6116 C   0  0  0  0  0  0
  -28.6663  -23.3918   20.5039 C   0  0  0  0  0  0
  -28.8503  -22.7435   19.2376 C   0  0  0  0  0  0
  -29.4499  -20.4519   20.2097 C   0  0  0  0  0  0
  -29.2211  -21.3434   19.1077 C   0  0  0  0  0  0
  -29.9850  -17.7817   20.6030 C   0  0  0  0  0  0
  -28.7961  -23.0167   23.0340 C   0  0  0  0  0  0
  -28.5819  -23.5404   17.9679 C   0  0  0  0  0  0
  -30.9741  -16.7261   18.5162 C   0  0  0  0  0  0
  -28.6364  -16.2757   19.1145 C   0  0  0  0  0  0
  -27.8907  -24.8249   20.6990 C   0  0  0  0  0  0
  -30.0393  -16.3982   19.7164 C   0  0  0  0  0  0
  -29.7398  -18.9934   19.9296 N   0  0  0  0  0  0
  -30.1232  -17.7457   21.8266 O   0  0  0  0  0  0
  -29.3509  -20.6609   17.5193 Cl  0  0  0  0  0  0
  -31.4643  -12.7088   19.1458 H   0  0  0  0  0  0
  -30.4184  -11.6461   20.0501 H   0  0  0  0  0  0
  -29.8338  -11.6728   17.5852 H   0  0  0  0  0  0
  -29.5676  -13.3959   17.6592 H   0  0  0  0  0  0
  -27.9886  -11.2004   19.0434 H   0  0  0  0  0  0
  -27.3727  -12.3000   17.8377 H   0  0  0  0  0  0
  -27.4775  -14.1144   19.2907 H   0  0  0  0  0  0
  -28.7730  -12.4330   21.5084 H   0  0  0  0  0  0
  -28.3706  -14.1320   21.6294 H   0  0  0  0  0  0
  -25.2707   -9.5616   22.4810 H   0  0  0  0  0  0
  -23.9953   -7.4564   22.7481 H   0  0  0  0  0  0
  -21.0808   -8.8735   19.8953 H   0  0  0  0  0  0
  -22.3663  -10.9647   19.6204 H   0  0  0  0  0  0
  -21.1984   -7.6134   23.9697 H   0  0  0  0  0  0
  -21.1481   -6.0524   25.9074 H   0  0  0  0  0  0
  -22.0607   -2.7596   23.2857 H   0  0  0  0  0  0
  -22.3999  -11.9856   22.4865 H   0  0  0  0  0  0
  -21.1022  -13.1241   22.2645 H   0  0  0  0  0  0
  -24.6428  -15.8242   20.5367 H   0  0  0  0  0  0
  -26.2561  -15.6195   20.0821 H   0  0  0  0  0  0
  -26.7242  -32.5360   23.1051 H   0  0  0  0  0  0
  -25.0077  -33.9662   25.0365 H   0  0  0  0  0  0
  -22.7397  -31.2937   21.3875 H   0  0  0  0  0  0
  -23.3761  -35.9590   23.3297 H   0  0  0  0  0  0
  -24.3576  -36.8905   22.2058 H   0  0  0  0  0  0
  -23.7231  -37.6457   23.6681 H   0  0  0  0  0  0
  -26.1416  -31.4984   20.6165 H   0  0  0  0  0  0
  -26.8655  -30.7917   22.0269 H   0  0  0  0  0  0
  -28.1305  -28.8535   21.2439 H   0  0  0  0  0  0
  -25.9675  -25.9022   18.9559 H   0  0  0  0  0  0
  -23.9938  -27.3196   18.9628 H   0  0  0  0  0  0
  -23.7975  -30.5793   19.4017 H   0  0  0  0  0  0
  -22.7832  -29.2402   19.8467 H   0  0  0  0  0  0
  -25.1304  -36.1893   25.0811 H   0  0  0  0  0  0
  -20.9996  -28.3301   24.1372 H   0  0  0  0  0  0
  -20.5685  -26.2326   23.3619 H   0  0  0  0  0  0
  -21.6652  -26.7438   22.1201 H   0  0  0  0  0  0
  -19.6922  -25.6290   21.1253 H   0  0  0  0  0  0
  -19.6698  -27.3184   20.6733 H   0  0  0  0  0  0
  -17.4208  -26.6681   21.4025 H   0  0  0  0  0  0
  -18.0338  -26.0080   22.9022 H   0  0  0  0  0  0
  -19.7949  -30.7285   24.2251 H   0  0  0  0  0  0
  -17.5026  -31.6272   24.5163 H   0  0  0  0  0  0
  -15.5362  -30.2984   23.7671 H   0  0  0  0  0  0
  -15.8682  -28.0814   22.7092 H   0  0  0  0  0  0
  -24.5905  -30.7082   25.7755 H   0  0  0  0  0  0
  -24.8896  -32.2916   26.4826 H   0  0  0  0  0  0
  -25.8016  -30.8942   27.0234 H   0  0  0  0  0  0
  -26.2981  -29.6717   24.1276 H   0  0  0  0  0  0
  -27.4005  -29.7268   25.4824 H   0  0  0  0  0  0
  -27.8883  -30.4238   23.9571 H   0  0  0  0  0  0
  -27.2664  -33.3655   26.2040 H   0  0  0  0  0  0
  -28.3894  -32.6861   25.0354 H   0  0  0  0  0  0
  -28.0700  -31.8490   26.5464 H   0  0  0  0  0  0
  -28.2588  -38.0096   24.7523 H   0  0  0  0  0  0
  -28.1082  -36.2623   24.6281 H   0  0  0  0  0  0
  -27.2295  -37.1424   25.8869 H   0  0  0  0  0  0
  -20.9451  -29.8760   21.6812 H   0  0  0  0  0  0
  -26.0161  -38.2828   24.1425 H   0  0  0  0  0  0
  -29.4890  -20.5165   22.3578 H   0  0  0  0  0  0
  -29.2338  -22.3305   23.7599 H   0  0  0  0  0  0
  -27.7414  -23.1359   23.2838 H   0  0  0  0  0  0
  -29.2951  -23.9782   23.1580 H   0  0  0  0  0  0
  -27.6712  -23.1858   17.4856 H   0  0  0  0  0  0
  -29.4077  -23.4332   17.2644 H   0  0  0  0  0  0
  -28.4686  -24.6069   18.1543 H   0  0  0  0  0  0
  -30.5642  -17.4904   17.8555 H   0  0  0  0  0  0
  -31.1496  -15.8481   17.8918 H   0  0  0  0  0  0
  -31.9492  -17.0819   18.8530 H   0  0  0  0  0  0
  -28.3042  -17.1947   18.6306 H   0  0  0  0  0  0
  -27.9118  -16.0708   19.8979 H   0  0  0  0  0  0
  -28.6141  -15.5219   18.3301 H   0  0  0  0  0  0
  -27.7356  -24.9763   21.7649 H   0  0  0  0  0  0
  -26.8914  -24.5848   20.3444 H   0  0  0  0  0  0
  -29.7096  -18.8245   18.9328 H   0  0  0  0  0  0
  1 25  1  0  0  0
  1 30  2  0  0  0
  1 83  1  0  0  0
  2  3  1  0  0  0
  2 25  1  0  0  0
  2 87  1  0  0  0
  2 88  1  0  0  0
  3  4  1  0  0  0
  3 89  1  0  0  0
  3 90  1  0  0  0
  4  5  1  0  0  0
  4 91  1  0  0  0
  4 92  1  0  0  0
  5  6  1  0  0  0
  5 26  1  0  0  0
  5 93  1  0  0  0
  6 25  1  0  0  0
  6 94  1  0  0  0
  6 95  1  0  0  0
  7  8  2  0  0  0
  7 26  1  0  0  0
  7 29  1  0  0  0
  8  9  1  0  0  0
  8 22  1  0  0  0
  9 10  1  0  0  0
  9 27  2  0  0  0
 10 11  2  0  0  0
 10 15  1  0  0  0
 11 12  1  0  0  0
 11 96  1  0  0  0
 12 13  2  0  0  0
 12 97  1  0  0  0
 13 14  1  0  0  0
 13 31  1  0  0  0
 14 15  2  0  0  0
 14 98  1  0  0  0
 15 99  1  0  0  0
 16 17  2  0  0  0
 16 21  1  0  0  0
 16 31  1  0  0  0
 17 18  1  0  0  0
 17100  1  0  0  0
 18 19  2  0  0  0
 18101  1  0  0  0
 19 20  1  0  0  0
 19 24  1  0  0  0
 20 21  2  0  0  0
 20102  1  0  0  0
 21 23  1  0  0  0
 22 28  1  0  0  0
 22 32  2  0  0  0
 26 27  1  0  0  0
 28103  1  0  0  0
 28104  1  0  0  0
 29105  1  0  0  0
 29106  1  0  0  0
 33 34  1  0  0  0
 33 66  1  0  0  0
 33 70  2  0  0  0
 34 36  1  0  0  0
 34 59  1  0  0  0
 34107  1  0  0  0
 35 44  2  0  0  0
 35 45  1  0  0  0
 35 68  1  0  0  0
 36 56  1  0  0  0
 36108  1  0  0  0
 37 39  1  0  0  0
 37 47  1  0  0  0
 37 66  1  0  0  0
 37109  1  0  0  0
 38 43  2  0  0  0
 38 46  1  0  0  0
 38 47  1  0  0  0
 39 64  1  0  0  0
 39 67  2  0  0  0
 40 52  1  0  0  0
 40 53  2  0  0  0
 40 58  1  0  0  0
 41110  1  0  0  0
 41111  1  0  0  0
 41112  1  0  0  0
 41 48  1  0  0  0
 42 43  1  0  0  0
 42 66  1  0  0  0
 42113  1  0  0  0
 42114  1  0  0  0
 43 44  1  0  0  0
 44115  1  0  0  0
 45 46  2  0  0  0
 45116  1  0  0  0
 46117  1  0  0  0
 47118  1  0  0  0
 47119  1  0  0  0
 48 56  1  0  0  0
 48 65  1  0  0  0
 48120  1  0  0  0
 49 50  1  0  0  0
 49 53  1  0  0  0
 49 64  1  0  0  0
 49121  1  0  0  0
 50 51  1  0  0  0
 50122  1  0  0  0
 50123  1  0  0  0
 51 52  1  0  0  0
 51124  1  0  0  0
 51125  1  0  0  0
 52126  1  0  0  0
 52127  1  0  0  0
 53 54  1  0  0  0
 54 55  2  0  0  0
 54128  1  0  0  0
 55 57  1  0  0  0
 55129  1  0  0  0
 56 69  2  0  0  0
 57 58  2  0  0  0
 57130  1  0  0  0
 58131  1  0  0  0
 59 60  1  0  0  0
 59 61  1  0  0  0
 59 62  1  0  0  0
 60132  1  0  0  0
 60133  1  0  0  0
 60134  1  0  0  0
 61135  1  0  0  0
 61136  1  0  0  0
 61137  1  0  0  0
 62138  1  0  0  0
 62139  1  0  0  0
 62140  1  0  0  0
 63 65  1  0  0  0
 63141  1  0  0  0
 63142  1  0  0  0
 63143  1  0  0  0
 64144  1  0  0  0
 65145  1  0  0  0
 68 82  1  0  0  0
 71 72  2  0  0  0
 71 75  1  0  0  0
 71146  1  0  0  0
 72 73  1  0  0  0
 72 78  1  0  0  0
 73 74  2  0  0  0
 73 82  1  0  0  0
 74 76  1  0  0  0
 74 79  1  0  0  0
 75 76  2  0  0  0
 75 84  1  0  0  0
 76 86  1  0  0  0
 77 83  1  0  0  0
 77 84  1  0  0  0
 77 85  2  0  0  0
 78147  1  0  0  0
 78148  1  0  0  0
 78149  1  0  0  0
 79150  1  0  0  0
 79151  1  0  0  0
 79152  1  0  0  0
 80153  1  0  0  0
 80154  1  0  0  0
 80155  1  0  0  0
 80 83  1  0  0  0
 81 83  1  0  0  0
 81156  1  0  0  0
 81157  1  0  0  0
 81158  1  0  0  0
 82159  1  0  0  0
 82160  1  0  0  0
 84161  1  0  0  0
M  ISO  4   1 100  68 101  82 101  83 100
M  END
> <chiral flag>
0

> <version>
0

> <s_m_source_file>
/data/baiqing/PycharmProjects/Reinvent-master-3.2/result/LINK_invent/BTK/process_docking_weight1_custom_sum_contain_oxygen_bond_distance_aromatic_linkinvent_7_9_3/rearranged_h_0017.sdf

> <i_m_source_file_index>
1

> <r_mmod_Potential_Energy-OPLS-2005>
578.54638671875

> <r_mmod_Stretch_Energy-OPLS-2005>
201.279830932617

> <r_mmod_Bend_Energy-OPLS-2005>
277.938507080078

> <r_mmod_Torsional_Energy-OPLS-2005>
283.339019775391

> <r_mmod_Improper_Torsional_Energy-OPLS-2005>
19.9036960601807

> <r_mmod_Van_der_Waal_Energy-OPLS-2005>
154.578643798828

> <r_mmod_Electrostatic_Energy-OPLS-2005>
-338.934814453125

> <r_mmod_Solvation_Energy-OPLS-2005>
-205.859954833984

> <b_mmod_Minimization_Converged-OPLS-2005>
0

> <r_mmod_RMS_Derivative-OPLS-2005>
0.652517855167389

$$$$
1
                    3D
 Structure written by MMmdl.
169177  0  0  1  0            999 V2000
  -30.7471  -14.3830   20.6670 C   0  0  0  0  0  0
  -30.4119  -12.2894   19.3977 C   0  0  0  0  0  0
  -29.4827  -12.5338   18.1939 C   0  0  0  0  0  0
  -28.0079  -12.3875   18.6112 C   0  0  0  0  0  0
  -27.6653  -13.2073   19.8849 C   0  0  2  0  0  0
  -28.7043  -12.9449   20.9981 C   0  0  0  0  0  0
  -25.2620  -13.8176   20.5723 C   0  0  0  0  0  0
  -24.1880  -13.0456   20.9193 C   0  0  0  0  0  0
  -24.6426  -11.6911   20.8744 C   0  0  0  0  0  0
  -23.9084  -10.4305   21.0421 C   0  0  0  0  0  0
  -24.3627   -9.4222   21.9186 C   0  0  0  0  0  0
  -23.6310   -8.2258   22.0744 C   0  0  0  0  0  0
  -22.4288   -8.0286   21.3552 C   0  0  0  0  0  0
  -21.9938   -9.0260   20.4652 C   0  0  0  0  0  0
  -22.7267  -10.2137   20.3071 C   0  0  0  0  0  0
  -21.6872   -6.0751   22.5294 C   0  0  0  0  0  0
  -21.4016   -6.5649   23.8222 C   0  0  0  0  0  0
  -21.3658   -5.6793   24.9182 C   0  0  0  0  0  0
  -21.6053   -4.3051   24.7234 C   0  0  0  0  0  0
  -21.8819   -3.8162   23.4346 C   0  0  0  0  0  0
  -21.9206   -4.6984   22.3410 C   0  0  0  0  0  0
  -22.7889  -13.5232   21.1843 C   0  0  0  0  0  0
  -22.1668   -4.2172   21.0979 F   0  0  0  0  0  0
  -21.5634   -3.4528   25.7745 F   0  0  0  0  0  0
  -30.0387  -13.2428   20.4548 N   0  0  0  0  0  0
  -26.3054  -12.9336   20.3410 N   0  0  0  0  0  0
  -25.9344  -11.6485   20.5768 N   0  0  0  0  0  0
  -22.0529  -12.8226   22.0379 N   0  0  0  0  0  0
  -25.4419  -15.1894   20.4153 N   0  0  0  0  0  0
  -31.8292  -14.5785   20.0947 O   0  0  0  0  0  0
  -21.6642   -6.8893   21.4257 O   0  0  0  0  0  0
  -22.3562  -14.5547   20.6697 O   0  0  0  0  0  0
  -24.6148  -31.8693   23.2084 C   0  0  0  0  0  0
  -25.9045  -32.4817   23.8409 C   0  0  1  0  0  0
  -27.2526  -27.4644   20.0766 C   0  0  0  0  0  0
  -25.5908  -33.8618   24.2334 N   0  0  0  0  0  0
  -23.4022  -30.4894   21.5480 C   0  0  2  0  0  0
  -24.8492  -28.9519   20.1132 C   0  0  0  0  0  0
  -22.7392  -29.4688   22.4999 C   0  0  0  0  0  0
  -18.0277  -28.1401   22.8504 C   0  0  0  0  0  0
  -24.1468  -36.7329   23.2646 C   0  0  0  0  0  0
  -25.9262  -30.8403   21.3543 C   0  0  0  0  0  0
  -26.0032  -29.4712   20.7121 C   0  0  0  0  0  0
  -27.2011  -28.7292   20.6998 C   0  0  0  0  0  0
  -26.0753  -26.9403   19.4914 C   0  0  0  0  0  0
  -24.8786  -27.6838   19.5048 C   0  0  0  0  0  0
  -23.6086  -29.8143   20.1650 C   0  0  0  0  0  0
  -25.4074  -36.3098   24.0351 C   0  0  1  0  0  0
  -20.5861  -28.3688   23.1327 C   0  0  2  0  0  0
  -20.6763  -26.9433   22.5412 C   0  0  0  0  0  0
  -19.5741  -26.6419   21.5218 C   0  0  0  0  0  0
  -18.1921  -26.7953   22.1621 C   0  0  0  0  0  0
  -19.1523  -28.8858   23.2921 C   0  0  0  0  0  0
  -18.9439  -30.1461   23.8931 C   0  0  0  0  0  0
  -17.6441  -30.6603   24.0571 C   0  0  0  0  0  0
  -25.9014  -34.9469   23.5125 C   0  0  0  0  0  0
  -16.5341  -29.9101   23.6324 C   0  0  0  0  0  0
  -16.7267  -28.6522   23.0348 C   0  0  0  0  0  0
  -26.4513  -31.6599   25.0744 C   0  0  0  0  0  0
  -25.3824  -31.3704   26.1542 C   0  0  0  0  0  0
  -27.0316  -30.3028   24.6117 C   0  0  0  0  0  0
  -27.6079  -32.4356   25.7483 C   0  0  0  0  0  0
  -27.5555  -37.1808   24.8483 C   0  0  0  0  0  0
  -21.4118  -29.3057   22.3722 N   0  0  0  0  0  0
  -26.4266  -37.3774   23.9426 N   0  0  0  0  0  0
  -24.6652  -31.0818   22.0948 N   0  0  0  0  0  0
  -23.4157  -28.8229   23.3053 O   0  0  0  0  0  0
  -28.4584  -26.8030   20.0776 O   0  0  0  0  0  0
  -26.5561  -34.8920   22.4679 O   0  0  0  0  0  0
  -23.5349  -32.1439   23.7496 O   0  0  0  0  0  0
  -31.7848  -18.3511   18.9121 C   0  0  0  0  0  0
  -32.5765  -19.3982   18.4123 C   0  0  0  0  0  0
  -30.2253  -19.9586   19.9165 C   0  0  0  0  0  0
  -31.0367  -21.0136   19.4230 C   0  0  0  0  0  0
  -30.6409  -18.6177   19.7072 C   0  0  0  0  0  0
  -32.2051  -20.7255   18.6853 C   0  0  0  0  0  0
  -30.6300  -16.8359   21.0980 C   0  0  0  0  0  0
  -33.8297  -19.1104   17.6078 C   0  0  0  0  0  0
  -28.9378  -20.2780   20.6767 C   0  0  0  0  0  0
  -30.4333  -24.7805   16.6189 C   0  0  0  0  0  0
  -30.7058  -22.4793   19.6601 C   0  0  0  0  0  0
  -30.2004  -15.4796   21.6121 C   0  0  0  0  0  0
  -30.1955  -25.5204   19.0726 C   0  0  0  0  0  0
  -28.6741  -25.7478   19.1467 C   0  0  0  0  0  0
  -30.6746  -24.4220   18.0954 C   0  0  1  0  0  0
  -29.9568  -17.5414   20.2751 N   0  0  0  0  0  0
  -30.1526  -23.0771   18.4296 N   0  3  0  0  0  0
  -32.9704  -21.7394   18.2157 F   0  0  0  0  0  0
  -31.4556  -12.3803   19.0874 H   0  0  0  0  0  0
  -30.3041  -11.2682   19.7654 H   0  0  0  0  0  0
  -29.7138  -11.8385   17.3865 H   0  0  0  0  0  0
  -29.6574  -13.5352   17.7939 H   0  0  0  0  0  0
  -27.8149  -11.3292   18.7898 H   0  0  0  0  0  0
  -27.3556  -12.6800   17.7885 H   0  0  0  0  0  0
  -27.7197  -14.2619   19.6111 H   0  0  0  0  0  0
  -28.6657  -11.8999   21.3040 H   0  0  0  0  0  0
  -28.4582  -13.5019   21.9000 H   0  0  0  0  0  0
  -25.2779   -9.5682   22.4728 H   0  0  0  0  0  0
  -24.0051   -7.4632   22.7429 H   0  0  0  0  0  0
  -21.0894   -8.8788   19.8901 H   0  0  0  0  0  0
  -22.3770  -10.9674   19.6160 H   0  0  0  0  0  0
  -21.1975   -7.6148   23.9743 H   0  0  0  0  0  0
  -21.1477   -6.0510   25.9087 H   0  0  0  0  0  0
  -22.0593   -2.7627   23.2851 H   0  0  0  0  0  0
  -22.4145  -11.9886   22.4787 H   0  0  0  0  0  0
  -21.1129  -13.1232   22.2506 H   0  0  0  0  0  0
  -24.6936  -15.8638   20.5327 H   0  0  0  0  0  0
  -26.3152  -15.6153   20.1308 H   0  0  0  0  0  0
  -26.7121  -32.5521   23.1176 H   0  0  0  0  0  0
  -25.0091  -33.9785   25.0507 H   0  0  0  0  0  0
  -22.6946  -31.3065   21.4006 H   0  0  0  0  0  0
  -23.3715  -35.9679   23.3281 H   0  0  0  0  0  0
  -24.3585  -36.8986   22.2078 H   0  0  0  0  0  0
  -23.7233  -37.6527   23.6680 H   0  0  0  0  0  0
  -26.0315  -31.5959   20.5731 H   0  0  0  0  0  0
  -26.8183  -30.9057   21.9628 H   0  0  0  0  0  0
  -28.0970  -29.1341   21.1487 H   0  0  0  0  0  0
  -26.0669  -25.9670   19.0250 H   0  0  0  0  0  0
  -23.9911  -27.2700   19.0460 H   0  0  0  0  0  0
  -23.7036  -30.5829   19.3974 H   0  0  0  0  0  0
  -22.7348  -29.2255   19.8788 H   0  0  0  0  0  0
  -25.1236  -36.1954   25.0846 H   0  0  0  0  0  0
  -20.9995  -28.3265   24.1433 H   0  0  0  0  0  0
  -20.5704  -26.2303   23.3606 H   0  0  0  0  0  0
  -21.6621  -26.7491   22.1176 H   0  0  0  0  0  0
  -19.6896  -25.6333   21.1250 H   0  0  0  0  0  0
  -19.6668  -27.3223   20.6748 H   0  0  0  0  0  0
  -17.4193  -26.6752   21.4021 H   0  0  0  0  0  0
  -18.0282  -26.0090   22.9004 H   0  0  0  0  0  0
  -19.7904  -30.7287   24.2333 H   0  0  0  0  0  0
  -17.4976  -31.6285   24.5154 H   0  0  0  0  0  0
  -15.5329  -30.3000   23.7631 H   0  0  0  0  0  0
  -15.8676  -28.0847   22.7041 H   0  0  0  0  0  0
  -24.5934  -30.7116   25.7920 H   0  0  0  0  0  0
  -24.9114  -32.2868   26.5112 H   0  0  0  0  0  0
  -25.8264  -30.8796   27.0222 H   0  0  0  0  0  0
  -26.2819  -29.6740   24.1310 H   0  0  0  0  0  0
  -27.4216  -29.7329   25.4566 H   0  0  0  0  0  0
  -27.8599  -30.4321   23.9142 H   0  0  0  0  0  0
  -27.2707  -33.3714   26.1949 H   0  0  0  0  0  0
  -28.3922  -32.6843   25.0321 H   0  0  0  0  0  0
  -28.0684  -31.8559   26.5491 H   0  0  0  0  0  0
  -28.2586  -38.0080   24.7448 H   0  0  0  0  0  0
  -28.1024  -36.2613   24.6359 H   0  0  0  0  0  0
  -27.2297  -37.1527   25.8895 H   0  0  0  0  0  0
  -20.9301  -29.8762   21.6912 H   0  0  0  0  0  0
  -26.0154  -38.2861   24.1388 H   0  0  0  0  0  0
  -32.0807  -17.3288   18.7094 H   0  0  0  0  0  0
  -31.6247  -17.1353   21.4479 H   0  0  0  0  0  0
  -34.0814  -18.0496   17.6097 H   0  0  0  0  0  0
  -34.6742  -19.6559   18.0290 H   0  0  0  0  0  0
  -33.7030  -19.4285   16.5726 H   0  0  0  0  0  0
  -28.2736  -20.8720   20.0482 H   0  0  0  0  0  0
  -29.1485  -20.8503   21.5802 H   0  0  0  0  0  0
  -28.3789  -19.3925   20.9780 H   0  0  0  0  0  0
  -30.9062  -25.7331   16.3751 H   0  0  0  0  0  0
  -29.3748  -24.8631   16.3713 H   0  0  0  0  0  0
  -30.8767  -24.0319   15.9607 H   0  0  0  0  0  0
  -31.6289  -22.9774   19.9608 H   0  0  0  0  0  0
  -30.0225  -22.6339   20.4946 H   0  0  0  0  0  0
  -29.1170  -15.4846   21.6997 H   0  0  0  0  0  0
  -30.6085  -15.3298   22.6129 H   0  0  0  0  0  0
  -30.5828  -25.3050   20.0686 H   0  0  0  0  0  0
  -30.6677  -26.4589   18.7822 H   0  0  0  0  0  0
  -28.1587  -24.8478   19.4834 H   0  0  0  0  0  0
  -28.2961  -26.0127   18.1580 H   0  0  0  0  0  0
  -31.7598  -24.3574   18.1942 H   0  0  0  0  0  0
  -29.1468  -23.0592   18.4702 H   0  0  0  0  0  0
  -30.4243  -22.4638   17.6778 H   0  0  0  0  0  0
  1 25  1  0  0  0
  1 30  2  0  0  0
  1 82  1  0  0  0
  2  3  1  0  0  0
  2 25  1  0  0  0
  2 89  1  0  0  0
  2 90  1  0  0  0
  3  4  1  0  0  0
  3 91  1  0  0  0
  3 92  1  0  0  0
  4  5  1  0  0  0
  4 93  1  0  0  0
  4 94  1  0  0  0
  5  6  1  0  0  0
  5 26  1  0  0  0
  5 95  1  0  0  0
  6 25  1  0  0  0
  6 96  1  0  0  0
  6 97  1  0  0  0
  7  8  2  0  0  0
  7 26  1  0  0  0
  7 29  1  0  0  0
  8  9  1  0  0  0
  8 22  1  0  0  0
  9 10  1  0  0  0
  9 27  2  0  0  0
 10 11  2  0  0  0
 10 15  1  0  0  0
 11 12  1  0  0  0
 11 98  1  0  0  0
 12 13  2  0  0  0
 12 99  1  0  0  0
 13 14  1  0  0  0
 13 31  1  0  0  0
 14 15  2  0  0  0
 14100  1  0  0  0
 15101  1  0  0  0
 16 17  2  0  0  0
 16 21  1  0  0  0
 16 31  1  0  0  0
 17 18  1  0  0  0
 17102  1  0  0  0
 18 19  2  0  0  0
 18103  1  0  0  0
 19 20  1  0  0  0
 19 24  1  0  0  0
 20 21  2  0  0  0
 20104  1  0  0  0
 21 23  1  0  0  0
 22 28  1  0  0  0
 22 32  2  0  0  0
 26 27  1  0  0  0
 28105  1  0  0  0
 28106  1  0  0  0
 29107  1  0  0  0
 29108  1  0  0  0
 33 34  1  0  0  0
 33 66  1  0  0  0
 33 70  2  0  0  0
 34 36  1  0  0  0
 34 59  1  0  0  0
 34109  1  0  0  0
 35 44  2  0  0  0
 35 45  1  0  0  0
 35 68  1  0  0  0
 36 56  1  0  0  0
 36110  1  0  0  0
 37 39  1  0  0  0
 37 47  1  0  0  0
 37 66  1  0  0  0
 37111  1  0  0  0
 38 43  2  0  0  0
 38 46  1  0  0  0
 38 47  1  0  0  0
 39 64  1  0  0  0
 39 67  2  0  0  0
 40 52  1  0  0  0
 40 53  2  0  0  0
 40 58  1  0  0  0
 41112  1  0  0  0
 41113  1  0  0  0
 41114  1  0  0  0
 41 48  1  0  0  0
 42 43  1  0  0  0
 42 66  1  0  0  0
 42115  1  0  0  0
 42116  1  0  0  0
 43 44  1  0  0  0
 44117  1  0  0  0
 45 46  2  0  0  0
 45118  1  0  0  0
 46119  1  0  0  0
 47120  1  0  0  0
 47121  1  0  0  0
 48 56  1  0  0  0
 48 65  1  0  0  0
 48122  1  0  0  0
 49 50  1  0  0  0
 49 53  1  0  0  0
 49 64  1  0  0  0
 49123  1  0  0  0
 50 51  1  0  0  0
 50124  1  0  0  0
 50125  1  0  0  0
 51 52  1  0  0  0
 51126  1  0  0  0
 51127  1  0  0  0
 52128  1  0  0  0
 52129  1  0  0  0
 53 54  1  0  0  0
 54 55  2  0  0  0
 54130  1  0  0  0
 55 57  1  0  0  0
 55131  1  0  0  0
 56 69  2  0  0  0
 57 58  2  0  0  0
 57132  1  0  0  0
 58133  1  0  0  0
 59 60  1  0  0  0
 59 61  1  0  0  0
 59 62  1  0  0  0
 60134  1  0  0  0
 60135  1  0  0  0
 60136  1  0  0  0
 61137  1  0  0  0
 61138  1  0  0  0
 61139  1  0  0  0
 62140  1  0  0  0
 62141  1  0  0  0
 62142  1  0  0  0
 63 65  1  0  0  0
 63143  1  0  0  0
 63144  1  0  0  0
 63145  1  0  0  0
 64146  1  0  0  0
 65147  1  0  0  0
 68 84  1  0  0  0
 71 72  2  0  0  0
 71 75  1  0  0  0
 71148  1  0  0  0
 72 76  1  0  0  0
 72 78  1  0  0  0
 73 74  1  0  0  0
 73 75  2  0  0  0
 73 79  1  0  0  0
 74 76  2  0  0  0
 74 81  1  0  0  0
 75 86  1  0  0  0
 76 88  1  0  0  0
 77 82  1  0  0  0
 77 86  2  0  0  0
 77149  1  0  0  0
 78150  1  0  0  0
 78151  1  0  0  0
 78152  1  0  0  0
 79153  1  0  0  0
 79154  1  0  0  0
 79155  1  0  0  0
 80156  1  0  0  0
 80157  1  0  0  0
 80158  1  0  0  0
 80 85  1  0  0  0
 81 87  1  0  0  0
 81159  1  0  0  0
 81160  1  0  0  0
 82161  1  0  0  0
 82162  1  0  0  0
 83 84  1  0  0  0
 83 85  1  0  0  0
 83163  1  0  0  0
 83164  1  0  0  0
 84165  1  0  0  0
 84166  1  0  0  0
 85 87  1  0  0  0
 85167  1  0  0  0
 87168  1  0  0  0
 87169  1  0  0  0
M  CHG  1  87   1
M  ISO  4   1 100  68 101  82 100  84 101
M  END
> <chiral flag>
0

> <version>
0

> <s_m_source_file>
/data/baiqing/PycharmProjects/Reinvent-master-3.2/result/LINK_invent/BTK/process_docking_weight1_custom_sum_contain_oxygen_bond_distance_aromatic_linkinvent_7_9_3/rearranged_h_0017.sdf

> <i_m_source_file_index>
2

> <r_mmod_Potential_Energy-OPLS-2005>
-244.516342163086

> <r_mmod_Stretch_Energy-OPLS-2005>
35.0711479187012

> <r_mmod_Bend_Energy-OPLS-2005>
100.413017272949

> <r_mmod_Torsional_Energy-OPLS-2005>
196.240280151367

> <r_mmod_Improper_Torsional_Energy-OPLS-2005>
2.14521479606628

> <r_mmod_Van_der_Waal_Energy-OPLS-2005>
168.175765991211

> <r_mmod_Electrostatic_Energy-OPLS-2005>
-336.158264160156

> <r_mmod_Solvation_Energy-OPLS-2005>
-419.520812988281

> <b_mmod_Minimization_Converged-OPLS-2005>
0

> <r_mmod_RMS_Derivative-OPLS-2005>
4.60170650482178

$$$$
2
                    3D
 Structure written by MMmdl.
162170  0  0  1  0            999 V2000
  -30.6427  -14.7001   20.5865 C   0  0  0  0  0  0
  -30.4303  -12.4513   19.4655 C   0  0  0  0  0  0
  -29.5176  -12.5670   18.2228 C   0  0  0  0  0  0
  -28.0319  -12.3927   18.6029 C   0  0  0  0  0  0
  -27.6490  -13.2279   19.8530 C   0  0  2  0  0  0
  -28.6864  -13.0319   20.9743 C   0  0  0  0  0  0
  -25.2542  -13.8203   20.5635 C   0  0  0  0  0  0
  -24.1824  -13.0446   20.9169 C   0  0  0  0  0  0
  -24.6392  -11.6923   20.8685 C   0  0  0  0  0  0
  -23.9039  -10.4319   21.0354 C   0  0  0  0  0  0
  -24.3603   -9.4264   21.9152 C   0  0  0  0  0  0
  -23.6297   -8.2287   22.0732 C   0  0  0  0  0  0
  -22.4280   -8.0302   21.3532 C   0  0  0  0  0  0
  -21.9897   -9.0264   20.4624 C   0  0  0  0  0  0
  -22.7196  -10.2151   20.3016 C   0  0  0  0  0  0
  -21.6877   -6.0743   22.5280 C   0  0  0  0  0  0
  -21.4017   -6.5635   23.8215 C   0  0  0  0  0  0
  -21.3670   -5.6779   24.9179 C   0  0  0  0  0  0
  -21.6057   -4.3051   24.7212 C   0  0  0  0  0  0
  -21.8816   -3.8146   23.4334 C   0  0  0  0  0  0
  -21.9205   -4.6971   22.3407 C   0  0  0  0  0  0
  -22.7856  -13.5238   21.1862 C   0  0  0  0  0  0
  -22.1679   -4.2167   21.0980 F   0  0  0  0  0  0
  -21.5637   -3.4532   25.7718 F   0  0  0  0  0  0
  -29.9935  -13.4761   20.4562 N   0  0  0  0  0  0
  -26.2955  -12.9386   20.3185 N   0  0  0  0  0  0
  -25.9316  -11.6530   20.5625 N   0  0  0  0  0  0
  -22.0479  -12.8241   22.0417 N   0  0  0  0  0  0
  -25.4219  -15.1924   20.4033 N   0  0  0  0  0  0
  -31.7380  -14.8041   20.0182 O   0  0  0  0  0  0
  -21.6664   -6.8881   21.4238 O   0  0  0  0  0  0
  -22.3539  -14.5552   20.6713 O   0  0  0  0  0  0
  -24.6340  -31.8613   23.2008 C   0  0  0  0  0  0
  -25.9178  -32.4798   23.8346 C   0  0  1  0  0  0
  -27.2083  -27.2779   20.1249 C   0  0  0  0  0  0
  -25.6053  -33.8600   24.2350 N   0  0  0  0  0  0
  -23.4282  -30.4860   21.5440 C   0  0  2  0  0  0
  -24.8732  -28.9387   20.1094 C   0  0  0  0  0  0
  -22.7508  -29.4647   22.4904 C   0  0  0  0  0  0
  -18.0318  -28.1343   22.8450 C   0  0  0  0  0  0
  -24.1511  -36.7267   23.2636 C   0  0  0  0  0  0
  -25.9725  -30.7752   21.3795 C   0  0  0  0  0  0
  -26.0415  -29.3992   20.7261 C   0  0  0  0  0  0
  -27.2138  -28.5778   20.7304 C   0  0  0  0  0  0
  -26.0212  -26.8925   19.4618 C   0  0  0  0  0  0
  -24.8670  -27.6942   19.4686 C   0  0  0  0  0  0
  -23.6425  -29.8217   20.1597 C   0  0  0  0  0  0
  -25.4135  -36.3103   24.0343 C   0  0  1  0  0  0
  -20.5922  -28.3699   23.1214 C   0  0  2  0  0  0
  -20.6847  -26.9423   22.5353 C   0  0  0  0  0  0
  -19.5826  -26.6355   21.5178 C   0  0  0  0  0  0
  -18.1988  -26.7885   22.1576 C   0  0  0  0  0  0
  -19.1575  -28.8824   23.2826 C   0  0  0  0  0  0
  -18.9488  -30.1415   23.8840 C   0  0  0  0  0  0
  -17.6498  -30.6544   24.0534 C   0  0  0  0  0  0
  -25.9085  -34.9461   23.5131 C   0  0  0  0  0  0
  -16.5380  -29.9030   23.6355 C   0  0  0  0  0  0
  -16.7306  -28.6438   23.0375 C   0  0  0  0  0  0
  -26.4577  -31.6553   25.0671 C   0  0  0  0  0  0
  -25.3797  -31.3594   26.1378 C   0  0  0  0  0  0
  -27.0465  -30.3016   24.6060 C   0  0  0  0  0  0
  -27.6174  -32.4236   25.7427 C   0  0  0  0  0  0
  -27.5592  -37.1795   24.8489 C   0  0  0  0  0  0
  -21.4211  -29.3071   22.3596 N   0  0  0  0  0  0
  -26.4323  -37.3799   23.9405 N   0  0  0  0  0  0
  -24.6973  -31.0590   22.0984 N   0  0  0  0  0  0
  -23.4209  -28.8181   23.3004 O   0  0  0  0  0  0
  -28.2937  -26.3763   20.1917 O   0  0  0  0  0  0
  -26.5559  -34.8911   22.4639 O   0  0  0  0  0  0
  -23.5491  -32.1422   23.7321 O   0  0  0  0  0  0
  -30.3290  -18.7393   21.2703 C   0  0  0  0  0  0
  -29.9263  -17.4324   20.7804 C   0  0  0  0  0  0
  -29.5686  -19.7300   20.6677 C   0  0  0  0  0  0
  -28.9937  -15.7961   22.3930 C   0  0  0  0  0  0
  -31.3958  -16.2075   22.4292 C   0  0  0  0  0  0
  -27.8473  -19.4849   18.7597 C   0  0  0  0  0  0
  -29.8804  -21.5005   22.3392 C   0  0  0  0  0  0
  -29.0421  -23.7720   20.4789 C   0  0  0  0  0  0
  -28.6343  -22.2083   20.3097 C   0  0  0  0  0  0
  -28.0004  -24.9132   20.0413 C   0  0  0  0  0  0
  -30.2001  -16.0080   21.4604 C   0  0  0  0  0  0
  -29.0231  -17.6467   19.8184 N   0  0  0  0  0  0
  -28.8167  -19.0102   19.7336 N   0  0  0  0  0  0
  -29.5096  -21.1599   20.9651 N   0  0  0  0  0  0
  -31.4779  -12.5571   19.1755 H   0  0  0  0  0  0
  -30.3612  -11.4451   19.8865 H   0  0  0  0  0  0
  -29.8015  -11.8334   17.4680 H   0  0  0  0  0  0
  -29.6664  -13.5455   17.7629 H   0  0  0  0  0  0
  -27.8528  -11.3337   18.7904 H   0  0  0  0  0  0
  -27.4013  -12.6646   17.7550 H   0  0  0  0  0  0
  -27.6748  -14.2765   19.5532 H   0  0  0  0  0  0
  -28.7332  -11.9745   21.2374 H   0  0  0  0  0  0
  -28.3645  -13.4877   21.8984 H   0  0  0  0  0  0
  -25.2736   -9.5806   22.4730 H   0  0  0  0  0  0
  -24.0052   -7.4690   22.7435 H   0  0  0  0  0  0
  -21.0842   -8.8725   19.8928 H   0  0  0  0  0  0
  -22.3596  -10.9680   19.6146 H   0  0  0  0  0  0
  -21.1987   -7.6138   23.9723 H   0  0  0  0  0  0
  -21.1505   -6.0509   25.9087 H   0  0  0  0  0  0
  -22.0583   -2.7608   23.2818 H   0  0  0  0  0  0
  -22.4047  -11.9931   22.4897 H   0  0  0  0  0  0
  -21.1074  -13.1284   22.2497 H   0  0  0  0  0  0
  -24.6475  -15.8391   20.4950 H   0  0  0  0  0  0
  -26.2692  -15.6402   20.0751 H   0  0  0  0  0  0
  -26.7211  -32.5449   23.1044 H   0  0  0  0  0  0
  -25.0529  -33.9782   25.0725 H   0  0  0  0  0  0
  -22.7241  -31.3085   21.3989 H   0  0  0  0  0  0
  -23.3828  -35.9554   23.3312 H   0  0  0  0  0  0
  -24.3607  -36.8856   22.2054 H   0  0  0  0  0  0
  -23.7191  -37.6436   23.6635 H   0  0  0  0  0  0
  -26.1120  -31.5298   20.6050 H   0  0  0  0  0  0
  -26.8528  -30.8254   22.0062 H   0  0  0  0  0  0
  -28.1018  -28.9199   21.2426 H   0  0  0  0  0  0
  -25.9477  -25.9511   18.9347 H   0  0  0  0  0  0
  -23.9745  -27.3370   18.9749 H   0  0  0  0  0  0
  -23.7648  -30.5981   19.4053 H   0  0  0  0  0  0
  -22.7627  -29.2540   19.8522 H   0  0  0  0  0  0
  -25.1304  -36.2007   25.0835 H   0  0  0  0  0  0
  -20.9998  -28.3276   24.1351 H   0  0  0  0  0  0
  -20.5811  -26.2290   23.3539 H   0  0  0  0  0  0
  -21.6702  -26.7500   22.1114 H   0  0  0  0  0  0
  -19.7016  -25.6271   21.1218 H   0  0  0  0  0  0
  -19.6762  -27.3147   20.6701 H   0  0  0  0  0  0
  -17.4280  -26.6619   21.3955 H   0  0  0  0  0  0
  -18.0371  -25.9979   22.8931 H   0  0  0  0  0  0
  -19.7974  -30.7222   24.2159 H   0  0  0  0  0  0
  -17.5087  -31.6232   24.5124 H   0  0  0  0  0  0
  -15.5393  -30.2928   23.7707 H   0  0  0  0  0  0
  -15.8705  -28.0738   22.7161 H   0  0  0  0  0  0
  -24.6063  -30.6873   25.7647 H   0  0  0  0  0  0
  -24.8874  -32.2693   26.4810 H   0  0  0  0  0  0
  -25.8120  -30.8757   27.0139 H   0  0  0  0  0  0
  -26.2988  -29.6625   24.1356 H   0  0  0  0  0  0
  -27.4552  -29.7391   25.4461 H   0  0  0  0  0  0
  -27.8671  -30.4392   23.9011 H   0  0  0  0  0  0
  -27.2908  -33.3581   26.1973 H   0  0  0  0  0  0
  -28.3980  -32.6694   25.0220 H   0  0  0  0  0  0
  -28.0831  -31.8340   26.5327 H   0  0  0  0  0  0
  -28.2651  -38.0080   24.7587 H   0  0  0  0  0  0
  -28.1043  -36.2604   24.6286 H   0  0  0  0  0  0
  -27.2263  -37.1379   25.8883 H   0  0  0  0  0  0
  -20.9394  -29.8721   21.6723 H   0  0  0  0  0  0
  -26.0223  -38.2874   24.1405 H   0  0  0  0  0  0
  -31.0269  -18.9280   22.0714 H   0  0  0  0  0  0
  -28.8178  -16.6918   22.9915 H   0  0  0  0  0  0
  -29.1640  -14.9876   23.1060 H   0  0  0  0  0  0
  -28.0744  -15.6331   21.8337 H   0  0  0  0  0  0
  -32.2735  -16.5797   21.9012 H   0  0  0  0  0  0
  -31.6834  -15.2768   22.9207 H   0  0  0  0  0  0
  -31.1660  -16.9166   23.2241 H   0  0  0  0  0  0
  -28.3575  -20.0222   17.9600 H   0  0  0  0  0  0
  -27.1259  -20.1521   19.2303 H   0  0  0  0  0  0
  -27.2996  -18.6495   18.3237 H   0  0  0  0  0  0
  -30.8682  -21.9611   22.3643 H   0  0  0  0  0  0
  -29.9013  -20.6327   22.9990 H   0  0  0  0  0  0
  -29.1659  -22.1901   22.7927 H   0  0  0  0  0  0
  -29.9770  -23.9411   19.9437 H   0  0  0  0  0  0
  -29.2666  -23.9782   21.5224 H   0  0  0  0  0  0
  -28.5572  -21.9995   19.2443 H   0  0  0  0  0  0
  -27.6305  -22.0737   20.7177 H   0  0  0  0  0  0
  -27.0930  -24.7067   20.6091 H   0  0  0  0  0  0
  -27.7538  -24.7322   18.9955 H   0  0  0  0  0  0
  1 25  1  0  0  0
  1 30  2  0  0  0
  1 81  1  0  0  0
  2  3  1  0  0  0
  2 25  1  0  0  0
  2 85  1  0  0  0
  2 86  1  0  0  0
  3  4  1  0  0  0
  3 87  1  0  0  0
  3 88  1  0  0  0
  4  5  1  0  0  0
  4 89  1  0  0  0
  4 90  1  0  0  0
  5  6  1  0  0  0
  5 26  1  0  0  0
  5 91  1  0  0  0
  6 25  1  0  0  0
  6 92  1  0  0  0
  6 93  1  0  0  0
  7  8  2  0  0  0
  7 26  1  0  0  0
  7 29  1  0  0  0
  8  9  1  0  0  0
  8 22  1  0  0  0
  9 10  1  0  0  0
  9 27  2  0  0  0
 10 11  2  0  0  0
 10 15  1  0  0  0
 11 12  1  0  0  0
 11 94  1  0  0  0
 12 13  2  0  0  0
 12 95  1  0  0  0
 13 14  1  0  0  0
 13 31  1  0  0  0
 14 15  2  0  0  0
 14 96  1  0  0  0
 15 97  1  0  0  0
 16 17  2  0  0  0
 16 21  1  0  0  0
 16 31  1  0  0  0
 17 18  1  0  0  0
 17 98  1  0  0  0
 18 19  2  0  0  0
 18 99  1  0  0  0
 19 20  1  0  0  0
 19 24  1  0  0  0
 20 21  2  0  0  0
 20100  1  0  0  0
 21 23  1  0  0  0
 22 28  1  0  0  0
 22 32  2  0  0  0
 26 27  1  0  0  0
 28101  1  0  0  0
 28102  1  0  0  0
 29103  1  0  0  0
 29104  1  0  0  0
 33 34  1  0  0  0
 33 66  1  0  0  0
 33 70  2  0  0  0
 34 36  1  0  0  0
 34 59  1  0  0  0
 34105  1  0  0  0
 35 44  2  0  0  0
 35 45  1  0  0  0
 35 68  1  0  0  0
 36 56  1  0  0  0
 36106  1  0  0  0
 37 39  1  0  0  0
 37 47  1  0  0  0
 37 66  1  0  0  0
 37107  1  0  0  0
 38 43  2  0  0  0
 38 46  1  0  0  0
 38 47  1  0  0  0
 39 64  1  0  0  0
 39 67  2  0  0  0
 40 52  1  0  0  0
 40 53  2  0  0  0
 40 58  1  0  0  0
 41108  1  0  0  0
 41109  1  0  0  0
 41110  1  0  0  0
 41 48  1  0  0  0
 42 43  1  0  0  0
 42 66  1  0  0  0
 42111  1  0  0  0
 42112  1  0  0  0
 43 44  1  0  0  0
 44113  1  0  0  0
 45 46  2  0  0  0
 45114  1  0  0  0
 46115  1  0  0  0
 47116  1  0  0  0
 47117  1  0  0  0
 48 56  1  0  0  0
 48 65  1  0  0  0
 48118  1  0  0  0
 49 50  1  0  0  0
 49 53  1  0  0  0
 49 64  1  0  0  0
 49119  1  0  0  0
 50 51  1  0  0  0
 50120  1  0  0  0
 50121  1  0  0  0
 51 52  1  0  0  0
 51122  1  0  0  0
 51123  1  0  0  0
 52124  1  0  0  0
 52125  1  0  0  0
 53 54  1  0  0  0
 54 55  2  0  0  0
 54126  1  0  0  0
 55 57  1  0  0  0
 55127  1  0  0  0
 56 69  2  0  0  0
 57 58  2  0  0  0
 57128  1  0  0  0
 58129  1  0  0  0
 59 60  1  0  0  0
 59 61  1  0  0  0
 59 62  1  0  0  0
 60130  1  0  0  0
 60131  1  0  0  0
 60132  1  0  0  0
 61133  1  0  0  0
 61134  1  0  0  0
 61135  1  0  0  0
 62136  1  0  0  0
 62137  1  0  0  0
 62138  1  0  0  0
 63 65  1  0  0  0
 63139  1  0  0  0
 63140  1  0  0  0
 63141  1  0  0  0
 64142  1  0  0  0
 65143  1  0  0  0
 68 80  1  0  0  0
 71 72  1  0  0  0
 71 73  2  0  0  0
 71144  1  0  0  0
 72 81  1  0  0  0
 72 82  2  0  0  0
 73 83  1  0  0  0
 73 84  1  0  0  0
 74145  1  0  0  0
 74146  1  0  0  0
 74147  1  0  0  0
 74 81  1  0  0  0
 75 81  1  0  0  0
 75148  1  0  0  0
 75149  1  0  0  0
 75150  1  0  0  0
 76 83  1  0  0  0
 76151  1  0  0  0
 76152  1  0  0  0
 76153  1  0  0  0
 77 84  1  0  0  0
 77154  1  0  0  0
 77155  1  0  0  0
 77156  1  0  0  0
 78 79  1  0  0  0
 78 80  1  0  0  0
 78157  1  0  0  0
 78158  1  0  0  0
 79 84  1  0  0  0
 79159  1  0  0  0
 79160  1  0  0  0
 80161  1  0  0  0
 80162  1  0  0  0
 82 83  1  0  0  0
M  ISO  4   1 100  68 101  80 101  81 100
M  END
> <chiral flag>
0

> <version>
0

> <s_m_source_file>
/data/baiqing/PycharmProjects/Reinvent-master-3.2/result/LINK_invent/BTK/process_docking_weight1_custom_sum_contain_oxygen_bond_distance_aromatic_linkinvent_7_9_3/rearranged_h_0017.sdf

> <i_m_source_file_index>
3

> <r_mmod_Potential_Energy-OPLS-2005>
231.933166503906

> <r_mmod_Stretch_Energy-OPLS-2005>
127.850639343262

> <r_mmod_Bend_Energy-OPLS-2005>
214.884063720703

> <r_mmod_Torsional_Energy-OPLS-2005>
192.061630249023

> <r_mmod_Improper_Torsional_Energy-OPLS-2005>
5.98193979263306

> <r_mmod_Van_der_Waal_Energy-OPLS-2005>
144.840545654297

> <r_mmod_Electrostatic_Energy-OPLS-2005>
-307.608917236328

> <r_mmod_Solvation_Energy-OPLS-2005>
-213.083160400391

> <b_mmod_Minimization_Converged-OPLS-2005>
0

> <r_mmod_RMS_Derivative-OPLS-2005>
4.86339616775513

$$$$
3
                    3D
 Structure written by MMmdl.
155163  0  0  1  0            999 V2000
  -30.5287  -15.0056   20.3723 C   0  0  0  0  0  0
  -30.4398  -12.6201   19.5060 C   0  0  0  0  0  0
  -29.5278  -12.5431   18.2595 C   0  0  0  0  0  0
  -28.0609  -12.3210   18.6739 C   0  0  0  0  0  0
  -27.6256  -13.2586   19.8309 C   0  0  2  0  0  0
  -28.6691  -13.3138   20.9679 C   0  0  0  0  0  0
  -25.2435  -13.8242   20.5709 C   0  0  0  0  0  0
  -24.1766  -13.0449   20.9241 C   0  0  0  0  0  0
  -24.6405  -11.6934   20.8759 C   0  0  0  0  0  0
  -23.9094  -10.4297   21.0412 C   0  0  0  0  0  0
  -24.3642   -9.4208   21.9182 C   0  0  0  0  0  0
  -23.6310   -8.2247   22.0748 C   0  0  0  0  0  0
  -22.4293   -8.0290   21.3540 C   0  0  0  0  0  0
  -21.9937   -9.0265   20.4654 C   0  0  0  0  0  0
  -22.7269  -10.2137   20.3058 C   0  0  0  0  0  0
  -21.6855   -6.0744   22.5286 C   0  0  0  0  0  0
  -21.4019   -6.5642   23.8223 C   0  0  0  0  0  0
  -21.3662   -5.6787   24.9181 C   0  0  0  0  0  0
  -21.6045   -4.3050   24.7225 C   0  0  0  0  0  0
  -21.8810   -3.8150   23.4341 C   0  0  0  0  0  0
  -21.9187   -4.6969   22.3401 C   0  0  0  0  0  0
  -22.7781  -13.5215   21.1879 C   0  0  0  0  0  0
  -22.1648   -4.2159   21.0976 F   0  0  0  0  0  0
  -21.5633   -3.4525   25.7731 F   0  0  0  0  0  0
  -29.9393  -13.7353   20.3648 N   0  0  0  0  0  0
  -26.2875  -12.9496   20.3222 N   0  0  0  0  0  0
  -25.9347  -11.6610   20.5739 N   0  0  0  0  0  0
  -22.0404  -12.8229   22.0438 N   0  0  0  0  0  0
  -25.4066  -15.1977   20.4125 N   0  0  0  0  0  0
  -31.7474  -15.0232   20.1586 O   0  0  0  0  0  0
  -21.6643   -6.8895   21.4251 O   0  0  0  0  0  0
  -22.3460  -14.5502   20.6695 O   0  0  0  0  0  0
  -24.6463  -31.8411   23.1859 C   0  0  0  0  0  0
  -25.9216  -32.4678   23.8261 C   0  0  1  0  0  0
  -27.2164  -27.1033   20.1693 C   0  0  0  0  0  0
  -25.5953  -33.8491   24.2173 N   0  0  0  0  0  0
  -23.4507  -30.4588   21.5318 C   0  0  2  0  0  0
  -24.9018  -28.8762   20.1173 C   0  0  0  0  0  0
  -22.7569  -29.4531   22.4852 C   0  0  0  0  0  0
  -18.0303  -28.1382   22.8484 C   0  0  0  0  0  0
  -24.1493  -36.7251   23.2640 C   0  0  0  0  0  0
  -26.0094  -30.7053   21.3901 C   0  0  0  0  0  0
  -26.0810  -29.3125   20.7363 C   0  0  0  0  0  0
  -27.2406  -28.4439   20.7406 C   0  0  0  0  0  0
  -26.0146  -26.7786   19.5056 C   0  0  0  0  0  0
  -24.8827  -27.6237   19.4858 C   0  0  0  0  0  0
  -23.6812  -29.7840   20.1535 C   0  0  0  0  0  0
  -25.4123  -36.3027   24.0312 C   0  0  1  0  0  0
  -20.5914  -28.3722   23.1228 C   0  0  2  0  0  0
  -20.6790  -26.9423   22.5402 C   0  0  0  0  0  0
  -19.5766  -26.6369   21.5214 C   0  0  0  0  0  0
  -18.1946  -26.7918   22.1625 C   0  0  0  0  0  0
  -19.1558  -28.8870   23.2846 C   0  0  0  0  0  0
  -18.9474  -30.1462   23.8874 C   0  0  0  0  0  0
  -17.6472  -30.6585   24.0553 C   0  0  0  0  0  0
  -25.9077  -34.9402   23.5055 C   0  0  0  0  0  0
  -16.5364  -29.9077   23.6332 C   0  0  0  0  0  0
  -16.7287  -28.6488   23.0372 C   0  0  0  0  0  0
  -26.4528  -31.6554   25.0717 C   0  0  0  0  0  0
  -25.3696  -31.3776   26.1402 C   0  0  0  0  0  0
  -27.0388  -30.2936   24.6336 C   0  0  0  0  0  0
  -27.6055  -32.4319   25.7515 C   0  0  0  0  0  0
  -27.5576  -37.1781   24.8460 C   0  0  0  0  0  0
  -21.4257  -29.3046   22.3597 N   0  0  0  0  0  0
  -26.4289  -37.3738   23.9405 N   0  0  0  0  0  0
  -24.7218  -31.0243   22.0905 N   0  0  0  0  0  0
  -23.4199  -28.8091   23.3022 O   0  0  0  0  0  0
  -28.2673  -26.1055   20.1947 O   0  0  0  0  0  0
  -26.5673  -34.8907   22.4642 O   0  0  0  0  0  0
  -23.5569  -32.1303   23.7057 O   0  0  0  0  0  0
  -30.1461  -20.3550   18.8422 C   0  0  0  0  0  0
  -30.7159  -19.2455   18.1931 C   0  0  0  0  0  0
  -30.5326  -17.9213   18.6922 C   0  0  0  0  0  0
  -29.3814  -20.2032   19.9996 C   0  0  0  0  0  0
  -29.8744  -17.6830   19.9449 C   0  0  0  0  0  0
  -31.4988  -19.5236   16.9168 C   0  0  0  0  0  0
  -30.9954  -16.7707   17.7958 C   0  0  0  0  0  0
  -28.6367  -21.5774   20.5742 C   0  0  0  0  0  0
  -28.8930  -23.1902   20.0553 C   0  0  0  0  0  0
  -28.0039  -24.5802   20.4945 C   0  0  0  0  0  0
  -29.2854  -18.8668   20.5202 N   0  0  0  0  0  0
  -29.7452  -16.2123   20.4419 N   0  0  0  0  0  0
  -31.4754  -12.7704   19.1991 H   0  0  0  0  0  0
  -30.4277  -11.6761   20.0534 H   0  0  0  0  0  0
  -29.8596  -11.7462   17.5936 H   0  0  0  0  0  0
  -29.6082  -13.4708   17.6918 H   0  0  0  0  0  0
  -27.9643  -11.2815   18.9893 H   0  0  0  0  0  0
  -27.4010  -12.4423   17.8138 H   0  0  0  0  0  0
  -27.5783  -14.2554   19.3902 H   0  0  0  0  0  0
  -28.7657  -12.3446   21.4598 H   0  0  0  0  0  0
  -28.3632  -14.0242   21.7363 H   0  0  0  0  0  0
  -25.2784   -9.5677   22.4758 H   0  0  0  0  0  0
  -24.0005   -7.4638   22.7475 H   0  0  0  0  0  0
  -21.0856   -8.8808   19.8970 H   0  0  0  0  0  0
  -22.3741  -10.9677   19.6163 H   0  0  0  0  0  0
  -21.2017   -7.6146   23.9738 H   0  0  0  0  0  0
  -21.1497   -6.0510   25.9088 H   0  0  0  0  0  0
  -22.0588   -2.7611   23.2836 H   0  0  0  0  0  0
  -22.4000  -11.9920   22.4899 H   0  0  0  0  0  0
  -21.1020  -13.1286   22.2593 H   0  0  0  0  0  0
  -24.6284  -15.8412   20.5139 H   0  0  0  0  0  0
  -26.2440  -15.6440   20.0623 H   0  0  0  0  0  0
  -26.7289  -32.5287   23.0993 H   0  0  0  0  0  0
  -25.0068  -33.9603   25.0298 H   0  0  0  0  0  0
  -22.7552  -31.2853   21.3725 H   0  0  0  0  0  0
  -23.3763  -35.9573   23.3279 H   0  0  0  0  0  0
  -24.3572  -36.8909   22.2058 H   0  0  0  0  0  0
  -23.7244  -37.6441   23.6692 H   0  0  0  0  0  0
  -26.1681  -31.4565   20.6155 H   0  0  0  0  0  0
  -26.8774  -30.7584   22.0355 H   0  0  0  0  0  0
  -28.1415  -28.7762   21.2381 H   0  0  0  0  0  0
  -25.9313  -25.8281   18.9996 H   0  0  0  0  0  0
  -23.9851  -27.2842   18.9869 H   0  0  0  0  0  0
  -23.8244  -30.5553   19.3957 H   0  0  0  0  0  0
  -22.7959  -29.2269   19.8423 H   0  0  0  0  0  0
  -25.1314  -36.1850   25.0805 H   0  0  0  0  0  0
  -21.0010  -28.3318   24.1348 H   0  0  0  0  0  0
  -20.5678  -26.2344   23.3626 H   0  0  0  0  0  0
  -21.6658  -26.7424   22.1205 H   0  0  0  0  0  0
  -19.6932  -25.6271   21.1269 H   0  0  0  0  0  0
  -19.6698  -27.3157   20.6725 H   0  0  0  0  0  0
  -17.4215  -26.6662   21.4027 H   0  0  0  0  0  0
  -18.0346  -26.0051   22.9014 H   0  0  0  0  0  0
  -19.7951  -30.7278   24.2236 H   0  0  0  0  0  0
  -17.5029  -31.6266   24.5154 H   0  0  0  0  0  0
  -15.5366  -30.2984   23.7650 H   0  0  0  0  0  0
  -15.8686  -28.0791   22.7124 H   0  0  0  0  0  0
  -24.5876  -30.7122   25.7721 H   0  0  0  0  0  0
  -24.8883  -32.2974   26.4742 H   0  0  0  0  0  0
  -25.7952  -30.9003   27.0237 H   0  0  0  0  0  0
  -26.3010  -29.6659   24.1325 H   0  0  0  0  0  0
  -27.3948  -29.7248   25.4936 H   0  0  0  0  0  0
  -27.8947  -30.4141   23.9691 H   0  0  0  0  0  0
  -27.2647  -33.3643   26.2030 H   0  0  0  0  0  0
  -28.3912  -32.6836   25.0380 H   0  0  0  0  0  0
  -28.0671  -31.8480   26.5490 H   0  0  0  0  0  0
  -28.2579  -38.0092   24.7515 H   0  0  0  0  0  0
  -28.1086  -36.2620   24.6272 H   0  0  0  0  0  0
  -27.2294  -37.1418   25.8864 H   0  0  0  0  0  0
  -20.9467  -29.8747   21.6767 H   0  0  0  0  0  0
  -26.0152  -38.2809   24.1401 H   0  0  0  0  0  0
  -30.2635  -21.3412   18.4124 H   0  0  0  0  0  0
  -31.8082  -20.5683   16.8584 H   0  0  0  0  0  0
  -30.8879  -19.3117   16.0397 H   0  0  0  0  0  0
  -32.4044  -18.9192   16.8620 H   0  0  0  0  0  0
  -32.0102  -16.4611   18.0466 H   0  0  0  0  0  0
  -30.9892  -17.0339   16.7390 H   0  0  0  0  0  0
  -30.3255  -15.9152   17.8561 H   0  0  0  0  0  0
  -28.7795  -21.5636   21.6548 H   0  0  0  0  0  0
  -27.5720  -21.3845   20.4401 H   0  0  0  0  0  0
  -28.8554  -23.1626   18.9668 H   0  0  0  0  0  0
  -29.9359  -23.4083   20.2829 H   0  0  0  0  0  0
  -27.9828  -24.5540   21.5845 H   0  0  0  0  0  0
  -26.9745  -24.3623   20.2164 H   0  0  0  0  0  0
  -28.8304  -16.0261   20.8211 H   0  0  0  0  0  0
  1 25  1  0  0  0
  1 30  2  0  0  0
  1 82  1  0  0  0
  2  3  1  0  0  0
  2 25  1  0  0  0
  2 83  1  0  0  0
  2 84  1  0  0  0
  3  4  1  0  0  0
  3 85  1  0  0  0
  3 86  1  0  0  0
  4  5  1  0  0  0
  4 87  1  0  0  0
  4 88  1  0  0  0
  5  6  1  0  0  0
  5 26  1  0  0  0
  5 89  1  0  0  0
  6 25  1  0  0  0
  6 90  1  0  0  0
  6 91  1  0  0  0
  7  8  2  0  0  0
  7 26  1  0  0  0
  7 29  1  0  0  0
  8  9  1  0  0  0
  8 22  1  0  0  0
  9 10  1  0  0  0
  9 27  2  0  0  0
 10 11  2  0  0  0
 10 15  1  0  0  0
 11 12  1  0  0  0
 11 92  1  0  0  0
 12 13  2  0  0  0
 12 93  1  0  0  0
 13 14  1  0  0  0
 13 31  1  0  0  0
 14 15  2  0  0  0
 14 94  1  0  0  0
 15 95  1  0  0  0
 16 17  2  0  0  0
 16 21  1  0  0  0
 16 31  1  0  0  0
 17 18  1  0  0  0
 17 96  1  0  0  0
 18 19  2  0  0  0
 18 97  1  0  0  0
 19 20  1  0  0  0
 19 24  1  0  0  0
 20 21  2  0  0  0
 20 98  1  0  0  0
 21 23  1  0  0  0
 22 28  1  0  0  0
 22 32  2  0  0  0
 26 27  1  0  0  0
 28 99  1  0  0  0
 28100  1  0  0  0
 29101  1  0  0  0
 29102  1  0  0  0
 33 34  1  0  0  0
 33 66  1  0  0  0
 33 70  2  0  0  0
 34 36  1  0  0  0
 34 59  1  0  0  0
 34103  1  0  0  0
 35 44  2  0  0  0
 35 45  1  0  0  0
 35 68  1  0  0  0
 36 56  1  0  0  0
 36104  1  0  0  0
 37 39  1  0  0  0
 37 47  1  0  0  0
 37 66  1  0  0  0
 37105  1  0  0  0
 38 43  2  0  0  0
 38 46  1  0  0  0
 38 47  1  0  0  0
 39 64  1  0  0  0
 39 67  2  0  0  0
 40 52  1  0  0  0
 40 53  2  0  0  0
 40 58  1  0  0  0
 41106  1  0  0  0
 41107  1  0  0  0
 41108  1  0  0  0
 41 48  1  0  0  0
 42 43  1  0  0  0
 42 66  1  0  0  0
 42109  1  0  0  0
 42110  1  0  0  0
 43 44  1  0  0  0
 44111  1  0  0  0
 45 46  2  0  0  0
 45112  1  0  0  0
 46113  1  0  0  0
 47114  1  0  0  0
 47115  1  0  0  0
 48 56  1  0  0  0
 48 65  1  0  0  0
 48116  1  0  0  0
 49 50  1  0  0  0
 49 53  1  0  0  0
 49 64  1  0  0  0
 49117  1  0  0  0
 50 51  1  0  0  0
 50118  1  0  0  0
 50119  1  0  0  0
 51 52  1  0  0  0
 51120  1  0  0  0
 51121  1  0  0  0
 52122  1  0  0  0
 52123  1  0  0  0
 53 54  1  0  0  0
 54 55  2  0  0  0
 54124  1  0  0  0
 55 57  1  0  0  0
 55125  1  0  0  0
 56 69  2  0  0  0
 57 58  2  0  0  0
 57126  1  0  0  0
 58127  1  0  0  0
 59 60  1  0  0  0
 59 61  1  0  0  0
 59 62  1  0  0  0
 60128  1  0  0  0
 60129  1  0  0  0
 60130  1  0  0  0
 61131  1  0  0  0
 61132  1  0  0  0
 61133  1  0  0  0
 62134  1  0  0  0
 62135  1  0  0  0
 62136  1  0  0  0
 63 65  1  0  0  0
 63137  1  0  0  0
 63138  1  0  0  0
 63139  1  0  0  0
 64140  1  0  0  0
 65141  1  0  0  0
 68 80  1  0  0  0
 71 72  2  0  0  0
 71 74  1  0  0  0
 71142  1  0  0  0
 72 73  1  0  0  0
 72 76  1  0  0  0
 73 75  2  0  0  0
 73 77  1  0  0  0
 74 78  1  0  0  0
 74 81  2  0  0  0
 75 81  1  0  0  0
 75 82  1  0  0  0
 76143  1  0  0  0
 76144  1  0  0  0
 76145  1  0  0  0
 77146  1  0  0  0
 77147  1  0  0  0
 77148  1  0  0  0
 78 79  1  0  0  0
 78149  1  0  0  0
 78150  1  0  0  0
 79 80  1  0  0  0
 79151  1  0  0  0
 79152  1  0  0  0
 80153  1  0  0  0
 80154  1  0  0  0
 82155  1  0  0  0
M  ISO  4   1 100  68 101  80 101  82 100
M  END
> <chiral flag>
0

> <version>
0

> <s_m_source_file>
/data/baiqing/PycharmProjects/Reinvent-master-3.2/result/LINK_invent/BTK/process_docking_weight1_custom_sum_contain_oxygen_bond_distance_aromatic_linkinvent_7_9_3/rearranged_h_0017.sdf

> <i_m_source_file_index>
4

> <r_mmod_Potential_Energy-OPLS-2005>
437.361694335938

> <r_mmod_Stretch_Energy-OPLS-2005>
314.868133544922

> <r_mmod_Bend_Energy-OPLS-2005>
276.762084960938

> <r_mmod_Torsional_Energy-OPLS-2005>
244.360870361328

> <r_mmod_Improper_Torsional_Energy-OPLS-2005>
4.62132406234741

> <r_mmod_Van_der_Waal_Energy-OPLS-2005>
140.973495483398

> <r_mmod_Electrostatic_Energy-OPLS-2005>
-546.940856933594

> <r_mmod_Solvation_Energy-OPLS-2005>
-223.448669433594

> <b_mmod_Minimization_Converged-OPLS-2005>
0

> <r_mmod_RMS_Derivative-OPLS-2005>
2.07882690429688

$$$$
4
                    3D
 Structure written by MMmdl.
159167  0  0  1  0            999 V2000
  -30.5077  -14.9570   20.4168 C   0  0  0  0  0  0
  -30.4425  -12.5607   19.5662 C   0  0  0  0  0  0
  -29.5413  -12.4354   18.3115 C   0  0  0  0  0  0
  -28.0642  -12.2629   18.7048 C   0  0  0  0  0  0
  -27.6295  -13.2223   19.8403 C   0  0  2  0  0  0
  -28.6555  -13.2692   20.9928 C   0  0  0  0  0  0
  -25.2494  -13.8103   20.5702 C   0  0  0  0  0  0
  -24.1746  -13.0372   20.9142 C   0  0  0  0  0  0
  -24.6307  -11.6847   20.8732 C   0  0  0  0  0  0
  -23.8992  -10.4274   21.0447 C   0  0  0  0  0  0
  -24.3605   -9.4218   21.9240 C   0  0  0  0  0  0
  -23.6291   -8.2240   22.0792 C   0  0  0  0  0  0
  -22.4259   -8.0249   21.3575 C   0  0  0  0  0  0
  -21.9901   -9.0187   20.4647 C   0  0  0  0  0  0
  -22.7171  -10.2102   20.3066 C   0  0  0  0  0  0
  -21.6848   -6.0697   22.5294 C   0  0  0  0  0  0
  -21.4005   -6.5630   23.8207 C   0  0  0  0  0  0
  -21.3642   -5.6804   24.9189 C   0  0  0  0  0  0
  -21.6044   -4.3044   24.7250 C   0  0  0  0  0  0
  -21.8786   -3.8125   23.4359 C   0  0  0  0  0  0
  -21.9161   -4.6930   22.3407 C   0  0  0  0  0  0
  -22.7793  -13.5177   21.1891 C   0  0  0  0  0  0
  -22.1635   -4.2118   21.0977 F   0  0  0  0  0  0
  -21.5694   -3.4522   25.7774 F   0  0  0  0  0  0
  -29.9414  -13.6798   20.4192 N   0  0  0  0  0  0
  -26.2847  -12.9290   20.3212 N   0  0  0  0  0  0
  -25.9243  -11.6463   20.5759 N   0  0  0  0  0  0
  -22.0472  -12.8182   22.0488 N   0  0  0  0  0  0
  -25.4344  -15.1848   20.4264 N   0  0  0  0  0  0
  -31.6918  -15.0351   20.0685 O   0  0  0  0  0  0
  -21.6604   -6.8844   21.4271 O   0  0  0  0  0  0
  -22.3492  -14.5507   20.6763 O   0  0  0  0  0  0
  -24.6552  -31.8405   23.1854 C   0  0  0  0  0  0
  -25.9323  -32.4610   23.8290 C   0  0  1  0  0  0
  -27.1887  -27.0892   20.1397 C   0  0  0  0  0  0
  -25.6110  -33.8441   24.2256 N   0  0  0  0  0  0
  -23.4537  -30.4609   21.5381 C   0  0  2  0  0  0
  -24.8905  -28.8740   20.1168 C   0  0  0  0  0  0
  -22.7587  -29.4556   22.4947 C   0  0  0  0  0  0
  -18.0347  -28.1370   22.8574 C   0  0  0  0  0  0
  -24.1495  -36.7209   23.2619 C   0  0  0  0  0  0
  -26.0123  -30.6931   21.3844 C   0  0  0  0  0  0
  -26.0730  -29.2974   20.7330 C   0  0  0  0  0  0
  -27.2261  -28.4216   20.7252 C   0  0  0  0  0  0
  -25.9768  -26.7670   19.4912 C   0  0  0  0  0  0
  -24.8523  -27.6237   19.4823 C   0  0  0  0  0  0
  -23.6773  -29.7885   20.1586 C   0  0  0  0  0  0
  -25.4105  -36.2984   24.0312 C   0  0  1  0  0  0
  -20.5903  -28.3802   23.1384 C   0  0  2  0  0  0
  -20.6848  -26.9426   22.5695 C   0  0  0  0  0  0
  -19.5888  -26.6339   21.5453 C   0  0  0  0  0  0
  -18.2067  -26.7825   22.1879 C   0  0  0  0  0  0
  -19.1548  -28.8933   23.2890 C   0  0  0  0  0  0
  -18.9398  -30.1607   23.8773 C   0  0  0  0  0  0
  -17.6373  -30.6716   24.0359 C   0  0  0  0  0  0
  -25.9090  -34.9335   23.5070 C   0  0  0  0  0  0
  -16.5308  -29.9057   23.6274 C   0  0  0  0  0  0
  -16.7321  -28.6427   23.0434 C   0  0  0  0  0  0
  -26.4497  -31.6431   25.0750 C   0  0  0  0  0  0
  -25.3570  -31.3712   26.1370 C   0  0  0  0  0  0
  -27.0264  -30.2798   24.6293 C   0  0  0  0  0  0
  -27.6025  -32.4060   25.7675 C   0  0  0  0  0  0
  -27.5555  -37.1765   24.8458 C   0  0  0  0  0  0
  -21.4282  -29.3144   22.3760 N   0  0  0  0  0  0
  -26.4273  -37.3682   23.9385 N   0  0  0  0  0  0
  -24.7279  -31.0196   22.0920 N   0  0  0  0  0  0
  -23.4256  -28.8073   23.3044 O   0  0  0  0  0  0
  -28.2347  -26.0913   20.1264 O   0  0  0  0  0  0
  -26.5586  -34.8828   22.4599 O   0  0  0  0  0  0
  -23.5662  -32.1331   23.7005 O   0  0  0  0  0  0
  -29.1561  -18.6927   17.8850 C   0  0  0  0  0  0
  -28.8308  -19.9240   18.4863 C   0  0  0  0  0  0
  -28.9213  -20.1082   19.8909 C   0  0  0  0  0  0
  -29.2725  -18.8405   20.6215 C   0  0  0  0  0  0
  -29.5637  -17.5013   20.0066 C   0  0  0  0  0  0
  -29.5025  -17.5245   18.5887 C   0  0  0  0  0  0
  -28.3084  -20.9976   17.5540 C   0  0  0  0  0  0
  -29.3346  -18.9330   22.1342 C   0  0  0  0  0  0
  -28.4212  -24.6188   22.0195 C   0  0  0  0  0  0
  -28.4989  -21.5878   20.5420 C   0  0  0  0  0  0
  -28.6488  -23.1631   19.8951 C   0  0  0  0  0  0
  -28.0037  -24.5949   20.5458 C   0  0  1  0  0  0
  -29.7372  -16.1267   20.6965 N   0  0  0  0  0  0
  -29.7342  -16.1164   17.6121 Cl  0  0  0  0  0  0
  -31.4782  -12.7050   19.2603 H   0  0  0  0  0  0
  -30.4423  -11.6293   20.1359 H   0  0  0  0  0  0
  -29.8643  -11.5746   17.7217 H   0  0  0  0  0  0
  -29.6537  -13.3057   17.6679 H   0  0  0  0  0  0
  -27.9478  -11.2296   19.0353 H   0  0  0  0  0  0
  -27.4146  -12.3754   17.8321 H   0  0  0  0  0  0
  -27.5972  -14.2119   19.3874 H   0  0  0  0  0  0
  -28.7418  -12.3039   21.4934 H   0  0  0  0  0  0
  -28.3262  -13.9780   21.7493 H   0  0  0  0  0  0
  -25.2772   -9.5661   22.4771 H   0  0  0  0  0  0
  -23.9961   -7.4625   22.7520 H   0  0  0  0  0  0
  -21.0841   -8.8605   19.8986 H   0  0  0  0  0  0
  -22.3579  -10.9598   19.6114 H   0  0  0  0  0  0
  -21.2006   -7.6131   23.9653 H   0  0  0  0  0  0
  -21.1535   -6.0594   25.9083 H   0  0  0  0  0  0
  -22.0599   -2.7586   23.2866 H   0  0  0  0  0  0
  -22.4087  -11.9767   22.4757 H   0  0  0  0  0  0
  -21.1080  -13.1205   22.2742 H   0  0  0  0  0  0
  -24.6877  -15.8519   20.5851 H   0  0  0  0  0  0
  -26.3034  -15.6143   20.1418 H   0  0  0  0  0  0
  -26.7416  -32.5193   23.1051 H   0  0  0  0  0  0
  -25.0415  -33.9523   25.0528 H   0  0  0  0  0  0
  -22.7583  -31.2861   21.3807 H   0  0  0  0  0  0
  -23.3739  -35.9571   23.3265 H   0  0  0  0  0  0
  -24.3614  -36.8848   22.2051 H   0  0  0  0  0  0
  -23.7304  -37.6423   23.6652 H   0  0  0  0  0  0
  -26.1573  -31.4285   20.5958 H   0  0  0  0  0  0
  -26.8922  -30.7603   22.0129 H   0  0  0  0  0  0
  -28.1385  -28.7319   21.2156 H   0  0  0  0  0  0
  -25.8673  -25.8110   18.9988 H   0  0  0  0  0  0
  -23.9438  -27.2986   18.9924 H   0  0  0  0  0  0
  -23.8288  -30.5639   19.4055 H   0  0  0  0  0  0
  -22.7832  -29.2454   19.8505 H   0  0  0  0  0  0
  -25.1306  -36.1782   25.0807 H   0  0  0  0  0  0
  -20.9921  -28.3513   24.1541 H   0  0  0  0  0  0
  -20.5704  -26.2428   23.3982 H   0  0  0  0  0  0
  -21.6781  -26.7398   22.1609 H   0  0  0  0  0  0
  -19.7210  -25.6265   21.1532 H   0  0  0  0  0  0
  -19.6760  -27.3173   20.7010 H   0  0  0  0  0  0
  -17.4347  -26.6312   21.4303 H   0  0  0  0  0  0
  -18.0658  -26.0134   22.9482 H   0  0  0  0  0  0
  -19.7839  -30.7597   24.1935 H   0  0  0  0  0  0
  -17.4715  -31.6463   24.4728 H   0  0  0  0  0  0
  -15.5272  -30.2892   23.7583 H   0  0  0  0  0  0
  -15.8710  -28.0671   22.7286 H   0  0  0  0  0  0
  -24.5722  -30.7102   25.7630 H   0  0  0  0  0  0
  -24.8757  -32.2925   26.4681 H   0  0  0  0  0  0
  -25.7685  -30.8908   27.0262 H   0  0  0  0  0  0
  -26.2777  -29.6501   24.1474 H   0  0  0  0  0  0
  -27.4029  -29.7115   25.4818 H   0  0  0  0  0  0
  -27.8624  -30.3935   23.9387 H   0  0  0  0  0  0
  -27.2632  -33.3340   26.2286 H   0  0  0  0  0  0
  -28.3979  -32.6613   25.0657 H   0  0  0  0  0  0
  -28.0491  -31.8096   26.5653 H   0  0  0  0  0  0
  -28.2582  -38.0050   24.7468 H   0  0  0  0  0  0
  -28.1058  -36.2590   24.6331 H   0  0  0  0  0  0
  -27.2255  -37.1435   25.8857 H   0  0  0  0  0  0
  -20.9463  -29.8919   21.6991 H   0  0  0  0  0  0
  -26.0124  -38.2737   24.1373 H   0  0  0  0  0  0
  -29.0811  -18.6146   16.8109 H   0  0  0  0  0  0
  -28.1493  -20.6105   16.5475 H   0  0  0  0  0  0
  -27.3427  -21.3631   17.9032 H   0  0  0  0  0  0
  -29.0140  -21.8218   17.4635 H   0  0  0  0  0  0
  -30.2066  -19.5212   22.4248 H   0  0  0  0  0  0
  -29.4246  -17.9540   22.6047 H   0  0  0  0  0  0
  -28.4410  -19.4177   22.5302 H   0  0  0  0  0  0
  -28.1911  -23.6806   22.5234 H   0  0  0  0  0  0
  -27.9209  -25.4225   22.5533 H   0  0  0  0  0  0
  -29.4976  -24.7793   22.1109 H   0  0  0  0  0  0
  -28.9517  -21.6107   21.5297 H   0  0  0  0  0  0
  -27.4360  -21.4716   20.7412 H   0  0  0  0  0  0
  -29.7145  -23.3181   19.7355 H   0  0  0  0  0  0
  -28.2162  -23.1564   18.9005 H   0  0  0  0  0  0
  -26.9240  -24.4449   20.5267 H   0  0  0  0  0  0
  -28.9850  -15.9258   21.3381 H   0  0  0  0  0  0
  1 25  1  0  0  0
  1 30  2  0  0  0
  1 83  1  0  0  0
  2  3  1  0  0  0
  2 25  1  0  0  0
  2 85  1  0  0  0
  2 86  1  0  0  0
  3  4  1  0  0  0
  3 87  1  0  0  0
  3 88  1  0  0  0
  4  5  1  0  0  0
  4 89  1  0  0  0
  4 90  1  0  0  0
  5  6  1  0  0  0
  5 26  1  0  0  0
  5 91  1  0  0  0
  6 25  1  0  0  0
  6 92  1  0  0  0
  6 93  1  0  0  0
  7  8  2  0  0  0
  7 26  1  0  0  0
  7 29  1  0  0  0
  8  9  1  0  0  0
  8 22  1  0  0  0
  9 10  1  0  0  0
  9 27  2  0  0  0
 10 11  2  0  0  0
 10 15  1  0  0  0
 11 12  1  0  0  0
 11 94  1  0  0  0
 12 13  2  0  0  0
 12 95  1  0  0  0
 13 14  1  0  0  0
 13 31  1  0  0  0
 14 15  2  0  0  0
 14 96  1  0  0  0
 15 97  1  0  0  0
 16 17  2  0  0  0
 16 21  1  0  0  0
 16 31  1  0  0  0
 17 18  1  0  0  0
 17 98  1  0  0  0
 18 19  2  0  0  0
 18 99  1  0  0  0
 19 20  1  0  0  0
 19 24  1  0  0  0
 20 21  2  0  0  0
 20100  1  0  0  0
 21 23  1  0  0  0
 22 28  1  0  0  0
 22 32  2  0  0  0
 26 27  1  0  0  0
 28101  1  0  0  0
 28102  1  0  0  0
 29103  1  0  0  0
 29104  1  0  0  0
 33 34  1  0  0  0
 33 66  1  0  0  0
 33 70  2  0  0  0
 34 36  1  0  0  0
 34 59  1  0  0  0
 34105  1  0  0  0
 35 44  2  0  0  0
 35 45  1  0  0  0
 35 68  1  0  0  0
 36 56  1  0  0  0
 36106  1  0  0  0
 37 39  1  0  0  0
 37 47  1  0  0  0
 37 66  1  0  0  0
 37107  1  0  0  0
 38 43  2  0  0  0
 38 46  1  0  0  0
 38 47  1  0  0  0
 39 64  1  0  0  0
 39 67  2  0  0  0
 40 52  1  0  0  0
 40 53  2  0  0  0
 40 58  1  0  0  0
 41108  1  0  0  0
 41109  1  0  0  0
 41110  1  0  0  0
 41 48  1  0  0  0
 42 43  1  0  0  0
 42 66  1  0  0  0
 42111  1  0  0  0
 42112  1  0  0  0
 43 44  1  0  0  0
 44113  1  0  0  0
 45 46  2  0  0  0
 45114  1  0  0  0
 46115  1  0  0  0
 47116  1  0  0  0
 47117  1  0  0  0
 48 56  1  0  0  0
 48 65  1  0  0  0
 48118  1  0  0  0
 49 50  1  0  0  0
 49 53  1  0  0  0
 49 64  1  0  0  0
 49119  1  0  0  0
 50 51  1  0  0  0
 50120  1  0  0  0
 50121  1  0  0  0
 51 52  1  0  0  0
 51122  1  0  0  0
 51123  1  0  0  0
 52124  1  0  0  0
 52125  1  0  0  0
 53 54  1  0  0  0
 54 55  2  0  0  0
 54126  1  0  0  0
 55 57  1  0  0  0
 55127  1  0  0  0
 56 69  2  0  0  0
 57 58  2  0  0  0
 57128  1  0  0  0
 58129  1  0  0  0
 59 60  1  0  0  0
 59 61  1  0  0  0
 59 62  1  0  0  0
 60130  1  0  0  0
 60131  1  0  0  0
 60132  1  0  0  0
 61133  1  0  0  0
 61134  1  0  0  0
 61135  1  0  0  0
 62136  1  0  0  0
 62137  1  0  0  0
 62138  1  0  0  0
 63 65  1  0  0  0
 63139  1  0  0  0
 63140  1  0  0  0
 63141  1  0  0  0
 64142  1  0  0  0
 65143  1  0  0  0
 68 82  1  0  0  0
 71 72  2  0  0  0
 71 76  1  0  0  0
 71144  1  0  0  0
 72 73  1  0  0  0
 72 77  1  0  0  0
 73 74  2  0  0  0
 73 80  1  0  0  0
 74 75  1  0  0  0
 74 78  1  0  0  0
 75 76  2  0  0  0
 75 83  1  0  0  0
 76 84  1  0  0  0
 77145  1  0  0  0
 77146  1  0  0  0
 77147  1  0  0  0
 78148  1  0  0  0
 78149  1  0  0  0
 78150  1  0  0  0
 79151  1  0  0  0
 79152  1  0  0  0
 79153  1  0  0  0
 79 82  1  0  0  0
 80 81  1  0  0  0
 80154  1  0  0  0
 80155  1  0  0  0
 81 82  1  0  0  0
 81156  1  0  0  0
 81157  1  0  0  0
 82158  1  0  0  0
 83159  1  0  0  0
M  ISO  4   1 100  68 101  82 101  83 100
M  END
> <chiral flag>
0

> <version>
0

> <s_m_source_file>
/data/baiqing/PycharmProjects/Reinvent-master-3.2/result/LINK_invent/BTK/process_docking_weight1_custom_sum_contain_oxygen_bond_distance_aromatic_linkinvent_7_9_3/rearranged_h_0017.sdf

> <i_m_source_file_index>
5

> <r_mmod_Potential_Energy-OPLS-2005>
566.434326171875

> <r_mmod_Stretch_Energy-OPLS-2005>
296.7109375

> <r_mmod_Bend_Energy-OPLS-2005>
273.378662109375

> <r_mmod_Torsional_Energy-OPLS-2005>
260.878540039062

> <r_mmod_Improper_Torsional_Energy-OPLS-2005>
4.534836769104

> <r_mmod_Van_der_Waal_Energy-OPLS-2005>
135.303649902344

> <r_mmod_Electrostatic_Energy-OPLS-2005>
-418.772766113281

> <r_mmod_Solvation_Energy-OPLS-2005>
-203.501251220703

> <b_mmod_Minimization_Converged-OPLS-2005>
0

> <r_mmod_RMS_Derivative-OPLS-2005>
7.4284839630127

$$$$
5
                    3D
 Structure written by MMmdl.
147155  0  0  1  0            999 V2000
  -30.2617  -15.7705   20.3202 C   0  0  0  0  0  0
  -30.4125  -13.1837   19.5368 C   0  0  0  0  0  0
  -29.5526  -12.6880   18.3354 C   0  0  0  0  0  0
  -28.1387  -12.3009   18.7893 C   0  0  0  0  0  0
  -27.5905  -13.3215   19.8096 C   0  0  2  0  0  0
  -28.5986  -13.7181   20.9178 C   0  0  0  0  0  0
  -25.2303  -13.8303   20.5824 C   0  0  0  0  0  0
  -24.1706  -13.0435   20.9303 C   0  0  0  0  0  0
  -24.6427  -11.6953   20.8766 C   0  0  0  0  0  0
  -23.9133  -10.4294   21.0395 C   0  0  0  0  0  0
  -24.3664   -9.4205   21.9176 C   0  0  0  0  0  0
  -23.6320   -8.2249   22.0751 C   0  0  0  0  0  0
  -22.4298   -8.0292   21.3547 C   0  0  0  0  0  0
  -21.9950   -9.0268   20.4643 C   0  0  0  0  0  0
  -22.7299  -10.2137   20.3047 C   0  0  0  0  0  0
  -21.6862   -6.0746   22.5279 C   0  0  0  0  0  0
  -21.4018   -6.5646   23.8214 C   0  0  0  0  0  0
  -21.3656   -5.6797   24.9174 C   0  0  0  0  0  0
  -21.6043   -4.3060   24.7224 C   0  0  0  0  0  0
  -21.8819   -3.8154   23.4346 C   0  0  0  0  0  0
  -21.9196   -4.6971   22.3401 C   0  0  0  0  0  0
  -22.7714  -13.5154   21.1931 C   0  0  0  0  0  0
  -22.1664   -4.2158   21.0979 F   0  0  0  0  0  0
  -21.5624   -3.4541   25.7734 F   0  0  0  0  0  0
  -29.7487  -14.3827   20.2486 N   0  0  0  0  0  0
  -26.2766  -12.9662   20.3258 N   0  0  0  0  0  0
  -25.9377  -11.6717   20.5697 N   0  0  0  0  0  0
  -22.0385  -12.8123   22.0481 N   0  0  0  0  0  0
  -25.3873  -15.2046   20.4269 N   0  0  0  0  0  0
  -31.4978  -15.6590   20.1860 O   0  0  0  0  0  0
  -21.6650   -6.8894   21.4243 O   0  0  0  0  0  0
  -22.3384  -14.5452   20.6767 O   0  0  0  0  0  0
  -24.6935  -31.7888   23.1424 C   0  0  0  0  0  0
  -25.9467  -32.4412   23.8011 C   0  0  1  0  0  0
  -27.2305  -26.6028   20.2254 C   0  0  0  0  0  0
  -25.6007  -33.8241   24.1895 N   0  0  0  0  0  0
  -23.5242  -30.3862   21.4986 C   0  0  2  0  0  0
  -24.9826  -28.7054   20.1208 C   0  0  0  0  0  0
  -22.7810  -29.4263   22.4681 C   0  0  0  0  0  0
  -18.0346  -28.1436   22.8455 C   0  0  0  0  0  0
  -24.1485  -36.7117   23.2659 C   0  0  0  0  0  0
  -26.1093  -30.4886   21.4221 C   0  0  0  0  0  0
  -26.1737  -29.0424   20.7743 C   0  0  0  0  0  0
  -27.2776  -28.0222   20.7906 C   0  0  0  0  0  0
  -26.0054  -26.5009   19.5115 C   0  0  0  0  0  0
  -24.9439  -27.4619   19.4648 C   0  0  0  0  0  0
  -23.7833  -29.6730   20.1387 C   0  0  0  0  0  0
  -25.4145  -36.2861   24.0276 C   0  0  1  0  0  0
  -20.5987  -28.3800   23.1123 C   0  0  2  0  0  0
  -20.6806  -26.9450   22.5406 C   0  0  0  0  0  0
  -19.5780  -26.6377   21.5221 C   0  0  0  0  0  0
  -18.1964  -26.7965   22.1621 C   0  0  0  0  0  0
  -19.1616  -28.8945   23.2767 C   0  0  0  0  0  0
  -18.9521  -30.1525   23.8819 C   0  0  0  0  0  0
  -17.6510  -30.6617   24.0554 C   0  0  0  0  0  0
  -25.9132  -34.9255   23.4928 C   0  0  0  0  0  0
  -16.5397  -29.9100   23.6359 C   0  0  0  0  0  0
  -16.7325  -28.6520   23.0378 C   0  0  0  0  0  0
  -26.4614  -31.6485   25.0673 C   0  0  0  0  0  0
  -25.3648  -31.3835   26.1264 C   0  0  0  0  0  0
  -27.0565  -30.2813   24.6646 C   0  0  0  0  0  0
  -27.6046  -32.4368   25.7496 C   0  0  0  0  0  0
  -27.5546  -37.1728   24.8480 C   0  0  0  0  0  0
  -21.4449  -29.3026   22.3429 N   0  0  0  0  0  0
  -26.4265  -37.3631   23.9403 N   0  0  0  0  0  0
  -24.8003  -30.9237   22.0730 N   0  0  0  0  0  0
  -23.4207  -28.7887   23.3076 O   0  0  0  0  0  0
  -28.1793  -25.3376   20.2993 O   0  0  0  0  0  0
  -26.5785  -34.8854   22.4554 O   0  0  0  0  0  0
  -23.5933  -32.1011   23.6313 O   0  0  0  0  0  0
  -31.1959  -20.8967   20.7838 C   0  0  0  0  0  0
  -30.3157  -22.0189   20.6272 C   0  0  0  0  0  0
  -28.9348  -21.8991   20.3277 C   0  0  0  0  0  0
  -29.6289  -18.9422   20.3801 C   0  0  0  0  0  0
  -30.9095  -19.4945   20.6820 C   0  0  0  0  0  0
  -28.6835  -20.2765   20.2240 C   0  0  0  0  0  0
  -30.9023  -23.4099   20.8024 C   0  0  0  0  0  0
  -27.9646  -23.5448   20.1691 C   0  0  0  0  0  0
  -29.4999  -17.1736   20.3270 N   0  0  0  0  0  0
  -32.2545  -18.4599   20.9949 Cl  0  0  0  0  0  0
  -27.0416  -19.8801   19.8719 Cl  0  0  0  0  0  0
  -31.3944  -13.4627   19.1532 H   0  0  0  0  0  0
  -30.6081  -12.3679   20.2349 H   0  0  0  0  0  0
  -30.0349  -11.8440   17.8405 H   0  0  0  0  0  0
  -29.4879  -13.4840   17.5920 H   0  0  0  0  0  0
  -28.1942  -11.3164   19.2559 H   0  0  0  0  0  0
  -27.4693  -12.2019   17.9339 H   0  0  0  0  0  0
  -27.4321  -14.2221   19.2141 H   0  0  0  0  0  0
  -28.8922  -12.8625   21.5281 H   0  0  0  0  0  0
  -28.1378  -14.4339   21.6002 H   0  0  0  0  0  0
  -25.2802   -9.5676   22.4763 H   0  0  0  0  0  0
  -24.0019   -7.4640   22.7477 H   0  0  0  0  0  0
  -21.0880   -8.8802   19.8949 H   0  0  0  0  0  0
  -22.3761  -10.9681   19.6158 H   0  0  0  0  0  0
  -21.2013   -7.6155   23.9721 H   0  0  0  0  0  0
  -21.1473   -6.0525   25.9077 H   0  0  0  0  0  0
  -22.0599   -2.7616   23.2843 H   0  0  0  0  0  0
  -22.4034  -11.9800   22.4873 H   0  0  0  0  0  0
  -21.0987  -13.1104   22.2675 H   0  0  0  0  0  0
  -24.6139  -15.8505   20.5428 H   0  0  0  0  0  0
  -26.2256  -15.6501   20.0798 H   0  0  0  0  0  0
  -26.7559  -32.4860   23.0728 H   0  0  0  0  0  0
  -25.0057  -33.9262   24.9986 H   0  0  0  0  0  0
  -22.8553  -31.2263   21.2996 H   0  0  0  0  0  0
  -23.3760  -35.9435   23.3306 H   0  0  0  0  0  0
  -24.3535  -36.8797   22.2075 H   0  0  0  0  0  0
  -23.7237  -37.6289   23.6750 H   0  0  0  0  0  0
  -26.3239  -31.2066   20.6295 H   0  0  0  0  0  0
  -26.9560  -30.5597   22.0922 H   0  0  0  0  0  0
  -28.1706  -28.2902   21.3369 H   0  0  0  0  0  0
  -25.8229  -25.5653   19.0021 H   0  0  0  0  0  0
  -24.0478  -27.1937   18.9222 H   0  0  0  0  0  0
  -23.9665  -30.4284   19.3735 H   0  0  0  0  0  0
  -22.8859  -29.1444   19.8122 H   0  0  0  0  0  0
  -25.1364  -36.1612   25.0768 H   0  0  0  0  0  0
  -21.0069  -28.3434   24.1249 H   0  0  0  0  0  0
  -20.5662  -26.2430   23.3680 H   0  0  0  0  0  0
  -21.6667  -26.7380   22.1228 H   0  0  0  0  0  0
  -19.6935  -25.6267   21.1302 H   0  0  0  0  0  0
  -19.6725  -27.3146   20.6720 H   0  0  0  0  0  0
  -17.4234  -26.6712   21.4024 H   0  0  0  0  0  0
  -18.0345  -26.0131   22.9037 H   0  0  0  0  0  0
  -19.7997  -30.7363   24.2151 H   0  0  0  0  0  0
  -17.5063  -31.6288   24.5174 H   0  0  0  0  0  0
  -15.5397  -30.2980   23.7733 H   0  0  0  0  0  0
  -15.8723  -28.0814   22.7146 H   0  0  0  0  0  0
  -24.5862  -30.7158   25.7556 H   0  0  0  0  0  0
  -24.8808  -32.3069   26.4455 H   0  0  0  0  0  0
  -25.7798  -30.9146   27.0193 H   0  0  0  0  0  0
  -26.3305  -29.6393   24.1650 H   0  0  0  0  0  0
  -27.3968  -29.7303   25.5422 H   0  0  0  0  0  0
  -27.9293  -30.3922   24.0210 H   0  0  0  0  0  0
  -27.2579  -33.3759   26.1823 H   0  0  0  0  0  0
  -28.3986  -32.6788   25.0416 H   0  0  0  0  0  0
  -28.0568  -31.8660   26.5616 H   0  0  0  0  0  0
  -28.2574  -38.0010   24.7476 H   0  0  0  0  0  0
  -28.1029  -36.2532   24.6378 H   0  0  0  0  0  0
  -27.2252  -37.1449   25.8881 H   0  0  0  0  0  0
  -20.9781  -29.8644   21.6448 H   0  0  0  0  0  0
  -26.0082  -38.2679   24.1396 H   0  0  0  0  0  0
  -32.2244  -21.1290   21.0219 H   0  0  0  0  0  0
  -31.9699  -23.3796   21.0222 H   0  0  0  0  0  0
  -30.4131  -23.9316   21.6257 H   0  0  0  0  0  0
  -30.7695  -24.0001   19.8949 H   0  0  0  0  0  0
  -27.1274  -23.3707   20.8449 H   0  0  0  0  0  0
  -27.5173  -23.4432   19.1803 H   0  0  0  0  0  0
  -28.5196  -16.9383   20.2929 H   0  0  0  0  0  0
  1 25  1  0  0  0
  1 30  2  0  0  0
  1 79  1  0  0  0
  2  3  1  0  0  0
  2 25  1  0  0  0
  2 82  1  0  0  0
  2 83  1  0  0  0
  3  4  1  0  0  0
  3 84  1  0  0  0
  3 85  1  0  0  0
  4  5  1  0  0  0
  4 86  1  0  0  0
  4 87  1  0  0  0
  5  6  1  0  0  0
  5 26  1  0  0  0
  5 88  1  0  0  0
  6 25  1  0  0  0
  6 89  1  0  0  0
  6 90  1  0  0  0
  7  8  2  0  0  0
  7 26  1  0  0  0
  7 29  1  0  0  0
  8  9  1  0  0  0
  8 22  1  0  0  0
  9 10  1  0  0  0
  9 27  2  0  0  0
 10 11  2  0  0  0
 10 15  1  0  0  0
 11 12  1  0  0  0
 11 91  1  0  0  0
 12 13  2  0  0  0
 12 92  1  0  0  0
 13 14  1  0  0  0
 13 31  1  0  0  0
 14 15  2  0  0  0
 14 93  1  0  0  0
 15 94  1  0  0  0
 16 17  2  0  0  0
 16 21  1  0  0  0
 16 31  1  0  0  0
 17 18  1  0  0  0
 17 95  1  0  0  0
 18 19  2  0  0  0
 18 96  1  0  0  0
 19 20  1  0  0  0
 19 24  1  0  0  0
 20 21  2  0  0  0
 20 97  1  0  0  0
 21 23  1  0  0  0
 22 28  1  0  0  0
 22 32  2  0  0  0
 26 27  1  0  0  0
 28 98  1  0  0  0
 28 99  1  0  0  0
 29100  1  0  0  0
 29101  1  0  0  0
 33 34  1  0  0  0
 33 66  1  0  0  0
 33 70  2  0  0  0
 34 36  1  0  0  0
 34 59  1  0  0  0
 34102  1  0  0  0
 35 44  2  0  0  0
 35 45  1  0  0  0
 35 68  1  0  0  0
 36 56  1  0  0  0
 36103  1  0  0  0
 37 39  1  0  0  0
 37 47  1  0  0  0
 37 66  1  0  0  0
 37104  1  0  0  0
 38 43  2  0  0  0
 38 46  1  0  0  0
 38 47  1  0  0  0
 39 64  1  0  0  0
 39 67  2  0  0  0
 40 52  1  0  0  0
 40 53  2  0  0  0
 40 58  1  0  0  0
 41105  1  0  0  0
 41106  1  0  0  0
 41107  1  0  0  0
 41 48  1  0  0  0
 42 43  1  0  0  0
 42 66  1  0  0  0
 42108  1  0  0  0
 42109  1  0  0  0
 43 44  1  0  0  0
 44110  1  0  0  0
 45 46  2  0  0  0
 45111  1  0  0  0
 46112  1  0  0  0
 47113  1  0  0  0
 47114  1  0  0  0
 48 56  1  0  0  0
 48 65  1  0  0  0
 48115  1  0  0  0
 49 50  1  0  0  0
 49 53  1  0  0  0
 49 64  1  0  0  0
 49116  1  0  0  0
 50 51  1  0  0  0
 50117  1  0  0  0
 50118  1  0  0  0
 51 52  1  0  0  0
 51119  1  0  0  0
 51120  1  0  0  0
 52121  1  0  0  0
 52122  1  0  0  0
 53 54  1  0  0  0
 54 55  2  0  0  0
 54123  1  0  0  0
 55 57  1  0  0  0
 55124  1  0  0  0
 56 69  2  0  0  0
 57 58  2  0  0  0
 57125  1  0  0  0
 58126  1  0  0  0
 59 60  1  0  0  0
 59 61  1  0  0  0
 59 62  1  0  0  0
 60127  1  0  0  0
 60128  1  0  0  0
 60129  1  0  0  0
 61130  1  0  0  0
 61131  1  0  0  0
 61132  1  0  0  0
 62133  1  0  0  0
 62134  1  0  0  0
 62135  1  0  0  0
 63 65  1  0  0  0
 63136  1  0  0  0
 63137  1  0  0  0
 63138  1  0  0  0
 64139  1  0  0  0
 65140  1  0  0  0
 68 78  1  0  0  0
 71 72  2  0  0  0
 71 75  1  0  0  0
 71141  1  0  0  0
 72 73  1  0  0  0
 72 77  1  0  0  0
 73 76  2  0  0  0
 73 78  1  0  0  0
 74 75  2  0  0  0
 74 76  1  0  0  0
 74 79  1  0  0  0
 75 80  1  0  0  0
 76 81  1  0  0  0
 77142  1  0  0  0
 77143  1  0  0  0
 77144  1  0  0  0
 78145  1  0  0  0
 78146  1  0  0  0
 79147  1  0  0  0
M  ISO  4   1 100  68 101  78 101  79 100
M  END
> <chiral flag>
0

> <version>
0

> <s_m_source_file>
/data/baiqing/PycharmProjects/Reinvent-master-3.2/result/LINK_invent/BTK/process_docking_weight1_custom_sum_contain_oxygen_bond_distance_aromatic_linkinvent_7_9_3/rearranged_h_0017.sdf

> <i_m_source_file_index>
6

> <r_mmod_Potential_Energy-OPLS-2005>
2797.55078125

> <r_mmod_Stretch_Energy-OPLS-2005>
1274.02966308594

> <r_mmod_Bend_Energy-OPLS-2005>
642.465393066406

> <r_mmod_Torsional_Energy-OPLS-2005>
223.142623901367

> <r_mmod_Improper_Torsional_Energy-OPLS-2005>
4.74051332473755

> <r_mmod_Van_der_Waal_Energy-OPLS-2005>
129.346237182617

> <r_mmod_Electrostatic_Energy-OPLS-2005>
-376.920959472656

> <r_mmod_Solvation_Energy-OPLS-2005>
-214.045867919922

> <b_mmod_Minimization_Converged-OPLS-2005>
0

> <r_mmod_RMS_Derivative-OPLS-2005>
0.530400216579437

$$$$
6
                    3D
 Structure written by MMmdl.
162170  0  0  1  0            999 V2000
  -30.6083  -14.7240   20.4338 C   0  0  0  0  0  0
  -30.4389  -12.4223   19.4907 C   0  0  0  0  0  0
  -29.5195  -12.4419   18.2485 C   0  0  0  0  0  0
  -28.0369  -12.3181   18.6528 C   0  0  0  0  0  0
  -27.6459  -13.2261   19.8506 C   0  0  2  0  0  0
  -28.6875  -13.1539   20.9885 C   0  0  0  0  0  0
  -25.2536  -13.8196   20.5692 C   0  0  0  0  0  0
  -24.1815  -13.0449   20.9205 C   0  0  0  0  0  0
  -24.6394  -11.6923   20.8752 C   0  0  0  0  0  0
  -23.9068  -10.4299   21.0410 C   0  0  0  0  0  0
  -24.3619   -9.4212   21.9185 C   0  0  0  0  0  0
  -23.6296   -8.2246   22.0753 C   0  0  0  0  0  0
  -22.4278   -8.0284   21.3543 C   0  0  0  0  0  0
  -21.9915   -9.0257   20.4645 C   0  0  0  0  0  0
  -22.7242  -10.2138   20.3057 C   0  0  0  0  0  0
  -21.6854   -6.0739   22.5279 C   0  0  0  0  0  0
  -21.4014   -6.5641   23.8213 C   0  0  0  0  0  0
  -21.3659   -5.6793   24.9175 C   0  0  0  0  0  0
  -21.6044   -4.3056   24.7224 C   0  0  0  0  0  0
  -21.8819   -3.8149   23.4345 C   0  0  0  0  0  0
  -21.9194   -4.6966   22.3402 C   0  0  0  0  0  0
  -22.7835  -13.5233   21.1865 C   0  0  0  0  0  0
  -22.1662   -4.2152   21.0979 F   0  0  0  0  0  0
  -21.5629   -3.4538   25.7736 F   0  0  0  0  0  0
  -29.9945  -13.4929   20.4123 N   0  0  0  0  0  0
  -26.2957  -12.9392   20.3279 N   0  0  0  0  0  0
  -25.9323  -11.6543   20.5766 N   0  0  0  0  0  0
  -22.0477  -12.8218   22.0417 N   0  0  0  0  0  0
  -25.4240  -15.1919   20.4112 N   0  0  0  0  0  0
  -31.7959  -14.8268   20.1128 O   0  0  0  0  0  0
  -21.6641   -6.8882   21.4241 O   0  0  0  0  0  0
  -22.3519  -14.5540   20.6717 O   0  0  0  0  0  0
  -24.6296  -31.8574   23.2005 C   0  0  0  0  0  0
  -25.9132  -32.4765   23.8341 C   0  0  1  0  0  0
  -27.2198  -27.2801   20.1270 C   0  0  0  0  0  0
  -25.5935  -33.8567   24.2265 N   0  0  0  0  0  0
  -23.4248  -30.4809   21.5436 C   0  0  2  0  0  0
  -24.8723  -28.9339   20.1081 C   0  0  0  0  0  0
  -22.7495  -29.4608   22.4920 C   0  0  0  0  0  0
  -18.0291  -28.1384   22.8483 C   0  0  0  0  0  0
  -24.1491  -36.7288   23.2639 C   0  0  0  0  0  0
  -25.9693  -30.7761   21.3786 C   0  0  0  0  0  0
  -26.0425  -29.4008   20.7199 C   0  0  0  0  0  0
  -27.2180  -28.5858   20.7205 C   0  0  0  0  0  0
  -26.0291  -26.8858   19.4717 C   0  0  0  0  0  0
  -24.8702  -27.6840   19.4731 C   0  0  0  0  0  0
  -23.6417  -29.8177   20.1583 C   0  0  0  0  0  0
  -25.4116  -36.3074   24.0324 C   0  0  1  0  0  0
  -20.5893  -28.3694   23.1273 C   0  0  2  0  0  0
  -20.6780  -26.9414   22.5406 C   0  0  0  0  0  0
  -19.5753  -26.6384   21.5210 C   0  0  0  0  0  0
  -18.1934  -26.7927   22.1622 C   0  0  0  0  0  0
  -19.1543  -28.8857   23.2871 C   0  0  0  0  0  0
  -18.9465  -30.1457   23.8888 C   0  0  0  0  0  0
  -17.6466  -30.6587   24.0560 C   0  0  0  0  0  0
  -25.9056  -34.9445   23.5095 C   0  0  0  0  0  0
  -16.5358  -29.9083   23.6331 C   0  0  0  0  0  0
  -16.7279  -28.6502   23.0349 C   0  0  0  0  0  0
  -26.4503  -31.6588   25.0727 C   0  0  0  0  0  0
  -25.3723  -31.3736   26.1444 C   0  0  0  0  0  0
  -27.0356  -30.3007   24.6210 C   0  0  0  0  0  0
  -27.6054  -32.4332   25.7503 C   0  0  0  0  0  0
  -27.5579  -37.1799   24.8464 C   0  0  0  0  0  0
  -21.4204  -29.3044   22.3666 N   0  0  0  0  0  0
  -26.4292  -37.3770   23.9407 N   0  0  0  0  0  0
  -24.6933  -31.0556   22.0974 N   0  0  0  0  0  0
  -23.4207  -28.8144   23.3006 O   0  0  0  0  0  0
  -28.3162  -26.3921   20.2076 O   0  0  0  0  0  0
  -26.5628  -34.8917   22.4665 O   0  0  0  0  0  0
  -23.5450  -32.1390   23.7312 O   0  0  0  0  0  0
  -29.9927  -18.5529   17.9569 C   0  0  0  0  0  0
  -29.9577  -17.2971   18.5913 C   0  0  0  0  0  0
  -29.7085  -18.4587   20.7287 C   0  0  0  0  0  0
  -29.6955  -19.7674   20.0665 C   0  0  0  0  0  0
  -29.8739  -17.1955   20.0091 C   0  0  0  0  0  0
  -29.8861  -19.7591   18.6635 C   0  0  0  0  0  0
  -29.9445  -16.0850   17.6771 C   0  0  0  0  0  0
  -29.5683  -18.4150   22.2437 C   0  0  0  0  0  0
  -29.1188  -23.9611   22.1560 C   0  0  0  0  0  0
  -29.6233  -21.1875   20.8002 C   0  0  0  0  0  0
  -28.0818  -24.9230   20.0068 C   0  0  0  0  0  0
  -29.0706  -23.8041   20.6231 C   0  0  2  0  0  0
  -29.8207  -15.8475   20.6388 N   0  0  0  0  0  0
  -28.7813  -22.3381   20.2270 N   0  3  0  0  0  0
  -30.0027  -21.2192   17.7418 Cl  0  0  0  0  0  0
  -31.4801  -12.5427   19.1875 H   0  0  0  0  0  0
  -30.3869  -11.4539   19.9910 H   0  0  0  0  0  0
  -29.7853  -11.6203   17.5818 H   0  0  0  0  0  0
  -29.6830  -13.3468   17.6699 H   0  0  0  0  0  0
  -27.8666  -11.2740   18.9178 H   0  0  0  0  0  0
  -27.3919  -12.5195   17.7967 H   0  0  0  0  0  0
  -27.6433  -14.2471   19.4700 H   0  0  0  0  0  0
  -28.7120  -12.1564   21.4294 H   0  0  0  0  0  0
  -28.4247  -13.8372   21.7974 H   0  0  0  0  0  0
  -25.2762   -9.5690   22.4763 H   0  0  0  0  0  0
  -24.0006   -7.4636   22.7471 H   0  0  0  0  0  0
  -21.0848   -8.8776   19.8947 H   0  0  0  0  0  0
  -22.3700  -10.9678   19.6168 H   0  0  0  0  0  0
  -21.2005   -7.6149   23.9719 H   0  0  0  0  0  0
  -21.1481   -6.0522   25.9078 H   0  0  0  0  0  0
  -22.0598   -2.7611   23.2844 H   0  0  0  0  0  0
  -22.4091  -11.9878   22.4803 H   0  0  0  0  0  0
  -21.1091  -13.1236   22.2615 H   0  0  0  0  0  0
  -24.6559  -15.8451   20.5216 H   0  0  0  0  0  0
  -26.2714  -15.6318   20.0760 H   0  0  0  0  0  0
  -26.7202  -32.5423   23.1087 H   0  0  0  0  0  0
  -25.0074  -33.9704   25.0404 H   0  0  0  0  0  0
  -22.7198  -31.3024   21.3999 H   0  0  0  0  0  0
  -23.3753  -35.9622   23.3299 H   0  0  0  0  0  0
  -24.3581  -36.8914   22.2055 H   0  0  0  0  0  0
  -23.7248  -37.6489   23.6668 H   0  0  0  0  0  0
  -26.1067  -31.5388   20.6110 H   0  0  0  0  0  0
  -26.8473  -30.8236   22.0111 H   0  0  0  0  0  0
  -28.1110  -28.9364   21.2191 H   0  0  0  0  0  0
  -25.9578  -25.9380   18.9597 H   0  0  0  0  0  0
  -23.9762  -27.3248   18.9815 H   0  0  0  0  0  0
  -23.7642  -30.5955   19.4034 H   0  0  0  0  0  0
  -22.7607  -29.2498   19.8541 H   0  0  0  0  0  0
  -25.1298  -36.1919   25.0815 H   0  0  0  0  0  0
  -20.9980  -28.3275   24.1396 H   0  0  0  0  0  0
  -20.5685  -26.2304   23.3609 H   0  0  0  0  0  0
  -21.6647  -26.7447   22.1194 H   0  0  0  0  0  0
  -19.6915  -25.6293   21.1243 H   0  0  0  0  0  0
  -19.6689  -27.3193   20.6739 H   0  0  0  0  0  0
  -17.4201  -26.6672   21.4027 H   0  0  0  0  0  0
  -18.0335  -26.0072   22.9020 H   0  0  0  0  0  0
  -19.7943  -30.7272   24.2253 H   0  0  0  0  0  0
  -17.5022  -31.6267   24.5166 H   0  0  0  0  0  0
  -15.5356  -30.2982   23.7663 H   0  0  0  0  0  0
  -15.8678  -28.0824   22.7061 H   0  0  0  0  0  0
  -24.5903  -30.7079   25.7772 H   0  0  0  0  0  0
  -24.8905  -32.2904   26.4853 H   0  0  0  0  0  0
  -25.8034  -30.8927   27.0233 H   0  0  0  0  0  0
  -26.2943  -29.6748   24.1226 H   0  0  0  0  0  0
  -27.4033  -29.7275   25.4731 H   0  0  0  0  0  0
  -27.8822  -30.4285   23.9459 H   0  0  0  0  0  0
  -27.2661  -33.3640   26.2062 H   0  0  0  0  0  0
  -28.3876  -32.6881   25.0340 H   0  0  0  0  0  0
  -28.0710  -31.8469   26.5435 H   0  0  0  0  0  0
  -28.2590  -38.0102   24.7511 H   0  0  0  0  0  0
  -28.1078  -36.2630   24.6289 H   0  0  0  0  0  0
  -27.2293  -37.1446   25.8866 H   0  0  0  0  0  0
  -20.9386  -29.8779   21.6885 H   0  0  0  0  0  0
  -26.0169  -38.2843   24.1406 H   0  0  0  0  0  0
  -30.0910  -18.6038   16.8816 H   0  0  0  0  0  0
  -29.8030  -16.3670   16.6335 H   0  0  0  0  0  0
  -29.1094  -15.4395   17.9423 H   0  0  0  0  0  0
  -30.8791  -15.5286   17.7360 H   0  0  0  0  0  0
  -30.3030  -19.0675   22.7156 H   0  0  0  0  0  0
  -29.7241  -17.4188   22.6559 H   0  0  0  0  0  0
  -28.5724  -18.7427   22.5426 H   0  0  0  0  0  0
  -29.3524  -24.9905   22.4310 H   0  0  0  0  0  0
  -29.8850  -23.3323   22.6096 H   0  0  0  0  0  0
  -28.1614  -23.7112   22.6152 H   0  0  0  0  0  0
  -30.6532  -21.5412   20.8600 H   0  0  0  0  0  0
  -29.3059  -21.0441   21.8319 H   0  0  0  0  0  0
  -27.0943  -24.6790   20.4003 H   0  0  0  0  0  0
  -28.0250  -24.7629   18.9295 H   0  0  0  0  0  0
  -30.0678  -24.0263   20.2410 H   0  0  0  0  0  0
  -28.9519  -15.6468   21.1104 H   0  0  0  0  0  0
  -27.8145  -22.1220   20.4163 H   0  0  0  0  0  0
  -28.9007  -22.2743   19.2245 H   0  0  0  0  0  0
  1 25  1  0  0  0
  1 30  2  0  0  0
  1 83  1  0  0  0
  2  3  1  0  0  0
  2 25  1  0  0  0
  2 86  1  0  0  0
  2 87  1  0  0  0
  3  4  1  0  0  0
  3 88  1  0  0  0
  3 89  1  0  0  0
  4  5  1  0  0  0
  4 90  1  0  0  0
  4 91  1  0  0  0
  5  6  1  0  0  0
  5 26  1  0  0  0
  5 92  1  0  0  0
  6 25  1  0  0  0
  6 93  1  0  0  0
  6 94  1  0  0  0
  7  8  2  0  0  0
  7 26  1  0  0  0
  7 29  1  0  0  0
  8  9  1  0  0  0
  8 22  1  0  0  0
  9 10  1  0  0  0
  9 27  2  0  0  0
 10 11  2  0  0  0
 10 15  1  0  0  0
 11 12  1  0  0  0
 11 95  1  0  0  0
 12 13  2  0  0  0
 12 96  1  0  0  0
 13 14  1  0  0  0
 13 31  1  0  0  0
 14 15  2  0  0  0
 14 97  1  0  0  0
 15 98  1  0  0  0
 16 17  2  0  0  0
 16 21  1  0  0  0
 16 31  1  0  0  0
 17 18  1  0  0  0
 17 99  1  0  0  0
 18 19  2  0  0  0
 18100  1  0  0  0
 19 20  1  0  0  0
 19 24  1  0  0  0
 20 21  2  0  0  0
 20101  1  0  0  0
 21 23  1  0  0  0
 22 28  1  0  0  0
 22 32  2  0  0  0
 26 27  1  0  0  0
 28102  1  0  0  0
 28103  1  0  0  0
 29104  1  0  0  0
 29105  1  0  0  0
 33 34  1  0  0  0
 33 66  1  0  0  0
 33 70  2  0  0  0
 34 36  1  0  0  0
 34 59  1  0  0  0
 34106  1  0  0  0
 35 44  2  0  0  0
 35 45  1  0  0  0
 35 68  1  0  0  0
 36 56  1  0  0  0
 36107  1  0  0  0
 37 39  1  0  0  0
 37 47  1  0  0  0
 37 66  1  0  0  0
 37108  1  0  0  0
 38 43  2  0  0  0
 38 46  1  0  0  0
 38 47  1  0  0  0
 39 64  1  0  0  0
 39 67  2  0  0  0
 40 52  1  0  0  0
 40 53  2  0  0  0
 40 58  1  0  0  0
 41109  1  0  0  0
 41110  1  0  0  0
 41111  1  0  0  0
 41 48  1  0  0  0
 42 43  1  0  0  0
 42 66  1  0  0  0
 42112  1  0  0  0
 42113  1  0  0  0
 43 44  1  0  0  0
 44114  1  0  0  0
 45 46  2  0  0  0
 45115  1  0  0  0
 46116  1  0  0  0
 47117  1  0  0  0
 47118  1  0  0  0
 48 56  1  0  0  0
 48 65  1  0  0  0
 48119  1  0  0  0
 49 50  1  0  0  0
 49 53  1  0  0  0
 49 64  1  0  0  0
 49120  1  0  0  0
 50 51  1  0  0  0
 50121  1  0  0  0
 50122  1  0  0  0
 51 52  1  0  0  0
 51123  1  0  0  0
 51124  1  0  0  0
 52125  1  0  0  0
 52126  1  0  0  0
 53 54  1  0  0  0
 54 55  2  0  0  0
 54127  1  0  0  0
 55 57  1  0  0  0
 55128  1  0  0  0
 56 69  2  0  0  0
 57 58  2  0  0  0
 57129  1  0  0  0
 58130  1  0  0  0
 59 60  1  0  0  0
 59 61  1  0  0  0
 59 62  1  0  0  0
 60131  1  0  0  0
 60132  1  0  0  0
 60133  1  0  0  0
 61134  1  0  0  0
 61135  1  0  0  0
 61136  1  0  0  0
 62137  1  0  0  0
 62138  1  0  0  0
 62139  1  0  0  0
 63 65  1  0  0  0
 63140  1  0  0  0
 63141  1  0  0  0
 63142  1  0  0  0
 64143  1  0  0  0
 65144  1  0  0  0
 68 81  1  0  0  0
 71 72  2  0  0  0
 71 76  1  0  0  0
 71145  1  0  0  0
 72 75  1  0  0  0
 72 77  1  0  0  0
 73 74  1  0  0  0
 73 75  2  0  0  0
 73 78  1  0  0  0
 74 76  2  0  0  0
 74 80  1  0  0  0
 75 83  1  0  0  0
 76 85  1  0  0  0
 77146  1  0  0  0
 77147  1  0  0  0
 77148  1  0  0  0
 78149  1  0  0  0
 78150  1  0  0  0
 78151  1  0  0  0
 79152  1  0  0  0
 79153  1  0  0  0
 79154  1  0  0  0
 79 82  1  0  0  0
 80 84  1  0  0  0
 80155  1  0  0  0
 80156  1  0  0  0
 81 82  1  0  0  0
 81157  1  0  0  0
 81158  1  0  0  0
 82 84  1  0  0  0
 82159  1  0  0  0
 83160  1  0  0  0
 84161  1  0  0  0
 84162  1  0  0  0
M  CHG  1  84   1
M  ISO  4   1 100  68 101  81 101  83 100
M  END
> <chiral flag>
0

> <version>
0

> <s_m_source_file>
/data/baiqing/PycharmProjects/Reinvent-master-3.2/result/LINK_invent/BTK/process_docking_weight1_custom_sum_contain_oxygen_bond_distance_aromatic_linkinvent_7_9_3/rearranged_h_0017.sdf

> <i_m_source_file_index>
7

> <r_mmod_Potential_Energy-OPLS-2005>
-5.60186243057251

> <r_mmod_Stretch_Energy-OPLS-2005>
122.20726776123

> <r_mmod_Bend_Energy-OPLS-2005>
153.828552246094

> <r_mmod_Torsional_Energy-OPLS-2005>
245.046356201172

> <r_mmod_Improper_Torsional_Energy-OPLS-2005>
5.6912407875061

> <r_mmod_Van_der_Waal_Energy-OPLS-2005>
148.863174438477

> <r_mmod_Electrostatic_Energy-OPLS-2005>
-314.874816894531

> <r_mmod_Solvation_Energy-OPLS-2005>
-445.109405517578

> <b_mmod_Minimization_Converged-OPLS-2005>
0

> <r_mmod_RMS_Derivative-OPLS-2005>
0.423348426818848

$$$$
7
                    3D
 Structure written by MMmdl.
145153  0  0  1  0            999 V2000
  -30.0319  -16.2659   20.2653 C   0  0  0  0  0  0
  -30.3771  -13.5477   19.5575 C   0  0  0  0  0  0
  -29.5825  -12.8384   18.3969 C   0  0  0  0  0  0
  -28.2068  -12.3429   18.8577 C   0  0  0  0  0  0
  -27.5793  -13.3814   19.8024 C   0  0  2  0  0  0
  -28.5412  -13.9652   20.8811 C   0  0  0  0  0  0
  -25.2235  -13.8395   20.5859 C   0  0  0  0  0  0
  -24.1695  -13.0450   20.9309 C   0  0  0  0  0  0
  -24.6495  -11.6992   20.8731 C   0  0  0  0  0  0
  -23.9203  -10.4308   21.0357 C   0  0  0  0  0  0
  -24.3708   -9.4220   21.9157 C   0  0  0  0  0  0
  -23.6346   -8.2270   22.0748 C   0  0  0  0  0  0
  -22.4322   -8.0309   21.3545 C   0  0  0  0  0  0
  -21.9985   -9.0287   20.4638 C   0  0  0  0  0  0
  -22.7350  -10.2147   20.3028 C   0  0  0  0  0  0
  -21.6871   -6.0756   22.5279 C   0  0  0  0  0  0
  -21.4028   -6.5651   23.8215 C   0  0  0  0  0  0
  -21.3664   -5.6798   24.9173 C   0  0  0  0  0  0
  -21.6045   -4.3060   24.7220 C   0  0  0  0  0  0
  -21.8817   -3.8158   23.4339 C   0  0  0  0  0  0
  -21.9198   -4.6980   22.3398 C   0  0  0  0  0  0
  -22.7688  -13.5121   21.1936 C   0  0  0  0  0  0
  -22.1663   -4.2164   21.0975 F   0  0  0  0  0  0
  -21.5626   -3.4540   25.7730 F   0  0  0  0  0  0
  -29.6285  -14.7730   20.2132 N   0  0  0  0  0  0
  -26.2773  -12.9873   20.3280 N   0  0  0  0  0  0
  -25.9471  -11.6860   20.5622 N   0  0  0  0  0  0
  -22.0376  -12.8079   22.0488 N   0  0  0  0  0  0
  -25.3722  -15.2152   20.4323 N   0  0  0  0  0  0
  -31.2839  -16.1021   20.2204 O   0  0  0  0  0  0
  -21.6667   -6.8913   21.4248 O   0  0  0  0  0  0
  -22.3336  -14.5411   20.6774 O   0  0  0  0  0  0
  -24.7246  -31.7496   23.1174 C   0  0  0  0  0  0
  -25.9620  -32.4222   23.7875 C   0  0  1  0  0  0
  -27.2460  -26.2635   20.2666 C   0  0  0  0  0  0
  -25.6020  -33.8072   24.1713 N   0  0  0  0  0  0
  -23.5707  -30.3314   21.4823 C   0  0  2  0  0  0
  -25.0321  -28.5768   20.1426 C   0  0  0  0  0  0
  -22.7948  -29.4047   22.4613 C   0  0  0  0  0  0
  -18.0365  -28.1442   22.8434 C   0  0  0  0  0  0
  -24.1498  -36.7048   23.2664 C   0  0  0  0  0  0
  -26.1670  -30.3357   21.4515 C   0  0  0  0  0  0
  -26.2269  -28.8483   20.8188 C   0  0  0  0  0  0
  -27.2970  -27.7359   20.8359 C   0  0  0  0  0  0
  -26.0171  -26.3198   19.5217 C   0  0  0  0  0  0
  -24.9912  -27.3404   19.4691 C   0  0  0  0  0  0
  -23.8503  -29.5861   20.1390 C   0  0  0  0  0  0
  -25.4164  -36.2754   24.0251 C   0  0  1  0  0  0
  -20.6019  -28.3820   23.1066 C   0  0  2  0  0  0
  -20.6809  -26.9441   22.5410 C   0  0  0  0  0  0
  -19.5792  -26.6356   21.5221 C   0  0  0  0  0  0
  -18.1975  -26.7961   22.1613 C   0  0  0  0  0  0
  -19.1641  -28.8966   23.2717 C   0  0  0  0  0  0
  -18.9539  -30.1539   23.8780 C   0  0  0  0  0  0
  -17.6524  -30.6614   24.0541 C   0  0  0  0  0  0
  -25.9169  -34.9154   23.4851 C   0  0  0  0  0  0
  -16.5411  -29.9087   23.6361 C   0  0  0  0  0  0
  -16.7342  -28.6512   23.0375 C   0  0  0  0  0  0
  -26.4663  -31.6442   25.0674 C   0  0  0  0  0  0
  -25.3614  -31.3877   26.1206 C   0  0  0  0  0  0
  -27.0668  -30.2736   24.6890 C   0  0  0  0  0  0
  -27.6026  -32.4409   25.7514 C   0  0  0  0  0  0
  -27.5550  -37.1681   24.8468 C   0  0  0  0  0  0
  -21.4559  -29.2984   22.3344 N   0  0  0  0  0  0
  -26.4256  -37.3560   23.9404 N   0  0  0  0  0  0
  -24.8496  -30.8498   22.0683 N   0  0  0  0  0  0
  -23.4185  -28.7718   23.3157 O   0  0  0  0  0  0
  -28.1802  -24.8652   20.1963 O   0  0  0  0  0  0
  -26.5868  -34.8814   22.4510 O   0  0  0  0  0  0
  -23.6174  -32.0777   23.5846 O   0  0  0  0  0  0
  -27.8285  -22.2737   21.4784 C   0  0  0  0  0  0
  -28.2391  -23.1566   20.4425 C   0  0  0  0  0  0
  -28.8821  -20.2484   20.4134 C   0  0  0  0  0  0
  -27.0680  -22.7513   22.6760 C   0  0  0  0  0  0
  -29.6012  -21.8793   18.5353 C   0  0  0  0  0  0
  -29.1703  -18.1773   20.0434 C   0  0  0  0  0  0
  -28.1579  -20.8052   21.4489 N   0  0  0  0  0  0
  -28.9201  -21.7448   19.8056 N   0  0  0  0  0  0
  -31.3179  -13.8972   19.1316 H   0  0  0  0  0  0
  -30.6812  -12.8206   20.3128 H   0  0  0  0  0  0
  -30.1627  -12.0120   17.9844 H   0  0  0  0  0  0
  -29.4481  -13.5524   17.5833 H   0  0  0  0  0  0
  -28.3403  -11.4016   19.3925 H   0  0  0  0  0  0
  -27.5579  -12.1334   18.0064 H   0  0  0  0  0  0
  -27.3643  -14.2180   19.1355 H   0  0  0  0  0  0
  -28.9234  -13.1885   21.5458 H   0  0  0  0  0  0
  -27.9894  -14.6484   21.5274 H   0  0  0  0  0  0
  -25.2844   -9.5687   22.4748 H   0  0  0  0  0  0
  -24.0037   -7.4667   22.7484 H   0  0  0  0  0  0
  -21.0911   -8.8826   19.8948 H   0  0  0  0  0  0
  -22.3810  -10.9686   19.6137 H   0  0  0  0  0  0
  -21.2025   -7.6159   23.9724 H   0  0  0  0  0  0
  -21.1487   -6.0525   25.9077 H   0  0  0  0  0  0
  -22.0589   -2.7619   23.2834 H   0  0  0  0  0  0
  -22.4044  -11.9769   22.4888 H   0  0  0  0  0  0
  -21.0973  -13.1045   22.2683 H   0  0  0  0  0  0
  -24.5975  -15.8588   20.5519 H   0  0  0  0  0  0
  -26.2184  -15.6682   20.1127 H   0  0  0  0  0  0
  -26.7751  -32.4600   23.0618 H   0  0  0  0  0  0
  -25.0009  -33.9038   24.9762 H   0  0  0  0  0  0
  -22.9215  -31.1791   21.2535 H   0  0  0  0  0  0
  -23.3786  -35.9348   23.3248 H   0  0  0  0  0  0
  -24.3549  -36.8814   22.2095 H   0  0  0  0  0  0
  -23.7238  -37.6181   23.6828 H   0  0  0  0  0  0
  -26.4119  -31.0256   20.6430 H   0  0  0  0  0  0
  -27.0038  -30.4238   22.1305 H   0  0  0  0  0  0
  -28.1985  -27.9772   21.3808 H   0  0  0  0  0  0
  -25.7926  -25.4227   18.9623 H   0  0  0  0  0  0
  -24.1075  -27.1150   18.8878 H   0  0  0  0  0  0
  -24.0644  -30.3258   19.3668 H   0  0  0  0  0  0
  -22.9467  -29.0748   19.8029 H   0  0  0  0  0  0
  -25.1395  -36.1457   25.0740 H   0  0  0  0  0  0
  -21.0082  -28.3475   24.1200 H   0  0  0  0  0  0
  -20.5636  -26.2456   23.3708 H   0  0  0  0  0  0
  -21.6667  -26.7318   22.1253 H   0  0  0  0  0  0
  -19.6940  -25.6236   21.1326 H   0  0  0  0  0  0
  -19.6747  -27.3103   20.6703 H   0  0  0  0  0  0
  -17.4247  -26.6707   21.4014 H   0  0  0  0  0  0
  -18.0348  -26.0131   22.9034 H   0  0  0  0  0  0
  -19.8016  -30.7383   24.2100 H   0  0  0  0  0  0
  -17.5073  -31.6282   24.5167 H   0  0  0  0  0  0
  -15.5407  -30.2953   23.7752 H   0  0  0  0  0  0
  -15.8743  -28.0791   22.7157 H   0  0  0  0  0  0
  -24.5853  -30.7178   25.7487 H   0  0  0  0  0  0
  -24.8752  -32.3134   26.4293 H   0  0  0  0  0  0
  -25.7690  -30.9256   27.0207 H   0  0  0  0  0  0
  -26.3466  -29.6210   24.1950 H   0  0  0  0  0  0
  -27.3986  -29.7364   25.5786 H   0  0  0  0  0  0
  -27.9484  -30.3768   24.0564 H   0  0  0  0  0  0
  -27.2509  -33.3831   26.1729 H   0  0  0  0  0  0
  -28.4013  -32.6779   25.0473 H   0  0  0  0  0  0
  -28.0501  -31.8792   26.5724 H   0  0  0  0  0  0
  -28.2516  -38.0020   24.7506 H   0  0  0  0  0  0
  -28.1095  -36.2535   24.6310 H   0  0  0  0  0  0
  -27.2260  -37.1324   25.8868 H   0  0  0  0  0  0
  -20.9967  -29.8570   21.6284 H   0  0  0  0  0  0
  -26.0046  -38.2590   24.1417 H   0  0  0  0  0  0
  -26.8008  -23.8049   22.5881 H   0  0  0  0  0  0
  -27.6552  -22.6395   23.5875 H   0  0  0  0  0  0
  -26.1420  -22.1914   22.8073 H   0  0  0  0  0  0
  -29.7960  -22.9302   18.3210 H   0  0  0  0  0  0
  -28.9808  -21.4630   17.7415 H   0  0  0  0  0  0
  -30.5503  -21.3438   18.5645 H   0  0  0  0  0  0
  -29.2833  -18.2210   18.9608 H   0  0  0  0  0  0
  -28.1411  -17.8445   20.1716 H   0  0  0  0  0  0
  1 25  1  0  0  0
  1 30  2  0  0  0
  1 76  1  0  0  0
  2  3  1  0  0  0
  2 25  1  0  0  0
  2 79  1  0  0  0
  2 80  1  0  0  0
  3  4  1  0  0  0
  3 81  1  0  0  0
  3 82  1  0  0  0
  4  5  1  0  0  0
  4 83  1  0  0  0
  4 84  1  0  0  0
  5  6  1  0  0  0
  5 26  1  0  0  0
  5 85  1  0  0  0
  6 25  1  0  0  0
  6 86  1  0  0  0
  6 87  1  0  0  0
  7  8  2  0  0  0
  7 26  1  0  0  0
  7 29  1  0  0  0
  8  9  1  0  0  0
  8 22  1  0  0  0
  9 10  1  0  0  0
  9 27  2  0  0  0
 10 11  2  0  0  0
 10 15  1  0  0  0
 11 12  1  0  0  0
 11 88  1  0  0  0
 12 13  2  0  0  0
 12 89  1  0  0  0
 13 14  1  0  0  0
 13 31  1  0  0  0
 14 15  2  0  0  0
 14 90  1  0  0  0
 15 91  1  0  0  0
 16 17  2  0  0  0
 16 21  1  0  0  0
 16 31  1  0  0  0
 17 18  1  0  0  0
 17 92  1  0  0  0
 18 19  2  0  0  0
 18 93  1  0  0  0
 19 20  1  0  0  0
 19 24  1  0  0  0
 20 21  2  0  0  0
 20 94  1  0  0  0
 21 23  1  0  0  0
 22 28  1  0  0  0
 22 32  2  0  0  0
 26 27  1  0  0  0
 28 95  1  0  0  0
 28 96  1  0  0  0
 29 97  1  0  0  0
 29 98  1  0  0  0
 33 34  1  0  0  0
 33 66  1  0  0  0
 33 70  2  0  0  0
 34 36  1  0  0  0
 34 59  1  0  0  0
 34 99  1  0  0  0
 35 44  2  0  0  0
 35 45  1  0  0  0
 35 68  1  0  0  0
 36 56  1  0  0  0
 36100  1  0  0  0
 37 39  1  0  0  0
 37 47  1  0  0  0
 37 66  1  0  0  0
 37101  1  0  0  0
 38 43  2  0  0  0
 38 46  1  0  0  0
 38 47  1  0  0  0
 39 64  1  0  0  0
 39 67  2  0  0  0
 40 52  1  0  0  0
 40 53  2  0  0  0
 40 58  1  0  0  0
 41102  1  0  0  0
 41103  1  0  0  0
 41104  1  0  0  0
 41 48  1  0  0  0
 42 43  1  0  0  0
 42 66  1  0  0  0
 42105  1  0  0  0
 42106  1  0  0  0
 43 44  1  0  0  0
 44107  1  0  0  0
 45 46  2  0  0  0
 45108  1  0  0  0
 46109  1  0  0  0
 47110  1  0  0  0
 47111  1  0  0  0
 48 56  1  0  0  0
 48 65  1  0  0  0
 48112  1  0  0  0
 49 50  1  0  0  0
 49 53  1  0  0  0
 49 64  1  0  0  0
 49113  1  0  0  0
 50 51  1  0  0  0
 50114  1  0  0  0
 50115  1  0  0  0
 51 52  1  0  0  0
 51116  1  0  0  0
 51117  1  0  0  0
 52118  1  0  0  0
 52119  1  0  0  0
 53 54  1  0  0  0
 54 55  2  0  0  0
 54120  1  0  0  0
 55 57  1  0  0  0
 55121  1  0  0  0
 56 69  2  0  0  0
 57 58  2  0  0  0
 57122  1  0  0  0
 58123  1  0  0  0
 59 60  1  0  0  0
 59 61  1  0  0  0
 59 62  1  0  0  0
 60124  1  0  0  0
 60125  1  0  0  0
 60126  1  0  0  0
 61127  1  0  0  0
 61128  1  0  0  0
 61129  1  0  0  0
 62130  1  0  0  0
 62131  1  0  0  0
 62132  1  0  0  0
 63 65  1  0  0  0
 63133  1  0  0  0
 63134  1  0  0  0
 63135  1  0  0  0
 64136  1  0  0  0
 65137  1  0  0  0
 68 72  1  0  0  0
 71 72  2  0  0  0
 71 74  1  0  0  0
 71 77  1  0  0  0
 72 78  1  0  0  0
 73 76  1  0  0  0
 73 77  2  0  0  0
 73 78  1  0  0  0
 74138  1  0  0  0
 74139  1  0  0  0
 74140  1  0  0  0
 75 78  1  0  0  0
 75141  1  0  0  0
 75142  1  0  0  0
 75143  1  0  0  0
 76144  1  0  0  0
 76145  1  0  0  0
M  ISO  4   1 100  68 101  72 101  76 100
M  END
> <chiral flag>
0

> <version>
0

> <s_m_source_file>
/data/baiqing/PycharmProjects/Reinvent-master-3.2/result/LINK_invent/BTK/process_docking_weight1_custom_sum_contain_oxygen_bond_distance_aromatic_linkinvent_7_9_3/rearranged_h_0017.sdf

> <i_m_source_file_index>
8

> <r_mmod_Potential_Energy-OPLS-2005>
5051.52294921875

> <r_mmod_Stretch_Energy-OPLS-2005>
2095.43676757812

> <r_mmod_Bend_Energy-OPLS-2005>
1085.71337890625

> <r_mmod_Torsional_Energy-OPLS-2005>
212.700042724609

> <r_mmod_Improper_Torsional_Energy-OPLS-2005>
12.0986948013306

> <r_mmod_Van_der_Waal_Energy-OPLS-2005>
109.287239074707

> <r_mmod_Electrostatic_Energy-OPLS-2005>
-322.629028320312

> <r_mmod_Solvation_Energy-OPLS-2005>
-215.23193359375

> <b_mmod_Minimization_Converged-OPLS-2005>
0

> <r_mmod_RMS_Derivative-OPLS-2005>
0.154383316636086

$$$$
8
                    3D
 Structure written by MMmdl.
144152  0  0  1  0            999 V2000
  -30.2050  -15.8584   20.3229 C   0  0  0  0  0  0
  -30.4123  -13.2487   19.5544 C   0  0  0  0  0  0
  -29.5643  -12.7158   18.3561 C   0  0  0  0  0  0
  -28.1548  -12.3087   18.8060 C   0  0  0  0  0  0
  -27.5913  -13.3295   19.8158 C   0  0  2  0  0  0
  -28.5900  -13.7487   20.9254 C   0  0  0  0  0  0
  -25.2292  -13.8321   20.5822 C   0  0  0  0  0  0
  -24.1699  -13.0447   20.9308 C   0  0  0  0  0  0
  -24.6430  -11.6965   20.8768 C   0  0  0  0  0  0
  -23.9139  -10.4304   21.0408 C   0  0  0  0  0  0
  -24.3658   -9.4211   21.9193 C   0  0  0  0  0  0
  -23.6305   -8.2260   22.0770 C   0  0  0  0  0  0
  -22.4285   -8.0313   21.3561 C   0  0  0  0  0  0
  -21.9940   -9.0297   20.4665 C   0  0  0  0  0  0
  -22.7300  -10.2158   20.3069 C   0  0  0  0  0  0
  -21.6863   -6.0751   22.5282 C   0  0  0  0  0  0
  -21.4024   -6.5650   23.8216 C   0  0  0  0  0  0
  -21.3652   -5.6798   24.9172 C   0  0  0  0  0  0
  -21.6039   -4.3064   24.7222 C   0  0  0  0  0  0
  -21.8814   -3.8159   23.4346 C   0  0  0  0  0  0
  -21.9195   -4.6976   22.3403 C   0  0  0  0  0  0
  -22.7698  -13.5174   21.1909 C   0  0  0  0  0  0
  -22.1659   -4.2163   21.0981 F   0  0  0  0  0  0
  -21.5613   -3.4545   25.7730 F   0  0  0  0  0  0
  -29.7281  -14.4461   20.2616 N   0  0  0  0  0  0
  -26.2768  -12.9688   20.3281 N   0  0  0  0  0  0
  -25.9386  -11.6739   20.5704 N   0  0  0  0  0  0
  -22.0332  -12.8187   22.0461 N   0  0  0  0  0  0
  -25.3848  -15.2068   20.4221 N   0  0  0  0  0  0
  -31.4463  -15.7750   20.1833 O   0  0  0  0  0  0
  -21.6654   -6.8907   21.4247 O   0  0  0  0  0  0
  -22.3387  -14.5469   20.6730 O   0  0  0  0  0  0
  -24.7004  -31.7804   23.1377 C   0  0  0  0  0  0
  -25.9502  -32.4364   23.7985 C   0  0  1  0  0  0
  -27.2314  -26.5326   20.2360 C   0  0  0  0  0  0
  -25.6010  -33.8197   24.1857 N   0  0  0  0  0  0
  -23.5341  -30.3747   21.4957 C   0  0  2  0  0  0
  -24.9935  -28.6809   20.1235 C   0  0  0  0  0  0
  -22.7847  -29.4205   22.4666 C   0  0  0  0  0  0
  -18.0347  -28.1436   22.8439 C   0  0  0  0  0  0
  -24.1505  -36.7111   23.2652 C   0  0  0  0  0  0
  -26.1222  -30.4569   21.4287 C   0  0  0  0  0  0
  -26.1851  -29.0032   20.7826 C   0  0  0  0  0  0
  -27.2810  -27.9629   20.8009 C   0  0  0  0  0  0
  -26.0047  -26.4634   19.5151 C   0  0  0  0  0  0
  -24.9529  -27.4390   19.4643 C   0  0  0  0  0  0
  -23.7977  -29.6566   20.1382 C   0  0  0  0  0  0
  -25.4158  -36.2834   24.0268 C   0  0  1  0  0  0
  -20.5991  -28.3801   23.1105 C   0  0  2  0  0  0
  -20.6808  -26.9443   22.5406 C   0  0  0  0  0  0
  -19.5782  -26.6368   21.5220 C   0  0  0  0  0  0
  -18.1967  -26.7953   22.1623 C   0  0  0  0  0  0
  -19.1620  -28.8946   23.2748 C   0  0  0  0  0  0
  -18.9521  -30.1528   23.8801 C   0  0  0  0  0  0
  -17.6510  -30.6607   24.0545 C   0  0  0  0  0  0
  -25.9154  -34.9226   23.4917 C   0  0  0  0  0  0
  -16.5397  -29.9086   23.6353 C   0  0  0  0  0  0
  -16.7329  -28.6515   23.0355 C   0  0  0  0  0  0
  -26.4628  -31.6463   25.0674 C   0  0  0  0  0  0
  -25.3653  -31.3814   26.1261 C   0  0  0  0  0  0
  -27.0586  -30.2780   24.6692 C   0  0  0  0  0  0
  -27.6050  -32.4357   25.7495 C   0  0  0  0  0  0
  -27.5571  -37.1700   24.8455 C   0  0  0  0  0  0
  -21.4474  -29.3014   22.3410 N   0  0  0  0  0  0
  -26.4267  -37.3616   23.9412 N   0  0  0  0  0  0
  -24.8109  -30.9086   22.0720 N   0  0  0  0  0  0
  -23.4210  -28.7831   23.3086 O   0  0  0  0  0  0
  -28.1649  -25.2312   20.3091 O   0  0  0  0  0  0
  -26.5825  -34.8832   22.4555 O   0  0  0  0  0  0
  -23.5991  -32.0946   23.6235 O   0  0  0  0  0  0
  -28.3626  -20.0341   20.3026 C   0  0  0  0  0  0
  -28.7504  -21.6078   20.2896 C   0  0  0  0  0  0
  -29.3706  -18.8854   20.3311 C   0  0  0  0  0  0
  -31.8229  -19.5119   20.3606 C   0  0  0  0  0  0
  -27.9232  -23.4082   20.1830 C   0  0  0  0  0  0
  -30.0908  -21.2806   20.3121 N   0  0  0  0  0  0
  -30.4160  -19.8553   20.3363 N   0  0  0  0  0  0
  -29.3990  -17.2526   20.3574 N   0  0  0  0  0  0
  -26.6872  -19.6154   20.2715 Cl  0  0  0  0  0  0
  -31.3867  -13.5479   19.1678 H   0  0  0  0  0  0
  -30.6338  -12.4449   20.2589 H   0  0  0  0  0  0
  -30.0648  -11.8739   17.8746 H   0  0  0  0  0  0
  -29.4901  -13.5013   17.6032 H   0  0  0  0  0  0
  -28.2223  -11.3285   19.2807 H   0  0  0  0  0  0
  -27.4893  -12.2000   17.9488 H   0  0  0  0  0  0
  -27.4278  -14.2239   19.2128 H   0  0  0  0  0  0
  -28.9000  -12.8969   21.5329 H   0  0  0  0  0  0
  -28.1125  -14.4489   21.6117 H   0  0  0  0  0  0
  -25.2785   -9.5681   22.4795 H   0  0  0  0  0  0
  -23.9996   -7.4657   22.7505 H   0  0  0  0  0  0
  -21.0864   -8.8850   19.8978 H   0  0  0  0  0  0
  -22.3766  -10.9714   19.6199 H   0  0  0  0  0  0
  -21.2037   -7.6160   23.9723 H   0  0  0  0  0  0
  -21.1462   -6.0528   25.9073 H   0  0  0  0  0  0
  -22.0598   -2.7624   23.2844 H   0  0  0  0  0  0
  -22.3924  -11.9869   22.4913 H   0  0  0  0  0  0
  -21.0951  -13.1242   22.2621 H   0  0  0  0  0  0
  -24.6066  -15.8487   20.5259 H   0  0  0  0  0  0
  -26.2090  -15.6456   20.0340 H   0  0  0  0  0  0
  -26.7591  -32.4784   23.0697 H   0  0  0  0  0  0
  -24.9986  -33.9196   24.9893 H   0  0  0  0  0  0
  -22.8691  -31.2167   21.2919 H   0  0  0  0  0  0
  -23.3794  -35.9410   23.3220 H   0  0  0  0  0  0
  -24.3583  -36.8879   22.2090 H   0  0  0  0  0  0
  -23.7236  -37.6242   23.6806 H   0  0  0  0  0  0
  -26.3440  -31.1680   20.6319 H   0  0  0  0  0  0
  -26.9667  -30.5299   22.1013 H   0  0  0  0  0  0
  -28.1734  -28.2226   21.3526 H   0  0  0  0  0  0
  -25.8062  -25.5330   19.0018 H   0  0  0  0  0  0
  -24.0587  -27.1797   18.9147 H   0  0  0  0  0  0
  -23.9886  -30.4097   19.3732 H   0  0  0  0  0  0
  -22.8979  -29.1339   19.8092 H   0  0  0  0  0  0
  -25.1374  -36.1563   25.0755 H   0  0  0  0  0  0
  -21.0065  -28.3440   24.1233 H   0  0  0  0  0  0
  -20.5660  -26.2429   23.3683 H   0  0  0  0  0  0
  -21.6669  -26.7360   22.1234 H   0  0  0  0  0  0
  -19.6943  -25.6259   21.1301 H   0  0  0  0  0  0
  -19.6728  -27.3127   20.6710 H   0  0  0  0  0  0
  -17.4234  -26.6672   21.4032 H   0  0  0  0  0  0
  -18.0371  -26.0128   22.9054 H   0  0  0  0  0  0
  -19.7996  -30.7371   24.2126 H   0  0  0  0  0  0
  -17.5053  -31.6273   24.5174 H   0  0  0  0  0  0
  -15.5393  -30.2957   23.7734 H   0  0  0  0  0  0
  -15.8727  -28.0811   22.7112 H   0  0  0  0  0  0
  -24.5853  -30.7162   25.7533 H   0  0  0  0  0  0
  -24.8836  -32.3051   26.4478 H   0  0  0  0  0  0
  -25.7794  -30.9087   27.0178 H   0  0  0  0  0  0
  -26.3342  -29.6344   24.1695 H   0  0  0  0  0  0
  -27.3951  -29.7285   25.5494 H   0  0  0  0  0  0
  -27.9344  -30.3859   24.0290 H   0  0  0  0  0  0
  -27.2571  -33.3730   26.1844 H   0  0  0  0  0  0
  -28.3975  -32.6804   25.0411 H   0  0  0  0  0  0
  -28.0599  -31.8646   26.5599 H   0  0  0  0  0  0
  -28.2510  -38.0069   24.7567 H   0  0  0  0  0  0
  -28.1150  -36.2599   24.6204 H   0  0  0  0  0  0
  -27.2300  -37.1229   25.8855 H   0  0  0  0  0  0
  -20.9824  -29.8646   21.6422 H   0  0  0  0  0  0
  -26.0077  -38.2647   24.1450 H   0  0  0  0  0  0
  -32.0368  -18.8969   21.2355 H   0  0  0  0  0  0
  -32.4450  -20.4056   20.3955 H   0  0  0  0  0  0
  -32.0734  -18.9434   19.4649 H   0  0  0  0  0  0
  -27.0712  -23.3100   20.8557 H   0  0  0  0  0  0
  -27.4485  -23.3792   19.2029 H   0  0  0  0  0  0
  -28.4377  -16.9556   20.4243 H   0  0  0  0  0  0
  1 25  1  0  0  0
  1 30  2  0  0  0
  1 78  1  0  0  0
  2  3  1  0  0  0
  2 25  1  0  0  0
  2 80  1  0  0  0
  2 81  1  0  0  0
  3  4  1  0  0  0
  3 82  1  0  0  0
  3 83  1  0  0  0
  4  5  1  0  0  0
  4 84  1  0  0  0
  4 85  1  0  0  0
  5  6  1  0  0  0
  5 26  1  0  0  0
  5 86  1  0  0  0
  6 25  1  0  0  0
  6 87  1  0  0  0
  6 88  1  0  0  0
  7  8  2  0  0  0
  7 26  1  0  0  0
  7 29  1  0  0  0
  8  9  1  0  0  0
  8 22  1  0  0  0
  9 10  1  0  0  0
  9 27  2  0  0  0
 10 11  2  0  0  0
 10 15  1  0  0  0
 11 12  1  0  0  0
 11 89  1  0  0  0
 12 13  2  0  0  0
 12 90  1  0  0  0
 13 14  1  0  0  0
 13 31  1  0  0  0
 14 15  2  0  0  0
 14 91  1  0  0  0
 15 92  1  0  0  0
 16 17  2  0  0  0
 16 21  1  0  0  0
 16 31  1  0  0  0
 17 18  1  0  0  0
 17 93  1  0  0  0
 18 19  2  0  0  0
 18 94  1  0  0  0
 19 20  1  0  0  0
 19 24  1  0  0  0
 20 21  2  0  0  0
 20 95  1  0  0  0
 21 23  1  0  0  0
 22 28  1  0  0  0
 22 32  2  0  0  0
 26 27  1  0  0  0
 28 96  1  0  0  0
 28 97  1  0  0  0
 29 98  1  0  0  0
 29 99  1  0  0  0
 33 34  1  0  0  0
 33 66  1  0  0  0
 33 70  2  0  0  0
 34 36  1  0  0  0
 34 59  1  0  0  0
 34100  1  0  0  0
 35 44  2  0  0  0
 35 45  1  0  0  0
 35 68  1  0  0  0
 36 56  1  0  0  0
 36101  1  0  0  0
 37 39  1  0  0  0
 37 47  1  0  0  0
 37 66  1  0  0  0
 37102  1  0  0  0
 38 43  2  0  0  0
 38 46  1  0  0  0
 38 47  1  0  0  0
 39 64  1  0  0  0
 39 67  2  0  0  0
 40 52  1  0  0  0
 40 53  2  0  0  0
 40 58  1  0  0  0
 41103  1  0  0  0
 41104  1  0  0  0
 41105  1  0  0  0
 41 48  1  0  0  0
 42 43  1  0  0  0
 42 66  1  0  0  0
 42106  1  0  0  0
 42107  1  0  0  0
 43 44  1  0  0  0
 44108  1  0  0  0
 45 46  2  0  0  0
 45109  1  0  0  0
 46110  1  0  0  0
 47111  1  0  0  0
 47112  1  0  0  0
 48 56  1  0  0  0
 48 65  1  0  0  0
 48113  1  0  0  0
 49 50  1  0  0  0
 49 53  1  0  0  0
 49 64  1  0  0  0
 49114  1  0  0  0
 50 51  1  0  0  0
 50115  1  0  0  0
 50116  1  0  0  0
 51 52  1  0  0  0
 51117  1  0  0  0
 51118  1  0  0  0
 52119  1  0  0  0
 52120  1  0  0  0
 53 54  1  0  0  0
 54 55  2  0  0  0
 54121  1  0  0  0
 55 57  1  0  0  0
 55122  1  0  0  0
 56 69  2  0  0  0
 57 58  2  0  0  0
 57123  1  0  0  0
 58124  1  0  0  0
 59 60  1  0  0  0
 59 61  1  0  0  0
 59 62  1  0  0  0
 60125  1  0  0  0
 60126  1  0  0  0
 60127  1  0  0  0
 61128  1  0  0  0
 61129  1  0  0  0
 61130  1  0  0  0
 62131  1  0  0  0
 62132  1  0  0  0
 62133  1  0  0  0
 63 65  1  0  0  0
 63134  1  0  0  0
 63135  1  0  0  0
 63136  1  0  0  0
 64137  1  0  0  0
 65138  1  0  0  0
 68 75  1  0  0  0
 71 72  1  0  0  0
 71 73  2  0  0  0
 71 79  1  0  0  0
 72 75  1  0  0  0
 72 76  2  0  0  0
 73 77  1  0  0  0
 73 78  1  0  0  0
 74 77  1  0  0  0
 74139  1  0  0  0
 74140  1  0  0  0
 74141  1  0  0  0
 75142  1  0  0  0
 75143  1  0  0  0
 76 77  1  0  0  0
 78144  1  0  0  0
M  ISO  4   1 100  68 101  75 101  78 100
M  END
> <chiral flag>
0

> <version>
0

> <s_m_source_file>
/data/baiqing/PycharmProjects/Reinvent-master-3.2/result/LINK_invent/BTK/process_docking_weight1_custom_sum_contain_oxygen_bond_distance_aromatic_linkinvent_7_9_3/rearranged_h_0017.sdf

> <i_m_source_file_index>
9

> <r_mmod_Potential_Energy-OPLS-2005>
3082.88208007812

> <r_mmod_Stretch_Energy-OPLS-2005>
1328.64123535156

> <r_mmod_Bend_Energy-OPLS-2005>
780.914794921875

> <r_mmod_Torsional_Energy-OPLS-2005>
208.085876464844

> <r_mmod_Improper_Torsional_Energy-OPLS-2005>
4.03432083129883

> <r_mmod_Van_der_Waal_Energy-OPLS-2005>
103.646774291992

> <r_mmod_Electrostatic_Energy-OPLS-2005>
-398.058898925781

> <r_mmod_Solvation_Energy-OPLS-2005>
-227.354705810547

> <b_mmod_Minimization_Converged-OPLS-2005>
0

> <r_mmod_RMS_Derivative-OPLS-2005>
1.67647457122803

$$$$
9
                    3D
 Structure written by MMmdl.
156163  0  0  1  0            999 V2000
  -30.7048  -14.5298   20.5767 C   0  0  0  0  0  0
  -30.4169  -12.3520   19.4323 C   0  0  0  0  0  0
  -29.4918  -12.5149   18.2099 C   0  0  0  0  0  0
  -28.0162  -12.3609   18.6249 C   0  0  0  0  0  0
  -27.6532  -13.2175   19.8677 C   0  0  2  0  0  0
  -28.6955  -13.0492   20.9946 C   0  0  0  0  0  0
  -25.2547  -13.8179   20.5682 C   0  0  0  0  0  0
  -24.1816  -13.0443   20.9187 C   0  0  0  0  0  0
  -24.6386  -11.6916   20.8747 C   0  0  0  0  0  0
  -23.9058  -10.4296   21.0415 C   0  0  0  0  0  0
  -24.3613   -9.4210   21.9189 C   0  0  0  0  0  0
  -23.6293   -8.2245   22.0754 C   0  0  0  0  0  0
  -22.4278   -8.0279   21.3539 C   0  0  0  0  0  0
  -21.9906   -9.0252   20.4645 C   0  0  0  0  0  0
  -22.7232  -10.2134   20.3059 C   0  0  0  0  0  0
  -21.6845   -6.0737   22.5279 C   0  0  0  0  0  0
  -21.4013   -6.5641   23.8213 C   0  0  0  0  0  0
  -21.3663   -5.6793   24.9172 C   0  0  0  0  0  0
  -21.6046   -4.3056   24.7223 C   0  0  0  0  0  0
  -21.8818   -3.8148   23.4342 C   0  0  0  0  0  0
  -21.9193   -4.6966   22.3399 C   0  0  0  0  0  0
  -22.7841  -13.5236   21.1851 C   0  0  0  0  0  0
  -22.1659   -4.2151   21.0977 F   0  0  0  0  0  0
  -21.5631   -3.4542   25.7736 F   0  0  0  0  0  0
  -30.0184  -13.3589   20.4331 N   0  0  0  0  0  0
  -26.2982  -12.9367   20.3339 N   0  0  0  0  0  0
  -25.9317  -11.6519   20.5764 N   0  0  0  0  0  0
  -22.0478  -12.8232   22.0412 N   0  0  0  0  0  0
  -25.4253  -15.1897   20.4083 N   0  0  0  0  0  0
  -31.8305  -14.6918   20.1030 O   0  0  0  0  0  0
  -21.6638   -6.8879   21.4240 O   0  0  0  0  0  0
  -22.3525  -14.5544   20.6698 O   0  0  0  0  0  0
  -24.6192  -31.8635   23.2057 C   0  0  0  0  0  0
  -25.9067  -32.4797   23.8370 C   0  0  1  0  0  0
  -27.2290  -27.3841   20.1145 C   0  0  0  0  0  0
  -25.5911  -33.8597   24.2301 N   0  0  0  0  0  0
  -23.4104  -30.4858   21.5460 C   0  0  2  0  0  0
  -24.8589  -28.9445   20.1133 C   0  0  0  0  0  0
  -22.7443  -29.4636   22.4958 C   0  0  0  0  0  0
  -18.0285  -28.1377   22.8486 C   0  0  0  0  0  0
  -24.1489  -36.7306   23.2635 C   0  0  0  0  0  0
  -25.9438  -30.8163   21.3645 C   0  0  0  0  0  0
  -26.0226  -29.4466   20.7108 C   0  0  0  0  0  0
  -27.2144  -28.6767   20.7018 C   0  0  0  0  0  0
  -26.0507  -26.9096   19.5025 C   0  0  0  0  0  0
  -24.8709  -27.6785   19.5019 C   0  0  0  0  0  0
  -23.6226  -29.8161   20.1618 C   0  0  0  0  0  0
  -25.4110  -36.3097   24.0329 C   0  0  1  0  0  0
  -20.5881  -28.3671   23.1309 C   0  0  2  0  0  0
  -20.6787  -26.9397   22.5425 C   0  0  0  0  0  0
  -19.5771  -26.6383   21.5214 C   0  0  0  0  0  0
  -18.1941  -26.7924   22.1617 C   0  0  0  0  0  0
  -19.1535  -28.8839   23.2894 C   0  0  0  0  0  0
  -18.9455  -30.1446   23.8902 C   0  0  0  0  0  0
  -17.6453  -30.6574   24.0566 C   0  0  0  0  0  0
  -25.9038  -34.9462   23.5112 C   0  0  0  0  0  0
  -16.5346  -29.9079   23.6323 C   0  0  0  0  0  0
  -16.7270  -28.6501   23.0336 C   0  0  0  0  0  0
  -26.4483  -31.6590   25.0715 C   0  0  0  0  0  0
  -25.3742  -31.3712   26.1457 C   0  0  0  0  0  0
  -27.0312  -30.3026   24.6117 C   0  0  0  0  0  0
  -27.6054  -32.4315   25.7478 C   0  0  0  0  0  0
  -27.5580  -37.1809   24.8463 C   0  0  0  0  0  0
  -21.4163  -29.3036   22.3710 N   0  0  0  0  0  0
  -26.4294  -37.3788   23.9402 N   0  0  0  0  0  0
  -24.6762  -31.0705   22.0967 N   0  0  0  0  0  0
  -23.4203  -28.8168   23.3002 O   0  0  0  0  0  0
  -28.3543  -26.5746   20.1395 O   0  0  0  0  0  0
  -26.5604  -34.8923   22.4678 O   0  0  0  0  0  0
  -23.5373  -32.1396   23.7427 O   0  0  0  0  0  0
  -27.7040  -21.5344   20.9684 C   0  0  0  0  0  0
  -27.3704  -22.8298   20.6876 C   0  0  0  0  0  0
  -25.9324  -23.2526   20.9603 C   0  0  0  0  0  0
  -28.9829  -20.6897   20.8088 C   0  0  0  0  0  0
  -28.2393  -23.9716   20.0979 C   0  0  0  0  0  0
  -28.6709  -19.1771   20.4789 C   0  0  0  0  0  0
  -29.6841  -18.0785   20.9587 C   0  0  0  0  0  0
  -29.2754  -16.5984   20.6099 C   0  0  0  0  0  0
  -28.2150  -25.3341   20.8936 C   0  0  0  0  0  0
  -30.1107  -15.5463   21.2441 N   0  0  0  0  0  0
  -31.4602  -12.4548   19.1292 H   0  0  0  0  0  0
  -30.3276  -11.3492   19.8531 H   0  0  0  0  0  0
  -29.7442  -11.7822   17.4420 H   0  0  0  0  0  0
  -29.6468  -13.4970   17.7598 H   0  0  0  0  0  0
  -27.8440  -11.3055   18.8393 H   0  0  0  0  0  0
  -27.3602  -12.6125   17.7908 H   0  0  0  0  0  0
  -27.6819  -14.2579   19.5451 H   0  0  0  0  0  0
  -28.6866  -12.0276   21.3771 H   0  0  0  0  0  0
  -28.4516  -13.6893   21.8435 H   0  0  0  0  0  0
  -25.2756   -9.5689   22.4765 H   0  0  0  0  0  0
  -24.0005   -7.4634   22.7473 H   0  0  0  0  0  0
  -21.0833   -8.8769   19.8950 H   0  0  0  0  0  0
  -22.3689  -10.9675   19.6170 H   0  0  0  0  0  0
  -21.1998   -7.6148   23.9718 H   0  0  0  0  0  0
  -21.1491   -6.0519   25.9075 H   0  0  0  0  0  0
  -22.0596   -2.7612   23.2837 H   0  0  0  0  0  0
  -22.4081  -11.9895   22.4808 H   0  0  0  0  0  0
  -21.1096  -13.1262   22.2619 H   0  0  0  0  0  0
  -24.6591  -15.8457   20.5137 H   0  0  0  0  0  0
  -26.2802  -15.6262   20.0880 H   0  0  0  0  0  0
  -26.7131  -32.5498   23.1126 H   0  0  0  0  0  0
  -25.0070  -33.9748   25.0454 H   0  0  0  0  0  0
  -22.7002  -31.3028   21.4036 H   0  0  0  0  0  0
  -23.3747  -35.9646   23.3306 H   0  0  0  0  0  0
  -24.3572  -36.8917   22.2047 H   0  0  0  0  0  0
  -23.7253  -37.6517   23.6647 H   0  0  0  0  0  0
  -26.0619  -31.5809   20.5952 H   0  0  0  0  0  0
  -26.8295  -30.8701   21.9867 H   0  0  0  0  0  0
  -28.1116  -29.0551   21.1712 H   0  0  0  0  0  0
  -26.0421  -25.9355   19.0345 H   0  0  0  0  0  0
  -23.9772  -27.2882   19.0346 H   0  0  0  0  0  0
  -23.7347  -30.5901   19.4017 H   0  0  0  0  0  0
  -22.7462  -29.2384   19.8632 H   0  0  0  0  0  0
  -25.1291  -36.1952   25.0824 H   0  0  0  0  0  0
  -20.9972  -28.3244   24.1430 H   0  0  0  0  0  0
  -20.5701  -26.2269   23.3617 H   0  0  0  0  0  0
  -21.6658  -26.7438   22.1228 H   0  0  0  0  0  0
  -19.6925  -25.6294   21.1245 H   0  0  0  0  0  0
  -19.6716  -27.3190   20.6742 H   0  0  0  0  0  0
  -17.4223  -26.6683   21.4004 H   0  0  0  0  0  0
  -18.0335  -26.0059   22.9006 H   0  0  0  0  0  0
  -19.7927  -30.7272   24.2270 H   0  0  0  0  0  0
  -17.4997  -31.6243   24.5180 H   0  0  0  0  0  0
  -15.5343  -30.2979   23.7632 H   0  0  0  0  0  0
  -15.8676  -28.0821   22.7034 H   0  0  0  0  0  0
  -24.5911  -30.7060   25.7797 H   0  0  0  0  0  0
  -24.8939  -32.2875   26.4902 H   0  0  0  0  0  0
  -25.8086  -30.8884   27.0220 H   0  0  0  0  0  0
  -26.2862  -29.6790   24.1160 H   0  0  0  0  0  0
  -27.4055  -29.7259   25.4585 H   0  0  0  0  0  0
  -27.8710  -30.4327   23.9287 H   0  0  0  0  0  0
  -27.2666  -33.3602   26.2079 H   0  0  0  0  0  0
  -28.3851  -32.6895   25.0301 H   0  0  0  0  0  0
  -28.0736  -31.8428   26.5377 H   0  0  0  0  0  0
  -28.2609  -38.0099   24.7501 H   0  0  0  0  0  0
  -28.1069  -36.2630   24.6300 H   0  0  0  0  0  0
  -27.2293  -37.1469   25.8867 H   0  0  0  0  0  0
  -20.9325  -29.8768   21.6941 H   0  0  0  0  0  0
  -26.0179  -38.2864   24.1409 H   0  0  0  0  0  0
  -26.9106  -20.9482   21.4113 H   0  0  0  0  0  0
  -25.2675  -22.3941   21.0624 H   0  0  0  0  0  0
  -25.5460  -23.8581   20.1410 H   0  0  0  0  0  0
  -25.8554  -23.8253   21.8842 H   0  0  0  0  0  0
  -29.5113  -20.7412   21.7615 H   0  0  0  0  0  0
  -29.6451  -21.1284   20.0610 H   0  0  0  0  0  0
  -27.8588  -24.1566   19.0931 H   0  0  0  0  0  0
  -29.2669  -23.6318   19.9673 H   0  0  0  0  0  0
  -28.5212  -19.0813   19.4027 H   0  0  0  0  0  0
  -27.7094  -18.9144   20.9216 H   0  0  0  0  0  0
  -29.7954  -18.1691   22.0404 H   0  0  0  0  0  0
  -30.6682  -18.2887   20.5375 H   0  0  0  0  0  0
  -29.2687  -16.4707   19.5255 H   0  0  0  0  0  0
  -28.2501  -16.4279   20.9393 H   0  0  0  0  0  0
  -29.0334  -25.3093   21.6134 H   0  0  0  0  0  0
  -27.3264  -25.4053   21.5195 H   0  0  0  0  0  0
  -30.7810  -15.9796   21.8628 H   0  0  0  0  0  0
  1 25  1  0  0  0
  1 30  2  0  0  0
  1 80  1  0  0  0
  2  3  1  0  0  0
  2 25  1  0  0  0
  2 81  1  0  0  0
  2 82  1  0  0  0
  3  4  1  0  0  0
  3 83  1  0  0  0
  3 84  1  0  0  0
  4  5  1  0  0  0
  4 85  1  0  0  0
  4 86  1  0  0  0
  5  6  1  0  0  0
  5 26  1  0  0  0
  5 87  1  0  0  0
  6 25  1  0  0  0
  6 88  1  0  0  0
  6 89  1  0  0  0
  7  8  2  0  0  0
  7 26  1  0  0  0
  7 29  1  0  0  0
  8  9  1  0  0  0
  8 22  1  0  0  0
  9 10  1  0  0  0
  9 27  2  0  0  0
 10 11  2  0  0  0
 10 15  1  0  0  0
 11 12  1  0  0  0
 11 90  1  0  0  0
 12 13  2  0  0  0
 12 91  1  0  0  0
 13 14  1  0  0  0
 13 31  1  0  0  0
 14 15  2  0  0  0
 14 92  1  0  0  0
 15 93  1  0  0  0
 16 17  2  0  0  0
 16 21  1  0  0  0
 16 31  1  0  0  0
 17 18  1  0  0  0
 17 94  1  0  0  0
 18 19  2  0  0  0
 18 95  1  0  0  0
 19 20  1  0  0  0
 19 24  1  0  0  0
 20 21  2  0  0  0
 20 96  1  0  0  0
 21 23  1  0  0  0
 22 28  1  0  0  0
 22 32  2  0  0  0
 26 27  1  0  0  0
 28 97  1  0  0  0
 28 98  1  0  0  0
 29 99  1  0  0  0
 29100  1  0  0  0
 33 34  1  0  0  0
 33 66  1  0  0  0
 33 70  2  0  0  0
 34 36  1  0  0  0
 34 59  1  0  0  0
 34101  1  0  0  0
 35 44  2  0  0  0
 35 45  1  0  0  0
 35 68  1  0  0  0
 36 56  1  0  0  0
 36102  1  0  0  0
 37 39  1  0  0  0
 37 47  1  0  0  0
 37 66  1  0  0  0
 37103  1  0  0  0
 38 43  2  0  0  0
 38 46  1  0  0  0
 38 47  1  0  0  0
 39 64  1  0  0  0
 39 67  2  0  0  0
 40 52  1  0  0  0
 40 53  2  0  0  0
 40 58  1  0  0  0
 41104  1  0  0  0
 41105  1  0  0  0
 41106  1  0  0  0
 41 48  1  0  0  0
 42 43  1  0  0  0
 42 66  1  0  0  0
 42107  1  0  0  0
 42108  1  0  0  0
 43 44  1  0  0  0
 44109  1  0  0  0
 45 46  2  0  0  0
 45110  1  0  0  0
 46111  1  0  0  0
 47112  1  0  0  0
 47113  1  0  0  0
 48 56  1  0  0  0
 48 65  1  0  0  0
 48114  1  0  0  0
 49 50  1  0  0  0
 49 53  1  0  0  0
 49 64  1  0  0  0
 49115  1  0  0  0
 50 51  1  0  0  0
 50116  1  0  0  0
 50117  1  0  0  0
 51 52  1  0  0  0
 51118  1  0  0  0
 51119  1  0  0  0
 52120  1  0  0  0
 52121  1  0  0  0
 53 54  1  0  0  0
 54 55  2  0  0  0
 54122  1  0  0  0
 55 57  1  0  0  0
 55123  1  0  0  0
 56 69  2  0  0  0
 57 58  2  0  0  0
 57124  1  0  0  0
 58125  1  0  0  0
 59 60  1  0  0  0
 59 61  1  0  0  0
 59 62  1  0  0  0
 60126  1  0  0  0
 60127  1  0  0  0
 60128  1  0  0  0
 61129  1  0  0  0
 61130  1  0  0  0
 61131  1  0  0  0
 62132  1  0  0  0
 62133  1  0  0  0
 62134  1  0  0  0
 63 65  1  0  0  0
 63135  1  0  0  0
 63136  1  0  0  0
 63137  1  0  0  0
 64138  1  0  0  0
 65139  1  0  0  0
 68 79  1  0  0  0
 71 72  2  0  0  0
 71 74  1  0  0  0
 71140  1  0  0  0
 72 73  1  0  0  0
 72 75  1  0  0  0
 73141  1  0  0  0
 73142  1  0  0  0
 73143  1  0  0  0
 74 76  1  0  0  0
 74144  1  0  0  0
 74145  1  0  0  0
 75 79  1  0  0  0
 75146  1  0  0  0
 75147  1  0  0  0
 76 77  1  0  0  0
 76148  1  0  0  0
 76149  1  0  0  0
 77 78  1  0  0  0
 77150  1  0  0  0
 77151  1  0  0  0
 78 80  1  0  0  0
 78152  1  0  0  0
 78153  1  0  0  0
 79154  1  0  0  0
 79155  1  0  0  0
 80156  1  0  0  0
M  ISO  4   1 100  68 101  79 101  80 100
M  END
> <chiral flag>
0

> <version>
0

> <s_m_source_file>
/data/baiqing/PycharmProjects/Reinvent-master-3.2/result/LINK_invent/BTK/process_docking_weight1_custom_sum_contain_oxygen_bond_distance_aromatic_linkinvent_7_9_3/rearranged_h_0017.sdf

> <i_m_source_file_index>
10

> <r_mmod_Potential_Energy-OPLS-2005>
68.9732818603516

> <r_mmod_Stretch_Energy-OPLS-2005>
52.5837059020996

> <r_mmod_Bend_Energy-OPLS-2005>
132.066589355469

> <r_mmod_Torsional_Energy-OPLS-2005>
290.802185058594

> <r_mmod_Improper_Torsional_Energy-OPLS-2005>
6.34674596786499

> <r_mmod_Van_der_Waal_Energy-OPLS-2005>
121.59001159668

> <r_mmod_Electrostatic_Energy-OPLS-2005>
-365.521209716797

> <r_mmod_Solvation_Energy-OPLS-2005>
-192.2939453125

> <b_mmod_Minimization_Converged-OPLS-2005>
0

> <r_mmod_RMS_Derivative-OPLS-2005>
1.12040388584137

$$$$
10
                    3D
 Structure written by MMmdl.
153161  0  0  1  0            999 V2000
  -30.2959  -15.5937   20.3370 C   0  0  0  0  0  0
  -30.4308  -13.0435   19.5549 C   0  0  0  0  0  0
  -29.5549  -12.6536   18.3292 C   0  0  0  0  0  0
  -28.1232  -12.3035   18.7632 C   0  0  0  0  0  0
  -27.5998  -13.3042   19.8185 C   0  0  2  0  0  0
  -28.6141  -13.6072   20.9464 C   0  0  0  0  0  0
  -25.2331  -13.8279   20.5777 C   0  0  0  0  0  0
  -24.1716  -13.0435   20.9278 C   0  0  0  0  0  0
  -24.6411  -11.6943   20.8760 C   0  0  0  0  0  0
  -23.9110  -10.4292   21.0395 C   0  0  0  0  0  0
  -24.3645   -9.4207   21.9176 C   0  0  0  0  0  0
  -23.6309   -8.2247   22.0751 C   0  0  0  0  0  0
  -22.4291   -8.0285   21.3542 C   0  0  0  0  0  0
  -21.9934   -9.0258   20.4640 C   0  0  0  0  0  0
  -22.7276  -10.2133   20.3048 C   0  0  0  0  0  0
  -21.6858   -6.0740   22.5278 C   0  0  0  0  0  0
  -21.4017   -6.5642   23.8212 C   0  0  0  0  0  0
  -21.3661   -5.6793   24.9173 C   0  0  0  0  0  0
  -21.6045   -4.3055   24.7220 C   0  0  0  0  0  0
  -21.8818   -3.8150   23.4343 C   0  0  0  0  0  0
  -21.9194   -4.6966   22.3400 C   0  0  0  0  0  0
  -22.7728  -13.5168   21.1914 C   0  0  0  0  0  0
  -22.1662   -4.2153   21.0978 F   0  0  0  0  0  0
  -21.5628   -3.4539   25.7734 F   0  0  0  0  0  0
  -29.8035  -14.2184   20.3103 N   0  0  0  0  0  0
  -26.2777  -12.9605   20.3223 N   0  0  0  0  0  0
  -25.9358  -11.6679   20.5695 N   0  0  0  0  0  0
  -22.0395  -12.8147   22.0471 N   0  0  0  0  0  0
  -25.3924  -15.2019   20.4211 N   0  0  0  0  0  0
  -31.5219  -15.5735   20.1148 O   0  0  0  0  0  0
  -21.6647   -6.8886   21.4241 O   0  0  0  0  0  0
  -22.3406  -14.5463   20.6747 O   0  0  0  0  0  0
  -24.6828  -31.8003   23.1523 C   0  0  0  0  0  0
  -25.9413  -32.4470   23.8063 C   0  0  1  0  0  0
  -27.2270  -26.7120   20.2138 C   0  0  0  0  0  0
  -25.5997  -33.8293   24.1957 N   0  0  0  0  0  0
  -23.5089  -30.4030   21.5045 C   0  0  2  0  0  0
  -24.9682  -28.7465   20.1157 C   0  0  0  0  0  0
  -22.7757  -29.4326   22.4699 C   0  0  0  0  0  0
  -18.0340  -28.1431   22.8462 C   0  0  0  0  0  0
  -24.1482  -36.7140   23.2652 C   0  0  0  0  0  0
  -26.0887  -30.5361   21.4167 C   0  0  0  0  0  0
  -26.1556  -29.1022   20.7661 C   0  0  0  0  0  0
  -27.2694  -28.1114   20.7863 C   0  0  0  0  0  0
  -26.0098  -26.5663   19.5004 C   0  0  0  0  0  0
  -24.9339  -27.5040   19.4592 C   0  0  0  0  0  0
  -23.7637  -29.7003   20.1395 C   0  0  0  0  0  0
  -25.4135  -36.2893   24.0284 C   0  0  1  0  0  0
  -20.5975  -28.3787   23.1138 C   0  0  2  0  0  0
  -20.6803  -26.9447   22.5402 C   0  0  0  0  0  0
  -19.5780  -26.6380   21.5213 C   0  0  0  0  0  0
  -18.1964  -26.7961   22.1620 C   0  0  0  0  0  0
  -19.1608  -28.8932   23.2785 C   0  0  0  0  0  0
  -18.9518  -30.1518   23.8829 C   0  0  0  0  0  0
  -17.6510  -30.6614   24.0557 C   0  0  0  0  0  0
  -25.9121  -34.9286   23.4957 C   0  0  0  0  0  0
  -16.5397  -29.9099   23.6359 C   0  0  0  0  0  0
  -16.7322  -28.6520   23.0374 C   0  0  0  0  0  0
  -26.4604  -31.6503   25.0679 C   0  0  0  0  0  0
  -25.3671  -31.3822   26.1294 C   0  0  0  0  0  0
  -27.0538  -30.2841   24.6576 C   0  0  0  0  0  0
  -27.6052  -32.4365   25.7498 C   0  0  0  0  0  0
  -27.5556  -37.1728   24.8472 C   0  0  0  0  0  0
  -21.4403  -29.3035   22.3448 N   0  0  0  0  0  0
  -26.4259  -37.3660   23.9420 N   0  0  0  0  0  0
  -24.7833  -30.9457   22.0771 N   0  0  0  0  0  0
  -23.4201  -28.7930   23.3043 O   0  0  0  0  0  0
  -28.1740  -25.4861   20.3186 O   0  0  0  0  0  0
  -26.5756  -34.8863   22.4572 O   0  0  0  0  0  0
  -23.5850  -32.1072   23.6483 O   0  0  0  0  0  0
  -29.8484  -19.7054   19.5431 C   0  0  0  0  0  0
  -29.5243  -21.2080   19.4658 C   0  0  0  0  0  0
  -28.1153  -20.9860   21.2039 C   0  0  0  0  0  0
  -28.6072  -22.0599   20.2892 C   0  0  0  0  0  0
  -28.4207  -19.4740   21.2509 C   0  0  0  0  0  0
  -29.3318  -18.6207   20.4249 C   0  0  0  0  0  0
  -30.2134  -21.9572   18.3404 C   0  0  0  0  0  0
  -27.1142  -21.5028   22.2336 C   0  0  0  0  0  0
  -27.6580  -18.6807   22.3102 C   0  0  0  0  0  0
  -27.9139  -23.7838   20.0161 C   0  0  0  0  0  0
  -29.4670  -16.8993   20.4751 N   0  0  0  0  0  0
  -31.4306  -13.2990   19.2027 H   0  0  0  0  0  0
  -30.5742  -12.1862   20.2149 H   0  0  0  0  0  0
  -30.0016  -11.8184   17.7882 H   0  0  0  0  0  0
  -29.5263  -13.4915   17.6313 H   0  0  0  0  0  0
  -28.1398  -11.3005   19.1910 H   0  0  0  0  0  0
  -27.4564  -12.2611   17.9007 H   0  0  0  0  0  0
  -27.4730  -14.2346   19.2635 H   0  0  0  0  0  0
  -28.8566  -12.7131   21.5230 H   0  0  0  0  0  0
  -28.1858  -14.3200   21.6525 H   0  0  0  0  0  0
  -25.2784   -9.5685   22.4761 H   0  0  0  0  0  0
  -24.0011   -7.4641   22.7479 H   0  0  0  0  0  0
  -21.0864   -8.8781   19.8949 H   0  0  0  0  0  0
  -22.3728  -10.9669   19.6161 H   0  0  0  0  0  0
  -21.2011   -7.6150   23.9715 H   0  0  0  0  0  0
  -21.1483   -6.0523   25.9074 H   0  0  0  0  0  0
  -22.0595   -2.7612   23.2840 H   0  0  0  0  0  0
  -22.4030  -11.9822   22.4868 H   0  0  0  0  0  0
  -21.1004  -13.1146   22.2672 H   0  0  0  0  0  0
  -24.6115  -15.8426   20.5124 H   0  0  0  0  0  0
  -26.2209  -15.6410   20.0431 H   0  0  0  0  0  0
  -26.7489  -32.4951   23.0770 H   0  0  0  0  0  0
  -25.0070  -33.9335   25.0062 H   0  0  0  0  0  0
  -22.8348  -31.2407   21.3143 H   0  0  0  0  0  0
  -23.3769  -35.9444   23.3269 H   0  0  0  0  0  0
  -24.3547  -36.8849   22.2076 H   0  0  0  0  0  0
  -23.7214  -37.6296   23.6756 H   0  0  0  0  0  0
  -26.2900  -31.2625   20.6283 H   0  0  0  0  0  0
  -26.9395  -30.6037   22.0821 H   0  0  0  0  0  0
  -28.1585  -28.3847   21.3363 H   0  0  0  0  0  0
  -25.8430  -25.6240   18.9973 H   0  0  0  0  0  0
  -24.0374  -27.2246   18.9226 H   0  0  0  0  0  0
  -23.9394  -30.4605   19.3776 H   0  0  0  0  0  0
  -22.8693  -29.1663   19.8147 H   0  0  0  0  0  0
  -25.1345  -36.1649   25.0772 H   0  0  0  0  0  0
  -21.0067  -28.3415   24.1260 H   0  0  0  0  0  0
  -20.5656  -26.2414   23.3664 H   0  0  0  0  0  0
  -21.6666  -26.7389   22.1226 H   0  0  0  0  0  0
  -19.6931  -25.6267   21.1298 H   0  0  0  0  0  0
  -19.6722  -27.3140   20.6704 H   0  0  0  0  0  0
  -17.4231  -26.6709   21.4026 H   0  0  0  0  0  0
  -18.0359  -26.0119   22.9033 H   0  0  0  0  0  0
  -19.7994  -30.7357   24.2157 H   0  0  0  0  0  0
  -17.5064  -31.6285   24.5178 H   0  0  0  0  0  0
  -15.5395  -30.2985   23.7719 H   0  0  0  0  0  0
  -15.8723  -28.0817   22.7128 H   0  0  0  0  0  0
  -24.5880  -30.7146   25.7598 H   0  0  0  0  0  0
  -24.8829  -32.3042   26.4513 H   0  0  0  0  0  0
  -25.7845  -30.9123   27.0207 H   0  0  0  0  0  0
  -26.3257  -29.6452   24.1568 H   0  0  0  0  0  0
  -27.3970  -29.7291   25.5317 H   0  0  0  0  0  0
  -27.9237  -30.3969   24.0102 H   0  0  0  0  0  0
  -27.2597  -33.3745   26.1855 H   0  0  0  0  0  0
  -28.3976  -32.6803   25.0409 H   0  0  0  0  0  0
  -28.0590  -31.8638   26.5596 H   0  0  0  0  0  0
  -28.2550  -38.0046   24.7530 H   0  0  0  0  0  0
  -28.1077  -36.2574   24.6288 H   0  0  0  0  0  0
  -27.2277  -37.1353   25.8875 H   0  0  0  0  0  0
  -20.9692  -29.8685   21.6519 H   0  0  0  0  0  0
  -26.0081  -38.2702   24.1454 H   0  0  0  0  0  0
  -30.5384  -19.3475   18.7923 H   0  0  0  0  0  0
  -30.8232  -21.3010   17.7189 H   0  0  0  0  0  0
  -30.8645  -22.7312   18.7479 H   0  0  0  0  0  0
  -29.4789  -22.4372   17.6934 H   0  0  0  0  0  0
  -27.1371  -22.5878   22.3262 H   0  0  0  0  0  0
  -27.3310  -21.1248   23.2321 H   0  0  0  0  0  0
  -26.0991  -21.2104   21.9626 H   0  0  0  0  0  0
  -26.5867  -18.8724   22.2495 H   0  0  0  0  0  0
  -28.0045  -18.9487   23.3083 H   0  0  0  0  0  0
  -27.7792  -17.6040   22.2165 H   0  0  0  0  0  0
  -26.8815  -23.6650   20.3435 H   0  0  0  0  0  0
  -27.8177  -23.7914   18.9309 H   0  0  0  0  0  0
  -28.5624  -16.5460   20.7488 H   0  0  0  0  0  0
  1 25  1  0  0  0
  1 30  2  0  0  0
  1 81  1  0  0  0
  2  3  1  0  0  0
  2 25  1  0  0  0
  2 82  1  0  0  0
  2 83  1  0  0  0
  3  4  1  0  0  0
  3 84  1  0  0  0
  3 85  1  0  0  0
  4  5  1  0  0  0
  4 86  1  0  0  0
  4 87  1  0  0  0
  5  6  1  0  0  0
  5 26  1  0  0  0
  5 88  1  0  0  0
  6 25  1  0  0  0
  6 89  1  0  0  0
  6 90  1  0  0  0
  7  8  2  0  0  0
  7 26  1  0  0  0
  7 29  1  0  0  0
  8  9  1  0  0  0
  8 22  1  0  0  0
  9 10  1  0  0  0
  9 27  2  0  0  0
 10 11  2  0  0  0
 10 15  1  0  0  0
 11 12  1  0  0  0
 11 91  1  0  0  0
 12 13  2  0  0  0
 12 92  1  0  0  0
 13 14  1  0  0  0
 13 31  1  0  0  0
 14 15  2  0  0  0
 14 93  1  0  0  0
 15 94  1  0  0  0
 16 17  2  0  0  0
 16 21  1  0  0  0
 16 31  1  0  0  0
 17 18  1  0  0  0
 17 95  1  0  0  0
 18 19  2  0  0  0
 18 96  1  0  0  0
 19 20  1  0  0  0
 19 24  1  0  0  0
 20 21  2  0  0  0
 20 97  1  0  0  0
 21 23  1  0  0  0
 22 28  1  0  0  0
 22 32  2  0  0  0
 26 27  1  0  0  0
 28 98  1  0  0  0
 28 99  1  0  0  0
 29100  1  0  0  0
 29101  1  0  0  0
 33 34  1  0  0  0
 33 66  1  0  0  0
 33 70  2  0  0  0
 34 36  1  0  0  0
 34 59  1  0  0  0
 34102  1  0  0  0
 35 44  2  0  0  0
 35 45  1  0  0  0
 35 68  1  0  0  0
 36 56  1  0  0  0
 36103  1  0  0  0
 37 39  1  0  0  0
 37 47  1  0  0  0
 37 66  1  0  0  0
 37104  1  0  0  0
 38 43  2  0  0  0
 38 46  1  0  0  0
 38 47  1  0  0  0
 39 64  1  0  0  0
 39 67  2  0  0  0
 40 52  1  0  0  0
 40 53  2  0  0  0
 40 58  1  0  0  0
 41105  1  0  0  0
 41106  1  0  0  0
 41107  1  0  0  0
 41 48  1  0  0  0
 42 43  1  0  0  0
 42 66  1  0  0  0
 42108  1  0  0  0
 42109  1  0  0  0
 43 44  1  0  0  0
 44110  1  0  0  0
 45 46  2  0  0  0
 45111  1  0  0  0
 46112  1  0  0  0
 47113  1  0  0  0
 47114  1  0  0  0
 48 56  1  0  0  0
 48 65  1  0  0  0
 48115  1  0  0  0
 49 50  1  0  0  0
 49 53  1  0  0  0
 49 64  1  0  0  0
 49116  1  0  0  0
 50 51  1  0  0  0
 50117  1  0  0  0
 50118  1  0  0  0
 51 52  1  0  0  0
 51119  1  0  0  0
 51120  1  0  0  0
 52121  1  0  0  0
 52122  1  0  0  0
 53 54  1  0  0  0
 54 55  2  0  0  0
 54123  1  0  0  0
 55 57  1  0  0  0
 55124  1  0  0  0
 56 69  2  0  0  0
 57 58  2  0  0  0
 57125  1  0  0  0
 58126  1  0  0  0
 59 60  1  0  0  0
 59 61  1  0  0  0
 59 62  1  0  0  0
 60127  1  0  0  0
 60128  1  0  0  0
 60129  1  0  0  0
 61130  1  0  0  0
 61131  1  0  0  0
 61132  1  0  0  0
 62133  1  0  0  0
 62134  1  0  0  0
 62135  1  0  0  0
 63 65  1  0  0  0
 63136  1  0  0  0
 63137  1  0  0  0
 63138  1  0  0  0
 64139  1  0  0  0
 65140  1  0  0  0
 68 80  1  0  0  0
 71 72  2  0  0  0
 71 76  1  0  0  0
 71141  1  0  0  0
 72 74  1  0  0  0
 72 77  1  0  0  0
 73 74  2  0  0  0
 73 75  1  0  0  0
 73 78  1  0  0  0
 74 80  1  0  0  0
 75 76  2  0  0  0
 75 79  1  0  0  0
 76 81  1  0  0  0
 77142  1  0  0  0
 77143  1  0  0  0
 77144  1  0  0  0
 78145  1  0  0  0
 78146  1  0  0  0
 78147  1  0  0  0
 79148  1  0  0  0
 79149  1  0  0  0
 79150  1  0  0  0
 80151  1  0  0  0
 80152  1  0  0  0
 81153  1  0  0  0
M  ISO  4   1 100  68 101  80 101  81 100
M  END
> <chiral flag>
0

> <version>
0

> <s_m_source_file>
/data/baiqing/PycharmProjects/Reinvent-master-3.2/result/LINK_invent/BTK/process_docking_weight1_custom_sum_contain_oxygen_bond_distance_aromatic_linkinvent_7_9_3/rearranged_h_0017.sdf

> <i_m_source_file_index>
11

> <r_mmod_Potential_Energy-OPLS-2005>
2266.18359375

> <r_mmod_Stretch_Energy-OPLS-2005>
933.349914550781

> <r_mmod_Bend_Energy-OPLS-2005>
656.745483398438

> <r_mmod_Torsional_Energy-OPLS-2005>
240.186080932617

> <r_mmod_Improper_Torsional_Energy-OPLS-2005>
7.32851362228394

> <r_mmod_Van_der_Waal_Energy-OPLS-2005>
138.794708251953

> <r_mmod_Electrostatic_Energy-OPLS-2005>
-365.022308349609

> <r_mmod_Solvation_Energy-OPLS-2005>
-211.153305053711

> <b_mmod_Minimization_Converged-OPLS-2005>
0

> <r_mmod_RMS_Derivative-OPLS-2005>
0.713025450706482

$$$$
11
                    3D
 Structure written by MMmdl.
159167  0  0  1  0            999 V2000
  -30.6183  -14.7107   20.4439 C   0  0  0  0  0  0
  -30.4335  -12.4257   19.4770 C   0  0  0  0  0  0
  -29.5129  -12.4929   18.2384 C   0  0  0  0  0  0
  -28.0369  -12.3295   18.6491 C   0  0  0  0  0  0
  -27.6464  -13.2288   19.8520 C   0  0  2  0  0  0
  -28.6889  -13.1468   20.9890 C   0  0  0  0  0  0
  -25.2530  -13.8196   20.5691 C   0  0  0  0  0  0
  -24.1816  -13.0442   20.9200 C   0  0  0  0  0  0
  -24.6402  -11.6920   20.8738 C   0  0  0  0  0  0
  -23.9078  -10.4294   21.0404 C   0  0  0  0  0  0
  -24.3625   -9.4206   21.9179 C   0  0  0  0  0  0
  -23.6296   -8.2244   22.0752 C   0  0  0  0  0  0
  -22.4277   -8.0284   21.3540 C   0  0  0  0  0  0
  -21.9918   -9.0259   20.4642 C   0  0  0  0  0  0
  -22.7252  -10.2133   20.3051 C   0  0  0  0  0  0
  -21.6853   -6.0739   22.5276 C   0  0  0  0  0  0
  -21.4013   -6.5640   23.8212 C   0  0  0  0  0  0
  -21.3658   -5.6789   24.9174 C   0  0  0  0  0  0
  -21.6045   -4.3052   24.7221 C   0  0  0  0  0  0
  -21.8823   -3.8148   23.4341 C   0  0  0  0  0  0
  -21.9194   -4.6966   22.3399 C   0  0  0  0  0  0
  -22.7838  -13.5222   21.1861 C   0  0  0  0  0  0
  -22.1663   -4.2153   21.0976 F   0  0  0  0  0  0
  -21.5629   -3.4535   25.7734 F   0  0  0  0  0  0
  -29.9984  -13.4836   20.4166 N   0  0  0  0  0  0
  -26.2961  -12.9399   20.3279 N   0  0  0  0  0  0
  -25.9332  -11.6544   20.5747 N   0  0  0  0  0  0
  -22.0489  -12.8207   22.0417 N   0  0  0  0  0  0
  -25.4224  -15.1923   20.4106 N   0  0  0  0  0  0
  -31.8052  -14.8096   20.1194 O   0  0  0  0  0  0
  -21.6638   -6.8883   21.4238 O   0  0  0  0  0  0
  -22.3522  -14.5533   20.6720 O   0  0  0  0  0  0
  -24.6291  -31.8572   23.1989 C   0  0  0  0  0  0
  -25.9127  -32.4761   23.8324 C   0  0  1  0  0  0
  -27.2162  -27.2771   20.1220 C   0  0  0  0  0  0
  -25.5915  -33.8559   24.2244 N   0  0  0  0  0  0
  -23.4241  -30.4793   21.5435 C   0  0  2  0  0  0
  -24.8708  -28.9334   20.1068 C   0  0  0  0  0  0
  -22.7494  -29.4607   22.4937 C   0  0  0  0  0  0
  -18.0281  -28.1392   22.8476 C   0  0  0  0  0  0
  -24.1493  -36.7297   23.2641 C   0  0  0  0  0  0
  -25.9680  -30.7746   21.3772 C   0  0  0  0  0  0
  -26.0414  -29.3979   20.7204 C   0  0  0  0  0  0
  -27.2157  -28.5810   20.7213 C   0  0  0  0  0  0
  -26.0268  -26.8893   19.4591 C   0  0  0  0  0  0
  -24.8681  -27.6873   19.4655 C   0  0  0  0  0  0
  -23.6397  -29.8154   20.1583 C   0  0  0  0  0  0
  -25.4116  -36.3072   24.0321 C   0  0  1  0  0  0
  -20.5881  -28.3702   23.1277 C   0  0  2  0  0  0
  -20.6772  -26.9420   22.5413 C   0  0  0  0  0  0
  -19.5746  -26.6388   21.5213 C   0  0  0  0  0  0
  -18.1928  -26.7928   22.1625 C   0  0  0  0  0  0
  -19.1535  -28.8864   23.2862 C   0  0  0  0  0  0
  -18.9457  -30.1460   23.8885 C   0  0  0  0  0  0
  -17.6458  -30.6593   24.0562 C   0  0  0  0  0  0
  -25.9055  -34.9443   23.5090 C   0  0  0  0  0  0
  -16.5351  -29.9088   23.6328 C   0  0  0  0  0  0
  -16.7267  -28.6516   23.0329 C   0  0  0  0  0  0
  -26.4494  -31.6590   25.0717 C   0  0  0  0  0  0
  -25.3691  -31.3744   26.1421 C   0  0  0  0  0  0
  -27.0348  -30.2998   24.6211 C   0  0  0  0  0  0
  -27.6042  -32.4342   25.7486 C   0  0  0  0  0  0
  -27.5582  -37.1791   24.8456 C   0  0  0  0  0  0
  -21.4204  -29.3054   22.3686 N   0  0  0  0  0  0
  -26.4292  -37.3769   23.9407 N   0  0  0  0  0  0
  -24.6926  -31.0552   22.0961 N   0  0  0  0  0  0
  -23.4204  -28.8145   23.3026 O   0  0  0  0  0  0
  -28.3100  -26.3857   20.2050 O   0  0  0  0  0  0
  -26.5656  -34.8926   22.4676 O   0  0  0  0  0  0
  -23.5448  -32.1400   23.7303 O   0  0  0  0  0  0
  -30.3789  -18.5247   18.0726 C   0  0  0  0  0  0
  -29.6265  -18.4448   20.7624 C   0  0  0  0  0  0
  -29.7128  -19.7498   20.1007 C   0  0  0  0  0  0
  -29.9474  -17.1878   20.0888 C   0  0  0  0  0  0
  -30.2923  -17.2802   18.7181 C   0  0  0  0  0  0
  -30.1159  -19.7340   18.7406 C   0  0  0  0  0  0
  -29.2231  -18.3942   22.2292 C   0  0  0  0  0  0
  -28.8710  -23.8986   22.1745 C   0  0  0  0  0  0
  -29.5490  -21.1712   20.8220 C   0  0  0  0  0  0
  -28.0888  -24.9207   19.9546 C   0  0  0  0  0  0
  -29.0085  -23.7853   20.6423 C   0  0  2  0  0  0
  -29.8501  -15.8352   20.6922 N   0  0  0  0  0  0
  -28.7763  -22.3298   20.1730 N   0  3  0  0  0  0
  -30.5106  -16.1656   17.9781 F   0  0  0  0  0  0
  -30.3225  -21.1962   17.8387 Cl  0  0  0  0  0  0
  -31.4760  -12.5422   19.1746 H   0  0  0  0  0  0
  -30.3708  -11.4470   19.9550 H   0  0  0  0  0  0
  -29.7878  -11.7159   17.5234 H   0  0  0  0  0  0
  -29.6512  -13.4460   17.7252 H   0  0  0  0  0  0
  -27.8853  -11.2812   18.9100 H   0  0  0  0  0  0
  -27.3828  -12.5253   17.7987 H   0  0  0  0  0  0
  -27.6465  -14.2523   19.4767 H   0  0  0  0  0  0
  -28.7112  -12.1461   21.4221 H   0  0  0  0  0  0
  -28.4288  -13.8242   21.8039 H   0  0  0  0  0  0
  -25.2768   -9.5680   22.4755 H   0  0  0  0  0  0
  -24.0005   -7.4634   22.7472 H   0  0  0  0  0  0
  -21.0852   -8.8778   19.8946 H   0  0  0  0  0  0
  -22.3712  -10.9672   19.6160 H   0  0  0  0  0  0
  -21.2003   -7.6145   23.9717 H   0  0  0  0  0  0
  -21.1477   -6.0517   25.9078 H   0  0  0  0  0  0
  -22.0604   -2.7610   23.2838 H   0  0  0  0  0  0
  -22.4101  -11.9858   22.4795 H   0  0  0  0  0  0
  -21.1108  -13.1229   22.2632 H   0  0  0  0  0  0
  -24.6520  -15.8435   20.5177 H   0  0  0  0  0  0
  -26.2675  -15.6316   20.0689 H   0  0  0  0  0  0
  -26.7197  -32.5422   23.1070 H   0  0  0  0  0  0
  -24.9969  -33.9673   25.0322 H   0  0  0  0  0  0
  -22.7198  -31.3010   21.3995 H   0  0  0  0  0  0
  -23.3751  -35.9633   23.3286 H   0  0  0  0  0  0
  -24.3587  -36.8949   22.2061 H   0  0  0  0  0  0
  -23.7253  -37.6489   23.6691 H   0  0  0  0  0  0
  -26.1029  -31.5354   20.6075 H   0  0  0  0  0  0
  -26.8468  -30.8240   22.0083 H   0  0  0  0  0  0
  -28.1097  -28.9283   21.2219 H   0  0  0  0  0  0
  -25.9534  -25.9490   18.9342 H   0  0  0  0  0  0
  -23.9748  -27.3322   18.9697 H   0  0  0  0  0  0
  -23.7585  -30.5915   19.4013 H   0  0  0  0  0  0
  -22.7586  -29.2442   19.8587 H   0  0  0  0  0  0
  -25.1293  -36.1916   25.0810 H   0  0  0  0  0  0
  -20.9948  -28.3299   24.1406 H   0  0  0  0  0  0
  -20.5688  -26.2312   23.3621 H   0  0  0  0  0  0
  -21.6640  -26.7464   22.1198 H   0  0  0  0  0  0
  -19.6915  -25.6296   21.1254 H   0  0  0  0  0  0
  -19.6684  -27.3198   20.6742 H   0  0  0  0  0  0
  -17.4187  -26.6654   21.4037 H   0  0  0  0  0  0
  -18.0332  -26.0083   22.9033 H   0  0  0  0  0  0
  -19.7941  -30.7270   24.2260 H   0  0  0  0  0  0
  -17.5020  -31.6265   24.5184 H   0  0  0  0  0  0
  -15.5353  -30.2988   23.7666 H   0  0  0  0  0  0
  -15.8665  -28.0852   22.7026 H   0  0  0  0  0  0
  -24.5873  -30.7090   25.7736 H   0  0  0  0  0  0
  -24.8855  -32.2909   26.4807 H   0  0  0  0  0  0
  -25.7967  -30.8942   27.0226 H   0  0  0  0  0  0
  -26.2940  -29.6734   24.1221 H   0  0  0  0  0  0
  -27.4003  -29.7277   25.4751 H   0  0  0  0  0  0
  -27.8829  -30.4263   23.9476 H   0  0  0  0  0  0
  -27.2645  -33.3667   26.2007 H   0  0  0  0  0  0
  -28.3862  -32.6864   25.0311 H   0  0  0  0  0  0
  -28.0688  -31.8494   26.5435 H   0  0  0  0  0  0
  -28.2572  -38.0119   24.7531 H   0  0  0  0  0  0
  -28.1101  -36.2637   24.6240 H   0  0  0  0  0  0
  -27.2294  -37.1387   25.8859 H   0  0  0  0  0  0
  -20.9402  -29.8792   21.6899 H   0  0  0  0  0  0
  -26.0171  -38.2842   24.1409 H   0  0  0  0  0  0
  -30.6626  -18.5489   17.0311 H   0  0  0  0  0  0
  -29.9813  -18.8734   22.8487 H   0  0  0  0  0  0
  -29.0973  -17.3775   22.5999 H   0  0  0  0  0  0
  -28.2734  -18.9069   22.3831 H   0  0  0  0  0  0
  -29.0747  -24.9173   22.5068 H   0  0  0  0  0  0
  -29.5723  -23.2523   22.7024 H   0  0  0  0  0  0
  -27.8627  -23.6451   22.5055 H   0  0  0  0  0  0
  -30.5646  -21.5290   20.9926 H   0  0  0  0  0  0
  -29.1308  -21.0241   21.8161 H   0  0  0  0  0  0
  -27.0732  -24.6648   20.2554 H   0  0  0  0  0  0
  -28.1278  -24.7828   18.8735 H   0  0  0  0  0  0
  -30.0414  -24.0235   20.3849 H   0  0  0  0  0  0
  -28.9801  -15.6462   21.1637 H   0  0  0  0  0  0
  -27.7948  -22.1086   20.2442 H   0  0  0  0  0  0
  -29.0121  -22.2905   19.1897 H   0  0  0  0  0  0
  1 25  1  0  0  0
  1 30  2  0  0  0
  1 82  1  0  0  0
  2  3  1  0  0  0
  2 25  1  0  0  0
  2 86  1  0  0  0
  2 87  1  0  0  0
  3  4  1  0  0  0
  3 88  1  0  0  0
  3 89  1  0  0  0
  4  5  1  0  0  0
  4 90  1  0  0  0
  4 91  1  0  0  0
  5  6  1  0  0  0
  5 26  1  0  0  0
  5 92  1  0  0  0
  6 25  1  0  0  0
  6 93  1  0  0  0
  6 94  1  0  0  0
  7  8  2  0  0  0
  7 26  1  0  0  0
  7 29  1  0  0  0
  8  9  1  0  0  0
  8 22  1  0  0  0
  9 10  1  0  0  0
  9 27  2  0  0  0
 10 11  2  0  0  0
 10 15  1  0  0  0
 11 12  1  0  0  0
 11 95  1  0  0  0
 12 13  2  0  0  0
 12 96  1  0  0  0
 13 14  1  0  0  0
 13 31  1  0  0  0
 14 15  2  0  0  0
 14 97  1  0  0  0
 15 98  1  0  0  0
 16 17  2  0  0  0
 16 21  1  0  0  0
 16 31  1  0  0  0
 17 18  1  0  0  0
 17 99  1  0  0  0
 18 19  2  0  0  0
 18100  1  0  0  0
 19 20  1  0  0  0
 19 24  1  0  0  0
 20 21  2  0  0  0
 20101  1  0  0  0
 21 23  1  0  0  0
 22 28  1  0  0  0
 22 32  2  0  0  0
 26 27  1  0  0  0
 28102  1  0  0  0
 28103  1  0  0  0
 29104  1  0  0  0
 29105  1  0  0  0
 33 34  1  0  0  0
 33 66  1  0  0  0
 33 70  2  0  0  0
 34 36  1  0  0  0
 34 59  1  0  0  0
 34106  1  0  0  0
 35 44  2  0  0  0
 35 45  1  0  0  0
 35 68  1  0  0  0
 36 56  1  0  0  0
 36107  1  0  0  0
 37 39  1  0  0  0
 37 47  1  0  0  0
 37 66  1  0  0  0
 37108  1  0  0  0
 38 43  2  0  0  0
 38 46  1  0  0  0
 38 47  1  0  0  0
 39 64  1  0  0  0
 39 67  2  0  0  0
 40 52  1  0  0  0
 40 53  2  0  0  0
 40 58  1  0  0  0
 41109  1  0  0  0
 41110  1  0  0  0
 41111  1  0  0  0
 41 48  1  0  0  0
 42 43  1  0  0  0
 42 66  1  0  0  0
 42112  1  0  0  0
 42113  1  0  0  0
 43 44  1  0  0  0
 44114  1  0  0  0
 45 46  2  0  0  0
 45115  1  0  0  0
 46116  1  0  0  0
 47117  1  0  0  0
 47118  1  0  0  0
 48 56  1  0  0  0
 48 65  1  0  0  0
 48119  1  0  0  0
 49 50  1  0  0  0
 49 53  1  0  0  0
 49 64  1  0  0  0
 49120  1  0  0  0
 50 51  1  0  0  0
 50121  1  0  0  0
 50122  1  0  0  0
 51 52  1  0  0  0
 51123  1  0  0  0
 51124  1  0  0  0
 52125  1  0  0  0
 52126  1  0  0  0
 53 54  1  0  0  0
 54 55  2  0  0  0
 54127  1  0  0  0
 55 57  1  0  0  0
 55128  1  0  0  0
 56 69  2  0  0  0
 57 58  2  0  0  0
 57129  1  0  0  0
 58130  1  0  0  0
 59 60  1  0  0  0
 59 61  1  0  0  0
 59 62  1  0  0  0
 60131  1  0  0  0
 60132  1  0  0  0
 60133  1  0  0  0
 61134  1  0  0  0
 61135  1  0  0  0
 61136  1  0  0  0
 62137  1  0  0  0
 62138  1  0  0  0
 62139  1  0  0  0
 63 65  1  0  0  0
 63140  1  0  0  0
 63141  1  0  0  0
 63142  1  0  0  0
 64143  1  0  0  0
 65144  1  0  0  0
 68 80  1  0  0  0
 71 75  2  0  0  0
 71 76  1  0  0  0
 71145  1  0  0  0
 72 73  1  0  0  0
 72 74  2  0  0  0
 72 77  1  0  0  0
 73 76  2  0  0  0
 73 79  1  0  0  0
 74 75  1  0  0  0
 74 82  1  0  0  0
 75 84  1  0  0  0
 76 85  1  0  0  0
 77146  1  0  0  0
 77147  1  0  0  0
 77148  1  0  0  0
 78149  1  0  0  0
 78150  1  0  0  0
 78151  1  0  0  0
 78 81  1  0  0  0
 79 83  1  0  0  0
 79152  1  0  0  0
 79153  1  0  0  0
 80 81  1  0  0  0
 80154  1  0  0  0
 80155  1  0  0  0
 81 83  1  0  0  0
 81156  1  0  0  0
 82157  1  0  0  0
 83158  1  0  0  0
 83159  1  0  0  0
M  CHG  1  83   1
M  ISO  4   1 100  68 101  80 101  82 100
M  END
> <chiral flag>
0

> <version>
0

> <s_m_source_file>
/data/baiqing/PycharmProjects/Reinvent-master-3.2/result/LINK_invent/BTK/process_docking_weight1_custom_sum_contain_oxygen_bond_distance_aromatic_linkinvent_7_9_3/rearranged_h_0017.sdf

> <i_m_source_file_index>
12

> <r_mmod_Potential_Energy-OPLS-2005>
-40.9679374694824

> <r_mmod_Stretch_Energy-OPLS-2005>
120.305000305176

> <r_mmod_Bend_Energy-OPLS-2005>
151.343460083008

> <r_mmod_Torsional_Energy-OPLS-2005>
236.282150268555

> <r_mmod_Improper_Torsional_Energy-OPLS-2005>
4.96276903152466

> <r_mmod_Van_der_Waal_Energy-OPLS-2005>
148.927886962891

> <r_mmod_Electrostatic_Energy-OPLS-2005>
-314.323883056641

> <r_mmod_Solvation_Energy-OPLS-2005>
-464.039184570312

> <b_mmod_Minimization_Converged-OPLS-2005>
0

> <r_mmod_RMS_Derivative-OPLS-2005>
1.46830034255981

$$$$
12
                    3D
 Structure written by MMmdl.
181190  0  0  1  0            999 V2000
  -30.5616  -14.9470   20.4230 C   0  0  0  0  0  0
  -30.4435  -12.5943   19.4935 C   0  0  0  0  0  0
  -29.5165  -12.5240   18.2594 C   0  0  0  0  0  0
  -28.0548  -12.2979   18.6887 C   0  0  0  0  0  0
  -27.6304  -13.2461   19.8393 C   0  0  2  0  0  0
  -28.6778  -13.2743   20.9747 C   0  0  0  0  0  0
  -25.2480  -13.8234   20.5717 C   0  0  0  0  0  0
  -24.1767  -13.0455   20.9223 C   0  0  0  0  0  0
  -24.6359  -11.6953   20.8758 C   0  0  0  0  0  0
  -23.9018  -10.4308   21.0378 C   0  0  0  0  0  0
  -24.3574   -9.4242   21.9162 C   0  0  0  0  0  0
  -23.6274   -8.2261   22.0717 C   0  0  0  0  0  0
  -22.4267   -8.0268   21.3514 C   0  0  0  0  0  0
  -21.9885   -9.0244   20.4625 C   0  0  0  0  0  0
  -22.7183  -10.2138   20.3044 C   0  0  0  0  0  0
  -21.6878   -6.0732   22.5273 C   0  0  0  0  0  0
  -21.4027   -6.5627   23.8212 C   0  0  0  0  0  0
  -21.3657   -5.6762   24.9171 C   0  0  0  0  0  0
  -21.6046   -4.3034   24.7220 C   0  0  0  0  0  0
  -21.8827   -3.8135   23.4344 C   0  0  0  0  0  0
  -21.9190   -4.6944   22.3397 C   0  0  0  0  0  0
  -22.7791  -13.5249   21.1901 C   0  0  0  0  0  0
  -22.1670   -4.2107   21.0979 F   0  0  0  0  0  0
  -21.5597   -3.4529   25.7752 F   0  0  0  0  0  0
  -29.9548  -13.6907   20.3754 N   0  0  0  0  0  0
  -26.2877  -12.9443   20.3258 N   0  0  0  0  0  0
  -25.9303  -11.6578   20.5747 N   0  0  0  0  0  0
  -22.0427  -12.8232   22.0442 N   0  0  0  0  0  0
  -25.4203  -15.1936   20.4089 N   0  0  0  0  0  0
  -31.7626  -15.0095   20.1415 O   0  0  0  0  0  0
  -21.6662   -6.8863   21.4230 O   0  0  0  0  0  0
  -22.3458  -14.5540   20.6730 O   0  0  0  0  0  0
  -24.6474  -31.8455   23.1864 C   0  0  0  0  0  0
  -25.9224  -32.4692   23.8288 C   0  0  1  0  0  0
  -27.2339  -27.1101   20.1210 C   0  0  0  0  0  0
  -25.5977  -33.8519   24.2228 N   0  0  0  0  0  0
  -23.4525  -30.4674   21.5304 C   0  0  2  0  0  0
  -24.9019  -28.8964   20.0918 C   0  0  0  0  0  0
  -22.7596  -29.4565   22.4796 C   0  0  0  0  0  0
  -18.0322  -28.1401   22.8457 C   0  0  0  0  0  0
  -24.1489  -36.7265   23.2645 C   0  0  0  0  0  0
  -26.0114  -30.7033   21.3912 C   0  0  0  0  0  0
  -26.0774  -29.3150   20.7247 C   0  0  0  0  0  0
  -27.2263  -28.4359   20.7325 C   0  0  0  0  0  0
  -26.0308  -26.8145   19.4347 C   0  0  0  0  0  0
  -24.8961  -27.6591   19.4304 C   0  0  0  0  0  0
  -23.6785  -29.8008   20.1469 C   0  0  0  0  0  0
  -25.4119  -36.3077   24.0336 C   0  0  1  0  0  0
  -20.5926  -28.3769   23.1177 C   0  0  2  0  0  0
  -20.6803  -26.9468   22.5370 C   0  0  0  0  0  0
  -19.5770  -26.6395   21.5187 C   0  0  0  0  0  0
  -18.1956  -26.7932   22.1609 C   0  0  0  0  0  0
  -19.1571  -28.8899   23.2809 C   0  0  0  0  0  0
  -18.9501  -30.1477   23.8867 C   0  0  0  0  0  0
  -17.6494  -30.6591   24.0569 C   0  0  0  0  0  0
  -25.9088  -34.9422   23.5103 C   0  0  0  0  0  0
  -16.5387  -29.9095   23.6310 C   0  0  0  0  0  0
  -16.7304  -28.6503   23.0345 C   0  0  0  0  0  0
  -26.4530  -31.6561   25.0746 C   0  0  0  0  0  0
  -25.3691  -31.3730   26.1424 C   0  0  0  0  0  0
  -27.0404  -30.2965   24.6333 C   0  0  0  0  0  0
  -27.6103  -32.4297   25.7513 C   0  0  0  0  0  0
  -27.5584  -37.1798   24.8466 C   0  0  0  0  0  0
  -21.4283  -29.3098   22.3557 N   0  0  0  0  0  0
  -26.4290  -37.3779   23.9417 N   0  0  0  0  0  0
  -24.7251  -31.0289   22.0883 N   0  0  0  0  0  0
  -23.4223  -28.8107   23.2944 O   0  0  0  0  0  0
  -28.2809  -26.1256   20.3729 O   0  0  0  0  0  0
  -26.5672  -34.8930   22.4688 O   0  0  0  0  0  0
  -23.5575  -32.1335   23.7066 O   0  0  0  0  0  0
  -29.6379  -25.4927   18.5572 C   0  0  0  0  0  0
  -28.0743  -21.0178   16.6399 C   0  0  0  0  0  0
  -28.6744  -25.6665   17.3617 C   0  0  0  0  0  0
  -27.4377  -23.6499   18.1824 C   0  0  0  0  0  0
  -28.5540  -20.7568   18.0683 C   0  0  2  0  0  0
  -28.5635  -23.2340   19.1348 C   0  0  1  0  0  0
  -28.9277  -24.8129   19.7553 C   0  0  2  0  0  0
  -27.4093  -19.9351   17.4364 C   0  0  0  0  0  0
  -25.9319  -20.1313   17.7631 C   0  0  0  0  0  0
  -27.6377  -18.5033   16.9871 C   0  0  0  0  0  0
  -25.5578  -18.4461   22.3425 C   0  0  0  0  0  0
  -26.5145  -18.7482   21.1846 C   0  0  0  0  0  0
  -27.9978  -18.6828   21.5930 C   0  0  0  0  0  0
  -30.1421  -17.6842   20.4534 C   0  0  0  0  0  0
  -28.4197  -21.5115   19.4480 C   0  0  2  0  0  0
  -28.9884  -18.9297   20.4270 C   0  0  1  0  0  0
  -29.7968  -16.1355   20.5806 N   0  0  0  0  0  0
  -27.9517  -24.4194   17.0178 N   0  3  0  0  0  0
  -29.3119  -20.5129   20.3189 N   0  3  0  0  0  0
  -31.4709  -12.7600   19.1660 H   0  0  0  0  0  0
  -30.4509  -11.6446   20.0318 H   0  0  0  0  0  0
  -29.8434  -11.7230   17.5931 H   0  0  0  0  0  0
  -29.5863  -13.4552   17.6928 H   0  0  0  0  0  0
  -27.9632  -11.2614   19.0194 H   0  0  0  0  0  0
  -27.3872  -12.4063   17.8340 H   0  0  0  0  0  0
  -27.5915  -14.2443   19.4025 H   0  0  0  0  0  0
  -28.7754  -12.2879   21.4321 H   0  0  0  0  0  0
  -28.3840  -13.9624   21.7670 H   0  0  0  0  0  0
  -25.2693   -9.5750   22.4763 H   0  0  0  0  0  0
  -23.9998   -7.4656   22.7415 H   0  0  0  0  0  0
  -21.0825   -8.8745   19.8930 H   0  0  0  0  0  0
  -22.3598  -10.9678   19.6166 H   0  0  0  0  0  0
  -21.2073   -7.6136   23.9701 H   0  0  0  0  0  0
  -21.1453   -6.0503   25.9059 H   0  0  0  0  0  0
  -22.0623   -2.7581   23.2880 H   0  0  0  0  0  0
  -22.4045  -11.9920   22.4876 H   0  0  0  0  0  0
  -21.1023  -13.1237   22.2613 H   0  0  0  0  0  0
  -24.6615  -15.8580   20.5180 H   0  0  0  0  0  0
  -26.2678  -15.6153   20.0566 H   0  0  0  0  0  0
  -26.7314  -32.5287   23.1034 H   0  0  0  0  0  0
  -25.0155  -33.9634   25.0400 H   0  0  0  0  0  0
  -22.7558  -31.2951   21.3805 H   0  0  0  0  0  0
  -23.3776  -35.9569   23.3293 H   0  0  0  0  0  0
  -24.3573  -36.8904   22.2062 H   0  0  0  0  0  0
  -23.7190  -37.6443   23.6666 H   0  0  0  0  0  0
  -26.1752  -31.4515   20.6144 H   0  0  0  0  0  0
  -26.8796  -30.7512   22.0378 H   0  0  0  0  0  0
  -28.1046  -28.7456   21.2797 H   0  0  0  0  0  0
  -25.8696  -25.8921   18.9272 H   0  0  0  0  0  0
  -24.0016  -27.3321   18.9164 H   0  0  0  0  0  0
  -23.8106  -30.5798   19.3955 H   0  0  0  0  0  0
  -22.7881  -29.2512   19.8363 H   0  0  0  0  0  0
  -25.1282  -36.1942   25.0821 H   0  0  0  0  0  0
  -21.0037  -28.3401   24.1288 H   0  0  0  0  0  0
  -20.5665  -26.2437   23.3627 H   0  0  0  0  0  0
  -21.6677  -26.7450   22.1196 H   0  0  0  0  0  0
  -19.6949  -25.6296   21.1246 H   0  0  0  0  0  0
  -19.6672  -27.3176   20.6691 H   0  0  0  0  0  0
  -17.4219  -26.6651   21.4024 H   0  0  0  0  0  0
  -18.0384  -26.0074   22.9012 H   0  0  0  0  0  0
  -19.7985  -30.7276   24.2244 H   0  0  0  0  0  0
  -17.5063  -31.6254   24.5200 H   0  0  0  0  0  0
  -15.5384  -30.3007   23.7636 H   0  0  0  0  0  0
  -15.8706  -28.0818   22.7081 H   0  0  0  0  0  0
  -24.5881  -30.7090   25.7696 H   0  0  0  0  0  0
  -24.8861  -32.2899   26.4827 H   0  0  0  0  0  0
  -25.7943  -30.8888   27.0231 H   0  0  0  0  0  0
  -26.3038  -29.6684   24.1313 H   0  0  0  0  0  0
  -27.3994  -29.7268   25.4919 H   0  0  0  0  0  0
  -27.8955  -30.4225   23.9685 H   0  0  0  0  0  0
  -27.2756  -33.3623   26.2074 H   0  0  0  0  0  0
  -28.3909  -32.6805   25.0312 H   0  0  0  0  0  0
  -28.0782  -31.8418   26.5425 H   0  0  0  0  0  0
  -28.2609  -38.0102   24.7541 H   0  0  0  0  0  0
  -28.1083  -36.2631   24.6250 H   0  0  0  0  0  0
  -27.2319  -37.1403   25.8881 H   0  0  0  0  0  0
  -20.9524  -29.8880   21.6770 H   0  0  0  0  0  0
  -26.0179  -38.2867   24.1395 H   0  0  0  0  0  0
  -30.0435  -26.4631   18.8436 H   0  0  0  0  0  0
  -30.5090  -24.9166   18.2432 H   0  0  0  0  0  0
  -28.7571  -20.6935   15.8554 H   0  0  0  0  0  0
  -27.4007  -21.7919   16.2990 H   0  0  0  0  0  0
  -29.2218  -26.0124   16.4848 H   0  0  0  0  0  0
  -27.9448  -26.4417   17.5751 H   0  0  0  0  0  0
  -26.7297  -24.1973   18.7715 H   0  0  0  0  0  0
  -26.8021  -22.8453   17.8667 H   0  0  0  0  0  0
  -29.5578  -20.3342   17.9776 H   0  0  0  0  0  0
  -29.4642  -23.0739   18.5413 H   0  0  0  0  0  0
  -29.7043  -24.6108   20.4953 H   0  0  0  0  0  0
  -25.7374  -21.0713   18.2710 H   0  0  0  0  0  0
  -25.5660  -19.3316   18.4052 H   0  0  0  0  0  0
  -25.3432  -20.1198   16.8421 H   0  0  0  0  0  0
  -28.6855  -18.3323   16.7348 H   0  0  0  0  0  0
  -27.0331  -18.2811   16.1049 H   0  0  0  0  0  0
  -27.3514  -17.7994   17.7701 H   0  0  0  0  0  0
  -25.6851  -17.4232   22.6986 H   0  0  0  0  0  0
  -24.5214  -18.5593   22.0267 H   0  0  0  0  0  0
  -25.7174  -19.1225   23.1824 H   0  0  0  0  0  0
  -26.2763  -19.7295   20.7858 H   0  0  0  0  0  0
  -26.3244  -18.0389   20.3794 H   0  0  0  0  0  0
  -28.1735  -17.6988   22.0297 H   0  0  0  0  0  0
  -28.1974  -19.3800   22.4058 H   0  0  0  0  0  0
  -30.8498  -17.9036   21.2537 H   0  0  0  0  0  0
  -30.7277  -17.7740   19.5401 H   0  0  0  0  0  0
  -27.4080  -21.3827   19.8244 H   0  0  0  0  0  0
  -28.4420  -18.6779   19.5270 H   0  0  0  0  0  0
  -28.8325  -15.9475   20.8105 H   0  0  0  0  0  0
  -28.5695  -23.8331   16.4779 H   0  0  0  0  0  0
  -27.1837  -24.6614   16.4105 H   0  0  0  0  0  0
  -30.2471  -20.5853   19.9568 H   0  0  0  0  0  0
  -29.3591  -20.8698   21.2595 H   0  0  0  0  0  0
  1 25  1  0  0  0
  1 30  2  0  0  0
  1 87  1  0  0  0
  2  3  1  0  0  0
  2 25  1  0  0  0
  2 90  1  0  0  0
  2 91  1  0  0  0
  3  4  1  0  0  0
  3 92  1  0  0  0
  3 93  1  0  0  0
  4  5  1  0  0  0
  4 94  1  0  0  0
  4 95  1  0  0  0
  5  6  1  0  0  0
  5 26  1  0  0  0
  5 96  1  0  0  0
  6 25  1  0  0  0
  6 97  1  0  0  0
  6 98  1  0  0  0
  7  8  2  0  0  0
  7 26  1  0  0  0
  7 29  1  0  0  0
  8  9  1  0  0  0
  8 22  1  0  0  0
  9 10  1  0  0  0
  9 27  2  0  0  0
 10 11  2  0  0  0
 10 15  1  0  0  0
 11 12  1  0  0  0
 11 99  1  0  0  0
 12 13  2  0  0  0
 12100  1  0  0  0
 13 14  1  0  0  0
 13 31  1  0  0  0
 14 15  2  0  0  0
 14101  1  0  0  0
 15102  1  0  0  0
 16 17  2  0  0  0
 16 21  1  0  0  0
 16 31  1  0  0  0
 17 18  1  0  0  0
 17103  1  0  0  0
 18 19  2  0  0  0
 18104  1  0  0  0
 19 20  1  0  0  0
 19 24  1  0  0  0
 20 21  2  0  0  0
 20105  1  0  0  0
 21 23  1  0  0  0
 22 28  1  0  0  0
 22 32  2  0  0  0
 26 27  1  0  0  0
 28106  1  0  0  0
 28107  1  0  0  0
 29108  1  0  0  0
 29109  1  0  0  0
 33 34  1  0  0  0
 33 66  1  0  0  0
 33 70  2  0  0  0
 34 36  1  0  0  0
 34 59  1  0  0  0
 34110  1  0  0  0
 35 44  2  0  0  0
 35 45  1  0  0  0
 35 68  1  0  0  0
 36 56  1  0  0  0
 36111  1  0  0  0
 37 39  1  0  0  0
 37 47  1  0  0  0
 37 66  1  0  0  0
 37112  1  0  0  0
 38 43  2  0  0  0
 38 46  1  0  0  0
 38 47  1  0  0  0
 39 64  1  0  0  0
 39 67  2  0  0  0
 40 52  1  0  0  0
 40 53  2  0  0  0
 40 58  1  0  0  0
 41113  1  0  0  0
 41114  1  0  0  0
 41115  1  0  0  0
 41 48  1  0  0  0
 42 43  1  0  0  0
 42 66  1  0  0  0
 42116  1  0  0  0
 42117  1  0  0  0
 43 44  1  0  0  0
 44118  1  0  0  0
 45 46  2  0  0  0
 45119  1  0  0  0
 46120  1  0  0  0
 47121  1  0  0  0
 47122  1  0  0  0
 48 56  1  0  0  0
 48 65  1  0  0  0
 48123  1  0  0  0
 49 50  1  0  0  0
 49 53  1  0  0  0
 49 64  1  0  0  0
 49124  1  0  0  0
 50 51  1  0  0  0
 50125  1  0  0  0
 50126  1  0  0  0
 51 52  1  0  0  0
 51127  1  0  0  0
 51128  1  0  0  0
 52129  1  0  0  0
 52130  1  0  0  0
 53 54  1  0  0  0
 54 55  2  0  0  0
 54131  1  0  0  0
 55 57  1  0  0  0
 55132  1  0  0  0
 56 69  2  0  0  0
 57 58  2  0  0  0
 57133  1  0  0  0
 58134  1  0  0  0
 59 60  1  0  0  0
 59 61  1  0  0  0
 59 62  1  0  0  0
 60135  1  0  0  0
 60136  1  0  0  0
 60137  1  0  0  0
 61138  1  0  0  0
 61139  1  0  0  0
 61140  1  0  0  0
 62141  1  0  0  0
 62142  1  0  0  0
 62143  1  0  0  0
 63 65  1  0  0  0
 63144  1  0  0  0
 63145  1  0  0  0
 63146  1  0  0  0
 64147  1  0  0  0
 65148  1  0  0  0
 68 77  1  0  0  0
 71 73  1  0  0  0
 71 77  1  0  0  0
 71149  1  0  0  0
 71150  1  0  0  0
 72 78  1  0  0  0
 72151  1  0  0  0
 72152  1  0  0  0
 72 75  1  0  0  0
 73 88  1  0  0  0
 73153  1  0  0  0
 73154  1  0  0  0
 74 88  1  0  0  0
 74155  1  0  0  0
 74156  1  0  0  0
 74 76  1  0  0  0
 75 78  1  0  0  0
 75 85  1  0  0  0
 75157  1  0  0  0
 76 77  1  0  0  0
 76 85  1  0  0  0
 76158  1  0  0  0
 77159  1  0  0  0
 78 79  1  0  0  0
 78 80  1  0  0  0
 79160  1  0  0  0
 79161  1  0  0  0
 79162  1  0  0  0
 80163  1  0  0  0
 80164  1  0  0  0
 80165  1  0  0  0
 81 82  1  0  0  0
 81166  1  0  0  0
 81167  1  0  0  0
 81168  1  0  0  0
 82 83  1  0  0  0
 82169  1  0  0  0
 82170  1  0  0  0
 83171  1  0  0  0
 83172  1  0  0  0
 83 86  1  0  0  0
 84 86  1  0  0  0
 84 87  1  0  0  0
 84173  1  0  0  0
 84174  1  0  0  0
 85 89  1  0  0  0
 85175  1  0  0  0
 86 89  1  0  0  0
 86176  1  0  0  0
 87177  1  0  0  0
 88178  1  0  0  0
 88179  1  0  0  0
 89180  1  0  0  0
 89181  1  0  0  0
M  CHG  2  88   1  89   1
M  ISO  4   1 100  68 101  77 101  87 100
M  END
> <chiral flag>
0

> <version>
0

> <s_m_source_file>
/data/baiqing/PycharmProjects/Reinvent-master-3.2/result/LINK_invent/BTK/process_docking_weight1_custom_sum_contain_oxygen_bond_distance_aromatic_linkinvent_7_9_3/rearranged_h_0017.sdf

> <i_m_source_file_index>
13

> <r_mmod_Potential_Energy-OPLS-2005>
754.011962890625

> <r_mmod_Stretch_Energy-OPLS-2005>
364.546508789062

> <r_mmod_Bend_Energy-OPLS-2005>
613.906005859375

> <r_mmod_Torsional_Energy-OPLS-2005>
367.574493408203

> <r_mmod_Improper_Torsional_Energy-OPLS-2005>
5.1803092956543

> <r_mmod_Van_der_Waal_Energy-OPLS-2005>
135.4482421875

> <r_mmod_Electrostatic_Energy-OPLS-2005>
33.7683334350586

> <r_mmod_Solvation_Energy-OPLS-2005>
-975.770385742188

> <b_mmod_Minimization_Converged-OPLS-2005>
0

> <r_mmod_RMS_Derivative-OPLS-2005>
4.55850267410278

$$$$
13
                    3D
 Structure written by MMmdl.
168175  0  0  1  0            999 V2000
  -29.0462  -16.1284   20.8044 C   0  0  0  0  0  0
  -30.1412  -13.6525   19.7720 C   0  0  0  0  0  0
  -29.5212  -12.8953   18.5246 C   0  0  0  0  0  0
  -28.1447  -12.3056   18.8596 C   0  0  0  0  0  0
  -27.4583  -13.2666   19.8391 C   0  0  2  0  0  0
  -28.2760  -13.5926   21.0816 C   0  0  0  0  0  0
  -25.1543  -13.8043   20.5609 C   0  0  0  0  0  0
  -24.1064  -13.0222   20.9279 C   0  0  0  0  0  0
  -24.5803  -11.6744   20.8765 C   0  0  0  0  0  0
  -23.8677  -10.4133   21.0446 C   0  0  0  0  0  0
  -24.3375   -9.4108   21.9197 C   0  0  0  0  0  0
  -23.6161   -8.2092   22.0732 C   0  0  0  0  0  0
  -22.4142   -8.0108   21.3526 C   0  0  0  0  0  0
  -21.9671   -9.0025   20.4627 C   0  0  0  0  0  0
  -22.6892  -10.1953   20.3062 C   0  0  0  0  0  0
  -21.6802   -6.0627   22.5285 C   0  0  0  0  0  0
  -21.3987   -6.5578   23.8205 C   0  0  0  0  0  0
  -21.3659   -5.6760   24.9186 C   0  0  0  0  0  0
  -21.6051   -4.3019   24.7253 C   0  0  0  0  0  0
  -21.8833   -3.8078   23.4381 C   0  0  0  0  0  0
  -21.9181   -4.6872   22.3422 C   0  0  0  0  0  0
  -22.7197  -13.5030   21.2083 C   0  0  0  0  0  0
  -22.1657   -4.2056   21.1001 F   0  0  0  0  0  0
  -21.5633   -3.4521   25.7776 F   0  0  0  0  0  0
  -29.1374  -14.6201   20.5637 N   0  0  0  0  0  0
  -26.1637  -12.9152   20.2767 N   0  0  0  0  0  0
  -25.8608  -11.6319   20.5478 N   0  0  0  0  0  0
  -21.9968  -12.8015   22.0715 N   0  0  0  0  0  0
  -25.3322  -15.1810   20.4275 N   0  0  0  0  0  0
  -30.3055  -16.3021   20.5949 O   0  0  0  0  0  0
  -21.6577   -6.8692   21.4209 O   0  0  0  0  0  0
  -22.2921  -14.5363   20.6967 O   0  0  0  0  0  0
  -24.6496  -31.9152   23.2237 C   0  0  0  0  0  0
  -25.9385  -32.5041   23.8566 C   0  0  1  0  0  0
  -27.0603  -27.4073   19.9919 C   0  0  0  0  0  0
  -25.6212  -33.8795   24.2515 N   0  0  0  0  0  0
  -23.4476  -30.5436   21.6125 C   0  0  2  0  0  0
  -24.8185  -29.0813   20.0741 C   0  0  0  0  0  0
  -23.0251  -29.4341   22.5889 C   0  0  0  0  0  0
  -18.3766  -27.2105   23.1401 C   0  0  0  0  0  0
  -24.1489  -36.7386   23.2607 C   0  0  0  0  0  0
  -25.9821  -30.8339   21.4038 C   0  0  0  0  0  0
  -26.0023  -29.4811   20.7165 C   0  0  0  0  0  0
  -27.1391  -28.6273   20.7150 C   0  0  0  0  0  0
  -25.9288  -27.1554   19.2075 C   0  0  0  0  0  0
  -24.7803  -27.9207   19.3086 C   0  0  0  0  0  0
  -23.6071  -29.9704   20.1860 C   0  0  0  0  0  0
  -25.4114  -36.3221   24.0333 C   0  0  1  0  0  0
  -21.3928  -27.7602   23.0434 C   0  0  2  0  0  0
  -21.9636  -26.7540   21.2350 C   0  0  0  0  0  0
  -20.1328  -25.4908   20.4704 C   0  0  0  0  0  0
  -18.5224  -25.7430   21.9527 C   0  0  0  0  0  0
  -19.6261  -28.0474   23.6435 C   0  0  0  0  0  0
  -19.2956  -29.4328   24.0427 C   0  0  0  0  0  0
  -18.0130  -30.0656   24.0206 C   0  0  0  0  0  0
  -25.9097  -34.9600   23.5153 C   0  0  0  0  0  0
  -16.9121  -29.3267   23.5730 C   0  0  0  0  0  0
  -17.1085  -27.9720   23.1459 C   0  0  0  0  0  0
  -26.4606  -31.6695   25.0889 C   0  0  0  0  0  0
  -25.3771  -31.3823   26.1540 C   0  0  0  0  0  0
  -27.0395  -30.3103   24.6316 C   0  0  0  0  0  0
  -27.6176  -32.4318   25.7752 C   0  0  0  0  0  0
  -27.5590  -37.1896   24.8464 C   0  0  0  0  0  0
  -21.7644  -29.1302   22.6773 N   0  0  0  0  0  0
  -26.4301  -37.3908   23.9413 N   0  0  0  0  0  0
  -24.7119  -31.1428   22.1079 N   0  0  0  0  0  0
  -23.8334  -28.8213   23.2743 O   0  0  0  0  0  0
  -27.9251  -26.3503   20.1110 O   0  0  0  0  0  0
  -26.5528  -34.9002   22.4629 O   0  0  0  0  0  0
  -23.5666  -32.1817   23.7640 O   0  0  0  0  0  0
  -22.5404  -24.2646   22.6545 C   0  0  0  0  0  0
  -19.8943  -27.4708   21.3458 C   0  0  0  0  0  0
  -23.6321  -22.3113   22.5803 C   0  0  0  0  0  0
  -24.9765  -20.5633   21.7507 C   0  0  0  0  0  0
  -23.4375  -23.9099   19.6611 C   0  0  0  0  0  0
  -22.2034  -22.8875   19.9391 C   0  0  0  0  0  0
  -24.9036  -23.6781   20.2670 C   0  0  0  0  0  0
  -21.1293  -22.6740   21.1723 C   0  0  0  0  0  0
  -26.2956  -24.1931   19.6785 C   0  0  0  0  0  0
  -26.7030  -18.9967   21.7688 C   0  0  0  0  0  0
  -20.5452  -23.7110   22.3489 C   0  0  0  0  0  0
  -27.1716  -25.1712   20.6118 C   0  0  0  0  0  0
  -27.7575  -17.3155   21.0920 N   0  0  0  0  0  0
  -21.0057  -25.2120   22.5507 N   0  0  0  0  0  0
  -23.4194  -25.0269   23.0631 O   0  0  0  0  0  0
  -30.9928  -14.2298   19.4131 H   0  0  0  0  0  0
  -30.6124  -12.9429   20.4550 H   0  0  0  0  0  0
  -30.2007  -12.1292   18.1493 H   0  0  0  0  0  0
  -29.3975  -13.6238   17.7225 H   0  0  0  0  0  0
  -28.2653  -11.3267   19.3285 H   0  0  0  0  0  0
  -27.5484  -12.1634   17.9603 H   0  0  0  0  0  0
  -27.3019  -14.1694   19.2381 H   0  0  0  0  0  0
  -28.7631  -12.7175   21.5202 H   0  0  0  0  0  0
  -27.6760  -14.0457   21.8743 H   0  0  0  0  0  0
  -25.2498   -9.5692   22.4773 H   0  0  0  0  0  0
  -23.9935   -7.4473   22.7404 H   0  0  0  0  0  0
  -21.0616   -8.8439   19.8929 H   0  0  0  0  0  0
  -22.3257  -10.9478   19.6197 H   0  0  0  0  0  0
  -21.1976   -7.6087   23.9677 H   0  0  0  0  0  0
  -21.1486   -6.0501   25.9086 H   0  0  0  0  0  0
  -22.0625   -2.7533   23.2917 H   0  0  0  0  0  0
  -22.3651  -11.9654   22.5012 H   0  0  0  0  0  0
  -21.0648  -13.1055   22.3178 H   0  0  0  0  0  0
  -24.5829  -15.8412   20.5998 H   0  0  0  0  0  0
  -26.2044  -15.6382   20.1914 H   0  0  0  0  0  0
  -26.7501  -32.5655   23.1351 H   0  0  0  0  0  0
  -25.0501  -33.9964   25.0759 H   0  0  0  0  0  0
  -22.6601  -31.2980   21.5794 H   0  0  0  0  0  0
  -23.3758  -35.9713   23.3299 H   0  0  0  0  0  0
  -24.3599  -36.8973   22.2020 H   0  0  0  0  0  0
  -23.7224  -37.6600   23.6581 H   0  0  0  0  0  0
  -26.1542  -31.6076   20.6542 H   0  0  0  0  0  0
  -26.8555  -30.8344   22.0435 H   0  0  0  0  0  0
  -28.0207  -28.8584   21.2966 H   0  0  0  0  0  0
  -25.8756  -26.3591   18.4952 H   0  0  0  0  0  0
  -23.9132  -27.6684   18.7140 H   0  0  0  0  0  0
  -23.7335  -30.7984   19.4867 H   0  0  0  0  0  0
  -22.7019  -29.4601   19.8598 H   0  0  0  0  0  0
  -25.1264  -36.2133   25.0832 H   0  0  0  0  0  0
  -21.9525  -27.3777   23.8998 H   0  0  0  0  0  0
  -22.9629  -26.3402   21.2473 H   0  0  0  0  0  0
  -22.2101  -27.4745   20.4572 H   0  0  0  0  0  0
  -20.2687  -24.5200   20.0462 H   0  0  0  0  0  0
  -19.7912  -25.9242   19.5233 H   0  0  0  0  0  0
  -17.6131  -25.7635   21.3490 H   0  0  0  0  0  0
  -18.2668  -24.9237   22.6127 H   0  0  0  0  0  0
  -20.1179  -30.0682   24.3388 H   0  0  0  0  0  0
  -17.9037  -31.0990   24.3187 H   0  0  0  0  0  0
  -15.9338  -29.7862   23.5181 H   0  0  0  0  0  0
  -16.2413  -27.4780   22.7281 H   0  0  0  0  0  0
  -24.5962  -30.7193   25.7809 H   0  0  0  0  0  0
  -24.8943  -32.2984   26.4951 H   0  0  0  0  0  0
  -25.8044  -30.8995   27.0337 H   0  0  0  0  0  0
  -26.2989  -29.6960   24.1190 H   0  0  0  0  0  0
  -27.3913  -29.7279   25.4844 H   0  0  0  0  0  0
  -27.8953  -30.4360   23.9678 H   0  0  0  0  0  0
  -27.2826  -33.3597   26.2391 H   0  0  0  0  0  0
  -28.4044  -32.6898   25.0651 H   0  0  0  0  0  0
  -28.0762  -31.8356   26.5655 H   0  0  0  0  0  0
  -28.2631  -38.0172   24.7506 H   0  0  0  0  0  0
  -28.1067  -36.2717   24.6289 H   0  0  0  0  0  0
  -27.2306  -37.1550   25.8866 H   0  0  0  0  0  0
  -21.0780  -29.6968   22.1976 H   0  0  0  0  0  0
  -26.0204  -38.2986   24.1449 H   0  0  0  0  0  0
  -19.9310  -28.5493   21.4995 H   0  0  0  0  0  0
  -18.9072  -27.5569   20.8507 H   0  0  0  0  0  0
  -20.2267  -27.7689   20.3301 H   0  0  0  0  0  0
  -22.9203  -21.7214   23.1594 H   0  0  0  0  0  0
  -24.3448  -22.6046   23.3507 H   0  0  0  0  0  0
  -24.8617  -20.6581   20.6748 H   0  0  0  0  0  0
  -24.2144  -19.8085   21.9444 H   0  0  0  0  0  0
  -23.1162  -24.9347   19.7653 H   0  0  0  0  0  0
  -23.5762  -23.8609   18.5794 H   0  0  0  0  0  0
  -22.6032  -21.8907   19.7420 H   0  0  0  0  0  0
  -21.5667  -23.0354   19.0665 H   0  0  0  0  0  0
  -25.0158  -22.6089   20.2398 H   0  0  0  0  0  0
  -24.9187  -23.9759   21.3064 H   0  0  0  0  0  0
  -21.3730  -21.7292   21.6635 H   0  0  0  0  0  0
  -20.2246  -22.3272   20.6663 H   0  0  0  0  0  0
  -26.2110  -24.4528   18.6292 H   0  0  0  0  0  0
  -26.9218  -23.3025   19.5601 H   0  0  0  0  0  0
  -26.5885  -18.6606   22.7999 H   0  0  0  0  0  0
  -27.5516  -19.6773   21.8264 H   0  0  0  0  0  0
  -20.5518  -23.2299   23.3379 H   0  0  0  0  0  0
  -19.4964  -23.5512   22.1771 H   0  0  0  0  0  0
  -27.8759  -24.5665   21.1837 H   0  0  0  0  0  0
  -26.4953  -25.5435   21.3864 H   0  0  0  0  0  0
  -28.3756  -17.9564   20.6080 H   0  0  0  0  0  0
  1 25  1  0  0  0
  1 30  2  0  0  0
  1 83  1  0  0  0
  2  3  1  0  0  0
  2 25  1  0  0  0
  2 86  1  0  0  0
  2 87  1  0  0  0
  3  4  1  0  0  0
  3 88  1  0  0  0
  3 89  1  0  0  0
  4  5  1  0  0  0
  4 90  1  0  0  0
  4 91  1  0  0  0
  5  6  1  0  0  0
  5 26  1  0  0  0
  5 92  1  0  0  0
  6 25  1  0  0  0
  6 93  1  0  0  0
  6 94  1  0  0  0
  7  8  2  0  0  0
  7 26  1  0  0  0
  7 29  1  0  0  0
  8  9  1  0  0  0
  8 22  1  0  0  0
  9 10  1  0  0  0
  9 27  2  0  0  0
 10 11  2  0  0  0
 10 15  1  0  0  0
 11 12  1  0  0  0
 11 95  1  0  0  0
 12 13  2  0  0  0
 12 96  1  0  0  0
 13 14  1  0  0  0
 13 31  1  0  0  0
 14 15  2  0  0  0
 14 97  1  0  0  0
 15 98  1  0  0  0
 16 17  2  0  0  0
 16 21  1  0  0  0
 16 31  1  0  0  0
 17 18  1  0  0  0
 17 99  1  0  0  0
 18 19  2  0  0  0
 18100  1  0  0  0
 19 20  1  0  0  0
 19 24  1  0  0  0
 20 21  2  0  0  0
 20101  1  0  0  0
 21 23  1  0  0  0
 22 28  1  0  0  0
 22 32  2  0  0  0
 26 27  1  0  0  0
 28102  1  0  0  0
 28103  1  0  0  0
 29104  1  0  0  0
 29105  1  0  0  0
 33 34  1  0  0  0
 33 66  1  0  0  0
 33 70  2  0  0  0
 34 36  1  0  0  0
 34 59  1  0  0  0
 34106  1  0  0  0
 35 44  2  0  0  0
 35 45  1  0  0  0
 35 68  1  0  0  0
 36 56  1  0  0  0
 36107  1  0  0  0
 37 39  1  0  0  0
 37 47  1  0  0  0
 37 66  1  0  0  0
 37108  1  0  0  0
 38 43  2  0  0  0
 38 46  1  0  0  0
 38 47  1  0  0  0
 39 64  1  0  0  0
 39 67  2  0  0  0
 40 52  1  0  0  0
 40 53  2  0  0  0
 40 58  1  0  0  0
 41109  1  0  0  0
 41110  1  0  0  0
 41111  1  0  0  0
 41 48  1  0  0  0
 42 43  1  0  0  0
 42 66  1  0  0  0
 42112  1  0  0  0
 42113  1  0  0  0
 43 44  1  0  0  0
 44114  1  0  0  0
 45 46  2  0  0  0
 45115  1  0  0  0
 46116  1  0  0  0
 47117  1  0  0  0
 47118  1  0  0  0
 48 56  1  0  0  0
 48 65  1  0  0  0
 48119  1  0  0  0
 49 50  1  0  0  0
 49 53  1  0  0  0
 49 64  1  0  0  0
 49120  1  0  0  0
 50 51  1  0  0  0
 50121  1  0  0  0
 50122  1  0  0  0
 51 52  1  0  0  0
 51123  1  0  0  0
 51124  1  0  0  0
 52125  1  0  0  0
 52126  1  0  0  0
 53 54  1  0  0  0
 54 55  2  0  0  0
 54127  1  0  0  0
 55 57  1  0  0  0
 55128  1  0  0  0
 56 69  2  0  0  0
 57 58  2  0  0  0
 57129  1  0  0  0
 58130  1  0  0  0
 59 60  1  0  0  0
 59 61  1  0  0  0
 59 62  1  0  0  0
 60131  1  0  0  0
 60132  1  0  0  0
 60133  1  0  0  0
 61134  1  0  0  0
 61135  1  0  0  0
 61136  1  0  0  0
 62137  1  0  0  0
 62138  1  0  0  0
 62139  1  0  0  0
 63 65  1  0  0  0
 63140  1  0  0  0
 63141  1  0  0  0
 63142  1  0  0  0
 64143  1  0  0  0
 65144  1  0  0  0
 68 82  1  0  0  0
 71 73  1  0  0  0
 71 84  1  0  0  0
 71 85  2  0  0  0
 72 84  1  0  0  0
 72145  1  0  0  0
 72146  1  0  0  0
 72147  1  0  0  0
 73 74  1  0  0  0
 73148  1  0  0  0
 73149  1  0  0  0
 74 80  1  0  0  0
 74150  1  0  0  0
 74151  1  0  0  0
 75 76  1  0  0  0
 75 77  1  0  0  0
 75152  1  0  0  0
 75153  1  0  0  0
 76 78  1  0  0  0
 76154  1  0  0  0
 76155  1  0  0  0
 77 79  1  0  0  0
 77156  1  0  0  0
 77157  1  0  0  0
 78 81  1  0  0  0
 78158  1  0  0  0
 78159  1  0  0  0
 79 82  1  0  0  0
 79160  1  0  0  0
 79161  1  0  0  0
 80 83  1  0  0  0
 80162  1  0  0  0
 80163  1  0  0  0
 81 84  1  0  0  0
 81164  1  0  0  0
 81165  1  0  0  0
 82166  1  0  0  0
 82167  1  0  0  0
 83168  1  0  0  0
M  ISO  4   1 100  68 101  82 101  83 100
M  END
> <chiral flag>
0

> <version>
0

> <s_m_source_file>
/data/baiqing/PycharmProjects/Reinvent-master-3.2/result/LINK_invent/BTK/process_docking_weight1_custom_sum_contain_oxygen_bond_distance_aromatic_linkinvent_7_9_3/rearranged_h_0017.sdf

> <i_m_source_file_index>
14

> <r_mmod_Potential_Energy-OPLS-2005>
15626.4716796875

> <r_mmod_Stretch_Energy-OPLS-2005>
8584.9765625

> <r_mmod_Bend_Energy-OPLS-2005>
1905.54235839844

> <r_mmod_Torsional_Energy-OPLS-2005>
432.18017578125

> <r_mmod_Improper_Torsional_Energy-OPLS-2005>
31.3421859741211

> <r_mmod_Van_der_Waal_Energy-OPLS-2005>
2116.45458984375

> <r_mmod_Electrostatic_Energy-OPLS-2005>
-363.816192626953

> <r_mmod_Solvation_Energy-OPLS-2005>
-231.802032470703

> <b_mmod_Minimization_Converged-OPLS-2005>
0

> <r_mmod_RMS_Derivative-OPLS-2005>
8.64818954467773

$$$$
14
                    3D
 Structure written by MMmdl.
158166  0  0  1  0            999 V2000
  -30.6186  -14.6047   20.4776 C   0  0  0  0  0  0
  -30.4425  -12.3683   19.4304 C   0  0  0  0  0  0
  -29.5040  -12.4891   18.2099 C   0  0  0  0  0  0
  -28.0277  -12.3298   18.6295 C   0  0  0  0  0  0
  -27.6511  -13.2033   19.8566 C   0  0  2  0  0  0
  -28.7015  -13.0560   20.9807 C   0  0  0  0  0  0
  -25.2573  -13.8144   20.5668 C   0  0  0  0  0  0
  -24.1830  -13.0428   20.9197 C   0  0  0  0  0  0
  -24.6382  -11.6895   20.8737 C   0  0  0  0  0  0
  -23.9041  -10.4294   21.0418 C   0  0  0  0  0  0
  -24.3596   -9.4209   21.9189 C   0  0  0  0  0  0
  -23.6281   -8.2240   22.0755 C   0  0  0  0  0  0
  -22.4267   -8.0272   21.3540 C   0  0  0  0  0  0
  -21.9893   -9.0249   20.4650 C   0  0  0  0  0  0
  -22.7216  -10.2139   20.3061 C   0  0  0  0  0  0
  -21.6847   -6.0729   22.5283 C   0  0  0  0  0  0
  -21.4010   -6.5634   23.8215 C   0  0  0  0  0  0
  -21.3664   -5.6786   24.9179 C   0  0  0  0  0  0
  -21.6038   -4.3049   24.7223 C   0  0  0  0  0  0
  -21.8820   -3.8140   23.4345 C   0  0  0  0  0  0
  -21.9194   -4.6957   22.3403 C   0  0  0  0  0  0
  -22.7854  -13.5243   21.1854 C   0  0  0  0  0  0
  -22.1662   -4.2147   21.0978 F   0  0  0  0  0  0
  -21.5633   -3.4530   25.7734 F   0  0  0  0  0  0
  -30.0136  -13.3849   20.4024 N   0  0  0  0  0  0
  -26.2977  -12.9294   20.3289 N   0  0  0  0  0  0
  -25.9294  -11.6470   20.5742 N   0  0  0  0  0  0
  -22.0468  -12.8257   22.0410 N   0  0  0  0  0  0
  -25.4253  -15.1869   20.4042 N   0  0  0  0  0  0
  -31.8053  -14.7733   20.1830 O   0  0  0  0  0  0
  -21.6633   -6.8869   21.4239 O   0  0  0  0  0  0
  -22.3564  -14.5560   20.6717 O   0  0  0  0  0  0
  -24.6225  -31.8614   23.2033 C   0  0  0  0  0  0
  -25.9098  -32.4772   23.8357 C   0  0  1  0  0  0
  -27.2313  -27.3600   20.1232 C   0  0  0  0  0  0
  -25.5933  -33.8575   24.2296 N   0  0  0  0  0  0
  -23.4133  -30.4832   21.5440 C   0  0  2  0  0  0
  -24.8611  -28.9359   20.1132 C   0  0  0  0  0  0
  -22.7457  -29.4633   22.4959 C   0  0  0  0  0  0
  -18.0271  -28.1394   22.8490 C   0  0  0  0  0  0
  -24.1493  -36.7287   23.2640 C   0  0  0  0  0  0
  -25.9484  -30.8069   21.3650 C   0  0  0  0  0  0
  -26.0239  -29.4349   20.7128 C   0  0  0  0  0  0
  -27.2131  -28.6578   20.7052 C   0  0  0  0  0  0
  -26.0488  -26.8941   19.5078 C   0  0  0  0  0  0
  -24.8720  -27.6696   19.5022 C   0  0  0  0  0  0
  -23.6268  -29.8118   20.1609 C   0  0  0  0  0  0
  -25.4111  -36.3073   24.0334 C   0  0  1  0  0  0
  -20.5870  -28.3678   23.1300 C   0  0  2  0  0  0
  -20.6753  -26.9407   22.5405 C   0  0  0  0  0  0
  -19.5729  -26.6399   21.5202 C   0  0  0  0  0  0
  -18.1914  -26.7940   22.1626 C   0  0  0  0  0  0
  -19.1529  -28.8855   23.2886 C   0  0  0  0  0  0
  -18.9454  -30.1457   23.8902 C   0  0  0  0  0  0
  -17.6459  -30.6595   24.0566 C   0  0  0  0  0  0
  -25.9048  -34.9444   23.5112 C   0  0  0  0  0  0
  -16.5348  -29.9095   23.6332 C   0  0  0  0  0  0
  -16.7262  -28.6511   23.0356 C   0  0  0  0  0  0
  -26.4502  -31.6570   25.0708 C   0  0  0  0  0  0
  -25.3777  -31.3683   26.1461 C   0  0  0  0  0  0
  -27.0321  -30.3000   24.6111 C   0  0  0  0  0  0
  -27.6070  -32.4297   25.7483 C   0  0  0  0  0  0
  -27.5572  -37.1797   24.8471 C   0  0  0  0  0  0
  -21.4177  -29.3032   22.3711 N   0  0  0  0  0  0
  -26.4284  -37.3773   23.9422 N   0  0  0  0  0  0
  -24.6797  -31.0668   22.0957 N   0  0  0  0  0  0
  -23.4194  -28.8193   23.3045 O   0  0  0  0  0  0
  -28.3818  -26.5752   20.1556 O   0  0  0  0  0  0
  -26.5611  -34.8900   22.4672 O   0  0  0  0  0  0
  -23.5405  -32.1404   23.7387 O   0  0  0  0  0  0
  -29.5639  -18.0989   20.0629 C   0  0  0  0  0  0
  -29.6261  -19.4794   20.4455 C   0  0  0  0  0  0
  -30.4864  -18.7462   22.6254 C   0  0  0  0  0  0
  -29.9694  -17.0383   20.9341 C   0  0  0  0  0  0
  -30.1072  -19.7810   21.7367 C   0  0  0  0  0  0
  -30.4158  -17.3858   22.2330 C   0  0  0  0  0  0
  -28.5857  -24.3022   19.1115 C   0  0  0  0  0  0
  -28.9164  -22.9899   18.9007 C   0  0  0  0  0  0
  -30.9490  -19.0991   24.0295 C   0  0  0  0  0  0
  -29.1804  -22.5494   17.4613 C   0  0  0  0  0  0
  -29.2383  -20.5968   19.4334 C   0  0  0  0  0  0
  -28.2586  -25.1273   20.3652 C   0  0  0  0  0  0
  -29.7497  -15.6504   20.5878 N   0  0  0  0  0  0
  -29.0457  -21.9885   19.8833 O   0  0  0  0  0  0
  -30.2045  -21.0716   22.1364 F   0  0  0  0  0  0
  -30.8137  -16.1500   23.3838 Cl  0  0  0  0  0  0
  -31.4822  -12.5012   19.1235 H   0  0  0  0  0  0
  -30.3807  -11.3717   19.8719 H   0  0  0  0  0  0
  -29.6468  -13.4587   17.7300 H   0  0  0  0  0  0
  -29.7603  -11.7372   17.4628 H   0  0  0  0  0  0
  -27.8660  -11.2762   18.8666 H   0  0  0  0  0  0
  -27.3700  -12.5531   17.7883 H   0  0  0  0  0  0
  -27.6653  -14.2358   19.5099 H   0  0  0  0  0  0
  -28.7101  -12.0373   21.3703 H   0  0  0  0  0  0
  -28.4636  -13.7003   21.8299 H   0  0  0  0  0  0
  -25.2732   -9.5688   22.4772 H   0  0  0  0  0  0
  -23.9986   -7.4628   22.7476 H   0  0  0  0  0  0
  -21.0820   -8.8762   19.8958 H   0  0  0  0  0  0
  -22.3658  -10.9673   19.6183 H   0  0  0  0  0  0
  -21.1993   -7.6138   23.9721 H   0  0  0  0  0  0
  -21.1488   -6.0510   25.9086 H   0  0  0  0  0  0
  -22.0596   -2.7598   23.2847 H   0  0  0  0  0  0
  -22.4058  -11.9917   22.4814 H   0  0  0  0  0  0
  -21.1096  -13.1331   22.2610 H   0  0  0  0  0  0
  -24.6443  -15.8268   20.5014 H   0  0  0  0  0  0
  -26.2507  -15.6310   20.0245 H   0  0  0  0  0  0
  -26.7164  -32.5462   23.1111 H   0  0  0  0  0  0
  -25.0107  -33.9727   25.0457 H   0  0  0  0  0  0
  -22.7035  -31.3005   21.4002 H   0  0  0  0  0  0
  -23.3737  -35.9634   23.3316 H   0  0  0  0  0  0
  -24.3579  -36.8883   22.2046 H   0  0  0  0  0  0
  -23.7245  -37.6499   23.6646 H   0  0  0  0  0  0
  -26.0695  -31.5671   20.5932 H   0  0  0  0  0  0
  -26.8340  -30.8612   21.9867 H   0  0  0  0  0  0
  -28.1088  -29.0391   21.1763 H   0  0  0  0  0  0
  -26.0263  -25.9238   19.0322 H   0  0  0  0  0  0
  -23.9803  -27.2818   19.0299 H   0  0  0  0  0  0
  -23.7418  -30.5844   19.3992 H   0  0  0  0  0  0
  -22.7487  -29.2354   19.8630 H   0  0  0  0  0  0
  -25.1285  -36.1919   25.0823 H   0  0  0  0  0  0
  -20.9951  -28.3237   24.1431 H   0  0  0  0  0  0
  -20.5628  -26.2300   23.3603 H   0  0  0  0  0  0
  -21.6627  -26.7431   22.1218 H   0  0  0  0  0  0
  -19.6878  -25.6313   21.1221 H   0  0  0  0  0  0
  -19.6656  -27.3221   20.6745 H   0  0  0  0  0  0
  -17.4179  -26.6686   21.4036 H   0  0  0  0  0  0
  -18.0313  -26.0080   22.9020 H   0  0  0  0  0  0
  -19.7934  -30.7265   24.2281 H   0  0  0  0  0  0
  -17.5017  -31.6274   24.5176 H   0  0  0  0  0  0
  -15.5353  -30.3003   23.7653 H   0  0  0  0  0  0
  -15.8663  -28.0828   22.7087 H   0  0  0  0  0  0
  -24.5952  -30.7016   25.7831 H   0  0  0  0  0  0
  -24.8967  -32.2833   26.4928 H   0  0  0  0  0  0
  -25.8158  -30.8859   27.0209 H   0  0  0  0  0  0
  -26.2869  -29.6773   24.1140 H   0  0  0  0  0  0
  -27.4046  -29.7215   25.4576 H   0  0  0  0  0  0
  -27.8739  -30.4306   23.9299 H   0  0  0  0  0  0
  -27.2683  -33.3580   26.2107 H   0  0  0  0  0  0
  -28.3881  -32.6887   25.0319 H   0  0  0  0  0  0
  -28.0755  -31.8390   26.5366 H   0  0  0  0  0  0
  -28.2609  -38.0078   24.7501 H   0  0  0  0  0  0
  -28.1043  -36.2603   24.6322 H   0  0  0  0  0  0
  -27.2293  -37.1494   25.8877 H   0  0  0  0  0  0
  -20.9362  -29.8749   21.6917 H   0  0  0  0  0  0
  -26.0149  -38.2844   24.1414 H   0  0  0  0  0  0
  -29.1935  -17.8551   19.0777 H   0  0  0  0  0  0
  -28.5236  -24.9217   18.2280 H   0  0  0  0  0  0
  -31.9262  -18.6582   24.2261 H   0  0  0  0  0  0
  -30.2415  -18.7143   24.7646 H   0  0  0  0  0  0
  -31.0329  -20.1751   24.1813 H   0  0  0  0  0  0
  -29.0276  -23.3690   16.7579 H   0  0  0  0  0  0
  -28.5089  -21.7485   17.1514 H   0  0  0  0  0  0
  -30.2152  -22.2313   17.3303 H   0  0  0  0  0  0
  -28.3216  -20.2736   18.9387 H   0  0  0  0  0  0
  -30.0388  -20.5450   18.6978 H   0  0  0  0  0  0
  -27.2646  -24.8536   20.7231 H   0  0  0  0  0  0
  -28.9492  -24.8291   21.1547 H   0  0  0  0  0  0
  -28.7821  -15.3711   20.5693 H   0  0  0  0  0  0
  1 25  1  0  0  0
  1 30  2  0  0  0
  1 83  1  0  0  0
  2  3  1  0  0  0
  2 25  1  0  0  0
  2 87  1  0  0  0
  2 88  1  0  0  0
  3  4  1  0  0  0
  3 89  1  0  0  0
  3 90  1  0  0  0
  4  5  1  0  0  0
  4 91  1  0  0  0
  4 92  1  0  0  0
  5  6  1  0  0  0
  5 26  1  0  0  0
  5 93  1  0  0  0
  6 25  1  0  0  0
  6 94  1  0  0  0
  6 95  1  0  0  0
  7  8  2  0  0  0
  7 26  1  0  0  0
  7 29  1  0  0  0
  8  9  1  0  0  0
  8 22  1  0  0  0
  9 10  1  0  0  0
  9 27  2  0  0  0
 10 11  2  0  0  0
 10 15  1  0  0  0
 11 12  1  0  0  0
 11 96  1  0  0  0
 12 13  2  0  0  0
 12 97  1  0  0  0
 13 14  1  0  0  0
 13 31  1  0  0  0
 14 15  2  0  0  0
 14 98  1  0  0  0
 15 99  1  0  0  0
 16 17  2  0  0  0
 16 21  1  0  0  0
 16 31  1  0  0  0
 17 18  1  0  0  0
 17100  1  0  0  0
 18 19  2  0  0  0
 18101  1  0  0  0
 19 20  1  0  0  0
 19 24  1  0  0  0
 20 21  2  0  0  0
 20102  1  0  0  0
 21 23  1  0  0  0
 22 28  1  0  0  0
 22 32  2  0  0  0
 26 27  1  0  0  0
 28103  1  0  0  0
 28104  1  0  0  0
 29105  1  0  0  0
 29106  1  0  0  0
 33 34  1  0  0  0
 33 66  1  0  0  0
 33 70  2  0  0  0
 34 36  1  0  0  0
 34 59  1  0  0  0
 34107  1  0  0  0
 35 44  2  0  0  0
 35 45  1  0  0  0
 35 68  1  0  0  0
 36 56  1  0  0  0
 36108  1  0  0  0
 37 39  1  0  0  0
 37 47  1  0  0  0
 37 66  1  0  0  0
 37109  1  0  0  0
 38 43  2  0  0  0
 38 46  1  0  0  0
 38 47  1  0  0  0
 39 64  1  0  0  0
 39 67  2  0  0  0
 40 52  1  0  0  0
 40 53  2  0  0  0
 40 58  1  0  0  0
 41110  1  0  0  0
 41111  1  0  0  0
 41112  1  0  0  0
 41 48  1  0  0  0
 42 43  1  0  0  0
 42 66  1  0  0  0
 42113  1  0  0  0
 42114  1  0  0  0
 43 44  1  0  0  0
 44115  1  0  0  0
 45 46  2  0  0  0
 45116  1  0  0  0
 46117  1  0  0  0
 47118  1  0  0  0
 47119  1  0  0  0
 48 56  1  0  0  0
 48 65  1  0  0  0
 48120  1  0  0  0
 49 50  1  0  0  0
 49 53  1  0  0  0
 49 64  1  0  0  0
 49121  1  0  0  0
 50 51  1  0  0  0
 50122  1  0  0  0
 50123  1  0  0  0
 51 52  1  0  0  0
 51124  1  0  0  0
 51125  1  0  0  0
 52126  1  0  0  0
 52127  1  0  0  0
 53 54  1  0  0  0
 54 55  2  0  0  0
 54128  1  0  0  0
 55 57  1  0  0  0
 55129  1  0  0  0
 56 69  2  0  0  0
 57 58  2  0  0  0
 57130  1  0  0  0
 58131  1  0  0  0
 59 60  1  0  0  0
 59 61  1  0  0  0
 59 62  1  0  0  0
 60132  1  0  0  0
 60133  1  0  0  0
 60134  1  0  0  0
 61135  1  0  0  0
 61136  1  0  0  0
 61137  1  0  0  0
 62138  1  0  0  0
 62139  1  0  0  0
 62140  1  0  0  0
 63 65  1  0  0  0
 63141  1  0  0  0
 63142  1  0  0  0
 63143  1  0  0  0
 64144  1  0  0  0
 65145  1  0  0  0
 68 82  1  0  0  0
 71 72  2  0  0  0
 71 74  1  0  0  0
 71146  1  0  0  0
 72 75  1  0  0  0
 72 81  1  0  0  0
 73 75  2  0  0  0
 73 76  1  0  0  0
 73 79  1  0  0  0
 74 76  2  0  0  0
 74 83  1  0  0  0
 75 85  1  0  0  0
 76 86  1  0  0  0
 77 78  2  0  0  0
 77 82  1  0  0  0
 77147  1  0  0  0
 78 80  1  0  0  0
 78 84  1  0  0  0
 79148  1  0  0  0
 79149  1  0  0  0
 79150  1  0  0  0
 80151  1  0  0  0
 80152  1  0  0  0
 80153  1  0  0  0
 81 84  1  0  0  0
 81154  1  0  0  0
 81155  1  0  0  0
 82156  1  0  0  0
 82157  1  0  0  0
 83158  1  0  0  0
M  ISO  4   1 100  68 101  82 101  83 100
M  END
> <chiral flag>
0

> <version>
0

> <s_m_source_file>
/data/baiqing/PycharmProjects/Reinvent-master-3.2/result/LINK_invent/BTK/process_docking_weight1_custom_sum_contain_oxygen_bond_distance_aromatic_linkinvent_7_9_3/rearranged_h_0017.sdf

> <i_m_source_file_index>
15

> <r_mmod_Potential_Energy-OPLS-2005>
55.4495811462402

> <r_mmod_Stretch_Energy-OPLS-2005>
64.6469879150391

> <r_mmod_Bend_Energy-OPLS-2005>
133.831970214844

> <r_mmod_Torsional_Energy-OPLS-2005>
254.902374267578

> <r_mmod_Improper_Torsional_Energy-OPLS-2005>
9.25279998779297

> <r_mmod_Van_der_Waal_Energy-OPLS-2005>
158.315521240234

> <r_mmod_Electrostatic_Energy-OPLS-2005>
-398.878356933594

> <r_mmod_Solvation_Energy-OPLS-2005>
-204.279006958008

> <b_mmod_Minimization_Converged-OPLS-2005>
0

> <r_mmod_RMS_Derivative-OPLS-2005>
2.01027607917786

$$$$
15
                    3D
 Structure written by MMmdl.
150158  0  0  1  0            999 V2000
  -30.2970  -15.6022   20.3263 C   0  0  0  0  0  0
  -30.4344  -13.0515   19.5481 C   0  0  0  0  0  0
  -29.5570  -12.6496   18.3279 C   0  0  0  0  0  0
  -28.1276  -12.2951   18.7666 C   0  0  0  0  0  0
  -27.6011  -13.3011   19.8151 C   0  0  2  0  0  0
  -28.6157  -13.6161   20.9394 C   0  0  0  0  0  0
  -25.2349  -13.8275   20.5778 C   0  0  0  0  0  0
  -24.1724  -13.0440   20.9278 C   0  0  0  0  0  0
  -24.6404  -11.6944   20.8754 C   0  0  0  0  0  0
  -23.9092  -10.4305   21.0391 C   0  0  0  0  0  0
  -24.3634   -9.4216   21.9169 C   0  0  0  0  0  0
  -23.6307   -8.2249   22.0748 C   0  0  0  0  0  0
  -22.4287   -8.0285   21.3545 C   0  0  0  0  0  0
  -21.9920   -9.0254   20.4644 C   0  0  0  0  0  0
  -22.7259  -10.2134   20.3050 C   0  0  0  0  0  0
  -21.6858   -6.0734   22.5280 C   0  0  0  0  0  0
  -21.4013   -6.5636   23.8211 C   0  0  0  0  0  0
  -21.3663   -5.6790   24.9172 C   0  0  0  0  0  0
  -21.6042   -4.3048   24.7223 C   0  0  0  0  0  0
  -21.8823   -3.8140   23.4348 C   0  0  0  0  0  0
  -21.9187   -4.6959   22.3401 C   0  0  0  0  0  0
  -22.7741  -13.5183   21.1911 C   0  0  0  0  0  0
  -22.1663   -4.2142   21.0983 F   0  0  0  0  0  0
  -21.5622   -3.4533   25.7737 F   0  0  0  0  0  0
  -29.8028  -14.2274   20.2985 N   0  0  0  0  0  0
  -26.2785  -12.9583   20.3212 N   0  0  0  0  0  0
  -25.9346  -11.6666   20.5684 N   0  0  0  0  0  0
  -22.0393  -12.8177   22.0464 N   0  0  0  0  0  0
  -25.3960  -15.2017   20.4226 N   0  0  0  0  0  0
  -31.5261  -15.5769   20.1202 O   0  0  0  0  0  0
  -21.6650   -6.8887   21.4247 O   0  0  0  0  0  0
  -22.3420  -14.5470   20.6730 O   0  0  0  0  0  0
  -24.6823  -31.8031   23.1526 C   0  0  0  0  0  0
  -25.9423  -32.4473   23.8061 C   0  0  1  0  0  0
  -27.2281  -26.7221   20.2013 C   0  0  0  0  0  0
  -25.6024  -33.8295   24.1954 N   0  0  0  0  0  0
  -23.5066  -30.4057   21.5066 C   0  0  2  0  0  0
  -24.9638  -28.7522   20.1125 C   0  0  0  0  0  0
  -22.7765  -29.4335   22.4721 C   0  0  0  0  0  0
  -18.0342  -28.1434   22.8461 C   0  0  0  0  0  0
  -24.1488  -36.7146   23.2650 C   0  0  0  0  0  0
  -26.0868  -30.5420   21.4135 C   0  0  0  0  0  0
  -26.1527  -29.1087   20.7595 C   0  0  0  0  0  0
  -27.2691  -28.1206   20.7744 C   0  0  0  0  0  0
  -26.0078  -26.5738   19.4952 C   0  0  0  0  0  0
  -24.9292  -27.5092   19.4576 C   0  0  0  0  0  0
  -23.7584  -29.7050   20.1398 C   0  0  0  0  0  0
  -25.4139  -36.2900   24.0283 C   0  0  1  0  0  0
  -20.5980  -28.3783   23.1158 C   0  0  2  0  0  0
  -20.6804  -26.9445   22.5417 C   0  0  0  0  0  0
  -19.5785  -26.6380   21.5228 C   0  0  0  0  0  0
  -18.1965  -26.7965   22.1621 C   0  0  0  0  0  0
  -19.1609  -28.8931   23.2790 C   0  0  0  0  0  0
  -18.9513  -30.1518   23.8822 C   0  0  0  0  0  0
  -17.6499  -30.6609   24.0554 C   0  0  0  0  0  0
  -25.9121  -34.9294   23.4948 C   0  0  0  0  0  0
  -16.5386  -29.9088   23.6358 C   0  0  0  0  0  0
  -16.7325  -28.6524   23.0362 C   0  0  0  0  0  0
  -26.4608  -31.6496   25.0667 C   0  0  0  0  0  0
  -25.3690  -31.3850   26.1304 C   0  0  0  0  0  0
  -27.0494  -30.2813   24.6557 C   0  0  0  0  0  0
  -27.6068  -32.4341   25.7475 C   0  0  0  0  0  0
  -27.5555  -37.1738   24.8470 C   0  0  0  0  0  0
  -21.4414  -29.3022   22.3471 N   0  0  0  0  0  0
  -26.4258  -37.3658   23.9412 N   0  0  0  0  0  0
  -24.7818  -30.9501   22.0766 N   0  0  0  0  0  0
  -23.4225  -28.7934   23.3057 O   0  0  0  0  0  0
  -28.1805  -25.4996   20.2938 O   0  0  0  0  0  0
  -26.5741  -34.8874   22.4549 O   0  0  0  0  0  0
  -23.5858  -32.1087   23.6517 O   0  0  0  0  0  0
  -29.6578  -21.2535   19.5778 C   0  0  0  0  0  0
  -27.9828  -20.9511   20.9913 C   0  0  0  0  0  0
  -28.6059  -22.0792   20.2560 C   0  0  0  0  0  0
  -29.9927  -19.7466   19.6285 C   0  0  0  0  0  0
  -28.2846  -19.4567   21.0565 C   0  0  0  0  0  0
  -29.3305  -18.6310   20.3797 C   0  0  0  0  0  0
  -31.1440  -19.3249   18.7354 C   0  0  0  0  0  0
  -27.3306  -18.6964   21.9609 C   0  0  0  0  0  0
  -27.9102  -23.7977   20.0057 C   0  0  0  0  0  0
  -29.4687  -16.9103   20.4446 N   0  0  0  0  0  0
  -31.4295  -13.3139   19.1873 H   0  0  0  0  0  0
  -30.5898  -12.2004   20.2128 H   0  0  0  0  0  0
  -30.0074  -11.8129   17.7917 H   0  0  0  0  0  0
  -29.5214  -13.4819   17.6248 H   0  0  0  0  0  0
  -28.1517  -11.2975   19.2060 H   0  0  0  0  0  0
  -27.4598  -12.2394   17.9066 H   0  0  0  0  0  0
  -27.4703  -14.2265   19.2514 H   0  0  0  0  0  0
  -28.8649  -12.7298   21.5242 H   0  0  0  0  0  0
  -28.1864  -14.3326   21.6411 H   0  0  0  0  0  0
  -25.2778   -9.5690   22.4739 H   0  0  0  0  0  0
  -24.0012   -7.4642   22.7467 H   0  0  0  0  0  0
  -21.0843   -8.8777   19.8958 H   0  0  0  0  0  0
  -22.3708  -10.9664   19.6155 H   0  0  0  0  0  0
  -21.2020   -7.6150   23.9716 H   0  0  0  0  0  0
  -21.1478   -6.0517   25.9075 H   0  0  0  0  0  0
  -22.0598   -2.7602   23.2842 H   0  0  0  0  0  0
  -22.4019  -11.9865   22.4897 H   0  0  0  0  0  0
  -21.0998  -13.1180   22.2638 H   0  0  0  0  0  0
  -24.6186  -15.8460   20.5247 H   0  0  0  0  0  0
  -26.2242  -15.6380   20.0388 H   0  0  0  0  0  0
  -26.7504  -32.4949   23.0782 H   0  0  0  0  0  0
  -25.0125  -33.9319   25.0080 H   0  0  0  0  0  0
  -22.8311  -31.2430   21.3200 H   0  0  0  0  0  0
  -23.3757  -35.9467   23.3303 H   0  0  0  0  0  0
  -24.3563  -36.8808   22.2067 H   0  0  0  0  0  0
  -23.7246  -37.6329   23.6718 H   0  0  0  0  0  0
  -26.2870  -31.2721   20.6278 H   0  0  0  0  0  0
  -26.9391  -30.6079   22.0773 H   0  0  0  0  0  0
  -28.1605  -28.3990   21.3179 H   0  0  0  0  0  0
  -25.8419  -25.6318   18.9929 H   0  0  0  0  0  0
  -24.0317  -27.2276   18.9239 H   0  0  0  0  0  0
  -23.9310  -30.4675   19.3794 H   0  0  0  0  0  0
  -22.8631  -29.1723   19.8153 H   0  0  0  0  0  0
  -25.1355  -36.1655   25.0769 H   0  0  0  0  0  0
  -21.0054  -28.3404   24.1289 H   0  0  0  0  0  0
  -20.5665  -26.2406   23.3683 H   0  0  0  0  0  0
  -21.6668  -26.7389   22.1242 H   0  0  0  0  0  0
  -19.6932  -25.6272   21.1306 H   0  0  0  0  0  0
  -19.6728  -27.3154   20.6737 H   0  0  0  0  0  0
  -17.4238  -26.6722   21.4016 H   0  0  0  0  0  0
  -18.0332  -26.0128   22.9035 H   0  0  0  0  0  0
  -19.7981  -30.7371   24.2140 H   0  0  0  0  0  0
  -17.5047  -31.6277   24.5181 H   0  0  0  0  0  0
  -15.5387  -30.2964   23.7732 H   0  0  0  0  0  0
  -15.8731  -28.0831   22.7091 H   0  0  0  0  0  0
  -24.5880  -30.7175   25.7657 H   0  0  0  0  0  0
  -24.8869  -32.3086   26.4518 H   0  0  0  0  0  0
  -25.7883  -30.9182   27.0224 H   0  0  0  0  0  0
  -26.3190  -29.6459   24.1524 H   0  0  0  0  0  0
  -27.3889  -29.7232   25.5299 H   0  0  0  0  0  0
  -27.9214  -30.3920   24.0099 H   0  0  0  0  0  0
  -27.2618  -33.3717   26.1857 H   0  0  0  0  0  0
  -28.3980  -32.6778   25.0366 H   0  0  0  0  0  0
  -28.0622  -31.8586   26.5551 H   0  0  0  0  0  0
  -28.2579  -38.0023   24.7473 H   0  0  0  0  0  0
  -28.1037  -36.2548   24.6340 H   0  0  0  0  0  0
  -27.2283  -37.1453   25.8877 H   0  0  0  0  0  0
  -20.9708  -29.8672   21.6537 H   0  0  0  0  0  0
  -26.0092  -38.2706   24.1397 H   0  0  0  0  0  0
  -30.2661  -21.8223   18.8880 H   0  0  0  0  0  0
  -27.1138  -21.2563   21.5592 H   0  0  0  0  0  0
  -32.0358  -19.9093   18.9595 H   0  0  0  0  0  0
  -30.8907  -19.4800   17.6868 H   0  0  0  0  0  0
  -31.3952  -18.2719   18.8693 H   0  0  0  0  0  0
  -27.3554  -19.1192   22.9652 H   0  0  0  0  0  0
  -27.5718  -17.6391   22.0484 H   0  0  0  0  0  0
  -26.3101  -18.7756   21.5859 H   0  0  0  0  0  0
  -26.9110  -23.6772   20.4226 H   0  0  0  0  0  0
  -27.7362  -23.7948   18.9291 H   0  0  0  0  0  0
  -28.5568  -16.5585   20.6949 H   0  0  0  0  0  0
  1 25  1  0  0  0
  1 30  2  0  0  0
  1 80  1  0  0  0
  2  3  1  0  0  0
  2 25  1  0  0  0
  2 81  1  0  0  0
  2 82  1  0  0  0
  3  4  1  0  0  0
  3 83  1  0  0  0
  3 84  1  0  0  0
  4  5  1  0  0  0
  4 85  1  0  0  0
  4 86  1  0  0  0
  5  6  1  0  0  0
  5 26  1  0  0  0
  5 87  1  0  0  0
  6 25  1  0  0  0
  6 88  1  0  0  0
  6 89  1  0  0  0
  7  8  2  0  0  0
  7 26  1  0  0  0
  7 29  1  0  0  0
  8  9  1  0  0  0
  8 22  1  0  0  0
  9 10  1  0  0  0
  9 27  2  0  0  0
 10 11  2  0  0  0
 10 15  1  0  0  0
 11 12  1  0  0  0
 11 90  1  0  0  0
 12 13  2  0  0  0
 12 91  1  0  0  0
 13 14  1  0  0  0
 13 31  1  0  0  0
 14 15  2  0  0  0
 14 92  1  0  0  0
 15 93  1  0  0  0
 16 17  2  0  0  0
 16 21  1  0  0  0
 16 31  1  0  0  0
 17 18  1  0  0  0
 17 94  1  0  0  0
 18 19  2  0  0  0
 18 95  1  0  0  0
 19 20  1  0  0  0
 19 24  1  0  0  0
 20 21  2  0  0  0
 20 96  1  0  0  0
 21 23  1  0  0  0
 22 28  1  0  0  0
 22 32  2  0  0  0
 26 27  1  0  0  0
 28 97  1  0  0  0
 28 98  1  0  0  0
 29 99  1  0  0  0
 29100  1  0  0  0
 33 34  1  0  0  0
 33 66  1  0  0  0
 33 70  2  0  0  0
 34 36  1  0  0  0
 34 59  1  0  0  0
 34101  1  0  0  0
 35 44  2  0  0  0
 35 45  1  0  0  0
 35 68  1  0  0  0
 36 56  1  0  0  0
 36102  1  0  0  0
 37 39  1  0  0  0
 37 47  1  0  0  0
 37 66  1  0  0  0
 37103  1  0  0  0
 38 43  2  0  0  0
 38 46  1  0  0  0
 38 47  1  0  0  0
 39 64  1  0  0  0
 39 67  2  0  0  0
 40 52  1  0  0  0
 40 53  2  0  0  0
 40 58  1  0  0  0
 41104  1  0  0  0
 41105  1  0  0  0
 41106  1  0  0  0
 41 48  1  0  0  0
 42 43  1  0  0  0
 42 66  1  0  0  0
 42107  1  0  0  0
 42108  1  0  0  0
 43 44  1  0  0  0
 44109  1  0  0  0
 45 46  2  0  0  0
 45110  1  0  0  0
 46111  1  0  0  0
 47112  1  0  0  0
 47113  1  0  0  0
 48 56  1  0  0  0
 48 65  1  0  0  0
 48114  1  0  0  0
 49 50  1  0  0  0
 49 53  1  0  0  0
 49 64  1  0  0  0
 49115  1  0  0  0
 50 51  1  0  0  0
 50116  1  0  0  0
 50117  1  0  0  0
 51 52  1  0  0  0
 51118  1  0  0  0
 51119  1  0  0  0
 52120  1  0  0  0
 52121  1  0  0  0
 53 54  1  0  0  0
 54 55  2  0  0  0
 54122  1  0  0  0
 55 57  1  0  0  0
 55123  1  0  0  0
 56 69  2  0  0  0
 57 58  2  0  0  0
 57124  1  0  0  0
 58125  1  0  0  0
 59 60  1  0  0  0
 59 61  1  0  0  0
 59 62  1  0  0  0
 60126  1  0  0  0
 60127  1  0  0  0
 60128  1  0  0  0
 61129  1  0  0  0
 61130  1  0  0  0
 61131  1  0  0  0
 62132  1  0  0  0
 62133  1  0  0  0
 62134  1  0  0  0
 63 65  1  0  0  0
 63135  1  0  0  0
 63136  1  0  0  0
 63137  1  0  0  0
 64138  1  0  0  0
 65139  1  0  0  0
 68 79  1  0  0  0
 71 73  2  0  0  0
 71 74  1  0  0  0
 71140  1  0  0  0
 72 73  1  0  0  0
 72 75  2  0  0  0
 72141  1  0  0  0
 73 79  1  0  0  0
 74 76  2  0  0  0
 74 77  1  0  0  0
 75 76  1  0  0  0
 75 78  1  0  0  0
 76 80  1  0  0  0
 77142  1  0  0  0
 77143  1  0  0  0
 77144  1  0  0  0
 78145  1  0  0  0
 78146  1  0  0  0
 78147  1  0  0  0
 79148  1  0  0  0
 79149  1  0  0  0
 80150  1  0  0  0
M  ISO  4   1 100  68 101  79 101  80 100
M  END
> <chiral flag>
0

> <version>
0

> <s_m_source_file>
/data/baiqing/PycharmProjects/Reinvent-master-3.2/result/LINK_invent/BTK/process_docking_weight1_custom_sum_contain_oxygen_bond_distance_aromatic_linkinvent_7_9_3/rearranged_h_0017.sdf

> <i_m_source_file_index>
16

> <r_mmod_Potential_Energy-OPLS-2005>
2228.138671875

> <r_mmod_Stretch_Energy-OPLS-2005>
917.705139160156

> <r_mmod_Bend_Energy-OPLS-2005>
670.249450683594

> <r_mmod_Torsional_Energy-OPLS-2005>
233.790985107422

> <r_mmod_Improper_Torsional_Energy-OPLS-2005>
7.19244623184204

> <r_mmod_Van_der_Waal_Energy-OPLS-2005>
129.548431396484

> <r_mmod_Electrostatic_Energy-OPLS-2005>
-383.336364746094

> <r_mmod_Solvation_Energy-OPLS-2005>
-209.716339111328

> <b_mmod_Minimization_Converged-OPLS-2005>
0

> <r_mmod_RMS_Derivative-OPLS-2005>
2.11817598342896

$$$$
16
                    3D
 Structure written by MMmdl.
143151  0  0  1  0            999 V2000
  -30.2506  -15.7797   20.3168 C   0  0  0  0  0  0
  -30.4139  -13.1893   19.5383 C   0  0  0  0  0  0
  -29.5547  -12.6906   18.3370 C   0  0  0  0  0  0
  -28.1402  -12.3024   18.7889 C   0  0  0  0  0  0
  -27.5905  -13.3216   19.8096 C   0  0  2  0  0  0
  -28.5982  -13.7177   20.9182 C   0  0  0  0  0  0
  -25.2300  -13.8300   20.5817 C   0  0  0  0  0  0
  -24.1704  -13.0432   20.9303 C   0  0  0  0  0  0
  -24.6425  -11.6950   20.8767 C   0  0  0  0  0  0
  -23.9130  -10.4292   21.0394 C   0  0  0  0  0  0
  -24.3661   -9.4205   21.9178 C   0  0  0  0  0  0
  -23.6318   -8.2248   22.0753 C   0  0  0  0  0  0
  -22.4298   -8.0289   21.3544 C   0  0  0  0  0  0
  -21.9947   -9.0265   20.4643 C   0  0  0  0  0  0
  -22.7294  -10.2135   20.3047 C   0  0  0  0  0  0
  -21.6860   -6.0743   22.5279 C   0  0  0  0  0  0
  -21.4019   -6.5644   23.8213 C   0  0  0  0  0  0
  -21.3661   -5.6795   24.9174 C   0  0  0  0  0  0
  -21.6044   -4.3057   24.7223 C   0  0  0  0  0  0
  -21.8818   -3.8151   23.4343 C   0  0  0  0  0  0
  -21.9195   -4.6969   22.3401 C   0  0  0  0  0  0
  -22.7713  -13.5153   21.1930 C   0  0  0  0  0  0
  -22.1662   -4.2155   21.0978 F   0  0  0  0  0  0
  -21.5627   -3.4540   25.7735 F   0  0  0  0  0  0
  -29.7471  -14.3864   20.2501 N   0  0  0  0  0  0
  -26.2763  -12.9658   20.3251 N   0  0  0  0  0  0
  -25.9377  -11.6714   20.5694 N   0  0  0  0  0  0
  -22.0381  -12.8126   22.0480 N   0  0  0  0  0  0
  -25.3866  -15.2043   20.4253 N   0  0  0  0  0  0
  -31.4918  -15.6816   20.1884 O   0  0  0  0  0  0
  -21.6651   -6.8891   21.4243 O   0  0  0  0  0  0
  -22.3384  -14.5448   20.6763 O   0  0  0  0  0  0
  -24.6941  -31.7875   23.1424 C   0  0  0  0  0  0
  -25.9471  -32.4405   23.8010 C   0  0  1  0  0  0
  -27.2309  -26.5947   20.2262 C   0  0  0  0  0  0
  -25.6004  -33.8236   24.1887 N   0  0  0  0  0  0
  -23.5254  -30.3846   21.4989 C   0  0  2  0  0  0
  -24.9841  -28.7025   20.1220 C   0  0  0  0  0  0
  -22.7814  -29.4250   22.4681 C   0  0  0  0  0  0
  -18.0346  -28.1427   22.8449 C   0  0  0  0  0  0
  -24.1497  -36.7126   23.2656 C   0  0  0  0  0  0
  -26.1108  -30.4850   21.4230 C   0  0  0  0  0  0
  -26.1755  -29.0377   20.7756 C   0  0  0  0  0  0
  -27.2792  -28.0157   20.7905 C   0  0  0  0  0  0
  -26.0045  -26.4965   19.5132 C   0  0  0  0  0  0
  -24.9442  -27.4591   19.4661 C   0  0  0  0  0  0
  -23.7856  -29.6713   20.1392 C   0  0  0  0  0  0
  -25.4151  -36.2858   24.0273 C   0  0  1  0  0  0
  -20.5987  -28.3792   23.1121 C   0  0  2  0  0  0
  -20.6807  -26.9441   22.5405 C   0  0  0  0  0  0
  -19.5784  -26.6367   21.5217 C   0  0  0  0  0  0
  -18.1967  -26.7952   22.1618 C   0  0  0  0  0  0
  -19.1615  -28.8936   23.2763 C   0  0  0  0  0  0
  -18.9518  -30.1517   23.8813 C   0  0  0  0  0  0
  -17.6506  -30.6606   24.0548 C   0  0  0  0  0  0
  -25.9138  -34.9251   23.4925 C   0  0  0  0  0  0
  -16.5396  -29.9085   23.6353 C   0  0  0  0  0  0
  -16.7325  -28.6508   23.0369 C   0  0  0  0  0  0
  -26.4614  -31.6485   25.0678 C   0  0  0  0  0  0
  -25.3650  -31.3834   26.1273 C   0  0  0  0  0  0
  -27.0563  -30.2811   24.6658 C   0  0  0  0  0  0
  -27.6040  -32.4373   25.7504 C   0  0  0  0  0  0
  -27.5560  -37.1721   24.8467 C   0  0  0  0  0  0
  -21.4451  -29.3018   22.3429 N   0  0  0  0  0  0
  -26.4268  -37.3631   23.9406 N   0  0  0  0  0  0
  -24.8015  -30.9214   22.0736 N   0  0  0  0  0  0
  -23.4207  -28.7868   23.3076 O   0  0  0  0  0  0
  -28.1806  -25.3268   20.2922 O   0  0  0  0  0  0
  -26.5793  -34.8850   22.4553 O   0  0  0  0  0  0
  -23.5937  -32.0999   23.6310 O   0  0  0  0  0  0
  -31.1827  -20.7691   20.4115 C   0  0  0  0  0  0
  -28.9217  -21.8663   20.2844 C   0  0  0  0  0  0
  -30.3376  -21.9311   20.3642 C   0  0  0  0  0  0
  -28.6362  -20.2501   20.2706 C   0  0  0  0  0  0
  -29.6109  -18.9340   20.3263 C   0  0  0  0  0  0
  -27.9604  -23.5265   20.1961 C   0  0  0  0  0  0
  -30.8771  -19.4237   20.3938 N   0  0  0  0  0  0
  -29.4782  -17.1761   20.3318 N   0  0  0  0  0  0
  -31.1013  -23.4810   20.4007 Cl  0  0  0  0  0  0
  -26.9603  -19.8508   20.1728 Cl  0  0  0  0  0  0
  -31.3948  -13.4724   19.1552 H   0  0  0  0  0  0
  -30.6128  -12.3743   20.2365 H   0  0  0  0  0  0
  -30.0386  -11.8473   17.8426 H   0  0  0  0  0  0
  -29.4896  -13.4862   17.5933 H   0  0  0  0  0  0
  -28.1948  -11.3174   19.2541 H   0  0  0  0  0  0
  -27.4717  -12.2050   17.9325 H   0  0  0  0  0  0
  -27.4321  -14.2221   19.2145 H   0  0  0  0  0  0
  -28.8936  -12.8608   21.5257 H   0  0  0  0  0  0
  -28.1365  -14.4303   21.6032 H   0  0  0  0  0  0
  -25.2799   -9.5677   22.4765 H   0  0  0  0  0  0
  -24.0016   -7.4641   22.7480 H   0  0  0  0  0  0
  -21.0876   -8.8795   19.8949 H   0  0  0  0  0  0
  -22.3753  -10.9677   19.6160 H   0  0  0  0  0  0
  -21.2015   -7.6152   23.9718 H   0  0  0  0  0  0
  -21.1483   -6.0524   25.9077 H   0  0  0  0  0  0
  -22.0595   -2.7613   23.2842 H   0  0  0  0  0  0
  -22.4029  -11.9806   22.4877 H   0  0  0  0  0  0
  -21.0984  -13.1113   22.2674 H   0  0  0  0  0  0
  -24.6109  -15.8484   20.5349 H   0  0  0  0  0  0
  -26.2194  -15.6466   20.0618 H   0  0  0  0  0  0
  -26.7563  -32.4849   23.0727 H   0  0  0  0  0  0
  -25.0045  -33.9255   24.9969 H   0  0  0  0  0  0
  -22.8569  -31.2246   21.2994 H   0  0  0  0  0  0
  -23.3778  -35.9435   23.3261 H   0  0  0  0  0  0
  -24.3559  -36.8852   22.2081 H   0  0  0  0  0  0
  -23.7240  -37.6279   23.6779 H   0  0  0  0  0  0
  -26.3248  -31.2024   20.6297 H   0  0  0  0  0  0
  -26.9575  -30.5573   22.0929 H   0  0  0  0  0  0
  -28.1742  -28.2836   21.3341 H   0  0  0  0  0  0
  -25.8190  -25.5623   19.0023 H   0  0  0  0  0  0
  -24.0483  -27.1917   18.9225 H   0  0  0  0  0  0
  -23.9702  -30.4265   19.3744 H   0  0  0  0  0  0
  -22.8881  -29.1433   19.8124 H   0  0  0  0  0  0
  -25.1367  -36.1605   25.0763 H   0  0  0  0  0  0
  -21.0066  -28.3426   24.1249 H   0  0  0  0  0  0
  -20.5660  -26.2420   23.3677 H   0  0  0  0  0  0
  -21.6667  -26.7366   22.1230 H   0  0  0  0  0  0
  -19.6938  -25.6255   21.1302 H   0  0  0  0  0  0
  -19.6730  -27.3131   20.6711 H   0  0  0  0  0  0
  -17.4237  -26.6695   21.4021 H   0  0  0  0  0  0
  -18.0352  -26.0115   22.9033 H   0  0  0  0  0  0
  -19.7994  -30.7355   24.2145 H   0  0  0  0  0  0
  -17.5056  -31.6277   24.5166 H   0  0  0  0  0  0
  -15.5392  -30.2960   23.7725 H   0  0  0  0  0  0
  -15.8727  -28.0798   22.7132 H   0  0  0  0  0  0
  -24.5866  -30.7154   25.7567 H   0  0  0  0  0  0
  -24.8809  -32.3065   26.4467 H   0  0  0  0  0  0
  -25.7801  -30.9145   27.0204 H   0  0  0  0  0  0
  -26.3302  -29.6391   24.1662 H   0  0  0  0  0  0
  -27.3958  -29.7302   25.5439 H   0  0  0  0  0  0
  -27.9294  -30.3910   24.0224 H   0  0  0  0  0  0
  -27.2566  -33.3759   26.1834 H   0  0  0  0  0  0
  -28.3976  -32.6798   25.0424 H   0  0  0  0  0  0
  -28.0570  -31.8670   26.5624 H   0  0  0  0  0  0
  -28.2541  -38.0048   24.7510 H   0  0  0  0  0  0
  -28.1092  -36.2569   24.6301 H   0  0  0  0  0  0
  -27.2273  -37.1362   25.8868 H   0  0  0  0  0  0
  -20.9782  -29.8657   21.6464 H   0  0  0  0  0  0
  -26.0085  -38.2674   24.1418 H   0  0  0  0  0  0
  -32.2469  -20.9452   20.4693 H   0  0  0  0  0  0
  -27.1789  -23.3610   20.9372 H   0  0  0  0  0  0
  -27.4361  -23.4192   19.2469 H   0  0  0  0  0  0
  -28.4975  -16.9432   20.3496 H   0  0  0  0  0  0
  1 25  1  0  0  0
  1 30  2  0  0  0
  1 78  1  0  0  0
  2  3  1  0  0  0
  2 25  1  0  0  0
  2 81  1  0  0  0
  2 82  1  0  0  0
  3  4  1  0  0  0
  3 83  1  0  0  0
  3 84  1  0  0  0
  4  5  1  0  0  0
  4 85  1  0  0  0
  4 86  1  0  0  0
  5  6  1  0  0  0
  5 26  1  0  0  0
  5 87  1  0  0  0
  6 25  1  0  0  0
  6 88  1  0  0  0
  6 89  1  0  0  0
  7  8  2  0  0  0
  7 26  1  0  0  0
  7 29  1  0  0  0
  8  9  1  0  0  0
  8 22  1  0  0  0
  9 10  1  0  0  0
  9 27  2  0  0  0
 10 11  2  0  0  0
 10 15  1  0  0  0
 11 12  1  0  0  0
 11 90  1  0  0  0
 12 13  2  0  0  0
 12 91  1  0  0  0
 13 14  1  0  0  0
 13 31  1  0  0  0
 14 15  2  0  0  0
 14 92  1  0  0  0
 15 93  1  0  0  0
 16 17  2  0  0  0
 16 21  1  0  0  0
 16 31  1  0  0  0
 17 18  1  0  0  0
 17 94  1  0  0  0
 18 19  2  0  0  0
 18 95  1  0  0  0
 19 20  1  0  0  0
 19 24  1  0  0  0
 20 21  2  0  0  0
 20 96  1  0  0  0
 21 23  1  0  0  0
 22 28  1  0  0  0
 22 32  2  0  0  0
 26 27  1  0  0  0
 28 97  1  0  0  0
 28 98  1  0  0  0
 29 99  1  0  0  0
 29100  1  0  0  0
 33 34  1  0  0  0
 33 66  1  0  0  0
 33 70  2  0  0  0
 34 36  1  0  0  0
 34 59  1  0  0  0
 34101  1  0  0  0
 35 44  2  0  0  0
 35 45  1  0  0  0
 35 68  1  0  0  0
 36 56  1  0  0  0
 36102  1  0  0  0
 37 39  1  0  0  0
 37 47  1  0  0  0
 37 66  1  0  0  0
 37103  1  0  0  0
 38 43  2  0  0  0
 38 46  1  0  0  0
 38 47  1  0  0  0
 39 64  1  0  0  0
 39 67  2  0  0  0
 40 52  1  0  0  0
 40 53  2  0  0  0
 40 58  1  0  0  0
 41104  1  0  0  0
 41105  1  0  0  0
 41106  1  0  0  0
 41 48  1  0  0  0
 42 43  1  0  0  0
 42 66  1  0  0  0
 42107  1  0  0  0
 42108  1  0  0  0
 43 44  1  0  0  0
 44109  1  0  0  0
 45 46  2  0  0  0
 45110  1  0  0  0
 46111  1  0  0  0
 47112  1  0  0  0
 47113  1  0  0  0
 48 56  1  0  0  0
 48 65  1  0  0  0
 48114  1  0  0  0
 49 50  1  0  0  0
 49 53  1  0  0  0
 49 64  1  0  0  0
 49115  1  0  0  0
 50 51  1  0  0  0
 50116  1  0  0  0
 50117  1  0  0  0
 51 52  1  0  0  0
 51118  1  0  0  0
 51119  1  0  0  0
 52120  1  0  0  0
 52121  1  0  0  0
 53 54  1  0  0  0
 54 55  2  0  0  0
 54122  1  0  0  0
 55 57  1  0  0  0
 55123  1  0  0  0
 56 69  2  0  0  0
 57 58  2  0  0  0
 57124  1  0  0  0
 58125  1  0  0  0
 59 60  1  0  0  0
 59 61  1  0  0  0
 59 62  1  0  0  0
 60126  1  0  0  0
 60127  1  0  0  0
 60128  1  0  0  0
 61129  1  0  0  0
 61130  1  0  0  0
 61131  1  0  0  0
 62132  1  0  0  0
 62133  1  0  0  0
 62134  1  0  0  0
 63 65  1  0  0  0
 63135  1  0  0  0
 63136  1  0  0  0
 63137  1  0  0  0
 64138  1  0  0  0
 65139  1  0  0  0
 68 76  1  0  0  0
 71 73  2  0  0  0
 71 77  1  0  0  0
 71140  1  0  0  0
 72 73  1  0  0  0
 72 74  2  0  0  0
 72 76  1  0  0  0
 73 79  1  0  0  0
 74 75  1  0  0  0
 74 80  1  0  0  0
 75 77  2  0  0  0
 75 78  1  0  0  0
 76141  1  0  0  0
 76142  1  0  0  0
 78143  1  0  0  0
M  ISO  4   1 100  68 101  76 101  78 100
M  END
> <chiral flag>
0

> <version>
0

> <s_m_source_file>
/data/baiqing/PycharmProjects/Reinvent-master-3.2/result/LINK_invent/BTK/process_docking_weight1_custom_sum_contain_oxygen_bond_distance_aromatic_linkinvent_7_9_3/rearranged_h_0017.sdf

> <i_m_source_file_index>
17

> <r_mmod_Potential_Energy-OPLS-2005>
2724.88330078125

> <r_mmod_Stretch_Energy-OPLS-2005>
1269.12878417969

> <r_mmod_Bend_Energy-OPLS-2005>
649.241027832031

> <r_mmod_Torsional_Energy-OPLS-2005>
214.72265625

> <r_mmod_Improper_Torsional_Energy-OPLS-2005>
4.15565013885498

> <r_mmod_Van_der_Waal_Energy-OPLS-2005>
126.793464660645

> <r_mmod_Electrostatic_Energy-OPLS-2005>
-433.252716064453

> <r_mmod_Solvation_Energy-OPLS-2005>
-238.792434692383

> <b_mmod_Minimization_Converged-OPLS-2005>
1

> <r_mmod_RMS_Derivative-OPLS-2005>
0.0354947745800018

$$$$
17
                    3D
 Structure written by MMmdl.
168176  0  0  1  0            999 V2000
  -30.6782  -14.4804   20.6561 C   0  0  0  0  0  0
  -30.4202  -12.3488   19.4010 C   0  0  0  0  0  0
  -29.4751  -12.5317   18.1966 C   0  0  0  0  0  0
  -28.0027  -12.3644   18.6199 C   0  0  0  0  0  0
  -27.6527  -13.2019   19.8797 C   0  0  2  0  0  0
  -28.6943  -12.9619   20.9922 C   0  0  0  0  0  0
  -25.2540  -13.8160   20.5668 C   0  0  0  0  0  0
  -24.1814  -13.0441   20.9177 C   0  0  0  0  0  0
  -24.6350  -11.6898   20.8728 C   0  0  0  0  0  0
  -23.9022  -10.4292   21.0384 C   0  0  0  0  0  0
  -24.3600   -9.4194   21.9141 C   0  0  0  0  0  0
  -23.6282   -8.2235   22.0705 C   0  0  0  0  0  0
  -22.4250   -8.0269   21.3510 C   0  0  0  0  0  0
  -21.9892   -9.0239   20.4608 C   0  0  0  0  0  0
  -22.7210  -10.2125   20.3023 C   0  0  0  0  0  0
  -21.6845   -6.0716   22.5246 C   0  0  0  0  0  0
  -21.4005   -6.5632   23.8173 C   0  0  0  0  0  0
  -21.3676   -5.6792   24.9146 C   0  0  0  0  0  0
  -21.6038   -4.3045   24.7196 C   0  0  0  0  0  0
  -21.8833   -3.8139   23.4317 C   0  0  0  0  0  0
  -21.9187   -4.6955   22.3363 C   0  0  0  0  0  0
  -22.7834  -13.5198   21.1858 C   0  0  0  0  0  0
  -22.1663   -4.2138   21.0946 F   0  0  0  0  0  0
  -21.5638   -3.4533   25.7718 F   0  0  0  0  0  0
  -30.0151  -13.3105   20.4415 N   0  0  0  0  0  0
  -26.2968  -12.9298   20.3405 N   0  0  0  0  0  0
  -25.9283  -11.6464   20.5757 N   0  0  0  0  0  0
  -22.0580  -12.8174   22.0461 N   0  0  0  0  0  0
  -25.4391  -15.1875   20.4060 N   0  0  0  0  0  0
  -31.8036  -14.7066   20.1885 O   0  0  0  0  0  0
  -21.6623   -6.8855   21.4209 O   0  0  0  0  0  0
  -22.3505  -14.5519   20.6713 O   0  0  0  0  0  0
  -24.6239  -31.8675   23.2125 C   0  0  0  0  0  0
  -25.9131  -32.4818   23.8415 C   0  0  1  0  0  0
  -27.1972  -27.3830   20.0522 C   0  0  0  0  0  0
  -25.5963  -33.8611   24.2352 N   0  0  0  0  0  0
  -23.4058  -30.5027   21.5619 C   0  0  2  0  0  0
  -24.8358  -28.9734   20.1215 C   0  0  0  0  0  0
  -22.7443  -29.4695   22.5029 C   0  0  0  0  0  0
  -18.0282  -28.1386   22.8548 C   0  0  0  0  0  0
  -24.1518  -36.7312   23.2631 C   0  0  0  0  0  0
  -25.9484  -30.8133   21.3761 C   0  0  0  0  0  0
  -26.0122  -29.4500   20.7106 C   0  0  0  0  0  0
  -27.1973  -28.6635   20.6798 C   0  0  0  0  0  0
  -25.9828  -26.9466   19.4642 C   0  0  0  0  0  0
  -24.8172  -27.7198   19.5001 C   0  0  0  0  0  0
  -23.6103  -29.8515   20.1761 C   0  0  0  0  0  0
  -25.4134  -36.3099   24.0339 C   0  0  1  0  0  0
  -20.5884  -28.3682   23.1327 C   0  0  2  0  0  0
  -20.6764  -26.9414   22.5429 C   0  0  0  0  0  0
  -19.5741  -26.6420   21.5227 C   0  0  0  0  0  0
  -18.1910  -26.7939   22.1634 C   0  0  0  0  0  0
  -19.1551  -28.8851   23.2928 C   0  0  0  0  0  0
  -18.9444  -30.1440   23.8949 C   0  0  0  0  0  0
  -17.6449  -30.6580   24.0579 C   0  0  0  0  0  0
  -25.9057  -34.9463   23.5120 C   0  0  0  0  0  0
  -16.5341  -29.9089   23.6338 C   0  0  0  0  0  0
  -16.7263  -28.6501   23.0379 C   0  0  0  0  0  0
  -26.4502  -31.6547   25.0724 C   0  0  0  0  0  0
  -25.3762  -31.3671   26.1472 C   0  0  0  0  0  0
  -27.0298  -30.2988   24.6062 C   0  0  0  0  0  0
  -27.6112  -32.4228   25.7474 C   0  0  0  0  0  0
  -27.5607  -37.1820   24.8466 C   0  0  0  0  0  0
  -21.4185  -29.3049   22.3757 N   0  0  0  0  0  0
  -26.4317  -37.3784   23.9409 N   0  0  0  0  0  0
  -24.6787  -31.0763   22.1047 N   0  0  0  0  0  0
  -23.4200  -28.8229   23.3070 O   0  0  0  0  0  0
  -28.3405  -26.5828   20.0287 O   0  0  0  0  0  0
  -26.5623  -34.8923   22.4693 O   0  0  0  0  0  0
  -23.5436  -32.1466   23.7528 O   0  0  0  0  0  0
  -29.1561  -19.6464   20.1843 C   0  0  0  0  0  0
  -30.5880  -20.4467   21.9811 C   0  0  0  0  0  0
  -30.1914  -18.0065   21.6915 C   0  0  0  0  0  0
  -29.8125  -20.7216   20.8238 C   0  0  0  0  0  0
  -29.3265  -18.3105   20.6132 C   0  0  0  0  0  0
  -30.7794  -19.0975   22.3963 C   0  0  0  0  0  0
  -29.4396  -24.3770   16.6309 C   0  0  0  0  0  0
  -29.2617  -23.1643   20.4015 C   0  0  0  0  0  0
  -31.2847  -21.5660   22.7515 C   0  0  0  0  0  0
  -28.5647  -23.8016   15.5135 C   0  0  0  0  0  0
  -30.7340  -25.0759   19.6715 C   0  0  0  0  0  0
  -30.5495  -16.5602   22.1134 C   0  0  0  0  0  0
  -29.5688  -23.5658   17.9317 C   0  0  0  0  0  0
  -28.2232  -25.3032   19.3394 C   0  0  0  0  0  0
  -29.4413  -24.2995   19.3281 C   0  0  1  0  0  0
  -29.8597  -21.9781   20.1390 N   0  0  0  0  0  0
  -30.0019  -15.3955   21.3825 N   0  0  0  0  0  0
  -30.0190  -25.4527   16.4750 O   0  0  0  0  0  0
  -28.6088  -23.3569   21.4316 O   0  0  0  0  0  0
  -28.6670  -17.3258   19.9533 F   0  0  0  0  0  0
  -31.7967  -18.7753   23.7628 Cl  0  0  0  0  0  0
  -31.4578  -12.4847   19.0918 H   0  0  0  0  0  0
  -30.3534  -11.3330   19.7896 H   0  0  0  0  0  0
  -29.7174  -11.8223   17.4053 H   0  0  0  0  0  0
  -29.6190  -13.5260   17.7726 H   0  0  0  0  0  0
  -27.8256  -11.3059   18.8191 H   0  0  0  0  0  0
  -27.3337  -12.6269   17.7995 H   0  0  0  0  0  0
  -27.7013  -14.2518   19.5945 H   0  0  0  0  0  0
  -28.6909  -11.9089   21.2807 H   0  0  0  0  0  0
  -28.4407  -13.5000   21.9059 H   0  0  0  0  0  0
  -25.2755   -9.5654   22.4688 H   0  0  0  0  0  0
  -23.9990   -7.4604   22.7408 H   0  0  0  0  0  0
  -21.0818   -8.8745   19.8906 H   0  0  0  0  0  0
  -22.3653  -10.9658   19.6124 H   0  0  0  0  0  0
  -21.2007   -7.6144   23.9660 H   0  0  0  0  0  0
  -21.1491   -6.0525   25.9036 H   0  0  0  0  0  0
  -22.0606   -2.7602   23.2800 H   0  0  0  0  0  0
  -22.4282  -11.9833   22.4773 H   0  0  0  0  0  0
  -21.1195  -13.1129   22.2745 H   0  0  0  0  0  0
  -24.6891  -15.8624   20.4957 H   0  0  0  0  0  0
  -26.3075  -15.6028   20.0937 H   0  0  0  0  0  0
  -26.7194  -32.5471   23.1139 H   0  0  0  0  0  0
  -25.0071  -33.9753   25.0473 H   0  0  0  0  0  0
  -22.6971  -31.3229   21.4334 H   0  0  0  0  0  0
  -23.3769  -35.9649   23.3259 H   0  0  0  0  0  0
  -24.3657  -36.8972   22.2061 H   0  0  0  0  0  0
  -23.7274  -37.6508   23.6658 H   0  0  0  0  0  0
  -26.0787  -31.5837   20.6149 H   0  0  0  0  0  0
  -26.8313  -30.8533   21.9969 H   0  0  0  0  0  0
  -28.1056  -29.0327   21.1371 H   0  0  0  0  0  0
  -25.8735  -25.9981   18.9610 H   0  0  0  0  0  0
  -23.9051  -27.3417   19.0544 H   0  0  0  0  0  0
  -23.7297  -30.6321   19.4254 H   0  0  0  0  0  0
  -22.7256  -29.2885   19.8719 H   0  0  0  0  0  0
  -25.1302  -36.1962   25.0836 H   0  0  0  0  0  0
  -20.9963  -28.3227   24.1453 H   0  0  0  0  0  0
  -20.5643  -26.2308   23.3625 H   0  0  0  0  0  0
  -21.6631  -26.7450   22.1241 H   0  0  0  0  0  0
  -19.6897  -25.6338   21.1218 H   0  0  0  0  0  0
  -19.6653  -27.3267   20.6772 H   0  0  0  0  0  0
  -17.4207  -26.6758   21.4007 H   0  0  0  0  0  0
  -18.0260  -26.0028   22.8974 H   0  0  0  0  0  0
  -19.7899  -30.7245   24.2353 H   0  0  0  0  0  0
  -17.4985  -31.6250   24.5172 H   0  0  0  0  0  0
  -15.5338  -30.2985   23.7606 H   0  0  0  0  0  0
  -15.8673  -28.0777   22.7112 H   0  0  0  0  0  0
  -24.5950  -30.6993   25.7803 H   0  0  0  0  0  0
  -24.8923  -32.2826   26.4874 H   0  0  0  0  0  0
  -25.8125  -30.8865   27.0239 H   0  0  0  0  0  0
  -26.2864  -29.6843   24.0969 H   0  0  0  0  0  0
  -27.3909  -29.7108   25.4501 H   0  0  0  0  0  0
  -27.8753  -30.4297   23.9332 H   0  0  0  0  0  0
  -27.2764  -33.3510   26.2104 H   0  0  0  0  0  0
  -28.3879  -32.6808   25.0271 H   0  0  0  0  0  0
  -28.0793  -31.8294   26.5332 H   0  0  0  0  0  0
  -28.2598  -38.0126   24.7504 H   0  0  0  0  0  0
  -28.1124  -36.2670   24.6270 H   0  0  0  0  0  0
  -27.2349  -37.1451   25.8870 H   0  0  0  0  0  0
  -20.9358  -29.8786   21.6977 H   0  0  0  0  0  0
  -26.0199  -38.2875   24.1345 H   0  0  0  0  0  0
  -28.5456  -19.8271   19.3122 H   0  0  0  0  0  0
  -30.9753  -22.5637   22.4412 H   0  0  0  0  0  0
  -32.3695  -21.5023   22.6378 H   0  0  0  0  0  0
  -31.0525  -21.5035   23.8167 H   0  0  0  0  0  0
  -27.6367  -23.3882   15.9041 H   0  0  0  0  0  0
  -29.0869  -23.0117   14.9715 H   0  0  0  0  0  0
  -28.2943  -24.5868   14.8023 H   0  0  0  0  0  0
  -31.6019  -24.4194   19.7417 H   0  0  0  0  0  0
  -30.6393  -25.5807   20.6343 H   0  0  0  0  0  0
  -30.9526  -25.8413   18.9296 H   0  0  0  0  0  0
  -30.2442  -16.4402   23.1556 H   0  0  0  0  0  0
  -31.6392  -16.4814   22.1262 H   0  0  0  0  0  0
  -30.5368  -23.0659   17.8718 H   0  0  0  0  0  0
  -28.8267  -22.7676   17.8766 H   0  0  0  0  0  0
  -27.3621  -24.7571   19.7325 H   0  0  0  0  0  0
  -27.9561  -25.5638   18.3183 H   0  0  0  0  0  0
  -30.3424  -21.9515   19.2497 H   0  0  0  0  0  0
  -29.0419  -15.1637   21.5799 H   0  0  0  0  0  0
  1 25  1  0  0  0
  1 30  2  0  0  0
  1 87  1  0  0  0
  2  3  1  0  0  0
  2 25  1  0  0  0
  2 92  1  0  0  0
  2 93  1  0  0  0
  3  4  1  0  0  0
  3 94  1  0  0  0
  3 95  1  0  0  0
  4  5  1  0  0  0
  4 96  1  0  0  0
  4 97  1  0  0  0
  5  6  1  0  0  0
  5 26  1  0  0  0
  5 98  1  0  0  0
  6 25  1  0  0  0
  6 99  1  0  0  0
  6100  1  0  0  0
  7  8  2  0  0  0
  7 26  1  0  0  0
  7 29  1  0  0  0
  8  9  1  0  0  0
  8 22  1  0  0  0
  9 10  1  0  0  0
  9 27  2  0  0  0
 10 11  2  0  0  0
 10 15  1  0  0  0
 11 12  1  0  0  0
 11101  1  0  0  0
 12 13  2  0  0  0
 12102  1  0  0  0
 13 14  1  0  0  0
 13 31  1  0  0  0
 14 15  2  0  0  0
 14103  1  0  0  0
 15104  1  0  0  0
 16 17  2  0  0  0
 16 21  1  0  0  0
 16 31  1  0  0  0
 17 18  1  0  0  0
 17105  1  0  0  0
 18 19  2  0  0  0
 18106  1  0  0  0
 19 20  1  0  0  0
 19 24  1  0  0  0
 20 21  2  0  0  0
 20107  1  0  0  0
 21 23  1  0  0  0
 22 28  1  0  0  0
 22 32  2  0  0  0
 26 27  1  0  0  0
 28108  1  0  0  0
 28109  1  0  0  0
 29110  1  0  0  0
 29111  1  0  0  0
 33 34  1  0  0  0
 33 66  1  0  0  0
 33 70  2  0  0  0
 34 36  1  0  0  0
 34 59  1  0  0  0
 34112  1  0  0  0
 35 44  2  0  0  0
 35 45  1  0  0  0
 35 68  1  0  0  0
 36 56  1  0  0  0
 36113  1  0  0  0
 37 39  1  0  0  0
 37 47  1  0  0  0
 37 66  1  0  0  0
 37114  1  0  0  0
 38 43  2  0  0  0
 38 46  1  0  0  0
 38 47  1  0  0  0
 39 64  1  0  0  0
 39 67  2  0  0  0
 40 52  1  0  0  0
 40 53  2  0  0  0
 40 58  1  0  0  0
 41115  1  0  0  0
 41116  1  0  0  0
 41117  1  0  0  0
 41 48  1  0  0  0
 42 43  1  0  0  0
 42 66  1  0  0  0
 42118  1  0  0  0
 42119  1  0  0  0
 43 44  1  0  0  0
 44120  1  0  0  0
 45 46  2  0  0  0
 45121  1  0  0  0
 46122  1  0  0  0
 47123  1  0  0  0
 47124  1  0  0  0
 48 56  1  0  0  0
 48 65  1  0  0  0
 48125  1  0  0  0
 49 50  1  0  0  0
 49 53  1  0  0  0
 49 64  1  0  0  0
 49126  1  0  0  0
 50 51  1  0  0  0
 50127  1  0  0  0
 50128  1  0  0  0
 51 52  1  0  0  0
 51129  1  0  0  0
 51130  1  0  0  0
 52131  1  0  0  0
 52132  1  0  0  0
 53 54  1  0  0  0
 54 55  2  0  0  0
 54133  1  0  0  0
 55 57  1  0  0  0
 55134  1  0  0  0
 56 69  2  0  0  0
 57 58  2  0  0  0
 57135  1  0  0  0
 58136  1  0  0  0
 59 60  1  0  0  0
 59 61  1  0  0  0
 59 62  1  0  0  0
 60137  1  0  0  0
 60138  1  0  0  0
 60139  1  0  0  0
 61140  1  0  0  0
 61141  1  0  0  0
 61142  1  0  0  0
 62143  1  0  0  0
 62144  1  0  0  0
 62145  1  0  0  0
 63 65  1  0  0  0
 63146  1  0  0  0
 63147  1  0  0  0
 63148  1  0  0  0
 64149  1  0  0  0
 65150  1  0  0  0
 68 84  1  0  0  0
 71 74  2  0  0  0
 71 75  1  0  0  0
 71151  1  0  0  0
 72 74  1  0  0  0
 72 76  2  0  0  0
 72 79  1  0  0  0
 73 75  2  0  0  0
 73 76  1  0  0  0
 73 82  1  0  0  0
 74 86  1  0  0  0
 75 90  1  0  0  0
 76 91  1  0  0  0
 77 80  1  0  0  0
 77 83  1  0  0  0
 77 88  2  0  0  0
 78 86  1  0  0  0
 78 89  2  0  0  0
 78 85  1  0  0  0
 79152  1  0  0  0
 79153  1  0  0  0
 79154  1  0  0  0
 80155  1  0  0  0
 80156  1  0  0  0
 80157  1  0  0  0
 81158  1  0  0  0
 81159  1  0  0  0
 81160  1  0  0  0
 81 85  1  0  0  0
 82 87  1  0  0  0
 82161  1  0  0  0
 82162  1  0  0  0
 83 85  1  0  0  0
 83163  1  0  0  0
 83164  1  0  0  0
 84 85  1  0  0  0
 84165  1  0  0  0
 84166  1  0  0  0
 86167  1  0  0  0
 87168  1  0  0  0
M  ISO  4   1 100  68 101  84 101  87 100
M  END
> <chiral flag>
0

> <version>
0

> <s_m_source_file>
/data/baiqing/PycharmProjects/Reinvent-master-3.2/result/LINK_invent/BTK/process_docking_weight1_custom_sum_contain_oxygen_bond_distance_aromatic_linkinvent_7_9_3/rearranged_h_0017.sdf

> <i_m_source_file_index>
18

> <r_mmod_Potential_Energy-OPLS-2005>
-86.1763381958008

> <r_mmod_Stretch_Energy-OPLS-2005>
57.0111045837402

> <r_mmod_Bend_Energy-OPLS-2005>
130.875122070312

> <r_mmod_Torsional_Energy-OPLS-2005>
241.43962097168

> <r_mmod_Improper_Torsional_Energy-OPLS-2005>
3.85862827301025

> <r_mmod_Van_der_Waal_Energy-OPLS-2005>
181.513107299805

> <r_mmod_Electrostatic_Energy-OPLS-2005>
-474.00732421875

> <r_mmod_Solvation_Energy-OPLS-2005>
-248.557983398438

> <b_mmod_Minimization_Converged-OPLS-2005>
0

> <r_mmod_RMS_Derivative-OPLS-2005>
6.1224308013916

$$$$
18
                    3D
 Structure written by MMmdl.
157165  0  0  1  0            999 V2000
  -30.5333  -14.8661   20.4377 C   0  0  0  0  0  0
  -30.4540  -12.5318   19.4857 C   0  0  0  0  0  0
  -29.5241  -12.5258   18.2483 C   0  0  0  0  0  0
  -28.0525  -12.3228   18.6620 C   0  0  0  0  0  0
  -27.6395  -13.2339   19.8474 C   0  0  2  0  0  0
  -28.6850  -13.2003   20.9837 C   0  0  0  0  0  0
  -25.2501  -13.8186   20.5715 C   0  0  0  0  0  0
  -24.1798  -13.0420   20.9206 C   0  0  0  0  0  0
  -24.6401  -11.6906   20.8751 C   0  0  0  0  0  0
  -23.9079  -10.4281   21.0414 C   0  0  0  0  0  0
  -24.3624   -9.4193   21.9193 C   0  0  0  0  0  0
  -23.6293   -8.2231   22.0758 C   0  0  0  0  0  0
  -22.4275   -8.0276   21.3543 C   0  0  0  0  0  0
  -21.9917   -9.0252   20.4647 C   0  0  0  0  0  0
  -22.7251  -10.2128   20.3061 C   0  0  0  0  0  0
  -21.6849   -6.0734   22.5278 C   0  0  0  0  0  0
  -21.4011   -6.5635   23.8212 C   0  0  0  0  0  0
  -21.3669   -5.6790   24.9176 C   0  0  0  0  0  0
  -21.6049   -4.3052   24.7230 C   0  0  0  0  0  0
  -21.8811   -3.8142   23.4349 C   0  0  0  0  0  0
  -21.9187   -4.6960   22.3403 C   0  0  0  0  0  0
  -22.7815  -13.5206   21.1859 C   0  0  0  0  0  0
  -22.1654   -4.2141   21.0983 F   0  0  0  0  0  0
  -21.5640   -3.4539   25.7746 F   0  0  0  0  0  0
  -29.9756  -13.5978   20.4003 N   0  0  0  0  0  0
  -26.2931  -12.9399   20.3271 N   0  0  0  0  0  0
  -25.9328  -11.6539   20.5738 N   0  0  0  0  0  0
  -22.0453  -12.8216   22.0423 N   0  0  0  0  0  0
  -25.4094  -15.1936   20.4202 N   0  0  0  0  0  0
  -31.7302  -15.0046   20.1615 O   0  0  0  0  0  0
  -21.6629   -6.8880   21.4242 O   0  0  0  0  0  0
  -22.3504  -14.5509   20.6700 O   0  0  0  0  0  0
  -24.6387  -31.8501   23.1913 C   0  0  0  0  0  0
  -25.9181  -32.4729   23.8281 C   0  0  1  0  0  0
  -27.2187  -27.1918   20.1488 C   0  0  0  0  0  0
  -25.5960  -33.8530   24.2214 N   0  0  0  0  0  0
  -23.4390  -30.4703   21.5367 C   0  0  2  0  0  0
  -24.8875  -28.9018   20.1131 C   0  0  0  0  0  0
  -22.7548  -29.4588   22.4896 C   0  0  0  0  0  0
  -18.0316  -28.1393   22.8480 C   0  0  0  0  0  0
  -24.1492  -36.7268   23.2634 C   0  0  0  0  0  0
  -25.9900  -30.7419   21.3807 C   0  0  0  0  0  0
  -26.0629  -29.3563   20.7257 C   0  0  0  0  0  0
  -27.2337  -28.5181   20.7221 C   0  0  0  0  0  0
  -26.0210  -26.8206   19.5032 C   0  0  0  0  0  0
  -24.8766  -27.6464   19.4861 C   0  0  0  0  0  0
  -23.6615  -29.7990   20.1561 C   0  0  0  0  0  0
  -25.4124  -36.3050   24.0316 C   0  0  1  0  0  0
  -20.5916  -28.3738   23.1282 C   0  0  2  0  0  0
  -20.6819  -26.9450   22.5431 C   0  0  0  0  0  0
  -19.5796  -26.6401   21.5235 C   0  0  0  0  0  0
  -18.1969  -26.7926   22.1633 C   0  0  0  0  0  0
  -19.1556  -28.8878   23.2870 C   0  0  0  0  0  0
  -18.9464  -30.1476   23.8888 C   0  0  0  0  0  0
  -17.6461  -30.6593   24.0560 C   0  0  0  0  0  0
  -25.9073  -34.9424   23.5068 C   0  0  0  0  0  0
  -16.5359  -29.9085   23.6306 C   0  0  0  0  0  0
  -16.7298  -28.6506   23.0324 C   0  0  0  0  0  0
  -26.4519  -31.6571   25.0695 C   0  0  0  0  0  0
  -25.3710  -31.3749   26.1393 C   0  0  0  0  0  0
  -27.0362  -30.2967   24.6231 C   0  0  0  0  0  0
  -27.6063  -32.4322   25.7476 C   0  0  0  0  0  0
  -27.5581  -37.1796   24.8464 C   0  0  0  0  0  0
  -21.4233  -29.3093   22.3670 N   0  0  0  0  0  0
  -26.4287  -37.3762   23.9412 N   0  0  0  0  0  0
  -24.7089  -31.0410   22.0913 N   0  0  0  0  0  0
  -23.4220  -28.8108   23.2998 O   0  0  0  0  0  0
  -28.2940  -26.2512   20.1567 O   0  0  0  0  0  0
  -26.5639  -34.8910   22.4635 O   0  0  0  0  0  0
  -23.5524  -32.1353   23.7174 O   0  0  0  0  0  0
  -30.3716  -19.8300   20.9346 C   0  0  0  0  0  0
  -30.6085  -18.3966   20.8907 C   0  0  0  0  0  0
  -29.1428  -20.4742   20.5582 C   0  0  0  0  0  0
  -28.1801  -19.5305   20.0661 C   0  0  0  0  0  0
  -29.6231  -17.4535   20.4617 C   0  0  0  0  0  0
  -28.4215  -18.0974   20.0105 C   0  0  0  0  0  0
  -26.8114  -20.0588   19.6578 C   0  0  0  0  0  0
  -27.6048  -16.9274   18.1713 C   0  0  0  0  0  0
  -28.7777  -22.0237   20.9583 C   0  0  0  0  0  0
  -28.7593  -23.4054   20.0414 C   0  0  0  0  0  0
  -28.0740  -24.8058   20.6288 C   0  0  0  0  0  0
  -29.6431  -15.9420   20.5720 N   0  0  0  0  0  0
  -27.4252  -17.2822   19.5383 O   0  0  0  0  0  0
  -31.4878  -12.6976   19.1782 H   0  0  0  0  0  0
  -30.4396  -11.5640   19.9883 H   0  0  0  0  0  0
  -29.8314  -11.7443   17.5518 H   0  0  0  0  0  0
  -29.6244  -13.4718   17.7131 H   0  0  0  0  0  0
  -27.9328  -11.2763   18.9440 H   0  0  0  0  0  0
  -27.3920  -12.4871   17.8098 H   0  0  0  0  0  0
  -27.6168  -14.2459   19.4460 H   0  0  0  0  0  0
  -28.7487  -12.2056   21.4273 H   0  0  0  0  0  0
  -28.3963  -13.8758   21.7906 H   0  0  0  0  0  0
  -25.2767   -9.5663   22.4774 H   0  0  0  0  0  0
  -23.9990   -7.4621   22.7490 H   0  0  0  0  0  0
  -21.0840   -8.8788   19.8959 H   0  0  0  0  0  0
  -22.3717  -10.9675   19.6176 H   0  0  0  0  0  0
  -21.1994   -7.6139   23.9717 H   0  0  0  0  0  0
  -21.1508   -6.0521   25.9084 H   0  0  0  0  0  0
  -22.0580   -2.7601   23.2854 H   0  0  0  0  0  0
  -22.4059  -11.9889   22.4831 H   0  0  0  0  0  0
  -21.1071  -13.1265   22.2604 H   0  0  0  0  0  0
  -24.6278  -15.8270   20.5482 H   0  0  0  0  0  0
  -26.2449  -15.6758   20.1079 H   0  0  0  0  0  0
  -26.7243  -32.5344   23.1014 H   0  0  0  0  0  0
  -25.0110  -33.9657   25.0357 H   0  0  0  0  0  0
  -22.7378  -31.2937   21.3868 H   0  0  0  0  0  0
  -23.3758  -35.9597   23.3286 H   0  0  0  0  0  0
  -24.3573  -36.8905   22.2049 H   0  0  0  0  0  0
  -23.7236  -37.6461   23.6668 H   0  0  0  0  0  0
  -26.1340  -31.4988   20.6083 H   0  0  0  0  0  0
  -26.8647  -30.7938   22.0171 H   0  0  0  0  0  0
  -28.1349  -28.8670   21.2055 H   0  0  0  0  0  0
  -25.9590  -25.8593   19.0128 H   0  0  0  0  0  0
  -23.9810  -27.2975   18.9912 H   0  0  0  0  0  0
  -23.7916  -30.5731   19.3991 H   0  0  0  0  0  0
  -22.7776  -29.2370   19.8496 H   0  0  0  0  0  0
  -25.1312  -36.1886   25.0806 H   0  0  0  0  0  0
  -20.9991  -28.3330   24.1416 H   0  0  0  0  0  0
  -20.5737  -26.2343   23.3640 H   0  0  0  0  0  0
  -21.6681  -26.7475   22.1216 H   0  0  0  0  0  0
  -19.6983  -25.6321   21.1249 H   0  0  0  0  0  0
  -19.6731  -27.3228   20.6782 H   0  0  0  0  0  0
  -17.4256  -26.6657   21.4019 H   0  0  0  0  0  0
  -18.0367  -26.0073   22.9041 H   0  0  0  0  0  0
  -19.7927  -30.7308   24.2262 H   0  0  0  0  0  0
  -17.4996  -31.6260   24.5178 H   0  0  0  0  0  0
  -15.5352  -30.2977   23.7635 H   0  0  0  0  0  0
  -15.8712  -28.0811   22.7021 H   0  0  0  0  0  0
  -24.5907  -30.7084   25.7704 H   0  0  0  0  0  0
  -24.8876  -32.2925   26.4757 H   0  0  0  0  0  0
  -25.7997  -30.8959   27.0200 H   0  0  0  0  0  0
  -26.2954  -29.6715   24.1234 H   0  0  0  0  0  0
  -27.3978  -29.7248   25.4788 H   0  0  0  0  0  0
  -27.8863  -30.4207   23.9518 H   0  0  0  0  0  0
  -27.2670  -33.3637   26.2019 H   0  0  0  0  0  0
  -28.3887  -32.6864   25.0311 H   0  0  0  0  0  0
  -28.0708  -31.8460   26.5418 H   0  0  0  0  0  0
  -28.2600  -38.0094   24.7512 H   0  0  0  0  0  0
  -28.1076  -36.2625   24.6287 H   0  0  0  0  0  0
  -27.2293  -37.1433   25.8863 H   0  0  0  0  0  0
  -20.9415  -29.8859   21.6904 H   0  0  0  0  0  0
  -26.0162  -38.2831   24.1409 H   0  0  0  0  0  0
  -31.1566  -20.4477   21.3495 H   0  0  0  0  0  0
  -31.5518  -18.0211   21.2608 H   0  0  0  0  0  0
  -26.1845  -20.1899   20.5397 H   0  0  0  0  0  0
  -26.2888  -19.3905   18.9745 H   0  0  0  0  0  0
  -26.8997  -21.0216   19.1546 H   0  0  0  0  0  0
  -26.7958  -16.2713   17.8517 H   0  0  0  0  0  0
  -28.5436  -16.3962   18.0080 H   0  0  0  0  0  0
  -27.5966  -17.8107   17.5308 H   0  0  0  0  0  0
  -29.4319  -22.2499   21.8010 H   0  0  0  0  0  0
  -27.7906  -21.9644   21.4179 H   0  0  0  0  0  0
  -28.2552  -23.1771   19.1017 H   0  0  0  0  0  0
  -29.7905  -23.6224   19.7657 H   0  0  0  0  0  0
  -28.3703  -24.8466   21.6770 H   0  0  0  0  0  0
  -27.0012  -24.6217   20.6794 H   0  0  0  0  0  0
  -28.7076  -15.5803   20.6688 H   0  0  0  0  0  0
  1 25  1  0  0  0
  1 30  2  0  0  0
  1 82  1  0  0  0
  2  3  1  0  0  0
  2 25  1  0  0  0
  2 84  1  0  0  0
  2 85  1  0  0  0
  3  4  1  0  0  0
  3 86  1  0  0  0
  3 87  1  0  0  0
  4  5  1  0  0  0
  4 88  1  0  0  0
  4 89  1  0  0  0
  5  6  1  0  0  0
  5 26  1  0  0  0
  5 90  1  0  0  0
  6 25  1  0  0  0
  6 91  1  0  0  0
  6 92  1  0  0  0
  7  8  2  0  0  0
  7 26  1  0  0  0
  7 29  1  0  0  0
  8  9  1  0  0  0
  8 22  1  0  0  0
  9 10  1  0  0  0
  9 27  2  0  0  0
 10 11  2  0  0  0
 10 15  1  0  0  0
 11 12  1  0  0  0
 11 93  1  0  0  0
 12 13  2  0  0  0
 12 94  1  0  0  0
 13 14  1  0  0  0
 13 31  1  0  0  0
 14 15  2  0  0  0
 14 95  1  0  0  0
 15 96  1  0  0  0
 16 17  2  0  0  0
 16 21  1  0  0  0
 16 31  1  0  0  0
 17 18  1  0  0  0
 17 97  1  0  0  0
 18 19  2  0  0  0
 18 98  1  0  0  0
 19 20  1  0  0  0
 19 24  1  0  0  0
 20 21  2  0  0  0
 20 99  1  0  0  0
 21 23  1  0  0  0
 22 28  1  0  0  0
 22 32  2  0  0  0
 26 27  1  0  0  0
 28100  1  0  0  0
 28101  1  0  0  0
 29102  1  0  0  0
 29103  1  0  0  0
 33 34  1  0  0  0
 33 66  1  0  0  0
 33 70  2  0  0  0
 34 36  1  0  0  0
 34 59  1  0  0  0
 34104  1  0  0  0
 35 44  2  0  0  0
 35 45  1  0  0  0
 35 68  1  0  0  0
 36 56  1  0  0  0
 36105  1  0  0  0
 37 39  1  0  0  0
 37 47  1  0  0  0
 37 66  1  0  0  0
 37106  1  0  0  0
 38 43  2  0  0  0
 38 46  1  0  0  0
 38 47  1  0  0  0
 39 64  1  0  0  0
 39 67  2  0  0  0
 40 52  1  0  0  0
 40 53  2  0  0  0
 40 58  1  0  0  0
 41107  1  0  0  0
 41108  1  0  0  0
 41109  1  0  0  0
 41 48  1  0  0  0
 42 43  1  0  0  0
 42 66  1  0  0  0
 42110  1  0  0  0
 42111  1  0  0  0
 43 44  1  0  0  0
 44112  1  0  0  0
 45 46  2  0  0  0
 45113  1  0  0  0
 46114  1  0  0  0
 47115  1  0  0  0
 47116  1  0  0  0
 48 56  1  0  0  0
 48 65  1  0  0  0
 48117  1  0  0  0
 49 50  1  0  0  0
 49 53  1  0  0  0
 49 64  1  0  0  0
 49118  1  0  0  0
 50 51  1  0  0  0
 50119  1  0  0  0
 50120  1  0  0  0
 51 52  1  0  0  0
 51121  1  0  0  0
 51122  1  0  0  0
 52123  1  0  0  0
 52124  1  0  0  0
 53 54  1  0  0  0
 54 55  2  0  0  0
 54125  1  0  0  0
 55 57  1  0  0  0
 55126  1  0  0  0
 56 69  2  0  0  0
 57 58  2  0  0  0
 57127  1  0  0  0
 58128  1  0  0  0
 59 60  1  0  0  0
 59 61  1  0  0  0
 59 62  1  0  0  0
 60129  1  0  0  0
 60130  1  0  0  0
 60131  1  0  0  0
 61132  1  0  0  0
 61133  1  0  0  0
 61134  1  0  0  0
 62135  1  0  0  0
 62136  1  0  0  0
 62137  1  0  0  0
 63 65  1  0  0  0
 63138  1  0  0  0
 63139  1  0  0  0
 63140  1  0  0  0
 64141  1  0  0  0
 65142  1  0  0  0
 68 81  1  0  0  0
 71 72  2  0  0  0
 71 73  1  0  0  0
 71143  1  0  0  0
 72 75  1  0  0  0
 72144  1  0  0  0
 73 74  2  0  0  0
 73 79  1  0  0  0
 74 76  1  0  0  0
 74 77  1  0  0  0
 75 76  2  0  0  0
 75 82  1  0  0  0
 76 83  1  0  0  0
 77145  1  0  0  0
 77146  1  0  0  0
 77147  1  0  0  0
 78 83  1  0  0  0
 78148  1  0  0  0
 78149  1  0  0  0
 78150  1  0  0  0
 79 80  1  0  0  0
 79151  1  0  0  0
 79152  1  0  0  0
 80 81  1  0  0  0
 80153  1  0  0  0
 80154  1  0  0  0
 81155  1  0  0  0
 81156  1  0  0  0
 82157  1  0  0  0
M  ISO  4   1 100  68 101  81 101  82 100
M  END
> <chiral flag>
0

> <version>
0

> <s_m_source_file>
/data/baiqing/PycharmProjects/Reinvent-master-3.2/result/LINK_invent/BTK/process_docking_weight1_custom_sum_contain_oxygen_bond_distance_aromatic_linkinvent_7_9_3/rearranged_h_0017.sdf

> <i_m_source_file_index>
19

> <r_mmod_Potential_Energy-OPLS-2005>
347.312835693359

> <r_mmod_Stretch_Energy-OPLS-2005>
185.41389465332

> <r_mmod_Bend_Energy-OPLS-2005>
237.432357788086

> <r_mmod_Torsional_Energy-OPLS-2005>
279.278442382812

> <r_mmod_Improper_Torsional_Energy-OPLS-2005>
7.99915218353271

> <r_mmod_Van_der_Waal_Energy-OPLS-2005>
124.825500488281

> <r_mmod_Electrostatic_Energy-OPLS-2005>
-431.395965576172

> <r_mmod_Solvation_Energy-OPLS-2005>
-197.672119140625

> <b_mmod_Minimization_Converged-OPLS-2005>
0

> <r_mmod_RMS_Derivative-OPLS-2005>
1.66425728797913

$$$$
19
                    3D
 Structure written by MMmdl.
166174  0  0  1  0            999 V2000
  -30.6336  -14.5999   20.4897 C   0  0  0  0  0  0
  -30.4319  -12.3624   19.4513 C   0  0  0  0  0  0
  -29.5047  -12.4926   18.2228 C   0  0  0  0  0  0
  -28.0268  -12.3410   18.6336 C   0  0  0  0  0  0
  -27.6534  -13.2118   19.8632 C   0  0  2  0  0  0
  -28.6959  -13.0624   20.9946 C   0  0  0  0  0  0
  -25.2568  -13.8160   20.5649 C   0  0  0  0  0  0
  -24.1831  -13.0435   20.9159 C   0  0  0  0  0  0
  -24.6397  -11.6902   20.8734 C   0  0  0  0  0  0
  -23.9062  -10.4292   21.0404 C   0  0  0  0  0  0
  -24.3613   -9.4210   21.9182 C   0  0  0  0  0  0
  -23.6292   -8.2245   22.0761 C   0  0  0  0  0  0
  -22.4273   -8.0279   21.3550 C   0  0  0  0  0  0
  -21.9907   -9.0248   20.4645 C   0  0  0  0  0  0
  -22.7237  -10.2127   20.3055 C   0  0  0  0  0  0
  -21.6852   -6.0723   22.5274 C   0  0  0  0  0  0
  -21.4016   -6.5632   23.8203 C   0  0  0  0  0  0
  -21.3662   -5.6792   24.9167 C   0  0  0  0  0  0
  -21.6047   -4.3055   24.7226 C   0  0  0  0  0  0
  -21.8823   -3.8141   23.4349 C   0  0  0  0  0  0
  -21.9194   -4.6952   22.3400 C   0  0  0  0  0  0
  -22.7856  -13.5234   21.1832 C   0  0  0  0  0  0
  -22.1661   -4.2138   21.0977 F   0  0  0  0  0  0
  -21.5631   -3.4538   25.7741 F   0  0  0  0  0  0
  -30.0145  -13.3840   20.4296 N   0  0  0  0  0  0
  -26.2992  -12.9337   20.3310 N   0  0  0  0  0  0
  -25.9325  -11.6494   20.5760 N   0  0  0  0  0  0
  -22.0515  -12.8225   22.0398 N   0  0  0  0  0  0
  -25.4282  -15.1876   20.4057 N   0  0  0  0  0  0
  -31.8208  -14.7284   20.1815 O   0  0  0  0  0  0
  -21.6642   -6.8866   21.4243 O   0  0  0  0  0  0
  -22.3546  -14.5539   20.6679 O   0  0  0  0  0  0
  -24.6207  -31.8610   23.2037 C   0  0  0  0  0  0
  -25.9094  -32.4771   23.8339 C   0  0  1  0  0  0
  -27.2192  -27.3535   20.1340 C   0  0  0  0  0  0
  -25.5937  -33.8562   24.2267 N   0  0  0  0  0  0
  -23.4115  -30.4829   21.5473 C   0  0  2  0  0  0
  -24.8595  -28.9336   20.1229 C   0  0  0  0  0  0
  -22.7435  -29.4618   22.4973 C   0  0  0  0  0  0
  -18.0256  -28.1372   22.8464 C   0  0  0  0  0  0
  -24.1499  -36.7282   23.2649 C   0  0  0  0  0  0
  -25.9470  -30.8021   21.3703 C   0  0  0  0  0  0
  -26.0231  -29.4256   20.7301 C   0  0  0  0  0  0
  -27.2107  -28.6420   20.7356 C   0  0  0  0  0  0
  -26.0441  -26.8956   19.5100 C   0  0  0  0  0  0
  -24.8662  -27.6684   19.5098 C   0  0  0  0  0  0
  -23.6264  -29.8126   20.1640 C   0  0  0  0  0  0
  -25.4123  -36.3054   24.0327 C   0  0  1  0  0  0
  -20.5852  -28.3649   23.1300 C   0  0  2  0  0  0
  -20.6751  -26.9384   22.5397 C   0  0  0  0  0  0
  -19.5734  -26.6371   21.5195 C   0  0  0  0  0  0
  -18.1901  -26.7913   22.1604 C   0  0  0  0  0  0
  -19.1510  -28.8831   23.2863 C   0  0  0  0  0  0
  -18.9457  -30.1443   23.8870 C   0  0  0  0  0  0
  -17.6461  -30.6591   24.0547 C   0  0  0  0  0  0
  -25.9060  -34.9431   23.5089 C   0  0  0  0  0  0
  -16.5344  -29.9084   23.6336 C   0  0  0  0  0  0
  -16.7250  -28.6499   23.0342 C   0  0  0  0  0  0
  -26.4503  -31.6595   25.0707 C   0  0  0  0  0  0
  -25.3745  -31.3710   26.1434 C   0  0  0  0  0  0
  -27.0369  -30.3043   24.6117 C   0  0  0  0  0  0
  -27.6022  -32.4374   25.7504 C   0  0  0  0  0  0
  -27.5571  -37.1780   24.8469 C   0  0  0  0  0  0
  -21.4155  -29.3021   22.3727 N   0  0  0  0  0  0
  -26.4289  -37.3758   23.9414 N   0  0  0  0  0  0
  -24.6782  -31.0652   22.0976 N   0  0  0  0  0  0
  -23.4172  -28.8172   23.3057 O   0  0  0  0  0  0
  -28.3419  -26.5477   20.0266 O   0  0  0  0  0  0
  -26.5625  -34.8907   22.4646 O   0  0  0  0  0  0
  -23.5396  -32.1420   23.7388 O   0  0  0  0  0  0
  -29.9857  -19.9288   19.9645 C   0  0  0  0  0  0
  -29.1846  -19.4501   21.0122 C   0  0  0  0  0  0
  -30.6735  -19.0486   19.1063 C   0  0  0  0  0  0
  -30.5897  -17.6386   19.2778 C   0  0  0  0  0  0
  -29.9219  -17.0999   20.4206 C   0  0  0  0  0  0
  -29.1965  -18.0239   21.2468 C   0  0  0  0  0  0
  -28.3027  -20.3848   21.8109 C   0  0  0  0  0  0
  -27.9346  -21.7143   21.8230 C   0  0  0  0  0  0
  -31.4604  -19.6673   17.9603 C   0  0  0  0  0  0
  -31.1333  -16.7485   18.1647 C   0  0  0  0  0  0
  -26.8800  -22.0845   22.8685 C   0  0  0  0  0  0
  -27.8451  -22.7847   19.5104 C   0  0  0  0  0  0
  -27.9810  -24.3738   21.5005 C   0  0  0  0  0  0
  -28.7403  -25.7126   21.1445 C   0  0  0  0  0  0
  -28.3978  -22.9329   20.9389 C   0  0  1  0  0  0
  -29.8105  -15.6676   20.7190 N   0  0  0  0  0  0
  -28.2663  -17.3468   22.5469 Cl  0  0  0  0  0  0
  -31.4752  -12.4766   19.1518 H   0  0  0  0  0  0
  -30.3535  -11.3670   19.8904 H   0  0  0  0  0  0
  -29.7634  -11.7395   17.4773 H   0  0  0  0  0  0
  -29.6558  -13.4609   17.7437 H   0  0  0  0  0  0
  -27.8573  -11.2877   18.8623 H   0  0  0  0  0  0
  -27.3744  -12.5751   17.7917 H   0  0  0  0  0  0
  -27.6740  -14.2461   19.5216 H   0  0  0  0  0  0
  -28.6970  -12.0443   21.3877 H   0  0  0  0  0  0
  -28.4508  -13.7084   21.8399 H   0  0  0  0  0  0
  -25.2760   -9.5679   22.4754 H   0  0  0  0  0  0
  -23.9993   -7.4641   22.7490 H   0  0  0  0  0  0
  -21.0834   -8.8768   19.8950 H   0  0  0  0  0  0
  -22.3700  -10.9662   19.6159 H   0  0  0  0  0  0
  -21.2013   -7.6143   23.9702 H   0  0  0  0  0  0
  -21.1482   -6.0522   25.9067 H   0  0  0  0  0  0
  -22.0603   -2.7607   23.2854 H   0  0  0  0  0  0
  -22.4140  -11.9870   22.4746 H   0  0  0  0  0  0
  -21.1155  -13.1264   22.2647 H   0  0  0  0  0  0
  -24.6597  -15.8406   20.5117 H   0  0  0  0  0  0
  -26.2833  -15.6330   20.1005 H   0  0  0  0  0  0
  -26.7155  -32.5475   23.1095 H   0  0  0  0  0  0
  -25.0080  -33.9692   25.0403 H   0  0  0  0  0  0
  -22.7026  -31.3005   21.4020 H   0  0  0  0  0  0
  -23.3742  -35.9634   23.3317 H   0  0  0  0  0  0
  -24.3591  -36.8907   22.2064 H   0  0  0  0  0  0
  -23.7279  -37.6487   23.6688 H   0  0  0  0  0  0
  -26.0655  -31.5598   20.5938 H   0  0  0  0  0  0
  -26.8313  -30.8593   21.9909 H   0  0  0  0  0  0
  -28.1129  -29.0219   21.1960 H   0  0  0  0  0  0
  -26.0427  -25.9305   19.0200 H   0  0  0  0  0  0
  -23.9740  -27.2842   19.0340 H   0  0  0  0  0  0
  -23.7441  -30.5865   19.4046 H   0  0  0  0  0  0
  -22.7462  -29.2395   19.8657 H   0  0  0  0  0  0
  -25.1303  -36.1885   25.0825 H   0  0  0  0  0  0
  -20.9892  -28.3218   24.1444 H   0  0  0  0  0  0
  -20.5660  -26.2253   23.3583 H   0  0  0  0  0  0
  -21.6627  -26.7442   22.1187 H   0  0  0  0  0  0
  -19.6904  -25.6275   21.1245 H   0  0  0  0  0  0
  -19.6701  -27.3156   20.6705 H   0  0  0  0  0  0
  -17.4168  -26.6628   21.4017 H   0  0  0  0  0  0
  -18.0315  -26.0067   22.9025 H   0  0  0  0  0  0
  -19.7954  -30.7225   24.2249 H   0  0  0  0  0  0
  -17.5045  -31.6288   24.5132 H   0  0  0  0  0  0
  -15.5345  -30.2971   23.7724 H   0  0  0  0  0  0
  -15.8637  -28.0833   22.7067 H   0  0  0  0  0  0
  -24.5898  -30.7093   25.7755 H   0  0  0  0  0  0
  -24.8956  -32.2875   26.4901 H   0  0  0  0  0  0
  -25.8071  -30.8851   27.0188 H   0  0  0  0  0  0
  -26.2912  -29.6754   24.1230 H   0  0  0  0  0  0
  -27.4208  -29.7341   25.4587 H   0  0  0  0  0  0
  -27.8728  -30.4367   23.9235 H   0  0  0  0  0  0
  -27.2573  -33.3675   26.2056 H   0  0  0  0  0  0
  -28.3859  -32.6960   25.0369 H   0  0  0  0  0  0
  -28.0675  -31.8539   26.5467 H   0  0  0  0  0  0
  -28.2554  -38.0099   24.7520 H   0  0  0  0  0  0
  -28.1090  -36.2618   24.6296 H   0  0  0  0  0  0
  -27.2273  -37.1425   25.8863 H   0  0  0  0  0  0
  -20.9326  -29.8790   21.6975 H   0  0  0  0  0  0
  -26.0152  -38.2832   24.1414 H   0  0  0  0  0  0
  -30.0395  -20.9887   19.7748 H   0  0  0  0  0  0
  -27.8057  -19.8332   22.5916 H   0  0  0  0  0  0
  -31.7643  -20.6862   18.2005 H   0  0  0  0  0  0
  -30.8506  -19.7032   17.0568 H   0  0  0  0  0  0
  -32.3709  -19.1067   17.7467 H   0  0  0  0  0  0
  -31.0414  -17.2241   17.1889 H   0  0  0  0  0  0
  -30.5649  -15.8247   18.0742 H   0  0  0  0  0  0
  -32.1842  -16.5092   18.3265 H   0  0  0  0  0  0
  -27.3215  -22.6398   23.6963 H   0  0  0  0  0  0
  -26.3912  -21.2136   23.3064 H   0  0  0  0  0  0
  -26.0799  -22.6756   22.4247 H   0  0  0  0  0  0
  -28.0775  -21.8154   19.0712 H   0  0  0  0  0  0
  -28.2539  -23.5502   18.8500 H   0  0  0  0  0  0
  -26.7588  -22.8863   19.4963 H   0  0  0  0  0  0
  -26.9114  -24.5409   21.3674 H   0  0  0  0  0  0
  -28.1237  -24.3246   22.5792 H   0  0  0  0  0  0
  -29.7986  -25.4867   21.0186 H   0  0  0  0  0  0
  -28.7022  -26.3593   22.0232 H   0  0  0  0  0  0
  -29.4869  -22.8882   20.9042 H   0  0  0  0  0  0
  -28.9354  -15.4130   21.1517 H   0  0  0  0  0  0
  1 25  1  0  0  0
  1 30  2  0  0  0
  1 86  1  0  0  0
  2  3  1  0  0  0
  2 25  1  0  0  0
  2 88  1  0  0  0
  2 89  1  0  0  0
  3  4  1  0  0  0
  3 90  1  0  0  0
  3 91  1  0  0  0
  4  5  1  0  0  0
  4 92  1  0  0  0
  4 93  1  0  0  0
  5  6  1  0  0  0
  5 26  1  0  0  0
  5 94  1  0  0  0
  6 25  1  0  0  0
  6 95  1  0  0  0
  6 96  1  0  0  0
  7  8  2  0  0  0
  7 26  1  0  0  0
  7 29  1  0  0  0
  8  9  1  0  0  0
  8 22  1  0  0  0
  9 10  1  0  0  0
  9 27  2  0  0  0
 10 11  2  0  0  0
 10 15  1  0  0  0
 11 12  1  0  0  0
 11 97  1  0  0  0
 12 13  2  0  0  0
 12 98  1  0  0  0
 13 14  1  0  0  0
 13 31  1  0  0  0
 14 15  2  0  0  0
 14 99  1  0  0  0
 15100  1  0  0  0
 16 17  2  0  0  0
 16 21  1  0  0  0
 16 31  1  0  0  0
 17 18  1  0  0  0
 17101  1  0  0  0
 18 19  2  0  0  0
 18102  1  0  0  0
 19 20  1  0  0  0
 19 24  1  0  0  0
 20 21  2  0  0  0
 20103  1  0  0  0
 21 23  1  0  0  0
 22 28  1  0  0  0
 22 32  2  0  0  0
 26 27  1  0  0  0
 28104  1  0  0  0
 28105  1  0  0  0
 29106  1  0  0  0
 29107  1  0  0  0
 33 34  1  0  0  0
 33 66  1  0  0  0
 33 70  2  0  0  0
 34 36  1  0  0  0
 34 59  1  0  0  0
 34108  1  0  0  0
 35 44  2  0  0  0
 35 45  1  0  0  0
 35 68  1  0  0  0
 36 56  1  0  0  0
 36109  1  0  0  0
 37 39  1  0  0  0
 37 47  1  0  0  0
 37 66  1  0  0  0
 37110  1  0  0  0
 38 43  2  0  0  0
 38 46  1  0  0  0
 38 47  1  0  0  0
 39 64  1  0  0  0
 39 67  2  0  0  0
 40 52  1  0  0  0
 40 53  2  0  0  0
 40 58  1  0  0  0
 41111  1  0  0  0
 41112  1  0  0  0
 41113  1  0  0  0
 41 48  1  0  0  0
 42 43  1  0  0  0
 42 66  1  0  0  0
 42114  1  0  0  0
 42115  1  0  0  0
 43 44  1  0  0  0
 44116  1  0  0  0
 45 46  2  0  0  0
 45117  1  0  0  0
 46118  1  0  0  0
 47119  1  0  0  0
 47120  1  0  0  0
 48 56  1  0  0  0
 48 65  1  0  0  0
 48121  1  0  0  0
 49 50  1  0  0  0
 49 53  1  0  0  0
 49 64  1  0  0  0
 49122  1  0  0  0
 50 51  1  0  0  0
 50123  1  0  0  0
 50124  1  0  0  0
 51 52  1  0  0  0
 51125  1  0  0  0
 51126  1  0  0  0
 52127  1  0  0  0
 52128  1  0  0  0
 53 54  1  0  0  0
 54 55  2  0  0  0
 54129  1  0  0  0
 55 57  1  0  0  0
 55130  1  0  0  0
 56 69  2  0  0  0
 57 58  2  0  0  0
 57131  1  0  0  0
 58132  1  0  0  0
 59 60  1  0  0  0
 59 61  1  0  0  0
 59 62  1  0  0  0
 60133  1  0  0  0
 60134  1  0  0  0
 60135  1  0  0  0
 61136  1  0  0  0
 61137  1  0  0  0
 61138  1  0  0  0
 62139  1  0  0  0
 62140  1  0  0  0
 62141  1  0  0  0
 63 65  1  0  0  0
 63142  1  0  0  0
 63143  1  0  0  0
 63144  1  0  0  0
 64145  1  0  0  0
 65146  1  0  0  0
 68 84  1  0  0  0
 71 72  2  0  0  0
 71 73  1  0  0  0
 71147  1  0  0  0
 72 76  1  0  0  0
 72 77  1  0  0  0
 73 74  2  0  0  0
 73 79  1  0  0  0
 74 75  1  0  0  0
 74 80  1  0  0  0
 75 76  2  0  0  0
 75 86  1  0  0  0
 76 87  1  0  0  0
 77 78  2  0  0  0
 77148  1  0  0  0
 78 81  1  0  0  0
 78 85  1  0  0  0
 79149  1  0  0  0
 79150  1  0  0  0
 79151  1  0  0  0
 80152  1  0  0  0
 80153  1  0  0  0
 80154  1  0  0  0
 81155  1  0  0  0
 81156  1  0  0  0
 81157  1  0  0  0
 82158  1  0  0  0
 82159  1  0  0  0
 82160  1  0  0  0
 82 85  1  0  0  0
 83 84  1  0  0  0
 83 85  1  0  0  0
 83161  1  0  0  0
 83162  1  0  0  0
 84163  1  0  0  0
 84164  1  0  0  0
 85165  1  0  0  0
 86166  1  0  0  0
M  ISO  4   1 100  68 101  84 101  86 100
M  END
> <chiral flag>
0

> <version>
0

> <s_m_source_file>
/data/baiqing/PycharmProjects/Reinvent-master-3.2/result/LINK_invent/BTK/process_docking_weight1_custom_sum_contain_oxygen_bond_distance_aromatic_linkinvent_7_9_3/rearranged_h_0017.sdf

> <i_m_source_file_index>
20

> <r_mmod_Potential_Energy-OPLS-2005>
132.213836669922

> <r_mmod_Stretch_Energy-OPLS-2005>
75.4771041870117

> <r_mmod_Bend_Energy-OPLS-2005>
180.343490600586

> <r_mmod_Torsional_Energy-OPLS-2005>
275.813232421875

> <r_mmod_Improper_Torsional_Energy-OPLS-2005>
5.46850490570068

> <r_mmod_Van_der_Waal_Energy-OPLS-2005>
156.462844848633

> <r_mmod_Electrostatic_Energy-OPLS-2005>
-411.386566162109

> <r_mmod_Solvation_Energy-OPLS-2005>
-185.460174560547

> <b_mmod_Minimization_Converged-OPLS-2005>
0

> <r_mmod_RMS_Derivative-OPLS-2005>
2.30813908576965

$$$$
20
                    3D
 Structure written by MMmdl.
174182  0  0  1  0            999 V2000
  -30.7035  -14.5048   20.4480 C   0  0  0  0  0  0
  -30.4314  -12.2891   19.4380 C   0  0  0  0  0  0
  -29.4902  -12.4253   18.2241 C   0  0  0  0  0  0
  -28.0128  -12.3210   18.6479 C   0  0  0  0  0  0
  -27.6592  -13.1832   19.8892 C   0  0  2  0  0  0
  -28.7214  -13.0309   21.0046 C   0  0  0  0  0  0
  -25.2625  -13.8090   20.5831 C   0  0  0  0  0  0
  -24.1853  -13.0411   20.9297 C   0  0  0  0  0  0
  -24.6375  -11.6873   20.8883 C   0  0  0  0  0  0
  -23.9016  -10.4279   21.0467 C   0  0  0  0  0  0
  -24.3568   -9.4174   21.9211 C   0  0  0  0  0  0
  -23.6258   -8.2210   22.0752 C   0  0  0  0  0  0
  -22.4253   -8.0268   21.3520 C   0  0  0  0  0  0
  -21.9881   -9.0268   20.4642 C   0  0  0  0  0  0
  -22.7203  -10.2152   20.3083 C   0  0  0  0  0  0
  -21.6842   -6.0739   22.5304 C   0  0  0  0  0  0
  -21.4011   -6.5652   23.8247 C   0  0  0  0  0  0
  -21.3662   -5.6795   24.9202 C   0  0  0  0  0  0
  -21.6038   -4.3062   24.7245 C   0  0  0  0  0  0
  -21.8815   -3.8154   23.4372 C   0  0  0  0  0  0
  -21.9195   -4.6964   22.3423 C   0  0  0  0  0  0
  -22.7875  -13.5262   21.1885 C   0  0  0  0  0  0
  -22.1658   -4.2157   21.0996 F   0  0  0  0  0  0
  -21.5611   -3.4540   25.7746 F   0  0  0  0  0  0
  -30.0412  -13.3151   20.4144 N   0  0  0  0  0  0
  -26.3046  -12.9192   20.3606 N   0  0  0  0  0  0
  -25.9301  -11.6385   20.5979 N   0  0  0  0  0  0
  -22.0456  -12.8286   22.0404 N   0  0  0  0  0  0
  -25.4302  -15.1806   20.4183 N   0  0  0  0  0  0
  -31.8817  -14.6298   20.1118 O   0  0  0  0  0  0
  -21.6599   -6.8873   21.4264 O   0  0  0  0  0  0
  -22.3609  -14.5581   20.6707 O   0  0  0  0  0  0
  -24.6091  -31.8665   23.2142 C   0  0  0  0  0  0
  -25.8988  -32.4836   23.8429 C   0  0  1  0  0  0
  -27.2459  -27.4675   20.1045 C   0  0  0  0  0  0
  -25.5849  -33.8631   24.2355 N   0  0  0  0  0  0
  -23.3974  -30.4901   21.5494 C   0  0  2  0  0  0
  -24.8478  -28.9577   20.1167 C   0  0  0  0  0  0
  -22.7391  -29.4633   22.4964 C   0  0  0  0  0  0
  -18.0269  -28.1383   22.8499 C   0  0  0  0  0  0
  -24.1472  -36.7357   23.2647 C   0  0  0  0  0  0
  -25.9184  -30.8462   21.3590 C   0  0  0  0  0  0
  -26.0025  -29.4817   20.7126 C   0  0  0  0  0  0
  -27.2035  -28.7446   20.7080 C   0  0  0  0  0  0
  -26.0837  -26.9565   19.4938 C   0  0  0  0  0  0
  -24.8819  -27.6931   19.5046 C   0  0  0  0  0  0
  -23.6056  -29.8188   20.1646 C   0  0  0  0  0  0
  -25.4090  -36.3121   24.0342 C   0  0  1  0  0  0
  -20.5862  -28.3645   23.1323 C   0  0  2  0  0  0
  -20.6732  -26.9391   22.5411 C   0  0  0  0  0  0
  -19.5722  -26.6378   21.5194 C   0  0  0  0  0  0
  -18.1916  -26.7935   22.1620 C   0  0  0  0  0  0
  -19.1525  -28.8832   23.2908 C   0  0  0  0  0  0
  -18.9452  -30.1442   23.8931 C   0  0  0  0  0  0
  -17.6460  -30.6589   24.0564 C   0  0  0  0  0  0
  -25.8988  -34.9480   23.5141 C   0  0  0  0  0  0
  -16.5347  -29.9095   23.6336 C   0  0  0  0  0  0
  -16.7264  -28.6496   23.0380 C   0  0  0  0  0  0
  -26.4467  -31.6616   25.0732 C   0  0  0  0  0  0
  -25.3764  -31.3707   26.1504 C   0  0  0  0  0  0
  -27.0291  -30.3069   24.6063 C   0  0  0  0  0  0
  -27.6047  -32.4358   25.7481 C   0  0  0  0  0  0
  -27.5582  -37.1818   24.8463 C   0  0  0  0  0  0
  -21.4125  -29.3016   22.3716 N   0  0  0  0  0  0
  -26.4299  -37.3794   23.9401 N   0  0  0  0  0  0
  -24.6601  -31.0816   22.1005 N   0  0  0  0  0  0
  -23.4172  -28.8161   23.2990 O   0  0  0  0  0  0
  -28.3891  -26.7021   20.0677 O   0  0  0  0  0  0
  -26.5555  -34.8938   22.4710 O   0  0  0  0  0  0
  -23.5284  -32.1380   23.7550 O   0  0  0  0  0  0
  -31.4736  -20.2908   21.1035 C   0  0  0  0  0  0
  -32.0088  -21.2911   21.5619 C   0  0  0  0  0  0
  -30.5522  -19.4713   18.9986 C   0  0  0  0  0  0
  -30.8907  -19.2022   20.3364 C   0  0  0  0  0  0
  -30.0510  -18.4586   18.1642 C   0  0  0  0  0  0
  -29.8554  -17.1574   18.6883 C   0  0  0  0  0  0
  -30.1666  -16.8762   20.0545 C   0  0  0  0  0  0
  -30.6857  -17.9096   20.8730 C   0  0  0  0  0  0
  -32.4419  -23.6171   20.8671 C   0  0  0  0  0  0
  -29.7429  -18.7965   16.7105 C   0  0  0  0  0  0
  -29.3408  -16.0756   17.7588 C   0  0  0  0  0  0
  -35.2675  -23.2835   21.7621 C   0  0  0  0  0  0
  -32.1019  -22.9697   23.3268 C   0  0  0  0  0  0
  -34.2288  -22.2158   22.1677 C   0  0  0  0  0  0
  -30.5834  -26.8887   21.1135 C   0  0  0  0  0  0
  -31.3793  -25.8196   20.3429 C   0  0  0  0  0  0
  -29.0957  -26.5487   21.3038 C   0  0  0  0  0  0
  -32.7030  -22.5346   21.9631 C   0  0  1  0  0  0
  -29.9215  -15.5859   20.6286 N   0  0  0  0  0  0
  -31.6890  -24.6768   21.2006 N   0  0  0  0  0  0
  -32.9076  -23.4975   19.7302 O   0  0  0  0  0  0
  -30.9833  -17.6544   22.1740 F   0  0  0  0  0  0
  -31.4700  -12.3918   19.1177 H   0  0  0  0  0  0
  -30.3477  -11.2960   19.8839 H   0  0  0  0  0  0
  -29.7127  -11.6468   17.4972 H   0  0  0  0  0  0
  -29.6811  -13.3636   17.7143 H   0  0  0  0  0  0
  -27.8257  -11.2712   18.8735 H   0  0  0  0  0  0
  -27.3592  -12.5674   17.8088 H   0  0  0  0  0  0
  -27.6587  -14.2204   19.5830 H   0  0  0  0  0  0
  -28.7126  -12.0178   21.4122 H   0  0  0  0  0  0
  -28.5099  -13.6954   21.8408 H   0  0  0  0  0  0
  -25.2696   -9.5645   22.4824 H   0  0  0  0  0  0
  -23.9955   -7.4580   22.7469 H   0  0  0  0  0  0
  -21.0802   -8.8839   19.8939 H   0  0  0  0  0  0
  -22.3676  -10.9736   19.6245 H   0  0  0  0  0  0
  -21.2000   -7.6160   23.9779 H   0  0  0  0  0  0
  -21.1475   -6.0499   25.9112 H   0  0  0  0  0  0
  -22.0574   -2.7612   23.2884 H   0  0  0  0  0  0
  -22.3966  -11.9938   22.4849 H   0  0  0  0  0  0
  -21.1105  -13.1434   22.2587 H   0  0  0  0  0  0
  -24.6512  -15.8210   20.5156 H   0  0  0  0  0  0
  -26.2693  -15.6334   20.0845 H   0  0  0  0  0  0
  -26.7048  -32.5582   23.1201 H   0  0  0  0  0  0
  -25.0036  -33.9786   25.0518 H   0  0  0  0  0  0
  -22.6842  -31.3041   21.4108 H   0  0  0  0  0  0
  -23.3701  -35.9721   23.3332 H   0  0  0  0  0  0
  -24.3558  -36.8949   22.2055 H   0  0  0  0  0  0
  -23.7244  -37.6586   23.6644 H   0  0  0  0  0  0
  -26.0154  -31.6099   20.5865 H   0  0  0  0  0  0
  -26.8121  -30.9135   21.9656 H   0  0  0  0  0  0
  -28.0946  -29.1570   21.1547 H   0  0  0  0  0  0
  -26.1074  -25.9834   19.0214 H   0  0  0  0  0  0
  -23.9964  -27.2863   19.0370 H   0  0  0  0  0  0
  -23.7059  -30.5906   19.4018 H   0  0  0  0  0  0
  -22.7333  -29.2325   19.8702 H   0  0  0  0  0  0
  -25.1261  -36.2012   25.0835 H   0  0  0  0  0  0
  -20.9970  -28.3200   24.1433 H   0  0  0  0  0  0
  -20.5628  -26.2251   23.3583 H   0  0  0  0  0  0
  -21.6599  -26.7409   22.1225 H   0  0  0  0  0  0
  -19.6885  -25.6285   21.1229 H   0  0  0  0  0  0
  -19.6697  -27.3173   20.6724 H   0  0  0  0  0  0
  -17.4173  -26.6693   21.4027 H   0  0  0  0  0  0
  -18.0349  -26.0073   22.9024 H   0  0  0  0  0  0
  -19.7922  -30.7240   24.2335 H   0  0  0  0  0  0
  -17.5009  -31.6283   24.5150 H   0  0  0  0  0  0
  -15.5349  -30.2999   23.7657 H   0  0  0  0  0  0
  -15.8654  -28.0802   22.7129 H   0  0  0  0  0  0
  -24.5910  -30.7076   25.7854 H   0  0  0  0  0  0
  -24.8981  -32.2853   26.5018 H   0  0  0  0  0  0
  -25.8124  -30.8837   27.0226 H   0  0  0  0  0  0
  -26.2777  -29.6818   24.1217 H   0  0  0  0  0  0
  -27.4196  -29.7328   25.4479 H   0  0  0  0  0  0
  -27.8572  -30.4441   23.9102 H   0  0  0  0  0  0
  -27.2654  -33.3641   26.2111 H   0  0  0  0  0  0
  -28.3829  -32.6966   25.0290 H   0  0  0  0  0  0
  -28.0755  -31.8467   26.5357 H   0  0  0  0  0  0
  -28.2599  -38.0117   24.7478 H   0  0  0  0  0  0
  -28.1070  -36.2632   24.6319 H   0  0  0  0  0  0
  -27.2290  -37.1510   25.8867 H   0  0  0  0  0  0
  -20.9273  -29.8732   21.6959 H   0  0  0  0  0  0
  -26.0194  -38.2879   24.1396 H   0  0  0  0  0  0
  -30.6904  -20.4681   18.6059 H   0  0  0  0  0  0
  -30.0364  -19.8141   16.4540 H   0  0  0  0  0  0
  -28.6746  -18.7035   16.5080 H   0  0  0  0  0  0
  -30.2783  -18.1316   16.0312 H   0  0  0  0  0  0
  -30.1766  -15.4924   17.3751 H   0  0  0  0  0  0
  -28.7772  -16.4578   16.9090 H   0  0  0  0  0  0
  -28.6614  -15.4145   18.2740 H   0  0  0  0  0  0
  -36.2538  -23.0164   22.1429 H   0  0  0  0  0  0
  -35.0223  -24.2746   22.1421 H   0  0  0  0  0  0
  -35.3612  -23.3472   20.6777 H   0  0  0  0  0  0
  -31.0209  -23.1173   23.2700 H   0  0  0  0  0  0
  -32.5477  -23.8993   23.6832 H   0  0  0  0  0  0
  -32.2684  -22.2169   24.0996 H   0  0  0  0  0  0
  -34.4002  -21.9908   23.2221 H   0  0  0  0  0  0
  -34.5034  -21.2944   21.6488 H   0  0  0  0  0  0
  -30.6659  -27.8506   20.6084 H   0  0  0  0  0  0
  -31.0426  -27.0412   22.0905 H   0  0  0  0  0  0
  -32.3144  -26.2462   19.9791 H   0  0  0  0  0  0
  -30.8255  -25.4884   19.4629 H   0  0  0  0  0  0
  -28.6811  -27.1555   22.1126 H   0  0  0  0  0  0
  -28.9900  -25.5132   21.6368 H   0  0  0  0  0  0
  -28.9837  -15.4125   20.9542 H   0  0  0  0  0  0
  -31.3456  -24.6935   22.1519 H   0  0  0  0  0  0
  1 25  1  0  0  0
  1 30  2  0  0  0
  1 89  1  0  0  0
  2  3  1  0  0  0
  2 25  1  0  0  0
  2 93  1  0  0  0
  2 94  1  0  0  0
  3  4  1  0  0  0
  3 95  1  0  0  0
  3 96  1  0  0  0
  4  5  1  0  0  0
  4 97  1  0  0  0
  4 98  1  0  0  0
  5  6  1  0  0  0
  5 26  1  0  0  0
  5 99  1  0  0  0
  6 25  1  0  0  0
  6100  1  0  0  0
  6101  1  0  0  0
  7  8  2  0  0  0
  7 26  1  0  0  0
  7 29  1  0  0  0
  8  9  1  0  0  0
  8 22  1  0  0  0
  9 10  1  0  0  0
  9 27  2  0  0  0
 10 11  2  0  0  0
 10 15  1  0  0  0
 11 12  1  0  0  0
 11102  1  0  0  0
 12 13  2  0  0  0
 12103  1  0  0  0
 13 14  1  0  0  0
 13 31  1  0  0  0
 14 15  2  0  0  0
 14104  1  0  0  0
 15105  1  0  0  0
 16 17  2  0  0  0
 16 21  1  0  0  0
 16 31  1  0  0  0
 17 18  1  0  0  0
 17106  1  0  0  0
 18 19  2  0  0  0
 18107  1  0  0  0
 19 20  1  0  0  0
 19 24  1  0  0  0
 20 21  2  0  0  0
 20108  1  0  0  0
 21 23  1  0  0  0
 22 28  1  0  0  0
 22 32  2  0  0  0
 26 27  1  0  0  0
 28109  1  0  0  0
 28110  1  0  0  0
 29111  1  0  0  0
 29112  1  0  0  0
 33 34  1  0  0  0
 33 66  1  0  0  0
 33 70  2  0  0  0
 34 36  1  0  0  0
 34 59  1  0  0  0
 34113  1  0  0  0
 35 44  2  0  0  0
 35 45  1  0  0  0
 35 68  1  0  0  0
 36 56  1  0  0  0
 36114  1  0  0  0
 37 39  1  0  0  0
 37 47  1  0  0  0
 37 66  1  0  0  0
 37115  1  0  0  0
 38 43  2  0  0  0
 38 46  1  0  0  0
 38 47  1  0  0  0
 39 64  1  0  0  0
 39 67  2  0  0  0
 40 52  1  0  0  0
 40 53  2  0  0  0
 40 58  1  0  0  0
 41116  1  0  0  0
 41117  1  0  0  0
 41118  1  0  0  0
 41 48  1  0  0  0
 42 43  1  0  0  0
 42 66  1  0  0  0
 42119  1  0  0  0
 42120  1  0  0  0
 43 44  1  0  0  0
 44121  1  0  0  0
 45 46  2  0  0  0
 45122  1  0  0  0
 46123  1  0  0  0
 47124  1  0  0  0
 47125  1  0  0  0
 48 56  1  0  0  0
 48 65  1  0  0  0
 48126  1  0  0  0
 49 50  1  0  0  0
 49 53  1  0  0  0
 49 64  1  0  0  0
 49127  1  0  0  0
 50 51  1  0  0  0
 50128  1  0  0  0
 50129  1  0  0  0
 51 52  1  0  0  0
 51130  1  0  0  0
 51131  1  0  0  0
 52132  1  0  0  0
 52133  1  0  0  0
 53 54  1  0  0  0
 54 55  2  0  0  0
 54134  1  0  0  0
 55 57  1  0  0  0
 55135  1  0  0  0
 56 69  2  0  0  0
 57 58  2  0  0  0
 57136  1  0  0  0
 58137  1  0  0  0
 59 60  1  0  0  0
 59 61  1  0  0  0
 59 62  1  0  0  0
 60138  1  0  0  0
 60139  1  0  0  0
 60140  1  0  0  0
 61141  1  0  0  0
 61142  1  0  0  0
 61143  1  0  0  0
 62144  1  0  0  0
 62145  1  0  0  0
 62146  1  0  0  0
 63 65  1  0  0  0
 63147  1  0  0  0
 63148  1  0  0  0
 63149  1  0  0  0
 64150  1  0  0  0
 65151  1  0  0  0
 68 87  1  0  0  0
 71 72  3  0  0  0
 71 74  1  0  0  0
 72 88  1  0  0  0
 73 74  2  0  0  0
 73 75  1  0  0  0
 73152  1  0  0  0
 74 78  1  0  0  0
 75 76  2  0  0  0
 75 80  1  0  0  0
 76 77  1  0  0  0
 76 81  1  0  0  0
 77 78  2  0  0  0
 77 89  1  0  0  0
 78 92  1  0  0  0
 79 88  1  0  0  0
 79 90  1  0  0  0
 79 91  2  0  0  0
 80153  1  0  0  0
 80154  1  0  0  0
 80155  1  0  0  0
 81156  1  0  0  0
 81157  1  0  0  0
 81158  1  0  0  0
 82 84  1  0  0  0
 82159  1  0  0  0
 82160  1  0  0  0
 82161  1  0  0  0
 83162  1  0  0  0
 83163  1  0  0  0
 83164  1  0  0  0
 83 88  1  0  0  0
 84 88  1  0  0  0
 84165  1  0  0  0
 84166  1  0  0  0
 85 86  1  0  0  0
 85 87  1  0  0  0
 85167  1  0  0  0
 85168  1  0  0  0
 86 90  1  0  0  0
 86169  1  0  0  0
 86170  1  0  0  0
 87171  1  0  0  0
 87172  1  0  0  0
 89173  1  0  0  0
 90174  1  0  0  0
M  ISO  4   1 100  68 101  87 101  89 100
M  END
> <chiral flag>
0

> <version>
0

> <s_m_source_file>
/data/baiqing/PycharmProjects/Reinvent-master-3.2/result/LINK_invent/BTK/process_docking_weight1_custom_sum_contain_oxygen_bond_distance_aromatic_linkinvent_7_9_3/rearranged_h_0017.sdf

> <i_m_source_file_index>
21

> <r_mmod_Potential_Energy-OPLS-2005>
-4.96223497390747

> <r_mmod_Stretch_Energy-OPLS-2005>
40.799747467041

> <r_mmod_Bend_Energy-OPLS-2005>
107.661888122559

> <r_mmod_Torsional_Energy-OPLS-2005>
284.970764160156

> <r_mmod_Improper_Torsional_Energy-OPLS-2005>
6.74554777145386

> <r_mmod_Van_der_Waal_Energy-OPLS-2005>
167.956268310547

> <r_mmod_Electrostatic_Energy-OPLS-2005>
-405.898345947266

> <r_mmod_Solvation_Energy-OPLS-2005>
-226.385955810547

> <b_mmod_Minimization_Converged-OPLS-2005>
0

> <r_mmod_RMS_Derivative-OPLS-2005>
5.57690191268921

$$$$
21
                    3D
 Structure written by MMmdl.
168176  0  0  1  0            999 V2000
  -30.7067  -14.4423   20.4374 C   0  0  0  0  0  0
  -30.3937  -12.2424   19.4500 C   0  0  0  0  0  0
  -29.4886  -12.4513   18.2190 C   0  0  0  0  0  0
  -27.9985  -12.3767   18.6046 C   0  0  0  0  0  0
  -27.6434  -13.2217   19.8574 C   0  0  2  0  0  0
  -28.6842  -13.0518   20.9900 C   0  0  0  0  0  0
  -25.2423  -13.8232   20.5627 C   0  0  0  0  0  0
  -24.1745  -13.0480   20.9193 C   0  0  0  0  0  0
  -24.6340  -11.6958   20.8784 C   0  0  0  0  0  0
  -23.9021  -10.4348   21.0449 C   0  0  0  0  0  0
  -24.3607   -9.4245   21.9169 C   0  0  0  0  0  0
  -23.6311   -8.2263   22.0727 C   0  0  0  0  0  0
  -22.4284   -8.0289   21.3531 C   0  0  0  0  0  0
  -21.9927   -9.0274   20.4637 C   0  0  0  0  0  0
  -22.7235  -10.2176   20.3060 C   0  0  0  0  0  0
  -21.6874   -6.0721   22.5263 C   0  0  0  0  0  0
  -21.4015   -6.5613   23.8196 C   0  0  0  0  0  0
  -21.3659   -5.6772   24.9155 C   0  0  0  0  0  0
  -21.6070   -4.3038   24.7224 C   0  0  0  0  0  0
  -21.8827   -3.8115   23.4344 C   0  0  0  0  0  0
  -21.9198   -4.6933   22.3399 C   0  0  0  0  0  0
  -22.7761  -13.5202   21.1925 C   0  0  0  0  0  0
  -22.1673   -4.2101   21.0985 F   0  0  0  0  0  0
  -21.5656   -3.4533   25.7746 F   0  0  0  0  0  0
  -30.0310  -13.2687   20.4301 N   0  0  0  0  0  0
  -26.2890  -12.9447   20.3285 N   0  0  0  0  0  0
  -25.9257  -11.6589   20.5792 N   0  0  0  0  0  0
  -22.0506  -12.8169   22.0540 N   0  0  0  0  0  0
  -25.4011  -15.1993   20.3969 N   0  0  0  0  0  0
  -31.9068  -14.5535   20.1941 O   0  0  0  0  0  0
  -21.6645   -6.8880   21.4236 O   0  0  0  0  0  0
  -22.3365  -14.5483   20.6779 O   0  0  0  0  0  0
  -24.6080  -31.8718   23.2132 C   0  0  0  0  0  0
  -25.8995  -32.4847   23.8402 C   0  0  1  0  0  0
  -27.2466  -27.4946   20.0803 C   0  0  0  0  0  0
  -25.5897  -33.8647   24.2358 N   0  0  0  0  0  0
  -23.3921  -30.4925   21.5559 C   0  0  2  0  0  0
  -24.8385  -28.9646   20.1176 C   0  0  0  0  0  0
  -22.7360  -29.4662   22.5046 C   0  0  0  0  0  0
  -18.0262  -28.1363   22.8504 C   0  0  0  0  0  0
  -24.1489  -36.7312   23.2641 C   0  0  0  0  0  0
  -25.9093  -30.8576   21.3511 C   0  0  0  0  0  0
  -25.9914  -29.4900   20.7133 C   0  0  0  0  0  0
  -27.1956  -28.7627   20.6981 C   0  0  0  0  0  0
  -26.0819  -26.9766   19.4753 C   0  0  0  0  0  0
  -24.8742  -27.7000   19.5022 C   0  0  0  0  0  0
  -23.5958  -29.8238   20.1694 C   0  0  0  0  0  0
  -25.4111  -36.3129   24.0350 C   0  0  1  0  0  0
  -20.5843  -28.3639   23.1357 C   0  0  2  0  0  0
  -20.6741  -26.9390   22.5423 C   0  0  0  0  0  0
  -19.5724  -26.6388   21.5212 C   0  0  0  0  0  0
  -18.1902  -26.7921   22.1615 C   0  0  0  0  0  0
  -19.1505  -28.8818   23.2933 C   0  0  0  0  0  0
  -18.9438  -30.1428   23.8932 C   0  0  0  0  0  0
  -17.6439  -30.6589   24.0575 C   0  0  0  0  0  0
  -25.9034  -34.9488   23.5147 C   0  0  0  0  0  0
  -16.5338  -29.9091   23.6331 C   0  0  0  0  0  0
  -16.7246  -28.6507   23.0357 C   0  0  0  0  0  0
  -26.4484  -31.6597   25.0678 C   0  0  0  0  0  0
  -25.3800  -31.3616   26.1454 C   0  0  0  0  0  0
  -27.0308  -30.3077   24.5923 C   0  0  0  0  0  0
  -27.6081  -32.4297   25.7437 C   0  0  0  0  0  0
  -27.5597  -37.1801   24.8472 C   0  0  0  0  0  0
  -21.4099  -29.3022   22.3790 N   0  0  0  0  0  0
  -26.4303  -37.3807   23.9428 N   0  0  0  0  0  0
  -24.6564  -31.0859   22.1027 N   0  0  0  0  0  0
  -23.4160  -28.8212   23.3077 O   0  0  0  0  0  0
  -28.4052  -26.7590   19.9965 O   0  0  0  0  0  0
  -26.5583  -34.8943   22.4701 O   0  0  0  0  0  0
  -23.5285  -32.1468   23.7570 O   0  0  0  0  0  0
  -30.7309  -18.5020   18.2834 C   0  0  0  0  0  0
  -30.1503  -19.5125   19.0635 C   0  0  0  0  0  0
  -30.7240  -17.1579   18.7114 C   0  0  0  0  0  0
  -29.5157  -19.1834   20.2748 C   0  0  0  0  0  0
  -30.0980  -16.8190   19.9545 C   0  0  0  0  0  0
  -29.4731  -17.8394   20.7075 C   0  0  0  0  0  0
  -31.3440  -16.1600   17.7452 C   0  0  0  0  0  0
  -28.7985  -20.2651   21.0579 C   0  0  0  0  0  0
  -27.5099  -23.2245   22.3200 C   0  0  0  0  0  0
  -27.6528  -24.6993   21.9007 C   0  0  0  0  0  0
  -26.5587  -22.4829   21.3650 C   0  0  0  0  0  0
  -29.1015  -25.1597   21.6592 C   0  0  0  0  0  0
  -26.4420  -20.9635   21.5944 C   0  0  0  0  0  0
  -29.1707  -26.6228   21.1936 C   0  0  0  0  0  0
  -29.8998  -15.5037   20.4613 N   0  0  0  0  0  0
  -27.3609  -20.1721   20.7497 N   0  3  0  0  0  0
  -28.5741  -17.4253   22.1352 Cl  0  0  0  0  0  0
  -31.4493  -12.2965   19.1716 H   0  0  0  0  0  0
  -30.2371  -11.2498   19.8788 H   0  0  0  0  0  0
  -29.7145  -11.7166   17.4443 H   0  0  0  0  0  0
  -29.6925  -13.4209   17.7734 H   0  0  0  0  0  0
  -27.7555  -11.3303   18.7800 H   0  0  0  0  0  0
  -27.3775  -12.6958   17.7632 H   0  0  0  0  0  0
  -27.6638  -14.2645   19.5359 H   0  0  0  0  0  0
  -28.6229  -12.0629   21.4411 H   0  0  0  0  0  0
  -28.4636  -13.7568   21.7957 H   0  0  0  0  0  0
  -25.2788   -9.5760   22.4669 H   0  0  0  0  0  0
  -24.0055   -7.4683   22.7437 H   0  0  0  0  0  0
  -21.0851   -8.8843   19.8943 H   0  0  0  0  0  0
  -22.3718  -10.9717   19.6152 H   0  0  0  0  0  0
  -21.1988   -7.6112   23.9702 H   0  0  0  0  0  0
  -21.1479   -6.0484   25.9068 H   0  0  0  0  0  0
  -22.0606   -2.7566   23.2869 H   0  0  0  0  0  0
  -22.4182  -11.9739   22.4738 H   0  0  0  0  0  0
  -21.1135  -13.1157   22.2885 H   0  0  0  0  0  0
  -24.6167  -15.8316   20.5054 H   0  0  0  0  0  0
  -26.2113  -15.6500   19.9974 H   0  0  0  0  0  0
  -26.7066  -32.5604   23.1176 H   0  0  0  0  0  0
  -25.0091  -33.9837   25.0535 H   0  0  0  0  0  0
  -22.6794  -31.3091   21.4204 H   0  0  0  0  0  0
  -23.3769  -35.9626   23.3295 H   0  0  0  0  0  0
  -24.3592  -36.8925   22.2057 H   0  0  0  0  0  0
  -23.7217  -37.6507   23.6650 H   0  0  0  0  0  0
  -25.9891  -31.6147   20.5690 H   0  0  0  0  0  0
  -26.8096  -30.9344   21.9475 H   0  0  0  0  0  0
  -28.0864  -29.1910   21.1380 H   0  0  0  0  0  0
  -26.1121  -26.0135   18.9856 H   0  0  0  0  0  0
  -23.9885  -27.2896   19.0369 H   0  0  0  0  0  0
  -23.6965  -30.6008   19.4088 H   0  0  0  0  0  0
  -22.7220  -29.2376   19.8772 H   0  0  0  0  0  0
  -25.1289  -36.1996   25.0840 H   0  0  0  0  0  0
  -20.9928  -28.3176   24.1485 H   0  0  0  0  0  0
  -20.5646  -26.2234   23.3595 H   0  0  0  0  0  0
  -21.6613  -26.7436   22.1220 H   0  0  0  0  0  0
  -19.6876  -25.6310   21.1221 H   0  0  0  0  0  0
  -19.6672  -27.3221   20.6764 H   0  0  0  0  0  0
  -17.4180  -26.6713   21.4006 H   0  0  0  0  0  0
  -18.0277  -26.0045   22.8986 H   0  0  0  0  0  0
  -19.7917  -30.7241   24.2318 H   0  0  0  0  0  0
  -17.5003  -31.6268   24.5161 H   0  0  0  0  0  0
  -15.5341  -30.3007   23.7633 H   0  0  0  0  0  0
  -15.8645  -28.0839   22.7051 H   0  0  0  0  0  0
  -24.5954  -30.7001   25.7764 H   0  0  0  0  0  0
  -24.9021  -32.2738   26.5027 H   0  0  0  0  0  0
  -25.8203  -30.8679   27.0125 H   0  0  0  0  0  0
  -26.2759  -29.6783   24.1178 H   0  0  0  0  0  0
  -27.4390  -29.7346   25.4260 H   0  0  0  0  0  0
  -27.8457  -30.4476   23.8811 H   0  0  0  0  0  0
  -27.2709  -33.3565   26.2089 H   0  0  0  0  0  0
  -28.3842  -32.6904   25.0228 H   0  0  0  0  0  0
  -28.0800  -31.8367   26.5281 H   0  0  0  0  0  0
  -28.2594  -38.0120   24.7575 H   0  0  0  0  0  0
  -28.1115  -36.2657   24.6237 H   0  0  0  0  0  0
  -27.2317  -37.1375   25.8873 H   0  0  0  0  0  0
  -20.9234  -29.8796   21.7080 H   0  0  0  0  0  0
  -26.0196  -38.2881   24.1454 H   0  0  0  0  0  0
  -31.1707  -18.7703   17.3311 H   0  0  0  0  0  0
  -30.1682  -20.5344   18.7104 H   0  0  0  0  0  0
  -31.5826  -16.6317   16.7899 H   0  0  0  0  0  0
  -30.6567  -15.3529   17.5134 H   0  0  0  0  0  0
  -32.2856  -15.7646   18.1227 H   0  0  0  0  0  0
  -29.1766  -21.2460   20.7775 H   0  0  0  0  0  0
  -28.9926  -20.1577   22.1269 H   0  0  0  0  0  0
  -27.1356  -23.1576   23.3441 H   0  0  0  0  0  0
  -28.4858  -22.7443   22.3374 H   0  0  0  0  0  0
  -27.1646  -25.3527   22.6255 H   0  0  0  0  0  0
  -27.1022  -24.8502   20.9714 H   0  0  0  0  0  0
  -26.8353  -22.6920   20.3282 H   0  0  0  0  0  0
  -25.5701  -22.9249   21.4949 H   0  0  0  0  0  0
  -29.5793  -24.5174   20.9173 H   0  0  0  0  0  0
  -29.6836  -25.0572   22.5762 H   0  0  0  0  0  0
  -25.4339  -20.6616   21.3075 H   0  0  0  0  0  0
  -26.5337  -20.6960   22.6478 H   0  0  0  0  0  0
  -30.2018  -26.9023   20.9776 H   0  0  0  0  0  0
  -28.8392  -27.2701   22.0054 H   0  0  0  0  0  0
  -28.9913  -15.3335   20.8647 H   0  0  0  0  0  0
  -27.1128  -19.2008   20.8567 H   0  0  0  0  0  0
  -27.2287  -20.4094   19.7798 H   0  0  0  0  0  0
  1 25  1  0  0  0
  1 30  2  0  0  0
  1 85  1  0  0  0
  2  3  1  0  0  0
  2 25  1  0  0  0
  2 88  1  0  0  0
  2 89  1  0  0  0
  3  4  1  0  0  0
  3 90  1  0  0  0
  3 91  1  0  0  0
  4  5  1  0  0  0
  4 92  1  0  0  0
  4 93  1  0  0  0
  5  6  1  0  0  0
  5 26  1  0  0  0
  5 94  1  0  0  0
  6 25  1  0  0  0
  6 95  1  0  0  0
  6 96  1  0  0  0
  7  8  2  0  0  0
  7 26  1  0  0  0
  7 29  1  0  0  0
  8  9  1  0  0  0
  8 22  1  0  0  0
  9 10  1  0  0  0
  9 27  2  0  0  0
 10 11  2  0  0  0
 10 15  1  0  0  0
 11 12  1  0  0  0
 11 97  1  0  0  0
 12 13  2  0  0  0
 12 98  1  0  0  0
 13 14  1  0  0  0
 13 31  1  0  0  0
 14 15  2  0  0  0
 14 99  1  0  0  0
 15100  1  0  0  0
 16 17  2  0  0  0
 16 21  1  0  0  0
 16 31  1  0  0  0
 17 18  1  0  0  0
 17101  1  0  0  0
 18 19  2  0  0  0
 18102  1  0  0  0
 19 20  1  0  0  0
 19 24  1  0  0  0
 20 21  2  0  0  0
 20103  1  0  0  0
 21 23  1  0  0  0
 22 28  1  0  0  0
 22 32  2  0  0  0
 26 27  1  0  0  0
 28104  1  0  0  0
 28105  1  0  0  0
 29106  1  0  0  0
 29107  1  0  0  0
 33 34  1  0  0  0
 33 66  1  0  0  0
 33 70  2  0  0  0
 34 36  1  0  0  0
 34 59  1  0  0  0
 34108  1  0  0  0
 35 44  2  0  0  0
 35 45  1  0  0  0
 35 68  1  0  0  0
 36 56  1  0  0  0
 36109  1  0  0  0
 37 39  1  0  0  0
 37 47  1  0  0  0
 37 66  1  0  0  0
 37110  1  0  0  0
 38 43  2  0  0  0
 38 46  1  0  0  0
 38 47  1  0  0  0
 39 64  1  0  0  0
 39 67  2  0  0  0
 40 52  1  0  0  0
 40 53  2  0  0  0
 40 58  1  0  0  0
 41111  1  0  0  0
 41112  1  0  0  0
 41113  1  0  0  0
 41 48  1  0  0  0
 42 43  1  0  0  0
 42 66  1  0  0  0
 42114  1  0  0  0
 42115  1  0  0  0
 43 44  1  0  0  0
 44116  1  0  0  0
 45 46  2  0  0  0
 45117  1  0  0  0
 46118  1  0  0  0
 47119  1  0  0  0
 47120  1  0  0  0
 48 56  1  0  0  0
 48 65  1  0  0  0
 48121  1  0  0  0
 49 50  1  0  0  0
 49 53  1  0  0  0
 49 64  1  0  0  0
 49122  1  0  0  0
 50 51  1  0  0  0
 50123  1  0  0  0
 50124  1  0  0  0
 51 52  1  0  0  0
 51125  1  0  0  0
 51126  1  0  0  0
 52127  1  0  0  0
 52128  1  0  0  0
 53 54  1  0  0  0
 54 55  2  0  0  0
 54129  1  0  0  0
 55 57  1  0  0  0
 55130  1  0  0  0
 56 69  2  0  0  0
 57 58  2  0  0  0
 57131  1  0  0  0
 58132  1  0  0  0
 59 60  1  0  0  0
 59 61  1  0  0  0
 59 62  1  0  0  0
 60133  1  0  0  0
 60134  1  0  0  0
 60135  1  0  0  0
 61136  1  0  0  0
 61137  1  0  0  0
 61138  1  0  0  0
 62139  1  0  0  0
 62140  1  0  0  0
 62141  1  0  0  0
 63 65  1  0  0  0
 63142  1  0  0  0
 63143  1  0  0  0
 63144  1  0  0  0
 64145  1  0  0  0
 65146  1  0  0  0
 68 84  1  0  0  0
 71 72  2  0  0  0
 71 73  1  0  0  0
 71147  1  0  0  0
 72 74  1  0  0  0
 72148  1  0  0  0
 73 75  2  0  0  0
 73 77  1  0  0  0
 74 76  2  0  0  0
 74 78  1  0  0  0
 75 76  1  0  0  0
 75 85  1  0  0  0
 76 87  1  0  0  0
 77149  1  0  0  0
 77150  1  0  0  0
 77151  1  0  0  0
 78 86  1  0  0  0
 78152  1  0  0  0
 78153  1  0  0  0
 79 80  1  0  0  0
 79 81  1  0  0  0
 79154  1  0  0  0
 79155  1  0  0  0
 80 82  1  0  0  0
 80156  1  0  0  0
 80157  1  0  0  0
 81 83  1  0  0  0
 81158  1  0  0  0
 81159  1  0  0  0
 82 84  1  0  0  0
 82160  1  0  0  0
 82161  1  0  0  0
 83 86  1  0  0  0
 83162  1  0  0  0
 83163  1  0  0  0
 84164  1  0  0  0
 84165  1  0  0  0
 85166  1  0  0  0
 86167  1  0  0  0
 86168  1  0  0  0
M  CHG  1  86   1
M  ISO  4   1 100  68 101  84 101  85 100
M  END
> <chiral flag>
0

> <version>
0

> <s_m_source_file>
/data/baiqing/PycharmProjects/Reinvent-master-3.2/result/LINK_invent/BTK/process_docking_weight1_custom_sum_contain_oxygen_bond_distance_aromatic_linkinvent_7_9_3/rearranged_h_0017.sdf

> <i_m_source_file_index>
22

> <r_mmod_Potential_Energy-OPLS-2005>
-203.361022949219

> <r_mmod_Stretch_Energy-OPLS-2005>
32.8216323852539

> <r_mmod_Bend_Energy-OPLS-2005>
108.445266723633

> <r_mmod_Torsional_Energy-OPLS-2005>
268.826965332031

> <r_mmod_Improper_Torsional_Energy-OPLS-2005>
7.95582485198975

> <r_mmod_Van_der_Waal_Energy-OPLS-2005>
157.669021606445

> <r_mmod_Electrostatic_Energy-OPLS-2005>
-342.048400878906

> <r_mmod_Solvation_Energy-OPLS-2005>
-456.686798095703

> <b_mmod_Minimization_Converged-OPLS-2005>
0

> <r_mmod_RMS_Derivative-OPLS-2005>
5.79855442047119

$$$$
22
                    3D
 Structure written by MMmdl.
153161  0  0  1  0            999 V2000
  -30.4353  -15.1825   20.3813 C   0  0  0  0  0  0
  -30.4494  -12.7476   19.5135 C   0  0  0  0  0  0
  -29.5364  -12.5677   18.2745 C   0  0  0  0  0  0
  -28.0771  -12.3108   18.6957 C   0  0  0  0  0  0
  -27.6190  -13.2659   19.8270 C   0  0  2  0  0  0
  -28.6581  -13.3825   20.9617 C   0  0  0  0  0  0
  -25.2414  -13.8229   20.5720 C   0  0  0  0  0  0
  -24.1759  -13.0431   20.9243 C   0  0  0  0  0  0
  -24.6403  -11.6927   20.8754 C   0  0  0  0  0  0
  -23.9089  -10.4291   21.0403 C   0  0  0  0  0  0
  -24.3634   -9.4207   21.9181 C   0  0  0  0  0  0
  -23.6303   -8.2245   22.0750 C   0  0  0  0  0  0
  -22.4287   -8.0281   21.3540 C   0  0  0  0  0  0
  -21.9925   -9.0257   20.4645 C   0  0  0  0  0  0
  -22.7258  -10.2133   20.3055 C   0  0  0  0  0  0
  -21.6858   -6.0738   22.5278 C   0  0  0  0  0  0
  -21.4019   -6.5639   23.8212 C   0  0  0  0  0  0
  -21.3660   -5.6789   24.9172 C   0  0  0  0  0  0
  -21.6045   -4.3052   24.7221 C   0  0  0  0  0  0
  -21.8818   -3.8146   23.4340 C   0  0  0  0  0  0
  -21.9193   -4.6965   22.3398 C   0  0  0  0  0  0
  -22.7776  -13.5192   21.1891 C   0  0  0  0  0  0
  -22.1661   -4.2150   21.0977 F   0  0  0  0  0  0
  -21.5629   -3.4535   25.7732 F   0  0  0  0  0  0
  -29.9016  -13.8717   20.3459 N   0  0  0  0  0  0
  -26.2846  -12.9491   20.3210 N   0  0  0  0  0  0
  -25.9339  -11.6606   20.5717 N   0  0  0  0  0  0
  -22.0425  -12.8189   22.0451 N   0  0  0  0  0  0
  -25.4020  -15.1968   20.4147 N   0  0  0  0  0  0
  -31.6552  -15.2404   20.1695 O   0  0  0  0  0  0
  -21.6644   -6.8884   21.4240 O   0  0  0  0  0  0
  -22.3458  -14.5491   20.6725 O   0  0  0  0  0  0
  -24.6585  -31.8284   23.1738 C   0  0  0  0  0  0
  -25.9288  -32.4613   23.8186 C   0  0  1  0  0  0
  -27.2208  -26.9790   20.1778 C   0  0  0  0  0  0
  -25.5973  -33.8425   24.2094 N   0  0  0  0  0  0
  -23.4698  -30.4411   21.5232 C   0  0  2  0  0  0
  -24.9222  -28.8353   20.1133 C   0  0  0  0  0  0
  -22.7641  -29.4468   22.4810 C   0  0  0  0  0  0
  -18.0316  -28.1406   22.8469 C   0  0  0  0  0  0
  -24.1492  -36.7217   23.2645 C   0  0  0  0  0  0
  -26.0359  -30.6522   21.3946 C   0  0  0  0  0  0
  -26.1052  -29.2466   20.7397 C   0  0  0  0  0  0
  -27.2516  -28.3397   20.7450 C   0  0  0  0  0  0
  -26.0070  -26.7041   19.5105 C   0  0  0  0  0  0
  -24.8952  -27.5829   19.4791 C   0  0  0  0  0  0
  -23.7056  -29.7571   20.1487 C   0  0  0  0  0  0
  -25.4133  -36.2983   24.0300 C   0  0  1  0  0  0
  -20.5939  -28.3746   23.1206 C   0  0  2  0  0  0
  -20.6797  -26.9434   22.5407 C   0  0  0  0  0  0
  -19.5772  -26.6375   21.5218 C   0  0  0  0  0  0
  -18.1952  -26.7938   22.1622 C   0  0  0  0  0  0
  -19.1576  -28.8895   23.2822 C   0  0  0  0  0  0
  -18.9486  -30.1487   23.8855 C   0  0  0  0  0  0
  -17.6481  -30.6597   24.0555 C   0  0  0  0  0  0
  -25.9097  -34.9365   23.5018 C   0  0  0  0  0  0
  -16.5372  -29.9086   23.6341 C   0  0  0  0  0  0
  -16.7298  -28.6505   23.0362 C   0  0  0  0  0  0
  -26.4555  -31.6539   25.0694 C   0  0  0  0  0  0
  -25.3694  -31.3776   26.1357 C   0  0  0  0  0  0
  -27.0442  -30.2912   24.6390 C   0  0  0  0  0  0
  -27.6049  -32.4342   25.7499 C   0  0  0  0  0  0
  -27.5572  -37.1767   24.8465 C   0  0  0  0  0  0
  -21.4318  -29.3042   22.3558 N   0  0  0  0  0  0
  -26.4282  -37.3715   23.9408 N   0  0  0  0  0  0
  -24.7423  -30.9997   22.0844 N   0  0  0  0  0  0
  -23.4210  -28.8034   23.3032 O   0  0  0  0  0  0
  -28.2483  -25.9149   20.2365 O   0  0  0  0  0  0
  -26.5707  -34.8895   22.4614 O   0  0  0  0  0  0
  -23.5668  -32.1230   23.6866 O   0  0  0  0  0  0
  -30.0986  -18.9285   21.2926 C   0  0  0  0  0  0
  -29.9094  -20.4015   21.3049 C   0  0  0  0  0  0
  -29.1350  -21.2074   20.3559 C   0  0  0  0  0  0
  -28.7642  -18.7693   19.4077 C   0  0  0  0  0  0
  -29.5608  -17.9721   20.3464 C   0  0  0  0  0  0
  -28.5870  -20.2552   19.4020 C   0  0  0  0  0  0
  -30.6168  -21.1423   22.4268 C   0  0  0  0  0  0
  -28.0450  -17.9964   18.3095 C   0  0  0  0  0  0
  -29.1563  -22.9508   20.2708 C   0  0  0  0  0  0
  -28.0105  -24.2996   20.2036 C   0  0  0  0  0  0
  -29.5728  -16.3678   20.4384 N   0  0  0  0  0  0
  -27.6521  -20.9624   18.1286 Cl  0  0  0  0  0  0
  -31.4701  -12.9544   19.1893 H   0  0  0  0  0  0
  -30.5047  -11.8252   20.0939 H   0  0  0  0  0  0
  -29.8984  -11.7498   17.6497 H   0  0  0  0  0  0
  -29.5833  -13.4672   17.6583 H   0  0  0  0  0  0
  -28.0092  -11.2780   19.0393 H   0  0  0  0  0  0
  -27.4128  -12.3904   17.8343 H   0  0  0  0  0  0
  -27.5499  -14.2474   19.3567 H   0  0  0  0  0  0
  -28.8051  -12.4269   21.4676 H   0  0  0  0  0  0
  -28.3169  -14.0858   21.7227 H   0  0  0  0  0  0
  -25.2776   -9.5684   22.4759 H   0  0  0  0  0  0
  -24.0007   -7.4639   22.7475 H   0  0  0  0  0  0
  -21.0852   -8.8784   19.8957 H   0  0  0  0  0  0
  -22.3715  -10.9674   19.6169 H   0  0  0  0  0  0
  -21.2017   -7.6148   23.9717 H   0  0  0  0  0  0
  -21.1482   -6.0519   25.9076 H   0  0  0  0  0  0
  -22.0598   -2.7608   23.2837 H   0  0  0  0  0  0
  -22.4047  -11.9867   22.4868 H   0  0  0  0  0  0
  -21.1036  -13.1209   22.2634 H   0  0  0  0  0  0
  -24.6240  -15.8377   20.5259 H   0  0  0  0  0  0
  -26.2312  -15.6440   20.0493 H   0  0  0  0  0  0
  -26.7357  -32.5168   23.0903 H   0  0  0  0  0  0
  -25.0069  -33.9512   25.0210 H   0  0  0  0  0  0
  -22.7800  -31.2712   21.3561 H   0  0  0  0  0  0
  -23.3767  -35.9535   23.3281 H   0  0  0  0  0  0
  -24.3567  -36.8891   22.2065 H   0  0  0  0  0  0
  -23.7235  -37.6394   23.6716 H   0  0  0  0  0  0
  -26.2097  -31.3955   20.6152 H   0  0  0  0  0  0
  -26.8985  -30.7082   22.0467 H   0  0  0  0  0  0
  -28.1510  -28.6549   21.2549 H   0  0  0  0  0  0
  -25.8867  -25.7473   19.0247 H   0  0  0  0  0  0
  -23.9949  -27.2614   18.9739 H   0  0  0  0  0  0
  -23.8554  -30.5254   19.3896 H   0  0  0  0  0  0
  -22.8160  -29.2082   19.8346 H   0  0  0  0  0  0
  -25.1330  -36.1783   25.0792 H   0  0  0  0  0  0
  -21.0027  -28.3346   24.1329 H   0  0  0  0  0  0
  -20.5685  -26.2362   23.3640 H   0  0  0  0  0  0
  -21.6660  -26.7421   22.1209 H   0  0  0  0  0  0
  -19.6934  -25.6273   21.1276 H   0  0  0  0  0  0
  -19.6712  -27.3161   20.6729 H   0  0  0  0  0  0
  -17.4224  -26.6683   21.4023 H   0  0  0  0  0  0
  -18.0348  -26.0089   22.9027 H   0  0  0  0  0  0
  -19.7961  -30.7314   24.2206 H   0  0  0  0  0  0
  -17.5033  -31.6273   24.5163 H   0  0  0  0  0  0
  -15.5370  -30.2975   23.7688 H   0  0  0  0  0  0
  -15.8698  -28.0807   22.7108 H   0  0  0  0  0  0
  -24.5888  -30.7114   25.7665 H   0  0  0  0  0  0
  -24.8869  -32.2974   26.4671 H   0  0  0  0  0  0
  -25.7934  -30.9013   27.0205 H   0  0  0  0  0  0
  -26.3093  -29.6600   24.1380 H   0  0  0  0  0  0
  -27.3977  -29.7261   25.5025 H   0  0  0  0  0  0
  -27.9034  -30.4104   23.9787 H   0  0  0  0  0  0
  -27.2615  -33.3679   26.1965 H   0  0  0  0  0  0
  -28.3919  -32.6847   25.0374 H   0  0  0  0  0  0
  -28.0652  -31.8544   26.5510 H   0  0  0  0  0  0
  -28.2572  -38.0080   24.7517 H   0  0  0  0  0  0
  -28.1086  -36.2606   24.6286 H   0  0  0  0  0  0
  -27.2290  -37.1402   25.8869 H   0  0  0  0  0  0
  -20.9569  -29.8721   21.6683 H   0  0  0  0  0  0
  -26.0132  -38.2776   24.1415 H   0  0  0  0  0  0
  -30.6863  -18.5033   22.0945 H   0  0  0  0  0  0
  -31.0526  -20.4600   23.1576 H   0  0  0  0  0  0
  -29.9179  -21.7855   22.9625 H   0  0  0  0  0  0
  -31.4224  -21.7595   22.0281 H   0  0  0  0  0  0
  -28.2653  -16.9304   18.3184 H   0  0  0  0  0  0
  -28.3398  -18.3677   17.3278 H   0  0  0  0  0  0
  -26.9657  -18.1127   18.4106 H   0  0  0  0  0  0
  -29.7865  -23.1163   19.3971 H   0  0  0  0  0  0
  -29.8024  -23.2423   21.0952 H   0  0  0  0  0  0
  -27.3159  -24.1247   21.0254 H   0  0  0  0  0  0
  -27.4191  -24.1186   19.3065 H   0  0  0  0  0  0
  -28.6258  -16.0244   20.4761 H   0  0  0  0  0  0
  1 25  1  0  0  0
  1 30  2  0  0  0
  1 81  1  0  0  0
  2  3  1  0  0  0
  2 25  1  0  0  0
  2 83  1  0  0  0
  2 84  1  0  0  0
  3  4  1  0  0  0
  3 85  1  0  0  0
  3 86  1  0  0  0
  4  5  1  0  0  0
  4 87  1  0  0  0
  4 88  1  0  0  0
  5  6  1  0  0  0
  5 26  1  0  0  0
  5 89  1  0  0  0
  6 25  1  0  0  0
  6 90  1  0  0  0
  6 91  1  0  0  0
  7  8  2  0  0  0
  7 26  1  0  0  0
  7 29  1  0  0  0
  8  9  1  0  0  0
  8 22  1  0  0  0
  9 10  1  0  0  0
  9 27  2  0  0  0
 10 11  2  0  0  0
 10 15  1  0  0  0
 11 12  1  0  0  0
 11 92  1  0  0  0
 12 13  2  0  0  0
 12 93  1  0  0  0
 13 14  1  0  0  0
 13 31  1  0  0  0
 14 15  2  0  0  0
 14 94  1  0  0  0
 15 95  1  0  0  0
 16 17  2  0  0  0
 16 21  1  0  0  0
 16 31  1  0  0  0
 17 18  1  0  0  0
 17 96  1  0  0  0
 18 19  2  0  0  0
 18 97  1  0  0  0
 19 20  1  0  0  0
 19 24  1  0  0  0
 20 21  2  0  0  0
 20 98  1  0  0  0
 21 23  1  0  0  0
 22 28  1  0  0  0
 22 32  2  0  0  0
 26 27  1  0  0  0
 28 99  1  0  0  0
 28100  1  0  0  0
 29101  1  0  0  0
 29102  1  0  0  0
 33 34  1  0  0  0
 33 66  1  0  0  0
 33 70  2  0  0  0
 34 36  1  0  0  0
 34 59  1  0  0  0
 34103  1  0  0  0
 35 44  2  0  0  0
 35 45  1  0  0  0
 35 68  1  0  0  0
 36 56  1  0  0  0
 36104  1  0  0  0
 37 39  1  0  0  0
 37 47  1  0  0  0
 37 66  1  0  0  0
 37105  1  0  0  0
 38 43  2  0  0  0
 38 46  1  0  0  0
 38 47  1  0  0  0
 39 64  1  0  0  0
 39 67  2  0  0  0
 40 52  1  0  0  0
 40 53  2  0  0  0
 40 58  1  0  0  0
 41106  1  0  0  0
 41107  1  0  0  0
 41108  1  0  0  0
 41 48  1  0  0  0
 42 43  1  0  0  0
 42 66  1  0  0  0
 42109  1  0  0  0
 42110  1  0  0  0
 43 44  1  0  0  0
 44111  1  0  0  0
 45 46  2  0  0  0
 45112  1  0  0  0
 46113  1  0  0  0
 47114  1  0  0  0
 47115  1  0  0  0
 48 56  1  0  0  0
 48 65  1  0  0  0
 48116  1  0  0  0
 49 50  1  0  0  0
 49 53  1  0  0  0
 49 64  1  0  0  0
 49117  1  0  0  0
 50 51  1  0  0  0
 50118  1  0  0  0
 50119  1  0  0  0
 51 52  1  0  0  0
 51120  1  0  0  0
 51121  1  0  0  0
 52122  1  0  0  0
 52123  1  0  0  0
 53 54  1  0  0  0
 54 55  2  0  0  0
 54124  1  0  0  0
 55 57  1  0  0  0
 55125  1  0  0  0
 56 69  2  0  0  0
 57 58  2  0  0  0
 57126  1  0  0  0
 58127  1  0  0  0
 59 60  1  0  0  0
 59 61  1  0  0  0
 59 62  1  0  0  0
 60128  1  0  0  0
 60129  1  0  0  0
 60130  1  0  0  0
 61131  1  0  0  0
 61132  1  0  0  0
 61133  1  0  0  0
 62134  1  0  0  0
 62135  1  0  0  0
 62136  1  0  0  0
 63 65  1  0  0  0
 63137  1  0  0  0
 63138  1  0  0  0
 63139  1  0  0  0
 64140  1  0  0  0
 65141  1  0  0  0
 68 80  1  0  0  0
 71 72  2  0  0  0
 71 75  1  0  0  0
 71142  1  0  0  0
 72 73  1  0  0  0
 72 77  1  0  0  0
 73 76  2  0  0  0
 73 79  1  0  0  0
 74 75  2  0  0  0
 74 76  1  0  0  0
 74 78  1  0  0  0
 75 81  1  0  0  0
 76 82  1  0  0  0
 77143  1  0  0  0
 77144  1  0  0  0
 77145  1  0  0  0
 78146  1  0  0  0
 78147  1  0  0  0
 78148  1  0  0  0
 79 80  1  0  0  0
 79149  1  0  0  0
 79150  1  0  0  0
 80151  1  0  0  0
 80152  1  0  0  0
 81153  1  0  0  0
M  ISO  4   1 100  68 101  80 101  81 100
M  END
> <chiral flag>
0

> <version>
0

> <s_m_source_file>
/data/baiqing/PycharmProjects/Reinvent-master-3.2/result/LINK_invent/BTK/process_docking_weight1_custom_sum_contain_oxygen_bond_distance_aromatic_linkinvent_7_9_3/rearranged_h_0017.sdf

> <i_m_source_file_index>
23

> <r_mmod_Potential_Energy-OPLS-2005>
1042.48693847656

> <r_mmod_Stretch_Energy-OPLS-2005>
460.579681396484

> <r_mmod_Bend_Energy-OPLS-2005>
397.449737548828

> <r_mmod_Torsional_Energy-OPLS-2005>
241.793472290039

> <r_mmod_Improper_Torsional_Energy-OPLS-2005>
7.98658275604248

> <r_mmod_Van_der_Waal_Energy-OPLS-2005>
129.318115234375

> <r_mmod_Electrostatic_Energy-OPLS-2005>
-364.771942138672

> <r_mmod_Solvation_Energy-OPLS-2005>
-208.468521118164

> <b_mmod_Minimization_Converged-OPLS-2005>
0

> <r_mmod_RMS_Derivative-OPLS-2005>
0.604013562202454

$$$$
23
                    3D
 Structure written by MMmdl.
157165  0  0  1  0            999 V2000
  -30.4069  -15.2094   20.3802 C   0  0  0  0  0  0
  -30.4455  -12.7655   19.5324 C   0  0  0  0  0  0
  -29.5378  -12.5703   18.2905 C   0  0  0  0  0  0
  -28.0857  -12.2879   18.7141 C   0  0  0  0  0  0
  -27.6162  -13.2542   19.8292 C   0  0  2  0  0  0
  -28.6437  -13.3948   20.9716 C   0  0  0  0  0  0
  -25.2360  -13.8091   20.5580 C   0  0  0  0  0  0
  -24.1717  -13.0353   20.9218 C   0  0  0  0  0  0
  -24.6370  -11.6861   20.8763 C   0  0  0  0  0  0
  -23.9059  -10.4247   21.0410 C   0  0  0  0  0  0
  -24.3606   -9.4171   21.9190 C   0  0  0  0  0  0
  -23.6275   -8.2215   22.0767 C   0  0  0  0  0  0
  -22.4259   -8.0256   21.3548 C   0  0  0  0  0  0
  -21.9892   -9.0226   20.4647 C   0  0  0  0  0  0
  -22.7228  -10.2100   20.3056 C   0  0  0  0  0  0
  -21.6845   -6.0718   22.5277 C   0  0  0  0  0  0
  -21.4005   -6.5627   23.8208 C   0  0  0  0  0  0
  -21.3656   -5.6784   24.9171 C   0  0  0  0  0  0
  -21.6047   -4.3048   24.7224 C   0  0  0  0  0  0
  -21.8818   -3.8138   23.4344 C   0  0  0  0  0  0
  -21.9187   -4.6949   22.3399 C   0  0  0  0  0  0
  -22.7762  -13.5160   21.1880 C   0  0  0  0  0  0
  -22.1656   -4.2135   21.0975 F   0  0  0  0  0  0
  -21.5633   -3.4533   25.7739 F   0  0  0  0  0  0
  -29.8898  -13.8890   20.3660 N   0  0  0  0  0  0
  -26.2815  -12.9373   20.3179 N   0  0  0  0  0  0
  -25.9313  -11.6512   20.5746 N   0  0  0  0  0  0
  -22.0415  -12.8168   22.0447 N   0  0  0  0  0  0
  -25.3907  -15.1745   20.3690 N   0  0  0  0  0  0
  -31.6145  -15.2749   20.1060 O   0  0  0  0  0  0
  -21.6623   -6.8858   21.4241 O   0  0  0  0  0  0
  -22.3468  -14.5475   20.6721 O   0  0  0  0  0  0
  -24.6590  -31.8307   23.1741 C   0  0  0  0  0  0
  -25.9301  -32.4631   23.8192 C   0  0  1  0  0  0
  -27.2233  -26.9937   20.1679 C   0  0  0  0  0  0
  -25.5983  -33.8432   24.2107 N   0  0  0  0  0  0
  -23.4698  -30.4428   21.5255 C   0  0  2  0  0  0
  -24.9189  -28.8411   20.1090 C   0  0  0  0  0  0
  -22.7653  -29.4472   22.4830 C   0  0  0  0  0  0
  -18.0325  -28.1414   22.8456 C   0  0  0  0  0  0
  -24.1496  -36.7217   23.2652 C   0  0  0  0  0  0
  -26.0325  -30.6578   21.3933 C   0  0  0  0  0  0
  -26.1017  -29.2540   20.7352 C   0  0  0  0  0  0
  -27.2490  -28.3506   20.7407 C   0  0  0  0  0  0
  -26.0098  -26.7138   19.5002 C   0  0  0  0  0  0
  -24.8933  -27.5888   19.4728 C   0  0  0  0  0  0
  -23.7040  -29.7649   20.1480 C   0  0  0  0  0  0
  -25.4126  -36.2981   24.0317 C   0  0  1  0  0  0
  -20.5939  -28.3743   23.1214 C   0  0  2  0  0  0
  -20.6810  -26.9433   22.5412 C   0  0  0  0  0  0
  -19.5775  -26.6384   21.5231 C   0  0  0  0  0  0
  -18.1948  -26.7950   22.1624 C   0  0  0  0  0  0
  -19.1583  -28.8901   23.2813 C   0  0  0  0  0  0
  -18.9493  -30.1492   23.8844 C   0  0  0  0  0  0
  -17.6481  -30.6593   24.0556 C   0  0  0  0  0  0
  -25.9098  -34.9370   23.5032 C   0  0  0  0  0  0
  -16.5370  -29.9084   23.6334 C   0  0  0  0  0  0
  -16.7308  -28.6516   23.0335 C   0  0  0  0  0  0
  -26.4577  -31.6562   25.0700 C   0  0  0  0  0  0
  -25.3702  -31.3772   26.1345 C   0  0  0  0  0  0
  -27.0452  -30.2933   24.6392 C   0  0  0  0  0  0
  -27.6096  -32.4357   25.7495 C   0  0  0  0  0  0
  -27.5569  -37.1746   24.8460 C   0  0  0  0  0  0
  -21.4323  -29.3033   22.3571 N   0  0  0  0  0  0
  -26.4272  -37.3713   23.9428 N   0  0  0  0  0  0
  -24.7416  -31.0031   22.0856 N   0  0  0  0  0  0
  -23.4218  -28.8044   23.3058 O   0  0  0  0  0  0
  -28.2547  -25.9375   20.2410 O   0  0  0  0  0  0
  -26.5693  -34.8899   22.4619 O   0  0  0  0  0  0
  -23.5674  -32.1263   23.6884 O   0  0  0  0  0  0
  -30.2711  -18.9388   19.6619 C   0  0  0  0  0  0
  -30.0931  -20.4147   19.5760 C   0  0  0  0  0  0
  -29.1241  -21.2398   20.3067 C   0  0  0  0  0  0
  -28.3530  -20.3070   21.1133 C   0  0  0  0  0  0
  -29.5027  -18.0017   20.4584 C   0  0  0  0  0  0
  -28.4957  -18.8188   21.1387 C   0  0  0  0  0  0
  -31.0515  -21.1386   18.6437 C   0  0  0  0  0  0
  -27.3488  -20.9631   22.0525 C   0  0  0  0  0  0
  -26.2906  -18.0557   21.3598 C   0  0  0  0  0  0
  -29.1355  -22.9807   20.4183 C   0  0  0  0  0  0
  -28.0449  -24.3316   20.0767 C   0  0  0  0  0  0
  -29.5556  -16.3948   20.5630 N   0  0  0  0  0  0
  -27.6086  -18.0994   21.8995 O   0  0  0  0  0  0
  -31.4625  -12.9821   19.2050 H   0  0  0  0  0  0
  -30.5154  -11.8461   20.1176 H   0  0  0  0  0  0
  -29.9166  -11.7603   17.6651 H   0  0  0  0  0  0
  -29.5649  -13.4729   17.6773 H   0  0  0  0  0  0
  -28.0428  -11.2606   19.0796 H   0  0  0  0  0  0
  -27.4186  -12.3352   17.8521 H   0  0  0  0  0  0
  -27.5472  -14.2279   19.3431 H   0  0  0  0  0  0
  -28.7901  -12.4513   21.4996 H   0  0  0  0  0  0
  -28.2829  -14.1095   21.7127 H   0  0  0  0  0  0
  -25.2749   -9.5650   22.4762 H   0  0  0  0  0  0
  -23.9975   -7.4611   22.7490 H   0  0  0  0  0  0
  -21.0827   -8.8738   19.8951 H   0  0  0  0  0  0
  -22.3686  -10.9637   19.6158 H   0  0  0  0  0  0
  -21.2002   -7.6133   23.9705 H   0  0  0  0  0  0
  -21.1477   -6.0515   25.9073 H   0  0  0  0  0  0
  -22.0603   -2.7601   23.2847 H   0  0  0  0  0  0
  -22.4031  -11.9827   22.4823 H   0  0  0  0  0  0
  -21.1047  -13.1217   22.2668 H   0  0  0  0  0  0
  -24.5840  -15.7876   20.3783 H   0  0  0  0  0  0
  -26.1965  -15.5829   19.9172 H   0  0  0  0  0  0
  -26.7367  -32.5179   23.0911 H   0  0  0  0  0  0
  -25.0073  -33.9516   25.0214 H   0  0  0  0  0  0
  -22.7792  -31.2720   21.3622 H   0  0  0  0  0  0
  -23.3775  -35.9525   23.3277 H   0  0  0  0  0  0
  -24.3595  -36.8900   22.2076 H   0  0  0  0  0  0
  -23.7218  -37.6387   23.6727 H   0  0  0  0  0  0
  -26.2029  -31.4065   20.6175 H   0  0  0  0  0  0
  -26.8964  -30.7123   22.0439 H   0  0  0  0  0  0
  -28.1460  -28.6682   21.2548 H   0  0  0  0  0  0
  -25.8924  -25.7564   19.0126 H   0  0  0  0  0  0
  -23.9914  -27.2692   18.9675 H   0  0  0  0  0  0
  -23.8529  -30.5389   19.3935 H   0  0  0  0  0  0
  -22.8130  -29.2206   19.8320 H   0  0  0  0  0  0
  -25.1308  -36.1803   25.0806 H   0  0  0  0  0  0
  -21.0005  -28.3363   24.1351 H   0  0  0  0  0  0
  -20.5755  -26.2352   23.3647 H   0  0  0  0  0  0
  -21.6665  -26.7453   22.1173 H   0  0  0  0  0  0
  -19.6942  -25.6296   21.1277 H   0  0  0  0  0  0
  -19.6725  -27.3191   20.6755 H   0  0  0  0  0  0
  -17.4227  -26.6713   21.4014 H   0  0  0  0  0  0
  -18.0297  -26.0112   22.9035 H   0  0  0  0  0  0
  -19.7968  -30.7303   24.2212 H   0  0  0  0  0  0
  -17.5036  -31.6275   24.5164 H   0  0  0  0  0  0
  -15.5369  -30.2951   23.7707 H   0  0  0  0  0  0
  -15.8713  -28.0828   22.7046 H   0  0  0  0  0  0
  -24.5937  -30.7089   25.7612 H   0  0  0  0  0  0
  -24.8827  -32.2947   26.4641 H   0  0  0  0  0  0
  -25.7921  -30.9010   27.0201 H   0  0  0  0  0  0
  -26.3075  -29.6636   24.1402 H   0  0  0  0  0  0
  -27.3999  -29.7288   25.5025 H   0  0  0  0  0  0
  -27.9032  -30.4128   23.9765 H   0  0  0  0  0  0
  -27.2710  -33.3735   26.1919 H   0  0  0  0  0  0
  -28.3981  -32.6803   25.0362 H   0  0  0  0  0  0
  -28.0689  -31.8579   26.5534 H   0  0  0  0  0  0
  -28.2529  -38.0091   24.7537 H   0  0  0  0  0  0
  -28.1119  -36.2617   24.6240 H   0  0  0  0  0  0
  -27.2297  -37.1313   25.8861 H   0  0  0  0  0  0
  -20.9600  -29.8727   21.6692 H   0  0  0  0  0  0
  -26.0138  -38.2779   24.1451 H   0  0  0  0  0  0
  -31.0473  -18.4987   19.0530 H   0  0  0  0  0  0
  -31.4969  -20.4613   17.9132 H   0  0  0  0  0  0
  -31.8631  -21.5984   19.2093 H   0  0  0  0  0  0
  -30.5321  -21.9151   18.0804 H   0  0  0  0  0  0
  -27.7665  -21.8544   22.5197 H   0  0  0  0  0  0
  -27.0534  -20.3047   22.8692 H   0  0  0  0  0  0
  -26.4535  -21.2595   21.5048 H   0  0  0  0  0  0
  -25.6883  -17.3545   21.9371 H   0  0  0  0  0  0
  -26.3063  -17.7263   20.3198 H   0  0  0  0  0  0
  -25.7700  -19.0116   21.3929 H   0  0  0  0  0  0
  -30.0525  -23.2739   19.9102 H   0  0  0  0  0  0
  -29.3933  -23.1342   21.4661 H   0  0  0  0  0  0
  -27.1345  -24.1207   20.6388 H   0  0  0  0  0  0
  -27.7553  -24.2035   19.0329 H   0  0  0  0  0  0
  -28.6611  -16.0587   20.8898 H   0  0  0  0  0  0
  1 25  1  0  0  0
  1 30  2  0  0  0
  1 82  1  0  0  0
  2  3  1  0  0  0
  2 25  1  0  0  0
  2 84  1  0  0  0
  2 85  1  0  0  0
  3  4  1  0  0  0
  3 86  1  0  0  0
  3 87  1  0  0  0
  4  5  1  0  0  0
  4 88  1  0  0  0
  4 89  1  0  0  0
  5  6  1  0  0  0
  5 26  1  0  0  0
  5 90  1  0  0  0
  6 25  1  0  0  0
  6 91  1  0  0  0
  6 92  1  0  0  0
  7  8  2  0  0  0
  7 26  1  0  0  0
  7 29  1  0  0  0
  8  9  1  0  0  0
  8 22  1  0  0  0
  9 10  1  0  0  0
  9 27  2  0  0  0
 10 11  2  0  0  0
 10 15  1  0  0  0
 11 12  1  0  0  0
 11 93  1  0  0  0
 12 13  2  0  0  0
 12 94  1  0  0  0
 13 14  1  0  0  0
 13 31  1  0  0  0
 14 15  2  0  0  0
 14 95  1  0  0  0
 15 96  1  0  0  0
 16 17  2  0  0  0
 16 21  1  0  0  0
 16 31  1  0  0  0
 17 18  1  0  0  0
 17 97  1  0  0  0
 18 19  2  0  0  0
 18 98  1  0  0  0
 19 20  1  0  0  0
 19 24  1  0  0  0
 20 21  2  0  0  0
 20 99  1  0  0  0
 21 23  1  0  0  0
 22 28  1  0  0  0
 22 32  2  0  0  0
 26 27  1  0  0  0
 28100  1  0  0  0
 28101  1  0  0  0
 29102  1  0  0  0
 29103  1  0  0  0
 33 34  1  0  0  0
 33 66  1  0  0  0
 33 70  2  0  0  0
 34 36  1  0  0  0
 34 59  1  0  0  0
 34104  1  0  0  0
 35 44  2  0  0  0
 35 45  1  0  0  0
 35 68  1  0  0  0
 36 56  1  0  0  0
 36105  1  0  0  0
 37 39  1  0  0  0
 37 47  1  0  0  0
 37 66  1  0  0  0
 37106  1  0  0  0
 38 43  2  0  0  0
 38 46  1  0  0  0
 38 47  1  0  0  0
 39 64  1  0  0  0
 39 67  2  0  0  0
 40 52  1  0  0  0
 40 53  2  0  0  0
 40 58  1  0  0  0
 41107  1  0  0  0
 41108  1  0  0  0
 41109  1  0  0  0
 41 48  1  0  0  0
 42 43  1  0  0  0
 42 66  1  0  0  0
 42110  1  0  0  0
 42111  1  0  0  0
 43 44  1  0  0  0
 44112  1  0  0  0
 45 46  2  0  0  0
 45113  1  0  0  0
 46114  1  0  0  0
 47115  1  0  0  0
 47116  1  0  0  0
 48 56  1  0  0  0
 48 65  1  0  0  0
 48117  1  0  0  0
 49 50  1  0  0  0
 49 53  1  0  0  0
 49 64  1  0  0  0
 49118  1  0  0  0
 50 51  1  0  0  0
 50119  1  0  0  0
 50120  1  0  0  0
 51 52  1  0  0  0
 51121  1  0  0  0
 51122  1  0  0  0
 52123  1  0  0  0
 52124  1  0  0  0
 53 54  1  0  0  0
 54 55  2  0  0  0
 54125  1  0  0  0
 55 57  1  0  0  0
 55126  1  0  0  0
 56 69  2  0  0  0
 57 58  2  0  0  0
 57127  1  0  0  0
 58128  1  0  0  0
 59 60  1  0  0  0
 59 61  1  0  0  0
 59 62  1  0  0  0
 60129  1  0  0  0
 60130  1  0  0  0
 60131  1  0  0  0
 61132  1  0  0  0
 61133  1  0  0  0
 61134  1  0  0  0
 62135  1  0  0  0
 62136  1  0  0  0
 62137  1  0  0  0
 63 65  1  0  0  0
 63138  1  0  0  0
 63139  1  0  0  0
 63140  1  0  0  0
 64141  1  0  0  0
 65142  1  0  0  0
 68 81  1  0  0  0
 71 72  2  0  0  0
 71 75  1  0  0  0
 71143  1  0  0  0
 72 73  1  0  0  0
 72 77  1  0  0  0
 73 74  2  0  0  0
 73 80  1  0  0  0
 74 76  1  0  0  0
 74 78  1  0  0  0
 75 76  2  0  0  0
 75 82  1  0  0  0
 76 83  1  0  0  0
 77144  1  0  0  0
 77145  1  0  0  0
 77146  1  0  0  0
 78147  1  0  0  0
 78148  1  0  0  0
 78149  1  0  0  0
 79 83  1  0  0  0
 79150  1  0  0  0
 79151  1  0  0  0
 79152  1  0  0  0
 80 81  1  0  0  0
 80153  1  0  0  0
 80154  1  0  0  0
 81155  1  0  0  0
 81156  1  0  0  0
 82157  1  0  0  0
M  ISO  4   1 100  68 101  81 101  82 100
M  END
> <chiral flag>
0

> <version>
0

> <s_m_source_file>
/data/baiqing/PycharmProjects/Reinvent-master-3.2/result/LINK_invent/BTK/process_docking_weight1_custom_sum_contain_oxygen_bond_distance_aromatic_linkinvent_7_9_3/rearranged_h_0017.sdf

> <i_m_source_file_index>
24

> <r_mmod_Potential_Energy-OPLS-2005>
1017.48004150391

> <r_mmod_Stretch_Energy-OPLS-2005>
460.568054199219

> <r_mmod_Bend_Energy-OPLS-2005>
400.466369628906

> <r_mmod_Torsional_Energy-OPLS-2005>
250.356506347656

> <r_mmod_Improper_Torsional_Energy-OPLS-2005>
6.17223119735718

> <r_mmod_Van_der_Waal_Energy-OPLS-2005>
133.241012573242

> <r_mmod_Electrostatic_Energy-OPLS-2005>
-414.160919189453

> <r_mmod_Solvation_Energy-OPLS-2005>
-207.666748046875

> <b_mmod_Minimization_Converged-OPLS-2005>
0

> <r_mmod_RMS_Derivative-OPLS-2005>
2.37936639785767

$$$$
24
                    3D
 Structure written by MMmdl.
153161  0  0  1  0            999 V2000
  -30.4417  -15.3225   20.3747 C   0  0  0  0  0  0
  -30.4288  -12.8644   19.4950 C   0  0  0  0  0  0
  -29.5250  -12.5699   18.2741 C   0  0  0  0  0  0
  -28.0813  -12.2846   18.7220 C   0  0  0  0  0  0
  -27.6012  -13.2774   19.8087 C   0  0  2  0  0  0
  -28.6427  -13.4998   20.9229 C   0  0  0  0  0  0
  -25.2384  -13.8262   20.5795 C   0  0  0  0  0  0
  -24.1728  -13.0446   20.9279 C   0  0  0  0  0  0
  -24.6379  -11.6937   20.8764 C   0  0  0  0  0  0
  -23.9061  -10.4300   21.0404 C   0  0  0  0  0  0
  -24.3608   -9.4219   21.9184 C   0  0  0  0  0  0
  -23.6295   -8.2248   22.0754 C   0  0  0  0  0  0
  -22.4279   -8.0277   21.3543 C   0  0  0  0  0  0
  -21.9910   -9.0242   20.4642 C   0  0  0  0  0  0
  -22.7229  -10.2131   20.3055 C   0  0  0  0  0  0
  -21.6859   -6.0729   22.5281 C   0  0  0  0  0  0
  -21.4011   -6.5633   23.8209 C   0  0  0  0  0  0
  -21.3666   -5.6783   24.9175 C   0  0  0  0  0  0
  -21.6050   -4.3050   24.7227 C   0  0  0  0  0  0
  -21.8818   -3.8137   23.4343 C   0  0  0  0  0  0
  -21.9192   -4.6954   22.3400 C   0  0  0  0  0  0
  -22.7742  -13.5197   21.1910 C   0  0  0  0  0  0
  -22.1663   -4.2139   21.0977 F   0  0  0  0  0  0
  -21.5625   -3.4530   25.7739 F   0  0  0  0  0  0
  -29.8414  -14.0332   20.2524 N   0  0  0  0  0  0
  -26.2786  -12.9522   20.3224 N   0  0  0  0  0  0
  -25.9319  -11.6627   20.5727 N   0  0  0  0  0  0
  -22.0388  -12.8176   22.0464 N   0  0  0  0  0  0
  -25.4073  -15.1997   20.4264 N   0  0  0  0  0  0
  -31.6785  -15.2398   20.3084 O   0  0  0  0  0  0
  -21.6646   -6.8873   21.4247 O   0  0  0  0  0  0
  -22.3418  -14.5484   20.6739 O   0  0  0  0  0  0
  -24.6687  -31.8182   23.1678 C   0  0  0  0  0  0
  -25.9344  -32.4568   23.8158 C   0  0  1  0  0  0
  -27.2144  -26.8835   20.1930 C   0  0  0  0  0  0
  -25.5985  -33.8386   24.2062 N   0  0  0  0  0  0
  -23.4845  -30.4300   21.5190 C   0  0  2  0  0  0
  -24.9342  -28.8043   20.1158 C   0  0  0  0  0  0
  -22.7682  -29.4433   22.4774 C   0  0  0  0  0  0
  -18.0329  -28.1406   22.8456 C   0  0  0  0  0  0
  -24.1498  -36.7192   23.2653 C   0  0  0  0  0  0
  -26.0569  -30.6082   21.4025 C   0  0  0  0  0  0
  -26.1214  -29.1935   20.7493 C   0  0  0  0  0  0
  -27.2576  -28.2582   20.7557 C   0  0  0  0  0  0
  -25.9966  -26.6530   19.5129 C   0  0  0  0  0  0
  -24.9008  -27.5557   19.4747 C   0  0  0  0  0  0
  -23.7234  -29.7401   20.1476 C   0  0  0  0  0  0
  -25.4141  -36.2964   24.0307 C   0  0  1  0  0  0
  -20.5954  -28.3752   23.1175 C   0  0  2  0  0  0
  -20.6807  -26.9422   22.5402 C   0  0  0  0  0  0
  -19.5781  -26.6369   21.5217 C   0  0  0  0  0  0
  -18.1958  -26.7940   22.1614 C   0  0  0  0  0  0
  -19.1587  -28.8903   23.2802 C   0  0  0  0  0  0
  -18.9492  -30.1490   23.8843 C   0  0  0  0  0  0
  -17.6481  -30.6594   24.0553 C   0  0  0  0  0  0
  -25.9112  -34.9345   23.5014 C   0  0  0  0  0  0
  -16.5374  -29.9073   23.6350 C   0  0  0  0  0  0
  -16.7307  -28.6496   23.0362 C   0  0  0  0  0  0
  -26.4579  -31.6524   25.0697 C   0  0  0  0  0  0
  -25.3700  -31.3758   26.1341 C   0  0  0  0  0  0
  -27.0480  -30.2891   24.6458 C   0  0  0  0  0  0
  -27.6069  -32.4335   25.7485 C   0  0  0  0  0  0
  -27.5572  -37.1757   24.8472 C   0  0  0  0  0  0
  -21.4350  -29.3032   22.3509 N   0  0  0  0  0  0
  -26.4284  -37.3701   23.9419 N   0  0  0  0  0  0
  -24.7592  -30.9807   22.0828 N   0  0  0  0  0  0
  -23.4202  -28.8008   23.3043 O   0  0  0  0  0  0
  -28.2206  -25.7680   20.2231 O   0  0  0  0  0  0
  -26.5717  -34.8886   22.4605 O   0  0  0  0  0  0
  -23.5743  -32.1171   23.6731 O   0  0  0  0  0  0
  -28.4083  -18.0187   21.6174 C   0  0  0  0  0  0
  -27.7278  -19.1523   22.1464 C   0  0  0  0  0  0
  -27.9113  -20.5039   21.6859 C   0  0  0  0  0  0
  -28.7565  -20.8423   20.5857 C   0  0  0  0  0  0
  -29.3126  -18.0742   20.5425 C   0  0  0  0  0  0
  -29.4303  -19.5441   20.0486 C   0  0  0  0  0  0
  -26.7280  -18.8473   23.2566 C   0  0  0  0  0  0
  -27.1909  -21.6405   22.4007 C   0  0  0  0  0  0
  -28.9210  -22.5637   20.1463 C   0  0  0  0  0  0
  -27.9739  -24.1222   20.3979 C   0  0  0  0  0  0
  -29.8260  -16.6302   19.9889 N   0  0  0  0  0  0
  -30.4745  -19.7728   18.6953 Cl  0  0  0  0  0  0
  -31.4377  -13.0801   19.1409 H   0  0  0  0  0  0
  -30.5253  -11.9846   20.1334 H   0  0  0  0  0  0
  -29.9156  -11.7246   17.7060 H   0  0  0  0  0  0
  -29.5351  -13.4281   17.6003 H   0  0  0  0  0  0
  -28.0579  -11.2689   19.1181 H   0  0  0  0  0  0
  -27.4043  -12.2966   17.8672 H   0  0  0  0  0  0
  -27.4968  -14.2291   19.2856 H   0  0  0  0  0  0
  -28.8453  -12.5817   21.4762 H   0  0  0  0  0  0
  -28.2734  -14.2310   21.6435 H   0  0  0  0  0  0
  -25.2760   -9.5686   22.4752 H   0  0  0  0  0  0
  -24.0004   -7.4634   22.7473 H   0  0  0  0  0  0
  -21.0838   -8.8745   19.8945 H   0  0  0  0  0  0
  -22.3684  -10.9654   19.6148 H   0  0  0  0  0  0
  -21.2009   -7.6140   23.9705 H   0  0  0  0  0  0
  -21.1492   -6.0518   25.9073 H   0  0  0  0  0  0
  -22.0598   -2.7601   23.2845 H   0  0  0  0  0  0
  -22.4017  -11.9866   22.4882 H   0  0  0  0  0  0
  -21.0993  -13.1179   22.2635 H   0  0  0  0  0  0
  -24.6438  -15.8559   20.5474 H   0  0  0  0  0  0
  -26.2633  -15.6419   20.1157 H   0  0  0  0  0  0
  -26.7399  -32.5077   23.0851 H   0  0  0  0  0  0
  -25.0114  -33.9469   25.0199 H   0  0  0  0  0  0
  -22.8041  -31.2661   21.3480 H   0  0  0  0  0  0
  -23.3788  -35.9495   23.3284 H   0  0  0  0  0  0
  -24.3579  -36.8861   22.2076 H   0  0  0  0  0  0
  -23.7224  -37.6362   23.6719 H   0  0  0  0  0  0
  -26.2476  -31.3416   20.6181 H   0  0  0  0  0  0
  -26.9135  -30.6663   22.0609 H   0  0  0  0  0  0
  -28.1599  -28.5612   21.2680 H   0  0  0  0  0  0
  -25.8634  -25.7041   19.0141 H   0  0  0  0  0  0
  -24.0010  -27.2529   18.9567 H   0  0  0  0  0  0
  -23.8807  -30.5069   19.3887 H   0  0  0  0  0  0
  -22.8294  -29.1999   19.8315 H   0  0  0  0  0  0
  -25.1344  -36.1785   25.0800 H   0  0  0  0  0  0
  -21.0052  -28.3368   24.1298 H   0  0  0  0  0  0
  -20.5712  -26.2360   23.3640 H   0  0  0  0  0  0
  -21.6667  -26.7405   22.1199 H   0  0  0  0  0  0
  -19.6944  -25.6275   21.1264 H   0  0  0  0  0  0
  -19.6740  -27.3160   20.6731 H   0  0  0  0  0  0
  -17.4239  -26.6675   21.4009 H   0  0  0  0  0  0
  -18.0349  -26.0100   22.9025 H   0  0  0  0  0  0
  -19.7970  -30.7319   24.2178 H   0  0  0  0  0  0
  -17.5039  -31.6278   24.5145 H   0  0  0  0  0  0
  -15.5373  -30.2954   23.7729 H   0  0  0  0  0  0
  -15.8701  -28.0810   22.7100 H   0  0  0  0  0  0
  -24.5933  -30.7055   25.7643 H   0  0  0  0  0  0
  -24.8830  -32.2932   26.4650 H   0  0  0  0  0  0
  -25.7937  -30.9017   27.0199 H   0  0  0  0  0  0
  -26.3150  -29.6551   24.1455 H   0  0  0  0  0  0
  -27.3981  -29.7299   25.5145 H   0  0  0  0  0  0
  -27.9108  -30.4079   23.9900 H   0  0  0  0  0  0
  -27.2665  -33.3706   26.1899 H   0  0  0  0  0  0
  -28.3942  -32.6768   25.0340 H   0  0  0  0  0  0
  -28.0649  -31.8560   26.5524 H   0  0  0  0  0  0
  -28.2581  -38.0061   24.7524 H   0  0  0  0  0  0
  -28.1077  -36.2596   24.6301 H   0  0  0  0  0  0
  -27.2283  -37.1383   25.8868 H   0  0  0  0  0  0
  -20.9614  -29.8689   21.6601 H   0  0  0  0  0  0
  -26.0145  -38.2767   24.1410 H   0  0  0  0  0  0
  -28.1820  -17.0449   22.0287 H   0  0  0  0  0  0
  -27.0671  -19.2441   24.2134 H   0  0  0  0  0  0
  -26.5771  -17.7758   23.3885 H   0  0  0  0  0  0
  -25.7483  -19.2688   23.0266 H   0  0  0  0  0  0
  -27.9214  -22.3623   22.7664 H   0  0  0  0  0  0
  -26.6112  -21.3455   23.2730 H   0  0  0  0  0  0
  -26.4993  -22.1289   21.7158 H   0  0  0  0  0  0
  -29.0963  -22.5341   19.0711 H   0  0  0  0  0  0
  -29.9042  -22.7911   20.5588 H   0  0  0  0  0  0
  -27.7304  -24.1118   21.4578 H   0  0  0  0  0  0
  -27.0204  -23.9354   19.9070 H   0  0  0  0  0  0
  -30.1990  -16.7934   19.0645 H   0  0  0  0  0  0
  1 25  1  0  0  0
  1 30  2  0  0  0
  1 81  1  0  0  0
  2  3  1  0  0  0
  2 25  1  0  0  0
  2 83  1  0  0  0
  2 84  1  0  0  0
  3  4  1  0  0  0
  3 85  1  0  0  0
  3 86  1  0  0  0
  4  5  1  0  0  0
  4 87  1  0  0  0
  4 88  1  0  0  0
  5  6  1  0  0  0
  5 26  1  0  0  0
  5 89  1  0  0  0
  6 25  1  0  0  0
  6 90  1  0  0  0
  6 91  1  0  0  0
  7  8  2  0  0  0
  7 26  1  0  0  0
  7 29  1  0  0  0
  8  9  1  0  0  0
  8 22  1  0  0  0
  9 10  1  0  0  0
  9 27  2  0  0  0
 10 11  2  0  0  0
 10 15  1  0  0  0
 11 12  1  0  0  0
 11 92  1  0  0  0
 12 13  2  0  0  0
 12 93  1  0  0  0
 13 14  1  0  0  0
 13 31  1  0  0  0
 14 15  2  0  0  0
 14 94  1  0  0  0
 15 95  1  0  0  0
 16 17  2  0  0  0
 16 21  1  0  0  0
 16 31  1  0  0  0
 17 18  1  0  0  0
 17 96  1  0  0  0
 18 19  2  0  0  0
 18 97  1  0  0  0
 19 20  1  0  0  0
 19 24  1  0  0  0
 20 21  2  0  0  0
 20 98  1  0  0  0
 21 23  1  0  0  0
 22 28  1  0  0  0
 22 32  2  0  0  0
 26 27  1  0  0  0
 28 99  1  0  0  0
 28100  1  0  0  0
 29101  1  0  0  0
 29102  1  0  0  0
 33 34  1  0  0  0
 33 66  1  0  0  0
 33 70  2  0  0  0
 34 36  1  0  0  0
 34 59  1  0  0  0
 34103  1  0  0  0
 35 44  2  0  0  0
 35 45  1  0  0  0
 35 68  1  0  0  0
 36 56  1  0  0  0
 36104  1  0  0  0
 37 39  1  0  0  0
 37 47  1  0  0  0
 37 66  1  0  0  0
 37105  1  0  0  0
 38 43  2  0  0  0
 38 46  1  0  0  0
 38 47  1  0  0  0
 39 64  1  0  0  0
 39 67  2  0  0  0
 40 52  1  0  0  0
 40 53  2  0  0  0
 40 58  1  0  0  0
 41106  1  0  0  0
 41107  1  0  0  0
 41108  1  0  0  0
 41 48  1  0  0  0
 42 43  1  0  0  0
 42 66  1  0  0  0
 42109  1  0  0  0
 42110  1  0  0  0
 43 44  1  0  0  0
 44111  1  0  0  0
 45 46  2  0  0  0
 45112  1  0  0  0
 46113  1  0  0  0
 47114  1  0  0  0
 47115  1  0  0  0
 48 56  1  0  0  0
 48 65  1  0  0  0
 48116  1  0  0  0
 49 50  1  0  0  0
 49 53  1  0  0  0
 49 64  1  0  0  0
 49117  1  0  0  0
 50 51  1  0  0  0
 50118  1  0  0  0
 50119  1  0  0  0
 51 52  1  0  0  0
 51120  1  0  0  0
 51121  1  0  0  0
 52122  1  0  0  0
 52123  1  0  0  0
 53 54  1  0  0  0
 54 55  2  0  0  0
 54124  1  0  0  0
 55 57  1  0  0  0
 55125  1  0  0  0
 56 69  2  0  0  0
 57 58  2  0  0  0
 57126  1  0  0  0
 58127  1  0  0  0
 59 60  1  0  0  0
 59 61  1  0  0  0
 59 62  1  0  0  0
 60128  1  0  0  0
 60129  1  0  0  0
 60130  1  0  0  0
 61131  1  0  0  0
 61132  1  0  0  0
 61133  1  0  0  0
 62134  1  0  0  0
 62135  1  0  0  0
 62136  1  0  0  0
 63 65  1  0  0  0
 63137  1  0  0  0
 63138  1  0  0  0
 63139  1  0  0  0
 64140  1  0  0  0
 65141  1  0  0  0
 68 80  1  0  0  0
 71 72  2  0  0  0
 71 75  1  0  0  0
 71142  1  0  0  0
 72 73  1  0  0  0
 72 77  1  0  0  0
 73 74  2  0  0  0
 73 78  1  0  0  0
 74 76  1  0  0  0
 74 79  1  0  0  0
 75 76  2  0  0  0
 75 81  1  0  0  0
 76 82  1  0  0  0
 77143  1  0  0  0
 77144  1  0  0  0
 77145  1  0  0  0
 78146  1  0  0  0
 78147  1  0  0  0
 78148  1  0  0  0
 79 80  1  0  0  0
 79149  1  0  0  0
 79150  1  0  0  0
 80151  1  0  0  0
 80152  1  0  0  0
 81153  1  0  0  0
M  ISO  4   1 100  68 101  80 101  81 100
M  END
> <chiral flag>
0

> <version>
0

> <s_m_source_file>
/data/baiqing/PycharmProjects/Reinvent-master-3.2/result/LINK_invent/BTK/process_docking_weight1_custom_sum_contain_oxygen_bond_distance_aromatic_linkinvent_7_9_3/rearranged_h_0017.sdf

> <i_m_source_file_index>
25

> <r_mmod_Potential_Energy-OPLS-2005>
1487.25341796875

> <r_mmod_Stretch_Energy-OPLS-2005>
655.547729492188

> <r_mmod_Bend_Energy-OPLS-2005>
467.676391601562

> <r_mmod_Torsional_Energy-OPLS-2005>
283.229156494141

> <r_mmod_Improper_Torsional_Energy-OPLS-2005>
26.3029727935791

> <r_mmod_Van_der_Waal_Energy-OPLS-2005>
129.168762207031

> <r_mmod_Electrostatic_Energy-OPLS-2005>
-400.221557617188

> <r_mmod_Solvation_Energy-OPLS-2005>
-197.517990112305

> <b_mmod_Minimization_Converged-OPLS-2005>
0

> <r_mmod_RMS_Derivative-OPLS-2005>
2.37329411506653

$$$$
25
                    3D
 Structure written by MMmdl.
154162  0  0  1  0            999 V2000
  -30.4352  -15.3879   20.3598 C   0  0  0  0  0  0
  -30.4221  -12.8938   19.5470 C   0  0  0  0  0  0
  -29.5332  -12.6107   18.3105 C   0  0  0  0  0  0
  -28.0923  -12.2987   18.7374 C   0  0  0  0  0  0
  -27.5974  -13.2957   19.8121 C   0  0  2  0  0  0
  -28.6193  -13.5643   20.9441 C   0  0  0  0  0  0
  -25.2291  -13.8255   20.5732 C   0  0  0  0  0  0
  -24.1686  -13.0408   20.9270 C   0  0  0  0  0  0
  -24.6376  -11.6918   20.8755 C   0  0  0  0  0  0
  -23.9087  -10.4257   21.0391 C   0  0  0  0  0  0
  -24.3607   -9.4165   21.9155 C   0  0  0  0  0  0
  -23.6274   -8.2213   22.0745 C   0  0  0  0  0  0
  -22.4258   -8.0249   21.3546 C   0  0  0  0  0  0
  -21.9894   -9.0223   20.4652 C   0  0  0  0  0  0
  -22.7241  -10.2092   20.3051 C   0  0  0  0  0  0
  -21.6839   -6.0703   22.5292 C   0  0  0  0  0  0
  -21.4018   -6.5629   23.8216 C   0  0  0  0  0  0
  -21.3654   -5.6790   24.9188 C   0  0  0  0  0  0
  -21.6033   -4.3053   24.7250 C   0  0  0  0  0  0
  -21.8803   -3.8127   23.4380 C   0  0  0  0  0  0
  -21.9181   -4.6929   22.3423 C   0  0  0  0  0  0
  -22.7705  -13.5132   21.1915 C   0  0  0  0  0  0
  -22.1663   -4.2107   21.1003 F   0  0  0  0  0  0
  -21.5620   -3.4540   25.7764 F   0  0  0  0  0  0
  -29.8584  -14.0727   20.3236 N   0  0  0  0  0  0
  -26.2743  -12.9573   20.3199 N   0  0  0  0  0  0
  -25.9324  -11.6656   20.5733 N   0  0  0  0  0  0
  -22.0394  -12.8130   22.0496 N   0  0  0  0  0  0
  -25.3816  -15.2009   20.4138 N   0  0  0  0  0  0
  -31.6554  -15.3180   20.1317 O   0  0  0  0  0  0
  -21.6641   -6.8843   21.4248 O   0  0  0  0  0  0
  -22.3355  -14.5423   20.6764 O   0  0  0  0  0  0
  -24.6687  -31.8098   23.1622 C   0  0  0  0  0  0
  -25.9332  -32.4509   23.8093 C   0  0  1  0  0  0
  -27.2363  -26.8560   20.1871 C   0  0  0  0  0  0
  -25.5973  -33.8333   24.1994 N   0  0  0  0  0  0
  -23.4887  -30.4178   21.5122 C   0  0  2  0  0  0
  -24.9459  -28.7867   20.1085 C   0  0  0  0  0  0
  -22.7690  -29.4343   22.4710 C   0  0  0  0  0  0
  -18.0322  -28.1392   22.8463 C   0  0  0  0  0  0
  -24.1503  -36.7224   23.2642 C   0  0  0  0  0  0
  -26.0588  -30.5921   21.3994 C   0  0  0  0  0  0
  -26.1281  -29.1744   20.7466 C   0  0  0  0  0  0
  -27.2626  -28.2320   20.7600 C   0  0  0  0  0  0
  -26.0251  -26.6361   19.4887 C   0  0  0  0  0  0
  -24.9237  -27.5401   19.4578 C   0  0  0  0  0  0
  -23.7342  -29.7252   20.1413 C   0  0  0  0  0  0
  -25.4136  -36.2916   24.0272 C   0  0  1  0  0  0
  -20.5953  -28.3736   23.1165 C   0  0  2  0  0  0
  -20.6790  -26.9409   22.5402 C   0  0  0  0  0  0
  -19.5771  -26.6350   21.5207 C   0  0  0  0  0  0
  -18.1954  -26.7923   22.1614 C   0  0  0  0  0  0
  -19.1588  -28.8887   23.2806 C   0  0  0  0  0  0
  -18.9493  -30.1465   23.8851 C   0  0  0  0  0  0
  -17.6490  -30.6584   24.0532 C   0  0  0  0  0  0
  -25.9094  -34.9302   23.4951 C   0  0  0  0  0  0
  -16.5377  -29.9067   23.6333 C   0  0  0  0  0  0
  -16.7307  -28.6486   23.0363 C   0  0  0  0  0  0
  -26.4565  -31.6513   25.0676 C   0  0  0  0  0  0
  -25.3717  -31.3814   26.1360 C   0  0  0  0  0  0
  -27.0445  -30.2851   24.6480 C   0  0  0  0  0  0
  -27.5994  -32.4381   25.7535 C   0  0  0  0  0  0
  -27.5562  -37.1758   24.8446 C   0  0  0  0  0  0
  -21.4347  -29.3031   22.3505 N   0  0  0  0  0  0
  -26.4266  -37.3668   23.9381 N   0  0  0  0  0  0
  -24.7611  -30.9695   22.0776 N   0  0  0  0  0  0
  -23.4202  -28.7909   23.2976 O   0  0  0  0  0  0
  -28.2473  -25.7376   20.3162 O   0  0  0  0  0  0
  -26.5728  -34.8857   22.4559 O   0  0  0  0  0  0
  -23.5754  -32.1074   23.6696 O   0  0  0  0  0  0
  -29.3215  -20.8125   20.3230 C   0  0  0  0  0  0
  -28.9248  -19.3584   20.6769 C   0  0  0  0  0  0
  -30.5022  -20.4267   19.6774 C   0  0  0  0  0  0
  -29.8020  -18.2304   20.3408 C   0  0  0  0  0  0
  -31.4057  -21.3926   18.9566 C   0  0  0  0  0  0
  -33.4164  -19.1661   19.4621 C   0  0  0  0  0  0
  -28.7998  -22.5135   20.7186 C   0  0  0  0  0  0
  -32.1016  -18.3733   19.3467 C   0  0  0  0  0  0
  -28.2442  -24.0904   19.9317 C   0  0  0  0  0  0
  -30.8485  -19.0070   19.7841 N   0  0  0  0  0  0
  -29.6961  -16.7006   20.4945 N   0  0  0  0  0  0
  -27.4510  -19.0637   21.5273 Cl  0  0  0  0  0  0
  -31.4418  -13.0862   19.2088 H   0  0  0  0  0  0
  -30.4892  -12.0092   20.1791 H   0  0  0  0  0  0
  -29.9410  -11.7852   17.7230 H   0  0  0  0  0  0
  -29.5309  -13.4882   17.6613 H   0  0  0  0  0  0
  -28.0680  -11.2838   19.1358 H   0  0  0  0  0  0
  -27.4229  -12.2949   17.8773 H   0  0  0  0  0  0
  -27.4739  -14.2355   19.2691 H   0  0  0  0  0  0
  -28.7990  -12.6845   21.5608 H   0  0  0  0  0  0
  -28.2164  -14.3265   21.6131 H   0  0  0  0  0  0
  -25.2722   -9.5664   22.4751 H   0  0  0  0  0  0
  -23.9960   -7.4617   22.7480 H   0  0  0  0  0  0
  -21.0804   -8.8733   19.8986 H   0  0  0  0  0  0
  -22.3646  -10.9620   19.6195 H   0  0  0  0  0  0
  -21.2032   -7.6137   23.9729 H   0  0  0  0  0  0
  -21.1507   -6.0526   25.9096 H   0  0  0  0  0  0
  -22.0587   -2.7588   23.2917 H   0  0  0  0  0  0
  -22.4020  -11.9798   22.4873 H   0  0  0  0  0  0
  -21.1032  -13.1169   22.2721 H   0  0  0  0  0  0
  -24.5986  -15.8344   20.5328 H   0  0  0  0  0  0
  -26.2073  -15.6595   20.0535 H   0  0  0  0  0  0
  -26.7395  -32.5014   23.0788 H   0  0  0  0  0  0
  -25.0077  -33.9379   25.0126 H   0  0  0  0  0  0
  -22.8074  -31.2512   21.3352 H   0  0  0  0  0  0
  -23.3732  -35.9591   23.3255 H   0  0  0  0  0  0
  -24.3579  -36.8941   22.2069 H   0  0  0  0  0  0
  -23.7313  -37.6411   23.6759 H   0  0  0  0  0  0
  -26.2406  -31.3221   20.6091 H   0  0  0  0  0  0
  -26.9199  -30.6568   22.0533 H   0  0  0  0  0  0
  -28.1567  -28.5309   21.2865 H   0  0  0  0  0  0
  -25.8899  -25.6879   18.9890 H   0  0  0  0  0  0
  -24.0294  -27.2382   18.9310 H   0  0  0  0  0  0
  -23.8948  -30.4905   19.3809 H   0  0  0  0  0  0
  -22.8414  -29.1845   19.8205 H   0  0  0  0  0  0
  -25.1340  -36.1682   25.0768 H   0  0  0  0  0  0
  -21.0040  -28.3361   24.1281 H   0  0  0  0  0  0
  -20.5644  -26.2358   23.3652 H   0  0  0  0  0  0
  -21.6654  -26.7349   22.1221 H   0  0  0  0  0  0
  -19.6918  -25.6245   21.1273 H   0  0  0  0  0  0
  -19.6720  -27.3135   20.6718 H   0  0  0  0  0  0
  -17.4217  -26.6657   21.4017 H   0  0  0  0  0  0
  -18.0346  -26.0073   22.9022 H   0  0  0  0  0  0
  -19.7967  -30.7282   24.2220 H   0  0  0  0  0  0
  -17.5036  -31.6264   24.5140 H   0  0  0  0  0  0
  -15.5375  -30.2949   23.7675 H   0  0  0  0  0  0
  -15.8697  -28.0766   22.7114 H   0  0  0  0  0  0
  -24.5884  -30.7149   25.7725 H   0  0  0  0  0  0
  -24.8945  -32.3053   26.4653 H   0  0  0  0  0  0
  -25.7992  -30.9093   27.0224 H   0  0  0  0  0  0
  -26.3087  -29.6529   24.1489 H   0  0  0  0  0  0
  -27.3905  -29.7220   25.5162 H   0  0  0  0  0  0
  -27.9081  -30.3956   23.9917 H   0  0  0  0  0  0
  -27.2443  -33.3702   26.1958 H   0  0  0  0  0  0
  -28.3925  -32.6928   25.0491 H   0  0  0  0  0  0
  -28.0534  -31.8636   26.5622 H   0  0  0  0  0  0
  -28.2517  -38.0104   24.7461 H   0  0  0  0  0  0
  -28.1108  -36.2609   24.6296 H   0  0  0  0  0  0
  -27.2271  -37.1437   25.8848 H   0  0  0  0  0  0
  -20.9594  -29.8764   21.6679 H   0  0  0  0  0  0
  -26.0090  -38.2708   24.1407 H   0  0  0  0  0  0
  -30.9207  -22.3589   18.8157 H   0  0  0  0  0  0
  -31.6593  -21.0309   17.9576 H   0  0  0  0  0  0
  -32.3217  -21.5959   19.5118 H   0  0  0  0  0  0
  -34.2641  -18.4784   19.4412 H   0  0  0  0  0  0
  -33.4790  -19.7083   20.4066 H   0  0  0  0  0  0
  -33.5746  -19.8605   18.6412 H   0  0  0  0  0  0
  -29.6743  -22.8454   21.2777 H   0  0  0  0  0  0
  -28.0616  -22.3453   21.5041 H   0  0  0  0  0  0
  -32.2732  -17.5650   20.0470 H   0  0  0  0  0  0
  -31.9728  -17.9247   18.3606 H   0  0  0  0  0  0
  -27.2200  -23.8885   19.6166 H   0  0  0  0  0  0
  -28.7898  -24.1022   18.9883 H   0  0  0  0  0  0
  -28.7496  -16.4599   20.7529 H   0  0  0  0  0  0
  1 25  1  0  0  0
  1 30  2  0  0  0
  1 81  1  0  0  0
  2  3  1  0  0  0
  2 25  1  0  0  0
  2 83  1  0  0  0
  2 84  1  0  0  0
  3  4  1  0  0  0
  3 85  1  0  0  0
  3 86  1  0  0  0
  4  5  1  0  0  0
  4 87  1  0  0  0
  4 88  1  0  0  0
  5  6  1  0  0  0
  5 26  1  0  0  0
  5 89  1  0  0  0
  6 25  1  0  0  0
  6 90  1  0  0  0
  6 91  1  0  0  0
  7  8  2  0  0  0
  7 26  1  0  0  0
  7 29  1  0  0  0
  8  9  1  0  0  0
  8 22  1  0  0  0
  9 10  1  0  0  0
  9 27  2  0  0  0
 10 11  2  0  0  0
 10 15  1  0  0  0
 11 12  1  0  0  0
 11 92  1  0  0  0
 12 13  2  0  0  0
 12 93  1  0  0  0
 13 14  1  0  0  0
 13 31  1  0  0  0
 14 15  2  0  0  0
 14 94  1  0  0  0
 15 95  1  0  0  0
 16 17  2  0  0  0
 16 21  1  0  0  0
 16 31  1  0  0  0
 17 18  1  0  0  0
 17 96  1  0  0  0
 18 19  2  0  0  0
 18 97  1  0  0  0
 19 20  1  0  0  0
 19 24  1  0  0  0
 20 21  2  0  0  0
 20 98  1  0  0  0
 21 23  1  0  0  0
 22 28  1  0  0  0
 22 32  2  0  0  0
 26 27  1  0  0  0
 28 99  1  0  0  0
 28100  1  0  0  0
 29101  1  0  0  0
 29102  1  0  0  0
 33 34  1  0  0  0
 33 66  1  0  0  0
 33 70  2  0  0  0
 34 36  1  0  0  0
 34 59  1  0  0  0
 34103  1  0  0  0
 35 44  2  0  0  0
 35 45  1  0  0  0
 35 68  1  0  0  0
 36 56  1  0  0  0
 36104  1  0  0  0
 37 39  1  0  0  0
 37 47  1  0  0  0
 37 66  1  0  0  0
 37105  1  0  0  0
 38 43  2  0  0  0
 38 46  1  0  0  0
 38 47  1  0  0  0
 39 64  1  0  0  0
 39 67  2  0  0  0
 40 52  1  0  0  0
 40 53  2  0  0  0
 40 58  1  0  0  0
 41106  1  0  0  0
 41107  1  0  0  0
 41108  1  0  0  0
 41 48  1  0  0  0
 42 43  1  0  0  0
 42 66  1  0  0  0
 42109  1  0  0  0
 42110  1  0  0  0
 43 44  1  0  0  0
 44111  1  0  0  0
 45 46  2  0  0  0
 45112  1  0  0  0
 46113  1  0  0  0
 47114  1  0  0  0
 47115  1  0  0  0
 48 56  1  0  0  0
 48 65  1  0  0  0
 48116  1  0  0  0
 49 50  1  0  0  0
 49 53  1  0  0  0
 49 64  1  0  0  0
 49117  1  0  0  0
 50 51  1  0  0  0
 50118  1  0  0  0
 50119  1  0  0  0
 51 52  1  0  0  0
 51120  1  0  0  0
 51121  1  0  0  0
 52122  1  0  0  0
 52123  1  0  0  0
 53 54  1  0  0  0
 54 55  2  0  0  0
 54124  1  0  0  0
 55 57  1  0  0  0
 55125  1  0  0  0
 56 69  2  0  0  0
 57 58  2  0  0  0
 57126  1  0  0  0
 58127  1  0  0  0
 59 60  1  0  0  0
 59 61  1  0  0  0
 59 62  1  0  0  0
 60128  1  0  0  0
 60129  1  0  0  0
 60130  1  0  0  0
 61131  1  0  0  0
 61132  1  0  0  0
 61133  1  0  0  0
 62134  1  0  0  0
 62135  1  0  0  0
 62136  1  0  0  0
 63 65  1  0  0  0
 63137  1  0  0  0
 63138  1  0  0  0
 63139  1  0  0  0
 64140  1  0  0  0
 65141  1  0  0  0
 68 79  1  0  0  0
 71 72  1  0  0  0
 71 73  2  0  0  0
 71 77  1  0  0  0
 72 74  2  0  0  0
 72 82  1  0  0  0
 73 75  1  0  0  0
 73 80  1  0  0  0
 74 80  1  0  0  0
 74 81  1  0  0  0
 75142  1  0  0  0
 75143  1  0  0  0
 75144  1  0  0  0
 76 78  1  0  0  0
 76145  1  0  0  0
 76146  1  0  0  0
 76147  1  0  0  0
 77 79  1  0  0  0
 77148  1  0  0  0
 77149  1  0  0  0
 78 80  1  0  0  0
 78150  1  0  0  0
 78151  1  0  0  0
 79152  1  0  0  0
 79153  1  0  0  0
 81154  1  0  0  0
M  ISO  4   1 100  68 101  79 101  81 100
M  END
> <chiral flag>
0

> <version>
0

> <s_m_source_file>
/data/baiqing/PycharmProjects/Reinvent-master-3.2/result/LINK_invent/BTK/process_docking_weight1_custom_sum_contain_oxygen_bond_distance_aromatic_linkinvent_7_9_3/rearranged_h_0017.sdf

> <i_m_source_file_index>
26

> <r_mmod_Potential_Energy-OPLS-2005>
1567.95874023438

> <r_mmod_Stretch_Energy-OPLS-2005>
695.130920410156

> <r_mmod_Bend_Energy-OPLS-2005>
540.786437988281

> <r_mmod_Torsional_Energy-OPLS-2005>
231.704467773438

> <r_mmod_Improper_Torsional_Energy-OPLS-2005>
4.73760938644409

> <r_mmod_Van_der_Waal_Energy-OPLS-2005>
112.177749633789

> <r_mmod_Electrostatic_Energy-OPLS-2005>
-399.078552246094

> <r_mmod_Solvation_Energy-OPLS-2005>
-199.757873535156

> <b_mmod_Minimization_Converged-OPLS-2005>
0

> <r_mmod_RMS_Derivative-OPLS-2005>
5.55049800872803

$$$$
26
                    3D
 Structure written by MMmdl.
165173  0  0  1  0            999 V2000
  -30.4617  -15.3258   20.3569 C   0  0  0  0  0  0
  -30.4274  -12.8541   19.5090 C   0  0  0  0  0  0
  -29.5301  -12.5879   18.2751 C   0  0  0  0  0  0
  -28.0866  -12.2986   18.7172 C   0  0  0  0  0  0
  -27.6073  -13.2824   19.8129 C   0  0  2  0  0  0
  -28.6444  -13.5088   20.9354 C   0  0  0  0  0  0
  -25.2388  -13.8256   20.5760 C   0  0  0  0  0  0
  -24.1755  -13.0446   20.9268 C   0  0  0  0  0  0
  -24.6416  -11.6937   20.8767 C   0  0  0  0  0  0
  -23.9112  -10.4294   21.0399 C   0  0  0  0  0  0
  -24.3652   -9.4200   21.9174 C   0  0  0  0  0  0
  -23.6315   -8.2244   22.0754 C   0  0  0  0  0  0
  -22.4297   -8.0286   21.3545 C   0  0  0  0  0  0
  -21.9939   -9.0260   20.4641 C   0  0  0  0  0  0
  -22.7282  -10.2130   20.3044 C   0  0  0  0  0  0
  -21.6861   -6.0738   22.5280 C   0  0  0  0  0  0
  -21.4015   -6.5639   23.8212 C   0  0  0  0  0  0
  -21.3666   -5.6793   24.9176 C   0  0  0  0  0  0
  -21.6047   -4.3056   24.7228 C   0  0  0  0  0  0
  -21.8818   -3.8147   23.4351 C   0  0  0  0  0  0
  -21.9192   -4.6963   22.3405 C   0  0  0  0  0  0
  -22.7765  -13.5184   21.1908 C   0  0  0  0  0  0
  -22.1660   -4.2144   21.0985 F   0  0  0  0  0  0
  -21.5633   -3.4543   25.7743 F   0  0  0  0  0  0
  -29.8614  -14.0273   20.2837 N   0  0  0  0  0  0
  -26.2820  -12.9544   20.3215 N   0  0  0  0  0  0
  -25.9351  -11.6644   20.5713 N   0  0  0  0  0  0
  -22.0429  -12.8161   22.0452 N   0  0  0  0  0  0
  -25.4024  -15.1999   20.4180 N   0  0  0  0  0  0
  -31.6892  -15.2198   20.2399 O   0  0  0  0  0  0
  -21.6656   -6.8888   21.4246 O   0  0  0  0  0  0
  -22.3439  -14.5490   20.6743 O   0  0  0  0  0  0
  -24.6629  -31.8229   23.1681 C   0  0  0  0  0  0
  -25.9303  -32.4591   23.8157 C   0  0  1  0  0  0
  -27.2168  -26.8938   20.2113 C   0  0  0  0  0  0
  -25.5956  -33.8408   24.2071 N   0  0  0  0  0  0
  -23.4783  -30.4333   21.5163 C   0  0  2  0  0  0
  -24.9323  -28.8072   20.1216 C   0  0  0  0  0  0
  -22.7656  -29.4447   22.4758 C   0  0  0  0  0  0
  -18.0330  -28.1417   22.8486 C   0  0  0  0  0  0
  -24.1483  -36.7195   23.2650 C   0  0  0  0  0  0
  -26.0483  -30.6208   21.4019 C   0  0  0  0  0  0
  -26.1171  -29.2041   20.7550 C   0  0  0  0  0  0
  -27.2551  -28.2722   20.7654 C   0  0  0  0  0  0
  -25.9954  -26.6468   19.5481 C   0  0  0  0  0  0
  -24.8987  -27.5498   19.4969 C   0  0  0  0  0  0
  -23.7207  -29.7433   20.1457 C   0  0  0  0  0  0
  -25.4126  -36.2977   24.0308 C   0  0  1  0  0  0
  -20.5954  -28.3764   23.1197 C   0  0  2  0  0  0
  -20.6807  -26.9444   22.5414 C   0  0  0  0  0  0
  -19.5781  -26.6387   21.5230 C   0  0  0  0  0  0
  -18.1955  -26.7949   22.1631 C   0  0  0  0  0  0
  -19.1583  -28.8905   23.2833 C   0  0  0  0  0  0
  -18.9496  -30.1500   23.8877 C   0  0  0  0  0  0
  -17.6486  -30.6613   24.0561 C   0  0  0  0  0  0
  -25.9094  -34.9359   23.5022 C   0  0  0  0  0  0
  -16.5381  -29.9106   23.6346 C   0  0  0  0  0  0
  -16.7309  -28.6513   23.0390 C   0  0  0  0  0  0
  -26.4543  -31.6539   25.0689 C   0  0  0  0  0  0
  -25.3664  -31.3787   26.1344 C   0  0  0  0  0  0
  -27.0443  -30.2905   24.6429 C   0  0  0  0  0  0
  -27.6041  -32.4340   25.7496 C   0  0  0  0  0  0
  -27.5568  -37.1759   24.8468 C   0  0  0  0  0  0
  -21.4323  -29.3056   22.3529 N   0  0  0  0  0  0
  -26.4267  -37.3713   23.9423 N   0  0  0  0  0  0
  -24.7513  -30.9870   22.0819 N   0  0  0  0  0  0
  -23.4202  -28.8018   23.2999 O   0  0  0  0  0  0
  -28.2579  -25.8145   20.1698 O   0  0  0  0  0  0
  -26.5718  -34.8899   22.4627 O   0  0  0  0  0  0
  -23.5699  -32.1218   23.6747 O   0  0  0  0  0  0
  -30.6224  -21.2302   20.6914 C   0  0  0  0  0  0
  -29.2898  -21.0310   20.3194 C   0  0  0  0  0  0
  -31.6034  -20.2108   20.8538 C   0  0  0  0  0  0
  -29.0089  -19.5028   20.2290 C   0  0  0  0  0  0
  -31.3149  -18.8310   20.5129 C   0  0  0  0  0  0
  -29.9865  -18.2975   20.3685 C   0  0  0  0  0  0
  -27.5800  -19.1260   19.9026 C   0  0  0  0  0  0
  -32.4746  -17.9619   20.0709 C   0  0  0  0  0  0
  -32.8317  -21.8327   22.4405 C   0  0  0  0  0  0
  -33.7956  -21.3370   20.1925 C   0  0  0  0  0  0
  -33.8530  -19.6489   22.0860 C   0  0  0  0  0  0
  -28.4671  -22.5403   19.8931 C   0  0  0  0  0  0
  -28.2651  -24.2028   20.6199 C   0  0  0  0  0  0
  -32.9961  -20.7210   21.3624 C   0  0  0  0  0  0
  -29.7416  -16.6555   20.3297 N   0  0  0  0  0  0
  -31.4479  -13.0418   19.1732 H   0  0  0  0  0  0
  -30.4928  -11.9627   20.1346 H   0  0  0  0  0  0
  -29.9195  -11.7521   17.6908 H   0  0  0  0  0  0
  -29.5456  -13.4599   17.6181 H   0  0  0  0  0  0
  -28.0608  -11.2796   19.1049 H   0  0  0  0  0  0
  -27.4121  -12.3208   17.8607 H   0  0  0  0  0  0
  -27.5045  -14.2371   19.2948 H   0  0  0  0  0  0
  -28.8346  -12.5963   21.5036 H   0  0  0  0  0  0
  -28.2750  -14.2480   21.6475 H   0  0  0  0  0  0
  -25.2797   -9.5674   22.4750 H   0  0  0  0  0  0
  -24.0022   -7.4634   22.7471 H   0  0  0  0  0  0
  -21.0875   -8.8783   19.8934 H   0  0  0  0  0  0
  -22.3749  -10.9671   19.6151 H   0  0  0  0  0  0
  -21.2007   -7.6148   23.9717 H   0  0  0  0  0  0
  -21.1489   -6.0523   25.9080 H   0  0  0  0  0  0
  -22.0590   -2.7609   23.2857 H   0  0  0  0  0  0
  -22.4076  -11.9845   22.4863 H   0  0  0  0  0  0
  -21.1018  -13.1119   22.2625 H   0  0  0  0  0  0
  -24.6317  -15.8500   20.5255 H   0  0  0  0  0  0
  -26.2457  -15.6400   20.0765 H   0  0  0  0  0  0
  -26.7367  -32.5139   23.0871 H   0  0  0  0  0  0
  -25.0034  -33.9479   25.0175 H   0  0  0  0  0  0
  -22.7892  -31.2632   21.3437 H   0  0  0  0  0  0
  -23.3770  -35.9500   23.3292 H   0  0  0  0  0  0
  -24.3546  -36.8861   22.2062 H   0  0  0  0  0  0
  -23.7210  -37.6368   23.6718 H   0  0  0  0  0  0
  -26.2264  -31.3552   20.6148 H   0  0  0  0  0  0
  -26.9065  -30.6848   22.0594 H   0  0  0  0  0  0
  -28.1581  -28.5863   21.2697 H   0  0  0  0  0  0
  -25.8688  -25.6840   19.0733 H   0  0  0  0  0  0
  -24.0002  -27.2394   18.9821 H   0  0  0  0  0  0
  -23.8772  -30.5095   19.3847 H   0  0  0  0  0  0
  -22.8298  -29.1997   19.8298 H   0  0  0  0  0  0
  -25.1323  -36.1770   25.0796 H   0  0  0  0  0  0
  -21.0048  -28.3378   24.1322 H   0  0  0  0  0  0
  -20.5684  -26.2377   23.3653 H   0  0  0  0  0  0
  -21.6667  -26.7428   22.1214 H   0  0  0  0  0  0
  -19.6927  -25.6288   21.1293 H   0  0  0  0  0  0
  -19.6719  -27.3163   20.6730 H   0  0  0  0  0  0
  -17.4226  -26.6719   21.4032 H   0  0  0  0  0  0
  -18.0350  -26.0093   22.9024 H   0  0  0  0  0  0
  -19.7972  -30.7334   24.2215 H   0  0  0  0  0  0
  -17.5045  -31.6294   24.5175 H   0  0  0  0  0  0
  -15.5384  -30.3012   23.7677 H   0  0  0  0  0  0
  -15.8705  -28.0820   22.7145 H   0  0  0  0  0  0
  -24.5869  -30.7114   25.7652 H   0  0  0  0  0  0
  -24.8814  -32.2984   26.4626 H   0  0  0  0  0  0
  -25.7886  -30.9053   27.0221 H   0  0  0  0  0  0
  -26.3120  -29.6572   24.1400 H   0  0  0  0  0  0
  -27.3949  -29.7281   25.5096 H   0  0  0  0  0  0
  -27.9078  -30.4097   23.9882 H   0  0  0  0  0  0
  -27.2625  -33.3688   26.1960 H   0  0  0  0  0  0
  -28.3921  -32.6810   25.0369 H   0  0  0  0  0  0
  -28.0638  -31.8528   26.5504 H   0  0  0  0  0  0
  -28.2571  -38.0071   24.7539 H   0  0  0  0  0  0
  -28.1084  -36.2602   24.6275 H   0  0  0  0  0  0
  -27.2288  -37.1373   25.8870 H   0  0  0  0  0  0
  -20.9544  -29.8727   21.6657 H   0  0  0  0  0  0
  -26.0118  -38.2772   24.1450 H   0  0  0  0  0  0
  -30.9153  -22.2645   20.7661 H   0  0  0  0  0  0
  -27.1018  -19.8922   19.2940 H   0  0  0  0  0  0
  -27.0028  -19.0004   20.8175 H   0  0  0  0  0  0
  -27.5472  -18.1914   19.3424 H   0  0  0  0  0  0
  -33.2717  -18.5613   19.6380 H   0  0  0  0  0  0
  -32.1714  -17.3319   19.2382 H   0  0  0  0  0  0
  -32.8751  -17.3622   20.8877 H   0  0  0  0  0  0
  -32.4073  -22.7621   22.0669 H   0  0  0  0  0  0
  -33.7949  -22.1304   22.8573 H   0  0  0  0  0  0
  -32.2143  -21.4965   23.2745 H   0  0  0  0  0  0
  -33.2434  -22.1552   19.7273 H   0  0  0  0  0  0
  -34.0282  -20.6218   19.4045 H   0  0  0  0  0  0
  -34.7454  -21.7477   20.5387 H   0  0  0  0  0  0
  -33.2517  -19.0630   22.7815 H   0  0  0  0  0  0
  -34.6605  -20.0949   22.6684 H   0  0  0  0  0  0
  -34.3651  -18.9679   21.4131 H   0  0  0  0  0  0
  -27.4709  -22.2393   19.5710 H   0  0  0  0  0  0
  -28.9661  -22.7690   18.9508 H   0  0  0  0  0  0
  -29.1099  -24.2292   21.3084 H   0  0  0  0  0  0
  -27.4154  -24.1071   21.2946 H   0  0  0  0  0  0
  -28.7543  -16.4511   20.2884 H   0  0  0  0  0  0
  1 25  1  0  0  0
  1 30  2  0  0  0
  1 85  1  0  0  0
  2  3  1  0  0  0
  2 25  1  0  0  0
  2 86  1  0  0  0
  2 87  1  0  0  0
  3  4  1  0  0  0
  3 88  1  0  0  0
  3 89  1  0  0  0
  4  5  1  0  0  0
  4 90  1  0  0  0
  4 91  1  0  0  0
  5  6  1  0  0  0
  5 26  1  0  0  0
  5 92  1  0  0  0
  6 25  1  0  0  0
  6 93  1  0  0  0
  6 94  1  0  0  0
  7  8  2  0  0  0
  7 26  1  0  0  0
  7 29  1  0  0  0
  8  9  1  0  0  0
  8 22  1  0  0  0
  9 10  1  0  0  0
  9 27  2  0  0  0
 10 11  2  0  0  0
 10 15  1  0  0  0
 11 12  1  0  0  0
 11 95  1  0  0  0
 12 13  2  0  0  0
 12 96  1  0  0  0
 13 14  1  0  0  0
 13 31  1  0  0  0
 14 15  2  0  0  0
 14 97  1  0  0  0
 15 98  1  0  0  0
 16 17  2  0  0  0
 16 21  1  0  0  0
 16 31  1  0  0  0
 17 18  1  0  0  0
 17 99  1  0  0  0
 18 19  2  0  0  0
 18100  1  0  0  0
 19 20  1  0  0  0
 19 24  1  0  0  0
 20 21  2  0  0  0
 20101  1  0  0  0
 21 23  1  0  0  0
 22 28  1  0  0  0
 22 32  2  0  0  0
 26 27  1  0  0  0
 28102  1  0  0  0
 28103  1  0  0  0
 29104  1  0  0  0
 29105  1  0  0  0
 33 34  1  0  0  0
 33 66  1  0  0  0
 33 70  2  0  0  0
 34 36  1  0  0  0
 34 59  1  0  0  0
 34106  1  0  0  0
 35 44  2  0  0  0
 35 45  1  0  0  0
 35 68  1  0  0  0
 36 56  1  0  0  0
 36107  1  0  0  0
 37 39  1  0  0  0
 37 47  1  0  0  0
 37 66  1  0  0  0
 37108  1  0  0  0
 38 43  2  0  0  0
 38 46  1  0  0  0
 38 47  1  0  0  0
 39 64  1  0  0  0
 39 67  2  0  0  0
 40 52  1  0  0  0
 40 53  2  0  0  0
 40 58  1  0  0  0
 41109  1  0  0  0
 41110  1  0  0  0
 41111  1  0  0  0
 41 48  1  0  0  0
 42 43  1  0  0  0
 42 66  1  0  0  0
 42112  1  0  0  0
 42113  1  0  0  0
 43 44  1  0  0  0
 44114  1  0  0  0
 45 46  2  0  0  0
 45115  1  0  0  0
 46116  1  0  0  0
 47117  1  0  0  0
 47118  1  0  0  0
 48 56  1  0  0  0
 48 65  1  0  0  0
 48119  1  0  0  0
 49 50  1  0  0  0
 49 53  1  0  0  0
 49 64  1  0  0  0
 49120  1  0  0  0
 50 51  1  0  0  0
 50121  1  0  0  0
 50122  1  0  0  0
 51 52  1  0  0  0
 51123  1  0  0  0
 51124  1  0  0  0
 52125  1  0  0  0
 52126  1  0  0  0
 53 54  1  0  0  0
 54 55  2  0  0  0
 54127  1  0  0  0
 55 57  1  0  0  0
 55128  1  0  0  0
 56 69  2  0  0  0
 57 58  2  0  0  0
 57129  1  0  0  0
 58130  1  0  0  0
 59 60  1  0  0  0
 59 61  1  0  0  0
 59 62  1  0  0  0
 60131  1  0  0  0
 60132  1  0  0  0
 60133  1  0  0  0
 61134  1  0  0  0
 61135  1  0  0  0
 61136  1  0  0  0
 62137  1  0  0  0
 62138  1  0  0  0
 62139  1  0  0  0
 63 65  1  0  0  0
 63140  1  0  0  0
 63141  1  0  0  0
 63142  1  0  0  0
 64143  1  0  0  0
 65144  1  0  0  0
 68 83  1  0  0  0
 71 72  2  0  0  0
 71 73  1  0  0  0
 71145  1  0  0  0
 72 74  1  0  0  0
 72 82  1  0  0  0
 73 75  2  0  0  0
 73 84  1  0  0  0
 74 76  2  0  0  0
 74 77  1  0  0  0
 75 76  1  0  0  0
 75 78  1  0  0  0
 76 85  1  0  0  0
 77146  1  0  0  0
 77147  1  0  0  0
 77148  1  0  0  0
 78149  1  0  0  0
 78150  1  0  0  0
 78151  1  0  0  0
 79152  1  0  0  0
 79153  1  0  0  0
 79154  1  0  0  0
 79 84  1  0  0  0
 80 84  1  0  0  0
 80155  1  0  0  0
 80156  1  0  0  0
 80157  1  0  0  0
 81 84  1  0  0  0
 81158  1  0  0  0
 81159  1  0  0  0
 81160  1  0  0  0
 82 83  1  0  0  0
 82161  1  0  0  0
 82162  1  0  0  0
 83163  1  0  0  0
 83164  1  0  0  0
 85165  1  0  0  0
M  ISO  4   1 100  68 101  83 101  85 100
M  END
> <chiral flag>
0

> <version>
0

> <s_m_source_file>
/data/baiqing/PycharmProjects/Reinvent-master-3.2/result/LINK_invent/BTK/process_docking_weight1_custom_sum_contain_oxygen_bond_distance_aromatic_linkinvent_7_9_3/rearranged_h_0017.sdf

> <i_m_source_file_index>
27

> <r_mmod_Potential_Energy-OPLS-2005>
1500.80676269531

> <r_mmod_Stretch_Energy-OPLS-2005>
680.625549316406

> <r_mmod_Bend_Energy-OPLS-2005>
508.227722167969

> <r_mmod_Torsional_Energy-OPLS-2005>
285.822448730469

> <r_mmod_Improper_Torsional_Energy-OPLS-2005>
7.31442308425903

> <r_mmod_Van_der_Waal_Energy-OPLS-2005>
154.238098144531

> <r_mmod_Electrostatic_Energy-OPLS-2005>
-436.427520751953

> <r_mmod_Solvation_Energy-OPLS-2005>
-197.415145874023

> <b_mmod_Minimization_Converged-OPLS-2005>
0

> <r_mmod_RMS_Derivative-OPLS-2005>
2.80373001098633

$$$$
27
                    3D
 Structure written by MMmdl.
154162  0  0  1  0            999 V2000
  -30.6555  -14.4987   20.5538 C   0  0  0  0  0  0
  -30.4335  -12.3194   19.4234 C   0  0  0  0  0  0
  -29.5013  -12.5166   18.2079 C   0  0  0  0  0  0
  -28.0195  -12.3751   18.6136 C   0  0  0  0  0  0
  -27.6636  -13.2045   19.8765 C   0  0  2  0  0  0
  -28.7030  -12.9665   20.9951 C   0  0  0  0  0  0
  -25.2592  -13.8152   20.5657 C   0  0  0  0  0  0
  -24.1836  -13.0435   20.9149 C   0  0  0  0  0  0
  -24.6385  -11.6899   20.8712 C   0  0  0  0  0  0
  -23.9046  -10.4287   21.0394 C   0  0  0  0  0  0
  -24.3602   -9.4209   21.9174 C   0  0  0  0  0  0
  -23.6281   -8.2245   22.0757 C   0  0  0  0  0  0
  -22.4264   -8.0277   21.3549 C   0  0  0  0  0  0
  -21.9889   -9.0245   20.4653 C   0  0  0  0  0  0
  -22.7215  -10.2123   20.3057 C   0  0  0  0  0  0
  -21.6848   -6.0729   22.5274 C   0  0  0  0  0  0
  -21.4013   -6.5635   23.8207 C   0  0  0  0  0  0
  -21.3664   -5.6786   24.9167 C   0  0  0  0  0  0
  -21.6047   -4.3051   24.7220 C   0  0  0  0  0  0
  -21.8824   -3.8143   23.4343 C   0  0  0  0  0  0
  -21.9189   -4.6958   22.3397 C   0  0  0  0  0  0
  -22.7858  -13.5244   21.1816 C   0  0  0  0  0  0
  -22.1661   -4.2148   21.0974 F   0  0  0  0  0  0
  -21.5628   -3.4535   25.7733 F   0  0  0  0  0  0
  -30.0348  -13.2911   20.4542 N   0  0  0  0  0  0
  -26.3028  -12.9316   20.3346 N   0  0  0  0  0  0
  -25.9313  -11.6475   20.5726 N   0  0  0  0  0  0
  -22.0495  -12.8255   22.0382 N   0  0  0  0  0  0
  -25.4316  -15.1874   20.4080 N   0  0  0  0  0  0
  -31.7833  -14.7122   20.0971 O   0  0  0  0  0  0
  -21.6641   -6.8868   21.4236 O   0  0  0  0  0  0
  -22.3544  -14.5541   20.6649 O   0  0  0  0  0  0
  -24.6173  -31.8660   23.2087 C   0  0  0  0  0  0
  -25.9066  -32.4811   23.8385 C   0  0  1  0  0  0
  -27.2385  -27.4171   20.0804 C   0  0  0  0  0  0
  -25.5915  -33.8611   24.2315 N   0  0  0  0  0  0
  -23.4062  -30.4905   21.5487 C   0  0  2  0  0  0
  -24.8509  -28.9539   20.1127 C   0  0  0  0  0  0
  -22.7427  -29.4652   22.4967 C   0  0  0  0  0  0
  -18.0280  -28.1384   22.8489 C   0  0  0  0  0  0
  -24.1483  -36.7309   23.2639 C   0  0  0  0  0  0
  -25.9375  -30.8234   21.3661 C   0  0  0  0  0  0
  -26.0118  -29.4570   20.7103 C   0  0  0  0  0  0
  -27.2026  -28.6928   20.6970 C   0  0  0  0  0  0
  -26.0466  -26.9226   19.5006 C   0  0  0  0  0  0
  -24.8630  -27.6849   19.5099 C   0  0  0  0  0  0
  -23.6163  -29.8251   20.1622 C   0  0  0  0  0  0
  -25.4109  -36.3106   24.0336 C   0  0  1  0  0  0
  -20.5873  -28.3676   23.1310 C   0  0  2  0  0  0
  -20.6772  -26.9409   22.5421 C   0  0  0  0  0  0
  -19.5749  -26.6388   21.5218 C   0  0  0  0  0  0
  -18.1925  -26.7932   22.1625 C   0  0  0  0  0  0
  -19.1531  -28.8847   23.2897 C   0  0  0  0  0  0
  -18.9460  -30.1449   23.8912 C   0  0  0  0  0  0
  -17.6463  -30.6589   24.0570 C   0  0  0  0  0  0
  -25.9039  -34.9468   23.5124 C   0  0  0  0  0  0
  -16.5353  -29.9094   23.6324 C   0  0  0  0  0  0
  -16.7269  -28.6511   23.0346 C   0  0  0  0  0  0
  -26.4481  -31.6608   25.0726 C   0  0  0  0  0  0
  -25.3747  -31.3736   26.1477 C   0  0  0  0  0  0
  -27.0320  -30.3047   24.6128 C   0  0  0  0  0  0
  -27.6046  -32.4343   25.7494 C   0  0  0  0  0  0
  -27.5581  -37.1812   24.8465 C   0  0  0  0  0  0
  -21.4151  -29.3038   22.3710 N   0  0  0  0  0  0
  -26.4292  -37.3797   23.9406 N   0  0  0  0  0  0
  -24.6723  -31.0745   22.0995 N   0  0  0  0  0  0
  -23.4189  -28.8197   23.3023 O   0  0  0  0  0  0
  -28.4165  -26.6884   20.1145 O   0  0  0  0  0  0
  -26.5598  -34.8921   22.4680 O   0  0  0  0  0  0
  -23.5362  -32.1417   23.7467 O   0  0  0  0  0  0
  -29.7055  -18.6129   19.0038 C   0  0  0  0  0  0
  -29.2856  -19.5835   19.9479 C   0  0  0  0  0  0
  -29.7937  -16.8477   20.7087 C   0  0  0  0  0  0
  -29.9444  -17.2697   19.3643 C   0  0  0  0  0  0
  -29.1371  -19.1596   21.2954 C   0  0  0  0  0  0
  -29.3831  -17.8109   21.6613 C   0  0  0  0  0  0
  -28.9430  -20.9838   19.4596 C   0  0  0  0  0  0
  -29.2267  -24.3412   19.6601 C   0  0  0  0  0  0
  -28.1443  -23.2986   20.0415 C   0  0  0  0  0  0
  -28.7019  -25.6988   19.1073 C   0  0  0  0  0  0
  -29.9146  -15.4748   21.1170 N   0  0  0  0  0  0
  -28.6778  -21.9541   20.3551 N   0  0  0  0  0  0
  -28.9040  -21.2145   18.2481 O   0  0  0  0  0  0
  -30.2512  -16.3853   18.3854 F   0  0  0  0  0  0
  -28.7344  -20.0285   22.2563 F   0  0  0  0  0  0
  -29.1947  -17.4320   22.9492 F   0  0  0  0  0  0
  -31.4766  -12.4371   19.1238 H   0  0  0  0  0  0
  -30.3493  -11.3037   19.8108 H   0  0  0  0  0  0
  -29.7456  -11.7993   17.4234 H   0  0  0  0  0  0
  -29.6664  -13.5054   17.7766 H   0  0  0  0  0  0
  -27.8226  -11.3181   18.7934 H   0  0  0  0  0  0
  -27.3754  -12.6651   17.7826 H   0  0  0  0  0  0
  -27.7122  -14.2553   19.5904 H   0  0  0  0  0  0
  -28.6842  -11.9230   21.3134 H   0  0  0  0  0  0
  -28.4582  -13.5424   21.8881 H   0  0  0  0  0  0
  -25.2754   -9.5692   22.4732 H   0  0  0  0  0  0
  -24.0001   -7.4646   22.7478 H   0  0  0  0  0  0
  -21.0822   -8.8762   19.8962 H   0  0  0  0  0  0
  -22.3677  -10.9658   19.6165 H   0  0  0  0  0  0
  -21.2018   -7.6144   23.9711 H   0  0  0  0  0  0
  -21.1478   -6.0514   25.9067 H   0  0  0  0  0  0
  -22.0603   -2.7607   23.2838 H   0  0  0  0  0  0
  -22.4101  -11.9933   22.4806 H   0  0  0  0  0  0
  -21.1120  -13.1302   22.2580 H   0  0  0  0  0  0
  -24.6641  -15.8415   20.5146 H   0  0  0  0  0  0
  -26.2845  -15.6262   20.0854 H   0  0  0  0  0  0
  -26.7134  -32.5504   23.1143 H   0  0  0  0  0  0
  -25.0079  -33.9769   25.0471 H   0  0  0  0  0  0
  -22.6964  -31.3083   21.4093 H   0  0  0  0  0  0
  -23.3739  -35.9650   23.3312 H   0  0  0  0  0  0
  -24.3572  -36.8913   22.2052 H   0  0  0  0  0  0
  -23.7244  -37.6519   23.6645 H   0  0  0  0  0  0
  -26.0556  -31.5914   20.6002 H   0  0  0  0  0  0
  -26.8234  -30.8725   21.9881 H   0  0  0  0  0  0
  -28.0985  -29.0798   21.1616 H   0  0  0  0  0  0
  -25.9945  -25.9379   19.0619 H   0  0  0  0  0  0
  -23.9642  -27.2844   19.0616 H   0  0  0  0  0  0
  -23.7317  -30.6006   19.4043 H   0  0  0  0  0  0
  -22.7384  -29.2505   19.8621 H   0  0  0  0  0  0
  -25.1286  -36.1972   25.0833 H   0  0  0  0  0  0
  -20.9963  -28.3250   24.1433 H   0  0  0  0  0  0
  -20.5683  -26.2284   23.3613 H   0  0  0  0  0  0
  -21.6642  -26.7456   22.1213 H   0  0  0  0  0  0
  -19.6908  -25.6301   21.1242 H   0  0  0  0  0  0
  -19.6690  -27.3201   20.6749 H   0  0  0  0  0  0
  -17.4203  -26.6685   21.4021 H   0  0  0  0  0  0
  -18.0317  -26.0079   22.9024 H   0  0  0  0  0  0
  -19.7937  -30.7258   24.2289 H   0  0  0  0  0  0
  -17.5023  -31.6270   24.5171 H   0  0  0  0  0  0
  -15.5355  -30.3008   23.7635 H   0  0  0  0  0  0
  -15.8668  -28.0837   22.7051 H   0  0  0  0  0  0
  -24.5897  -30.7106   25.7819 H   0  0  0  0  0  0
  -24.8966  -32.2907   26.4931 H   0  0  0  0  0  0
  -25.8103  -30.8897   27.0227 H   0  0  0  0  0  0
  -26.2874  -29.6811   24.1166 H   0  0  0  0  0  0
  -27.4059  -29.7289   25.4603 H   0  0  0  0  0  0
  -27.8720  -30.4347   23.9302 H   0  0  0  0  0  0
  -27.2642  -33.3623   26.2099 H   0  0  0  0  0  0
  -28.3843  -32.6948   25.0326 H   0  0  0  0  0  0
  -28.0728  -31.8463   26.5395 H   0  0  0  0  0  0
  -28.2611  -38.0097   24.7505 H   0  0  0  0  0  0
  -28.1067  -36.2633   24.6301 H   0  0  0  0  0  0
  -27.2297  -37.1478   25.8867 H   0  0  0  0  0  0
  -20.9317  -29.8762   21.6929 H   0  0  0  0  0  0
  -26.0178  -38.2874   24.1408 H   0  0  0  0  0  0
  -29.8121  -18.8846   17.9638 H   0  0  0  0  0  0
  -29.8457  -23.8984   18.8786 H   0  0  0  0  0  0
  -29.8980  -24.5189   20.5006 H   0  0  0  0  0  0
  -27.4150  -23.2151   19.2333 H   0  0  0  0  0  0
  -27.5859  -23.6591   20.9059 H   0  0  0  0  0  0
  -27.9138  -25.5326   18.3765 H   0  0  0  0  0  0
  -29.5092  -26.1379   18.5198 H   0  0  0  0  0  0
  -29.1684  -15.1503   21.7124 H   0  0  0  0  0  0
  -28.7227  -21.6869   21.3316 H   0  0  0  0  0  0
  1 25  1  0  0  0
  1 30  2  0  0  0
  1 81  1  0  0  0
  2  3  1  0  0  0
  2 25  1  0  0  0
  2 87  1  0  0  0
  2 88  1  0  0  0
  3  4  1  0  0  0
  3 89  1  0  0  0
  3 90  1  0  0  0
  4  5  1  0  0  0
  4 91  1  0  0  0
  4 92  1  0  0  0
  5  6  1  0  0  0
  5 26  1  0  0  0
  5 93  1  0  0  0
  6 25  1  0  0  0
  6 94  1  0  0  0
  6 95  1  0  0  0
  7  8  2  0  0  0
  7 26  1  0  0  0
  7 29  1  0  0  0
  8  9  1  0  0  0
  8 22  1  0  0  0
  9 10  1  0  0  0
  9 27  2  0  0  0
 10 11  2  0  0  0
 10 15  1  0  0  0
 11 12  1  0  0  0
 11 96  1  0  0  0
 12 13  2  0  0  0
 12 97  1  0  0  0
 13 14  1  0  0  0
 13 31  1  0  0  0
 14 15  2  0  0  0
 14 98  1  0  0  0
 15 99  1  0  0  0
 16 17  2  0  0  0
 16 21  1  0  0  0
 16 31  1  0  0  0
 17 18  1  0  0  0
 17100  1  0  0  0
 18 19  2  0  0  0
 18101  1  0  0  0
 19 20  1  0  0  0
 19 24  1  0  0  0
 20 21  2  0  0  0
 20102  1  0  0  0
 21 23  1  0  0  0
 22 28  1  0  0  0
 22 32  2  0  0  0
 26 27  1  0  0  0
 28103  1  0  0  0
 28104  1  0  0  0
 29105  1  0  0  0
 29106  1  0  0  0
 33 34  1  0  0  0
 33 66  1  0  0  0
 33 70  2  0  0  0
 34 36  1  0  0  0
 34 59  1  0  0  0
 34107  1  0  0  0
 35 44  2  0  0  0
 35 45  1  0  0  0
 35 68  1  0  0  0
 36 56  1  0  0  0
 36108  1  0  0  0
 37 39  1  0  0  0
 37 47  1  0  0  0
 37 66  1  0  0  0
 37109  1  0  0  0
 38 43  2  0  0  0
 38 46  1  0  0  0
 38 47  1  0  0  0
 39 64  1  0  0  0
 39 67  2  0  0  0
 40 52  1  0  0  0
 40 53  2  0  0  0
 40 58  1  0  0  0
 41110  1  0  0  0
 41111  1  0  0  0
 41112  1  0  0  0
 41 48  1  0  0  0
 42 43  1  0  0  0
 42 66  1  0  0  0
 42113  1  0  0  0
 42114  1  0  0  0
 43 44  1  0  0  0
 44115  1  0  0  0
 45 46  2  0  0  0
 45116  1  0  0  0
 46117  1  0  0  0
 47118  1  0  0  0
 47119  1  0  0  0
 48 56  1  0  0  0
 48 65  1  0  0  0
 48120  1  0  0  0
 49 50  1  0  0  0
 49 53  1  0  0  0
 49 64  1  0  0  0
 49121  1  0  0  0
 50 51  1  0  0  0
 50122  1  0  0  0
 50123  1  0  0  0
 51 52  1  0  0  0
 51124  1  0  0  0
 51125  1  0  0  0
 52126  1  0  0  0
 52127  1  0  0  0
 53 54  1  0  0  0
 54 55  2  0  0  0
 54128  1  0  0  0
 55 57  1  0  0  0
 55129  1  0  0  0
 56 69  2  0  0  0
 57 58  2  0  0  0
 57130  1  0  0  0
 58131  1  0  0  0
 59 60  1  0  0  0
 59 61  1  0  0  0
 59 62  1  0  0  0
 60132  1  0  0  0
 60133  1  0  0  0
 60134  1  0  0  0
 61135  1  0  0  0
 61136  1  0  0  0
 61137  1  0  0  0
 62138  1  0  0  0
 62139  1  0  0  0
 62140  1  0  0  0
 63 65  1  0  0  0
 63141  1  0  0  0
 63142  1  0  0  0
 63143  1  0  0  0
 64144  1  0  0  0
 65145  1  0  0  0
 68 80  1  0  0  0
 71 72  2  0  0  0
 71 74  1  0  0  0
 71146  1  0  0  0
 72 75  1  0  0  0
 72 77  1  0  0  0
 73 74  2  0  0  0
 73 76  1  0  0  0
 73 81  1  0  0  0
 74 84  1  0  0  0
 75 76  2  0  0  0
 75 85  1  0  0  0
 76 86  1  0  0  0
 77 82  1  0  0  0
 77 83  2  0  0  0
 78 79  1  0  0  0
 78 80  1  0  0  0
 78147  1  0  0  0
 78148  1  0  0  0
 79 82  1  0  0  0
 79149  1  0  0  0
 79150  1  0  0  0
 80151  1  0  0  0
 80152  1  0  0  0
 81153  1  0  0  0
 82154  1  0  0  0
M  ISO  4   1 100  68 101  80 101  81 100
M  END
> <chiral flag>
0

> <version>
0

> <s_m_source_file>
/data/baiqing/PycharmProjects/Reinvent-master-3.2/result/LINK_invent/BTK/process_docking_weight1_custom_sum_contain_oxygen_bond_distance_aromatic_linkinvent_7_9_3/rearranged_h_0017.sdf

> <i_m_source_file_index>
28

> <r_mmod_Potential_Energy-OPLS-2005>
-141.232162475586

> <r_mmod_Stretch_Energy-OPLS-2005>
42.5145225524902

> <r_mmod_Bend_Energy-OPLS-2005>
111.734954833984

> <r_mmod_Torsional_Energy-OPLS-2005>
240.160873413086

> <r_mmod_Improper_Torsional_Energy-OPLS-2005>
4.48796463012695

> <r_mmod_Van_der_Waal_Energy-OPLS-2005>
158.146606445312

> <r_mmod_Electrostatic_Energy-OPLS-2005>
-492.000793457031

> <r_mmod_Solvation_Energy-OPLS-2005>
-222.113388061523

> <b_mmod_Minimization_Converged-OPLS-2005>
0

> <r_mmod_RMS_Derivative-OPLS-2005>
1.26909458637238

$$$$
28
                    3D
 Structure written by MMmdl.
162170  0  0  1  0            999 V2000
  -30.7052  -14.4312   20.6184 C   0  0  0  0  0  0
  -30.4272  -12.2974   19.4046 C   0  0  0  0  0  0
  -29.4924  -12.5195   18.1971 C   0  0  0  0  0  0
  -28.0126  -12.3813   18.6089 C   0  0  0  0  0  0
  -27.6666  -13.2006   19.8810 C   0  0  2  0  0  0
  -28.7062  -12.9339   20.9920 C   0  0  0  0  0  0
  -25.2577  -13.8126   20.5608 C   0  0  0  0  0  0
  -24.1830  -13.0419   20.9137 C   0  0  0  0  0  0
  -24.6388  -11.6890   20.8726 C   0  0  0  0  0  0
  -23.9058  -10.4284   21.0405 C   0  0  0  0  0  0
  -24.3612   -9.4204   21.9185 C   0  0  0  0  0  0
  -23.6290   -8.2243   22.0757 C   0  0  0  0  0  0
  -22.4273   -8.0277   21.3545 C   0  0  0  0  0  0
  -21.9904   -9.0248   20.4648 C   0  0  0  0  0  0
  -22.7232  -10.2129   20.3053 C   0  0  0  0  0  0
  -21.6849   -6.0737   22.5279 C   0  0  0  0  0  0
  -21.4012   -6.5644   23.8213 C   0  0  0  0  0  0
  -21.3660   -5.6798   24.9175 C   0  0  0  0  0  0
  -21.6040   -4.3058   24.7225 C   0  0  0  0  0  0
  -21.8818   -3.8148   23.4349 C   0  0  0  0  0  0
  -21.9194   -4.6966   22.3404 C   0  0  0  0  0  0
  -22.7861  -13.5234   21.1819 C   0  0  0  0  0  0
  -22.1662   -4.2154   21.0980 F   0  0  0  0  0  0
  -21.5630   -3.4536   25.7740 F   0  0  0  0  0  0
  -30.0442  -13.2523   20.4546 N   0  0  0  0  0  0
  -26.3045  -12.9301   20.3384 N   0  0  0  0  0  0
  -25.9317  -11.6468   20.5771 N   0  0  0  0  0  0
  -22.0509  -12.8229   22.0388 N   0  0  0  0  0  0
  -25.4244  -15.1826   20.3921 N   0  0  0  0  0  0
  -31.7892  -14.6702   20.0773 O   0  0  0  0  0  0
  -21.6635   -6.8878   21.4243 O   0  0  0  0  0  0
  -22.3541  -14.5543   20.6682 O   0  0  0  0  0  0
  -24.6123  -31.8693   23.2100 C   0  0  0  0  0  0
  -25.9020  -32.4838   23.8389 C   0  0  1  0  0  0
  -27.2387  -27.4538   20.0926 C   0  0  0  0  0  0
  -25.5878  -33.8631   24.2333 N   0  0  0  0  0  0
  -23.4007  -30.4904   21.5500 C   0  0  2  0  0  0
  -24.8493  -28.9533   20.1196 C   0  0  0  0  0  0
  -22.7403  -29.4657   22.5000 C   0  0  0  0  0  0
  -18.0270  -28.1363   22.8499 C   0  0  0  0  0  0
  -24.1490  -36.7306   23.2639 C   0  0  0  0  0  0
  -25.9274  -30.8392   21.3603 C   0  0  0  0  0  0
  -26.0069  -29.4724   20.7134 C   0  0  0  0  0  0
  -27.2078  -28.7280   20.6990 C   0  0  0  0  0  0
  -26.0676  -26.9389   19.5011 C   0  0  0  0  0  0
  -24.8717  -27.6830   19.5142 C   0  0  0  0  0  0
  -23.6096  -29.8178   20.1667 C   0  0  0  0  0  0
  -25.4112  -36.3118   24.0347 C   0  0  1  0  0  0
  -20.5859  -28.3644   23.1329 C   0  0  2  0  0  0
  -20.6770  -26.9377   22.5424 C   0  0  0  0  0  0
  -19.5752  -26.6374   21.5211 C   0  0  0  0  0  0
  -18.1922  -26.7914   22.1615 C   0  0  0  0  0  0
  -19.1521  -28.8818   23.2916 C   0  0  0  0  0  0
  -18.9451  -30.1429   23.8913 C   0  0  0  0  0  0
  -17.6457  -30.6577   24.0562 C   0  0  0  0  0  0
  -25.9023  -34.9485   23.5136 C   0  0  0  0  0  0
  -16.5345  -29.9087   23.6324 C   0  0  0  0  0  0
  -16.7259  -28.6498   23.0351 C   0  0  0  0  0  0
  -26.4451  -31.6612   25.0709 C   0  0  0  0  0  0
  -25.3730  -31.3712   26.1466 C   0  0  0  0  0  0
  -27.0271  -30.3068   24.6046 C   0  0  0  0  0  0
  -27.6035  -32.4318   25.7468 C   0  0  0  0  0  0
  -27.5589  -37.1807   24.8470 C   0  0  0  0  0  0
  -21.4132  -29.3021   22.3745 N   0  0  0  0  0  0
  -26.4301  -37.3805   23.9419 N   0  0  0  0  0  0
  -24.6652  -31.0802   22.0990 N   0  0  0  0  0  0
  -23.4188  -28.8192   23.3027 O   0  0  0  0  0  0
  -28.3999  -26.7232   20.0402 O   0  0  0  0  0  0
  -26.5593  -34.8935   22.4701 O   0  0  0  0  0  0
  -23.5325  -32.1416   23.7508 O   0  0  0  0  0  0
  -31.2540  -17.4993   21.0277 C   0  0  0  0  0  0
  -31.2798  -18.9051   21.1784 C   0  0  0  0  0  0
  -30.1772  -19.5896   21.7628 C   0  0  0  0  0  0
  -29.0335  -18.8339   22.1506 C   0  0  0  0  0  0
  -30.1398  -16.7438   21.4549 C   0  0  0  0  0  0
  -29.0354  -17.4219   22.0148 C   0  0  0  0  0  0
  -32.5329  -19.6442   20.7319 C   0  0  0  0  0  0
  -27.7978  -19.5001   22.7542 C   0  0  0  0  0  0
  -30.2585  -21.0976   22.0675 C   0  0  0  0  0  0
  -28.9298  -24.3539   20.4538 C   0  0  0  0  0  0
  -29.3269  -23.3338   21.5482 C   0  0  0  0  0  0
  -28.5232  -25.7206   21.0513 C   0  0  0  0  0  0
  -30.0512  -15.3205   21.3831 N   0  0  0  0  0  0
  -29.6393  -21.9711   21.0407 N   0  3  0  0  0  0
  -27.6807  -16.4906   22.5673 Cl  0  0  0  0  0  0
  -31.4703  -12.4065   19.1022 H   0  0  0  0  0  0
  -30.3335  -11.2761   19.7773 H   0  0  0  0  0  0
  -29.7268  -11.8080   17.4043 H   0  0  0  0  0  0
  -29.6638  -13.5119   17.7763 H   0  0  0  0  0  0
  -27.8150  -11.3236   18.7853 H   0  0  0  0  0  0
  -27.3632  -12.6766   17.7840 H   0  0  0  0  0  0
  -27.7237  -14.2561   19.6132 H   0  0  0  0  0  0
  -28.6771  -11.8826   21.2832 H   0  0  0  0  0  0
  -28.4555  -13.4816   21.9006 H   0  0  0  0  0  0
  -25.2758   -9.5683   22.4755 H   0  0  0  0  0  0
  -23.9998   -7.4634   22.7470 H   0  0  0  0  0  0
  -21.0839   -8.8764   19.8949 H   0  0  0  0  0  0
  -22.3690  -10.9667   19.6159 H   0  0  0  0  0  0
  -21.1998   -7.6151   23.9720 H   0  0  0  0  0  0
  -21.1482   -6.0524   25.9080 H   0  0  0  0  0  0
  -22.0596   -2.7611   23.2842 H   0  0  0  0  0  0
  -22.4129  -11.9893   22.4775 H   0  0  0  0  0  0
  -21.1127  -13.1254   22.2592 H   0  0  0  0  0  0
  -24.6684  -15.8409   20.5397 H   0  0  0  0  0  0
  -26.3019  -15.6309   20.1641 H   0  0  0  0  0  0
  -26.7087  -32.5549   23.1149 H   0  0  0  0  0  0
  -25.0055  -33.9799   25.0496 H   0  0  0  0  0  0
  -22.6895  -31.3066   21.4093 H   0  0  0  0  0  0
  -23.3759  -35.9629   23.3307 H   0  0  0  0  0  0
  -24.3581  -36.8905   22.2051 H   0  0  0  0  0  0
  -23.7235  -37.6515   23.6635 H   0  0  0  0  0  0
  -26.0360  -31.6027   20.5890 H   0  0  0  0  0  0
  -26.8175  -30.8966   21.9742 H   0  0  0  0  0  0
  -28.1074  -29.1268   21.1468 H   0  0  0  0  0  0
  -26.0864  -25.9675   19.0269 H   0  0  0  0  0  0
  -23.9792  -27.2789   19.0564 H   0  0  0  0  0  0
  -23.7154  -30.5906   19.4042 H   0  0  0  0  0  0
  -22.7354  -29.2340   19.8726 H   0  0  0  0  0  0
  -25.1290  -36.1979   25.0842 H   0  0  0  0  0  0
  -20.9944  -28.3185   24.1454 H   0  0  0  0  0  0
  -20.5669  -26.2233   23.3601 H   0  0  0  0  0  0
  -21.6642  -26.7429   22.1209 H   0  0  0  0  0  0
  -19.6920  -25.6291   21.1223 H   0  0  0  0  0  0
  -19.6704  -27.3206   20.6759 H   0  0  0  0  0  0
  -17.4205  -26.6662   21.4010 H   0  0  0  0  0  0
  -18.0318  -26.0053   22.9001 H   0  0  0  0  0  0
  -19.7933  -30.7243   24.2279 H   0  0  0  0  0  0
  -17.5020  -31.6263   24.5158 H   0  0  0  0  0  0
  -15.5350  -30.3004   23.7645 H   0  0  0  0  0  0
  -15.8650  -28.0831   22.7058 H   0  0  0  0  0  0
  -24.5894  -30.7062   25.7809 H   0  0  0  0  0  0
  -24.8917  -32.2868   26.4918 H   0  0  0  0  0  0
  -25.8086  -30.8883   27.0220 H   0  0  0  0  0  0
  -26.2798  -29.6847   24.1103 H   0  0  0  0  0  0
  -27.4083  -29.7278   25.4463 H   0  0  0  0  0  0
  -27.8611  -30.4415   23.9155 H   0  0  0  0  0  0
  -27.2660  -33.3609   26.2072 H   0  0  0  0  0  0
  -28.3829  -32.6888   25.0283 H   0  0  0  0  0  0
  -28.0713  -31.8423   26.5362 H   0  0  0  0  0  0
  -28.2609  -38.0104   24.7529 H   0  0  0  0  0  0
  -28.1083  -36.2638   24.6276 H   0  0  0  0  0  0
  -27.2305  -37.1438   25.8872 H   0  0  0  0  0  0
  -20.9273  -29.8734   21.6968 H   0  0  0  0  0  0
  -26.0188  -38.2884   24.1424 H   0  0  0  0  0  0
  -32.1189  -17.0092   20.6069 H   0  0  0  0  0  0
  -33.1826  -19.0053   20.1321 H   0  0  0  0  0  0
  -33.1107  -19.9777   21.5945 H   0  0  0  0  0  0
  -32.2847  -20.5119   20.1212 H   0  0  0  0  0  0
  -27.7819  -19.3560   23.8347 H   0  0  0  0  0  0
  -26.8867  -19.0658   22.3421 H   0  0  0  0  0  0
  -27.7265  -20.5665   22.5545 H   0  0  0  0  0  0
  -31.2922  -21.4084   22.2162 H   0  0  0  0  0  0
  -29.7918  -21.2754   23.0372 H   0  0  0  0  0  0
  -28.1050  -23.9660   19.8550 H   0  0  0  0  0  0
  -29.7682  -24.4949   19.7707 H   0  0  0  0  0  0
  -28.5210  -23.2567   22.2809 H   0  0  0  0  0  0
  -30.1951  -23.7207   22.0852 H   0  0  0  0  0  0
  -29.2858  -26.0613   21.7527 H   0  0  0  0  0  0
  -27.6041  -25.6085   21.6314 H   0  0  0  0  0  0
  -29.2116  -14.9476   21.8016 H   0  0  0  0  0  0
  -28.7934  -21.5370   20.7109 H   0  0  0  0  0  0
  -30.2713  -22.0375   20.2601 H   0  0  0  0  0  0
  1 25  1  0  0  0
  1 30  2  0  0  0
  1 83  1  0  0  0
  2  3  1  0  0  0
  2 25  1  0  0  0
  2 86  1  0  0  0
  2 87  1  0  0  0
  3  4  1  0  0  0
  3 88  1  0  0  0
  3 89  1  0  0  0
  4  5  1  0  0  0
  4 90  1  0  0  0
  4 91  1  0  0  0
  5  6  1  0  0  0
  5 26  1  0  0  0
  5 92  1  0  0  0
  6 25  1  0  0  0
  6 93  1  0  0  0
  6 94  1  0  0  0
  7  8  2  0  0  0
  7 26  1  0  0  0
  7 29  1  0  0  0
  8  9  1  0  0  0
  8 22  1  0  0  0
  9 10  1  0  0  0
  9 27  2  0  0  0
 10 11  2  0  0  0
 10 15  1  0  0  0
 11 12  1  0  0  0
 11 95  1  0  0  0
 12 13  2  0  0  0
 12 96  1  0  0  0
 13 14  1  0  0  0
 13 31  1  0  0  0
 14 15  2  0  0  0
 14 97  1  0  0  0
 15 98  1  0  0  0
 16 17  2  0  0  0
 16 21  1  0  0  0
 16 31  1  0  0  0
 17 18  1  0  0  0
 17 99  1  0  0  0
 18 19  2  0  0  0
 18100  1  0  0  0
 19 20  1  0  0  0
 19 24  1  0  0  0
 20 21  2  0  0  0
 20101  1  0  0  0
 21 23  1  0  0  0
 22 28  1  0  0  0
 22 32  2  0  0  0
 26 27  1  0  0  0
 28102  1  0  0  0
 28103  1  0  0  0
 29104  1  0  0  0
 29105  1  0  0  0
 33 34  1  0  0  0
 33 66  1  0  0  0
 33 70  2  0  0  0
 34 36  1  0  0  0
 34 59  1  0  0  0
 34106  1  0  0  0
 35 44  2  0  0  0
 35 45  1  0  0  0
 35 68  1  0  0  0
 36 56  1  0  0  0
 36107  1  0  0  0
 37 39  1  0  0  0
 37 47  1  0  0  0
 37 66  1  0  0  0
 37108  1  0  0  0
 38 43  2  0  0  0
 38 46  1  0  0  0
 38 47  1  0  0  0
 39 64  1  0  0  0
 39 67  2  0  0  0
 40 52  1  0  0  0
 40 53  2  0  0  0
 40 58  1  0  0  0
 41109  1  0  0  0
 41110  1  0  0  0
 41111  1  0  0  0
 41 48  1  0  0  0
 42 43  1  0  0  0
 42 66  1  0  0  0
 42112  1  0  0  0
 42113  1  0  0  0
 43 44  1  0  0  0
 44114  1  0  0  0
 45 46  2  0  0  0
 45115  1  0  0  0
 46116  1  0  0  0
 47117  1  0  0  0
 47118  1  0  0  0
 48 56  1  0  0  0
 48 65  1  0  0  0
 48119  1  0  0  0
 49 50  1  0  0  0
 49 53  1  0  0  0
 49 64  1  0  0  0
 49120  1  0  0  0
 50 51  1  0  0  0
 50121  1  0  0  0
 50122  1  0  0  0
 51 52  1  0  0  0
 51123  1  0  0  0
 51124  1  0  0  0
 52125  1  0  0  0
 52126  1  0  0  0
 53 54  1  0  0  0
 54 55  2  0  0  0
 54127  1  0  0  0
 55 57  1  0  0  0
 55128  1  0  0  0
 56 69  2  0  0  0
 57 58  2  0  0  0
 57129  1  0  0  0
 58130  1  0  0  0
 59 60  1  0  0  0
 59 61  1  0  0  0
 59 62  1  0  0  0
 60131  1  0  0  0
 60132  1  0  0  0
 60133  1  0  0  0
 61134  1  0  0  0
 61135  1  0  0  0
 61136  1  0  0  0
 62137  1  0  0  0
 62138  1  0  0  0
 62139  1  0  0  0
 63 65  1  0  0  0
 63140  1  0  0  0
 63141  1  0  0  0
 63142  1  0  0  0
 64143  1  0  0  0
 65144  1  0  0  0
 68 82  1  0  0  0
 71 72  2  0  0  0
 71 75  1  0  0  0
 71145  1  0  0  0
 72 73  1  0  0  0
 72 77  1  0  0  0
 73 74  2  0  0  0
 73 79  1  0  0  0
 74 76  1  0  0  0
 74 78  1  0  0  0
 75 76  2  0  0  0
 75 83  1  0  0  0
 76 85  1  0  0  0
 77146  1  0  0  0
 77147  1  0  0  0
 77148  1  0  0  0
 78149  1  0  0  0
 78150  1  0  0  0
 78151  1  0  0  0
 79 84  1  0  0  0
 79152  1  0  0  0
 79153  1  0  0  0
 80 81  1  0  0  0
 80 82  1  0  0  0
 80154  1  0  0  0
 80155  1  0  0  0
 81 84  1  0  0  0
 81156  1  0  0  0
 81157  1  0  0  0
 82158  1  0  0  0
 82159  1  0  0  0
 83160  1  0  0  0
 84161  1  0  0  0
 84162  1  0  0  0
M  CHG  1  84   1
M  ISO  4   1 100  68 101  82 101  83 100
M  END
> <chiral flag>
0

> <version>
0

> <s_m_source_file>
/data/baiqing/PycharmProjects/Reinvent-master-3.2/result/LINK_invent/BTK/process_docking_weight1_custom_sum_contain_oxygen_bond_distance_aromatic_linkinvent_7_9_3/rearranged_h_0017.sdf

> <i_m_source_file_index>
29

> <r_mmod_Potential_Energy-OPLS-2005>
-258.957824707031

> <r_mmod_Stretch_Energy-OPLS-2005>
38.0028877258301

> <r_mmod_Bend_Energy-OPLS-2005>
99.1033477783203

> <r_mmod_Torsional_Energy-OPLS-2005>
226.996368408203

> <r_mmod_Improper_Torsional_Energy-OPLS-2005>
3.05688047409058

> <r_mmod_Van_der_Waal_Energy-OPLS-2005>
156.328247070312

> <r_mmod_Electrostatic_Energy-OPLS-2005>
-322.85498046875

> <r_mmod_Solvation_Energy-OPLS-2005>
-467.685699462891

> <b_mmod_Minimization_Converged-OPLS-2005>
0

> <r_mmod_RMS_Derivative-OPLS-2005>
1.34731030464172

$$$$
29
                    3D
 Structure written by MMmdl.
161169  0  0  1  0            999 V2000
  -30.5519  -14.9873   20.4191 C   0  0  0  0  0  0
  -30.4332  -12.6110   19.5076 C   0  0  0  0  0  0
  -29.5215  -12.5282   18.2624 C   0  0  0  0  0  0
  -28.0566  -12.3120   18.6819 C   0  0  0  0  0  0
  -27.6256  -13.2543   19.8355 C   0  0  2  0  0  0
  -28.6674  -13.3151   20.9736 C   0  0  0  0  0  0
  -25.2440  -13.8225   20.5726 C   0  0  0  0  0  0
  -24.1766  -13.0436   20.9237 C   0  0  0  0  0  0
  -24.6395  -11.6925   20.8764 C   0  0  0  0  0  0
  -23.9079  -10.4293   21.0411 C   0  0  0  0  0  0
  -24.3627   -9.4202   21.9187 C   0  0  0  0  0  0
  -23.6295   -8.2244   22.0756 C   0  0  0  0  0  0
  -22.4275   -8.0288   21.3550 C   0  0  0  0  0  0
  -21.9910   -9.0262   20.4654 C   0  0  0  0  0  0
  -22.7248  -10.2136   20.3063 C   0  0  0  0  0  0
  -21.6852   -6.0737   22.5279 C   0  0  0  0  0  0
  -21.4015   -6.5641   23.8212 C   0  0  0  0  0  0
  -21.3658   -5.6794   24.9176 C   0  0  0  0  0  0
  -21.6040   -4.3056   24.7225 C   0  0  0  0  0  0
  -21.8818   -3.8147   23.4346 C   0  0  0  0  0  0
  -21.9191   -4.6966   22.3404 C   0  0  0  0  0  0
  -22.7783  -13.5205   21.1886 C   0  0  0  0  0  0
  -22.1661   -4.2148   21.0980 F   0  0  0  0  0  0
  -21.5625   -3.4540   25.7737 F   0  0  0  0  0  0
  -29.9377  -13.7306   20.3661 N   0  0  0  0  0  0
  -26.2868  -12.9469   20.3246 N   0  0  0  0  0  0
  -25.9329  -11.6591   20.5749 N   0  0  0  0  0  0
  -22.0436  -12.8197   22.0446 N   0  0  0  0  0  0
  -25.4074  -15.1960   20.4159 N   0  0  0  0  0  0
  -31.7515  -14.9945   20.1180 O   0  0  0  0  0  0
  -21.6640   -6.8883   21.4245 O   0  0  0  0  0  0
  -22.3466  -14.5510   20.6728 O   0  0  0  0  0  0
  -24.6459  -31.8409   23.1849 C   0  0  0  0  0  0
  -25.9214  -32.4683   23.8252 C   0  0  1  0  0  0
  -27.2192  -27.1033   20.1590 C   0  0  0  0  0  0
  -25.5949  -33.8490   24.2169 N   0  0  0  0  0  0
  -23.4518  -30.4580   21.5310 C   0  0  2  0  0  0
  -24.9027  -28.8771   20.1097 C   0  0  0  0  0  0
  -22.7583  -29.4525   22.4848 C   0  0  0  0  0  0
  -18.0308  -28.1397   22.8476 C   0  0  0  0  0  0
  -24.1487  -36.7249   23.2643 C   0  0  0  0  0  0
  -26.0096  -30.7041   21.3881 C   0  0  0  0  0  0
  -26.0808  -29.3115   20.7305 C   0  0  0  0  0  0
  -27.2388  -28.4414   20.7356 C   0  0  0  0  0  0
  -26.0155  -26.7774   19.4971 C   0  0  0  0  0  0
  -24.8850  -27.6252   19.4759 C   0  0  0  0  0  0
  -23.6807  -29.7837   20.1515 C   0  0  0  0  0  0
  -25.4124  -36.3029   24.0314 C   0  0  1  0  0  0
  -20.5922  -28.3725   23.1231 C   0  0  2  0  0  0
  -20.6789  -26.9426   22.5408 C   0  0  0  0  0  0
  -19.5766  -26.6379   21.5215 C   0  0  0  0  0  0
  -18.1947  -26.7935   22.1623 C   0  0  0  0  0  0
  -19.1565  -28.8880   23.2847 C   0  0  0  0  0  0
  -18.9481  -30.1471   23.8881 C   0  0  0  0  0  0
  -17.6477  -30.6593   24.0559 C   0  0  0  0  0  0
  -25.9077  -34.9404   23.5055 C   0  0  0  0  0  0
  -16.5369  -29.9087   23.6334 C   0  0  0  0  0  0
  -16.7292  -28.6504   23.0361 C   0  0  0  0  0  0
  -26.4523  -31.6563   25.0705 C   0  0  0  0  0  0
  -25.3694  -31.3767   26.1391 C   0  0  0  0  0  0
  -27.0388  -30.2955   24.6301 C   0  0  0  0  0  0
  -27.6054  -32.4331   25.7493 C   0  0  0  0  0  0
  -27.5576  -37.1782   24.8464 C   0  0  0  0  0  0
  -21.4272  -29.3044   22.3596 N   0  0  0  0  0  0
  -26.4285  -37.3748   23.9409 N   0  0  0  0  0  0
  -24.7225  -31.0234   22.0896 N   0  0  0  0  0  0
  -23.4211  -28.8084   23.3018 O   0  0  0  0  0  0
  -28.2654  -26.1025   20.2402 O   0  0  0  0  0  0
  -26.5675  -34.8907   22.4640 O   0  0  0  0  0  0
  -23.5569  -32.1300   23.7046 O   0  0  0  0  0  0
  -30.9002  -20.4675   21.2022 C   0  0  0  0  0  0
  -31.7117  -19.4144   21.6531 C   0  0  0  0  0  0
  -31.3036  -18.0594   21.5192 C   0  0  0  0  0  0
  -29.6579  -20.2432   20.5992 C   0  0  0  0  0  0
  -30.1293  -17.7167   20.7768 C   0  0  0  0  0  0
  -33.0347  -19.7853   22.3082 C   0  0  0  0  0  0
  -32.1400  -17.0104   22.2566 C   0  0  0  0  0  0
  -29.2653  -23.4600   21.9907 C   0  0  0  0  0  0
  -30.3542  -23.6264   19.7126 C   0  0  0  0  0  0
  -28.7336  -21.5880   20.1994 C   0  0  0  0  0  0
  -28.0143  -24.5582   20.0627 C   0  0  0  0  0  0
  -29.0592  -23.2696   20.4733 C   0  0  0  0  0  0
  -29.3315  -18.8561   20.3859 N   0  0  0  0  0  0
  -29.8047  -16.2072   20.5862 N   0  0  0  0  0  0
  -31.4690  -12.7537   19.1952 H   0  0  0  0  0  0
  -30.4222  -11.6696   20.0596 H   0  0  0  0  0  0
  -29.8464  -11.7194   17.6061 H   0  0  0  0  0  0
  -29.6084  -13.4484   17.6829 H   0  0  0  0  0  0
  -27.9605  -11.2744   19.0034 H   0  0  0  0  0  0
  -27.3926  -12.4306   17.8247 H   0  0  0  0  0  0
  -27.5789  -14.2487   19.3911 H   0  0  0  0  0  0
  -28.7636  -12.3514   21.4756 H   0  0  0  0  0  0
  -28.3604  -14.0335   21.7356 H   0  0  0  0  0  0
  -25.2775   -9.5667   22.4763 H   0  0  0  0  0  0
  -23.9999   -7.4628   22.7470 H   0  0  0  0  0  0
  -21.0836   -8.8784   19.8966 H   0  0  0  0  0  0
  -22.3704  -10.9677   19.6176 H   0  0  0  0  0  0
  -21.2016   -7.6149   23.9713 H   0  0  0  0  0  0
  -21.1478   -6.0527   25.9075 H   0  0  0  0  0  0
  -22.0599   -2.7611   23.2847 H   0  0  0  0  0  0
  -22.4055  -11.9867   22.4847 H   0  0  0  0  0  0
  -21.1056  -13.1222   22.2658 H   0  0  0  0  0  0
  -24.6324  -15.8408   20.5265 H   0  0  0  0  0  0
  -26.2398  -15.6422   20.0538 H   0  0  0  0  0  0
  -26.7279  -32.5279   23.0978 H   0  0  0  0  0  0
  -25.0056  -33.9600   25.0290 H   0  0  0  0  0  0
  -22.7561  -31.2848   21.3734 H   0  0  0  0  0  0
  -23.3761  -35.9567   23.3288 H   0  0  0  0  0  0
  -24.3574  -36.8901   22.2062 H   0  0  0  0  0  0
  -23.7226  -37.6432   23.6694 H   0  0  0  0  0  0
  -26.1679  -31.4555   20.6132 H   0  0  0  0  0  0
  -26.8789  -30.7572   22.0317 H   0  0  0  0  0  0
  -28.1344  -28.7689   21.2444 H   0  0  0  0  0  0
  -25.9169  -25.8183   19.0114 H   0  0  0  0  0  0
  -23.9867  -27.2874   18.9771 H   0  0  0  0  0  0
  -23.8219  -30.5570   19.3957 H   0  0  0  0  0  0
  -22.7942  -29.2289   19.8388 H   0  0  0  0  0  0
  -25.1312  -36.1856   25.0807 H   0  0  0  0  0  0
  -21.0014  -28.3318   24.1354 H   0  0  0  0  0  0
  -20.5677  -26.2342   23.3630 H   0  0  0  0  0  0
  -21.6657  -26.7426   22.1213 H   0  0  0  0  0  0
  -19.6929  -25.6283   21.1263 H   0  0  0  0  0  0
  -19.6703  -27.3172   20.6731 H   0  0  0  0  0  0
  -17.4216  -26.6676   21.4029 H   0  0  0  0  0  0
  -18.0348  -26.0086   22.9027 H   0  0  0  0  0  0
  -19.7955  -30.7288   24.2252 H   0  0  0  0  0  0
  -17.5032  -31.6273   24.5158 H   0  0  0  0  0  0
  -15.5370  -30.2986   23.7667 H   0  0  0  0  0  0
  -15.8691  -28.0812   22.7099 H   0  0  0  0  0  0
  -24.5881  -30.7111   25.7706 H   0  0  0  0  0  0
  -24.8871  -32.2951   26.4748 H   0  0  0  0  0  0
  -25.7957  -30.8982   27.0215 H   0  0  0  0  0  0
  -26.3007  -29.6682   24.1289 H   0  0  0  0  0  0
  -27.3972  -29.7259   25.4885 H   0  0  0  0  0  0
  -27.8929  -30.4192   23.9640 H   0  0  0  0  0  0
  -27.2655  -33.3662   26.2000 H   0  0  0  0  0  0
  -28.3901  -32.6840   25.0343 H   0  0  0  0  0  0
  -28.0677  -31.8496   26.5466 H   0  0  0  0  0  0
  -28.2586  -38.0087   24.7519 H   0  0  0  0  0  0
  -28.1080  -36.2618   24.6280 H   0  0  0  0  0  0
  -27.2296  -37.1417   25.8868 H   0  0  0  0  0  0
  -20.9494  -29.8746   21.6758 H   0  0  0  0  0  0
  -26.0149  -38.2812   24.1423 H   0  0  0  0  0  0
  -31.2486  -21.4725   21.3649 H   0  0  0  0  0  0
  -33.3177  -20.8128   22.0795 H   0  0  0  0  0  0
  -33.8414  -19.1463   21.9480 H   0  0  0  0  0  0
  -32.9710  -19.6936   23.3926 H   0  0  0  0  0  0
  -32.5949  -17.4088   23.1623 H   0  0  0  0  0  0
  -32.9471  -16.6405   21.6251 H   0  0  0  0  0  0
  -31.5375  -16.1751   22.6088 H   0  0  0  0  0  0
  -29.9621  -22.7521   22.4306 H   0  0  0  0  0  0
  -28.3210  -23.3399   22.5229 H   0  0  0  0  0  0
  -29.6377  -24.4599   22.2189 H   0  0  0  0  0  0
  -31.2001  -22.9910   19.9570 H   0  0  0  0  0  0
  -30.6633  -24.6519   19.9202 H   0  0  0  0  0  0
  -30.2019  -23.5500   18.6356 H   0  0  0  0  0  0
  -27.7638  -21.3925   20.6570 H   0  0  0  0  0  0
  -28.5469  -21.4834   19.1306 H   0  0  0  0  0  0
  -27.0726  -24.3542   20.5743 H   0  0  0  0  0  0
  -27.7845  -24.4291   19.0044 H   0  0  0  0  0  0
  -28.8139  -16.0291   20.5794 H   0  0  0  0  0  0
  1 25  1  0  0  0
  1 30  2  0  0  0
  1 84  1  0  0  0
  2  3  1  0  0  0
  2 25  1  0  0  0
  2 85  1  0  0  0
  2 86  1  0  0  0
  3  4  1  0  0  0
  3 87  1  0  0  0
  3 88  1  0  0  0
  4  5  1  0  0  0
  4 89  1  0  0  0
  4 90  1  0  0  0
  5  6  1  0  0  0
  5 26  1  0  0  0
  5 91  1  0  0  0
  6 25  1  0  0  0
  6 92  1  0  0  0
  6 93  1  0  0  0
  7  8  2  0  0  0
  7 26  1  0  0  0
  7 29  1  0  0  0
  8  9  1  0  0  0
  8 22  1  0  0  0
  9 10  1  0  0  0
  9 27  2  0  0  0
 10 11  2  0  0  0
 10 15  1  0  0  0
 11 12  1  0  0  0
 11 94  1  0  0  0
 12 13  2  0  0  0
 12 95  1  0  0  0
 13 14  1  0  0  0
 13 31  1  0  0  0
 14 15  2  0  0  0
 14 96  1  0  0  0
 15 97  1  0  0  0
 16 17  2  0  0  0
 16 21  1  0  0  0
 16 31  1  0  0  0
 17 18  1  0  0  0
 17 98  1  0  0  0
 18 19  2  0  0  0
 18 99  1  0  0  0
 19 20  1  0  0  0
 19 24  1  0  0  0
 20 21  2  0  0  0
 20100  1  0  0  0
 21 23  1  0  0  0
 22 28  1  0  0  0
 22 32  2  0  0  0
 26 27  1  0  0  0
 28101  1  0  0  0
 28102  1  0  0  0
 29103  1  0  0  0
 29104  1  0  0  0
 33 34  1  0  0  0
 33 66  1  0  0  0
 33 70  2  0  0  0
 34 36  1  0  0  0
 34 59  1  0  0  0
 34105  1  0  0  0
 35 44  2  0  0  0
 35 45  1  0  0  0
 35 68  1  0  0  0
 36 56  1  0  0  0
 36106  1  0  0  0
 37 39  1  0  0  0
 37 47  1  0  0  0
 37 66  1  0  0  0
 37107  1  0  0  0
 38 43  2  0  0  0
 38 46  1  0  0  0
 38 47  1  0  0  0
 39 64  1  0  0  0
 39 67  2  0  0  0
 40 52  1  0  0  0
 40 53  2  0  0  0
 40 58  1  0  0  0
 41108  1  0  0  0
 41109  1  0  0  0
 41110  1  0  0  0
 41 48  1  0  0  0
 42 43  1  0  0  0
 42 66  1  0  0  0
 42111  1  0  0  0
 42112  1  0  0  0
 43 44  1  0  0  0
 44113  1  0  0  0
 45 46  2  0  0  0
 45114  1  0  0  0
 46115  1  0  0  0
 47116  1  0  0  0
 47117  1  0  0  0
 48 56  1  0  0  0
 48 65  1  0  0  0
 48118  1  0  0  0
 49 50  1  0  0  0
 49 53  1  0  0  0
 49 64  1  0  0  0
 49119  1  0  0  0
 50 51  1  0  0  0
 50120  1  0  0  0
 50121  1  0  0  0
 51 52  1  0  0  0
 51122  1  0  0  0
 51123  1  0  0  0
 52124  1  0  0  0
 52125  1  0  0  0
 53 54  1  0  0  0
 54 55  2  0  0  0
 54126  1  0  0  0
 55 57  1  0  0  0
 55127  1  0  0  0
 56 69  2  0  0  0
 57 58  2  0  0  0
 57128  1  0  0  0
 58129  1  0  0  0
 59 60  1  0  0  0
 59 61  1  0  0  0
 59 62  1  0  0  0
 60130  1  0  0  0
 60131  1  0  0  0
 60132  1  0  0  0
 61133  1  0  0  0
 61134  1  0  0  0
 61135  1  0  0  0
 62136  1  0  0  0
 62137  1  0  0  0
 62138  1  0  0  0
 63 65  1  0  0  0
 63139  1  0  0  0
 63140  1  0  0  0
 63141  1  0  0  0
 64142  1  0  0  0
 65143  1  0  0  0
 68 81  1  0  0  0
 71 72  2  0  0  0
 71 74  1  0  0  0
 71144  1  0  0  0
 72 73  1  0  0  0
 72 76  1  0  0  0
 73 75  2  0  0  0
 73 77  1  0  0  0
 74 80  1  0  0  0
 74 83  2  0  0  0
 75 83  1  0  0  0
 75 84  1  0  0  0
 76145  1  0  0  0
 76146  1  0  0  0
 76147  1  0  0  0
 77148  1  0  0  0
 77149  1  0  0  0
 77150  1  0  0  0
 78151  1  0  0  0
 78152  1  0  0  0
 78153  1  0  0  0
 78 82  1  0  0  0
 79 82  1  0  0  0
 79154  1  0  0  0
 79155  1  0  0  0
 79156  1  0  0  0
 80 82  1  0  0  0
 80157  1  0  0  0
 80158  1  0  0  0
 81 82  1  0  0  0
 81159  1  0  0  0
 81160  1  0  0  0
 84161  1  0  0  0
M  ISO  4   1 100  68 101  81 101  84 100
M  END
> <chiral flag>
0

> <version>
0

> <s_m_source_file>
/data/baiqing/PycharmProjects/Reinvent-master-3.2/result/LINK_invent/BTK/process_docking_weight1_custom_sum_contain_oxygen_bond_distance_aromatic_linkinvent_7_9_3/rearranged_h_0017.sdf

> <i_m_source_file_index>
30

> <r_mmod_Potential_Energy-OPLS-2005>
499.972320556641

> <r_mmod_Stretch_Energy-OPLS-2005>
331.3388671875

> <r_mmod_Bend_Energy-OPLS-2005>
286.250762939453

> <r_mmod_Torsional_Energy-OPLS-2005>
230.124130249023

> <r_mmod_Improper_Torsional_Energy-OPLS-2005>
5.09344625473022

> <r_mmod_Van_der_Waal_Energy-OPLS-2005>
147.613616943359

> <r_mmod_Electrostatic_Energy-OPLS-2005>
-505.07958984375

> <r_mmod_Solvation_Energy-OPLS-2005>
-214.571426391602

> <b_mmod_Minimization_Converged-OPLS-2005>
0

> <r_mmod_RMS_Derivative-OPLS-2005>
1.05621540546417

$$$$
30
                    3D
 Structure written by MMmdl.
189197  0  0  1  0            999 V2000
  -30.7606  -14.3633   20.5925 C   0  0  0  0  0  0
  -30.4374  -12.2307   19.4362 C   0  0  0  0  0  0
  -29.5133  -12.4726   18.2254 C   0  0  0  0  0  0
  -28.0313  -12.3478   18.6355 C   0  0  0  0  0  0
  -27.6821  -13.1854   19.8945 C   0  0  2  0  0  0
  -28.7249  -12.9302   21.0133 C   0  0  0  0  0  0
  -25.2675  -13.8148   20.5667 C   0  0  0  0  0  0
  -24.1854  -13.0373   20.9192 C   0  0  0  0  0  0
  -24.6411  -11.6905   20.8770 C   0  0  0  0  0  0
  -23.9063  -10.4263   21.0451 C   0  0  0  0  0  0
  -24.3604   -9.4170   21.9215 C   0  0  0  0  0  0
  -23.6266   -8.2199   22.0757 C   0  0  0  0  0  0
  -22.4251   -8.0261   21.3556 C   0  0  0  0  0  0
  -21.9903   -9.0243   20.4655 C   0  0  0  0  0  0
  -22.7247  -10.2118   20.3085 C   0  0  0  0  0  0
  -21.6821   -6.0712   22.5282 C   0  0  0  0  0  0
  -21.3994   -6.5627   23.8214 C   0  0  0  0  0  0
  -21.3675   -5.6791   24.9185 C   0  0  0  0  0  0
  -21.6055   -4.3053   24.7253 C   0  0  0  0  0  0
  -21.8810   -3.8132   23.4371 C   0  0  0  0  0  0
  -21.9177   -4.6938   22.3421 C   0  0  0  0  0  0
  -22.7895  -13.5233   21.1838 C   0  0  0  0  0  0
  -22.1638   -4.2118   21.0995 F   0  0  0  0  0  0
  -21.5655   -3.4542   25.7769 F   0  0  0  0  0  0
  -30.0766  -13.1960   20.4788 N   0  0  0  0  0  0
  -26.3119  -12.9247   20.3464 N   0  0  0  0  0  0
  -25.9350  -11.6433   20.5866 N   0  0  0  0  0  0
  -22.0490  -12.8215   22.0413 N   0  0  0  0  0  0
  -25.4301  -15.1797   20.4036 N   0  0  0  0  0  0
  -31.8718  -14.5705   20.0957 O   0  0  0  0  0  0
  -21.6613   -6.8856   21.4244 O   0  0  0  0  0  0
  -22.3595  -14.5511   20.6693 O   0  0  0  0  0  0
  -24.6257  -31.8605   23.2143 C   0  0  0  0  0  0
  -25.9139  -32.4727   23.8380 C   0  0  1  0  0  0
  -27.1393  -27.3394   20.0601 C   0  0  0  0  0  0
  -25.5983  -33.8551   24.2304 N   0  0  0  0  0  0
  -23.4125  -30.5019   21.5557 C   0  0  2  0  0  0
  -24.8465  -28.9725   20.1024 C   0  0  0  0  0  0
  -22.7490  -29.4600   22.4888 C   0  0  0  0  0  0
  -18.0162  -28.1749   22.8267 C   0  0  0  0  0  0
  -24.1521  -36.7289   23.2609 C   0  0  0  0  0  0
  -25.9629  -30.7606   21.4201 C   0  0  0  0  0  0
  -26.0163  -29.4105   20.7364 C   0  0  0  0  0  0
  -27.1752  -28.5850   20.7410 C   0  0  0  0  0  0
  -25.9787  -26.9897   19.3556 C   0  0  0  0  0  0
  -24.8280  -27.7694   19.3979 C   0  0  0  0  0  0
  -23.6283  -29.8579   20.1608 C   0  0  0  0  0  0
  -25.4135  -36.3047   24.0303 C   0  0  1  0  0  0
  -20.5785  -28.3783   23.1215 C   0  0  2  0  0  0
  -20.6529  -26.9479   22.5380 C   0  0  0  0  0  0
  -19.5400  -26.6105   21.5437 C   0  0  0  0  0  0
  -18.1538  -26.8426   22.1283 C   0  0  0  0  0  0
  -19.1494  -28.8979   23.2897 C   0  0  0  0  0  0
  -18.9458  -30.1430   23.9189 C   0  0  0  0  0  0
  -17.6469  -30.6592   24.1047 C   0  0  0  0  0  0
  -25.9036  -34.9400   23.5067 C   0  0  0  0  0  0
  -16.5331  -29.9241   23.6616 C   0  0  0  0  0  0
  -16.7203  -28.6874   23.0197 C   0  0  0  0  0  0
  -26.4547  -31.6566   25.0741 C   0  0  0  0  0  0
  -25.3816  -31.3724   26.1473 C   0  0  0  0  0  0
  -27.0402  -30.2963   24.6267 C   0  0  0  0  0  0
  -27.6038  -32.4420   25.7459 C   0  0  0  0  0  0
  -27.5605  -37.1816   24.8469 C   0  0  0  0  0  0
  -21.4174  -29.3256   22.3765 N   0  0  0  0  0  0
  -26.4337  -37.3737   23.9391 N   0  0  0  0  0  0
  -24.6822  -31.0564   22.1167 N   0  0  0  0  0  0
  -23.4211  -28.7892   23.2749 O   0  0  0  0  0  0
  -28.1576  -26.4122   20.0913 O   0  0  0  0  0  0
  -26.5510  -34.8888   22.4569 O   0  0  0  0  0  0
  -23.5444  -32.1465   23.7477 O   0  0  0  0  0  0
  -29.1778  -18.8526   19.5288 C   0  0  0  0  0  0
  -29.8299  -16.4858   18.7538 C   0  0  0  0  0  0
  -30.0386  -17.6232   19.7240 C   0  0  2  0  0  0
  -29.4039  -16.3255   20.2098 C   0  0  2  0  0  0
  -29.7715  -19.9786   18.6946 C   0  0  0  0  0  0
  -20.4301  -22.7948   18.0976 C   0  0  0  0  0  0
  -20.5816  -21.7157   16.9823 C   0  0  0  0  0  0
  -21.7348  -23.5407   18.4834 C   0  0  0  0  0  0
  -21.1004  -20.3289   17.4567 C   0  0  0  0  0  0
  -21.9442  -23.8596   19.9791 C   0  0  0  0  0  0
  -22.4847  -20.4498   18.0784 C   0  0  0  0  0  0
  -23.4122  -24.2791   20.2498 C   0  0  0  0  0  0
  -23.3043  -19.1933   18.3753 C   0  0  0  0  0  0
  -24.3749  -23.0813   20.4634 C   0  0  0  0  0  0
  -24.6820  -19.7451   18.7276 C   0  0  0  0  0  0
  -25.7432  -23.4504   21.1001 C   0  0  0  0  0  0
  -25.7214  -18.7979   19.2782 C   0  0  0  0  0  0
  -26.8330  -24.0410   20.1357 C   0  0  0  0  0  0
  -26.9550  -19.6624   19.5482 C   0  0  0  0  0  0
  -27.7856  -25.1567   20.7695 C   0  0  0  0  0  0
  -27.9962  -18.7895   19.9921 N   0  0  0  0  0  0
  -30.0332  -15.3687   21.0729 N   0  0  0  0  0  0
  -31.4860  -12.3065   19.1456 H   0  0  0  0  0  0
  -30.3123  -11.2191   19.8196 H   0  0  0  0  0  0
  -29.7417  -11.7507   17.4402 H   0  0  0  0  0  0
  -29.7049  -13.4592   17.8028 H   0  0  0  0  0  0
  -27.8354  -11.2948   18.8345 H   0  0  0  0  0  0
  -27.3830  -12.6222   17.8027 H   0  0  0  0  0  0
  -27.7358  -14.2307   19.6020 H   0  0  0  0  0  0
  -28.6719  -11.8918   21.3369 H   0  0  0  0  0  0
  -28.5041  -13.5156   21.9043 H   0  0  0  0  0  0
  -25.2738   -9.5617   22.4819 H   0  0  0  0  0  0
  -23.9955   -7.4575   22.7468 H   0  0  0  0  0  0
  -21.0835   -8.8803   19.8955 H   0  0  0  0  0  0
  -22.3730  -10.9677   19.6212 H   0  0  0  0  0  0
  -21.1961   -7.6131   23.9714 H   0  0  0  0  0  0
  -21.1522   -6.0526   25.9093 H   0  0  0  0  0  0
  -22.0573   -2.7588   23.2900 H   0  0  0  0  0  0
  -22.4062  -11.9895   22.4858 H   0  0  0  0  0  0
  -21.1114  -13.1302   22.2574 H   0  0  0  0  0  0
  -24.6568  -15.8283   20.5057 H   0  0  0  0  0  0
  -26.2789  -15.6275   20.0792 H   0  0  0  0  0  0
  -26.7106  -32.5444   23.1029 H   0  0  0  0  0  0
  -25.0429  -33.9723   25.0650 H   0  0  0  0  0  0
  -22.7024  -31.3204   21.4187 H   0  0  0  0  0  0
  -23.3798  -35.9630   23.3341 H   0  0  0  0  0  0
  -24.3626  -36.8867   22.2022 H   0  0  0  0  0  0
  -23.7307  -37.6515   23.6593 H   0  0  0  0  0  0
  -26.1051  -31.5110   20.6492 H   0  0  0  0  0  0
  -26.8441  -30.7851   22.0550 H   0  0  0  0  0  0
  -28.0673  -28.8503   21.2930 H   0  0  0  0  0  0
  -25.9233  -26.1210   18.7301 H   0  0  0  0  0  0
  -23.9652  -27.4721   18.8199 H   0  0  0  0  0  0
  -23.7568  -30.6299   19.3995 H   0  0  0  0  0  0
  -22.7521  -29.2855   19.8482 H   0  0  0  0  0  0
  -25.1353  -36.1851   25.0808 H   0  0  0  0  0  0
  -20.9838  -28.3046   24.1324 H   0  0  0  0  0  0
  -20.5526  -26.2476   23.3660 H   0  0  0  0  0  0
  -21.6305  -26.7487   22.0971 H   0  0  0  0  0  0
  -19.5816  -25.5573   21.2727 H   0  0  0  0  0  0
  -19.7033  -27.1896   20.6375 H   0  0  0  0  0  0
  -17.4106  -26.7462   21.3326 H   0  0  0  0  0  0
  -17.9242  -26.0662   22.8549 H   0  0  0  0  0  0
  -19.7930  -30.7028   24.2856 H   0  0  0  0  0  0
  -17.5064  -31.6094   24.6050 H   0  0  0  0  0  0
  -15.5343  -30.3069   23.8202 H   0  0  0  0  0  0
  -15.8672  -28.1312   22.6588 H   0  0  0  0  0  0
  -24.5949  -30.7165   25.7728 H   0  0  0  0  0  0
  -24.9126  -32.2922   26.4968 H   0  0  0  0  0  0
  -25.8138  -30.8772   27.0184 H   0  0  0  0  0  0
  -26.2917  -29.6659   24.1410 H   0  0  0  0  0  0
  -27.4123  -29.7263   25.4803 H   0  0  0  0  0  0
  -27.8833  -30.4235   23.9464 H   0  0  0  0  0  0
  -27.2554  -33.3678   26.2065 H   0  0  0  0  0  0
  -28.3747  -32.7111   25.0230 H   0  0  0  0  0  0
  -28.0818  -31.8615   26.5356 H   0  0  0  0  0  0
  -28.2540  -38.0164   24.7437 H   0  0  0  0  0  0
  -28.1134  -36.2656   24.6356 H   0  0  0  0  0  0
  -27.2295  -37.1553   25.8862 H   0  0  0  0  0  0
  -20.9398  -29.9817   21.7721 H   0  0  0  0  0  0
  -26.0208  -38.2789   24.1453 H   0  0  0  0  0  0
  -30.7287  -16.0086   18.3752 H   0  0  0  0  0  0
  -29.0286  -16.5848   18.0224 H   0  0  0  0  0  0
  -31.0571  -17.8675   20.0186 H   0  0  0  0  0  0
  -28.3275  -16.3363   20.3552 H   0  0  0  0  0  0
  -30.8626  -19.9256   18.6633 H   0  0  0  0  0  0
  -29.5016  -20.9460   19.1188 H   0  0  0  0  0  0
  -29.4113  -19.9410   17.6631 H   0  0  0  0  0  0
  -20.0304  -22.3178   18.9899 H   0  0  0  0  0  0
  -19.6538  -23.5062   17.7875 H   0  0  0  0  0  0
  -21.2061  -22.0762   16.1616 H   0  0  0  0  0  0
  -19.6083  -21.5751   16.5029 H   0  0  0  0  0  0
  -21.8096  -24.4760   17.9342 H   0  0  0  0  0  0
  -22.6043  -22.9760   18.1648 H   0  0  0  0  0  0
  -21.1690  -19.6599   16.6012 H   0  0  0  0  0  0
  -20.4008  -19.8521   18.1410 H   0  0  0  0  0  0
  -21.6936  -23.0074   20.6160 H   0  0  0  0  0  0
  -21.2683  -24.6698   20.2492 H   0  0  0  0  0  0
  -22.4053  -21.0068   19.0177 H   0  0  0  0  0  0
  -23.0698  -21.0459   17.3761 H   0  0  0  0  0  0
  -23.4548  -24.9241   21.1306 H   0  0  0  0  0  0
  -23.7525  -24.8982   19.4181 H   0  0  0  0  0  0
  -23.3540  -18.5355   17.5036 H   0  0  0  0  0  0
  -22.9009  -18.6446   19.2288 H   0  0  0  0  0  0
  -24.5414  -22.5501   19.5276 H   0  0  0  0  0  0
  -23.8720  -22.3788   21.1384 H   0  0  0  0  0  0
  -24.5329  -20.4775   19.5135 H   0  0  0  0  0  0
  -25.0872  -20.2814   17.8657 H   0  0  0  0  0  0
  -26.1335  -22.5385   21.5608 H   0  0  0  0  0  0
  -25.5498  -24.1105   21.9439 H   0  0  0  0  0  0
  -25.9233  -17.9717   18.5851 H   0  0  0  0  0  0
  -25.3937  -18.3745   20.2316 H   0  0  0  0  0  0
  -26.3319  -24.3099   19.2133 H   0  0  0  0  0  0
  -27.4528  -23.2035   19.7846 H   0  0  0  0  0  0
  -26.7110  -20.3870   20.3252 H   0  0  0  0  0  0
  -27.2053  -20.2081   18.6367 H   0  0  0  0  0  0
  -28.7176  -24.6490   21.0306 H   0  0  0  0  0  0
  -27.3750  -25.4496   21.7365 H   0  0  0  0  0  0
  -29.3835  -15.0333   21.7727 H   0  0  0  0  0  0
  1 25  1  0  0  0
  1 30  2  0  0  0
  1 92  1  0  0  0
  2  3  1  0  0  0
  2 25  1  0  0  0
  2 93  1  0  0  0
  2 94  1  0  0  0
  3  4  1  0  0  0
  3 95  1  0  0  0
  3 96  1  0  0  0
  4  5  1  0  0  0
  4 97  1  0  0  0
  4 98  1  0  0  0
  5  6  1  0  0  0
  5 26  1  0  0  0
  5 99  1  0  0  0
  6 25  1  0  0  0
  6100  1  0  0  0
  6101  1  0  0  0
  7  8  2  0  0  0
  7 26  1  0  0  0
  7 29  1  0  0  0
  8  9  1  0  0  0
  8 22  1  0  0  0
  9 10  1  0  0  0
  9 27  2  0  0  0
 10 11  2  0  0  0
 10 15  1  0  0  0
 11 12  1  0  0  0
 11102  1  0  0  0
 12 13  2  0  0  0
 12103  1  0  0  0
 13 14  1  0  0  0
 13 31  1  0  0  0
 14 15  2  0  0  0
 14104  1  0  0  0
 15105  1  0  0  0
 16 17  2  0  0  0
 16 21  1  0  0  0
 16 31  1  0  0  0
 17 18  1  0  0  0
 17106  1  0  0  0
 18 19  2  0  0  0
 18107  1  0  0  0
 19 20  1  0  0  0
 19 24  1  0  0  0
 20 21  2  0  0  0
 20108  1  0  0  0
 21 23  1  0  0  0
 22 28  1  0  0  0
 22 32  2  0  0  0
 26 27  1  0  0  0
 28109  1  0  0  0
 28110  1  0  0  0
 29111  1  0  0  0
 29112  1  0  0  0
 33 34  1  0  0  0
 33 66  1  0  0  0
 33 70  2  0  0  0
 34 36  1  0  0  0
 34 59  1  0  0  0
 34113  1  0  0  0
 35 44  2  0  0  0
 35 45  1  0  0  0
 35 68  1  0  0  0
 36 56  1  0  0  0
 36114  1  0  0  0
 37 39  1  0  0  0
 37 47  1  0  0  0
 37 66  1  0  0  0
 37115  1  0  0  0
 38 43  2  0  0  0
 38 46  1  0  0  0
 38 47  1  0  0  0
 39 64  1  0  0  0
 39 67  2  0  0  0
 40 52  1  0  0  0
 40 53  2  0  0  0
 40 58  1  0  0  0
 41116  1  0  0  0
 41117  1  0  0  0
 41118  1  0  0  0
 41 48  1  0  0  0
 42 43  1  0  0  0
 42 66  1  0  0  0
 42119  1  0  0  0
 42120  1  0  0  0
 43 44  1  0  0  0
 44121  1  0  0  0
 45 46  2  0  0  0
 45122  1  0  0  0
 46123  1  0  0  0
 47124  1  0  0  0
 47125  1  0  0  0
 48 56  1  0  0  0
 48 65  1  0  0  0
 48126  1  0  0  0
 49 50  1  0  0  0
 49 53  1  0  0  0
 49 64  1  0  0  0
 49127  1  0  0  0
 50 51  1  0  0  0
 50128  1  0  0  0
 50129  1  0  0  0
 51 52  1  0  0  0
 51130  1  0  0  0
 51131  1  0  0  0
 52132  1  0  0  0
 52133  1  0  0  0
 53 54  1  0  0  0
 54 55  2  0  0  0
 54134  1  0  0  0
 55 57  1  0  0  0
 55135  1  0  0  0
 56 69  2  0  0  0
 57 58  2  0  0  0
 57136  1  0  0  0
 58137  1  0  0  0
 59 60  1  0  0  0
 59 61  1  0  0  0
 59 62  1  0  0  0
 60138  1  0  0  0
 60139  1  0  0  0
 60140  1  0  0  0
 61141  1  0  0  0
 61142  1  0  0  0
 61143  1  0  0  0
 62144  1  0  0  0
 62145  1  0  0  0
 62146  1  0  0  0
 63 65  1  0  0  0
 63147  1  0  0  0
 63148  1  0  0  0
 63149  1  0  0  0
 64150  1  0  0  0
 65151  1  0  0  0
 68 90  1  0  0  0
 71 75  1  0  0  0
 71 91  2  0  0  0
 71 73  1  0  0  0
 72 73  1  0  0  0
 72 74  1  0  0  0
 72152  1  0  0  0
 72153  1  0  0  0
 73 74  1  0  0  0
 73154  1  0  0  0
 74 92  1  0  0  0
 74155  1  0  0  0
 75156  1  0  0  0
 75157  1  0  0  0
 75158  1  0  0  0
 76 77  1  0  0  0
 76 78  1  0  0  0
 76159  1  0  0  0
 76160  1  0  0  0
 77 79  1  0  0  0
 77161  1  0  0  0
 77162  1  0  0  0
 78 80  1  0  0  0
 78163  1  0  0  0
 78164  1  0  0  0
 79 81  1  0  0  0
 79165  1  0  0  0
 79166  1  0  0  0
 80 82  1  0  0  0
 80167  1  0  0  0
 80168  1  0  0  0
 81 83  1  0  0  0
 81169  1  0  0  0
 81170  1  0  0  0
 82 84  1  0  0  0
 82171  1  0  0  0
 82172  1  0  0  0
 83 85  1  0  0  0
 83173  1  0  0  0
 83174  1  0  0  0
 84 86  1  0  0  0
 84175  1  0  0  0
 84176  1  0  0  0
 85 87  1  0  0  0
 85177  1  0  0  0
 85178  1  0  0  0
 86 88  1  0  0  0
 86179  1  0  0  0
 86180  1  0  0  0
 87 89  1  0  0  0
 87181  1  0  0  0
 87182  1  0  0  0
 88 90  1  0  0  0
 88183  1  0  0  0
 88184  1  0  0  0
 89 91  1  0  0  0
 89185  1  0  0  0
 89186  1  0  0  0
 90187  1  0  0  0
 90188  1  0  0  0
 92189  1  0  0  0
M  ISO  4   1 100  68 101  90 101  92 100
M  END
> <chiral flag>
0

> <version>
0

> <s_m_source_file>
/data/baiqing/PycharmProjects/Reinvent-master-3.2/result/LINK_invent/BTK/process_docking_weight1_custom_sum_contain_oxygen_bond_distance_aromatic_linkinvent_7_9_3/rearranged_h_0017.sdf

> <i_m_source_file_index>
31

> <r_mmod_Potential_Energy-OPLS-2005>
284.838043212891

> <r_mmod_Stretch_Energy-OPLS-2005>
50.2556228637695

> <r_mmod_Bend_Energy-OPLS-2005>
175.021331787109

> <r_mmod_Torsional_Energy-OPLS-2005>
406.407043457031

> <r_mmod_Improper_Torsional_Energy-OPLS-2005>
11.1830739974976

> <r_mmod_Van_der_Waal_Energy-OPLS-2005>
144.827423095703

> <r_mmod_Electrostatic_Energy-OPLS-2005>
-354.085021972656

> <r_mmod_Solvation_Energy-OPLS-2005>
-195.139541625977

> <b_mmod_Minimization_Converged-OPLS-2005>
0

> <r_mmod_RMS_Derivative-OPLS-2005>
12.2542905807495

$$$$
31
                    3D
 Structure written by MMmdl.
164172  0  0  1  0            999 V2000
  -30.6111  -14.7321   20.4736 C   0  0  0  0  0  0
  -30.4415  -12.4551   19.4511 C   0  0  0  0  0  0
  -29.5061  -12.5112   18.2232 C   0  0  0  0  0  0
  -28.0340  -12.3314   18.6450 C   0  0  0  0  0  0
  -27.6436  -13.2278   19.8507 C   0  0  2  0  0  0
  -28.6957  -13.1487   20.9790 C   0  0  0  0  0  0
  -25.2527  -13.8187   20.5711 C   0  0  0  0  0  0
  -24.1814  -13.0432   20.9225 C   0  0  0  0  0  0
  -24.6404  -11.6907   20.8756 C   0  0  0  0  0  0
  -23.9073  -10.4286   21.0411 C   0  0  0  0  0  0
  -24.3616   -9.4200   21.9196 C   0  0  0  0  0  0
  -23.6294   -8.2233   22.0752 C   0  0  0  0  0  0
  -22.4276   -8.0274   21.3544 C   0  0  0  0  0  0
  -21.9917   -9.0245   20.4638 C   0  0  0  0  0  0
  -22.7245  -10.2129   20.3054 C   0  0  0  0  0  0
  -21.6851   -6.0736   22.5281 C   0  0  0  0  0  0
  -21.4004   -6.5636   23.8214 C   0  0  0  0  0  0
  -21.3657   -5.6793   24.9174 C   0  0  0  0  0  0
  -21.6048   -4.3059   24.7229 C   0  0  0  0  0  0
  -21.8818   -3.8149   23.4350 C   0  0  0  0  0  0
  -21.9189   -4.6961   22.3404 C   0  0  0  0  0  0
  -22.7828  -13.5211   21.1870 C   0  0  0  0  0  0
  -22.1662   -4.2146   21.0985 F   0  0  0  0  0  0
  -21.5629   -3.4542   25.7741 F   0  0  0  0  0  0
  -29.9926  -13.5064   20.3881 N   0  0  0  0  0  0
  -26.2959  -12.9388   20.3304 N   0  0  0  0  0  0
  -25.9340  -11.6534   20.5771 N   0  0  0  0  0  0
  -22.0467  -12.8187   22.0410 N   0  0  0  0  0  0
  -25.4190  -15.1915   20.4101 N   0  0  0  0  0  0
  -31.8065  -14.8490   20.1935 O   0  0  0  0  0  0
  -21.6642   -6.8878   21.4241 O   0  0  0  0  0  0
  -22.3521  -14.5532   20.6735 O   0  0  0  0  0  0
  -24.6327  -31.8554   23.2003 C   0  0  0  0  0  0
  -25.9147  -32.4751   23.8354 C   0  0  1  0  0  0
  -27.2136  -27.2523   20.1163 C   0  0  0  0  0  0
  -25.5937  -33.8558   24.2259 N   0  0  0  0  0  0
  -23.4280  -30.4813   21.5450 C   0  0  2  0  0  0
  -24.8728  -28.9299   20.1121 C   0  0  0  0  0  0
  -22.7503  -29.4597   22.4908 C   0  0  0  0  0  0
  -18.0281  -28.1352   22.8487 C   0  0  0  0  0  0
  -24.1487  -36.7265   23.2647 C   0  0  0  0  0  0
  -25.9776  -30.7635   21.3811 C   0  0  0  0  0  0
  -26.0481  -29.3867   20.7197 C   0  0  0  0  0  0
  -27.2221  -28.5631   20.7087 C   0  0  0  0  0  0
  -26.0086  -26.8699   19.4803 C   0  0  0  0  0  0
  -24.8584  -27.6793   19.4832 C   0  0  0  0  0  0
  -23.6469  -29.8216   20.1599 C   0  0  0  0  0  0
  -25.4116  -36.3063   24.0330 C   0  0  1  0  0  0
  -20.5891  -28.3667   23.1260 C   0  0  2  0  0  0
  -20.6756  -26.9375   22.5403 C   0  0  0  0  0  0
  -19.5752  -26.6360   21.5188 C   0  0  0  0  0  0
  -18.1926  -26.7894   22.1602 C   0  0  0  0  0  0
  -19.1537  -28.8820   23.2878 C   0  0  0  0  0  0
  -18.9475  -30.1422   23.8900 C   0  0  0  0  0  0
  -17.6479  -30.6561   24.0551 C   0  0  0  0  0  0
  -25.9065  -34.9433   23.5092 C   0  0  0  0  0  0
  -16.5369  -29.9057   23.6325 C   0  0  0  0  0  0
  -16.7262  -28.6465   23.0359 C   0  0  0  0  0  0
  -26.4502  -31.6585   25.0750 C   0  0  0  0  0  0
  -25.3715  -31.3721   26.1472 C   0  0  0  0  0  0
  -27.0360  -30.3013   24.6231 C   0  0  0  0  0  0
  -27.6055  -32.4333   25.7522 C   0  0  0  0  0  0
  -27.5568  -37.1803   24.8465 C   0  0  0  0  0  0
  -21.4200  -29.3050   22.3677 N   0  0  0  0  0  0
  -26.4270  -37.3777   23.9424 N   0  0  0  0  0  0
  -24.6987  -31.0508   22.0985 N   0  0  0  0  0  0
  -23.4197  -28.8102   23.2984 O   0  0  0  0  0  0
  -28.3054  -26.3461   20.1579 O   0  0  0  0  0  0
  -26.5637  -34.8900   22.4670 O   0  0  0  0  0  0
  -23.5469  -32.1386   23.7285 O   0  0  0  0  0  0
  -30.7486  -18.8093   22.7957 C   0  0  0  0  0  0
  -30.0738  -17.2439   21.0048 C   0  0  0  0  0  0
  -29.8654  -19.7916   20.6966 C   0  0  0  0  0  0
  -30.5801  -17.4839   22.3080 C   0  0  0  0  0  0
  -30.4117  -19.9335   21.9992 C   0  0  0  0  0  0
  -29.6953  -18.4154   20.2261 C   0  0  0  0  0  0
  -31.2959  -19.0646   24.2005 C   0  0  0  0  0  0
  -32.6354  -22.1964   17.8485 C   0  0  0  0  0  0
  -31.8440  -21.7651   19.0891 C   0  0  0  0  0  0
  -29.1390  -23.6994   20.1795 C   0  0  0  0  0  0
  -30.4733  -21.1603   18.7376 C   0  0  0  0  0  0
  -28.6694  -22.1413   20.2653 C   0  0  0  0  0  0
  -28.0142  -24.8633   20.1455 C   0  0  0  0  0  0
  -29.7943  -15.8425   20.5967 N   0  0  0  0  0  0
  -29.6229  -21.0046   19.9176 N   0  0  0  0  0  0
  -30.9294  -16.1401   23.3532 Cl  0  0  0  0  0  0
  -30.7306  -21.5204   22.6350 Cl  0  0  0  0  0  0
  -28.9747  -18.1369   18.6761 Cl  0  0  0  0  0  0
  -31.4785  -12.5990   19.1417 H   0  0  0  0  0  0
  -30.4029  -11.4752   19.9282 H   0  0  0  0  0  0
  -29.7851  -11.7440   17.5001 H   0  0  0  0  0  0
  -29.6257  -13.4691   17.7139 H   0  0  0  0  0  0
  -27.8927  -11.2821   18.9054 H   0  0  0  0  0  0
  -27.3719  -12.5267   17.8003 H   0  0  0  0  0  0
  -27.6376  -14.2504   19.4741 H   0  0  0  0  0  0
  -28.7353  -12.1460   21.4066 H   0  0  0  0  0  0
  -28.4404  -13.8207   21.8009 H   0  0  0  0  0  0
  -25.2756   -9.5682   22.4778 H   0  0  0  0  0  0
  -24.0000   -7.4626   22.7471 H   0  0  0  0  0  0
  -21.0854   -8.8766   19.8942 H   0  0  0  0  0  0
  -22.3712  -10.9665   19.6159 H   0  0  0  0  0  0
  -21.1991   -7.6140   23.9716 H   0  0  0  0  0  0
  -21.1482   -6.0524   25.9081 H   0  0  0  0  0  0
  -22.0600   -2.7603   23.2856 H   0  0  0  0  0  0
  -22.4075  -11.9826   22.4767 H   0  0  0  0  0  0
  -21.1074  -13.1194   22.2594 H   0  0  0  0  0  0
  -24.6417  -15.8360   20.5073 H   0  0  0  0  0  0
  -26.2509  -15.6337   20.0433 H   0  0  0  0  0  0
  -26.7215  -32.5379   23.1088 H   0  0  0  0  0  0
  -25.0122  -33.9739   25.0423 H   0  0  0  0  0  0
  -22.7255  -31.3056   21.4009 H   0  0  0  0  0  0
  -23.3770  -35.9579   23.3283 H   0  0  0  0  0  0
  -24.3575  -36.8903   22.2066 H   0  0  0  0  0  0
  -23.7212  -37.6449   23.6684 H   0  0  0  0  0  0
  -26.1210  -31.5227   20.6104 H   0  0  0  0  0  0
  -26.8542  -30.8101   22.0155 H   0  0  0  0  0  0
  -28.1201  -28.9054   21.2019 H   0  0  0  0  0  0
  -25.9074  -25.9247   18.9721 H   0  0  0  0  0  0
  -23.9566  -27.3279   19.0001 H   0  0  0  0  0  0
  -23.7768  -30.6035   19.4106 H   0  0  0  0  0  0
  -22.7633  -29.2632   19.8467 H   0  0  0  0  0  0
  -25.1283  -36.1910   25.0817 H   0  0  0  0  0  0
  -21.0002  -28.3212   24.1370 H   0  0  0  0  0  0
  -20.5617  -26.2261   23.3598 H   0  0  0  0  0  0
  -21.6623  -26.7352   22.1226 H   0  0  0  0  0  0
  -19.6916  -25.6276   21.1195 H   0  0  0  0  0  0
  -19.6693  -27.3191   20.6734 H   0  0  0  0  0  0
  -17.4203  -26.6673   21.3993 H   0  0  0  0  0  0
  -18.0308  -25.9987   22.8945 H   0  0  0  0  0  0
  -19.7961  -30.7223   24.2273 H   0  0  0  0  0  0
  -17.5036  -31.6239   24.5156 H   0  0  0  0  0  0
  -15.5380  -30.2973   23.7635 H   0  0  0  0  0  0
  -15.8652  -28.0780   22.7103 H   0  0  0  0  0  0
  -24.5939  -30.7000   25.7804 H   0  0  0  0  0  0
  -24.8859  -32.2883   26.4865 H   0  0  0  0  0  0
  -25.8043  -30.8952   27.0277 H   0  0  0  0  0  0
  -26.2951  -29.6769   24.1232 H   0  0  0  0  0  0
  -27.4031  -29.7266   25.4744 H   0  0  0  0  0  0
  -27.8812  -30.4310   23.9468 H   0  0  0  0  0  0
  -27.2695  -33.3703   26.1985 H   0  0  0  0  0  0
  -28.3927  -32.6782   25.0371 H   0  0  0  0  0  0
  -28.0640  -31.8520   26.5539 H   0  0  0  0  0  0
  -28.2570  -38.0115   24.7510 H   0  0  0  0  0  0
  -28.1067  -36.2642   24.6262 H   0  0  0  0  0  0
  -27.2286  -37.1393   25.8866 H   0  0  0  0  0  0
  -20.9360  -29.8832   21.6949 H   0  0  0  0  0  0
  -26.0130  -38.2837   24.1458 H   0  0  0  0  0  0
  -31.4041  -18.1768   24.8200 H   0  0  0  0  0  0
  -30.6305  -19.7376   24.7424 H   0  0  0  0  0  0
  -32.2741  -19.5427   24.1402 H   0  0  0  0  0  0
  -33.5912  -22.6409   18.1317 H   0  0  0  0  0  0
  -32.0876  -22.9406   17.2696 H   0  0  0  0  0  0
  -32.8408  -21.3507   17.1927 H   0  0  0  0  0  0
  -31.7231  -22.6309   19.7392 H   0  0  0  0  0  0
  -32.4290  -21.0423   19.6591 H   0  0  0  0  0  0
  -29.7276  -23.8304   19.2740 H   0  0  0  0  0  0
  -29.8234  -23.8951   21.0056 H   0  0  0  0  0  0
  -30.6247  -20.2125   18.2206 H   0  0  0  0  0  0
  -29.9615  -21.8035   18.0210 H   0  0  0  0  0  0
  -27.8225  -22.0257   19.5879 H   0  0  0  0  0  0
  -28.2563  -21.9566   21.2585 H   0  0  0  0  0  0
  -27.3313  -24.6722   20.9753 H   0  0  0  0  0  0
  -27.4577  -24.6338   19.2380 H   0  0  0  0  0  0
  -28.8134  -15.6267   20.5345 H   0  0  0  0  0  0
  1 25  1  0  0  0
  1 30  2  0  0  0
  1 84  1  0  0  0
  2  3  1  0  0  0
  2 25  1  0  0  0
  2 89  1  0  0  0
  2 90  1  0  0  0
  3  4  1  0  0  0
  3 91  1  0  0  0
  3 92  1  0  0  0
  4  5  1  0  0  0
  4 93  1  0  0  0
  4 94  1  0  0  0
  5  6  1  0  0  0
  5 26  1  0  0  0
  5 95  1  0  0  0
  6 25  1  0  0  0
  6 96  1  0  0  0
  6 97  1  0  0  0
  7  8  2  0  0  0
  7 26  1  0  0  0
  7 29  1  0  0  0
  8  9  1  0  0  0
  8 22  1  0  0  0
  9 10  1  0  0  0
  9 27  2  0  0  0
 10 11  2  0  0  0
 10 15  1  0  0  0
 11 12  1  0  0  0
 11 98  1  0  0  0
 12 13  2  0  0  0
 12 99  1  0  0  0
 13 14  1  0  0  0
 13 31  1  0  0  0
 14 15  2  0  0  0
 14100  1  0  0  0
 15101  1  0  0  0
 16 17  2  0  0  0
 16 21  1  0  0  0
 16 31  1  0  0  0
 17 18  1  0  0  0
 17102  1  0  0  0
 18 19  2  0  0  0
 18103  1  0  0  0
 19 20  1  0  0  0
 19 24  1  0  0  0
 20 21  2  0  0  0
 20104  1  0  0  0
 21 23  1  0  0  0
 22 28  1  0  0  0
 22 32  2  0  0  0
 26 27  1  0  0  0
 28105  1  0  0  0
 28106  1  0  0  0
 29107  1  0  0  0
 29108  1  0  0  0
 33 34  1  0  0  0
 33 66  1  0  0  0
 33 70  2  0  0  0
 34 36  1  0  0  0
 34 59  1  0  0  0
 34109  1  0  0  0
 35 44  2  0  0  0
 35 45  1  0  0  0
 35 68  1  0  0  0
 36 56  1  0  0  0
 36110  1  0  0  0
 37 39  1  0  0  0
 37 47  1  0  0  0
 37 66  1  0  0  0
 37111  1  0  0  0
 38 43  2  0  0  0
 38 46  1  0  0  0
 38 47  1  0  0  0
 39 64  1  0  0  0
 39 67  2  0  0  0
 40 52  1  0  0  0
 40 53  2  0  0  0
 40 58  1  0  0  0
 41112  1  0  0  0
 41113  1  0  0  0
 41114  1  0  0  0
 41 48  1  0  0  0
 42 43  1  0  0  0
 42 66  1  0  0  0
 42115  1  0  0  0
 42116  1  0  0  0
 43 44  1  0  0  0
 44117  1  0  0  0
 45 46  2  0  0  0
 45118  1  0  0  0
 46119  1  0  0  0
 47120  1  0  0  0
 47121  1  0  0  0
 48 56  1  0  0  0
 48 65  1  0  0  0
 48122  1  0  0  0
 49 50  1  0  0  0
 49 53  1  0  0  0
 49 64  1  0  0  0
 49123  1  0  0  0
 50 51  1  0  0  0
 50124  1  0  0  0
 50125  1  0  0  0
 51 52  1  0  0  0
 51126  1  0  0  0
 51127  1  0  0  0
 52128  1  0  0  0
 52129  1  0  0  0
 53 54  1  0  0  0
 54 55  2  0  0  0
 54130  1  0  0  0
 55 57  1  0  0  0
 55131  1  0  0  0
 56 69  2  0  0  0
 57 58  2  0  0  0
 57132  1  0  0  0
 58133  1  0  0  0
 59 60  1  0  0  0
 59 61  1  0  0  0
 59 62  1  0  0  0
 60134  1  0  0  0
 60135  1  0  0  0
 60136  1  0  0  0
 61137  1  0  0  0
 61138  1  0  0  0
 61139  1  0  0  0
 62140  1  0  0  0
 62141  1  0  0  0
 62142  1  0  0  0
 63 65  1  0  0  0
 63143  1  0  0  0
 63144  1  0  0  0
 63145  1  0  0  0
 64146  1  0  0  0
 65147  1  0  0  0
 68 83  1  0  0  0
 71 74  2  0  0  0
 71 75  1  0  0  0
 71 77  1  0  0  0
 72 74  1  0  0  0
 72 76  2  0  0  0
 72 84  1  0  0  0
 73 75  2  0  0  0
 73 76  1  0  0  0
 73 85  1  0  0  0
 74 86  1  0  0  0
 75 87  1  0  0  0
 76 88  1  0  0  0
 77148  1  0  0  0
 77149  1  0  0  0
 77150  1  0  0  0
 78 79  1  0  0  0
 78151  1  0  0  0
 78152  1  0  0  0
 78153  1  0  0  0
 79 81  1  0  0  0
 79154  1  0  0  0
 79155  1  0  0  0
 80 82  1  0  0  0
 80 83  1  0  0  0
 80156  1  0  0  0
 80157  1  0  0  0
 81 85  1  0  0  0
 81158  1  0  0  0
 81159  1  0  0  0
 82 85  1  0  0  0
 82160  1  0  0  0
 82161  1  0  0  0
 83162  1  0  0  0
 83163  1  0  0  0
 84164  1  0  0  0
M  ISO  4   1 100  68 101  83 101  84 100
M  END
> <chiral flag>
0

> <version>
0

> <s_m_source_file>
/data/baiqing/PycharmProjects/Reinvent-master-3.2/result/LINK_invent/BTK/process_docking_weight1_custom_sum_contain_oxygen_bond_distance_aromatic_linkinvent_7_9_3/rearranged_h_0017.sdf

> <i_m_source_file_index>
32

> <r_mmod_Potential_Energy-OPLS-2005>
242.610855102539

> <r_mmod_Stretch_Energy-OPLS-2005>
131.058090209961

> <r_mmod_Bend_Energy-OPLS-2005>
172.955780029297

> <r_mmod_Torsional_Energy-OPLS-2005>
270.649291992188

> <r_mmod_Improper_Torsional_Energy-OPLS-2005>
8.25489330291748

> <r_mmod_Van_der_Waal_Energy-OPLS-2005>
146.4755859375

> <r_mmod_Electrostatic_Energy-OPLS-2005>
-368.017425537109

> <r_mmod_Solvation_Energy-OPLS-2005>
-204.550903320312

> <b_mmod_Minimization_Converged-OPLS-2005>
0

> <r_mmod_RMS_Derivative-OPLS-2005>
2.44403052330017

$$$$
32
                    3D
 Structure written by MMmdl.
176185  0  0  1  0            999 V2000
  -30.7542  -14.3730   20.4660 C   0  0  0  0  0  0
  -30.3785  -12.2216   19.4158 C   0  0  0  0  0  0
  -29.4717  -12.4674   18.1907 C   0  0  0  0  0  0
  -27.9925  -12.3649   18.5926 C   0  0  0  0  0  0
  -27.6469  -13.2104   19.8464 C   0  0  2  0  0  0
  -28.6862  -13.0454   20.9799 C   0  0  0  0  0  0
  -25.2518  -13.8180   20.5585 C   0  0  0  0  0  0
  -24.1797  -13.0456   20.9098 C   0  0  0  0  0  0
  -24.6370  -11.6905   20.8669 C   0  0  0  0  0  0
  -23.9042  -10.4298   21.0346 C   0  0  0  0  0  0
  -24.3628   -9.4222   21.9135 C   0  0  0  0  0  0
  -23.6320   -8.2249   22.0736 C   0  0  0  0  0  0
  -22.4299   -8.0263   21.3527 C   0  0  0  0  0  0
  -21.9906   -9.0229   20.4634 C   0  0  0  0  0  0
  -22.7207  -10.2109   20.3031 C   0  0  0  0  0  0
  -21.6873   -6.0704   22.5266 C   0  0  0  0  0  0
  -21.4013   -6.5614   23.8183 C   0  0  0  0  0  0
  -21.3662   -5.6781   24.9166 C   0  0  0  0  0  0
  -21.6047   -4.3039   24.7222 C   0  0  0  0  0  0
  -21.8839   -3.8118   23.4346 C   0  0  0  0  0  0
  -21.9196   -4.6931   22.3401 C   0  0  0  0  0  0
  -22.7820  -13.5203   21.1834 C   0  0  0  0  0  0
  -22.1665   -4.2115   21.0982 F   0  0  0  0  0  0
  -21.5639   -3.4547   25.7737 F   0  0  0  0  0  0
  -30.0292  -13.2325   20.4186 N   0  0  0  0  0  0
  -26.2944  -12.9369   20.3208 N   0  0  0  0  0  0
  -25.9282  -11.6519   20.5654 N   0  0  0  0  0  0
  -22.0540  -12.8186   22.0417 N   0  0  0  0  0  0
  -25.4266  -15.1914   20.3998 N   0  0  0  0  0  0
  -31.9658  -14.4333   20.2597 O   0  0  0  0  0  0
  -21.6648   -6.8862   21.4233 O   0  0  0  0  0  0
  -22.3445  -14.5509   20.6684 O   0  0  0  0  0  0
  -24.5964  -31.8798   23.2196 C   0  0  0  0  0  0
  -25.8930  -32.4889   23.8449 C   0  0  1  0  0  0
  -27.2283  -27.5461   20.0656 C   0  0  0  0  0  0
  -25.5830  -33.8680   24.2407 N   0  0  0  0  0  0
  -23.3764  -30.5027   21.5563 C   0  0  2  0  0  0
  -24.8276  -28.9905   20.1003 C   0  0  0  0  0  0
  -22.7291  -29.4660   22.4995 C   0  0  0  0  0  0
  -18.0241  -28.1344   22.8515 C   0  0  0  0  0  0
  -24.1502  -36.7314   23.2642 C   0  0  0  0  0  0
  -25.8913  -30.8763   21.3661 C   0  0  0  0  0  0
  -25.9703  -29.5176   20.7132 C   0  0  0  0  0  0
  -27.1720  -28.7961   20.7094 C   0  0  0  0  0  0
  -26.0897  -27.0171   19.4298 C   0  0  0  0  0  0
  -24.8766  -27.7346   19.4628 C   0  0  0  0  0  0
  -23.5789  -29.8404   20.1648 C   0  0  0  0  0  0
  -25.4123  -36.3151   24.0372 C   0  0  1  0  0  0
  -20.5810  -28.3608   23.1376 C   0  0  2  0  0  0
  -20.6748  -26.9361   22.5442 C   0  0  0  0  0  0
  -19.5725  -26.6378   21.5223 C   0  0  0  0  0  0
  -18.1897  -26.7906   22.1632 C   0  0  0  0  0  0
  -19.1493  -28.8786   23.2953 C   0  0  0  0  0  0
  -18.9428  -30.1392   23.8951 C   0  0  0  0  0  0
  -17.6441  -30.6569   24.0550 C   0  0  0  0  0  0
  -25.9022  -34.9509   23.5193 C   0  0  0  0  0  0
  -16.5323  -29.9081   23.6297 C   0  0  0  0  0  0
  -16.7241  -28.6478   23.0353 C   0  0  0  0  0  0
  -26.4424  -31.6589   25.0691 C   0  0  0  0  0  0
  -25.3718  -31.3611   26.1441 C   0  0  0  0  0  0
  -27.0282  -30.3078   24.5954 C   0  0  0  0  0  0
  -27.6041  -32.4285   25.7387 C   0  0  0  0  0  0
  -27.5603  -37.1815   24.8476 C   0  0  0  0  0  0
  -21.4023  -29.3018   22.3793 N   0  0  0  0  0  0
  -26.4329  -37.3820   23.9397 N   0  0  0  0  0  0
  -24.6362  -31.0993   22.1064 N   0  0  0  0  0  0
  -23.4157  -28.8165   23.2950 O   0  0  0  0  0  0
  -28.3922  -26.8457   20.0684 O   0  0  0  0  0  0
  -26.5571  -34.8923   22.4752 O   0  0  0  0  0  0
  -23.5200  -32.1532   23.7646 O   0  0  0  0  0  0
  -30.9007  -16.2424   18.1685 C   0  0  0  0  0  0
  -31.1217  -18.6077   17.7028 C   0  0  0  0  0  0
  -31.3018  -17.2786   17.3011 C   0  0  0  0  0  0
  -30.2331  -17.8777   19.8697 C   0  0  0  0  0  0
  -30.3761  -16.5333   19.4609 C   0  0  0  0  0  0
  -30.5827  -18.9054   18.9724 C   0  0  0  0  0  0
  -30.7557  -22.9975   19.7214 C   0  0  0  0  0  0
  -28.5064  -21.9362   20.3942 C   0  0  0  0  0  0
  -30.4649  -24.1909   20.6247 C   0  0  0  0  0  0
  -28.9790  -22.5344   21.7398 C   0  0  0  0  0  0
  -29.4661  -22.3012   19.2311 C   0  0  2  0  0  0
  -31.9639  -17.0085   15.9637 C   0  0  0  0  0  0
  -29.7391  -18.2337   21.2711 C   0  0  0  0  0  0
  -27.0135  -24.6928   22.3033 C   0  0  0  0  0  0
  -29.8384  -21.0693   18.4182 C   0  0  0  0  0  0
  -28.6857  -26.3513   21.3605 C   0  0  0  0  0  0
  -28.2096  -24.8831   21.3428 C   0  0  2  0  0  0
  -30.0218  -15.4767   20.3465 N   0  0  0  0  0  0
  -29.3546  -23.9674   21.6048 N   0  3  2  0  0  0
  -30.4327  -20.1987   19.3689 O   0  0  0  0  0  0
  -31.4331  -12.2530   19.1308 H   0  0  0  0  0  0
  -30.2100  -11.2265   19.8226 H   0  0  0  0  0  0
  -29.6978  -11.7515   17.4001 H   0  0  0  0  0  0
  -29.6565  -13.4492   17.7610 H   0  0  0  0  0  0
  -27.7586  -11.3119   18.7511 H   0  0  0  0  0  0
  -27.3655  -12.6835   17.7575 H   0  0  0  0  0  0
  -27.6722  -14.2501   19.5121 H   0  0  0  0  0  0
  -28.6083  -12.0601   21.4389 H   0  0  0  0  0  0
  -28.4995  -13.7685   21.7747 H   0  0  0  0  0  0
  -25.2828   -9.5663   22.4624 H   0  0  0  0  0  0
  -24.0042   -7.4631   22.7445 H   0  0  0  0  0  0
  -21.0836   -8.8714   19.8934 H   0  0  0  0  0  0
  -22.3687  -10.9604   19.6079 H   0  0  0  0  0  0
  -21.2008   -7.6141   23.9680 H   0  0  0  0  0  0
  -21.1460   -6.0522   25.9061 H   0  0  0  0  0  0
  -22.0619   -2.7590   23.2865 H   0  0  0  0  0  0
  -22.4328  -11.9873   22.4734 H   0  0  0  0  0  0
  -21.1130  -13.1026   22.2696 H   0  0  0  0  0  0
  -24.6616  -15.8511   20.4947 H   0  0  0  0  0  0
  -26.2891  -15.6209   20.0898 H   0  0  0  0  0  0
  -26.6958  -32.5694   23.1185 H   0  0  0  0  0  0
  -25.0011  -33.9892   25.0563 H   0  0  0  0  0  0
  -22.6591  -31.3160   21.4296 H   0  0  0  0  0  0
  -23.3786  -35.9627   23.3323 H   0  0  0  0  0  0
  -24.3581  -36.8895   22.2046 H   0  0  0  0  0  0
  -23.7232  -37.6519   23.6632 H   0  0  0  0  0  0
  -26.0060  -31.6502   20.6048 H   0  0  0  0  0  0
  -26.7790  -30.9215   21.9855 H   0  0  0  0  0  0
  -28.0507  -29.1984   21.1978 H   0  0  0  0  0  0
  -26.1512  -26.0789   18.8962 H   0  0  0  0  0  0
  -23.9978  -27.3415   18.9723 H   0  0  0  0  0  0
  -23.6565  -30.6220   19.4076 H   0  0  0  0  0  0
  -22.7124  -29.2418   19.8815 H   0  0  0  0  0  0
  -25.1298  -36.2032   25.0873 H   0  0  0  0  0  0
  -20.9950  -28.3173   24.1469 H   0  0  0  0  0  0
  -20.5643  -26.2210   23.3601 H   0  0  0  0  0  0
  -21.6626  -26.7424   22.1215 H   0  0  0  0  0  0
  -19.6890  -25.6299   21.1202 H   0  0  0  0  0  0
  -19.6668  -27.3230   20.6772 H   0  0  0  0  0  0
  -17.4175  -26.6648   21.4014 H   0  0  0  0  0  0
  -18.0284  -26.0027   22.9004 H   0  0  0  0  0  0
  -19.7907  -30.7188   24.2367 H   0  0  0  0  0  0
  -17.4995  -31.6264   24.5137 H   0  0  0  0  0  0
  -15.5322  -30.3013   23.7593 H   0  0  0  0  0  0
  -15.8624  -28.0808   22.7083 H   0  0  0  0  0  0
  -24.5897  -30.6991   25.7688 H   0  0  0  0  0  0
  -24.8906  -32.2753   26.4939 H   0  0  0  0  0  0
  -25.8090  -30.8677   27.0135 H   0  0  0  0  0  0
  -26.2800  -29.6769   24.1156 H   0  0  0  0  0  0
  -27.4288  -29.7344   25.4311 H   0  0  0  0  0  0
  -27.8507  -30.4447   23.8938 H   0  0  0  0  0  0
  -27.2716  -33.3578   26.2006 H   0  0  0  0  0  0
  -28.3784  -32.6854   25.0150 H   0  0  0  0  0  0
  -28.0782  -31.8388   26.5231 H   0  0  0  0  0  0
  -28.2649  -38.0089   24.7529 H   0  0  0  0  0  0
  -28.1085  -36.2628   24.6322 H   0  0  0  0  0  0
  -27.2307  -37.1470   25.8877 H   0  0  0  0  0  0
  -20.9117  -29.8788   21.7084 H   0  0  0  0  0  0
  -26.0235  -38.2918   24.1363 H   0  0  0  0  0  0
  -31.0384  -15.2170   17.8536 H   0  0  0  0  0  0
  -31.4496  -19.4041   17.0505 H   0  0  0  0  0  0
  -31.4124  -22.3025   20.2385 H   0  0  0  0  0  0
  -31.3302  -23.3715   18.8720 H   0  0  0  0  0  0
  -27.5071  -22.2940   20.1472 H   0  0  0  0  0  0
  -28.3831  -20.8575   20.5060 H   0  0  0  0  0  0
  -30.2778  -25.0289   19.9577 H   0  0  0  0  0  0
  -31.3681  -24.4545   21.1737 H   0  0  0  0  0  0
  -29.8443  -21.9821   22.1036 H   0  0  0  0  0  0
  -28.2379  -22.3936   22.5296 H   0  0  0  0  0  0
  -28.9424  -23.0044   18.5839 H   0  0  0  0  0  0
  -32.7975  -17.6994   15.8121 H   0  0  0  0  0  0
  -31.2650  -17.1583   15.1403 H   0  0  0  0  0  0
  -32.3542  -15.9949   15.8857 H   0  0  0  0  0  0
  -30.3506  -19.0242   21.7074 H   0  0  0  0  0  0
  -29.7834  -17.3948   21.9630 H   0  0  0  0  0  0
  -28.7094  -18.5938   21.2411 H   0  0  0  0  0  0
  -26.2552  -25.4630   22.1558 H   0  0  0  0  0  0
  -27.3219  -24.7322   23.3485 H   0  0  0  0  0  0
  -26.5013  -23.7508   22.1358 H   0  0  0  0  0  0
  -30.5367  -21.3456   17.6271 H   0  0  0  0  0  0
  -28.9604  -20.6043   17.9592 H   0  0  0  0  0  0
  -29.7532  -26.4776   21.5312 H   0  0  0  0  0  0
  -28.2248  -26.9003   22.1851 H   0  0  0  0  0  0
  -27.8581  -24.6353   20.3311 H   0  0  0  0  0  0
  -29.0641  -15.4102   20.6528 H   0  0  0  0  0  0
  -29.7414  -24.2322   22.5011 H   0  0  0  0  0  0
  1 25  1  0  0  0
  1 30  2  0  0  0
  1 88  1  0  0  0
  2  3  1  0  0  0
  2 25  1  0  0  0
  2 91  1  0  0  0
  2 92  1  0  0  0
  3  4  1  0  0  0
  3 93  1  0  0  0
  3 94  1  0  0  0
  4  5  1  0  0  0
  4 95  1  0  0  0
  4 96  1  0  0  0
  5  6  1  0  0  0
  5 26  1  0  0  0
  5 97  1  0  0  0
  6 25  1  0  0  0
  6 98  1  0  0  0
  6 99  1  0  0  0
  7  8  2  0  0  0
  7 26  1  0  0  0
  7 29  1  0  0  0
  8  9  1  0  0  0
  8 22  1  0  0  0
  9 10  1  0  0  0
  9 27  2  0  0  0
 10 11  2  0  0  0
 10 15  1  0  0  0
 11 12  1  0  0  0
 11100  1  0  0  0
 12 13  2  0  0  0
 12101  1  0  0  0
 13 14  1  0  0  0
 13 31  1  0  0  0
 14 15  2  0  0  0
 14102  1  0  0  0
 15103  1  0  0  0
 16 17  2  0  0  0
 16 21  1  0  0  0
 16 31  1  0  0  0
 17 18  1  0  0  0
 17104  1  0  0  0
 18 19  2  0  0  0
 18105  1  0  0  0
 19 20  1  0  0  0
 19 24  1  0  0  0
 20 21  2  0  0  0
 20106  1  0  0  0
 21 23  1  0  0  0
 22 28  1  0  0  0
 22 32  2  0  0  0
 26 27  1  0  0  0
 28107  1  0  0  0
 28108  1  0  0  0
 29109  1  0  0  0
 29110  1  0  0  0
 33 34  1  0  0  0
 33 66  1  0  0  0
 33 70  2  0  0  0
 34 36  1  0  0  0
 34 59  1  0  0  0
 34111  1  0  0  0
 35 44  2  0  0  0
 35 45  1  0  0  0
 35 68  1  0  0  0
 36 56  1  0  0  0
 36112  1  0  0  0
 37 39  1  0  0  0
 37 47  1  0  0  0
 37 66  1  0  0  0
 37113  1  0  0  0
 38 43  2  0  0  0
 38 46  1  0  0  0
 38 47  1  0  0  0
 39 64  1  0  0  0
 39 67  2  0  0  0
 40 52  1  0  0  0
 40 53  2  0  0  0
 40 58  1  0  0  0
 41114  1  0  0  0
 41115  1  0  0  0
 41116  1  0  0  0
 41 48  1  0  0  0
 42 43  1  0  0  0
 42 66  1  0  0  0
 42117  1  0  0  0
 42118  1  0  0  0
 43 44  1  0  0  0
 44119  1  0  0  0
 45 46  2  0  0  0
 45120  1  0  0  0
 46121  1  0  0  0
 47122  1  0  0  0
 47123  1  0  0  0
 48 56  1  0  0  0
 48 65  1  0  0  0
 48124  1  0  0  0
 49 50  1  0  0  0
 49 53  1  0  0  0
 49 64  1  0  0  0
 49125  1  0  0  0
 50 51  1  0  0  0
 50126  1  0  0  0
 50127  1  0  0  0
 51 52  1  0  0  0
 51128  1  0  0  0
 51129  1  0  0  0
 52130  1  0  0  0
 52131  1  0  0  0
 53 54  1  0  0  0
 54 55  2  0  0  0
 54132  1  0  0  0
 55 57  1  0  0  0
 55133  1  0  0  0
 56 69  2  0  0  0
 57 58  2  0  0  0
 57134  1  0  0  0
 58135  1  0  0  0
 59 60  1  0  0  0
 59 61  1  0  0  0
 59 62  1  0  0  0
 60136  1  0  0  0
 60137  1  0  0  0
 60138  1  0  0  0
 61139  1  0  0  0
 61140  1  0  0  0
 61141  1  0  0  0
 62142  1  0  0  0
 62143  1  0  0  0
 62144  1  0  0  0
 63 65  1  0  0  0
 63145  1  0  0  0
 63146  1  0  0  0
 63147  1  0  0  0
 64148  1  0  0  0
 65149  1  0  0  0
 68 86  1  0  0  0
 71 73  2  0  0  0
 71 75  1  0  0  0
 71150  1  0  0  0
 72 73  1  0  0  0
 72 76  2  0  0  0
 72151  1  0  0  0
 73 82  1  0  0  0
 74 75  2  0  0  0
 74 76  1  0  0  0
 74 83  1  0  0  0
 75 88  1  0  0  0
 76 90  1  0  0  0
 77 79  1  0  0  0
 77 81  1  0  0  0
 77152  1  0  0  0
 77153  1  0  0  0
 78 80  1  0  0  0
 78 81  1  0  0  0
 78154  1  0  0  0
 78155  1  0  0  0
 79156  1  0  0  0
 79157  1  0  0  0
 79 89  1  0  0  0
 80 89  1  0  0  0
 80158  1  0  0  0
 80159  1  0  0  0
 81 85  1  0  0  0
 81160  1  0  0  0
 82161  1  0  0  0
 82162  1  0  0  0
 82163  1  0  0  0
 83164  1  0  0  0
 83165  1  0  0  0
 83166  1  0  0  0
 84167  1  0  0  0
 84168  1  0  0  0
 84169  1  0  0  0
 84 87  1  0  0  0
 85 90  1  0  0  0
 85170  1  0  0  0
 85171  1  0  0  0
 86 87  1  0  0  0
 86172  1  0  0  0
 86173  1  0  0  0
 87 89  1  0  0  0
 87174  1  0  0  0
 88175  1  0  0  0
 89176  1  0  0  0
M  CHG  1  89   1
M  ISO  4   1 100  68 101  86 101  88 100
M  END
> <chiral flag>
0

> <version>
0

> <s_m_source_file>
/data/baiqing/PycharmProjects/Reinvent-master-3.2/result/LINK_invent/BTK/process_docking_weight1_custom_sum_contain_oxygen_bond_distance_aromatic_linkinvent_7_9_3/rearranged_h_0017.sdf

> <i_m_source_file_index>
33

> <r_mmod_Potential_Energy-OPLS-2005>
74.7068557739258

> <r_mmod_Stretch_Energy-OPLS-2005>
33.4330444335938

> <r_mmod_Bend_Energy-OPLS-2005>
102.163024902344

> <r_mmod_Torsional_Energy-OPLS-2005>
374.689392089844

> <r_mmod_Improper_Torsional_Energy-OPLS-2005>
12.1967267990112

> <r_mmod_Van_der_Waal_Energy-OPLS-2005>
192.410308837891

> <r_mmod_Electrostatic_Energy-OPLS-2005>
-256.231201171875

> <r_mmod_Solvation_Energy-OPLS-2005>
-412.509185791016

> <b_mmod_Minimization_Converged-OPLS-2005>
0

> <r_mmod_RMS_Derivative-OPLS-2005>
9.61362934112549

$$$$
33
                    3D
 Structure written by MMmdl.
153161  0  0  1  0            999 V2000
  -30.4283  -15.1658   20.3870 C   0  0  0  0  0  0
  -30.4484  -12.7367   19.5173 C   0  0  0  0  0  0
  -29.5323  -12.5612   18.2791 C   0  0  0  0  0  0
  -28.0760  -12.3015   18.7054 C   0  0  0  0  0  0
  -27.6215  -13.2595   19.8349 C   0  0  2  0  0  0
  -28.6586  -13.3619   20.9734 C   0  0  0  0  0  0
  -25.2422  -13.8214   20.5716 C   0  0  0  0  0  0
  -24.1756  -13.0428   20.9243 C   0  0  0  0  0  0
  -24.6386  -11.6922   20.8761 C   0  0  0  0  0  0
  -23.9076  -10.4288   21.0410 C   0  0  0  0  0  0
  -24.3623   -9.4204   21.9188 C   0  0  0  0  0  0
  -23.6294   -8.2242   22.0758 C   0  0  0  0  0  0
  -22.4278   -8.0278   21.3545 C   0  0  0  0  0  0
  -21.9916   -9.0253   20.4649 C   0  0  0  0  0  0
  -22.7248  -10.2131   20.3058 C   0  0  0  0  0  0
  -21.6856   -6.0734   22.5279 C   0  0  0  0  0  0
  -21.4014   -6.5638   23.8211 C   0  0  0  0  0  0
  -21.3659   -5.6790   24.9173 C   0  0  0  0  0  0
  -21.6042   -4.3053   24.7226 C   0  0  0  0  0  0
  -21.8820   -3.8145   23.4345 C   0  0  0  0  0  0
  -21.9194   -4.6962   22.3401 C   0  0  0  0  0  0
  -22.7780  -13.5200   21.1899 C   0  0  0  0  0  0
  -22.1663   -4.2144   21.0980 F   0  0  0  0  0  0
  -21.5630   -3.4539   25.7739 F   0  0  0  0  0  0
  -29.9063  -13.8515   20.3670 N   0  0  0  0  0  0
  -26.2852  -12.9464   20.3247 N   0  0  0  0  0  0
  -25.9323  -11.6587   20.5746 N   0  0  0  0  0  0
  -22.0434  -12.8180   22.0455 N   0  0  0  0  0  0
  -25.4054  -15.1935   20.4114 N   0  0  0  0  0  0
  -31.6324  -15.2427   20.1044 O   0  0  0  0  0  0
  -21.6641   -6.8876   21.4240 O   0  0  0  0  0  0
  -22.3460  -14.5507   20.6748 O   0  0  0  0  0  0
  -24.6551  -31.8288   23.1732 C   0  0  0  0  0  0
  -25.9260  -32.4617   23.8174 C   0  0  1  0  0  0
  -27.2253  -26.9979   20.1750 C   0  0  0  0  0  0
  -25.5949  -33.8429   24.2088 N   0  0  0  0  0  0
  -23.4675  -30.4408   21.5209 C   0  0  2  0  0  0
  -24.9189  -28.8349   20.1124 C   0  0  0  0  0  0
  -22.7634  -29.4465   22.4797 C   0  0  0  0  0  0
  -18.0321  -28.1416   22.8470 C   0  0  0  0  0  0
  -24.1489  -36.7218   23.2651 C   0  0  0  0  0  0
  -26.0304  -30.6595   21.3900 C   0  0  0  0  0  0
  -26.1007  -29.2553   20.7351 C   0  0  0  0  0  0
  -27.2489  -28.3566   20.7405 C   0  0  0  0  0  0
  -26.0136  -26.7035   19.5148 C   0  0  0  0  0  0
  -24.8965  -27.5771   19.4844 C   0  0  0  0  0  0
  -23.7020  -29.7546   20.1471 C   0  0  0  0  0  0
  -25.4125  -36.2981   24.0308 C   0  0  1  0  0  0
  -20.5939  -28.3743   23.1215 C   0  0  2  0  0  0
  -20.6800  -26.9430   22.5411 C   0  0  0  0  0  0
  -19.5771  -26.6385   21.5224 C   0  0  0  0  0  0
  -18.1952  -26.7953   22.1626 C   0  0  0  0  0  0
  -19.1579  -28.8896   23.2834 C   0  0  0  0  0  0
  -18.9497  -30.1493   23.8856 C   0  0  0  0  0  0
  -17.6493  -30.6607   24.0560 C   0  0  0  0  0  0
  -25.9087  -34.9368   23.5017 C   0  0  0  0  0  0
  -16.5383  -29.9096   23.6351 C   0  0  0  0  0  0
  -16.7302  -28.6524   23.0356 C   0  0  0  0  0  0
  -26.4535  -31.6541   25.0678 C   0  0  0  0  0  0
  -25.3677  -31.3788   26.1348 C   0  0  0  0  0  0
  -27.0430  -30.2922   24.6356 C   0  0  0  0  0  0
  -27.6040  -32.4337   25.7470 C   0  0  0  0  0  0
  -27.5565  -37.1763   24.8472 C   0  0  0  0  0  0
  -21.4306  -29.3037   22.3555 N   0  0  0  0  0  0
  -26.4275  -37.3712   23.9412 N   0  0  0  0  0  0
  -24.7390  -31.0010   22.0829 N   0  0  0  0  0  0
  -23.4215  -28.8044   23.3019 O   0  0  0  0  0  0
  -28.2759  -25.9660   20.2427 O   0  0  0  0  0  0
  -26.5703  -34.8899   22.4612 O   0  0  0  0  0  0
  -23.5634  -32.1215   23.6868 O   0  0  0  0  0  0
  -30.2845  -18.9022   19.7456 C   0  0  0  0  0  0
  -28.2301  -20.1776   21.0843 C   0  0  0  0  0  0
  -29.0626  -21.1636   20.3988 C   0  0  0  0  0  0
  -29.5001  -17.9331   20.4842 C   0  0  0  0  0  0
  -30.0878  -20.3746   19.6972 C   0  0  0  0  0  0
  -28.4442  -18.7026   21.1263 C   0  0  0  0  0  0
  -27.0271  -20.7244   21.8452 C   0  0  0  0  0  0
  -30.4960  -23.3539   20.9195 C   0  0  0  0  0  0
  -28.1707  -24.3441   20.1348 C   0  0  0  0  0  0
  -29.0410  -22.8860   20.7043 C   0  0  1  0  0  0
  -29.5726  -16.3339   20.5807 N   0  0  0  0  0  0
  -31.2127  -21.2016   18.6808 Cl  0  0  0  0  0  0
  -27.3432  -17.7511   22.0658 Cl  0  0  0  0  0  0
  -31.4673  -12.9457   19.1885 H   0  0  0  0  0  0
  -30.5094  -11.8096   20.0894 H   0  0  0  0  0  0
  -29.8917  -11.7417   17.6552 H   0  0  0  0  0  0
  -29.5753  -13.4590   17.6612 H   0  0  0  0  0  0
  -28.0163  -11.2711   19.0579 H   0  0  0  0  0  0
  -27.4050  -12.3706   17.8483 H   0  0  0  0  0  0
  -27.5602  -14.2433   19.3689 H   0  0  0  0  0  0
  -28.8028  -12.3990   21.4668 H   0  0  0  0  0  0
  -28.3170  -14.0545   21.7438 H   0  0  0  0  0  0
  -25.2765   -9.5686   22.4768 H   0  0  0  0  0  0
  -24.0002   -7.4637   22.7479 H   0  0  0  0  0  0
  -21.0849   -8.8772   19.8952 H   0  0  0  0  0  0
  -22.3704  -10.9671   19.6171 H   0  0  0  0  0  0
  -21.2003   -7.6145   23.9712 H   0  0  0  0  0  0
  -21.1482   -6.0522   25.9075 H   0  0  0  0  0  0
  -22.0599   -2.7608   23.2849 H   0  0  0  0  0  0
  -22.4057  -11.9836   22.4821 H   0  0  0  0  0  0
  -21.1054  -13.1201   22.2674 H   0  0  0  0  0  0
  -24.6406  -15.8440   20.5503 H   0  0  0  0  0  0
  -26.2475  -15.6427   20.0783 H   0  0  0  0  0  0
  -26.7320  -32.5174   23.0885 H   0  0  0  0  0  0
  -25.0040  -33.9516   25.0202 H   0  0  0  0  0  0
  -22.7771  -31.2700   21.3521 H   0  0  0  0  0  0
  -23.3759  -35.9543   23.3298 H   0  0  0  0  0  0
  -24.3570  -36.8872   22.2070 H   0  0  0  0  0  0
  -23.7247  -37.6407   23.6712 H   0  0  0  0  0  0
  -26.1982  -31.4049   20.6117 H   0  0  0  0  0  0
  -26.8958  -30.7163   22.0393 H   0  0  0  0  0  0
  -28.1468  -28.6773   21.2499 H   0  0  0  0  0  0
  -25.9094  -25.7387   19.0389 H   0  0  0  0  0  0
  -23.9953  -27.2476   18.9861 H   0  0  0  0  0  0
  -23.8520  -30.5226   19.3876 H   0  0  0  0  0  0
  -22.8136  -29.2050   19.8317 H   0  0  0  0  0  0
  -25.1323  -36.1777   25.0801 H   0  0  0  0  0  0
  -21.0030  -28.3343   24.1340 H   0  0  0  0  0  0
  -20.5705  -26.2349   23.3641 H   0  0  0  0  0  0
  -21.6661  -26.7431   22.1199 H   0  0  0  0  0  0
  -19.6939  -25.6293   21.1269 H   0  0  0  0  0  0
  -19.6721  -27.3178   20.6744 H   0  0  0  0  0  0
  -17.4227  -26.6700   21.4027 H   0  0  0  0  0  0
  -18.0340  -26.0110   22.9031 H   0  0  0  0  0  0
  -19.7976  -30.7322   24.2196 H   0  0  0  0  0  0
  -17.5052  -31.6283   24.5166 H   0  0  0  0  0  0
  -15.5381  -30.2984   23.7716 H   0  0  0  0  0  0
  -15.8701  -28.0840   22.7076 H   0  0  0  0  0  0
  -24.5873  -30.7114   25.7664 H   0  0  0  0  0  0
  -24.8844  -32.2993   26.4640 H   0  0  0  0  0  0
  -25.7916  -30.9048   27.0208 H   0  0  0  0  0  0
  -26.3082  -29.6608   24.1347 H   0  0  0  0  0  0
  -27.3995  -29.7269   25.4977 H   0  0  0  0  0  0
  -27.9003  -30.4145   23.9729 H   0  0  0  0  0  0
  -27.2628  -33.3688   26.1918 H   0  0  0  0  0  0
  -28.3913  -32.6808   25.0338 H   0  0  0  0  0  0
  -28.0633  -31.8544   26.5488 H   0  0  0  0  0  0
  -28.2571  -38.0069   24.7498 H   0  0  0  0  0  0
  -28.1070  -36.2595   24.6313 H   0  0  0  0  0  0
  -27.2285  -37.1421   25.8877 H   0  0  0  0  0  0
  -20.9543  -29.8708   21.6679 H   0  0  0  0  0  0
  -26.0128  -38.2772   24.1419 H   0  0  0  0  0  0
  -31.0993  -18.5051   19.1593 H   0  0  0  0  0  0
  -27.2331  -20.7636   22.9147 H   0  0  0  0  0  0
  -26.1435  -20.1068   21.6856 H   0  0  0  0  0  0
  -26.7447  -21.7226   21.5118 H   0  0  0  0  0  0
  -31.0611  -22.6495   21.5300 H   0  0  0  0  0  0
  -30.5326  -24.3170   21.4293 H   0  0  0  0  0  0
  -31.0235  -23.4908   19.9777 H   0  0  0  0  0  0
  -28.8685  -24.4763   19.3082 H   0  0  0  0  0  0
  -28.2816  -24.6571   21.1727 H   0  0  0  0  0  0
  -28.6874  -22.8159   21.7334 H   0  0  0  0  0  0
  -28.6819  -15.9887   20.9076 H   0  0  0  0  0  0
  1 25  1  0  0  0
  1 30  2  0  0  0
  1 81  1  0  0  0
  2  3  1  0  0  0
  2 25  1  0  0  0
  2 84  1  0  0  0
  2 85  1  0  0  0
  3  4  1  0  0  0
  3 86  1  0  0  0
  3 87  1  0  0  0
  4  5  1  0  0  0
  4 88  1  0  0  0
  4 89  1  0  0  0
  5  6  1  0  0  0
  5 26  1  0  0  0
  5 90  1  0  0  0
  6 25  1  0  0  0
  6 91  1  0  0  0
  6 92  1  0  0  0
  7  8  2  0  0  0
  7 26  1  0  0  0
  7 29  1  0  0  0
  8  9  1  0  0  0
  8 22  1  0  0  0
  9 10  1  0  0  0
  9 27  2  0  0  0
 10 11  2  0  0  0
 10 15  1  0  0  0
 11 12  1  0  0  0
 11 93  1  0  0  0
 12 13  2  0  0  0
 12 94  1  0  0  0
 13 14  1  0  0  0
 13 31  1  0  0  0
 14 15  2  0  0  0
 14 95  1  0  0  0
 15 96  1  0  0  0
 16 17  2  0  0  0
 16 21  1  0  0  0
 16 31  1  0  0  0
 17 18  1  0  0  0
 17 97  1  0  0  0
 18 19  2  0  0  0
 18 98  1  0  0  0
 19 20  1  0  0  0
 19 24  1  0  0  0
 20 21  2  0  0  0
 20 99  1  0  0  0
 21 23  1  0  0  0
 22 28  1  0  0  0
 22 32  2  0  0  0
 26 27  1  0  0  0
 28100  1  0  0  0
 28101  1  0  0  0
 29102  1  0  0  0
 29103  1  0  0  0
 33 34  1  0  0  0
 33 66  1  0  0  0
 33 70  2  0  0  0
 34 36  1  0  0  0
 34 59  1  0  0  0
 34104  1  0  0  0
 35 44  2  0  0  0
 35 45  1  0  0  0
 35 68  1  0  0  0
 36 56  1  0  0  0
 36105  1  0  0  0
 37 39  1  0  0  0
 37 47  1  0  0  0
 37 66  1  0  0  0
 37106  1  0  0  0
 38 43  2  0  0  0
 38 46  1  0  0  0
 38 47  1  0  0  0
 39 64  1  0  0  0
 39 67  2  0  0  0
 40 52  1  0  0  0
 40 53  2  0  0  0
 40 58  1  0  0  0
 41107  1  0  0  0
 41108  1  0  0  0
 41109  1  0  0  0
 41 48  1  0  0  0
 42 43  1  0  0  0
 42 66  1  0  0  0
 42110  1  0  0  0
 42111  1  0  0  0
 43 44  1  0  0  0
 44112  1  0  0  0
 45 46  2  0  0  0
 45113  1  0  0  0
 46114  1  0  0  0
 47115  1  0  0  0
 47116  1  0  0  0
 48 56  1  0  0  0
 48 65  1  0  0  0
 48117  1  0  0  0
 49 50  1  0  0  0
 49 53  1  0  0  0
 49 64  1  0  0  0
 49118  1  0  0  0
 50 51  1  0  0  0
 50119  1  0  0  0
 50120  1  0  0  0
 51 52  1  0  0  0
 51121  1  0  0  0
 51122  1  0  0  0
 52123  1  0  0  0
 52124  1  0  0  0
 53 54  1  0  0  0
 54 55  2  0  0  0
 54125  1  0  0  0
 55 57  1  0  0  0
 55126  1  0  0  0
 56 69  2  0  0  0
 57 58  2  0  0  0
 57127  1  0  0  0
 58128  1  0  0  0
 59 60  1  0  0  0
 59 61  1  0  0  0
 59 62  1  0  0  0
 60129  1  0  0  0
 60130  1  0  0  0
 60131  1  0  0  0
 61132  1  0  0  0
 61133  1  0  0  0
 61134  1  0  0  0
 62135  1  0  0  0
 62136  1  0  0  0
 62137  1  0  0  0
 63 65  1  0  0  0
 63138  1  0  0  0
 63139  1  0  0  0
 63140  1  0  0  0
 64141  1  0  0  0
 65142  1  0  0  0
 68 79  1  0  0  0
 71 74  2  0  0  0
 71 75  1  0  0  0
 71143  1  0  0  0
 72 73  1  0  0  0
 72 76  2  0  0  0
 72 77  1  0  0  0
 73 75  2  0  0  0
 73 80  1  0  0  0
 74 76  1  0  0  0
 74 81  1  0  0  0
 75 82  1  0  0  0
 76 83  1  0  0  0
 77144  1  0  0  0
 77145  1  0  0  0
 77146  1  0  0  0
 78147  1  0  0  0
 78148  1  0  0  0
 78149  1  0  0  0
 78 80  1  0  0  0
 79 80  1  0  0  0
 79150  1  0  0  0
 79151  1  0  0  0
 80152  1  0  0  0
 81153  1  0  0  0
M  ISO  4   1 100  68 101  79 101  81 100
M  END
> <chiral flag>
0

> <version>
0

> <s_m_source_file>
/data/baiqing/PycharmProjects/Reinvent-master-3.2/result/LINK_invent/BTK/process_docking_weight1_custom_sum_contain_oxygen_bond_distance_aromatic_linkinvent_7_9_3/rearranged_h_0017.sdf

> <i_m_source_file_index>
34

> <r_mmod_Potential_Energy-OPLS-2005>
1236.66552734375

> <r_mmod_Stretch_Energy-OPLS-2005>
460.404327392578

> <r_mmod_Bend_Energy-OPLS-2005>
616.703918457031

> <r_mmod_Torsional_Energy-OPLS-2005>
239.650436401367

> <r_mmod_Improper_Torsional_Energy-OPLS-2005>
5.83678579330444

> <r_mmod_Van_der_Waal_Energy-OPLS-2005>
137.712188720703

> <r_mmod_Electrostatic_Energy-OPLS-2005>
-379.448486328125

> <r_mmod_Solvation_Energy-OPLS-2005>
-200.805282592773

> <b_mmod_Minimization_Converged-OPLS-2005>
0

> <r_mmod_RMS_Derivative-OPLS-2005>
1.33316159248352

$$$$
34
                    3D
 Structure written by MMmdl.
160168  0  0  1  0            999 V2000
  -30.6161  -14.8969   20.2533 C   0  0  0  0  0  0
  -30.4436  -12.5170   19.4840 C   0  0  0  0  0  0
  -29.5252  -12.3171   18.2606 C   0  0  0  0  0  0
  -28.0356  -12.2427   18.6650 C   0  0  0  0  0  0
  -27.6196  -13.2015   19.8124 C   0  0  2  0  0  0
  -28.6839  -13.3274   20.9170 C   0  0  0  0  0  0
  -25.2525  -13.8119   20.5751 C   0  0  0  0  0  0
  -24.1790  -13.0417   20.9248 C   0  0  0  0  0  0
  -24.6345  -11.6869   20.8821 C   0  0  0  0  0  0
  -23.9023  -10.4269   21.0468 C   0  0  0  0  0  0
  -24.3582   -9.4171   21.9228 C   0  0  0  0  0  0
  -23.6261   -8.2202   22.0772 C   0  0  0  0  0  0
  -22.4241   -8.0258   21.3553 C   0  0  0  0  0  0
  -21.9885   -9.0242   20.4654 C   0  0  0  0  0  0
  -22.7212  -10.2126   20.3096 C   0  0  0  0  0  0
  -21.6834   -6.0707   22.5277 C   0  0  0  0  0  0
  -21.3994   -6.5617   23.8207 C   0  0  0  0  0  0
  -21.3652   -5.6778   24.9176 C   0  0  0  0  0  0
  -21.6050   -4.3042   24.7230 C   0  0  0  0  0  0
  -21.8822   -3.8123   23.4355 C   0  0  0  0  0  0
  -21.9191   -4.6934   22.3405 C   0  0  0  0  0  0
  -22.7806  -13.5230   21.1857 C   0  0  0  0  0  0
  -22.1669   -4.2112   21.0978 F   0  0  0  0  0  0
  -21.5639   -3.4535   25.7748 F   0  0  0  0  0  0
  -29.9503  -13.6775   20.2629 N   0  0  0  0  0  0
  -26.2873  -12.9240   20.3281 N   0  0  0  0  0  0
  -25.9273  -11.6428   20.5862 N   0  0  0  0  0  0
  -22.0434  -12.8245   22.0402 N   0  0  0  0  0  0
  -25.4288  -15.1845   20.4170 N   0  0  0  0  0  0
  -31.8376  -14.8118   20.4024 O   0  0  0  0  0  0
  -21.6615   -6.8846   21.4239 O   0  0  0  0  0  0
  -22.3516  -14.5539   20.6662 O   0  0  0  0  0  0
  -24.6315  -31.8541   23.1969 C   0  0  0  0  0  0
  -25.9134  -32.4744   23.8332 C   0  0  1  0  0  0
  -27.2135  -27.2305   20.1497 C   0  0  0  0  0  0
  -25.5917  -33.8543   24.2251 N   0  0  0  0  0  0
  -23.4325  -30.4730   21.5440 C   0  0  2  0  0  0
  -24.8786  -28.9111   20.1183 C   0  0  0  0  0  0
  -22.7520  -29.4579   22.4946 C   0  0  0  0  0  0
  -18.0293  -28.1377   22.8511 C   0  0  0  0  0  0
  -24.1490  -36.7284   23.2646 C   0  0  0  0  0  0
  -25.9800  -30.7544   21.3835 C   0  0  0  0  0  0
  -26.0519  -29.3726   20.7308 C   0  0  0  0  0  0
  -27.2250  -28.5469   20.7297 C   0  0  0  0  0  0
  -26.0208  -26.8405   19.5059 C   0  0  0  0  0  0
  -24.8686  -27.6545   19.4921 C   0  0  0  0  0  0
  -23.6512  -29.8043   20.1629 C   0  0  0  0  0  0
  -25.4121  -36.3071   24.0324 C   0  0  1  0  0  0
  -20.5898  -28.3701   23.1284 C   0  0  2  0  0  0
  -20.6787  -26.9423   22.5421 C   0  0  0  0  0  0
  -19.5754  -26.6378   21.5231 C   0  0  0  0  0  0
  -18.1932  -26.7925   22.1637 C   0  0  0  0  0  0
  -19.1546  -28.8859   23.2890 C   0  0  0  0  0  0
  -18.9464  -30.1461   23.8899 C   0  0  0  0  0  0
  -17.6462  -30.6596   24.0550 C   0  0  0  0  0  0
  -25.9055  -34.9437   23.5101 C   0  0  0  0  0  0
  -16.5349  -29.9087   23.6332 C   0  0  0  0  0  0
  -16.7271  -28.6493   23.0377 C   0  0  0  0  0  0
  -26.4485  -31.6561   25.0739 C   0  0  0  0  0  0
  -25.3683  -31.3708   26.1452 C   0  0  0  0  0  0
  -27.0346  -30.2981   24.6232 C   0  0  0  0  0  0
  -27.6052  -32.4318   25.7495 C   0  0  0  0  0  0
  -27.5594  -37.1786   24.8458 C   0  0  0  0  0  0
  -21.4225  -29.3038   22.3674 N   0  0  0  0  0  0
  -26.4298  -37.3775   23.9406 N   0  0  0  0  0  0
  -24.7016  -31.0460   22.0975 N   0  0  0  0  0  0
  -23.4202  -28.8137   23.3071 O   0  0  0  0  0  0
  -28.2941  -26.3131   20.1680 O   0  0  0  0  0  0
  -26.5668  -34.8908   22.4696 O   0  0  0  0  0  0
  -23.5447  -32.1375   23.7219 O   0  0  0  0  0  0
  -28.5446  -18.4800   19.5798 C   0  0  0  0  0  0
  -30.1166  -19.9389   21.2869 C   0  0  0  0  0  0
  -28.2524  -19.8664   19.8187 C   0  0  0  0  0  0
  -29.6435  -17.7311   20.1407 C   0  0  0  0  0  0
  -29.0551  -20.6773   20.6670 C   0  0  0  0  0  0
  -30.4024  -18.5394   21.0508 C   0  0  0  0  0  0
  -27.0446  -20.4744   19.1237 C   0  0  0  0  0  0
  -31.3502  -16.7383   18.6471 C   0  0  0  0  0  0
  -29.0995  -15.9440   18.3627 C   0  0  0  0  0  0
  -28.6785  -22.1912   21.0847 C   0  0  0  0  0  0
  -28.7192  -23.5246   20.1389 C   0  0  0  0  0  0
  -28.0667  -24.9170   20.7119 C   0  0  0  0  0  0
  -30.1079  -16.2987   19.4858 C   0  0  0  0  0  0
  -31.7480  -17.8593   21.8932 Cl  0  0  0  0  0  0
  -31.4736  -12.6574   19.1509 H   0  0  0  0  0  0
  -30.4495  -11.6249   20.1126 H   0  0  0  0  0  0
  -29.7955  -11.3729   17.7840 H   0  0  0  0  0  0
  -29.7122  -13.0544   17.4870 H   0  0  0  0  0  0
  -27.8615  -11.2167   18.9882 H   0  0  0  0  0  0
  -27.3970  -12.3940   17.7936 H   0  0  0  0  0  0
  -27.5241  -14.1579   19.3359 H   0  0  0  0  0  0
  -28.7834  -12.4029   21.4860 H   0  0  0  0  0  0
  -28.4051  -14.1065   21.6265 H   0  0  0  0  0  0
  -25.2744   -9.5616   22.4783 H   0  0  0  0  0  0
  -23.9959   -7.4580   22.7487 H   0  0  0  0  0  0
  -21.0824   -8.8772   19.8953 H   0  0  0  0  0  0
  -22.3703  -10.9669   19.6182 H   0  0  0  0  0  0
  -21.1982   -7.6119   23.9693 H   0  0  0  0  0  0
  -21.1475   -6.0515   25.9075 H   0  0  0  0  0  0
  -22.0614   -2.7583   23.2874 H   0  0  0  0  0  0
  -22.4068  -11.9909   22.4778 H   0  0  0  0  0  0
  -21.1041  -13.1274   22.2584 H   0  0  0  0  0  0
  -24.6714  -15.8452   20.5497 H   0  0  0  0  0  0
  -26.2953  -15.6252   20.1413 H   0  0  0  0  0  0
  -26.7205  -32.5403   23.1069 H   0  0  0  0  0  0
  -25.0007  -33.9651   25.0359 H   0  0  0  0  0  0
  -22.7326  -31.2987   21.4005 H   0  0  0  0  0  0
  -23.3755  -35.9611   23.3282 H   0  0  0  0  0  0
  -24.3569  -36.8944   22.2063 H   0  0  0  0  0  0
  -23.7225  -37.6466   23.6695 H   0  0  0  0  0  0
  -26.1248  -31.5086   20.6087 H   0  0  0  0  0  0
  -26.8523  -30.8063   22.0225 H   0  0  0  0  0  0
  -28.1267  -28.8916   21.2154 H   0  0  0  0  0  0
  -25.9714  -25.8766   19.0185 H   0  0  0  0  0  0
  -23.9683  -27.3002   19.0072 H   0  0  0  0  0  0
  -23.7814  -30.5796   19.4084 H   0  0  0  0  0  0
  -22.7653  -29.2435   19.8597 H   0  0  0  0  0  0
  -25.1291  -36.1927   25.0812 H   0  0  0  0  0  0
  -20.9987  -28.3283   24.1402 H   0  0  0  0  0  0
  -20.5730  -26.2308   23.3623 H   0  0  0  0  0  0
  -21.6654  -26.7467   22.1196 H   0  0  0  0  0  0
  -19.6921  -25.6290   21.1267 H   0  0  0  0  0  0
  -19.6675  -27.3188   20.6757 H   0  0  0  0  0  0
  -17.4210  -26.6691   21.4020 H   0  0  0  0  0  0
  -18.0313  -26.0050   22.9007 H   0  0  0  0  0  0
  -19.7938  -30.7281   24.2274 H   0  0  0  0  0  0
  -17.5007  -31.6275   24.5160 H   0  0  0  0  0  0
  -15.5352  -30.2976   23.7652 H   0  0  0  0  0  0
  -15.8672  -28.0783   22.7118 H   0  0  0  0  0  0
  -24.5864  -30.7070   25.7748 H   0  0  0  0  0  0
  -24.8868  -32.2877   26.4867 H   0  0  0  0  0  0
  -25.7979  -30.8875   27.0234 H   0  0  0  0  0  0
  -26.2950  -29.6719   24.1244 H   0  0  0  0  0  0
  -27.4021  -29.7254   25.4746 H   0  0  0  0  0  0
  -27.8815  -30.4265   23.9499 H   0  0  0  0  0  0
  -27.2689  -33.3643   26.2037 H   0  0  0  0  0  0
  -28.3866  -32.6826   25.0317 H   0  0  0  0  0  0
  -28.0723  -31.8473   26.5425 H   0  0  0  0  0  0
  -28.2566  -38.0126   24.7580 H   0  0  0  0  0  0
  -28.1142  -36.2661   24.6209 H   0  0  0  0  0  0
  -27.2319  -37.1351   25.8860 H   0  0  0  0  0  0
  -20.9439  -29.8709   21.6819 H   0  0  0  0  0  0
  -26.0173  -38.2842   24.1430 H   0  0  0  0  0  0
  -27.8829  -18.0221   18.8656 H   0  0  0  0  0  0
  -30.7508  -20.4605   21.9890 H   0  0  0  0  0  0
  -26.4337  -19.7193   18.6263 H   0  0  0  0  0  0
  -27.3694  -21.1875   18.3670 H   0  0  0  0  0  0
  -26.3988  -20.9921   19.8325 H   0  0  0  0  0  0
  -32.1675  -17.0954   19.2752 H   0  0  0  0  0  0
  -31.1244  -17.5582   17.9642 H   0  0  0  0  0  0
  -31.7494  -15.9245   18.0377 H   0  0  0  0  0  0
  -29.1331  -16.6550   17.5365 H   0  0  0  0  0  0
  -28.0723  -15.9619   18.7070 H   0  0  0  0  0  0
  -29.2919  -14.9886   17.9016 H   0  0  0  0  0  0
  -29.2937  -22.4199   21.9556 H   0  0  0  0  0  0
  -27.6691  -22.1283   21.4948 H   0  0  0  0  0  0
  -28.2186  -23.2914   19.2000 H   0  0  0  0  0  0
  -29.7588  -23.7081   19.8661 H   0  0  0  0  0  0
  -28.3930  -24.9876   21.7491 H   0  0  0  0  0  0
  -26.9940  -24.7396   20.7904 H   0  0  0  0  0  0
  1 25  1  0  0  0
  1 30  2  0  0  0
  1 83  1  0  0  0
  2  3  1  0  0  0
  2 25  1  0  0  0
  2 85  1  0  0  0
  2 86  1  0  0  0
  3  4  1  0  0  0
  3 87  1  0  0  0
  3 88  1  0  0  0
  4  5  1  0  0  0
  4 89  1  0  0  0
  4 90  1  0  0  0
  5  6  1  0  0  0
  5 26  1  0  0  0
  5 91  1  0  0  0
  6 25  1  0  0  0
  6 92  1  0  0  0
  6 93  1  0  0  0
  7  8  2  0  0  0
  7 26  1  0  0  0
  7 29  1  0  0  0
  8  9  1  0  0  0
  8 22  1  0  0  0
  9 10  1  0  0  0
  9 27  2  0  0  0
 10 11  2  0  0  0
 10 15  1  0  0  0
 11 12  1  0  0  0
 11 94  1  0  0  0
 12 13  2  0  0  0
 12 95  1  0  0  0
 13 14  1  0  0  0
 13 31  1  0  0  0
 14 15  2  0  0  0
 14 96  1  0  0  0
 15 97  1  0  0  0
 16 17  2  0  0  0
 16 21  1  0  0  0
 16 31  1  0  0  0
 17 18  1  0  0  0
 17 98  1  0  0  0
 18 19  2  0  0  0
 18 99  1  0  0  0
 19 20  1  0  0  0
 19 24  1  0  0  0
 20 21  2  0  0  0
 20100  1  0  0  0
 21 23  1  0  0  0
 22 28  1  0  0  0
 22 32  2  0  0  0
 26 27  1  0  0  0
 28101  1  0  0  0
 28102  1  0  0  0
 29103  1  0  0  0
 29104  1  0  0  0
 33 34  1  0  0  0
 33 66  1  0  0  0
 33 70  2  0  0  0
 34 36  1  0  0  0
 34 59  1  0  0  0
 34105  1  0  0  0
 35 44  2  0  0  0
 35 45  1  0  0  0
 35 68  1  0  0  0
 36 56  1  0  0  0
 36106  1  0  0  0
 37 39  1  0  0  0
 37 47  1  0  0  0
 37 66  1  0  0  0
 37107  1  0  0  0
 38 43  2  0  0  0
 38 46  1  0  0  0
 38 47  1  0  0  0
 39 64  1  0  0  0
 39 67  2  0  0  0
 40 52  1  0  0  0
 40 53  2  0  0  0
 40 58  1  0  0  0
 41108  1  0  0  0
 41109  1  0  0  0
 41110  1  0  0  0
 41 48  1  0  0  0
 42 43  1  0  0  0
 42 66  1  0  0  0
 42111  1  0  0  0
 42112  1  0  0  0
 43 44  1  0  0  0
 44113  1  0  0  0
 45 46  2  0  0  0
 45114  1  0  0  0
 46115  1  0  0  0
 47116  1  0  0  0
 47117  1  0  0  0
 48 56  1  0  0  0
 48 65  1  0  0  0
 48118  1  0  0  0
 49 50  1  0  0  0
 49 53  1  0  0  0
 49 64  1  0  0  0
 49119  1  0  0  0
 50 51  1  0  0  0
 50120  1  0  0  0
 50121  1  0  0  0
 51 52  1  0  0  0
 51122  1  0  0  0
 51123  1  0  0  0
 52124  1  0  0  0
 52125  1  0  0  0
 53 54  1  0  0  0
 54 55  2  0  0  0
 54126  1  0  0  0
 55 57  1  0  0  0
 55127  1  0  0  0
 56 69  2  0  0  0
 57 58  2  0  0  0
 57128  1  0  0  0
 58129  1  0  0  0
 59 60  1  0  0  0
 59 61  1  0  0  0
 59 62  1  0  0  0
 60130  1  0  0  0
 60131  1  0  0  0
 60132  1  0  0  0
 61133  1  0  0  0
 61134  1  0  0  0
 61135  1  0  0  0
 62136  1  0  0  0
 62137  1  0  0  0
 62138  1  0  0  0
 63 65  1  0  0  0
 63139  1  0  0  0
 63140  1  0  0  0
 63141  1  0  0  0
 64142  1  0  0  0
 65143  1  0  0  0
 68 82  1  0  0  0
 71 73  2  0  0  0
 71 74  1  0  0  0
 71144  1  0  0  0
 72 75  2  0  0  0
 72 76  1  0  0  0
 72145  1  0  0  0
 73 75  1  0  0  0
 73 77  1  0  0  0
 74 76  2  0  0  0
 74 83  1  0  0  0
 75 80  1  0  0  0
 76 84  1  0  0  0
 77146  1  0  0  0
 77147  1  0  0  0
 77148  1  0  0  0
 78149  1  0  0  0
 78150  1  0  0  0
 78151  1  0  0  0
 78 83  1  0  0  0
 79 83  1  0  0  0
 79152  1  0  0  0
 79153  1  0  0  0
 79154  1  0  0  0
 80 81  1  0  0  0
 80155  1  0  0  0
 80156  1  0  0  0
 81 82  1  0  0  0
 81157  1  0  0  0
 81158  1  0  0  0
 82159  1  0  0  0
 82160  1  0  0  0
M  ISO  4   1 100  68 101  82 101  83 100
M  END
> <chiral flag>
0

> <version>
0

> <s_m_source_file>
/data/baiqing/PycharmProjects/Reinvent-master-3.2/result/LINK_invent/BTK/process_docking_weight1_custom_sum_contain_oxygen_bond_distance_aromatic_linkinvent_7_9_3/rearranged_h_0017.sdf

> <i_m_source_file_index>
35

> <r_mmod_Potential_Energy-OPLS-2005>
557.081787109375

> <r_mmod_Stretch_Energy-OPLS-2005>
176.75634765625

> <r_mmod_Bend_Energy-OPLS-2005>
257.048858642578

> <r_mmod_Torsional_Energy-OPLS-2005>
263.283630371094

> <r_mmod_Improper_Torsional_Energy-OPLS-2005>
22.4321422576904

> <r_mmod_Van_der_Waal_Energy-OPLS-2005>
162.199127197266

> <r_mmod_Electrostatic_Energy-OPLS-2005>
-310.97705078125

> <r_mmod_Solvation_Energy-OPLS-2005>
-183.002716064453

> <b_mmod_Minimization_Converged-OPLS-2005>
0

> <r_mmod_RMS_Derivative-OPLS-2005>
3.1112322807312

$$$$
35
                    3D
 Structure written by MMmdl.
156164  0  0  1  0            999 V2000
  -30.4329  -15.1809   20.3791 C   0  0  0  0  0  0
  -30.4504  -12.7484   19.5106 C   0  0  0  0  0  0
  -29.5357  -12.5669   18.2733 C   0  0  0  0  0  0
  -28.0777  -12.3066   18.6970 C   0  0  0  0  0  0
  -27.6190  -13.2639   19.8263 C   0  0  2  0  0  0
  -28.6583  -13.3796   20.9608 C   0  0  0  0  0  0
  -25.2420  -13.8226   20.5716 C   0  0  0  0  0  0
  -24.1759  -13.0431   20.9239 C   0  0  0  0  0  0
  -24.6398  -11.6923   20.8749 C   0  0  0  0  0  0
  -23.9085  -10.4290   21.0403 C   0  0  0  0  0  0
  -24.3631   -9.4206   21.9183 C   0  0  0  0  0  0
  -23.6301   -8.2243   22.0752 C   0  0  0  0  0  0
  -22.4284   -8.0281   21.3543 C   0  0  0  0  0  0
  -21.9921   -9.0255   20.4647 C   0  0  0  0  0  0
  -22.7253  -10.2132   20.3056 C   0  0  0  0  0  0
  -21.6854   -6.0735   22.5278 C   0  0  0  0  0  0
  -21.4014   -6.5637   23.8212 C   0  0  0  0  0  0
  -21.3660   -5.6788   24.9173 C   0  0  0  0  0  0
  -21.6048   -4.3051   24.7223 C   0  0  0  0  0  0
  -21.8818   -3.8144   23.4340 C   0  0  0  0  0  0
  -21.9192   -4.6962   22.3398 C   0  0  0  0  0  0
  -22.7776  -13.5195   21.1888 C   0  0  0  0  0  0
  -22.1662   -4.2147   21.0976 F   0  0  0  0  0  0
  -21.5630   -3.4535   25.7735 F   0  0  0  0  0  0
  -29.9008  -13.8701   20.3445 N   0  0  0  0  0  0
  -26.2845  -12.9482   20.3201 N   0  0  0  0  0  0
  -25.9336  -11.6598   20.5706 N   0  0  0  0  0  0
  -22.0423  -12.8192   22.0446 N   0  0  0  0  0  0
  -25.4043  -15.1962   20.4148 N   0  0  0  0  0  0
  -31.6523  -15.2410   20.1675 O   0  0  0  0  0  0
  -21.6644   -6.8881   21.4242 O   0  0  0  0  0  0
  -22.3461  -14.5495   20.6721 O   0  0  0  0  0  0
  -24.6583  -31.8283   23.1745 C   0  0  0  0  0  0
  -25.9286  -32.4610   23.8193 C   0  0  1  0  0  0
  -27.2215  -26.9792   20.1791 C   0  0  0  0  0  0
  -25.5973  -33.8421   24.2103 N   0  0  0  0  0  0
  -23.4705  -30.4411   21.5230 C   0  0  2  0  0  0
  -24.9233  -28.8352   20.1144 C   0  0  0  0  0  0
  -22.7641  -29.4464   22.4803 C   0  0  0  0  0  0
  -18.0319  -28.1406   22.8470 C   0  0  0  0  0  0
  -24.1496  -36.7216   23.2646 C   0  0  0  0  0  0
  -26.0365  -30.6518   21.3965 C   0  0  0  0  0  0
  -26.1060  -29.2464   20.7412 C   0  0  0  0  0  0
  -27.2521  -28.3395   20.7469 C   0  0  0  0  0  0
  -26.0080  -26.7042   19.5107 C   0  0  0  0  0  0
  -24.8964  -27.5832   19.4797 C   0  0  0  0  0  0
  -23.7075  -29.7576   20.1487 C   0  0  0  0  0  0
  -25.4133  -36.2978   24.0304 C   0  0  1  0  0  0
  -20.5939  -28.3745   23.1203 C   0  0  2  0  0  0
  -20.6798  -26.9433   22.5406 C   0  0  0  0  0  0
  -19.5772  -26.6379   21.5214 C   0  0  0  0  0  0
  -18.1954  -26.7942   22.1620 C   0  0  0  0  0  0
  -19.1580  -28.8896   23.2825 C   0  0  0  0  0  0
  -18.9487  -30.1485   23.8859 C   0  0  0  0  0  0
  -17.6482  -30.6596   24.0553 C   0  0  0  0  0  0
  -25.9093  -34.9359   23.5021 C   0  0  0  0  0  0
  -16.5372  -29.9081   23.6344 C   0  0  0  0  0  0
  -16.7301  -28.6502   23.0363 C   0  0  0  0  0  0
  -26.4557  -31.6538   25.0700 C   0  0  0  0  0  0
  -25.3701  -31.3767   26.1367 C   0  0  0  0  0  0
  -27.0447  -30.2913   24.6394 C   0  0  0  0  0  0
  -27.6062  -32.4336   25.7496 C   0  0  0  0  0  0
  -27.5575  -37.1763   24.8464 C   0  0  0  0  0  0
  -21.4317  -29.3040   22.3553 N   0  0  0  0  0  0
  -26.4282  -37.3711   23.9407 N   0  0  0  0  0  0
  -24.7426  -30.9993   22.0855 N   0  0  0  0  0  0
  -23.4211  -28.8035   23.3030 O   0  0  0  0  0  0
  -28.2497  -25.9162   20.2387 O   0  0  0  0  0  0
  -26.5693  -34.8887   22.4610 O   0  0  0  0  0  0
  -23.5664  -32.1230   23.6872 O   0  0  0  0  0  0
  -30.1429  -18.9269   21.2441 C   0  0  0  0  0  0
  -29.9593  -20.3995   21.2512 C   0  0  0  0  0  0
  -28.5305  -20.2429   19.4235 C   0  0  0  0  0  0
  -29.1340  -21.2019   20.3429 C   0  0  0  0  0  0
  -28.7128  -18.7547   19.4317 C   0  0  0  0  0  0
  -29.5534  -17.9659   20.3374 C   0  0  0  0  0  0
  -30.7386  -21.1447   22.3216 C   0  0  0  0  0  0
  -27.6504  -20.8467   18.3363 C   0  0  0  0  0  0
  -27.9525  -17.9565   18.3768 C   0  0  0  0  0  0
  -29.1561  -22.9490   20.2712 C   0  0  0  0  0  0
  -28.0123  -24.3017   20.2021 C   0  0  0  0  0  0
  -29.5680  -16.3641   20.4351 N   0  0  0  0  0  0
  -31.4696  -12.9589   19.1836 H   0  0  0  0  0  0
  -30.5107  -11.8260   20.0901 H   0  0  0  0  0  0
  -29.8994  -11.7502   17.6481 H   0  0  0  0  0  0
  -29.5794  -13.4669   17.6575 H   0  0  0  0  0  0
  -28.0145  -11.2748   19.0446 H   0  0  0  0  0  0
  -27.4110  -12.3807   17.8367 H   0  0  0  0  0  0
  -27.5506  -14.2447   19.3547 H   0  0  0  0  0  0
  -28.8058  -12.4238   21.4656 H   0  0  0  0  0  0
  -28.3168  -14.0821   21.7226 H   0  0  0  0  0  0
  -25.2774   -9.5685   22.4758 H   0  0  0  0  0  0
  -24.0009   -7.4635   22.7474 H   0  0  0  0  0  0
  -21.0849   -8.8779   19.8955 H   0  0  0  0  0  0
  -22.3712  -10.9672   19.6166 H   0  0  0  0  0  0
  -21.2011   -7.6146   23.9715 H   0  0  0  0  0  0
  -21.1484   -6.0518   25.9077 H   0  0  0  0  0  0
  -22.0598   -2.7606   23.2837 H   0  0  0  0  0  0
  -22.4049  -11.9874   22.4864 H   0  0  0  0  0  0
  -21.1033  -13.1215   22.2631 H   0  0  0  0  0  0
  -24.6282  -15.8393   20.5283 H   0  0  0  0  0  0
  -26.2367  -15.6430   20.0569 H   0  0  0  0  0  0
  -26.7349  -32.5168   23.0906 H   0  0  0  0  0  0
  -25.0087  -33.9507   25.0230 H   0  0  0  0  0  0
  -22.7813  -31.2713   21.3550 H   0  0  0  0  0  0
  -23.3771  -35.9534   23.3277 H   0  0  0  0  0  0
  -24.3580  -36.8889   22.2068 H   0  0  0  0  0  0
  -23.7242  -37.6392   23.6718 H   0  0  0  0  0  0
  -26.2090  -31.3962   20.6181 H   0  0  0  0  0  0
  -26.8998  -30.7084   22.0478 H   0  0  0  0  0  0
  -28.1512  -28.6534   21.2583 H   0  0  0  0  0  0
  -25.8877  -25.7483   19.0228 H   0  0  0  0  0  0
  -23.9962  -27.2622   18.9733 H   0  0  0  0  0  0
  -23.8589  -30.5263   19.3899 H   0  0  0  0  0  0
  -22.8187  -29.2085   19.8330 H   0  0  0  0  0  0
  -25.1331  -36.1782   25.0797 H   0  0  0  0  0  0
  -21.0026  -28.3349   24.1326 H   0  0  0  0  0  0
  -20.5686  -26.2360   23.3639 H   0  0  0  0  0  0
  -21.6663  -26.7417   22.1208 H   0  0  0  0  0  0
  -19.6930  -25.6279   21.1275 H   0  0  0  0  0  0
  -19.6716  -27.3165   20.6726 H   0  0  0  0  0  0
  -17.4225  -26.6687   21.4020 H   0  0  0  0  0  0
  -18.0343  -26.0095   22.9026 H   0  0  0  0  0  0
  -19.7962  -30.7312   24.2213 H   0  0  0  0  0  0
  -17.5032  -31.6275   24.5156 H   0  0  0  0  0  0
  -15.5370  -30.2967   23.7692 H   0  0  0  0  0  0
  -15.8703  -28.0804   22.7102 H   0  0  0  0  0  0
  -24.5899  -30.7096   25.7679 H   0  0  0  0  0  0
  -24.8866  -32.2956   26.4691 H   0  0  0  0  0  0
  -25.7948  -30.9005   27.0212 H   0  0  0  0  0  0
  -26.3099  -29.6599   24.1385 H   0  0  0  0  0  0
  -27.3984  -29.7265   25.5030 H   0  0  0  0  0  0
  -27.9041  -30.4111   23.9793 H   0  0  0  0  0  0
  -27.2641  -33.3676   26.1967 H   0  0  0  0  0  0
  -28.3926  -32.6832   25.0360 H   0  0  0  0  0  0
  -28.0672  -31.8532   26.5497 H   0  0  0  0  0  0
  -28.2567  -38.0083   24.7517 H   0  0  0  0  0  0
  -28.1095  -36.2607   24.6281 H   0  0  0  0  0  0
  -27.2291  -37.1395   25.8866 H   0  0  0  0  0  0
  -20.9565  -29.8719   21.6678 H   0  0  0  0  0  0
  -26.0134  -38.2771   24.1417 H   0  0  0  0  0  0
  -30.7705  -18.5058   22.0169 H   0  0  0  0  0  0
  -31.2484  -20.4665   23.0066 H   0  0  0  0  0  0
  -30.0710  -21.7658   22.9196 H   0  0  0  0  0  0
  -31.4976  -21.7826   21.8677 H   0  0  0  0  0  0
  -27.4573  -21.9049   18.4993 H   0  0  0  0  0  0
  -26.6783  -20.3548   18.2941 H   0  0  0  0  0  0
  -28.1314  -20.7515   17.3624 H   0  0  0  0  0  0
  -28.1005  -18.3797   17.3835 H   0  0  0  0  0  0
  -26.8849  -17.9561   18.5968 H   0  0  0  0  0  0
  -28.2757  -16.9188   18.3113 H   0  0  0  0  0  0
  -29.8006  -23.1238   19.4099 H   0  0  0  0  0  0
  -29.7866  -23.2357   21.1093 H   0  0  0  0  0  0
  -27.3142  -24.1264   21.0209 H   0  0  0  0  0  0
  -27.4243  -24.1295   19.3019 H   0  0  0  0  0  0
  -28.6215  -16.0195   20.4712 H   0  0  0  0  0  0
  1 25  1  0  0  0
  1 30  2  0  0  0
  1 82  1  0  0  0
  2  3  1  0  0  0
  2 25  1  0  0  0
  2 83  1  0  0  0
  2 84  1  0  0  0
  3  4  1  0  0  0
  3 85  1  0  0  0
  3 86  1  0  0  0
  4  5  1  0  0  0
  4 87  1  0  0  0
  4 88  1  0  0  0
  5  6  1  0  0  0
  5 26  1  0  0  0
  5 89  1  0  0  0
  6 25  1  0  0  0
  6 90  1  0  0  0
  6 91  1  0  0  0
  7  8  2  0  0  0
  7 26  1  0  0  0
  7 29  1  0  0  0
  8  9  1  0  0  0
  8 22  1  0  0  0
  9 10  1  0  0  0
  9 27  2  0  0  0
 10 11  2  0  0  0
 10 15  1  0  0  0
 11 12  1  0  0  0
 11 92  1  0  0  0
 12 13  2  0  0  0
 12 93  1  0  0  0
 13 14  1  0  0  0
 13 31  1  0  0  0
 14 15  2  0  0  0
 14 94  1  0  0  0
 15 95  1  0  0  0
 16 17  2  0  0  0
 16 21  1  0  0  0
 16 31  1  0  0  0
 17 18  1  0  0  0
 17 96  1  0  0  0
 18 19  2  0  0  0
 18 97  1  0  0  0
 19 20  1  0  0  0
 19 24  1  0  0  0
 20 21  2  0  0  0
 20 98  1  0  0  0
 21 23  1  0  0  0
 22 28  1  0  0  0
 22 32  2  0  0  0
 26 27  1  0  0  0
 28 99  1  0  0  0
 28100  1  0  0  0
 29101  1  0  0  0
 29102  1  0  0  0
 33 34  1  0  0  0
 33 66  1  0  0  0
 33 70  2  0  0  0
 34 36  1  0  0  0
 34 59  1  0  0  0
 34103  1  0  0  0
 35 44  2  0  0  0
 35 45  1  0  0  0
 35 68  1  0  0  0
 36 56  1  0  0  0
 36104  1  0  0  0
 37 39  1  0  0  0
 37 47  1  0  0  0
 37 66  1  0  0  0
 37105  1  0  0  0
 38 43  2  0  0  0
 38 46  1  0  0  0
 38 47  1  0  0  0
 39 64  1  0  0  0
 39 67  2  0  0  0
 40 52  1  0  0  0
 40 53  2  0  0  0
 40 58  1  0  0  0
 41106  1  0  0  0
 41107  1  0  0  0
 41108  1  0  0  0
 41 48  1  0  0  0
 42 43  1  0  0  0
 42 66  1  0  0  0
 42109  1  0  0  0
 42110  1  0  0  0
 43 44  1  0  0  0
 44111  1  0  0  0
 45 46  2  0  0  0
 45112  1  0  0  0
 46113  1  0  0  0
 47114  1  0  0  0
 47115  1  0  0  0
 48 56  1  0  0  0
 48 65  1  0  0  0
 48116  1  0  0  0
 49 50  1  0  0  0
 49 53  1  0  0  0
 49 64  1  0  0  0
 49117  1  0  0  0
 50 51  1  0  0  0
 50118  1  0  0  0
 50119  1  0  0  0
 51 52  1  0  0  0
 51120  1  0  0  0
 51121  1  0  0  0
 52122  1  0  0  0
 52123  1  0  0  0
 53 54  1  0  0  0
 54 55  2  0  0  0
 54124  1  0  0  0
 55 57  1  0  0  0
 55125  1  0  0  0
 56 69  2  0  0  0
 57 58  2  0  0  0
 57126  1  0  0  0
 58127  1  0  0  0
 59 60  1  0  0  0
 59 61  1  0  0  0
 59 62  1  0  0  0
 60128  1  0  0  0
 60129  1  0  0  0
 60130  1  0  0  0
 61131  1  0  0  0
 61132  1  0  0  0
 61133  1  0  0  0
 62134  1  0  0  0
 62135  1  0  0  0
 62136  1  0  0  0
 63 65  1  0  0  0
 63137  1  0  0  0
 63138  1  0  0  0
 63139  1  0  0  0
 64140  1  0  0  0
 65141  1  0  0  0
 68 81  1  0  0  0
 71 72  2  0  0  0
 71 76  1  0  0  0
 71142  1  0  0  0
 72 74  1  0  0  0
 72 77  1  0  0  0
 73 74  2  0  0  0
 73 75  1  0  0  0
 73 78  1  0  0  0
 74 80  1  0  0  0
 75 76  2  0  0  0
 75 79  1  0  0  0
 76 82  1  0  0  0
 77143  1  0  0  0
 77144  1  0  0  0
 77145  1  0  0  0
 78146  1  0  0  0
 78147  1  0  0  0
 78148  1  0  0  0
 79149  1  0  0  0
 79150  1  0  0  0
 79151  1  0  0  0
 80 81  1  0  0  0
 80152  1  0  0  0
 80153  1  0  0  0
 81154  1  0  0  0
 81155  1  0  0  0
 82156  1  0  0  0
M  ISO  4   1 100  68 101  81 101  82 100
M  END
> <chiral flag>
0

> <version>
0

> <s_m_source_file>
/data/baiqing/PycharmProjects/Reinvent-master-3.2/result/LINK_invent/BTK/process_docking_weight1_custom_sum_contain_oxygen_bond_distance_aromatic_linkinvent_7_9_3/rearranged_h_0017.sdf

> <i_m_source_file_index>
36

> <r_mmod_Potential_Energy-OPLS-2005>
1018.62701416016

> <r_mmod_Stretch_Energy-OPLS-2005>
462.533325195312

> <r_mmod_Bend_Energy-OPLS-2005>
398.168395996094

> <r_mmod_Torsional_Energy-OPLS-2005>
239.641448974609

> <r_mmod_Improper_Torsional_Energy-OPLS-2005>
7.6815824508667

> <r_mmod_Van_der_Waal_Energy-OPLS-2005>
133.614715576172

> <r_mmod_Electrostatic_Energy-OPLS-2005>
-390.56103515625

> <r_mmod_Solvation_Energy-OPLS-2005>
-210.807479858398

> <b_mmod_Minimization_Converged-OPLS-2005>
0

> <r_mmod_RMS_Derivative-OPLS-2005>
0.66501247882843

$$$$
36
                    3D
 Structure written by MMmdl.
165173  0  0  1  0            999 V2000
  -30.6451  -14.6116   20.5088 C   0  0  0  0  0  0
  -30.4556  -12.3749   19.4534 C   0  0  0  0  0  0
  -29.5367  -12.5337   18.2229 C   0  0  0  0  0  0
  -28.0537  -12.3737   18.6205 C   0  0  0  0  0  0
  -27.6688  -13.2222   19.8668 C   0  0  2  0  0  0
  -28.7117  -13.0448   20.9955 C   0  0  0  0  0  0
  -25.2611  -13.8184   20.5666 C   0  0  0  0  0  0
  -24.1864  -13.0407   20.9118 C   0  0  0  0  0  0
  -24.6451  -11.6902   20.8633 C   0  0  0  0  0  0
  -23.9110  -10.4288   21.0341 C   0  0  0  0  0  0
  -24.3645   -9.4217   21.9148 C   0  0  0  0  0  0
  -23.6289   -8.2278   22.0779 C   0  0  0  0  0  0
  -22.4266   -8.0306   21.3567 C   0  0  0  0  0  0
  -21.9913   -9.0273   20.4665 C   0  0  0  0  0  0
  -22.7275  -10.2128   20.3025 C   0  0  0  0  0  0
  -21.6856   -6.0744   22.5298 C   0  0  0  0  0  0
  -21.4023   -6.5635   23.8235 C   0  0  0  0  0  0
  -21.3648   -5.6783   24.9192 C   0  0  0  0  0  0
  -21.6038   -4.3045   24.7234 C   0  0  0  0  0  0
  -21.8820   -3.8146   23.4354 C   0  0  0  0  0  0
  -21.9187   -4.6976   22.3411 C   0  0  0  0  0  0
  -22.7890  -13.5224   21.1802 C   0  0  0  0  0  0
  -22.1653   -4.2161   21.0981 F   0  0  0  0  0  0
  -21.5616   -3.4527   25.7743 F   0  0  0  0  0  0
  -30.0364  -13.3851   20.4456 N   0  0  0  0  0  0
  -26.3076  -12.9388   20.3256 N   0  0  0  0  0  0
  -25.9383  -11.6518   20.5624 N   0  0  0  0  0  0
  -22.0489  -12.8245   22.0370 N   0  0  0  0  0  0
  -25.4132  -15.1947   20.4310 N   0  0  0  0  0  0
  -31.7857  -14.7876   20.0726 O   0  0  0  0  0  0
  -21.6630   -6.8901   21.4272 O   0  0  0  0  0  0
  -22.3576  -14.5523   20.6663 O   0  0  0  0  0  0
  -24.6240  -31.8605   23.2016 C   0  0  0  0  0  0
  -25.9076  -32.4799   23.8355 C   0  0  1  0  0  0
  -27.2402  -27.3225   20.1441 C   0  0  0  0  0  0
  -25.5885  -33.8594   24.2258 N   0  0  0  0  0  0
  -23.4219  -30.4833   21.5374 C   0  0  2  0  0  0
  -24.8763  -28.9437   20.1010 C   0  0  0  0  0  0
  -22.7456  -29.4629   22.4842 C   0  0  0  0  0  0
  -18.0285  -28.1390   22.8427 C   0  0  0  0  0  0
  -24.1434  -36.7282   23.2666 C   0  0  0  0  0  0
  -25.9606  -30.7985   21.3723 C   0  0  0  0  0  0
  -26.0405  -29.4252   20.7146 C   0  0  0  0  0  0
  -27.2215  -28.6280   20.7215 C   0  0  0  0  0  0
  -26.0527  -26.8913   19.5047 C   0  0  0  0  0  0
  -24.8874  -27.6815   19.4849 C   0  0  0  0  0  0
  -23.6435  -29.8273   20.1459 C   0  0  0  0  0  0
  -25.4074  -36.3089   24.0342 C   0  0  1  0  0  0
  -20.5878  -28.3710   23.1214 C   0  0  2  0  0  0
  -20.6751  -26.9407   22.5407 C   0  0  0  0  0  0
  -19.5733  -26.6333   21.5223 C   0  0  0  0  0  0
  -18.1905  -26.7910   22.1628 C   0  0  0  0  0  0
  -19.1532  -28.8859   23.2818 C   0  0  0  0  0  0
  -18.9484  -30.1444   23.8884 C   0  0  0  0  0  0
  -17.6491  -30.6600   24.0534 C   0  0  0  0  0  0
  -25.9030  -34.9464   23.5100 C   0  0  0  0  0  0
  -16.5368  -29.9114   23.6290 C   0  0  0  0  0  0
  -16.7272  -28.6530   23.0315 C   0  0  0  0  0  0
  -26.4427  -31.6668   25.0764 C   0  0  0  0  0  0
  -25.3612  -31.3836   26.1452 C   0  0  0  0  0  0
  -27.0327  -30.3105   24.6237 C   0  0  0  0  0  0
  -27.5902  -32.4471   25.7598 C   0  0  0  0  0  0
  -27.5535  -37.1786   24.8461 C   0  0  0  0  0  0
  -21.4174  -29.3055   22.3581 N   0  0  0  0  0  0
  -26.4237  -37.3798   23.9428 N   0  0  0  0  0  0
  -24.6873  -31.0621   22.0963 N   0  0  0  0  0  0
  -23.4165  -28.8186   23.2949 O   0  0  0  0  0  0
  -28.3608  -26.4808   20.2321 O   0  0  0  0  0  0
  -26.5593  -34.8933   22.4662 O   0  0  0  0  0  0
  -23.5400  -32.1421   23.7316 O   0  0  0  0  0  0
  -29.9820  -19.2213   19.5561 C   0  0  0  0  0  0
  -30.0372  -20.0373   20.7157 C   0  0  0  0  0  0
  -29.9758  -17.7946   19.6078 C   0  0  0  0  0  0
  -30.0731  -19.3436   21.9647 C   0  0  0  0  0  0
  -30.0599  -17.9022   22.0316 C   0  0  0  0  0  0
  -30.0174  -17.0975   20.8519 C   0  0  0  0  0  0
  -29.9577  -17.0329   18.2925 C   0  0  0  0  0  0
  -30.1844  -20.1675   23.2447 C   0  0  0  0  0  0
  -30.1526  -17.2100   23.3936 C   0  0  0  0  0  0
  -29.5649  -24.3769   22.2866 C   0  0  0  0  0  0
  -30.2514  -21.6041   20.5807 C   0  0  0  0  0  0
  -28.1441  -25.0101   20.2581 C   0  0  0  0  0  0
  -29.3110  -24.0582   20.7952 C   0  0  2  0  0  0
  -29.8705  -15.6451   20.9564 N   0  0  0  0  0  0
  -29.0665  -22.5544   20.5996 N   0  3  0  0  0  0
  -31.5041  -12.4874   19.1654 H   0  0  0  0  0  0
  -30.3717  -11.3681   19.8663 H   0  0  0  0  0  0
  -29.8075  -11.8068   17.4563 H   0  0  0  0  0  0
  -29.6995  -13.5179   17.7787 H   0  0  0  0  0  0
  -27.8850  -11.3146   18.8206 H   0  0  0  0  0  0
  -27.4159  -12.6284   17.7736 H   0  0  0  0  0  0
  -27.6971  -14.2673   19.5555 H   0  0  0  0  0  0
  -28.7153  -12.0140   21.3499 H   0  0  0  0  0  0
  -28.4563  -13.6552   21.8631 H   0  0  0  0  0  0
  -25.2806   -9.5682   22.4695 H   0  0  0  0  0  0
  -23.9985   -7.4690   22.7533 H   0  0  0  0  0  0
  -21.0827   -8.8794   19.8990 H   0  0  0  0  0  0
  -22.3741  -10.9642   19.6097 H   0  0  0  0  0  0
  -21.2026   -7.6139   23.9756 H   0  0  0  0  0  0
  -21.1458   -6.0496   25.9095 H   0  0  0  0  0  0
  -22.0598   -2.7615   23.2851 H   0  0  0  0  0  0
  -22.4000  -11.9851   22.4731 H   0  0  0  0  0  0
  -21.1166  -13.1395   22.2612 H   0  0  0  0  0  0
  -24.6311  -15.8151   20.6147 H   0  0  0  0  0  0
  -26.2609  -15.6927   20.1899 H   0  0  0  0  0  0
  -26.7170  -32.5471   23.1153 H   0  0  0  0  0  0
  -24.9975  -33.9737   25.0349 H   0  0  0  0  0  0
  -22.7191  -31.3071   21.3936 H   0  0  0  0  0  0
  -23.3713  -35.9592   23.3339 H   0  0  0  0  0  0
  -24.3561  -36.8930   22.2091 H   0  0  0  0  0  0
  -23.7141  -37.6453   23.6719 H   0  0  0  0  0  0
  -26.0755  -31.5629   20.6030 H   0  0  0  0  0  0
  -26.8471  -30.8610   21.9922 H   0  0  0  0  0  0
  -28.1061  -28.9914   21.2229 H   0  0  0  0  0  0
  -26.0021  -25.9227   19.0271 H   0  0  0  0  0  0
  -23.9987  -27.3058   18.9952 H   0  0  0  0  0  0
  -23.7753  -30.6172   19.4050 H   0  0  0  0  0  0
  -22.7633  -29.2727   19.8175 H   0  0  0  0  0  0
  -25.1249  -36.1970   25.0840 H   0  0  0  0  0  0
  -20.9997  -28.3326   24.1330 H   0  0  0  0  0  0
  -20.5675  -26.2332   23.3639 H   0  0  0  0  0  0
  -21.6613  -26.7403   22.1221 H   0  0  0  0  0  0
  -19.6897  -25.6230   21.1315 H   0  0  0  0  0  0
  -19.6701  -27.3070   20.6696 H   0  0  0  0  0  0
  -17.4166  -26.6616   21.4036 H   0  0  0  0  0  0
  -18.0311  -26.0097   22.9078 H   0  0  0  0  0  0
  -19.7974  -30.7192   24.2320 H   0  0  0  0  0  0
  -17.5074  -31.6319   24.5076 H   0  0  0  0  0  0
  -15.5379  -30.3044   23.7629 H   0  0  0  0  0  0
  -15.8656  -28.0889   22.7025 H   0  0  0  0  0  0
  -24.5765  -30.7227   25.7772 H   0  0  0  0  0  0
  -24.8812  -32.3030   26.4816 H   0  0  0  0  0  0
  -25.7853  -30.9050   27.0278 H   0  0  0  0  0  0
  -26.2971  -29.6903   24.1099 H   0  0  0  0  0  0
  -27.3875  -29.7338   25.4790 H   0  0  0  0  0  0
  -27.8875  -30.4457   23.9591 H   0  0  0  0  0  0
  -27.2411  -33.3802   26.2042 H   0  0  0  0  0  0
  -28.3774  -32.7028   25.0497 H   0  0  0  0  0  0
  -28.0469  -31.8710   26.5663 H   0  0  0  0  0  0
  -28.2493  -38.0122   24.7559 H   0  0  0  0  0  0
  -28.1077  -36.2661   24.6234 H   0  0  0  0  0  0
  -27.2267  -37.1369   25.8857 H   0  0  0  0  0  0
  -20.9361  -29.8829   21.6818 H   0  0  0  0  0  0
  -26.0121  -38.2852   24.1515 H   0  0  0  0  0  0
  -29.9858  -19.7082   18.5908 H   0  0  0  0  0  0
  -29.7248  -17.6895   17.4521 H   0  0  0  0  0  0
  -29.2228  -16.2281   18.3003 H   0  0  0  0  0  0
  -30.9444  -16.6045   18.1115 H   0  0  0  0  0  0
  -31.2317  -20.4101   23.4396 H   0  0  0  0  0  0
  -29.7671  -19.6740   24.1225 H   0  0  0  0  0  0
  -29.6361  -21.1033   23.1517 H   0  0  0  0  0  0
  -29.2718  -17.4159   24.0020 H   0  0  0  0  0  0
  -31.0361  -17.5632   23.9262 H   0  0  0  0  0  0
  -30.2522  -16.1249   23.3436 H   0  0  0  0  0  0
  -29.8177  -25.4294   22.4323 H   0  0  0  0  0  0
  -30.3814  -23.7860   22.7040 H   0  0  0  0  0  0
  -28.6732  -24.1903   22.8864 H   0  0  0  0  0  0
  -30.7658  -21.7714   19.6328 H   0  0  0  0  0  0
  -30.9779  -21.9082   21.3336 H   0  0  0  0  0  0
  -27.2583  -24.8065   20.8663 H   0  0  0  0  0  0
  -27.8907  -24.6822   19.2502 H   0  0  0  0  0  0
  -30.2122  -24.3182   20.2386 H   0  0  0  0  0  0
  -29.0473  -15.3353   21.4520 H   0  0  0  0  0  0
  -28.4174  -22.2290   21.2983 H   0  0  0  0  0  0
  -28.6240  -22.4270   19.7028 H   0  0  0  0  0  0
  1 25  1  0  0  0
  1 30  2  0  0  0
  1 84  1  0  0  0
  2  3  1  0  0  0
  2 25  1  0  0  0
  2 86  1  0  0  0
  2 87  1  0  0  0
  3  4  1  0  0  0
  3 88  1  0  0  0
  3 89  1  0  0  0
  4  5  1  0  0  0
  4 90  1  0  0  0
  4 91  1  0  0  0
  5  6  1  0  0  0
  5 26  1  0  0  0
  5 92  1  0  0  0
  6 25  1  0  0  0
  6 93  1  0  0  0
  6 94  1  0  0  0
  7  8  2  0  0  0
  7 26  1  0  0  0
  7 29  1  0  0  0
  8  9  1  0  0  0
  8 22  1  0  0  0
  9 10  1  0  0  0
  9 27  2  0  0  0
 10 11  2  0  0  0
 10 15  1  0  0  0
 11 12  1  0  0  0
 11 95  1  0  0  0
 12 13  2  0  0  0
 12 96  1  0  0  0
 13 14  1  0  0  0
 13 31  1  0  0  0
 14 15  2  0  0  0
 14 97  1  0  0  0
 15 98  1  0  0  0
 16 17  2  0  0  0
 16 21  1  0  0  0
 16 31  1  0  0  0
 17 18  1  0  0  0
 17 99  1  0  0  0
 18 19  2  0  0  0
 18100  1  0  0  0
 19 20  1  0  0  0
 19 24  1  0  0  0
 20 21  2  0  0  0
 20101  1  0  0  0
 21 23  1  0  0  0
 22 28  1  0  0  0
 22 32  2  0  0  0
 26 27  1  0  0  0
 28102  1  0  0  0
 28103  1  0  0  0
 29104  1  0  0  0
 29105  1  0  0  0
 33 34  1  0  0  0
 33 66  1  0  0  0
 33 70  2  0  0  0
 34 36  1  0  0  0
 34 59  1  0  0  0
 34106  1  0  0  0
 35 44  2  0  0  0
 35 45  1  0  0  0
 35 68  1  0  0  0
 36 56  1  0  0  0
 36107  1  0  0  0
 37 39  1  0  0  0
 37 47  1  0  0  0
 37 66  1  0  0  0
 37108  1  0  0  0
 38 43  2  0  0  0
 38 46  1  0  0  0
 38 47  1  0  0  0
 39 64  1  0  0  0
 39 67  2  0  0  0
 40 52  1  0  0  0
 40 53  2  0  0  0
 40 58  1  0  0  0
 41109  1  0  0  0
 41110  1  0  0  0
 41111  1  0  0  0
 41 48  1  0  0  0
 42 43  1  0  0  0
 42 66  1  0  0  0
 42112  1  0  0  0
 42113  1  0  0  0
 43 44  1  0  0  0
 44114  1  0  0  0
 45 46  2  0  0  0
 45115  1  0  0  0
 46116  1  0  0  0
 47117  1  0  0  0
 47118  1  0  0  0
 48 56  1  0  0  0
 48 65  1  0  0  0
 48119  1  0  0  0
 49 50  1  0  0  0
 49 53  1  0  0  0
 49 64  1  0  0  0
 49120  1  0  0  0
 50 51  1  0  0  0
 50121  1  0  0  0
 50122  1  0  0  0
 51 52  1  0  0  0
 51123  1  0  0  0
 51124  1  0  0  0
 52125  1  0  0  0
 52126  1  0  0  0
 53 54  1  0  0  0
 54 55  2  0  0  0
 54127  1  0  0  0
 55 57  1  0  0  0
 55128  1  0  0  0
 56 69  2  0  0  0
 57 58  2  0  0  0
 57129  1  0  0  0
 58130  1  0  0  0
 59 60  1  0  0  0
 59 61  1  0  0  0
 59 62  1  0  0  0
 60131  1  0  0  0
 60132  1  0  0  0
 60133  1  0  0  0
 61134  1  0  0  0
 61135  1  0  0  0
 61136  1  0  0  0
 62137  1  0  0  0
 62138  1  0  0  0
 62139  1  0  0  0
 63 65  1  0  0  0
 63140  1  0  0  0
 63141  1  0  0  0
 63142  1  0  0  0
 64143  1  0  0  0
 65144  1  0  0  0
 68 82  1  0  0  0
 71 72  2  0  0  0
 71 73  1  0  0  0
 71145  1  0  0  0
 72 74  1  0  0  0
 72 81  1  0  0  0
 73 76  2  0  0  0
 73 77  1  0  0  0
 74 75  2  0  0  0
 74 78  1  0  0  0
 75 76  1  0  0  0
 75 79  1  0  0  0
 76 84  1  0  0  0
 77146  1  0  0  0
 77147  1  0  0  0
 77148  1  0  0  0
 78149  1  0  0  0
 78150  1  0  0  0
 78151  1  0  0  0
 79152  1  0  0  0
 79153  1  0  0  0
 79154  1  0  0  0
 80155  1  0  0  0
 80156  1  0  0  0
 80157  1  0  0  0
 80 83  1  0  0  0
 81 85  1  0  0  0
 81158  1  0  0  0
 81159  1  0  0  0
 82 83  1  0  0  0
 82160  1  0  0  0
 82161  1  0  0  0
 83 85  1  0  0  0
 83162  1  0  0  0
 84163  1  0  0  0
 85164  1  0  0  0
 85165  1  0  0  0
M  CHG  1  85   1
M  ISO  4   1 100  68 101  82 101  84 100
M  END
> <chiral flag>
0

> <version>
0

> <s_m_source_file>
/data/baiqing/PycharmProjects/Reinvent-master-3.2/result/LINK_invent/BTK/process_docking_weight1_custom_sum_contain_oxygen_bond_distance_aromatic_linkinvent_7_9_3/rearranged_h_0017.sdf

> <i_m_source_file_index>
37

> <r_mmod_Potential_Energy-OPLS-2005>
-101.134643554688

> <r_mmod_Stretch_Energy-OPLS-2005>
88.7694778442383

> <r_mmod_Bend_Energy-OPLS-2005>
136.663208007812

> <r_mmod_Torsional_Energy-OPLS-2005>
236.580184936523

> <r_mmod_Improper_Torsional_Energy-OPLS-2005>
4.58870124816895

> <r_mmod_Van_der_Waal_Energy-OPLS-2005>
142.938858032227

> <r_mmod_Electrostatic_Energy-OPLS-2005>
-307.834808349609

> <r_mmod_Solvation_Energy-OPLS-2005>
-447.919708251953

> <b_mmod_Minimization_Converged-OPLS-2005>
0

> <r_mmod_RMS_Derivative-OPLS-2005>
5.19663572311401

$$$$
37
                    3D
 Structure written by MMmdl.
158166  0  0  1  0            999 V2000
  -30.5543  -14.9927   20.4155 C   0  0  0  0  0  0
  -30.4358  -12.6171   19.5044 C   0  0  0  0  0  0
  -29.5210  -12.5243   18.2627 C   0  0  0  0  0  0
  -28.0575  -12.3054   18.6862 C   0  0  0  0  0  0
  -27.6252  -13.2529   19.8349 C   0  0  2  0  0  0
  -28.6681  -13.3198   20.9709 C   0  0  0  0  0  0
  -25.2441  -13.8222   20.5726 C   0  0  0  0  0  0
  -24.1761  -13.0440   20.9239 C   0  0  0  0  0  0
  -24.6384  -11.6926   20.8762 C   0  0  0  0  0  0
  -23.9074  -10.4295   21.0417 C   0  0  0  0  0  0
  -24.3622   -9.4206   21.9189 C   0  0  0  0  0  0
  -23.6289   -8.2246   22.0752 C   0  0  0  0  0  0
  -22.4271   -8.0284   21.3547 C   0  0  0  0  0  0
  -21.9911   -9.0258   20.4653 C   0  0  0  0  0  0
  -22.7243  -10.2134   20.3067 C   0  0  0  0  0  0
  -21.6853   -6.0735   22.5280 C   0  0  0  0  0  0
  -21.4010   -6.5641   23.8214 C   0  0  0  0  0  0
  -21.3655   -5.6790   24.9174 C   0  0  0  0  0  0
  -21.6044   -4.3054   24.7227 C   0  0  0  0  0  0
  -21.8815   -3.8147   23.4347 C   0  0  0  0  0  0
  -21.9187   -4.6962   22.3405 C   0  0  0  0  0  0
  -22.7784  -13.5208   21.1886 C   0  0  0  0  0  0
  -22.1661   -4.2148   21.0983 F   0  0  0  0  0  0
  -21.5625   -3.4535   25.7738 F   0  0  0  0  0  0
  -29.9372  -13.7369   20.3605 N   0  0  0  0  0  0
  -26.2863  -12.9463   20.3245 N   0  0  0  0  0  0
  -25.9321  -11.6587   20.5755 N   0  0  0  0  0  0
  -22.0433  -12.8202   22.0448 N   0  0  0  0  0  0
  -25.4082  -15.1957   20.4166 N   0  0  0  0  0  0
  -31.7560  -14.9981   20.1259 O   0  0  0  0  0  0
  -21.6635   -6.8879   21.4245 O   0  0  0  0  0  0
  -22.3469  -14.5513   20.6723 O   0  0  0  0  0  0
  -24.6459  -31.8416   23.1841 C   0  0  0  0  0  0
  -25.9216  -32.4686   23.8252 C   0  0  1  0  0  0
  -27.2208  -27.1071   20.1535 C   0  0  0  0  0  0
  -25.5949  -33.8492   24.2172 N   0  0  0  0  0  0
  -23.4521  -30.4583   21.5308 C   0  0  2  0  0  0
  -24.9030  -28.8778   20.1095 C   0  0  0  0  0  0
  -22.7583  -29.4530   22.4844 C   0  0  0  0  0  0
  -18.0308  -28.1398   22.8477 C   0  0  0  0  0  0
  -24.1490  -36.7250   23.2643 C   0  0  0  0  0  0
  -26.0100  -30.7048   21.3876 C   0  0  0  0  0  0
  -26.0810  -29.3130   20.7293 C   0  0  0  0  0  0
  -27.2400  -28.4444   20.7318 C   0  0  0  0  0  0
  -26.0169  -26.7805   19.4924 C   0  0  0  0  0  0
  -24.8856  -27.6266   19.4744 C   0  0  0  0  0  0
  -23.6805  -29.7831   20.1522 C   0  0  0  0  0  0
  -25.4124  -36.3030   24.0315 C   0  0  1  0  0  0
  -20.5923  -28.3727   23.1228 C   0  0  2  0  0  0
  -20.6789  -26.9427   22.5403 C   0  0  0  0  0  0
  -19.5765  -26.6380   21.5211 C   0  0  0  0  0  0
  -18.1948  -26.7937   22.1621 C   0  0  0  0  0  0
  -19.1566  -28.8879   23.2848 C   0  0  0  0  0  0
  -18.9482  -30.1470   23.8883 C   0  0  0  0  0  0
  -17.6478  -30.6593   24.0558 C   0  0  0  0  0  0
  -25.9078  -34.9403   23.5057 C   0  0  0  0  0  0
  -16.5369  -29.9088   23.6332 C   0  0  0  0  0  0
  -16.7292  -28.6502   23.0364 C   0  0  0  0  0  0
  -26.4524  -31.6565   25.0707 C   0  0  0  0  0  0
  -25.3693  -31.3766   26.1392 C   0  0  0  0  0  0
  -27.0389  -30.2957   24.6302 C   0  0  0  0  0  0
  -27.6053  -32.4330   25.7491 C   0  0  0  0  0  0
  -27.5576  -37.1783   24.8463 C   0  0  0  0  0  0
  -21.4270  -29.3049   22.3594 N   0  0  0  0  0  0
  -26.4286  -37.3746   23.9408 N   0  0  0  0  0  0
  -24.7229  -31.0237   22.0892 N   0  0  0  0  0  0
  -23.4209  -28.8087   23.3017 O   0  0  0  0  0  0
  -28.2678  -26.1078   20.2319 O   0  0  0  0  0  0
  -26.5673  -34.8903   22.4643 O   0  0  0  0  0  0
  -23.5568  -32.1299   23.7046 O   0  0  0  0  0  0
  -30.8663  -20.4839   21.2334 C   0  0  0  0  0  0
  -31.2954  -18.0738   21.5201 C   0  0  0  0  0  0
  -31.6687  -19.4323   21.6880 C   0  0  0  0  0  0
  -29.6442  -20.2533   20.5990 C   0  0  0  0  0  0
  -30.1297  -17.7267   20.7674 C   0  0  0  0  0  0
  -32.1670  -17.0344   22.2259 C   0  0  0  0  0  0
  -29.2336  -23.4772   21.9836 C   0  0  0  0  0  0
  -30.3604  -23.6152   19.7216 C   0  0  0  0  0  0
  -28.7205  -21.5955   20.1917 C   0  0  0  0  0  0
  -28.0181  -24.5659   20.0394 C   0  0  0  0  0  0
  -29.0512  -23.2747   20.4650 C   0  0  0  0  0  0
  -29.3300  -18.8647   20.3732 N   0  0  0  0  0  0
  -29.8073  -16.2159   20.5673 N   0  0  0  0  0  0
  -33.1370  -19.8771   22.4913 Cl  0  0  0  0  0  0
  -31.4687  -12.7665   19.1865 H   0  0  0  0  0  0
  -30.4346  -11.6779   20.0601 H   0  0  0  0  0  0
  -29.8457  -11.7117   17.6117 H   0  0  0  0  0  0
  -29.6033  -13.4407   17.6770 H   0  0  0  0  0  0
  -27.9652  -11.2692   19.0131 H   0  0  0  0  0  0
  -27.3913  -12.4148   17.8304 H   0  0  0  0  0  0
  -27.5759  -14.2452   19.3862 H   0  0  0  0  0  0
  -28.7663  -12.3582   21.4766 H   0  0  0  0  0  0
  -28.3593  -14.0388   21.7315 H   0  0  0  0  0  0
  -25.2770   -9.5663   22.4763 H   0  0  0  0  0  0
  -23.9991   -7.4630   22.7464 H   0  0  0  0  0  0
  -21.0840   -8.8779   19.8963 H   0  0  0  0  0  0
  -22.3703  -10.9672   19.6178 H   0  0  0  0  0  0
  -21.2010   -7.6149   23.9714 H   0  0  0  0  0  0
  -21.1480   -6.0526   25.9075 H   0  0  0  0  0  0
  -22.0597   -2.7609   23.2851 H   0  0  0  0  0  0
  -22.4046  -11.9875   22.4860 H   0  0  0  0  0  0
  -21.1046  -13.1220   22.2642 H   0  0  0  0  0  0
  -24.6335  -15.8412   20.5293 H   0  0  0  0  0  0
  -26.2405  -15.6424   20.0549 H   0  0  0  0  0  0
  -26.7282  -32.5283   23.0979 H   0  0  0  0  0  0
  -25.0061  -33.9604   25.0295 H   0  0  0  0  0  0
  -22.7565  -31.2854   21.3726 H   0  0  0  0  0  0
  -23.3762  -35.9572   23.3290 H   0  0  0  0  0  0
  -24.3573  -36.8899   22.2060 H   0  0  0  0  0  0
  -23.7228  -37.6434   23.6692 H   0  0  0  0  0  0
  -26.1686  -31.4571   20.6140 H   0  0  0  0  0  0
  -26.8790  -30.7575   22.0318 H   0  0  0  0  0  0
  -28.1366  -28.7720   21.2386 H   0  0  0  0  0  0
  -25.9188  -25.8227   19.0040 H   0  0  0  0  0  0
  -23.9868  -27.2885   18.9772 H   0  0  0  0  0  0
  -23.8206  -30.5555   19.3955 H   0  0  0  0  0  0
  -22.7947  -29.2272   19.8396 H   0  0  0  0  0  0
  -25.1312  -36.1861   25.0809 H   0  0  0  0  0  0
  -21.0015  -28.3322   24.1350 H   0  0  0  0  0  0
  -20.5677  -26.2345   23.3628 H   0  0  0  0  0  0
  -21.6658  -26.7430   22.1207 H   0  0  0  0  0  0
  -19.6930  -25.6284   21.1262 H   0  0  0  0  0  0
  -19.6700  -27.3172   20.6728 H   0  0  0  0  0  0
  -17.4214  -26.6677   21.4029 H   0  0  0  0  0  0
  -18.0351  -26.0087   22.9024 H   0  0  0  0  0  0
  -19.7954  -30.7289   24.2259 H   0  0  0  0  0  0
  -17.5030  -31.6274   24.5157 H   0  0  0  0  0  0
  -15.5371  -30.2990   23.7662 H   0  0  0  0  0  0
  -15.8688  -28.0810   22.7107 H   0  0  0  0  0  0
  -24.5885  -30.7106   25.7701 H   0  0  0  0  0  0
  -24.8866  -32.2951   26.4741 H   0  0  0  0  0  0
  -25.7958  -30.8983   27.0218 H   0  0  0  0  0  0
  -26.3011  -29.6681   24.1293 H   0  0  0  0  0  0
  -27.3975  -29.7262   25.4885 H   0  0  0  0  0  0
  -27.8929  -30.4190   23.9640 H   0  0  0  0  0  0
  -27.2659  -33.3658   26.2004 H   0  0  0  0  0  0
  -28.3897  -32.6847   25.0341 H   0  0  0  0  0  0
  -28.0685  -31.8497   26.5458 H   0  0  0  0  0  0
  -28.2589  -38.0085   24.7519 H   0  0  0  0  0  0
  -28.1081  -36.2618   24.6286 H   0  0  0  0  0  0
  -27.2297  -37.1418   25.8867 H   0  0  0  0  0  0
  -20.9493  -29.8757   21.6756 H   0  0  0  0  0  0
  -26.0155  -38.2814   24.1416 H   0  0  0  0  0  0
  -31.2171  -21.4817   21.4258 H   0  0  0  0  0  0
  -32.6185  -17.4263   23.1359 H   0  0  0  0  0  0
  -32.9793  -16.7054   21.5765 H   0  0  0  0  0  0
  -31.5935  -16.1757   22.5673 H   0  0  0  0  0  0
  -29.9236  -22.7772   22.4442 H   0  0  0  0  0  0
  -28.2811  -23.3625   22.5022 H   0  0  0  0  0  0
  -29.6001  -24.4802   22.2067 H   0  0  0  0  0  0
  -31.1869  -22.9523   19.9585 H   0  0  0  0  0  0
  -30.6931  -24.6287   19.9479 H   0  0  0  0  0  0
  -30.2156  -23.5619   18.6423 H   0  0  0  0  0  0
  -27.7458  -21.4033   20.6410 H   0  0  0  0  0  0
  -28.5437  -21.4907   19.1211 H   0  0  0  0  0  0
  -27.0662  -24.3610   20.5306 H   0  0  0  0  0  0
  -27.8081  -24.4432   18.9766 H   0  0  0  0  0  0
  -28.8170  -16.0398   20.5362 H   0  0  0  0  0  0
  1 25  1  0  0  0
  1 30  2  0  0  0
  1 83  1  0  0  0
  2  3  1  0  0  0
  2 25  1  0  0  0
  2 85  1  0  0  0
  2 86  1  0  0  0
  3  4  1  0  0  0
  3 87  1  0  0  0
  3 88  1  0  0  0
  4  5  1  0  0  0
  4 89  1  0  0  0
  4 90  1  0  0  0
  5  6  1  0  0  0
  5 26  1  0  0  0
  5 91  1  0  0  0
  6 25  1  0  0  0
  6 92  1  0  0  0
  6 93  1  0  0  0
  7  8  2  0  0  0
  7 26  1  0  0  0
  7 29  1  0  0  0
  8  9  1  0  0  0
  8 22  1  0  0  0
  9 10  1  0  0  0
  9 27  2  0  0  0
 10 11  2  0  0  0
 10 15  1  0  0  0
 11 12  1  0  0  0
 11 94  1  0  0  0
 12 13  2  0  0  0
 12 95  1  0  0  0
 13 14  1  0  0  0
 13 31  1  0  0  0
 14 15  2  0  0  0
 14 96  1  0  0  0
 15 97  1  0  0  0
 16 17  2  0  0  0
 16 21  1  0  0  0
 16 31  1  0  0  0
 17 18  1  0  0  0
 17 98  1  0  0  0
 18 19  2  0  0  0
 18 99  1  0  0  0
 19 20  1  0  0  0
 19 24  1  0  0  0
 20 21  2  0  0  0
 20100  1  0  0  0
 21 23  1  0  0  0
 22 28  1  0  0  0
 22 32  2  0  0  0
 26 27  1  0  0  0
 28101  1  0  0  0
 28102  1  0  0  0
 29103  1  0  0  0
 29104  1  0  0  0
 33 34  1  0  0  0
 33 66  1  0  0  0
 33 70  2  0  0  0
 34 36  1  0  0  0
 34 59  1  0  0  0
 34105  1  0  0  0
 35 44  2  0  0  0
 35 45  1  0  0  0
 35 68  1  0  0  0
 36 56  1  0  0  0
 36106  1  0  0  0
 37 39  1  0  0  0
 37 47  1  0  0  0
 37 66  1  0  0  0
 37107  1  0  0  0
 38 43  2  0  0  0
 38 46  1  0  0  0
 38 47  1  0  0  0
 39 64  1  0  0  0
 39 67  2  0  0  0
 40 52  1  0  0  0
 40 53  2  0  0  0
 40 58  1  0  0  0
 41108  1  0  0  0
 41109  1  0  0  0
 41110  1  0  0  0
 41 48  1  0  0  0
 42 43  1  0  0  0
 42 66  1  0  0  0
 42111  1  0  0  0
 42112  1  0  0  0
 43 44  1  0  0  0
 44113  1  0  0  0
 45 46  2  0  0  0
 45114  1  0  0  0
 46115  1  0  0  0
 47116  1  0  0  0
 47117  1  0  0  0
 48 56  1  0  0  0
 48 65  1  0  0  0
 48118  1  0  0  0
 49 50  1  0  0  0
 49 53  1  0  0  0
 49 64  1  0  0  0
 49119  1  0  0  0
 50 51  1  0  0  0
 50120  1  0  0  0
 50121  1  0  0  0
 51 52  1  0  0  0
 51122  1  0  0  0
 51123  1  0  0  0
 52124  1  0  0  0
 52125  1  0  0  0
 53 54  1  0  0  0
 54 55  2  0  0  0
 54126  1  0  0  0
 55 57  1  0  0  0
 55127  1  0  0  0
 56 69  2  0  0  0
 57 58  2  0  0  0
 57128  1  0  0  0
 58129  1  0  0  0
 59 60  1  0  0  0
 59 61  1  0  0  0
 59 62  1  0  0  0
 60130  1  0  0  0
 60131  1  0  0  0
 60132  1  0  0  0
 61133  1  0  0  0
 61134  1  0  0  0
 61135  1  0  0  0
 62136  1  0  0  0
 62137  1  0  0  0
 62138  1  0  0  0
 63 65  1  0  0  0
 63139  1  0  0  0
 63140  1  0  0  0
 63141  1  0  0  0
 64142  1  0  0  0
 65143  1  0  0  0
 68 80  1  0  0  0
 71 73  2  0  0  0
 71 74  1  0  0  0
 71144  1  0  0  0
 72 73  1  0  0  0
 72 75  2  0  0  0
 72 76  1  0  0  0
 73 84  1  0  0  0
 74 79  1  0  0  0
 74 82  2  0  0  0
 75 82  1  0  0  0
 75 83  1  0  0  0
 76145  1  0  0  0
 76146  1  0  0  0
 76147  1  0  0  0
 77148  1  0  0  0
 77149  1  0  0  0
 77150  1  0  0  0
 77 81  1  0  0  0
 78 81  1  0  0  0
 78151  1  0  0  0
 78152  1  0  0  0
 78153  1  0  0  0
 79 81  1  0  0  0
 79154  1  0  0  0
 79155  1  0  0  0
 80 81  1  0  0  0
 80156  1  0  0  0
 80157  1  0  0  0
 83158  1  0  0  0
M  ISO  4   1 100  68 101  80 101  83 100
M  END
> <chiral flag>
0

> <version>
0

> <s_m_source_file>
/data/baiqing/PycharmProjects/Reinvent-master-3.2/result/LINK_invent/BTK/process_docking_weight1_custom_sum_contain_oxygen_bond_distance_aromatic_linkinvent_7_9_3/rearranged_h_0017.sdf

> <i_m_source_file_index>
38

> <r_mmod_Potential_Energy-OPLS-2005>
472.387573242188

> <r_mmod_Stretch_Energy-OPLS-2005>
330.674957275391

> <r_mmod_Bend_Energy-OPLS-2005>
286.230590820312

> <r_mmod_Torsional_Energy-OPLS-2005>
227.774765014648

> <r_mmod_Improper_Torsional_Energy-OPLS-2005>
5.16683912277222

> <r_mmod_Van_der_Waal_Energy-OPLS-2005>
146.677764892578

> <r_mmod_Electrostatic_Energy-OPLS-2005>
-533.993347167969

> <r_mmod_Solvation_Energy-OPLS-2005>
-210.268157958984

> <b_mmod_Minimization_Converged-OPLS-2005>
0

> <r_mmod_RMS_Derivative-OPLS-2005>
1.26527535915375

$$$$
38
                    3D
 Structure written by MMmdl.
149157  0  0  1  0            999 V2000
  -30.2906  -15.6131   20.3215 C   0  0  0  0  0  0
  -30.4310  -13.0635   19.5284 C   0  0  0  0  0  0
  -29.5494  -12.6469   18.3161 C   0  0  0  0  0  0
  -28.1224  -12.2929   18.7640 C   0  0  0  0  0  0
  -27.5974  -13.3017   19.8101 C   0  0  2  0  0  0
  -28.6180  -13.6210   20.9264 C   0  0  0  0  0  0
  -25.2343  -13.8274   20.5793 C   0  0  0  0  0  0
  -24.1726  -13.0432   20.9291 C   0  0  0  0  0  0
  -24.6421  -11.6943   20.8770 C   0  0  0  0  0  0
  -23.9125  -10.4295   21.0408 C   0  0  0  0  0  0
  -24.3660   -9.4202   21.9184 C   0  0  0  0  0  0
  -23.6314   -8.2244   22.0756 C   0  0  0  0  0  0
  -22.4291   -8.0292   21.3548 C   0  0  0  0  0  0
  -21.9945   -9.0273   20.4648 C   0  0  0  0  0  0
  -22.7297  -10.2139   20.3054 C   0  0  0  0  0  0
  -21.6856   -6.0750   22.5284 C   0  0  0  0  0  0
  -21.4022   -6.5649   23.8219 C   0  0  0  0  0  0
  -21.3653   -5.6797   24.9176 C   0  0  0  0  0  0
  -21.6038   -4.3060   24.7224 C   0  0  0  0  0  0
  -21.8820   -3.8156   23.4344 C   0  0  0  0  0  0
  -21.9195   -4.6977   22.3402 C   0  0  0  0  0  0
  -22.7737  -13.5168   21.1922 C   0  0  0  0  0  0
  -22.1661   -4.2163   21.0981 F   0  0  0  0  0  0
  -21.5617   -3.4541   25.7732 F   0  0  0  0  0  0
  -29.7920  -14.2404   20.2688 N   0  0  0  0  0  0
  -26.2783  -12.9591   20.3222 N   0  0  0  0  0  0
  -25.9361  -11.6672   20.5702 N   0  0  0  0  0  0
  -22.0392  -12.8148   22.0470 N   0  0  0  0  0  0
  -25.3930  -15.2015   20.4239 N   0  0  0  0  0  0
  -31.5275  -15.5842   20.1825 O   0  0  0  0  0  0
  -21.6641   -6.8896   21.4247 O   0  0  0  0  0  0
  -22.3417  -14.5465   20.6754 O   0  0  0  0  0  0
  -24.6855  -31.7981   23.1500 C   0  0  0  0  0  0
  -25.9425  -32.4456   23.8054 C   0  0  1  0  0  0
  -27.2251  -26.6912   20.2106 C   0  0  0  0  0  0
  -25.6003  -33.8280   24.1947 N   0  0  0  0  0  0
  -23.5124  -30.4007   21.5038 C   0  0  2  0  0  0
  -24.9693  -28.7392   20.1175 C   0  0  0  0  0  0
  -22.7779  -29.4308   22.4690 C   0  0  0  0  0  0
  -18.0350  -28.1425   22.8460 C   0  0  0  0  0  0
  -24.1490  -36.7135   23.2654 C   0  0  0  0  0  0
  -26.0940  -30.5266   21.4169 C   0  0  0  0  0  0
  -26.1588  -29.0908   20.7661 C   0  0  0  0  0  0
  -27.2716  -28.0943   20.7802 C   0  0  0  0  0  0
  -26.0025  -26.5528   19.5049 C   0  0  0  0  0  0
  -24.9302  -27.4956   19.4639 C   0  0  0  0  0  0
  -23.7670  -29.6968   20.1395 C   0  0  0  0  0  0
  -25.4141  -36.2883   24.0286 C   0  0  1  0  0  0
  -20.5986  -28.3782   23.1139 C   0  0  2  0  0  0
  -20.6811  -26.9438   22.5402 C   0  0  0  0  0  0
  -19.5787  -26.6371   21.5219 C   0  0  0  0  0  0
  -18.1971  -26.7958   22.1619 C   0  0  0  0  0  0
  -19.1616  -28.8926   23.2781 C   0  0  0  0  0  0
  -18.9521  -30.1513   23.8825 C   0  0  0  0  0  0
  -17.6512  -30.6608   24.0551 C   0  0  0  0  0  0
  -25.9126  -34.9277   23.4950 C   0  0  0  0  0  0
  -16.5397  -29.9090   23.6351 C   0  0  0  0  0  0
  -16.7327  -28.6512   23.0370 C   0  0  0  0  0  0
  -26.4605  -31.6494   25.0677 C   0  0  0  0  0  0
  -25.3663  -31.3816   26.1284 C   0  0  0  0  0  0
  -27.0543  -30.2834   24.6584 C   0  0  0  0  0  0
  -27.6051  -32.4362   25.7490 C   0  0  0  0  0  0
  -27.5560  -37.1719   24.8469 C   0  0  0  0  0  0
  -21.4421  -29.3030   22.3454 N   0  0  0  0  0  0
  -26.4259  -37.3650   23.9425 N   0  0  0  0  0  0
  -24.7874  -30.9418   22.0760 N   0  0  0  0  0  0
  -23.4220  -28.7907   23.3033 O   0  0  0  0  0  0
  -28.1782  -25.4604   20.2819 O   0  0  0  0  0  0
  -26.5755  -34.8860   22.4563 O   0  0  0  0  0  0
  -23.5871  -32.1052   23.6457 O   0  0  0  0  0  0
  -29.4488  -19.6646   21.3966 C   0  0  0  0  0  0
  -29.1144  -21.1708   21.3742 C   0  0  0  0  0  0
  -29.3903  -18.6557   20.3011 C   0  0  0  0  0  0
  -28.6622  -22.0223   20.2366 C   0  0  0  0  0  0
  -28.9021  -19.5827   19.2363 C   0  0  0  0  0  0
  -29.8307  -19.0668   22.7426 C   0  0  0  0  0  0
  -29.1886  -21.9076   22.7048 C   0  0  0  0  0  0
  -27.8785  -23.7322   20.1268 C   0  0  0  0  0  0
  -28.5966  -21.0207   19.2193 N   0  0  0  0  0  0
  -29.4596  -16.9274   20.3238 N   0  0  0  0  0  0
  -28.5710  -18.8179   17.7255 Cl  0  0  0  0  0  0
  -31.4213  -13.3359   19.1605 H   0  0  0  0  0  0
  -30.5975  -12.2173   20.1975 H   0  0  0  0  0  0
  -29.9980  -11.8058   17.7860 H   0  0  0  0  0  0
  -29.5091  -13.4726   17.6041 H   0  0  0  0  0  0
  -28.1501  -11.2958   19.2059 H   0  0  0  0  0  0
  -27.4509  -12.2321   17.9070 H   0  0  0  0  0  0
  -27.4631  -14.2253   19.2450 H   0  0  0  0  0  0
  -28.8758  -12.7331   21.5058 H   0  0  0  0  0  0
  -28.1912  -14.3362   21.6315 H   0  0  0  0  0  0
  -25.2802   -9.5664   22.4772 H   0  0  0  0  0  0
  -24.0010   -7.4633   22.7481 H   0  0  0  0  0  0
  -21.0872   -8.8816   19.8956 H   0  0  0  0  0  0
  -22.3769  -10.9686   19.6167 H   0  0  0  0  0  0
  -21.2023   -7.6159   23.9731 H   0  0  0  0  0  0
  -21.1464   -6.0521   25.9079 H   0  0  0  0  0  0
  -22.0601   -2.7621   23.2839 H   0  0  0  0  0  0
  -22.4021  -11.9821   22.4869 H   0  0  0  0  0  0
  -21.1003  -13.1157   22.2665 H   0  0  0  0  0  0
  -24.6189  -15.8468   20.5396 H   0  0  0  0  0  0
  -26.2276  -15.6468   20.0687 H   0  0  0  0  0  0
  -26.7500  -32.4915   23.0758 H   0  0  0  0  0  0
  -25.0091  -33.9318   25.0064 H   0  0  0  0  0  0
  -22.8396  -31.2389   21.3126 H   0  0  0  0  0  0
  -23.3774  -35.9436   23.3257 H   0  0  0  0  0  0
  -24.3574  -36.8854   22.2080 H   0  0  0  0  0  0
  -23.7216  -37.6287   23.6765 H   0  0  0  0  0  0
  -26.3003  -31.2518   20.6286 H   0  0  0  0  0  0
  -26.9443  -30.5929   22.0831 H   0  0  0  0  0  0
  -28.1650  -28.3675   21.3238 H   0  0  0  0  0  0
  -25.8318  -25.6125   18.9997 H   0  0  0  0  0  0
  -24.0317  -27.2179   18.9308 H   0  0  0  0  0  0
  -23.9468  -30.4572   19.3787 H   0  0  0  0  0  0
  -22.8713  -29.1662   19.8112 H   0  0  0  0  0  0
  -25.1354  -36.1633   25.0773 H   0  0  0  0  0  0
  -21.0078  -28.3396   24.1261 H   0  0  0  0  0  0
  -20.5682  -26.2400   23.3663 H   0  0  0  0  0  0
  -21.6671  -26.7380   22.1213 H   0  0  0  0  0  0
  -19.6945  -25.6266   21.1291 H   0  0  0  0  0  0
  -19.6736  -27.3144   20.6722 H   0  0  0  0  0  0
  -17.4243  -26.6706   21.4018 H   0  0  0  0  0  0
  -18.0350  -26.0126   22.9035 H   0  0  0  0  0  0
  -19.7996  -30.7353   24.2154 H   0  0  0  0  0  0
  -17.5061  -31.6283   24.5166 H   0  0  0  0  0  0
  -15.5395  -30.2968   23.7732 H   0  0  0  0  0  0
  -15.8726  -28.0812   22.7118 H   0  0  0  0  0  0
  -24.5870  -30.7154   25.7572 H   0  0  0  0  0  0
  -24.8828  -32.3038   26.4510 H   0  0  0  0  0  0
  -25.7830  -30.9099   27.0190 H   0  0  0  0  0  0
  -26.3268  -29.6433   24.1582 H   0  0  0  0  0  0
  -27.3981  -29.7298   25.5331 H   0  0  0  0  0  0
  -27.9245  -30.3973   24.0119 H   0  0  0  0  0  0
  -27.2597  -33.3743   26.1846 H   0  0  0  0  0  0
  -28.3967  -32.6791   25.0388 H   0  0  0  0  0  0
  -28.0597  -31.8627   26.5576 H   0  0  0  0  0  0
  -28.2532  -38.0058   24.7541 H   0  0  0  0  0  0
  -28.1099  -36.2580   24.6261 H   0  0  0  0  0  0
  -27.2288  -37.1319   25.8874 H   0  0  0  0  0  0
  -20.9719  -29.8682   21.6520 H   0  0  0  0  0  0
  -26.0076  -38.2690   24.1460 H   0  0  0  0  0  0
  -28.9837  -19.1067   23.4277 H   0  0  0  0  0  0
  -30.6706  -19.5990   23.1885 H   0  0  0  0  0  0
  -30.1300  -18.0228   22.6530 H   0  0  0  0  0  0
  -28.4879  -21.4785   23.4222 H   0  0  0  0  0  0
  -28.9437  -22.9647   22.6010 H   0  0  0  0  0  0
  -30.1930  -21.8519   23.1244 H   0  0  0  0  0  0
  -27.0276  -23.6092   20.7962 H   0  0  0  0  0  0
  -27.4273  -23.6859   19.1360 H   0  0  0  0  0  0
  -28.5082  -16.5929   20.2774 H   0  0  0  0  0  0
  1 25  1  0  0  0
  1 30  2  0  0  0
  1 80  1  0  0  0
  2  3  1  0  0  0
  2 25  1  0  0  0
  2 82  1  0  0  0
  2 83  1  0  0  0
  3  4  1  0  0  0
  3 84  1  0  0  0
  3 85  1  0  0  0
  4  5  1  0  0  0
  4 86  1  0  0  0
  4 87  1  0  0  0
  5  6  1  0  0  0
  5 26  1  0  0  0
  5 88  1  0  0  0
  6 25  1  0  0  0
  6 89  1  0  0  0
  6 90  1  0  0  0
  7  8  2  0  0  0
  7 26  1  0  0  0
  7 29  1  0  0  0
  8  9  1  0  0  0
  8 22  1  0  0  0
  9 10  1  0  0  0
  9 27  2  0  0  0
 10 11  2  0  0  0
 10 15  1  0  0  0
 11 12  1  0  0  0
 11 91  1  0  0  0
 12 13  2  0  0  0
 12 92  1  0  0  0
 13 14  1  0  0  0
 13 31  1  0  0  0
 14 15  2  0  0  0
 14 93  1  0  0  0
 15 94  1  0  0  0
 16 17  2  0  0  0
 16 21  1  0  0  0
 16 31  1  0  0  0
 17 18  1  0  0  0
 17 95  1  0  0  0
 18 19  2  0  0  0
 18 96  1  0  0  0
 19 20  1  0  0  0
 19 24  1  0  0  0
 20 21  2  0  0  0
 20 97  1  0  0  0
 21 23  1  0  0  0
 22 28  1  0  0  0
 22 32  2  0  0  0
 26 27  1  0  0  0
 28 98  1  0  0  0
 28 99  1  0  0  0
 29100  1  0  0  0
 29101  1  0  0  0
 33 34  1  0  0  0
 33 66  1  0  0  0
 33 70  2  0  0  0
 34 36  1  0  0  0
 34 59  1  0  0  0
 34102  1  0  0  0
 35 44  2  0  0  0
 35 45  1  0  0  0
 35 68  1  0  0  0
 36 56  1  0  0  0
 36103  1  0  0  0
 37 39  1  0  0  0
 37 47  1  0  0  0
 37 66  1  0  0  0
 37104  1  0  0  0
 38 43  2  0  0  0
 38 46  1  0  0  0
 38 47  1  0  0  0
 39 64  1  0  0  0
 39 67  2  0  0  0
 40 52  1  0  0  0
 40 53  2  0  0  0
 40 58  1  0  0  0
 41105  1  0  0  0
 41106  1  0  0  0
 41107  1  0  0  0
 41 48  1  0  0  0
 42 43  1  0  0  0
 42 66  1  0  0  0
 42108  1  0  0  0
 42109  1  0  0  0
 43 44  1  0  0  0
 44110  1  0  0  0
 45 46  2  0  0  0
 45111  1  0  0  0
 46112  1  0  0  0
 47113  1  0  0  0
 47114  1  0  0  0
 48 56  1  0  0  0
 48 65  1  0  0  0
 48115  1  0  0  0
 49 50  1  0  0  0
 49 53  1  0  0  0
 49 64  1  0  0  0
 49116  1  0  0  0
 50 51  1  0  0  0
 50117  1  0  0  0
 50118  1  0  0  0
 51 52  1  0  0  0
 51119  1  0  0  0
 51120  1  0  0  0
 52121  1  0  0  0
 52122  1  0  0  0
 53 54  1  0  0  0
 54 55  2  0  0  0
 54123  1  0  0  0
 55 57  1  0  0  0
 55124  1  0  0  0
 56 69  2  0  0  0
 57 58  2  0  0  0
 57125  1  0  0  0
 58126  1  0  0  0
 59 60  1  0  0  0
 59 61  1  0  0  0
 59 62  1  0  0  0
 60127  1  0  0  0
 60128  1  0  0  0
 60129  1  0  0  0
 61130  1  0  0  0
 61131  1  0  0  0
 61132  1  0  0  0
 62133  1  0  0  0
 62134  1  0  0  0
 62135  1  0  0  0
 63 65  1  0  0  0
 63136  1  0  0  0
 63137  1  0  0  0
 63138  1  0  0  0
 64139  1  0  0  0
 65140  1  0  0  0
 68 78  1  0  0  0
 71 72  2  0  0  0
 71 73  1  0  0  0
 71 76  1  0  0  0
 72 74  1  0  0  0
 72 77  1  0  0  0
 73 75  2  0  0  0
 73 80  1  0  0  0
 74 78  1  0  0  0
 74 79  2  0  0  0
 75 79  1  0  0  0
 75 81  1  0  0  0
 76141  1  0  0  0
 76142  1  0  0  0
 76143  1  0  0  0
 77144  1  0  0  0
 77145  1  0  0  0
 77146  1  0  0  0
 78147  1  0  0  0
 78148  1  0  0  0
 80149  1  0  0  0
M  ISO  4   1 100  68 101  78 101  80 100
M  END
> <chiral flag>
0

> <version>
0

> <s_m_source_file>
/data/baiqing/PycharmProjects/Reinvent-master-3.2/result/LINK_invent/BTK/process_docking_weight1_custom_sum_contain_oxygen_bond_distance_aromatic_linkinvent_7_9_3/rearranged_h_0017.sdf

> <i_m_source_file_index>
39

> <r_mmod_Potential_Energy-OPLS-2005>
2175.7041015625

> <r_mmod_Stretch_Energy-OPLS-2005>
953.98876953125

> <r_mmod_Bend_Energy-OPLS-2005>
663.899353027344

> <r_mmod_Torsional_Energy-OPLS-2005>
256.690490722656

> <r_mmod_Improper_Torsional_Energy-OPLS-2005>
10.0653085708618

> <r_mmod_Van_der_Waal_Energy-OPLS-2005>
132.968566894531

> <r_mmod_Electrostatic_Energy-OPLS-2005>
-516.292663574219

> <r_mmod_Solvation_Energy-OPLS-2005>
-225.780410766602

> <b_mmod_Minimization_Converged-OPLS-2005>
0

> <r_mmod_RMS_Derivative-OPLS-2005>
1.25017464160919

$$$$
39
                    3D
 Structure written by MMmdl.
161169  0  0  1  0            999 V2000
  -30.6917  -14.5160   20.4909 C   0  0  0  0  0  0
  -30.4119  -12.3222   19.4256 C   0  0  0  0  0  0
  -29.4761  -12.4889   18.2112 C   0  0  0  0  0  0
  -28.0078  -12.3239   18.6395 C   0  0  0  0  0  0
  -27.6512  -13.1883   19.8774 C   0  0  2  0  0  0
  -28.7033  -13.0392   20.9993 C   0  0  0  0  0  0
  -25.2599  -13.8093   20.5811 C   0  0  0  0  0  0
  -24.1832  -13.0386   20.9258 C   0  0  0  0  0  0
  -24.6374  -11.6849   20.8798 C   0  0  0  0  0  0
  -23.9049  -10.4247   21.0419 C   0  0  0  0  0  0
  -24.3603   -9.4158   21.9194 C   0  0  0  0  0  0
  -23.6286   -8.2182   22.0730 C   0  0  0  0  0  0
  -22.4267   -8.0249   21.3507 C   0  0  0  0  0  0
  -21.9917   -9.0223   20.4592 C   0  0  0  0  0  0
  -22.7242  -10.2111   20.3027 C   0  0  0  0  0  0
  -21.6839   -6.0735   22.5279 C   0  0  0  0  0  0
  -21.4012   -6.5641   23.8218 C   0  0  0  0  0  0
  -21.3675   -5.6784   24.9181 C   0  0  0  0  0  0
  -21.6037   -4.3044   24.7221 C   0  0  0  0  0  0
  -21.8823   -3.8147   23.4340 C   0  0  0  0  0  0
  -21.9189   -4.6967   22.3411 C   0  0  0  0  0  0
  -22.7853  -13.5176   21.1902 C   0  0  0  0  0  0
  -22.1643   -4.2148   21.0983 F   0  0  0  0  0  0
  -21.5651   -3.4542   25.7743 F   0  0  0  0  0  0
  -30.0190  -13.3375   20.4160 N   0  0  0  0  0  0
  -26.2976  -12.9212   20.3439 N   0  0  0  0  0  0
  -25.9288  -11.6391   20.5847 N   0  0  0  0  0  0
  -22.0506  -12.8135   22.0446 N   0  0  0  0  0  0
  -25.4363  -15.1799   20.4318 N   0  0  0  0  0  0
  -31.8651  -14.6259   20.1315 O   0  0  0  0  0  0
  -21.6600   -6.8872   21.4228 O   0  0  0  0  0  0
  -22.3554  -14.5478   20.6723 O   0  0  0  0  0  0
  -24.6134  -31.8728   23.2096 C   0  0  0  0  0  0
  -25.8999  -32.4846   23.8427 C   0  0  1  0  0  0
  -27.2372  -27.4484   20.0762 C   0  0  0  0  0  0
  -25.5817  -33.8654   24.2319 N   0  0  0  0  0  0
  -23.3996  -30.5006   21.5521 C   0  0  2  0  0  0
  -24.8408  -28.9665   20.1224 C   0  0  0  0  0  0
  -22.7386  -29.4745   22.4991 C   0  0  0  0  0  0
  -18.0309  -28.1478   22.8424 C   0  0  0  0  0  0
  -24.1475  -36.7379   23.2623 C   0  0  0  0  0  0
  -25.9277  -30.8423   21.3579 C   0  0  0  0  0  0
  -26.0023  -29.4757   20.7115 C   0  0  0  0  0  0
  -27.1975  -28.7261   20.6829 C   0  0  0  0  0  0
  -26.0405  -26.9528   19.4942 C   0  0  0  0  0  0
  -24.8534  -27.7049   19.5142 C   0  0  0  0  0  0
  -23.6101  -29.8438   20.1642 C   0  0  0  0  0  0
  -25.4074  -36.3138   24.0342 C   0  0  1  0  0  0
  -20.5869  -28.3802   23.1353 C   0  0  2  0  0  0
  -20.6795  -26.9495   22.5498 C   0  0  0  0  0  0
  -19.5800  -26.6383   21.5253 C   0  0  0  0  0  0
  -18.1962  -26.7969   22.1632 C   0  0  0  0  0  0
  -19.1528  -28.8947   23.2891 C   0  0  0  0  0  0
  -18.9395  -30.1516   23.8954 C   0  0  0  0  0  0
  -17.6358  -30.6593   24.0639 C   0  0  0  0  0  0
  -25.8986  -34.9498   23.5144 C   0  0  0  0  0  0
  -16.5288  -29.9128   23.6288 C   0  0  0  0  0  0
  -16.7285  -28.6599   23.0215 C   0  0  0  0  0  0
  -26.4372  -31.6604   25.0766 C   0  0  0  0  0  0
  -25.3601  -31.3785   26.1503 C   0  0  0  0  0  0
  -27.0145  -30.3045   24.6103 C   0  0  0  0  0  0
  -27.5971  -32.4259   25.7545 C   0  0  0  0  0  0
  -27.5559  -37.1849   24.8452 C   0  0  0  0  0  0
  -21.4112  -29.3166   22.3695 N   0  0  0  0  0  0
  -26.4249  -37.3830   23.9414 N   0  0  0  0  0  0
  -24.6661  -31.0850   22.0990 N   0  0  0  0  0  0
  -23.4127  -28.8250   23.3026 O   0  0  0  0  0  0
  -28.4455  -26.7698   20.0989 O   0  0  0  0  0  0
  -26.5600  -34.8956   22.4719 O   0  0  0  0  0  0
  -23.5312  -32.1442   23.7508 O   0  0  0  0  0  0
  -27.9288  -20.3575   19.2575 C   0  0  0  0  0  0
  -27.6313  -19.0712   18.7839 C   0  0  0  0  0  0
  -29.5147  -18.1497   20.1009 C   0  0  0  0  0  0
  -29.0346  -20.5848   20.1014 C   0  0  0  0  0  0
  -28.4428  -17.9749   19.1743 C   0  0  0  0  0  0
  -29.8157  -19.4811   20.5256 C   0  0  0  0  0  0
  -25.0959  -19.0686   18.5576 C   0  0  0  0  0  0
  -26.4426  -18.9422   17.8326 C   0  0  0  0  0  0
  -30.4612  -16.9994   20.5401 C   0  0  0  0  0  0
  -29.1410  -24.4080   20.4045 C   0  0  0  0  0  0
  -28.8135  -23.0263   19.8027 C   0  0  0  0  0  0
  -28.5993  -25.4998   19.4551 C   0  0  0  0  0  0
  -29.3913  -21.8888   20.5116 N   0  0  0  0  0  0
  -29.9522  -15.6203   20.7432 N   0  0  0  0  0  0
  -28.1508  -16.4464   18.4274 Cl  0  0  0  0  0  0
  -31.1904  -19.8080   21.5368 Cl  0  0  0  0  0  0
  -31.4520  -12.4201   19.1095 H   0  0  0  0  0  0
  -30.3189  -11.3217   19.8545 H   0  0  0  0  0  0
  -29.7197  -11.7579   17.4382 H   0  0  0  0  0  0
  -29.6154  -13.4749   17.7624 H   0  0  0  0  0  0
  -27.8455  -11.2710   18.8715 H   0  0  0  0  0  0
  -27.3379  -12.5531   17.8092 H   0  0  0  0  0  0
  -27.6692  -14.2169   19.5470 H   0  0  0  0  0  0
  -28.6999  -12.0187   21.3869 H   0  0  0  0  0  0
  -28.4796  -13.6914   21.8470 H   0  0  0  0  0  0
  -25.2740   -9.5632   22.4785 H   0  0  0  0  0  0
  -23.9998   -7.4555   22.7438 H   0  0  0  0  0  0
  -21.0861   -8.8738   19.8880 H   0  0  0  0  0  0
  -22.3707  -10.9658   19.6140 H   0  0  0  0  0  0
  -21.1985   -7.6138   23.9745 H   0  0  0  0  0  0
  -21.1500   -6.0492   25.9090 H   0  0  0  0  0  0
  -22.0593   -2.7604   23.2829 H   0  0  0  0  0  0
  -22.4184  -11.9831   22.4848 H   0  0  0  0  0  0
  -21.1089  -13.1060   22.2623 H   0  0  0  0  0  0
  -24.6726  -15.8347   20.5487 H   0  0  0  0  0  0
  -26.2793  -15.6137   20.0802 H   0  0  0  0  0  0
  -26.7138  -32.5510   23.1242 H   0  0  0  0  0  0
  -24.9832  -33.9809   25.0378 H   0  0  0  0  0  0
  -22.6883  -31.3194   21.4135 H   0  0  0  0  0  0
  -23.3678  -35.9764   23.3255 H   0  0  0  0  0  0
  -24.3603  -36.8989   22.2043 H   0  0  0  0  0  0
  -23.7266  -37.6608   23.6626 H   0  0  0  0  0  0
  -26.0176  -31.6008   20.5773 H   0  0  0  0  0  0
  -26.8228  -30.9108   21.9646 H   0  0  0  0  0  0
  -28.0965  -29.1272   21.1291 H   0  0  0  0  0  0
  -25.9587  -25.9982   19.0041 H   0  0  0  0  0  0
  -23.9577  -27.3085   19.0521 H   0  0  0  0  0  0
  -23.7440  -30.6290   19.4184 H   0  0  0  0  0  0
  -22.7311  -29.2793   19.8433 H   0  0  0  0  0  0
  -25.1229  -36.2008   25.0839 H   0  0  0  0  0  0
  -20.9917  -28.3511   24.1510 H   0  0  0  0  0  0
  -20.5653  -26.2433   23.3726 H   0  0  0  0  0  0
  -21.6720  -26.7545   22.1357 H   0  0  0  0  0  0
  -19.6739  -27.3094   20.6711 H   0  0  0  0  0  0
  -19.6952  -25.6256   21.1369 H   0  0  0  0  0  0
  -17.4203  -26.6631   21.4071 H   0  0  0  0  0  0
  -18.0414  -26.0226   22.9151 H   0  0  0  0  0  0
  -19.7814  -30.7377   24.2393 H   0  0  0  0  0  0
  -17.4856  -31.6251   24.5282 H   0  0  0  0  0  0
  -15.5257  -30.2992   23.7549 H   0  0  0  0  0  0
  -15.8745  -28.0910   22.6843 H   0  0  0  0  0  0
  -24.5809  -30.7058   25.7902 H   0  0  0  0  0  0
  -24.8706  -32.2969   26.4805 H   0  0  0  0  0  0
  -25.7918  -30.9112   27.0371 H   0  0  0  0  0  0
  -26.2721  -29.6945   24.0954 H   0  0  0  0  0  0
  -27.3706  -29.7145   25.4550 H   0  0  0  0  0  0
  -27.8637  -30.4377   23.9394 H   0  0  0  0  0  0
  -27.2648  -33.3563   26.2184 H   0  0  0  0  0  0
  -28.3802  -32.6787   25.0385 H   0  0  0  0  0  0
  -28.0612  -31.8307   26.5411 H   0  0  0  0  0  0
  -28.2580  -38.0142   24.7463 H   0  0  0  0  0  0
  -28.1062  -36.2676   24.6281 H   0  0  0  0  0  0
  -27.2332  -37.1522   25.8876 H   0  0  0  0  0  0
  -20.9299  -29.8857   21.6870 H   0  0  0  0  0  0
  -26.0128  -38.2915   24.1382 H   0  0  0  0  0  0
  -27.2942  -21.1611   18.9183 H   0  0  0  0  0  0
  -25.0022  -18.3277   19.3518 H   0  0  0  0  0  0
  -24.2662  -18.9272   17.8653 H   0  0  0  0  0  0
  -24.9767  -20.0554   19.0049 H   0  0  0  0  0  0
  -26.4748  -18.0177   17.2615 H   0  0  0  0  0  0
  -26.5053  -19.7360   17.0849 H   0  0  0  0  0  0
  -30.9596  -17.2468   21.4778 H   0  0  0  0  0  0
  -31.2450  -16.9980   19.7807 H   0  0  0  0  0  0
  -30.2162  -24.5403   20.5444 H   0  0  0  0  0  0
  -28.6760  -24.5026   21.3879 H   0  0  0  0  0  0
  -29.1352  -22.9891   18.7605 H   0  0  0  0  0  0
  -27.7270  -22.9388   19.8029 H   0  0  0  0  0  0
  -27.6996  -25.1162   18.9962 H   0  0  0  0  0  0
  -29.2938  -25.6155   18.6223 H   0  0  0  0  0  0
  -30.3517  -21.9811   20.8330 H   0  0  0  0  0  0
  -28.9889  -15.5054   21.0171 H   0  0  0  0  0  0
  1 25  1  0  0  0
  1 30  2  0  0  0
  1 84  1  0  0  0
  2  3  1  0  0  0
  2 25  1  0  0  0
  2 87  1  0  0  0
  2 88  1  0  0  0
  3  4  1  0  0  0
  3 89  1  0  0  0
  3 90  1  0  0  0
  4  5  1  0  0  0
  4 91  1  0  0  0
  4 92  1  0  0  0
  5  6  1  0  0  0
  5 26  1  0  0  0
  5 93  1  0  0  0
  6 25  1  0  0  0
  6 94  1  0  0  0
  6 95  1  0  0  0
  7  8  2  0  0  0
  7 26  1  0  0  0
  7 29  1  0  0  0
  8  9  1  0  0  0
  8 22  1  0  0  0
  9 10  1  0  0  0
  9 27  2  0  0  0
 10 11  2  0  0  0
 10 15  1  0  0  0
 11 12  1  0  0  0
 11 96  1  0  0  0
 12 13  2  0  0  0
 12 97  1  0  0  0
 13 14  1  0  0  0
 13 31  1  0  0  0
 14 15  2  0  0  0
 14 98  1  0  0  0
 15 99  1  0  0  0
 16 17  2  0  0  0
 16 21  1  0  0  0
 16 31  1  0  0  0
 17 18  1  0  0  0
 17100  1  0  0  0
 18 19  2  0  0  0
 18101  1  0  0  0
 19 20  1  0  0  0
 19 24  1  0  0  0
 20 21  2  0  0  0
 20102  1  0  0  0
 21 23  1  0  0  0
 22 28  1  0  0  0
 22 32  2  0  0  0
 26 27  1  0  0  0
 28103  1  0  0  0
 28104  1  0  0  0
 29105  1  0  0  0
 29106  1  0  0  0
 33 34  1  0  0  0
 33 66  1  0  0  0
 33 70  2  0  0  0
 34 36  1  0  0  0
 34 59  1  0  0  0
 34107  1  0  0  0
 35 44  2  0  0  0
 35 45  1  0  0  0
 35 68  1  0  0  0
 36 56  1  0  0  0
 36108  1  0  0  0
 37 39  1  0  0  0
 37 47  1  0  0  0
 37 66  1  0  0  0
 37109  1  0  0  0
 38 43  2  0  0  0
 38 46  1  0  0  0
 38 47  1  0  0  0
 39 64  1  0  0  0
 39 67  2  0  0  0
 40 52  1  0  0  0
 40 53  2  0  0  0
 40 58  1  0  0  0
 41110  1  0  0  0
 41111  1  0  0  0
 41112  1  0  0  0
 41 48  1  0  0  0
 42 43  1  0  0  0
 42 66  1  0  0  0
 42113  1  0  0  0
 42114  1  0  0  0
 43 44  1  0  0  0
 44115  1  0  0  0
 45 46  2  0  0  0
 45116  1  0  0  0
 46117  1  0  0  0
 47118  1  0  0  0
 47119  1  0  0  0
 48 56  1  0  0  0
 48 65  1  0  0  0
 48120  1  0  0  0
 49 50  1  0  0  0
 49 53  1  0  0  0
 49 64  1  0  0  0
 49121  1  0  0  0
 50 51  1  0  0  0
 50122  1  0  0  0
 50123  1  0  0  0
 51 52  1  0  0  0
 51124  1  0  0  0
 51125  1  0  0  0
 52126  1  0  0  0
 52127  1  0  0  0
 53 54  1  0  0  0
 54 55  2  0  0  0
 54128  1  0  0  0
 55 57  1  0  0  0
 55129  1  0  0  0
 56 69  2  0  0  0
 57 58  2  0  0  0
 57130  1  0  0  0
 58131  1  0  0  0
 59 60  1  0  0  0
 59 61  1  0  0  0
 59 62  1  0  0  0
 60132  1  0  0  0
 60133  1  0  0  0
 60134  1  0  0  0
 61135  1  0  0  0
 61136  1  0  0  0
 61137  1  0  0  0
 62138  1  0  0  0
 62139  1  0  0  0
 62140  1  0  0  0
 63 65  1  0  0  0
 63141  1  0  0  0
 63142  1  0  0  0
 63143  1  0  0  0
 64144  1  0  0  0
 65145  1  0  0  0
 68 82  1  0  0  0
 71 72  2  0  0  0
 71 74  1  0  0  0
 71146  1  0  0  0
 72 75  1  0  0  0
 72 78  1  0  0  0
 73 75  2  0  0  0
 73 76  1  0  0  0
 73 79  1  0  0  0
 74 76  2  0  0  0
 74 83  1  0  0  0
 75 85  1  0  0  0
 76 86  1  0  0  0
 77 78  1  0  0  0
 77147  1  0  0  0
 77148  1  0  0  0
 77149  1  0  0  0
 78150  1  0  0  0
 78151  1  0  0  0
 79 84  1  0  0  0
 79152  1  0  0  0
 79153  1  0  0  0
 80 81  1  0  0  0
 80 82  1  0  0  0
 80154  1  0  0  0
 80155  1  0  0  0
 81 83  1  0  0  0
 81156  1  0  0  0
 81157  1  0  0  0
 82158  1  0  0  0
 82159  1  0  0  0
 83160  1  0  0  0
 84161  1  0  0  0
M  ISO  4   1 100  68 101  82 101  84 100
M  END
> <chiral flag>
0

> <version>
0

> <s_m_source_file>
/data/baiqing/PycharmProjects/Reinvent-master-3.2/result/LINK_invent/BTK/process_docking_weight1_custom_sum_contain_oxygen_bond_distance_aromatic_linkinvent_7_9_3/rearranged_h_0017.sdf

> <i_m_source_file_index>
40

> <r_mmod_Potential_Energy-OPLS-2005>
-15.3933324813843

> <r_mmod_Stretch_Energy-OPLS-2005>
41.9252014160156

> <r_mmod_Bend_Energy-OPLS-2005>
124.276428222656

> <r_mmod_Torsional_Energy-OPLS-2005>
195.55046081543

> <r_mmod_Improper_Torsional_Energy-OPLS-2005>
8.99638557434082

> <r_mmod_Van_der_Waal_Energy-OPLS-2005>
175.538040161133

> <r_mmod_Electrostatic_Energy-OPLS-2005>
-376.783172607422

> <r_mmod_Solvation_Energy-OPLS-2005>
-205.481903076172

> <b_mmod_Minimization_Converged-OPLS-2005>
0

> <r_mmod_RMS_Derivative-OPLS-2005>
6.10695219039917

$$$$
40
                    3D
 Structure written by MMmdl.
165173  0  0  1  0            999 V2000
  -30.4767  -15.1153   20.3998 C   0  0  0  0  0  0
  -30.4426  -12.7076   19.4953 C   0  0  0  0  0  0
  -29.5261  -12.5567   18.2575 C   0  0  0  0  0  0
  -28.0646  -12.3129   18.6786 C   0  0  0  0  0  0
  -27.6178  -13.2609   19.8210 C   0  0  2  0  0  0
  -28.6605  -13.3627   20.9517 C   0  0  0  0  0  0
  -25.2429  -13.8227   20.5705 C   0  0  0  0  0  0
  -24.1768  -13.0432   20.9244 C   0  0  0  0  0  0
  -24.6404  -11.6925   20.8748 C   0  0  0  0  0  0
  -23.9085  -10.4285   21.0392 C   0  0  0  0  0  0
  -24.3630   -9.4202   21.9176 C   0  0  0  0  0  0
  -23.6297   -8.2241   22.0749 C   0  0  0  0  0  0
  -22.4281   -8.0275   21.3539 C   0  0  0  0  0  0
  -21.9923   -9.0248   20.4639 C   0  0  0  0  0  0
  -22.7253  -10.2127   20.3040 C   0  0  0  0  0  0
  -21.6856   -6.0729   22.5275 C   0  0  0  0  0  0
  -21.4014   -6.5635   23.8207 C   0  0  0  0  0  0
  -21.3661   -5.6788   24.9169 C   0  0  0  0  0  0
  -21.6046   -4.3052   24.7219 C   0  0  0  0  0  0
  -21.8823   -3.8142   23.4341 C   0  0  0  0  0  0
  -21.9198   -4.6957   22.3398 C   0  0  0  0  0  0
  -22.7788  -13.5196   21.1895 C   0  0  0  0  0  0
  -22.1668   -4.2145   21.0973 F   0  0  0  0  0  0
  -21.5630   -3.4537   25.7735 F   0  0  0  0  0  0
  -29.9087  -13.8285   20.3321 N   0  0  0  0  0  0
  -26.2843  -12.9477   20.3177 N   0  0  0  0  0  0
  -25.9336  -11.6595   20.5694 N   0  0  0  0  0  0
  -22.0449  -12.8163   22.0441 N   0  0  0  0  0  0
  -25.4077  -15.1953   20.4124 N   0  0  0  0  0  0
  -31.6996  -15.1573   20.2165 O   0  0  0  0  0  0
  -21.6645   -6.8871   21.4238 O   0  0  0  0  0  0
  -22.3463  -14.5497   20.6738 O   0  0  0  0  0  0
  -24.6528  -31.8333   23.1740 C   0  0  0  0  0  0
  -25.9253  -32.4640   23.8162 C   0  0  1  0  0  0
  -27.2280  -27.0212   20.1624 C   0  0  0  0  0  0
  -25.5977  -33.8450   24.2095 N   0  0  0  0  0  0
  -23.4627  -30.4461   21.5244 C   0  0  2  0  0  0
  -24.9150  -28.8480   20.1124 C   0  0  0  0  0  0
  -22.7615  -29.4488   22.4820 C   0  0  0  0  0  0
  -18.0323  -28.1377   22.8485 C   0  0  0  0  0  0
  -24.1506  -36.7216   23.2643 C   0  0  0  0  0  0
  -26.0263  -30.6666   21.3923 C   0  0  0  0  0  0
  -26.0971  -29.2654   20.7385 C   0  0  0  0  0  0
  -27.2478  -28.3713   20.7430 C   0  0  0  0  0  0
  -26.0079  -26.7290   19.5088 C   0  0  0  0  0  0
  -24.8909  -27.5970   19.4802 C   0  0  0  0  0  0
  -23.6969  -29.7647   20.1500 C   0  0  0  0  0  0
  -25.4147  -36.2993   24.0303 C   0  0  1  0  0  0
  -20.5939  -28.3724   23.1218 C   0  0  2  0  0  0
  -20.6817  -26.9421   22.5406 C   0  0  0  0  0  0
  -19.5799  -26.6366   21.5219 C   0  0  0  0  0  0
  -18.1972  -26.7919   22.1616 C   0  0  0  0  0  0
  -19.1581  -28.8868   23.2848 C   0  0  0  0  0  0
  -18.9500  -30.1465   23.8876 C   0  0  0  0  0  0
  -17.6498  -30.6589   24.0557 C   0  0  0  0  0  0
  -25.9091  -34.9383   23.5007 C   0  0  0  0  0  0
  -16.5389  -29.9078   23.6348 C   0  0  0  0  0  0
  -16.7307  -28.6492   23.0376 C   0  0  0  0  0  0
  -26.4529  -31.6541   25.0650 C   0  0  0  0  0  0
  -25.3654  -31.3771   26.1297 C   0  0  0  0  0  0
  -27.0404  -30.2918   24.6316 C   0  0  0  0  0  0
  -27.6044  -32.4322   25.7444 C   0  0  0  0  0  0
  -27.5575  -37.1761   24.8468 C   0  0  0  0  0  0
  -21.4294  -29.3037   22.3574 N   0  0  0  0  0  0
  -26.4293  -37.3719   23.9400 N   0  0  0  0  0  0
  -24.7344  -31.0066   22.0840 N   0  0  0  0  0  0
  -23.4212  -28.8041   23.3013 O   0  0  0  0  0  0
  -28.2785  -25.9812   20.2174 O   0  0  0  0  0  0
  -26.5682  -34.8911   22.4588 O   0  0  0  0  0  0
  -23.5620  -32.1270   23.6887 O   0  0  0  0  0  0
  -28.4053  -18.7997   20.9634 C   0  0  0  0  0  0
  -28.0979  -20.2949   20.2961 C   0  0  0  0  0  0
  -30.4548  -20.6113   20.1777 C   0  0  0  0  0  0
  -30.5046  -18.9824   19.8108 C   0  0  1  0  0  0
  -29.7765  -17.9301   20.7781 C   0  0  1  0  0  0
  -30.2204  -18.6726   18.3297 C   0  0  0  0  0  0
  -30.5244  -17.9727   22.1262 C   0  0  0  0  0  0
  -28.8214  -22.2696   18.0422 C   0  0  0  0  0  0
  -28.3820  -24.9957   18.2698 C   0  0  0  0  0  0
  -29.0281  -22.8193   19.4935 C   0  0  1  0  0  0
  -28.2075  -24.4333   19.7251 C   0  0  2  0  0  0
  -29.6626  -16.3209   20.4757 N   0  0  0  0  0  0
  -29.1420  -21.4206   20.3591 N   0  3  1  0  0  0
  -31.4653  -12.9039   19.1714 H   0  0  0  0  0  0
  -30.4818  -11.7795   20.0680 H   0  0  0  0  0  0
  -29.8756  -11.7433   17.6203 H   0  0  0  0  0  0
  -29.5839  -13.4622   17.6508 H   0  0  0  0  0  0
  -27.9818  -11.2757   19.0050 H   0  0  0  0  0  0
  -27.4011  -12.4160   17.8186 H   0  0  0  0  0  0
  -27.5536  -14.2461   19.3597 H   0  0  0  0  0  0
  -28.7936  -12.4069   21.4592 H   0  0  0  0  0  0
  -28.3297  -14.0771   21.7071 H   0  0  0  0  0  0
  -25.2779   -9.5683   22.4745 H   0  0  0  0  0  0
  -24.0011   -7.4631   22.7466 H   0  0  0  0  0  0
  -21.0858   -8.8755   19.8939 H   0  0  0  0  0  0
  -22.3704  -10.9659   19.6137 H   0  0  0  0  0  0
  -21.1999   -7.6142   23.9706 H   0  0  0  0  0  0
  -21.1484   -6.0518   25.9070 H   0  0  0  0  0  0
  -22.0602   -2.7603   23.2843 H   0  0  0  0  0  0
  -22.4097  -11.9831   22.4820 H   0  0  0  0  0  0
  -21.1054  -13.1149   22.2638 H   0  0  0  0  0  0
  -24.6309  -15.8409   20.5064 H   0  0  0  0  0  0
  -26.2352  -15.6310   20.0296 H   0  0  0  0  0  0
  -26.7310  -32.5213   23.0866 H   0  0  0  0  0  0
  -25.0139  -33.9557   25.0253 H   0  0  0  0  0  0
  -22.7723  -31.2758   21.3568 H   0  0  0  0  0  0
  -23.3798  -35.9519   23.3291 H   0  0  0  0  0  0
  -24.3582  -36.8865   22.2060 H   0  0  0  0  0  0
  -23.7238  -37.6394   23.6691 H   0  0  0  0  0  0
  -26.1973  -31.4121   20.6141 H   0  0  0  0  0  0
  -26.8913  -30.7202   22.0408 H   0  0  0  0  0  0
  -28.1441  -28.6957   21.2532 H   0  0  0  0  0  0
  -25.8868  -25.7697   19.0288 H   0  0  0  0  0  0
  -23.9913  -27.2701   18.9751 H   0  0  0  0  0  0
  -23.8414  -30.5343   19.3912 H   0  0  0  0  0  0
  -22.8093  -29.2103   19.8400 H   0  0  0  0  0  0
  -25.1344  -36.1800   25.0799 H   0  0  0  0  0  0
  -21.0046  -28.3329   24.1332 H   0  0  0  0  0  0
  -20.5717  -26.2340   23.3630 H   0  0  0  0  0  0
  -21.6684  -26.7421   22.1202 H   0  0  0  0  0  0
  -19.6975  -25.6267   21.1278 H   0  0  0  0  0  0
  -19.6746  -27.3165   20.6741 H   0  0  0  0  0  0
  -17.4250  -26.6693   21.4007 H   0  0  0  0  0  0
  -18.0354  -26.0034   22.8982 H   0  0  0  0  0  0
  -19.7980  -30.7293   24.2223 H   0  0  0  0  0  0
  -17.5057  -31.6281   24.5152 H   0  0  0  0  0  0
  -15.5390  -30.2978   23.7682 H   0  0  0  0  0  0
  -15.8706  -28.0808   22.7090 H   0  0  0  0  0  0
  -24.5927  -30.7015   25.7603 H   0  0  0  0  0  0
  -24.8720  -32.2950   26.4495 H   0  0  0  0  0  0
  -25.7874  -30.9105   27.0202 H   0  0  0  0  0  0
  -26.3028  -29.6617   24.1327 H   0  0  0  0  0  0
  -27.3991  -29.7252   25.4918 H   0  0  0  0  0  0
  -27.8947  -30.4127   23.9656 H   0  0  0  0  0  0
  -27.2664  -33.3723   26.1812 H   0  0  0  0  0  0
  -28.3942  -32.6709   25.0312 H   0  0  0  0  0  0
  -28.0590  -31.8558   26.5511 H   0  0  0  0  0  0
  -28.2567  -38.0078   24.7519 H   0  0  0  0  0  0
  -28.1093  -36.2600   24.6299 H   0  0  0  0  0  0
  -27.2271  -37.1396   25.8863 H   0  0  0  0  0  0
  -20.9504  -29.8714   21.6722 H   0  0  0  0  0  0
  -26.0160  -38.2777   24.1434 H   0  0  0  0  0  0
  -27.5831  -18.1598   20.6423 H   0  0  0  0  0  0
  -28.2237  -18.9073   22.0338 H   0  0  0  0  0  0
  -27.1846  -20.6847   20.7445 H   0  0  0  0  0  0
  -27.8360  -20.1331   19.2531 H   0  0  0  0  0  0
  -31.0847  -21.1261   19.4525 H   0  0  0  0  0  0
  -30.9972  -20.7446   21.1127 H   0  0  0  0  0  0
  -31.5654  -18.7415   19.9002 H   0  0  0  0  0  0
  -29.1703  -18.7831   18.0664 H   0  0  0  0  0  0
  -30.5059  -17.6471   18.0922 H   0  0  0  0  0  0
  -30.8008  -19.3224   17.6740 H   0  0  0  0  0  0
  -30.5897  -18.9797   22.5359 H   0  0  0  0  0  0
  -31.5443  -17.6005   22.0252 H   0  0  0  0  0  0
  -30.0247  -17.3579   22.8756 H   0  0  0  0  0  0
  -29.2619  -22.8844   17.2594 H   0  0  0  0  0  0
  -27.7650  -22.1205   17.8168 H   0  0  0  0  0  0
  -29.3106  -21.3119   17.8814 H   0  0  0  0  0  0
  -29.4224  -24.9279   17.9527 H   0  0  0  0  0  0
  -28.1337  -26.0358   18.0672 H   0  0  0  0  0  0
  -27.7456  -24.4706   17.5602 H   0  0  0  0  0  0
  -30.0769  -23.1229   19.4983 H   0  0  0  0  0  0
  -29.0116  -24.5371   20.4526 H   0  0  0  0  0  0
  -28.6932  -16.0423   20.4498 H   0  0  0  0  0  0
  -29.1638  -21.7190   21.3246 H   0  0  0  0  0  0
  1 25  1  0  0  0
  1 30  2  0  0  0
  1 82  1  0  0  0
  2  3  1  0  0  0
  2 25  1  0  0  0
  2 84  1  0  0  0
  2 85  1  0  0  0
  3  4  1  0  0  0
  3 86  1  0  0  0
  3 87  1  0  0  0
  4  5  1  0  0  0
  4 88  1  0  0  0
  4 89  1  0  0  0
  5  6  1  0  0  0
  5 26  1  0  0  0
  5 90  1  0  0  0
  6 25  1  0  0  0
  6 91  1  0  0  0
  6 92  1  0  0  0
  7  8  2  0  0  0
  7 26  1  0  0  0
  7 29  1  0  0  0
  8  9  1  0  0  0
  8 22  1  0  0  0
  9 10  1  0  0  0
  9 27  2  0  0  0
 10 11  2  0  0  0
 10 15  1  0  0  0
 11 12  1  0  0  0
 11 93  1  0  0  0
 12 13  2  0  0  0
 12 94  1  0  0  0
 13 14  1  0  0  0
 13 31  1  0  0  0
 14 15  2  0  0  0
 14 95  1  0  0  0
 15 96  1  0  0  0
 16 17  2  0  0  0
 16 21  1  0  0  0
 16 31  1  0  0  0
 17 18  1  0  0  0
 17 97  1  0  0  0
 18 19  2  0  0  0
 18 98  1  0  0  0
 19 20  1  0  0  0
 19 24  1  0  0  0
 20 21  2  0  0  0
 20 99  1  0  0  0
 21 23  1  0  0  0
 22 28  1  0  0  0
 22 32  2  0  0  0
 26 27  1  0  0  0
 28100  1  0  0  0
 28101  1  0  0  0
 29102  1  0  0  0
 29103  1  0  0  0
 33 34  1  0  0  0
 33 66  1  0  0  0
 33 70  2  0  0  0
 34 36  1  0  0  0
 34 59  1  0  0  0
 34104  1  0  0  0
 35 44  2  0  0  0
 35 45  1  0  0  0
 35 68  1  0  0  0
 36 56  1  0  0  0
 36105  1  0  0  0
 37 39  1  0  0  0
 37 47  1  0  0  0
 37 66  1  0  0  0
 37106  1  0  0  0
 38 43  2  0  0  0
 38 46  1  0  0  0
 38 47  1  0  0  0
 39 64  1  0  0  0
 39 67  2  0  0  0
 40 52  1  0  0  0
 40 53  2  0  0  0
 40 58  1  0  0  0
 41107  1  0  0  0
 41108  1  0  0  0
 41109  1  0  0  0
 41 48  1  0  0  0
 42 43  1  0  0  0
 42 66  1  0  0  0
 42110  1  0  0  0
 42111  1  0  0  0
 43 44  1  0  0  0
 44112  1  0  0  0
 45 46  2  0  0  0
 45113  1  0  0  0
 46114  1  0  0  0
 47115  1  0  0  0
 47116  1  0  0  0
 48 56  1  0  0  0
 48 65  1  0  0  0
 48117  1  0  0  0
 49 50  1  0  0  0
 49 53  1  0  0  0
 49 64  1  0  0  0
 49118  1  0  0  0
 50 51  1  0  0  0
 50119  1  0  0  0
 50120  1  0  0  0
 51 52  1  0  0  0
 51121  1  0  0  0
 51122  1  0  0  0
 52123  1  0  0  0
 52124  1  0  0  0
 53 54  1  0  0  0
 54 55  2  0  0  0
 54125  1  0  0  0
 55 57  1  0  0  0
 55126  1  0  0  0
 56 69  2  0  0  0
 57 58  2  0  0  0
 57127  1  0  0  0
 58128  1  0  0  0
 59 60  1  0  0  0
 59 61  1  0  0  0
 59 62  1  0  0  0
 60129  1  0  0  0
 60130  1  0  0  0
 60131  1  0  0  0
 61132  1  0  0  0
 61133  1  0  0  0
 61134  1  0  0  0
 62135  1  0  0  0
 62136  1  0  0  0
 62137  1  0  0  0
 63 65  1  0  0  0
 63138  1  0  0  0
 63139  1  0  0  0
 63140  1  0  0  0
 64141  1  0  0  0
 65142  1  0  0  0
 68 81  1  0  0  0
 71 72  1  0  0  0
 71 75  1  0  0  0
 71143  1  0  0  0
 71144  1  0  0  0
 72145  1  0  0  0
 72146  1  0  0  0
 72 83  1  0  0  0
 73 74  1  0  0  0
 73 83  1  0  0  0
 73147  1  0  0  0
 73148  1  0  0  0
 74 75  1  0  0  0
 74 76  1  0  0  0
 74149  1  0  0  0
 75 77  1  0  0  0
 75 82  1  0  0  0
 76150  1  0  0  0
 76151  1  0  0  0
 76152  1  0  0  0
 77153  1  0  0  0
 77154  1  0  0  0
 77155  1  0  0  0
 78156  1  0  0  0
 78157  1  0  0  0
 78158  1  0  0  0
 78 80  1  0  0  0
 79159  1  0  0  0
 79160  1  0  0  0
 79161  1  0  0  0
 79 81  1  0  0  0
 80 81  1  0  0  0
 80 83  1  0  0  0
 80162  1  0  0  0
 81163  1  0  0  0
 82164  1  0  0  0
 83165  1  0  0  0
M  CHG  1  83   1
M  ISO  4   1 100  68 101  81 101  82 100
M  END
> <chiral flag>
0

> <version>
0

> <s_m_source_file>
/data/baiqing/PycharmProjects/Reinvent-master-3.2/result/LINK_invent/BTK/process_docking_weight1_custom_sum_contain_oxygen_bond_distance_aromatic_linkinvent_7_9_3/rearranged_h_0017.sdf

> <i_m_source_file_index>
41

> <r_mmod_Potential_Energy-OPLS-2005>
1259.94738769531

> <r_mmod_Stretch_Energy-OPLS-2005>
463.233947753906

> <r_mmod_Bend_Energy-OPLS-2005>
682.346618652344

> <r_mmod_Torsional_Energy-OPLS-2005>
294.350891113281

> <r_mmod_Improper_Torsional_Energy-OPLS-2005>
4.36540508270264

> <r_mmod_Van_der_Waal_Energy-OPLS-2005>
154.680679321289

> <r_mmod_Electrostatic_Energy-OPLS-2005>
-234.308685302734

> <r_mmod_Solvation_Energy-OPLS-2005>
-424.401794433594

> <b_mmod_Minimization_Converged-OPLS-2005>
0

> <r_mmod_RMS_Derivative-OPLS-2005>
2.1755645275116

$$$$
41
                    3D
 Structure written by MMmdl.
153161  0  0  1  0            999 V2000
  -29.6557  -16.0452   20.3603 C   0  0  0  0  0  0
  -30.2530  -13.5463   19.5742 C   0  0  0  0  0  0
  -29.5155  -12.8139   18.3992 C   0  0  0  0  0  0
  -28.1608  -12.2922   18.8313 C   0  0  0  0  0  0
  -27.5038  -13.3017   19.7837 C   0  0  2  0  0  0
  -28.3915  -13.7990   20.9355 C   0  0  0  0  0  0
  -25.1782  -13.8160   20.5728 C   0  0  0  0  0  0
  -24.1258  -13.0284   20.9329 C   0  0  0  0  0  0
  -24.6113  -11.6835   20.8845 C   0  0  0  0  0  0
  -23.8910  -10.4212   21.0475 C   0  0  0  0  0  0
  -24.3552   -9.4128   21.9178 C   0  0  0  0  0  0
  -23.6236   -8.2184   22.0772 C   0  0  0  0  0  0
  -22.4247   -8.0207   21.3550 C   0  0  0  0  0  0
  -21.9832   -9.0150   20.4663 C   0  0  0  0  0  0
  -22.7146  -10.2027   20.3027 C   0  0  0  0  0  0
  -21.6839   -6.0718   22.5291 C   0  0  0  0  0  0
  -21.3988   -6.5609   23.8221 C   0  0  0  0  0  0
  -21.3681   -5.6773   24.9184 C   0  0  0  0  0  0
  -21.6018   -4.3030   24.7230 C   0  0  0  0  0  0
  -21.8839   -3.8131   23.4354 C   0  0  0  0  0  0
  -21.9169   -4.6949   22.3406 C   0  0  0  0  0  0
  -22.7379  -13.5114   21.2100 C   0  0  0  0  0  0
  -22.1647   -4.2112   21.1005 F   0  0  0  0  0  0
  -21.5635   -3.4539   25.7767 F   0  0  0  0  0  0
  -29.4216  -14.6059   20.2861 N   0  0  0  0  0  0
  -26.2170  -12.9455   20.3046 N   0  0  0  0  0  0
  -25.9028  -11.6576   20.5531 N   0  0  0  0  0  0
  -22.0108  -12.8049   22.0580 N   0  0  0  0  0  0
  -25.3463  -15.1969   20.4363 N   0  0  0  0  0  0
  -30.9313  -16.1481   20.2047 O   0  0  0  0  0  0
  -21.6620   -6.8830   21.4241 O   0  0  0  0  0  0
  -22.3120  -14.5390   20.6845 O   0  0  0  0  0  0
  -24.5786  -31.8452   23.2292 C   0  0  0  0  0  0
  -25.8462  -32.4897   23.8428 C   0  0  1  0  0  0
  -27.1671  -27.4571   20.1875 C   0  0  0  0  0  0
  -25.4806  -33.8479   24.2236 N   0  0  0  0  0  0
  -23.4416  -30.4075   21.6014 C   0  0  2  0  0  0
  -24.8489  -28.9883   20.0133 C   0  0  0  0  0  0
  -22.7328  -29.4780   22.5231 C   0  0  0  0  0  0
  -18.0289  -28.2310   22.7468 C   0  0  0  0  0  0
  -24.1404  -36.6949   23.2699 C   0  0  0  0  0  0
  -25.8564  -30.9266   21.2524 C   0  0  0  0  0  0
  -26.0088  -29.5224   20.6528 C   0  0  0  0  0  0
  -27.1632  -28.7597   20.7253 C   0  0  0  0  0  0
  -26.2104  -27.1084   19.2301 C   0  0  0  0  0  0
  -24.9827  -27.7879   19.2655 C   0  0  0  0  0  0
  -23.5703  -29.7741   20.1562 C   0  0  0  0  0  0
  -25.4074  -36.2897   24.0269 C   0  0  1  0  0  0
  -20.6250  -28.3643   23.0987 C   0  0  2  0  0  0
  -20.5250  -26.8831   22.7428 C   0  0  0  0  0  0
  -19.5257  -26.5966   21.5738 C   0  0  0  0  0  0
  -18.1064  -26.9212   21.9676 C   0  0  0  0  0  0
  -19.1781  -28.9406   23.2058 C   0  0  0  0  0  0
  -18.9587  -30.1531   23.9024 C   0  0  0  0  0  0
  -17.6413  -30.6925   24.0847 C   0  0  0  0  0  0
  -25.8661  -34.9010   23.5211 C   0  0  0  0  0  0
  -16.5316  -29.9997   23.5947 C   0  0  0  0  0  0
  -16.7047  -28.7589   22.9764 C   0  0  0  0  0  0
  -26.3818  -31.6409   25.0219 C   0  0  0  0  0  0
  -25.3383  -31.3486   26.1162 C   0  0  0  0  0  0
  -27.0167  -30.3094   24.5631 C   0  0  0  0  0  0
  -27.5259  -32.4591   25.6739 C   0  0  0  0  0  0
  -27.5533  -37.1550   24.8468 C   0  0  0  0  0  0
  -21.5437  -28.9999   22.1960 N   0  0  0  0  0  0
  -26.4292  -37.3645   23.9305 N   0  0  0  0  0  0
  -24.6400  -31.0246   22.1542 N   0  0  0  0  0  0
  -23.2852  -29.1352   23.5965 O   0  0  0  0  0  0
  -27.8539  -26.4178   20.7656 O   0  0  0  0  0  0
  -26.5707  -34.8632   22.5340 O   0  0  0  0  0  0
  -23.4481  -32.1427   23.6884 O   0  0  0  0  0  0
  -28.0313  -20.2640   19.7123 C   0  0  0  0  0  0
  -26.1857  -20.7265   21.6744 C   0  0  0  0  0  0
  -27.3532  -21.6523   19.8374 C   0  0  0  0  0  0
  -26.4458  -21.9460   20.9309 C   0  0  0  0  0  0
  -27.8955  -18.9647   20.5621 C   0  0  0  0  0  0
  -26.7979  -19.3933   21.4770 C   0  0  0  0  0  0
  -27.3828  -22.8110   18.7489 C   0  0  0  0  0  0
  -25.4254  -23.2878   21.0526 C   0  0  0  0  0  0
  -25.6262  -24.8959   21.4022 C   0  0  0  0  0  0
  -26.8715  -25.8160   21.8391 C   0  0  0  0  0  0
  -28.6042  -17.3098   20.4082 N   0  0  0  0  0  0
  -26.2044  -18.5217   22.2747 F   0  0  0  0  0  0
  -31.1219  -14.0651   19.1540 H   0  0  0  0  0  0
  -30.6750  -12.8793   20.3299 H   0  0  0  0  0  0
  -30.1625  -12.0301   18.0192 H   0  0  0  0  0  0
  -29.3921  -13.5301   17.5947 H   0  0  0  0  0  0
  -28.3021  -11.3702   19.3797 H   0  0  0  0  0  0
  -27.5280  -12.0896   17.9886 H   0  0  0  0  0  0
  -27.2986  -14.1684   19.1485 H   0  0  0  0  0  0
  -28.8179  -12.9908   21.5476 H   0  0  0  0  0  0
  -27.8209  -14.4314   21.6369 H   0  0  0  0  0  0
  -25.2663   -9.5668   22.4753 H   0  0  0  0  0  0
  -23.9964   -7.4586   22.7460 H   0  0  0  0  0  0
  -21.0767   -8.8654   19.8943 H   0  0  0  0  0  0
  -22.3572  -10.9592   19.6153 H   0  0  0  0  0  0
  -21.1990   -7.6114   23.9705 H   0  0  0  0  0  0
  -21.1478   -6.0514   25.9086 H   0  0  0  0  0  0
  -22.0605   -2.7581   23.2880 H   0  0  0  0  0  0
  -22.3744  -11.9798   22.4944 H   0  0  0  0  0  0
  -21.0821  -13.1031   22.2839 H   0  0  0  0  0  0
  -24.5888  -15.8542   20.6081 H   0  0  0  0  0  0
  -26.2124  -15.6575   20.1544 H   0  0  0  0  0  0
  -26.6624  -32.6138   23.1152 H   0  0  0  0  0  0
  -24.7734  -34.0419   24.9228 H   0  0  0  0  0  0
  -22.8359  -31.2799   21.4734 H   0  0  0  0  0  0
  -23.3825  -35.9220   23.3099 H   0  0  0  0  0  0
  -24.3273  -36.8973   22.2184 H   0  0  0  0  0  0
  -23.7107  -37.5832   23.7210 H   0  0  0  0  0  0
  -25.5300  -31.5521   20.3771 H   0  0  0  0  0  0
  -26.6955  -31.4149   21.5292 H   0  0  0  0  0  0
  -28.0547  -29.1176   21.3100 H   0  0  0  0  0  0
  -26.4677  -26.2838   18.5032 H   0  0  0  0  0  0
  -24.1788  -27.4647   18.6126 H   0  0  0  0  0  0
  -23.5391  -30.3884   19.2837 H   0  0  0  0  0  0
  -22.6919  -29.1439   19.9599 H   0  0  0  0  0  0
  -25.1444  -36.1471   25.0783 H   0  0  0  0  0  0
  -21.0764  -28.4569   24.1257 H   0  0  0  0  0  0
  -20.0807  -26.4338   23.6595 H   0  0  0  0  0  0
  -21.5686  -26.4866   22.6349 H   0  0  0  0  0  0
  -19.5789  -25.5514   21.3459 H   0  0  0  0  0  0
  -19.7367  -27.1633   20.6768 H   0  0  0  0  0  0
  -17.4583  -27.0498   21.1093 H   0  0  0  0  0  0
  -17.6357  -26.1275   22.5294 H   0  0  0  0  0  0
  -19.7388  -30.7020   24.4240 H   0  0  0  0  0  0
  -17.4496  -31.6061   24.6058 H   0  0  0  0  0  0
  -15.5223  -30.4265   23.7372 H   0  0  0  0  0  0
  -15.7833  -28.2957   22.6419 H   0  0  0  0  0  0
  -24.5694  -30.6417   25.7599 H   0  0  0  0  0  0
  -24.8017  -32.2621   26.4132 H   0  0  0  0  0  0
  -25.7420  -30.9095   27.0318 H   0  0  0  0  0  0
  -26.2797  -29.5631   24.2255 H   0  0  0  0  0  0
  -27.5464  -29.8302   25.3871 H   0  0  0  0  0  0
  -27.7291  -30.4458   23.7464 H   0  0  0  0  0  0
  -27.1849  -33.4525   26.0329 H   0  0  0  0  0  0
  -28.3138  -32.6613   24.9219 H   0  0  0  0  0  0
  -27.9944  -31.9624   26.5414 H   0  0  0  0  0  0
  -28.2413  -37.9869   24.7565 H   0  0  0  0  0  0
  -28.1130  -36.2430   24.6211 H   0  0  0  0  0  0
  -27.2216  -37.0910   25.8847 H   0  0  0  0  0  0
  -21.5201  -29.0959   21.1369 H   0  0  0  0  0  0
  -25.9769  -38.2612   24.1609 H   0  0  0  0  0  0
  -28.5707  -20.2804   18.8326 H   0  0  0  0  0  0
  -25.3248  -20.9185   22.3288 H   0  0  0  0  0  0
  -28.3704  -23.2639   18.5264 H   0  0  0  0  0  0
  -26.7615  -23.6931   19.0257 H   0  0  0  0  0  0
  -26.8714  -22.5532   17.8011 H   0  0  0  0  0  0
  -24.5824  -22.9285   21.6876 H   0  0  0  0  0  0
  -24.8598  -23.3624   20.1620 H   0  0  0  0  0  0
  -25.0538  -25.0224   22.3307 H   0  0  0  0  0  0
  -24.8642  -25.1755   20.5758 H   0  0  0  0  0  0
  -27.4043  -25.4772   22.7583 H   0  0  0  0  0  0
  -26.1176  -26.5617   22.1925 H   0  0  0  0  0  0
  -29.4245  -17.8148   20.0957 H   0  0  0  0  0  0
  1 25  1  0  0  0
  1 30  2  0  0  0
  1 81  1  0  0  0
  2  3  1  0  0  0
  2 25  1  0  0  0
  2 83  1  0  0  0
  2 84  1  0  0  0
  3  4  1  0  0  0
  3 85  1  0  0  0
  3 86  1  0  0  0
  4  5  1  0  0  0
  4 87  1  0  0  0
  4 88  1  0  0  0
  5  6  1  0  0  0
  5 26  1  0  0  0
  5 89  1  0  0  0
  6 25  1  0  0  0
  6 90  1  0  0  0
  6 91  1  0  0  0
  7  8  2  0  0  0
  7 26  1  0  0  0
  7 29  1  0  0  0
  8  9  1  0  0  0
  8 22  1  0  0  0
  9 10  1  0  0  0
  9 27  2  0  0  0
 10 11  2  0  0  0
 10 15  1  0  0  0
 11 12  1  0  0  0
 11 92  1  0  0  0
 12 13  2  0  0  0
 12 93  1  0  0  0
 13 14  1  0  0  0
 13 31  1  0  0  0
 14 15  2  0  0  0
 14 94  1  0  0  0
 15 95  1  0  0  0
 16 17  2  0  0  0
 16 21  1  0  0  0
 16 31  1  0  0  0
 17 18  1  0  0  0
 17 96  1  0  0  0
 18 19  2  0  0  0
 18 97  1  0  0  0
 19 20  1  0  0  0
 19 24  1  0  0  0
 20 21  2  0  0  0
 20 98  1  0  0  0
 21 23  1  0  0  0
 22 28  1  0  0  0
 22 32  2  0  0  0
 26 27  1  0  0  0
 28 99  1  0  0  0
 28100  1  0  0  0
 29101  1  0  0  0
 29102  1  0  0  0
 33 34  1  0  0  0
 33 66  1  0  0  0
 33 70  2  0  0  0
 34 36  1  0  0  0
 34 59  1  0  0  0
 34103  1  0  0  0
 35 44  2  0  0  0
 35 45  1  0  0  0
 35 68  1  0  0  0
 36 56  1  0  0  0
 36104  1  0  0  0
 37 39  1  0  0  0
 37 47  1  0  0  0
 37 66  1  0  0  0
 37105  1  0  0  0
 38 43  2  0  0  0
 38 46  1  0  0  0
 38 47  1  0  0  0
 39 64  1  0  0  0
 39 67  2  0  0  0
 40 52  1  0  0  0
 40 53  2  0  0  0
 40 58  1  0  0  0
 41106  1  0  0  0
 41107  1  0  0  0
 41108  1  0  0  0
 41 48  1  0  0  0
 42 43  1  0  0  0
 42 66  1  0  0  0
 42109  1  0  0  0
 42110  1  0  0  0
 43 44  1  0  0  0
 44111  1  0  0  0
 45 46  2  0  0  0
 45112  1  0  0  0
 46113  1  0  0  0
 47114  1  0  0  0
 47115  1  0  0  0
 48 56  1  0  0  0
 48 65  1  0  0  0
 48116  1  0  0  0
 49 50  1  0  0  0
 49 53  1  0  0  0
 49 64  1  0  0  0
 49117  1  0  0  0
 50 51  1  0  0  0
 50118  1  0  0  0
 50119  1  0  0  0
 51 52  1  0  0  0
 51120  1  0  0  0
 51121  1  0  0  0
 52122  1  0  0  0
 52123  1  0  0  0
 53 54  1  0  0  0
 54 55  2  0  0  0
 54124  1  0  0  0
 55 57  1  0  0  0
 55125  1  0  0  0
 56 69  2  0  0  0
 57 58  2  0  0  0
 57126  1  0  0  0
 58127  1  0  0  0
 59 60  1  0  0  0
 59 61  1  0  0  0
 59 62  1  0  0  0
 60128  1  0  0  0
 60129  1  0  0  0
 60130  1  0  0  0
 61131  1  0  0  0
 61132  1  0  0  0
 61133  1  0  0  0
 62134  1  0  0  0
 62135  1  0  0  0
 62136  1  0  0  0
 63 65  1  0  0  0
 63137  1  0  0  0
 63138  1  0  0  0
 63139  1  0  0  0
 64140  1  0  0  0
 65141  1  0  0  0
 68 80  1  0  0  0
 71 73  2  0  0  0
 71 75  1  0  0  0
 71142  1  0  0  0
 72 74  2  0  0  0
 72 76  1  0  0  0
 72143  1  0  0  0
 73 74  1  0  0  0
 73 77  1  0  0  0
 74 78  1  0  0  0
 75 76  2  0  0  0
 75 81  1  0  0  0
 76 82  1  0  0  0
 77144  1  0  0  0
 77145  1  0  0  0
 77146  1  0  0  0
 78 79  1  0  0  0
 78147  1  0  0  0
 78148  1  0  0  0
 79 80  1  0  0  0
 79149  1  0  0  0
 79150  1  0  0  0
 80151  1  0  0  0
 80152  1  0  0  0
 81153  1  0  0  0
M  ISO  4   1 100  68 101  80 101  81 100
M  END
> <chiral flag>
0

> <version>
0

> <s_m_source_file>
/data/baiqing/PycharmProjects/Reinvent-master-3.2/result/LINK_invent/BTK/process_docking_weight1_custom_sum_contain_oxygen_bond_distance_aromatic_linkinvent_7_9_3/rearranged_h_0017.sdf

> <i_m_source_file_index>
42

> <r_mmod_Potential_Energy-OPLS-2005>
3122.52490234375

> <r_mmod_Stretch_Energy-OPLS-2005>
836.139892578125

> <r_mmod_Bend_Energy-OPLS-2005>
878.307312011719

> <r_mmod_Torsional_Energy-OPLS-2005>
382.496429443359

> <r_mmod_Improper_Torsional_Energy-OPLS-2005>
16.9580860137939

> <r_mmod_Van_der_Waal_Energy-OPLS-2005>
189.407196044922

> <r_mmod_Electrostatic_Energy-OPLS-2005>
-409.931091308594

> <r_mmod_Solvation_Energy-OPLS-2005>
-193.562057495117

> <b_mmod_Minimization_Converged-OPLS-2005>
0

> <r_mmod_RMS_Derivative-OPLS-2005>
99.9990005493164

$$$$
42
                    3D
 Structure written by MMmdl.
150158  0  0  1  0            999 V2000
  -30.3030  -15.5965   20.3294 C   0  0  0  0  0  0
  -30.4331  -13.0498   19.5374 C   0  0  0  0  0  0
  -29.5548  -12.6524   18.3171 C   0  0  0  0  0  0
  -28.1210  -12.3079   18.7528 C   0  0  0  0  0  0
  -27.5999  -13.3061   19.8128 C   0  0  2  0  0  0
  -28.6206  -13.6106   20.9343 C   0  0  0  0  0  0
  -25.2337  -13.8285   20.5783 C   0  0  0  0  0  0
  -24.1727  -13.0435   20.9286 C   0  0  0  0  0  0
  -24.6426  -11.6947   20.8764 C   0  0  0  0  0  0
  -23.9123  -10.4297   21.0407 C   0  0  0  0  0  0
  -24.3650   -9.4208   21.9193 C   0  0  0  0  0  0
  -23.6308   -8.2250   22.0763 C   0  0  0  0  0  0
  -22.4288   -8.0295   21.3550 C   0  0  0  0  0  0
  -21.9936   -9.0275   20.4652 C   0  0  0  0  0  0
  -22.7283  -10.2145   20.3059 C   0  0  0  0  0  0
  -21.6858   -6.0746   22.5279 C   0  0  0  0  0  0
  -21.4020   -6.5647   23.8215 C   0  0  0  0  0  0
  -21.3661   -5.6794   24.9175 C   0  0  0  0  0  0
  -21.6041   -4.3055   24.7225 C   0  0  0  0  0  0
  -21.8816   -3.8151   23.4343 C   0  0  0  0  0  0
  -21.9193   -4.6971   22.3401 C   0  0  0  0  0  0
  -22.7737  -13.5177   21.1907 C   0  0  0  0  0  0
  -22.1661   -4.2160   21.0975 F   0  0  0  0  0  0
  -21.5627   -3.4533   25.7736 F   0  0  0  0  0  0
  -29.8019  -14.2255   20.2852 N   0  0  0  0  0  0
  -26.2789  -12.9615   20.3212 N   0  0  0  0  0  0
  -25.9371  -11.6688   20.5687 N   0  0  0  0  0  0
  -22.0375  -12.8180   22.0457 N   0  0  0  0  0  0
  -25.3909  -15.2028   20.4214 N   0  0  0  0  0  0
  -31.5376  -15.5666   20.1621 O   0  0  0  0  0  0
  -21.6642   -6.8893   21.4243 O   0  0  0  0  0  0
  -22.3426  -14.5471   20.6726 O   0  0  0  0  0  0
  -24.6838  -31.8014   23.1524 C   0  0  0  0  0  0
  -25.9417  -32.4480   23.8077 C   0  0  1  0  0  0
  -27.2289  -26.7112   20.2108 C   0  0  0  0  0  0
  -25.5993  -33.8305   24.1958 N   0  0  0  0  0  0
  -23.5095  -30.4033   21.5071 C   0  0  2  0  0  0
  -24.9676  -28.7466   20.1193 C   0  0  0  0  0  0
  -22.7770  -29.4327   22.4725 C   0  0  0  0  0  0
  -18.0338  -28.1421   22.8454 C   0  0  0  0  0  0
  -24.1494  -36.7164   23.2651 C   0  0  0  0  0  0
  -26.0906  -30.5371   21.4160 C   0  0  0  0  0  0
  -26.1577  -29.1027   20.7651 C   0  0  0  0  0  0
  -27.2747  -28.1136   20.7774 C   0  0  0  0  0  0
  -26.0042  -26.5640   19.5098 C   0  0  0  0  0  0
  -24.9298  -27.5024   19.4678 C   0  0  0  0  0  0
  -23.7631  -29.7004   20.1427 C   0  0  0  0  0  0
  -25.4144  -36.2907   24.0281 C   0  0  1  0  0  0
  -20.5974  -28.3785   23.1142 C   0  0  2  0  0  0
  -20.6807  -26.9445   22.5404 C   0  0  0  0  0  0
  -19.5780  -26.6369   21.5219 C   0  0  0  0  0  0
  -18.1961  -26.7948   22.1619 C   0  0  0  0  0  0
  -19.1604  -28.8928   23.2777 C   0  0  0  0  0  0
  -18.9509  -30.1510   23.8824 C   0  0  0  0  0  0
  -17.6499  -30.6605   24.0547 C   0  0  0  0  0  0
  -25.9126  -34.9295   23.4959 C   0  0  0  0  0  0
  -16.5389  -29.9087   23.6349 C   0  0  0  0  0  0
  -16.7318  -28.6507   23.0371 C   0  0  0  0  0  0
  -26.4590  -31.6516   25.0701 C   0  0  0  0  0  0
  -25.3651  -31.3845   26.1317 C   0  0  0  0  0  0
  -27.0515  -30.2852   24.6603 C   0  0  0  0  0  0
  -27.6038  -32.4375   25.7522 C   0  0  0  0  0  0
  -27.5566  -37.1743   24.8462 C   0  0  0  0  0  0
  -21.4417  -29.3032   22.3468 N   0  0  0  0  0  0
  -26.4274  -37.3664   23.9402 N   0  0  0  0  0  0
  -24.7848  -30.9466   22.0775 N   0  0  0  0  0  0
  -23.4220  -28.7931   23.3068 O   0  0  0  0  0  0
  -28.1879  -25.4899   20.2657 O   0  0  0  0  0  0
  -26.5762  -34.8869   22.4574 O   0  0  0  0  0  0
  -23.5856  -32.1087   23.6473 O   0  0  0  0  0  0
  -29.5100  -19.6971   21.3327 C   0  0  0  0  0  0
  -29.1708  -21.1965   21.3109 C   0  0  0  0  0  0
  -28.6323  -22.0596   20.2152 C   0  0  0  0  0  0
  -28.5479  -20.9976   19.1598 C   0  0  0  0  0  0
  -29.4054  -18.6290   20.2966 C   0  0  0  0  0  0
  -28.8669  -19.4893   19.2069 C   0  0  0  0  0  0
  -29.3606  -21.9182   22.6319 C   0  0  0  0  0  0
  -28.0094  -21.5011   17.8254 C   0  0  0  0  0  0
  -27.8594  -23.7718   20.2179 C   0  0  0  0  0  0
  -29.4780  -16.9094   20.3836 N   0  0  0  0  0  0
  -28.4945  -18.5708   17.7864 Cl  0  0  0  0  0  0
  -31.4286  -13.3130   19.1787 H   0  0  0  0  0  0
  -30.5849  -12.1961   20.2006 H   0  0  0  0  0  0
  -30.0006  -11.8137   17.7812 H   0  0  0  0  0  0
  -29.5288  -13.4853   17.6121 H   0  0  0  0  0  0
  -28.1319  -11.3022   19.1748 H   0  0  0  0  0  0
  -27.4546  -12.2730   17.8901 H   0  0  0  0  0  0
  -27.4698  -14.2377   19.2603 H   0  0  0  0  0  0
  -28.8701  -12.7170   21.5086 H   0  0  0  0  0  0
  -28.1974  -14.3230   21.6440 H   0  0  0  0  0  0
  -25.2794   -9.5685   22.4769 H   0  0  0  0  0  0
  -24.0013   -7.4646   22.7490 H   0  0  0  0  0  0
  -21.0866   -8.8805   19.8960 H   0  0  0  0  0  0
  -22.3750  -10.9686   19.6166 H   0  0  0  0  0  0
  -21.2016   -7.6155   23.9723 H   0  0  0  0  0  0
  -21.1484   -6.0522   25.9079 H   0  0  0  0  0  0
  -22.0591   -2.7613   23.2833 H   0  0  0  0  0  0
  -22.3991  -11.9871   22.4900 H   0  0  0  0  0  0
  -21.0981  -13.1211   22.2606 H   0  0  0  0  0  0
  -24.6120  -15.8434   20.5278 H   0  0  0  0  0  0
  -26.2173  -15.6437   20.0415 H   0  0  0  0  0  0
  -26.7509  -32.4956   23.0800 H   0  0  0  0  0  0
  -25.0049  -33.9356   25.0048 H   0  0  0  0  0  0
  -22.8344  -31.2404   21.3173 H   0  0  0  0  0  0
  -23.3776  -35.9476   23.3272 H   0  0  0  0  0  0
  -24.3558  -36.8870   22.2074 H   0  0  0  0  0  0
  -23.7242  -37.6327   23.6756 H   0  0  0  0  0  0
  -26.2925  -31.2639   20.6282 H   0  0  0  0  0  0
  -26.9408  -30.6045   22.0822 H   0  0  0  0  0  0
  -28.1709  -28.3931   21.3132 H   0  0  0  0  0  0
  -25.8356  -25.6241   19.0045 H   0  0  0  0  0  0
  -24.0320  -27.2206   18.9347 H   0  0  0  0  0  0
  -23.9382  -30.4601   19.3801 H   0  0  0  0  0  0
  -22.8681  -29.1667   19.8181 H   0  0  0  0  0  0
  -25.1357  -36.1675   25.0774 H   0  0  0  0  0  0
  -21.0050  -28.3409   24.1270 H   0  0  0  0  0  0
  -20.5674  -26.2412   23.3669 H   0  0  0  0  0  0
  -21.6668  -26.7394   22.1220 H   0  0  0  0  0  0
  -19.6940  -25.6258   21.1300 H   0  0  0  0  0  0
  -19.6718  -27.3135   20.6714 H   0  0  0  0  0  0
  -17.4235  -26.6693   21.4018 H   0  0  0  0  0  0
  -18.0345  -26.0109   22.9030 H   0  0  0  0  0  0
  -19.7987  -30.7337   24.2170 H   0  0  0  0  0  0
  -17.5053  -31.6279   24.5160 H   0  0  0  0  0  0
  -15.5386  -30.2963   23.7716 H   0  0  0  0  0  0
  -15.8720  -28.0794   22.7137 H   0  0  0  0  0  0
  -24.5849  -30.7182   25.7622 H   0  0  0  0  0  0
  -24.8823  -32.3070   26.4546 H   0  0  0  0  0  0
  -25.7819  -30.9136   27.0229 H   0  0  0  0  0  0
  -26.3232  -29.6473   24.1586 H   0  0  0  0  0  0
  -27.3927  -29.7295   25.5348 H   0  0  0  0  0  0
  -27.9220  -30.3976   24.0139 H   0  0  0  0  0  0
  -27.2578  -33.3741   26.1908 H   0  0  0  0  0  0
  -28.3948  -32.6839   25.0427 H   0  0  0  0  0  0
  -28.0601  -31.8638   26.5599 H   0  0  0  0  0  0
  -28.2556  -38.0064   24.7507 H   0  0  0  0  0  0
  -28.1091  -36.2586   24.6294 H   0  0  0  0  0  0
  -27.2281  -37.1388   25.8865 H   0  0  0  0  0  0
  -20.9735  -29.8686   21.6524 H   0  0  0  0  0  0
  -26.0106  -38.2720   24.1396 H   0  0  0  0  0  0
  -29.8387  -19.3206   22.2904 H   0  0  0  0  0  0
  -29.9530  -21.3324   23.3357 H   0  0  0  0  0  0
  -28.3948  -22.1256   23.0932 H   0  0  0  0  0  0
  -29.8761  -22.8671   22.4788 H   0  0  0  0  0  0
  -28.0609  -22.5843   17.7361 H   0  0  0  0  0  0
  -26.9723  -21.1938   17.6909 H   0  0  0  0  0  0
  -28.5942  -21.1147   16.9910 H   0  0  0  0  0  0
  -27.1982  -23.6787   21.0796 H   0  0  0  0  0  0
  -27.1639  -23.7141   19.3830 H   0  0  0  0  0  0
  -28.5254  -16.5807   20.4337 H   0  0  0  0  0  0
  1 25  1  0  0  0
  1 30  2  0  0  0
  1 80  1  0  0  0
  2  3  1  0  0  0
  2 25  1  0  0  0
  2 82  1  0  0  0
  2 83  1  0  0  0
  3  4  1  0  0  0
  3 84  1  0  0  0
  3 85  1  0  0  0
  4  5  1  0  0  0
  4 86  1  0  0  0
  4 87  1  0  0  0
  5  6  1  0  0  0
  5 26  1  0  0  0
  5 88  1  0  0  0
  6 25  1  0  0  0
  6 89  1  0  0  0
  6 90  1  0  0  0
  7  8  2  0  0  0
  7 26  1  0  0  0
  7 29  1  0  0  0
  8  9  1  0  0  0
  8 22  1  0  0  0
  9 10  1  0  0  0
  9 27  2  0  0  0
 10 11  2  0  0  0
 10 15  1  0  0  0
 11 12  1  0  0  0
 11 91  1  0  0  0
 12 13  2  0  0  0
 12 92  1  0  0  0
 13 14  1  0  0  0
 13 31  1  0  0  0
 14 15  2  0  0  0
 14 93  1  0  0  0
 15 94  1  0  0  0
 16 17  2  0  0  0
 16 21  1  0  0  0
 16 31  1  0  0  0
 17 18  1  0  0  0
 17 95  1  0  0  0
 18 19  2  0  0  0
 18 96  1  0  0  0
 19 20  1  0  0  0
 19 24  1  0  0  0
 20 21  2  0  0  0
 20 97  1  0  0  0
 21 23  1  0  0  0
 22 28  1  0  0  0
 22 32  2  0  0  0
 26 27  1  0  0  0
 28 98  1  0  0  0
 28 99  1  0  0  0
 29100  1  0  0  0
 29101  1  0  0  0
 33 34  1  0  0  0
 33 66  1  0  0  0
 33 70  2  0  0  0
 34 36  1  0  0  0
 34 59  1  0  0  0
 34102  1  0  0  0
 35 44  2  0  0  0
 35 45  1  0  0  0
 35 68  1  0  0  0
 36 56  1  0  0  0
 36103  1  0  0  0
 37 39  1  0  0  0
 37 47  1  0  0  0
 37 66  1  0  0  0
 37104  1  0  0  0
 38 43  2  0  0  0
 38 46  1  0  0  0
 38 47  1  0  0  0
 39 64  1  0  0  0
 39 67  2  0  0  0
 40 52  1  0  0  0
 40 53  2  0  0  0
 40 58  1  0  0  0
 41105  1  0  0  0
 41106  1  0  0  0
 41107  1  0  0  0
 41 48  1  0  0  0
 42 43  1  0  0  0
 42 66  1  0  0  0
 42108  1  0  0  0
 42109  1  0  0  0
 43 44  1  0  0  0
 44110  1  0  0  0
 45 46  2  0  0  0
 45111  1  0  0  0
 46112  1  0  0  0
 47113  1  0  0  0
 47114  1  0  0  0
 48 56  1  0  0  0
 48 65  1  0  0  0
 48115  1  0  0  0
 49 50  1  0  0  0
 49 53  1  0  0  0
 49 64  1  0  0  0
 49116  1  0  0  0
 50 51  1  0  0  0
 50117  1  0  0  0
 50118  1  0  0  0
 51 52  1  0  0  0
 51119  1  0  0  0
 51120  1  0  0  0
 52121  1  0  0  0
 52122  1  0  0  0
 53 54  1  0  0  0
 54 55  2  0  0  0
 54123  1  0  0  0
 55 57  1  0  0  0
 55124  1  0  0  0
 56 69  2  0  0  0
 57 58  2  0  0  0
 57125  1  0  0  0
 58126  1  0  0  0
 59 60  1  0  0  0
 59 61  1  0  0  0
 59 62  1  0  0  0
 60127  1  0  0  0
 60128  1  0  0  0
 60129  1  0  0  0
 61130  1  0  0  0
 61131  1  0  0  0
 61132  1  0  0  0
 62133  1  0  0  0
 62134  1  0  0  0
 62135  1  0  0  0
 63 65  1  0  0  0
 63136  1  0  0  0
 63137  1  0  0  0
 63138  1  0  0  0
 64139  1  0  0  0
 65140  1  0  0  0
 68 79  1  0  0  0
 71 72  2  0  0  0
 71 75  1  0  0  0
 71141  1  0  0  0
 72 73  1  0  0  0
 72 77  1  0  0  0
 73 74  2  0  0  0
 73 79  1  0  0  0
 74 76  1  0  0  0
 74 78  1  0  0  0
 75 76  2  0  0  0
 75 80  1  0  0  0
 76 81  1  0  0  0
 77142  1  0  0  0
 77143  1  0  0  0
 77144  1  0  0  0
 78145  1  0  0  0
 78146  1  0  0  0
 78147  1  0  0  0
 79148  1  0  0  0
 79149  1  0  0  0
 80150  1  0  0  0
M  ISO  4   1 100  68 101  79 101  80 100
M  END
> <chiral flag>
0

> <version>
0

> <s_m_source_file>
/data/baiqing/PycharmProjects/Reinvent-master-3.2/result/LINK_invent/BTK/process_docking_weight1_custom_sum_contain_oxygen_bond_distance_aromatic_linkinvent_7_9_3/rearranged_h_0017.sdf

> <i_m_source_file_index>
43

> <r_mmod_Potential_Energy-OPLS-2005>
2270.41796875

> <r_mmod_Stretch_Energy-OPLS-2005>
928.454040527344

> <r_mmod_Bend_Energy-OPLS-2005>
647.606750488281

> <r_mmod_Torsional_Energy-OPLS-2005>
265.037506103516

> <r_mmod_Improper_Torsional_Energy-OPLS-2005>
10.5070247650146

> <r_mmod_Van_der_Waal_Energy-OPLS-2005>
134.255126953125

> <r_mmod_Electrostatic_Energy-OPLS-2005>
-369.675018310547

> <r_mmod_Solvation_Energy-OPLS-2005>
-208.952545166016

> <b_mmod_Minimization_Converged-OPLS-2005>
0

> <r_mmod_RMS_Derivative-OPLS-2005>
1.01162612438202

$$$$
43
                    3D
 Structure written by MMmdl.
163171  0  0  1  0            999 V2000
  -30.6714  -14.4806   20.5399 C   0  0  0  0  0  0
  -30.4290  -12.3002   19.4243 C   0  0  0  0  0  0
  -29.4965  -12.4943   18.2090 C   0  0  0  0  0  0
  -28.0172  -12.3534   18.6222 C   0  0  0  0  0  0
  -27.6626  -13.1971   19.8760 C   0  0  2  0  0  0
  -28.7043  -12.9744   20.9968 C   0  0  0  0  0  0
  -25.2610  -13.8136   20.5682 C   0  0  0  0  0  0
  -24.1844  -13.0432   20.9174 C   0  0  0  0  0  0
  -24.6379  -11.6899   20.8728 C   0  0  0  0  0  0
  -23.9045  -10.4294   21.0408 C   0  0  0  0  0  0
  -24.3603   -9.4208   21.9185 C   0  0  0  0  0  0
  -23.6284   -8.2239   22.0753 C   0  0  0  0  0  0
  -22.4267   -8.0274   21.3547 C   0  0  0  0  0  0
  -21.9898   -9.0246   20.4650 C   0  0  0  0  0  0
  -22.7217  -10.2132   20.3062 C   0  0  0  0  0  0
  -21.6851   -6.0735   22.5284 C   0  0  0  0  0  0
  -21.4006   -6.5641   23.8212 C   0  0  0  0  0  0
  -21.3661   -5.6798   24.9179 C   0  0  0  0  0  0
  -21.6044   -4.3058   24.7232 C   0  0  0  0  0  0
  -21.8819   -3.8147   23.4354 C   0  0  0  0  0  0
  -21.9189   -4.6963   22.3405 C   0  0  0  0  0  0
  -22.7872  -13.5240   21.1849 C   0  0  0  0  0  0
  -22.1661   -4.2150   21.0986 F   0  0  0  0  0  0
  -21.5634   -3.4544   25.7745 F   0  0  0  0  0  0
  -30.0365  -13.2824   20.4458 N   0  0  0  0  0  0
  -26.3028  -12.9282   20.3370 N   0  0  0  0  0  0
  -25.9299  -11.6460   20.5765 N   0  0  0  0  0  0
  -22.0516  -12.8232   22.0411 N   0  0  0  0  0  0
  -25.4358  -15.1852   20.4098 N   0  0  0  0  0  0
  -31.8126  -14.6754   20.1087 O   0  0  0  0  0  0
  -21.6634   -6.8872   21.4243 O   0  0  0  0  0  0
  -22.3563  -14.5553   20.6701 O   0  0  0  0  0  0
  -24.6139  -31.8682   23.2076 C   0  0  0  0  0  0
  -25.9032  -32.4826   23.8388 C   0  0  1  0  0  0
  -27.2389  -27.4381   20.0965 C   0  0  0  0  0  0
  -25.5898  -33.8623   24.2331 N   0  0  0  0  0  0
  -23.4034  -30.4876   21.5502 C   0  0  2  0  0  0
  -24.8533  -28.9505   20.1176 C   0  0  0  0  0  0
  -22.7426  -29.4635   22.5005 C   0  0  0  0  0  0
  -18.0274  -28.1356   22.8487 C   0  0  0  0  0  0
  -24.1492  -36.7316   23.2633 C   0  0  0  0  0  0
  -25.9306  -30.8327   21.3625 C   0  0  0  0  0  0
  -26.0110  -29.4633   20.7189 C   0  0  0  0  0  0
  -27.2093  -28.7114   20.7106 C   0  0  0  0  0  0
  -26.0702  -26.9376   19.4906 C   0  0  0  0  0  0
  -24.8765  -27.6855   19.5022 C   0  0  0  0  0  0
  -23.6130  -29.8155   20.1663 C   0  0  0  0  0  0
  -25.4113  -36.3117   24.0333 C   0  0  1  0  0  0
  -20.5871  -28.3636   23.1332 C   0  0  2  0  0  0
  -20.6754  -26.9368   22.5422 C   0  0  0  0  0  0
  -19.5733  -26.6365   21.5214 C   0  0  0  0  0  0
  -18.1913  -26.7902   22.1620 C   0  0  0  0  0  0
  -19.1524  -28.8815   23.2901 C   0  0  0  0  0  0
  -18.9448  -30.1429   23.8896 C   0  0  0  0  0  0
  -17.6447  -30.6562   24.0557 C   0  0  0  0  0  0
  -25.9033  -34.9476   23.5132 C   0  0  0  0  0  0
  -16.5342  -29.9060   23.6317 C   0  0  0  0  0  0
  -16.7263  -28.6479   23.0336 C   0  0  0  0  0  0
  -26.4458  -31.6604   25.0714 C   0  0  0  0  0  0
  -25.3736  -31.3708   26.1484 C   0  0  0  0  0  0
  -27.0291  -30.3053   24.6065 C   0  0  0  0  0  0
  -27.6046  -32.4320   25.7463 C   0  0  0  0  0  0
  -27.5586  -37.1810   24.8463 C   0  0  0  0  0  0
  -21.4147  -29.3018   22.3756 N   0  0  0  0  0  0
  -26.4299  -37.3804   23.9403 N   0  0  0  0  0  0
  -24.6674  -31.0778   22.0983 N   0  0  0  0  0  0
  -23.4216  -28.8187   23.3042 O   0  0  0  0  0  0
  -28.3888  -26.6839   20.0506 O   0  0  0  0  0  0
  -26.5593  -34.8923   22.4691 O   0  0  0  0  0  0
  -23.5325  -32.1442   23.7453 O   0  0  0  0  0  0
  -29.9990  -18.8378   19.2724 C   0  0  0  0  0  0
  -29.9615  -17.4380   19.4592 C   0  0  0  0  0  0
  -30.1295  -17.7779   21.8797 C   0  0  0  0  0  0
  -30.0799  -19.7242   20.3677 C   0  0  0  0  0  0
  -30.0382  -16.8912   20.7710 C   0  0  0  0  0  0
  -30.1602  -19.1848   21.6769 C   0  0  0  0  0  0
  -29.1176  -21.9810   20.4599 C   0  0  0  0  0  0
  -29.8041  -16.5581   18.2277 C   0  0  0  0  0  0
  -30.2064  -17.2457   23.3075 C   0  0  0  0  0  0
  -31.3040  -21.6336   19.3865 C   0  0  0  0  0  0
  -29.3019  -23.5139   20.2892 C   0  0  0  0  0  0
  -28.2563  -24.3844   21.0399 C   0  0  0  0  0  0
  -28.6285  -25.8812   21.2130 C   0  0  0  0  0  0
  -29.8994  -15.4841   21.0002 N   0  0  0  0  0  0
  -30.1362  -21.1385   20.1215 N   0  0  0  0  0  0
  -28.0414  -21.5616   20.9007 O   0  0  0  0  0  0
  -30.3428  -20.2406   23.0417 Cl  0  0  0  0  0  0
  -31.4734  -12.4057   19.1232 H   0  0  0  0  0  0
  -30.3358  -11.2885   19.8224 H   0  0  0  0  0  0
  -29.7369  -11.7685   17.4309 H   0  0  0  0  0  0
  -29.6627  -13.4780   17.7680 H   0  0  0  0  0  0
  -27.8296  -11.2973   18.8235 H   0  0  0  0  0  0
  -27.3648  -12.6192   17.7899 H   0  0  0  0  0  0
  -27.7051  -14.2436   19.5766 H   0  0  0  0  0  0
  -28.6803  -11.9370   21.3333 H   0  0  0  0  0  0
  -28.4664  -13.5681   21.8805 H   0  0  0  0  0  0
  -25.2754   -9.5689   22.4756 H   0  0  0  0  0  0
  -24.0005   -7.4631   22.7464 H   0  0  0  0  0  0
  -21.0832   -8.8754   19.8952 H   0  0  0  0  0  0
  -22.3666  -10.9669   19.6170 H   0  0  0  0  0  0
  -21.1988   -7.6150   23.9715 H   0  0  0  0  0  0
  -21.1488   -6.0533   25.9084 H   0  0  0  0  0  0
  -22.0593   -2.7611   23.2855 H   0  0  0  0  0  0
  -22.4133  -11.9887   22.4790 H   0  0  0  0  0  0
  -21.1137  -13.1259   22.2633 H   0  0  0  0  0  0
  -24.6717  -15.8427   20.5218 H   0  0  0  0  0  0
  -26.2917  -15.6238   20.0931 H   0  0  0  0  0  0
  -26.7102  -32.5537   23.1157 H   0  0  0  0  0  0
  -25.0091  -33.9795   25.0502 H   0  0  0  0  0  0
  -22.6910  -31.3024   21.4073 H   0  0  0  0  0  0
  -23.3745  -35.9658   23.3316 H   0  0  0  0  0  0
  -24.3588  -36.8910   22.2042 H   0  0  0  0  0  0
  -23.7251  -37.6530   23.6635 H   0  0  0  0  0  0
  -26.0409  -31.5936   20.5894 H   0  0  0  0  0  0
  -26.8189  -30.8930   21.9787 H   0  0  0  0  0  0
  -28.1075  -29.1040   21.1675 H   0  0  0  0  0  0
  -26.0863  -25.9664   19.0156 H   0  0  0  0  0  0
  -23.9854  -27.2860   19.0364 H   0  0  0  0  0  0
  -23.7179  -30.5887   19.4044 H   0  0  0  0  0  0
  -22.7373  -29.2356   19.8710 H   0  0  0  0  0  0
  -25.1290  -36.1985   25.0826 H   0  0  0  0  0  0
  -20.9971  -28.3187   24.1451 H   0  0  0  0  0  0
  -20.5646  -26.2231   23.3598 H   0  0  0  0  0  0
  -21.6615  -26.7389   22.1209 H   0  0  0  0  0  0
  -19.6889  -25.6288   21.1208 H   0  0  0  0  0  0
  -19.6674  -27.3196   20.6760 H   0  0  0  0  0  0
  -17.4178  -26.6663   21.4024 H   0  0  0  0  0  0
  -18.0299  -26.0036   22.9000 H   0  0  0  0  0  0
  -19.7929  -30.7245   24.2254 H   0  0  0  0  0  0
  -17.5000  -31.6235   24.5163 H   0  0  0  0  0  0
  -15.5338  -30.2951   23.7640 H   0  0  0  0  0  0
  -15.8665  -28.0803   22.7044 H   0  0  0  0  0  0
  -24.5895  -30.7059   25.7851 H   0  0  0  0  0  0
  -24.8925  -32.2857   26.4948 H   0  0  0  0  0  0
  -25.8108  -30.8879   27.0232 H   0  0  0  0  0  0
  -26.2827  -29.6815   24.1133 H   0  0  0  0  0  0
  -27.4108  -29.7290   25.4499 H   0  0  0  0  0  0
  -27.8639  -30.4395   23.9185 H   0  0  0  0  0  0
  -27.2689  -33.3611   26.2082 H   0  0  0  0  0  0
  -28.3835  -32.6904   25.0278 H   0  0  0  0  0  0
  -28.0746  -31.8412   26.5339 H   0  0  0  0  0  0
  -28.2627  -38.0088   24.7510 H   0  0  0  0  0  0
  -28.1073  -36.2624   24.6310 H   0  0  0  0  0  0
  -27.2301  -37.1478   25.8868 H   0  0  0  0  0  0
  -20.9295  -29.8769   21.7010 H   0  0  0  0  0  0
  -26.0189  -38.2883   24.1406 H   0  0  0  0  0  0
  -29.9452  -19.2440   18.2719 H   0  0  0  0  0  0
  -29.5689  -17.1446   17.3394 H   0  0  0  0  0  0
  -28.9969  -15.8393   18.3630 H   0  0  0  0  0  0
  -30.7264  -16.0142   18.0231 H   0  0  0  0  0  0
  -30.2289  -16.1599   23.3788 H   0  0  0  0  0  0
  -29.3472  -17.5930   23.8817 H   0  0  0  0  0  0
  -31.1110  -17.6121   23.7930 H   0  0  0  0  0  0
  -31.9396  -20.8179   19.0396 H   0  0  0  0  0  0
  -31.9203  -22.2684   20.0244 H   0  0  0  0  0  0
  -31.0084  -22.2049   18.5052 H   0  0  0  0  0  0
  -29.2872  -23.7621   19.2279 H   0  0  0  0  0  0
  -30.2916  -23.7760   20.6629 H   0  0  0  0  0  0
  -28.1378  -23.9707   22.0425 H   0  0  0  0  0  0
  -27.2769  -24.2903   20.5704 H   0  0  0  0  0  0
  -29.6814  -25.9739   21.4809 H   0  0  0  0  0  0
  -28.0806  -26.2839   22.0677 H   0  0  0  0  0  0
  -29.0410  -15.1927   21.4427 H   0  0  0  0  0  0
  1 25  1  0  0  0
  1 30  2  0  0  0
  1 84  1  0  0  0
  2  3  1  0  0  0
  2 25  1  0  0  0
  2 88  1  0  0  0
  2 89  1  0  0  0
  3  4  1  0  0  0
  3 90  1  0  0  0
  3 91  1  0  0  0
  4  5  1  0  0  0
  4 92  1  0  0  0
  4 93  1  0  0  0
  5  6  1  0  0  0
  5 26  1  0  0  0
  5 94  1  0  0  0
  6 25  1  0  0  0
  6 95  1  0  0  0
  6 96  1  0  0  0
  7  8  2  0  0  0
  7 26  1  0  0  0
  7 29  1  0  0  0
  8  9  1  0  0  0
  8 22  1  0  0  0
  9 10  1  0  0  0
  9 27  2  0  0  0
 10 11  2  0  0  0
 10 15  1  0  0  0
 11 12  1  0  0  0
 11 97  1  0  0  0
 12 13  2  0  0  0
 12 98  1  0  0  0
 13 14  1  0  0  0
 13 31  1  0  0  0
 14 15  2  0  0  0
 14 99  1  0  0  0
 15100  1  0  0  0
 16 17  2  0  0  0
 16 21  1  0  0  0
 16 31  1  0  0  0
 17 18  1  0  0  0
 17101  1  0  0  0
 18 19  2  0  0  0
 18102  1  0  0  0
 19 20  1  0  0  0
 19 24  1  0  0  0
 20 21  2  0  0  0
 20103  1  0  0  0
 21 23  1  0  0  0
 22 28  1  0  0  0
 22 32  2  0  0  0
 26 27  1  0  0  0
 28104  1  0  0  0
 28105  1  0  0  0
 29106  1  0  0  0
 29107  1  0  0  0
 33 34  1  0  0  0
 33 66  1  0  0  0
 33 70  2  0  0  0
 34 36  1  0  0  0
 34 59  1  0  0  0
 34108  1  0  0  0
 35 44  2  0  0  0
 35 45  1  0  0  0
 35 68  1  0  0  0
 36 56  1  0  0  0
 36109  1  0  0  0
 37 39  1  0  0  0
 37 47  1  0  0  0
 37 66  1  0  0  0
 37110  1  0  0  0
 38 43  2  0  0  0
 38 46  1  0  0  0
 38 47  1  0  0  0
 39 64  1  0  0  0
 39 67  2  0  0  0
 40 52  1  0  0  0
 40 53  2  0  0  0
 40 58  1  0  0  0
 41111  1  0  0  0
 41112  1  0  0  0
 41113  1  0  0  0
 41 48  1  0  0  0
 42 43  1  0  0  0
 42 66  1  0  0  0
 42114  1  0  0  0
 42115  1  0  0  0
 43 44  1  0  0  0
 44116  1  0  0  0
 45 46  2  0  0  0
 45117  1  0  0  0
 46118  1  0  0  0
 47119  1  0  0  0
 47120  1  0  0  0
 48 56  1  0  0  0
 48 65  1  0  0  0
 48121  1  0  0  0
 49 50  1  0  0  0
 49 53  1  0  0  0
 49 64  1  0  0  0
 49122  1  0  0  0
 50 51  1  0  0  0
 50123  1  0  0  0
 50124  1  0  0  0
 51 52  1  0  0  0
 51125  1  0  0  0
 51126  1  0  0  0
 52127  1  0  0  0
 52128  1  0  0  0
 53 54  1  0  0  0
 54 55  2  0  0  0
 54129  1  0  0  0
 55 57  1  0  0  0
 55130  1  0  0  0
 56 69  2  0  0  0
 57 58  2  0  0  0
 57131  1  0  0  0
 58132  1  0  0  0
 59 60  1  0  0  0
 59 61  1  0  0  0
 59 62  1  0  0  0
 60133  1  0  0  0
 60134  1  0  0  0
 60135  1  0  0  0
 61136  1  0  0  0
 61137  1  0  0  0
 61138  1  0  0  0
 62139  1  0  0  0
 62140  1  0  0  0
 62141  1  0  0  0
 63 65  1  0  0  0
 63142  1  0  0  0
 63143  1  0  0  0
 63144  1  0  0  0
 64145  1  0  0  0
 65146  1  0  0  0
 68 83  1  0  0  0
 71 72  2  0  0  0
 71 74  1  0  0  0
 71147  1  0  0  0
 72 75  1  0  0  0
 72 78  1  0  0  0
 73 75  2  0  0  0
 73 76  1  0  0  0
 73 79  1  0  0  0
 74 76  2  0  0  0
 74 85  1  0  0  0
 75 84  1  0  0  0
 76 87  1  0  0  0
 77 81  1  0  0  0
 77 85  1  0  0  0
 77 86  2  0  0  0
 78148  1  0  0  0
 78149  1  0  0  0
 78150  1  0  0  0
 79151  1  0  0  0
 79152  1  0  0  0
 79153  1  0  0  0
 80 85  1  0  0  0
 80154  1  0  0  0
 80155  1  0  0  0
 80156  1  0  0  0
 81 82  1  0  0  0
 81157  1  0  0  0
 81158  1  0  0  0
 82 83  1  0  0  0
 82159  1  0  0  0
 82160  1  0  0  0
 83161  1  0  0  0
 83162  1  0  0  0
 84163  1  0  0  0
M  ISO  4   1 100  68 101  83 101  84 100
M  END
> <chiral flag>
0

> <version>
0

> <s_m_source_file>
/data/baiqing/PycharmProjects/Reinvent-master-3.2/result/LINK_invent/BTK/process_docking_weight1_custom_sum_contain_oxygen_bond_distance_aromatic_linkinvent_7_9_3/rearranged_h_0017.sdf

> <i_m_source_file_index>
44

> <r_mmod_Potential_Energy-OPLS-2005>
-1.92424428462982

> <r_mmod_Stretch_Energy-OPLS-2005>
42.9664573669434

> <r_mmod_Bend_Energy-OPLS-2005>
95.1626663208008

> <r_mmod_Torsional_Energy-OPLS-2005>
324.240264892578

> <r_mmod_Improper_Torsional_Energy-OPLS-2005>
4.3556957244873

> <r_mmod_Van_der_Waal_Energy-OPLS-2005>
157.776062011719

> <r_mmod_Electrostatic_Energy-OPLS-2005>
-423.050201416016

> <r_mmod_Solvation_Energy-OPLS-2005>
-216.341781616211

> <b_mmod_Minimization_Converged-OPLS-2005>
0

> <r_mmod_RMS_Derivative-OPLS-2005>
1.72583031654358

$$$$
44
                    3D
 Structure written by MMmdl.
167175  0  0  1  0            999 V2000
  -30.5727  -14.7178   20.4053 C   0  0  0  0  0  0
  -30.4365  -12.4163   19.4255 C   0  0  0  0  0  0
  -29.4957  -12.4687   18.1988 C   0  0  0  0  0  0
  -28.0252  -12.2900   18.6391 C   0  0  0  0  0  0
  -27.6423  -13.2005   19.8322 C   0  0  2  0  0  0
  -28.6993  -13.1071   20.9509 C   0  0  0  0  0  0
  -25.2584  -13.8139   20.5661 C   0  0  0  0  0  0
  -24.1853  -13.0431   20.9192 C   0  0  0  0  0  0
  -24.6408  -11.6902   20.8784 C   0  0  0  0  0  0
  -23.9083  -10.4284   21.0448 C   0  0  0  0  0  0
  -24.3638   -9.4204   21.9231 C   0  0  0  0  0  0
  -23.6292   -8.2248   22.0782 C   0  0  0  0  0  0
  -22.4287   -8.0292   21.3564 C   0  0  0  0  0  0
  -21.9947   -9.0282   20.4675 C   0  0  0  0  0  0
  -22.7274  -10.2139   20.3079 C   0  0  0  0  0  0
  -21.6845   -6.0765   22.5308 C   0  0  0  0  0  0
  -21.4004   -6.5658   23.8240 C   0  0  0  0  0  0
  -21.3647   -5.6812   24.9203 C   0  0  0  0  0  0
  -21.6041   -4.3062   24.7248 C   0  0  0  0  0  0
  -21.8807   -3.8175   23.4360 C   0  0  0  0  0  0
  -21.9180   -4.7006   22.3427 C   0  0  0  0  0  0
  -22.7883  -13.5250   21.1873 C   0  0  0  0  0  0
  -22.1664   -4.2182   21.1002 F   0  0  0  0  0  0
  -21.5627   -3.4556   25.7757 F   0  0  0  0  0  0
  -29.9915  -13.4720   20.3546 N   0  0  0  0  0  0
  -26.2974  -12.9276   20.3253 N   0  0  0  0  0  0
  -25.9319  -11.6465   20.5749 N   0  0  0  0  0  0
  -22.0505  -12.8240   22.0383 N   0  0  0  0  0  0
  -25.4330  -15.1876   20.4063 N   0  0  0  0  0  0
  -31.7869  -14.8505   20.2076 O   0  0  0  0  0  0
  -21.6616   -6.8918   21.4271 O   0  0  0  0  0  0
  -22.3600  -14.5610   20.6762 O   0  0  0  0  0  0
  -24.6319  -31.8467   23.1928 C   0  0  0  0  0  0
  -25.9147  -32.4675   23.8282 C   0  0  1  0  0  0
  -27.2576  -27.2601   20.1201 C   0  0  0  0  0  0
  -25.5914  -33.8478   24.2193 N   0  0  0  0  0  0
  -23.4292  -30.4677   21.5306 C   0  0  2  0  0  0
  -24.8903  -28.9023   20.1051 C   0  0  0  0  0  0
  -22.7454  -29.4573   22.4831 C   0  0  0  0  0  0
  -18.0265  -28.1358   22.8406 C   0  0  0  0  0  0
  -24.1483  -36.7308   23.2654 C   0  0  0  0  0  0
  -25.9724  -30.7622   21.3646 C   0  0  0  0  0  0
  -26.0534  -29.3771   20.7195 C   0  0  0  0  0  0
  -27.2338  -28.5669   20.7196 C   0  0  0  0  0  0
  -26.0748  -26.8408   19.4785 C   0  0  0  0  0  0
  -24.9060  -27.6389   19.4783 C   0  0  0  0  0  0
  -23.6597  -29.7928   20.1482 C   0  0  0  0  0  0
  -25.4097  -36.2986   24.0293 C   0  0  1  0  0  0
  -20.5883  -28.3681   23.1220 C   0  0  2  0  0  0
  -20.6770  -26.9379   22.5368 C   0  0  0  0  0  0
  -19.5762  -26.6379   21.5124 C   0  0  0  0  0  0
  -18.1940  -26.7883   22.1540 C   0  0  0  0  0  0
  -19.1534  -28.8829   23.2814 C   0  0  0  0  0  0
  -18.9489  -30.1419   23.8847 C   0  0  0  0  0  0
  -17.6511  -30.6571   24.0535 C   0  0  0  0  0  0
  -25.9032  -34.9372   23.5059 C   0  0  0  0  0  0
  -16.5390  -29.9058   23.6341 C   0  0  0  0  0  0
  -16.7264  -28.6495   23.0287 C   0  0  0  0  0  0
  -26.4538  -31.6480   25.0661 C   0  0  0  0  0  0
  -25.3784  -31.3558   26.1386 C   0  0  0  0  0  0
  -27.0463  -30.2932   24.6123 C   0  0  0  0  0  0
  -27.6105  -32.4220   25.7440 C   0  0  0  0  0  0
  -27.5527  -37.1803   24.8455 C   0  0  0  0  0  0
  -21.4169  -29.3053   22.3621 N   0  0  0  0  0  0
  -26.4237  -37.3719   23.9409 N   0  0  0  0  0  0
  -24.6999  -31.0424   22.0888 N   0  0  0  0  0  0
  -23.4133  -28.8091   23.2938 O   0  0  0  0  0  0
  -28.3995  -26.4249   20.2004 O   0  0  0  0  0  0
  -26.5609  -34.8872   22.4614 O   0  0  0  0  0  0
  -23.5492  -32.1297   23.7255 O   0  0  0  0  0  0
  -29.1508  -19.6748   22.0436 C   0  0  0  0  0  0
  -29.1799  -18.5342   22.8637 C   0  0  0  0  0  0
  -29.4627  -17.2668   22.3037 C   0  0  0  0  0  0
  -29.4226  -19.5933   20.6651 C   0  0  0  0  0  0
  -29.7029  -17.1562   20.9048 C   0  0  0  0  0  0
  -28.8351  -18.6948   24.3382 C   0  0  0  0  0  0
  -29.3935  -16.0345   23.2144 C   0  0  0  0  0  0
  -30.0781  -20.0260   17.3384 C   0  0  0  0  0  0
  -27.8644  -20.8821   19.1079 C   0  0  0  0  0  0
  -30.3546  -20.8777   18.6040 C   0  0  0  0  0  0
  -28.4171  -23.6735   20.4799 C   0  0  0  0  0  0
  -29.4556  -22.3994   20.4545 C   0  0  0  0  0  0
  -28.5688  -25.0424   19.6146 C   0  0  0  0  0  0
  -29.2660  -20.9164   19.7385 C   0  0  2  0  0  0
  -29.6473  -18.3205   20.1319 N   0  0  0  0  0  0
  -29.6945  -15.7851   20.3604 N   0  0  0  0  0  0
  -31.4808  -12.5296   19.1272 H   0  0  0  0  0  0
  -30.3640  -11.4376   19.9062 H   0  0  0  0  0  0
  -29.7646  -11.6874   17.4863 H   0  0  0  0  0  0
  -29.6107  -13.4166   17.6741 H   0  0  0  0  0  0
  -27.9098  -11.2458   18.9347 H   0  0  0  0  0  0
  -27.3442  -12.4445   17.8001 H   0  0  0  0  0  0
  -27.6398  -14.2189   19.4426 H   0  0  0  0  0  0
  -28.7394  -12.0914   21.3498 H   0  0  0  0  0  0
  -28.4448  -13.7495   21.7932 H   0  0  0  0  0  0
  -25.2776   -9.5670   22.4806 H   0  0  0  0  0  0
  -24.0012   -7.4635   22.7493 H   0  0  0  0  0  0
  -21.0882   -8.8793   19.8963 H   0  0  0  0  0  0
  -22.3767  -10.9687   19.6179 H   0  0  0  0  0  0
  -21.1971   -7.6161   23.9769 H   0  0  0  0  0  0
  -21.1489   -6.0531   25.9109 H   0  0  0  0  0  0
  -22.0582   -2.7634   23.2851 H   0  0  0  0  0  0
  -22.4054  -11.9789   22.4613 H   0  0  0  0  0  0
  -21.1174  -13.1343   22.2691 H   0  0  0  0  0  0
  -24.6619  -15.8349   20.5019 H   0  0  0  0  0  0
  -26.2723  -15.6284   20.0552 H   0  0  0  0  0  0
  -26.7176  -32.5384   23.1006 H   0  0  0  0  0  0
  -25.0044  -33.9600   25.0324 H   0  0  0  0  0  0
  -22.7266  -31.2896   21.3759 H   0  0  0  0  0  0
  -23.3675  -35.9701   23.3261 H   0  0  0  0  0  0
  -24.3585  -36.9022   22.2087 H   0  0  0  0  0  0
  -23.7376  -37.6551   23.6724 H   0  0  0  0  0  0
  -26.0750  -31.5054   20.5754 H   0  0  0  0  0  0
  -26.8659  -30.8474   21.9715 H   0  0  0  0  0  0
  -28.1245  -28.9338   21.2126 H   0  0  0  0  0  0
  -26.0306  -25.8746   18.9939 H   0  0  0  0  0  0
  -24.0206  -27.2668   18.9821 H   0  0  0  0  0  0
  -23.7874  -30.5706   19.3943 H   0  0  0  0  0  0
  -22.7871  -29.2228   19.8316 H   0  0  0  0  0  0
  -25.1264  -36.1790   25.0778 H   0  0  0  0  0  0
  -20.9925  -28.3291   24.1346 H   0  0  0  0  0  0
  -20.5647  -26.2256   23.3575 H   0  0  0  0  0  0
  -21.6661  -26.7398   22.1203 H   0  0  0  0  0  0
  -19.6945  -25.6270   21.1193 H   0  0  0  0  0  0
  -19.6753  -27.3147   20.6623 H   0  0  0  0  0  0
  -17.4202  -26.6555   21.3960 H   0  0  0  0  0  0
  -18.0381  -26.0006   22.8924 H   0  0  0  0  0  0
  -19.7988  -30.7216   24.2180 H   0  0  0  0  0  0
  -17.5103  -31.6232   24.5142 H   0  0  0  0  0  0
  -15.5401  -30.2983   23.7749 H   0  0  0  0  0  0
  -15.8607  -28.0905   22.6933 H   0  0  0  0  0  0
  -24.6074  -30.6719   25.7778 H   0  0  0  0  0  0
  -24.8822  -32.2661   26.4762 H   0  0  0  0  0  0
  -25.8196  -30.8871   27.0202 H   0  0  0  0  0  0
  -26.3036  -29.6591   24.1280 H   0  0  0  0  0  0
  -27.4359  -29.7269   25.4612 H   0  0  0  0  0  0
  -27.8735  -30.4249   23.9149 H   0  0  0  0  0  0
  -27.2761  -33.3631   26.1806 H   0  0  0  0  0  0
  -28.4032  -32.6599   25.0309 H   0  0  0  0  0  0
  -28.0559  -31.8426   26.5554 H   0  0  0  0  0  0
  -28.2470  -38.0152   24.7477 H   0  0  0  0  0  0
  -28.1087  -36.2699   24.6247 H   0  0  0  0  0  0
  -27.2252  -37.1390   25.8852 H   0  0  0  0  0  0
  -20.9337  -29.8848   21.6898 H   0  0  0  0  0  0
  -26.0064  -38.2750   24.1484 H   0  0  0  0  0  0
  -28.8750  -20.6042   22.5138 H   0  0  0  0  0  0
  -28.5649  -19.7166   24.5999 H   0  0  0  0  0  0
  -29.6814  -18.4148   24.9639 H   0  0  0  0  0  0
  -27.9886  -18.0603   24.6010 H   0  0  0  0  0  0
  -29.6811  -16.2610   24.2404 H   0  0  0  0  0  0
  -30.0722  -15.2389   22.9201 H   0  0  0  0  0  0
  -28.3762  -15.6370   23.2257 H   0  0  0  0  0  0
  -30.9335  -20.0748   16.6640 H   0  0  0  0  0  0
  -29.2118  -20.3859   16.7806 H   0  0  0  0  0  0
  -29.9067  -18.9710   17.5559 H   0  0  0  0  0  0
  -27.6603  -19.9314   18.6101 H   0  0  0  0  0  0
  -27.7610  -21.6762   18.3668 H   0  0  0  0  0  0
  -27.0965  -21.0160   19.8672 H   0  0  0  0  0  0
  -30.5126  -21.8855   18.2178 H   0  0  0  0  0  0
  -31.3183  -20.5903   19.0290 H   0  0  0  0  0  0
  -28.4744  -24.0255   21.5128 H   0  0  0  0  0  0
  -27.3942  -23.3152   20.3897 H   0  0  0  0  0  0
  -29.5975  -22.1977   21.5094 H   0  0  0  0  0  0
  -30.4443  -22.7881   20.2193 H   0  0  0  0  0  0
  -28.0010  -24.9456   18.6882 H   0  0  0  0  0  0
  -29.6046  -25.0479   19.2738 H   0  0  0  0  0  0
  -28.7602  -15.4637   20.1813 H   0  0  0  0  0  0
  1 25  1  0  0  0
  1 30  2  0  0  0
  1 86  1  0  0  0
  2  3  1  0  0  0
  2 25  1  0  0  0
  2 87  1  0  0  0
  2 88  1  0  0  0
  3  4  1  0  0  0
  3 89  1  0  0  0
  3 90  1  0  0  0
  4  5  1  0  0  0
  4 91  1  0  0  0
  4 92  1  0  0  0
  5  6  1  0  0  0
  5 26  1  0  0  0
  5 93  1  0  0  0
  6 25  1  0  0  0
  6 94  1  0  0  0
  6 95  1  0  0  0
  7  8  2  0  0  0
  7 26  1  0  0  0
  7 29  1  0  0  0
  8  9  1  0  0  0
  8 22  1  0  0  0
  9 10  1  0  0  0
  9 27  2  0  0  0
 10 11  2  0  0  0
 10 15  1  0  0  0
 11 12  1  0  0  0
 11 96  1  0  0  0
 12 13  2  0  0  0
 12 97  1  0  0  0
 13 14  1  0  0  0
 13 31  1  0  0  0
 14 15  2  0  0  0
 14 98  1  0  0  0
 15 99  1  0  0  0
 16 17  2  0  0  0
 16 21  1  0  0  0
 16 31  1  0  0  0
 17 18  1  0  0  0
 17100  1  0  0  0
 18 19  2  0  0  0
 18101  1  0  0  0
 19 20  1  0  0  0
 19 24  1  0  0  0
 20 21  2  0  0  0
 20102  1  0  0  0
 21 23  1  0  0  0
 22 28  1  0  0  0
 22 32  2  0  0  0
 26 27  1  0  0  0
 28103  1  0  0  0
 28104  1  0  0  0
 29105  1  0  0  0
 29106  1  0  0  0
 33 34  1  0  0  0
 33 66  1  0  0  0
 33 70  2  0  0  0
 34 36  1  0  0  0
 34 59  1  0  0  0
 34107  1  0  0  0
 35 44  2  0  0  0
 35 45  1  0  0  0
 35 68  1  0  0  0
 36 56  1  0  0  0
 36108  1  0  0  0
 37 39  1  0  0  0
 37 47  1  0  0  0
 37 66  1  0  0  0
 37109  1  0  0  0
 38 43  2  0  0  0
 38 46  1  0  0  0
 38 47  1  0  0  0
 39 64  1  0  0  0
 39 67  2  0  0  0
 40 52  1  0  0  0
 40 53  2  0  0  0
 40 58  1  0  0  0
 41110  1  0  0  0
 41111  1  0  0  0
 41112  1  0  0  0
 41 48  1  0  0  0
 42 43  1  0  0  0
 42 66  1  0  0  0
 42113  1  0  0  0
 42114  1  0  0  0
 43 44  1  0  0  0
 44115  1  0  0  0
 45 46  2  0  0  0
 45116  1  0  0  0
 46117  1  0  0  0
 47118  1  0  0  0
 47119  1  0  0  0
 48 56  1  0  0  0
 48 65  1  0  0  0
 48120  1  0  0  0
 49 50  1  0  0  0
 49 53  1  0  0  0
 49 64  1  0  0  0
 49121  1  0  0  0
 50 51  1  0  0  0
 50122  1  0  0  0
 50123  1  0  0  0
 51 52  1  0  0  0
 51124  1  0  0  0
 51125  1  0  0  0
 52126  1  0  0  0
 52127  1  0  0  0
 53 54  1  0  0  0
 54 55  2  0  0  0
 54128  1  0  0  0
 55 57  1  0  0  0
 55129  1  0  0  0
 56 69  2  0  0  0
 57 58  2  0  0  0
 57130  1  0  0  0
 58131  1  0  0  0
 59 60  1  0  0  0
 59 61  1  0  0  0
 59 62  1  0  0  0
 60132  1  0  0  0
 60133  1  0  0  0
 60134  1  0  0  0
 61135  1  0  0  0
 61136  1  0  0  0
 61137  1  0  0  0
 62138  1  0  0  0
 62139  1  0  0  0
 62140  1  0  0  0
 63 65  1  0  0  0
 63141  1  0  0  0
 63142  1  0  0  0
 63143  1  0  0  0
 64144  1  0  0  0
 65145  1  0  0  0
 68 83  1  0  0  0
 71 72  2  0  0  0
 71 74  1  0  0  0
 71146  1  0  0  0
 72 73  1  0  0  0
 72 76  1  0  0  0
 73 75  2  0  0  0
 73 77  1  0  0  0
 74 84  1  0  0  0
 74 85  2  0  0  0
 75 85  1  0  0  0
 75 86  1  0  0  0
 76147  1  0  0  0
 76148  1  0  0  0
 76149  1  0  0  0
 77150  1  0  0  0
 77151  1  0  0  0
 77152  1  0  0  0
 78 80  1  0  0  0
 78153  1  0  0  0
 78154  1  0  0  0
 78155  1  0  0  0
 79156  1  0  0  0
 79157  1  0  0  0
 79158  1  0  0  0
 79 84  1  0  0  0
 80 84  1  0  0  0
 80159  1  0  0  0
 80160  1  0  0  0
 81 82  1  0  0  0
 81 83  1  0  0  0
 81161  1  0  0  0
 81162  1  0  0  0
 82 84  1  0  0  0
 82163  1  0  0  0
 82164  1  0  0  0
 83165  1  0  0  0
 83166  1  0  0  0
 86167  1  0  0  0
M  ISO  4   1 100  68 101  83 101  86 100
M  END
> <chiral flag>
0

> <version>
0

> <s_m_source_file>
/data/baiqing/PycharmProjects/Reinvent-master-3.2/result/LINK_invent/BTK/process_docking_weight1_custom_sum_contain_oxygen_bond_distance_aromatic_linkinvent_7_9_3/rearranged_h_0017.sdf

> <i_m_source_file_index>
45

> <r_mmod_Potential_Energy-OPLS-2005>
151.253448486328

> <r_mmod_Stretch_Energy-OPLS-2005>
150.925155639648

> <r_mmod_Bend_Energy-OPLS-2005>
233.068267822266

> <r_mmod_Torsional_Energy-OPLS-2005>
281.259521484375

> <r_mmod_Improper_Torsional_Energy-OPLS-2005>
12.3653173446655

> <r_mmod_Van_der_Waal_Energy-OPLS-2005>
149.23779296875

> <r_mmod_Electrostatic_Energy-OPLS-2005>
-544.412475585938

> <r_mmod_Solvation_Energy-OPLS-2005>
-213.075103759766

> <b_mmod_Minimization_Converged-OPLS-2005>
0

> <r_mmod_RMS_Derivative-OPLS-2005>
6.97134876251221

$$$$
45
                    3D
 Structure written by MMmdl.
160169  0  0  1  0            999 V2000
  -30.2334  -15.8294   20.3264 C   0  0  0  0  0  0
  -30.4081  -13.2368   19.5214 C   0  0  0  0  0  0
  -29.5528  -12.6998   18.3332 C   0  0  0  0  0  0
  -28.1446  -12.2996   18.7948 C   0  0  0  0  0  0
  -27.5872  -13.3244   19.8048 C   0  0  2  0  0  0
  -28.5956  -13.7470   20.9030 C   0  0  0  0  0  0
  -25.2299  -13.8303   20.5834 C   0  0  0  0  0  0
  -24.1703  -13.0430   20.9306 C   0  0  0  0  0  0
  -24.6428  -11.6949   20.8766 C   0  0  0  0  0  0
  -23.9132  -10.4292   21.0391 C   0  0  0  0  0  0
  -24.3661   -9.4204   21.9177 C   0  0  0  0  0  0
  -23.6318   -8.2248   22.0753 C   0  0  0  0  0  0
  -22.4298   -8.0289   21.3543 C   0  0  0  0  0  0
  -21.9947   -9.0265   20.4642 C   0  0  0  0  0  0
  -22.7295  -10.2135   20.3045 C   0  0  0  0  0  0
  -21.6861   -6.0743   22.5279 C   0  0  0  0  0  0
  -21.4019   -6.5643   23.8212 C   0  0  0  0  0  0
  -21.3661   -5.6794   24.9173 C   0  0  0  0  0  0
  -21.6045   -4.3057   24.7223 C   0  0  0  0  0  0
  -21.8819   -3.8150   23.4343 C   0  0  0  0  0  0
  -21.9195   -4.6968   22.3400 C   0  0  0  0  0  0
  -22.7711  -13.5150   21.1931 C   0  0  0  0  0  0
  -22.1663   -4.2154   21.0978 F   0  0  0  0  0  0
  -21.5627   -3.4539   25.7734 F   0  0  0  0  0  0
  -29.7240  -14.4368   20.2163 N   0  0  0  0  0  0
  -26.2762  -12.9664   20.3264 N   0  0  0  0  0  0
  -25.9380  -11.6716   20.5693 N   0  0  0  0  0  0
  -22.0380  -12.8121   22.0480 N   0  0  0  0  0  0
  -25.3869  -15.2048   20.4287 N   0  0  0  0  0  0
  -31.4772  -15.7100   20.2578 O   0  0  0  0  0  0
  -21.6651   -6.8891   21.4243 O   0  0  0  0  0  0
  -22.3382  -14.5448   20.6766 O   0  0  0  0  0  0
  -24.6973  -31.7842   23.1392 C   0  0  0  0  0  0
  -25.9488  -32.4389   23.7993 C   0  0  1  0  0  0
  -27.2287  -26.5584   20.2393 C   0  0  0  0  0  0
  -25.6010  -33.8220   24.1870 N   0  0  0  0  0  0
  -23.5290  -30.3797   21.4974 C   0  0  2  0  0  0
  -24.9846  -28.6851   20.1306 C   0  0  0  0  0  0
  -22.7823  -29.4238   22.4683 C   0  0  0  0  0  0
  -18.0347  -28.1432   22.8452 C   0  0  0  0  0  0
  -24.1492  -36.7113   23.2658 C   0  0  0  0  0  0
  -26.1155  -30.4707   21.4232 C   0  0  0  0  0  0
  -26.1782  -29.0175   20.7813 C   0  0  0  0  0  0
  -27.2809  -27.9893   20.7908 C   0  0  0  0  0  0
  -25.9959  -26.4667   19.5352 C   0  0  0  0  0  0
  -24.9403  -27.4368   19.4832 C   0  0  0  0  0  0
  -23.7901  -29.6608   20.1408 C   0  0  0  0  0  0
  -25.4150  -36.2846   24.0272 C   0  0  1  0  0  0
  -20.5988  -28.3796   23.1120 C   0  0  2  0  0  0
  -20.6807  -26.9444   22.5407 C   0  0  0  0  0  0
  -19.5784  -26.6369   21.5220 C   0  0  0  0  0  0
  -18.1965  -26.7958   22.1618 C   0  0  0  0  0  0
  -19.1616  -28.8941   23.2763 C   0  0  0  0  0  0
  -18.9520  -30.1522   23.8813 C   0  0  0  0  0  0
  -17.6509  -30.6611   24.0549 C   0  0  0  0  0  0
  -25.9140  -34.9243   23.4918 C   0  0  0  0  0  0
  -16.5397  -29.9092   23.6355 C   0  0  0  0  0  0
  -16.7326  -28.6514   23.0373 C   0  0  0  0  0  0
  -26.4619  -31.6481   25.0672 C   0  0  0  0  0  0
  -25.3645  -31.3840   26.1260 C   0  0  0  0  0  0
  -27.0573  -30.2805   24.6667 C   0  0  0  0  0  0
  -27.6042  -32.4373   25.7500 C   0  0  0  0  0  0
  -27.5554  -37.1717   24.8470 C   0  0  0  0  0  0
  -21.4459  -29.3019   22.3427 N   0  0  0  0  0  0
  -26.4262  -37.3624   23.9407 N   0  0  0  0  0  0
  -24.8059  -30.9150   22.0720 N   0  0  0  0  0  0
  -23.4202  -28.7865   23.3094 O   0  0  0  0  0  0
  -28.2190  -25.3116   20.2293 O   0  0  0  0  0  0
  -26.5798  -34.8849   22.4547 O   0  0  0  0  0  0
  -23.5963  -32.0982   23.6260 O   0  0  0  0  0  0
  -29.0707  -20.3418   20.3270 C   0  0  0  0  0  0
  -29.7860  -21.2316   21.1832 C   0  0  0  0  0  0
  -29.6100  -18.8449   20.5502 C   0  0  0  0  0  0
  -28.2931  -23.4875   20.4882 C   0  0  1  0  0  0
  -28.1602  -21.7803   19.7226 C   0  0  0  0  0  0
  -29.5799  -22.8550   21.2974 C   0  0  0  0  0  0
  -26.6710  -21.4024   19.7642 C   0  0  0  0  0  0
  -28.5587  -21.9511   18.2477 C   0  0  0  0  0  0
  -30.8467  -23.5299   20.7424 C   0  0  0  0  0  0
  -29.4216  -23.2223   22.7846 C   0  0  0  0  0  0
  -31.5233  -18.3060   22.1746 C   0  0  0  0  0  0
  -30.7026  -20.5261   21.8357 N   0  0  0  0  0  0
  -30.6003  -19.1927   21.4899 N   0  0  0  0  0  0
  -29.4912  -17.2559   20.2527 N   0  0  0  0  0  0
  -31.3789  -13.5368   19.1253 H   0  0  0  0  0  0
  -30.6316  -12.4388   20.2317 H   0  0  0  0  0  0
  -30.0485  -11.8544   17.8541 H   0  0  0  0  0  0
  -29.4734  -13.4793   17.5741 H   0  0  0  0  0  0
  -28.2124  -11.3215   19.2726 H   0  0  0  0  0  0
  -27.4743  -12.1833   17.9423 H   0  0  0  0  0  0
  -27.4183  -14.2152   19.1976 H   0  0  0  0  0  0
  -28.9117  -12.9012   21.5157 H   0  0  0  0  0  0
  -28.1259  -14.4565   21.5858 H   0  0  0  0  0  0
  -25.2800   -9.5677   22.4762 H   0  0  0  0  0  0
  -24.0017   -7.4641   22.7479 H   0  0  0  0  0  0
  -21.0876   -8.8795   19.8949 H   0  0  0  0  0  0
  -22.3754  -10.9675   19.6157 H   0  0  0  0  0  0
  -21.2014   -7.6152   23.9717 H   0  0  0  0  0  0
  -21.1482   -6.0524   25.9076 H   0  0  0  0  0  0
  -22.0596   -2.7612   23.2842 H   0  0  0  0  0  0
  -22.4028  -11.9800   22.4875 H   0  0  0  0  0  0
  -21.0984  -13.1106   22.2677 H   0  0  0  0  0  0
  -24.6150  -15.8521   20.5466 H   0  0  0  0  0  0
  -26.2313  -15.6512   20.0977 H   0  0  0  0  0  0
  -26.7582  -32.4825   23.0713 H   0  0  0  0  0  0
  -25.0054  -33.9234   24.9956 H   0  0  0  0  0  0
  -22.8626  -31.2205   21.2941 H   0  0  0  0  0  0
  -23.3774  -35.9421   23.3267 H   0  0  0  0  0  0
  -24.3552  -36.8835   22.2082 H   0  0  0  0  0  0
  -23.7234  -37.6266   23.6780 H   0  0  0  0  0  0
  -26.3310  -31.1831   20.6258 H   0  0  0  0  0  0
  -26.9626  -30.5466   22.0925 H   0  0  0  0  0  0
  -28.1865  -28.2645   21.3126 H   0  0  0  0  0  0
  -25.8099  -25.5343   19.0209 H   0  0  0  0  0  0
  -24.0434  -27.1707   18.9411 H   0  0  0  0  0  0
  -23.9811  -30.4123   19.3739 H   0  0  0  0  0  0
  -22.8912  -29.1361   19.8123 H   0  0  0  0  0  0
  -25.1368  -36.1588   25.0762 H   0  0  0  0  0  0
  -21.0067  -28.3429   24.1248 H   0  0  0  0  0  0
  -20.5657  -26.2426   23.3682 H   0  0  0  0  0  0
  -21.6668  -26.7367   22.1233 H   0  0  0  0  0  0
  -19.6936  -25.6257   21.1306 H   0  0  0  0  0  0
  -19.6730  -27.3135   20.6715 H   0  0  0  0  0  0
  -17.4237  -26.6705   21.4019 H   0  0  0  0  0  0
  -18.0345  -26.0122   22.9032 H   0  0  0  0  0  0
  -19.7996  -30.7360   24.2145 H   0  0  0  0  0  0
  -17.5060  -31.6283   24.5170 H   0  0  0  0  0  0
  -15.5395  -30.2968   23.7729 H   0  0  0  0  0  0
  -15.8726  -28.0805   22.7139 H   0  0  0  0  0  0
  -24.5865  -30.7154   25.7556 H   0  0  0  0  0  0
  -24.8796  -32.3074   26.4436 H   0  0  0  0  0  0
  -25.7788  -30.9166   27.0202 H   0  0  0  0  0  0
  -26.3315  -29.6379   24.1675 H   0  0  0  0  0  0
  -27.3967  -29.7307   25.5456 H   0  0  0  0  0  0
  -27.9307  -30.3904   24.0238 H   0  0  0  0  0  0
  -27.2567  -33.3763   26.1822 H   0  0  0  0  0  0
  -28.3986  -32.6792   25.0426 H   0  0  0  0  0  0
  -28.0563  -31.8672   26.5626 H   0  0  0  0  0  0
  -28.2545  -38.0035   24.7505 H   0  0  0  0  0  0
  -28.1076  -36.2556   24.6316 H   0  0  0  0  0  0
  -27.2267  -37.1373   25.8871 H   0  0  0  0  0  0
  -20.9797  -29.8645   21.6447 H   0  0  0  0  0  0
  -26.0075  -38.2665   24.1419 H   0  0  0  0  0  0
  -27.4645  -23.4309   21.1947 H   0  0  0  0  0  0
  -26.3441  -21.2273   20.7895 H   0  0  0  0  0  0
  -26.4710  -20.4929   19.1969 H   0  0  0  0  0  0
  -26.0472  -22.1964   19.3519 H   0  0  0  0  0  0
  -29.6208  -22.1721   18.1476 H   0  0  0  0  0  0
  -28.0092  -22.7702   17.7821 H   0  0  0  0  0  0
  -28.3586  -21.0471   17.6716 H   0  0  0  0  0  0
  -30.9983  -23.2845   19.6919 H   0  0  0  0  0  0
  -31.7363  -23.2076   21.2839 H   0  0  0  0  0  0
  -30.7873  -24.6155   20.8217 H   0  0  0  0  0  0
  -28.5557  -22.7238   23.2210 H   0  0  0  0  0  0
  -29.2886  -24.2964   22.9169 H   0  0  0  0  0  0
  -30.2955  -22.9225   23.3636 H   0  0  0  0  0  0
  -30.9803  -17.4763   22.6265 H   0  0  0  0  0  0
  -32.0559  -18.8318   22.9681 H   0  0  0  0  0  0
  -32.2572  -17.9228   21.4664 H   0  0  0  0  0  0
  -28.5420  -17.0556   19.9771 H   0  0  0  0  0  0
  1 25  1  0  0  0
  1 30  2  0  0  0
  1 84  1  0  0  0
  2  3  1  0  0  0
  2 25  1  0  0  0
  2 85  1  0  0  0
  2 86  1  0  0  0
  3  4  1  0  0  0
  3 87  1  0  0  0
  3 88  1  0  0  0
  4  5  1  0  0  0
  4 89  1  0  0  0
  4 90  1  0  0  0
  5  6  1  0  0  0
  5 26  1  0  0  0
  5 91  1  0  0  0
  6 25  1  0  0  0
  6 92  1  0  0  0
  6 93  1  0  0  0
  7  8  2  0  0  0
  7 26  1  0  0  0
  7 29  1  0  0  0
  8  9  1  0  0  0
  8 22  1  0  0  0
  9 10  1  0  0  0
  9 27  2  0  0  0
 10 11  2  0  0  0
 10 15  1  0  0  0
 11 12  1  0  0  0
 11 94  1  0  0  0
 12 13  2  0  0  0
 12 95  1  0  0  0
 13 14  1  0  0  0
 13 31  1  0  0  0
 14 15  2  0  0  0
 14 96  1  0  0  0
 15 97  1  0  0  0
 16 17  2  0  0  0
 16 21  1  0  0  0
 16 31  1  0  0  0
 17 18  1  0  0  0
 17 98  1  0  0  0
 18 19  2  0  0  0
 18 99  1  0  0  0
 19 20  1  0  0  0
 19 24  1  0  0  0
 20 21  2  0  0  0
 20100  1  0  0  0
 21 23  1  0  0  0
 22 28  1  0  0  0
 22 32  2  0  0  0
 26 27  1  0  0  0
 28101  1  0  0  0
 28102  1  0  0  0
 29103  1  0  0  0
 29104  1  0  0  0
 33 34  1  0  0  0
 33 66  1  0  0  0
 33 70  2  0  0  0
 34 36  1  0  0  0
 34 59  1  0  0  0
 34105  1  0  0  0
 35 44  2  0  0  0
 35 45  1  0  0  0
 35 68  1  0  0  0
 36 56  1  0  0  0
 36106  1  0  0  0
 37 39  1  0  0  0
 37 47  1  0  0  0
 37 66  1  0  0  0
 37107  1  0  0  0
 38 43  2  0  0  0
 38 46  1  0  0  0
 38 47  1  0  0  0
 39 64  1  0  0  0
 39 67  2  0  0  0
 40 52  1  0  0  0
 40 53  2  0  0  0
 40 58  1  0  0  0
 41108  1  0  0  0
 41109  1  0  0  0
 41110  1  0  0  0
 41 48  1  0  0  0
 42 43  1  0  0  0
 42 66  1  0  0  0
 42111  1  0  0  0
 42112  1  0  0  0
 43 44  1  0  0  0
 44113  1  0  0  0
 45 46  2  0  0  0
 45114  1  0  0  0
 46115  1  0  0  0
 47116  1  0  0  0
 47117  1  0  0  0
 48 56  1  0  0  0
 48 65  1  0  0  0
 48118  1  0  0  0
 49 50  1  0  0  0
 49 53  1  0  0  0
 49 64  1  0  0  0
 49119  1  0  0  0
 50 51  1  0  0  0
 50120  1  0  0  0
 50121  1  0  0  0
 51 52  1  0  0  0
 51122  1  0  0  0
 51123  1  0  0  0
 52124  1  0  0  0
 52125  1  0  0  0
 53 54  1  0  0  0
 54 55  2  0  0  0
 54126  1  0  0  0
 55 57  1  0  0  0
 55127  1  0  0  0
 56 69  2  0  0  0
 57 58  2  0  0  0
 57128  1  0  0  0
 58129  1  0  0  0
 59 60  1  0  0  0
 59 61  1  0  0  0
 59 62  1  0  0  0
 60130  1  0  0  0
 60131  1  0  0  0
 60132  1  0  0  0
 61133  1  0  0  0
 61134  1  0  0  0
 61135  1  0  0  0
 62136  1  0  0  0
 62137  1  0  0  0
 62138  1  0  0  0
 63 65  1  0  0  0
 63139  1  0  0  0
 63140  1  0  0  0
 63141  1  0  0  0
 64142  1  0  0  0
 65143  1  0  0  0
 68 74  1  0  0  0
 71 72  1  0  0  0
 71 73  2  0  0  0
 71 75  1  0  0  0
 72 76  1  0  0  0
 72 82  2  0  0  0
 73 83  1  0  0  0
 73 84  1  0  0  0
 74 75  1  0  0  0
 74 76  1  0  0  0
 74144  1  0  0  0
 75 77  1  0  0  0
 75 78  1  0  0  0
 76 79  1  0  0  0
 76 80  1  0  0  0
 77145  1  0  0  0
 77146  1  0  0  0
 77147  1  0  0  0
 78148  1  0  0  0
 78149  1  0  0  0
 78150  1  0  0  0
 79151  1  0  0  0
 79152  1  0  0  0
 79153  1  0  0  0
 80154  1  0  0  0
 80155  1  0  0  0
 80156  1  0  0  0
 81 83  1  0  0  0
 81157  1  0  0  0
 81158  1  0  0  0
 81159  1  0  0  0
 82 83  1  0  0  0
 84160  1  0  0  0
M  ISO  4   1 100  68 101  74 101  84 100
M  END
> <chiral flag>
0

> <version>
0

> <s_m_source_file>
/data/baiqing/PycharmProjects/Reinvent-master-3.2/result/LINK_invent/BTK/process_docking_weight1_custom_sum_contain_oxygen_bond_distance_aromatic_linkinvent_7_9_3/rearranged_h_0017.sdf

> <i_m_source_file_index>
46

> <r_mmod_Potential_Energy-OPLS-2005>
3106.68823242188

> <r_mmod_Stretch_Energy-OPLS-2005>
1256.09020996094

> <r_mmod_Bend_Energy-OPLS-2005>
931.961181640625

> <r_mmod_Torsional_Energy-OPLS-2005>
237.577301025391

> <r_mmod_Improper_Torsional_Energy-OPLS-2005>
7.20448064804077

> <r_mmod_Van_der_Waal_Energy-OPLS-2005>
103.473022460938

> <r_mmod_Electrostatic_Energy-OPLS-2005>
-423.359405517578

> <r_mmod_Solvation_Energy-OPLS-2005>
-213.836334228516

> <b_mmod_Minimization_Converged-OPLS-2005>
0

> <r_mmod_RMS_Derivative-OPLS-2005>
0.262387663125992

$$$$
46
                    3D
 Structure written by MMmdl.
153161  0  0  1  0            999 V2000
  -30.4279  -15.1773   20.3813 C   0  0  0  0  0  0
  -30.4517  -12.7474   19.5094 C   0  0  0  0  0  0
  -29.5384  -12.5707   18.2700 C   0  0  0  0  0  0
  -28.0764  -12.3188   18.6868 C   0  0  0  0  0  0
  -27.6192  -13.2654   19.8258 C   0  0  2  0  0  0
  -28.6589  -13.3708   20.9602 C   0  0  0  0  0  0
  -25.2425  -13.8219   20.5740 C   0  0  0  0  0  0
  -24.1764  -13.0425   20.9247 C   0  0  0  0  0  0
  -24.6405  -11.6914   20.8740 C   0  0  0  0  0  0
  -23.9075  -10.4291   21.0399 C   0  0  0  0  0  0
  -24.3630   -9.4212   21.9173 C   0  0  0  0  0  0
  -23.6315   -8.2240   22.0743 C   0  0  0  0  0  0
  -22.4296   -8.0278   21.3534 C   0  0  0  0  0  0
  -21.9923   -9.0253   20.4645 C   0  0  0  0  0  0
  -22.7241  -10.2134   20.3066 C   0  0  0  0  0  0
  -21.6851   -6.0740   22.5278 C   0  0  0  0  0  0
  -21.4011   -6.5640   23.8214 C   0  0  0  0  0  0
  -21.3664   -5.6791   24.9172 C   0  0  0  0  0  0
  -21.6054   -4.3057   24.7213 C   0  0  0  0  0  0
  -21.8811   -3.8145   23.4329 C   0  0  0  0  0  0
  -21.9192   -4.6967   22.3389 C   0  0  0  0  0  0
  -22.7789  -13.5215   21.1881 C   0  0  0  0  0  0
  -22.1663   -4.2147   21.0961 F   0  0  0  0  0  0
  -21.5633   -3.4540   25.7725 F   0  0  0  0  0  0
  -29.8993  -13.8659   20.3443 N   0  0  0  0  0  0
  -26.2846  -12.9479   20.3190 N   0  0  0  0  0  0
  -25.9340  -11.6586   20.5678 N   0  0  0  0  0  0
  -22.0421  -12.8251   22.0445 N   0  0  0  0  0  0
  -25.4038  -15.1961   20.4244 N   0  0  0  0  0  0
  -31.6495  -15.2404   20.1791 O   0  0  0  0  0  0
  -21.6645   -6.8887   21.4245 O   0  0  0  0  0  0
  -22.3485  -14.5499   20.6679 O   0  0  0  0  0  0
  -24.6579  -31.8274   23.1749 C   0  0  0  0  0  0
  -25.9289  -32.4599   23.8196 C   0  0  1  0  0  0
  -27.2227  -26.9731   20.1747 C   0  0  0  0  0  0
  -25.5983  -33.8417   24.2104 N   0  0  0  0  0  0
  -23.4715  -30.4399   21.5216 C   0  0  2  0  0  0
  -24.9253  -28.8330   20.1116 C   0  0  0  0  0  0
  -22.7642  -29.4469   22.4791 C   0  0  0  0  0  0
  -18.0317  -28.1406   22.8453 C   0  0  0  0  0  0
  -24.1510  -36.7203   23.2646 C   0  0  0  0  0  0
  -26.0384  -30.6456   21.4016 C   0  0  0  0  0  0
  -26.1076  -29.2414   20.7424 C   0  0  0  0  0  0
  -27.2514  -28.3306   20.7495 C   0  0  0  0  0  0
  -26.0130  -26.7032   19.4985 C   0  0  0  0  0  0
  -24.9013  -27.5832   19.4705 C   0  0  0  0  0  0
  -23.7096  -29.7560   20.1477 C   0  0  0  0  0  0
  -25.4145  -36.2967   24.0306 C   0  0  1  0  0  0
  -20.5938  -28.3751   23.1193 C   0  0  2  0  0  0
  -20.6793  -26.9433   22.5409 C   0  0  0  0  0  0
  -19.5782  -26.6371   21.5211 C   0  0  0  0  0  0
  -18.1963  -26.7944   22.1609 C   0  0  0  0  0  0
  -19.1581  -28.8901   23.2810 C   0  0  0  0  0  0
  -18.9485  -30.1479   23.8854 C   0  0  0  0  0  0
  -17.6481  -30.6594   24.0543 C   0  0  0  0  0  0
  -25.9095  -34.9349   23.5024 C   0  0  0  0  0  0
  -16.5368  -29.9079   23.6340 C   0  0  0  0  0  0
  -16.7301  -28.6504   23.0361 C   0  0  0  0  0  0
  -26.4565  -31.6533   25.0709 C   0  0  0  0  0  0
  -25.3713  -31.3769   26.1385 C   0  0  0  0  0  0
  -27.0430  -30.2893   24.6421 C   0  0  0  0  0  0
  -27.6088  -32.4314   25.7479 C   0  0  0  0  0  0
  -27.5585  -37.1756   24.8451 C   0  0  0  0  0  0
  -21.4317  -29.3038   22.3537 N   0  0  0  0  0  0
  -26.4284  -37.3702   23.9407 N   0  0  0  0  0  0
  -24.7432  -30.9971   22.0865 N   0  0  0  0  0  0
  -23.4205  -28.8031   23.3018 O   0  0  0  0  0  0
  -28.2467  -25.9059   20.2524 O   0  0  0  0  0  0
  -26.5687  -34.8871   22.4601 O   0  0  0  0  0  0
  -23.5665  -32.1223   23.6881 O   0  0  0  0  0  0
  -30.4114  -18.9309   20.9665 C   0  0  0  0  0  0
  -30.2435  -20.4045   20.9735 C   0  0  0  0  0  0
  -29.1712  -21.1946   20.3571 C   0  0  0  0  0  0
  -28.3148  -20.2248   19.6856 C   0  0  0  0  0  0
  -29.5433  -17.9577   20.3454 C   0  0  0  0  0  0
  -28.4750  -18.7348   19.7150 C   0  0  0  0  0  0
  -31.3264  -21.1727   21.7131 C   0  0  0  0  0  0
  -27.1765  -20.8210   18.8691 C   0  0  0  0  0  0
  -29.1234  -22.9394   20.4476 C   0  0  0  0  0  0
  -28.0392  -24.2942   20.0779 C   0  0  0  0  0  0
  -29.5617  -16.3560   20.4169 N   0  0  0  0  0  0
  -27.2740  -17.7715   18.9230 Cl  0  0  0  0  0  0
  -31.4720  -12.9592   19.1861 H   0  0  0  0  0  0
  -30.5092  -11.8233   20.0856 H   0  0  0  0  0  0
  -29.9018  -11.7522   17.6466 H   0  0  0  0  0  0
  -29.5923  -13.4710   17.6558 H   0  0  0  0  0  0
  -28.0017  -11.2833   19.0178 H   0  0  0  0  0  0
  -27.4149  -12.4116   17.8242 H   0  0  0  0  0  0
  -27.5525  -14.2519   19.3661 H   0  0  0  0  0  0
  -28.8069  -12.4087   21.4531 H   0  0  0  0  0  0
  -28.3182  -14.0629   21.7313 H   0  0  0  0  0  0
  -25.2775   -9.5703   22.4745 H   0  0  0  0  0  0
  -24.0026   -7.4640   22.7473 H   0  0  0  0  0  0
  -21.0833   -8.8780   19.8976 H   0  0  0  0  0  0
  -22.3685  -10.9679   19.6191 H   0  0  0  0  0  0
  -21.2007   -7.6151   23.9726 H   0  0  0  0  0  0
  -21.1500   -6.0510   25.9078 H   0  0  0  0  0  0
  -22.0592   -2.7609   23.2816 H   0  0  0  0  0  0
  -22.4042  -11.9969   22.4934 H   0  0  0  0  0  0
  -21.1027  -13.1300   22.2590 H   0  0  0  0  0  0
  -24.6252  -15.8349   20.5412 H   0  0  0  0  0  0
  -26.2256  -15.6481   20.0470 H   0  0  0  0  0  0
  -26.7355  -32.5144   23.0906 H   0  0  0  0  0  0
  -25.0126  -33.9503   25.0255 H   0  0  0  0  0  0
  -22.7835  -31.2702   21.3531 H   0  0  0  0  0  0
  -23.3786  -35.9517   23.3262 H   0  0  0  0  0  0
  -24.3601  -36.8886   22.2068 H   0  0  0  0  0  0
  -23.7246  -37.6374   23.6723 H   0  0  0  0  0  0
  -26.2178  -31.3911   20.6260 H   0  0  0  0  0  0
  -26.8998  -30.6974   22.0567 H   0  0  0  0  0  0
  -28.1465  -28.6385   21.2722 H   0  0  0  0  0  0
  -25.8975  -25.7473   19.0082 H   0  0  0  0  0  0
  -24.0019  -27.2652   18.9605 H   0  0  0  0  0  0
  -23.8656  -30.5252   19.3910 H   0  0  0  0  0  0
  -22.8207  -29.2094   19.8271 H   0  0  0  0  0  0
  -25.1346  -36.1771   25.0799 H   0  0  0  0  0  0
  -21.0021  -28.3362   24.1316 H   0  0  0  0  0  0
  -20.5679  -26.2365   23.3645 H   0  0  0  0  0  0
  -21.6660  -26.7421   22.1216 H   0  0  0  0  0  0
  -19.6945  -25.6266   21.1280 H   0  0  0  0  0  0
  -19.6738  -27.3146   20.6714 H   0  0  0  0  0  0
  -17.4233  -26.6674   21.4005 H   0  0  0  0  0  0
  -18.0357  -26.0100   22.9023 H   0  0  0  0  0  0
  -19.7962  -30.7299   24.2218 H   0  0  0  0  0  0
  -17.5039  -31.6278   24.5134 H   0  0  0  0  0  0
  -15.5368  -30.2968   23.7703 H   0  0  0  0  0  0
  -15.8698  -28.0805   22.7112 H   0  0  0  0  0  0
  -24.5890  -30.7128   25.7694 H   0  0  0  0  0  0
  -24.8911  -32.2964   26.4742 H   0  0  0  0  0  0
  -25.7971  -30.8970   27.0209 H   0  0  0  0  0  0
  -26.3076  -29.6582   24.1419 H   0  0  0  0  0  0
  -27.3938  -29.7250   25.5073 H   0  0  0  0  0  0
  -27.9046  -30.4051   23.9839 H   0  0  0  0  0  0
  -27.2691  -33.3641   26.1990 H   0  0  0  0  0  0
  -28.3929  -32.6826   25.0321 H   0  0  0  0  0  0
  -28.0737  -31.8480   26.5437 H   0  0  0  0  0  0
  -28.2557  -38.0094   24.7528 H   0  0  0  0  0  0
  -28.1124  -36.2620   24.6241 H   0  0  0  0  0  0
  -27.2304  -37.1354   25.8850 H   0  0  0  0  0  0
  -20.9571  -29.8706   21.6648 H   0  0  0  0  0  0
  -26.0135  -38.2757   24.1422 H   0  0  0  0  0  0
  -31.2521  -18.5204   21.5071 H   0  0  0  0  0  0
  -32.2034  -20.5502   21.8938 H   0  0  0  0  0  0
  -30.9571  -21.5204   22.6785 H   0  0  0  0  0  0
  -31.6688  -22.0352   21.1410 H   0  0  0  0  0  0
  -27.4517  -21.7999   18.4789 H   0  0  0  0  0  0
  -26.2805  -20.9366   19.4785 H   0  0  0  0  0  0
  -26.9319  -20.2153   17.9967 H   0  0  0  0  0  0
  -30.0436  -23.2187   19.9355 H   0  0  0  0  0  0
  -29.3466  -23.1083   21.5013 H   0  0  0  0  0  0
  -27.1127  -24.0784   20.6105 H   0  0  0  0  0  0
  -27.7831  -24.1728   19.0253 H   0  0  0  0  0  0
  -28.6113  -16.0179   20.4098 H   0  0  0  0  0  0
  1 25  1  0  0  0
  1 30  2  0  0  0
  1 81  1  0  0  0
  2  3  1  0  0  0
  2 25  1  0  0  0
  2 83  1  0  0  0
  2 84  1  0  0  0
  3  4  1  0  0  0
  3 85  1  0  0  0
  3 86  1  0  0  0
  4  5  1  0  0  0
  4 87  1  0  0  0
  4 88  1  0  0  0
  5  6  1  0  0  0
  5 26  1  0  0  0
  5 89  1  0  0  0
  6 25  1  0  0  0
  6 90  1  0  0  0
  6 91  1  0  0  0
  7  8  2  0  0  0
  7 26  1  0  0  0
  7 29  1  0  0  0
  8  9  1  0  0  0
  8 22  1  0  0  0
  9 10  1  0  0  0
  9 27  2  0  0  0
 10 11  2  0  0  0
 10 15  1  0  0  0
 11 12  1  0  0  0
 11 92  1  0  0  0
 12 13  2  0  0  0
 12 93  1  0  0  0
 13 14  1  0  0  0
 13 31  1  0  0  0
 14 15  2  0  0  0
 14 94  1  0  0  0
 15 95  1  0  0  0
 16 17  2  0  0  0
 16 21  1  0  0  0
 16 31  1  0  0  0
 17 18  1  0  0  0
 17 96  1  0  0  0
 18 19  2  0  0  0
 18 97  1  0  0  0
 19 20  1  0  0  0
 19 24  1  0  0  0
 20 21  2  0  0  0
 20 98  1  0  0  0
 21 23  1  0  0  0
 22 28  1  0  0  0
 22 32  2  0  0  0
 26 27  1  0  0  0
 28 99  1  0  0  0
 28100  1  0  0  0
 29101  1  0  0  0
 29102  1  0  0  0
 33 34  1  0  0  0
 33 66  1  0  0  0
 33 70  2  0  0  0
 34 36  1  0  0  0
 34 59  1  0  0  0
 34103  1  0  0  0
 35 44  2  0  0  0
 35 45  1  0  0  0
 35 68  1  0  0  0
 36 56  1  0  0  0
 36104  1  0  0  0
 37 39  1  0  0  0
 37 47  1  0  0  0
 37 66  1  0  0  0
 37105  1  0  0  0
 38 43  2  0  0  0
 38 46  1  0  0  0
 38 47  1  0  0  0
 39 64  1  0  0  0
 39 67  2  0  0  0
 40 52  1  0  0  0
 40 53  2  0  0  0
 40 58  1  0  0  0
 41106  1  0  0  0
 41107  1  0  0  0
 41108  1  0  0  0
 41 48  1  0  0  0
 42 43  1  0  0  0
 42 66  1  0  0  0
 42109  1  0  0  0
 42110  1  0  0  0
 43 44  1  0  0  0
 44111  1  0  0  0
 45 46  2  0  0  0
 45112  1  0  0  0
 46113  1  0  0  0
 47114  1  0  0  0
 47115  1  0  0  0
 48 56  1  0  0  0
 48 65  1  0  0  0
 48116  1  0  0  0
 49 50  1  0  0  0
 49 53  1  0  0  0
 49 64  1  0  0  0
 49117  1  0  0  0
 50 51  1  0  0  0
 50118  1  0  0  0
 50119  1  0  0  0
 51 52  1  0  0  0
 51120  1  0  0  0
 51121  1  0  0  0
 52122  1  0  0  0
 52123  1  0  0  0
 53 54  1  0  0  0
 54 55  2  0  0  0
 54124  1  0  0  0
 55 57  1  0  0  0
 55125  1  0  0  0
 56 69  2  0  0  0
 57 58  2  0  0  0
 57126  1  0  0  0
 58127  1  0  0  0
 59 60  1  0  0  0
 59 61  1  0  0  0
 59 62  1  0  0  0
 60128  1  0  0  0
 60129  1  0  0  0
 60130  1  0  0  0
 61131  1  0  0  0
 61132  1  0  0  0
 61133  1  0  0  0
 62134  1  0  0  0
 62135  1  0  0  0
 62136  1  0  0  0
 63 65  1  0  0  0
 63137  1  0  0  0
 63138  1  0  0  0
 63139  1  0  0  0
 64140  1  0  0  0
 65141  1  0  0  0
 68 80  1  0  0  0
 71 72  2  0  0  0
 71 75  1  0  0  0
 71142  1  0  0  0
 72 73  1  0  0  0
 72 77  1  0  0  0
 73 74  2  0  0  0
 73 79  1  0  0  0
 74 76  1  0  0  0
 74 78  1  0  0  0
 75 76  2  0  0  0
 75 81  1  0  0  0
 76 82  1  0  0  0
 77143  1  0  0  0
 77144  1  0  0  0
 77145  1  0  0  0
 78146  1  0  0  0
 78147  1  0  0  0
 78148  1  0  0  0
 79 80  1  0  0  0
 79149  1  0  0  0
 79150  1  0  0  0
 80151  1  0  0  0
 80152  1  0  0  0
 81153  1  0  0  0
M  ISO  4   1 100  68 101  80 101  81 100
M  END
> <chiral flag>
0

> <version>
0

> <s_m_source_file>
/data/baiqing/PycharmProjects/Reinvent-master-3.2/result/LINK_invent/BTK/process_docking_weight1_custom_sum_contain_oxygen_bond_distance_aromatic_linkinvent_7_9_3/rearranged_h_0017.sdf

> <i_m_source_file_index>
47

> <r_mmod_Potential_Energy-OPLS-2005>
1019.47631835938

> <r_mmod_Stretch_Energy-OPLS-2005>
459.921722412109

> <r_mmod_Bend_Energy-OPLS-2005>
411.353271484375

> <r_mmod_Torsional_Energy-OPLS-2005>
223.557952880859

> <r_mmod_Improper_Torsional_Energy-OPLS-2005>
5.82087087631226

> <r_mmod_Van_der_Waal_Energy-OPLS-2005>
127.030174255371

> <r_mmod_Electrostatic_Energy-OPLS-2005>
-389.224212646484

> <r_mmod_Solvation_Energy-OPLS-2005>
-200.408721923828

> <b_mmod_Minimization_Converged-OPLS-2005>
0

> <r_mmod_RMS_Derivative-OPLS-2005>
2.30452418327332

$$$$
47
                    3D
 Structure written by MMmdl.
156164  0  0  1  0            999 V2000
  -30.5911  -14.6805   20.5062 C   0  0  0  0  0  0
  -30.4456  -12.4178   19.4566 C   0  0  0  0  0  0
  -29.5121  -12.5171   18.2281 C   0  0  0  0  0  0
  -28.0350  -12.3468   18.6392 C   0  0  0  0  0  0
  -27.6534  -13.2163   19.8672 C   0  0  2  0  0  0
  -28.6986  -13.0679   20.9956 C   0  0  0  0  0  0
  -25.2502  -13.8122   20.5568 C   0  0  0  0  0  0
  -24.1799  -13.0403   20.9156 C   0  0  0  0  0  0
  -24.6393  -11.6885   20.8748 C   0  0  0  0  0  0
  -23.9065  -10.4276   21.0418 C   0  0  0  0  0  0
  -24.3616   -9.4193   21.9194 C   0  0  0  0  0  0
  -23.6289   -8.2230   22.0759 C   0  0  0  0  0  0
  -22.4273   -8.0271   21.3547 C   0  0  0  0  0  0
  -21.9911   -9.0244   20.4650 C   0  0  0  0  0  0
  -22.7239  -10.2122   20.3065 C   0  0  0  0  0  0
  -21.6845   -6.0733   22.5281 C   0  0  0  0  0  0
  -21.4004   -6.5639   23.8214 C   0  0  0  0  0  0
  -21.3660   -5.6792   24.9177 C   0  0  0  0  0  0
  -21.6048   -4.3057   24.7226 C   0  0  0  0  0  0
  -21.8817   -3.8147   23.4348 C   0  0  0  0  0  0
  -21.9190   -4.6963   22.3404 C   0  0  0  0  0  0
  -22.7827  -13.5207   21.1842 C   0  0  0  0  0  0
  -22.1659   -4.2151   21.0981 F   0  0  0  0  0  0
  -21.5637   -3.4540   25.7740 F   0  0  0  0  0  0
  -30.0111  -13.4357   20.4368 N   0  0  0  0  0  0
  -26.2982  -12.9333   20.3331 N   0  0  0  0  0  0
  -25.9332  -11.6491   20.5797 N   0  0  0  0  0  0
  -22.0482  -12.8207   22.0417 N   0  0  0  0  0  0
  -25.4092  -15.1808   20.3783 N   0  0  0  0  0  0
  -31.7439  -14.8613   20.1055 O   0  0  0  0  0  0
  -21.6632   -6.8872   21.4244 O   0  0  0  0  0  0
  -22.3508  -14.5519   20.6707 O   0  0  0  0  0  0
  -24.6272  -31.8576   23.1983 C   0  0  0  0  0  0
  -25.9113  -32.4761   23.8321 C   0  0  1  0  0  0
  -27.2343  -27.3041   20.1356 C   0  0  0  0  0  0
  -25.5928  -33.8559   24.2256 N   0  0  0  0  0  0
  -23.4216  -30.4766   21.5409 C   0  0  2  0  0  0
  -24.8699  -28.9137   20.1232 C   0  0  0  0  0  0
  -22.7477  -29.4613   22.4938 C   0  0  0  0  0  0
  -18.0295  -28.1383   22.8478 C   0  0  0  0  0  0
  -24.1495  -36.7285   23.2640 C   0  0  0  0  0  0
  -25.9609  -30.7843   21.3677 C   0  0  0  0  0  0
  -26.0369  -29.4048   20.7210 C   0  0  0  0  0  0
  -27.2235  -28.6145   20.7085 C   0  0  0  0  0  0
  -26.0438  -26.8518   19.5324 C   0  0  0  0  0  0
  -24.8749  -27.6428   19.5207 C   0  0  0  0  0  0
  -23.6386  -29.7979   20.1618 C   0  0  0  0  0  0
  -25.4116  -36.3069   24.0335 C   0  0  1  0  0  0
  -20.5888  -28.3685   23.1287 C   0  0  2  0  0  0
  -20.6783  -26.9407   22.5413 C   0  0  0  0  0  0
  -19.5762  -26.6379   21.5211 C   0  0  0  0  0  0
  -18.1939  -26.7924   22.1617 C   0  0  0  0  0  0
  -19.1545  -28.8850   23.2874 C   0  0  0  0  0  0
  -18.9467  -30.1451   23.8891 C   0  0  0  0  0  0
  -17.6466  -30.6582   24.0560 C   0  0  0  0  0  0
  -25.9055  -34.9441   23.5097 C   0  0  0  0  0  0
  -16.5358  -29.9078   23.6332 C   0  0  0  0  0  0
  -16.7280  -28.6502   23.0341 C   0  0  0  0  0  0
  -26.4497  -31.6580   25.0698 C   0  0  0  0  0  0
  -25.3729  -31.3730   26.1428 C   0  0  0  0  0  0
  -27.0340  -30.3011   24.6138 C   0  0  0  0  0  0
  -27.6054  -32.4319   25.7473 C   0  0  0  0  0  0
  -27.5578  -37.1795   24.8466 C   0  0  0  0  0  0
  -21.4192  -29.3037   22.3681 N   0  0  0  0  0  0
  -26.4290  -37.3763   23.9412 N   0  0  0  0  0  0
  -24.6885  -31.0571   22.0931 N   0  0  0  0  0  0
  -23.4201  -28.8160   23.3025 O   0  0  0  0  0  0
  -28.3955  -26.5249   20.0567 O   0  0  0  0  0  0
  -26.5613  -34.8917   22.4658 O   0  0  0  0  0  0
  -23.5436  -32.1378   23.7311 O   0  0  0  0  0  0
  -30.3697  -19.4655   20.1819 C   0  0  0  0  0  0
  -29.2430  -20.0960   20.7917 C   0  0  0  0  0  0
  -28.3092  -19.1947   21.3924 C   0  0  0  0  0  0
  -29.6820  -17.1563   20.8382 C   0  0  0  0  0  0
  -30.5816  -18.0453   20.1825 C   0  0  0  0  0  0
  -28.5549  -17.7784   21.4476 C   0  0  0  0  0  0
  -27.0378  -19.7510   22.0296 C   0  0  0  0  0  0
  -29.1288  -21.6807   20.9675 C   0  0  0  0  0  0
  -27.9739  -23.8515   19.8967 C   0  0  0  0  0  0
  -28.5093  -25.1599   20.6376 C   0  0  0  0  0  0
  -29.7615  -15.6844   20.9410 N   0  0  0  0  0  0
  -28.8339  -22.5800   19.7851 N   0  3  0  0  0  0
  -31.6786  -17.5607   19.5561 F   0  0  0  0  0  0
  -27.4725  -16.7555   22.3370 Cl  0  0  0  0  0  0
  -31.4850  -12.5570   19.1548 H   0  0  0  0  0  0
  -30.3946  -11.4215   19.8986 H   0  0  0  0  0  0
  -29.7823  -11.7627   17.4879 H   0  0  0  0  0  0
  -29.6476  -13.4842   17.7411 H   0  0  0  0  0  0
  -27.8782  -11.2930   18.8723 H   0  0  0  0  0  0
  -27.3795  -12.5721   17.7973 H   0  0  0  0  0  0
  -27.6707  -14.2526   19.5297 H   0  0  0  0  0  0
  -28.7218  -12.0405   21.3621 H   0  0  0  0  0  0
  -28.4328  -13.6789   21.8595 H   0  0  0  0  0  0
  -25.2759   -9.5668   22.4772 H   0  0  0  0  0  0
  -23.9997   -7.4618   22.7476 H   0  0  0  0  0  0
  -21.0846   -8.8761   19.8949 H   0  0  0  0  0  0
  -22.3699  -10.9664   19.6178 H   0  0  0  0  0  0
  -21.1984   -7.6144   23.9716 H   0  0  0  0  0  0
  -21.1489   -6.0523   25.9080 H   0  0  0  0  0  0
  -22.0596   -2.7611   23.2846 H   0  0  0  0  0  0
  -22.4104  -11.9867   22.4801 H   0  0  0  0  0  0
  -21.1109  -13.1243   22.2648 H   0  0  0  0  0  0
  -24.6436  -15.8313   20.5117 H   0  0  0  0  0  0
  -26.2752  -15.6355   20.1237 H   0  0  0  0  0  0
  -26.7176  -32.5433   23.1065 H   0  0  0  0  0  0
  -25.0109  -33.9701   25.0423 H   0  0  0  0  0  0
  -22.7165  -31.2967   21.3897 H   0  0  0  0  0  0
  -23.3757  -35.9616   23.3303 H   0  0  0  0  0  0
  -24.3591  -36.8905   22.2054 H   0  0  0  0  0  0
  -23.7251  -37.6488   23.6663 H   0  0  0  0  0  0
  -26.0881  -31.5414   20.5929 H   0  0  0  0  0  0
  -26.8437  -30.8410   21.9931 H   0  0  0  0  0  0
  -28.1308  -29.0007   21.1517 H   0  0  0  0  0  0
  -26.0182  -25.8837   19.0531 H   0  0  0  0  0  0
  -23.9796  -27.2614   19.0496 H   0  0  0  0  0  0
  -23.7617  -30.5667   19.3984 H   0  0  0  0  0  0
  -22.7592  -29.2253   19.8625 H   0  0  0  0  0  0
  -25.1298  -36.1917   25.0827 H   0  0  0  0  0  0
  -20.9975  -28.3254   24.1410 H   0  0  0  0  0  0
  -20.5690  -26.2285   23.3605 H   0  0  0  0  0  0
  -21.6651  -26.7439   22.1200 H   0  0  0  0  0  0
  -19.6929  -25.6291   21.1242 H   0  0  0  0  0  0
  -19.6714  -27.3187   20.6739 H   0  0  0  0  0  0
  -17.4212  -26.6681   21.4016 H   0  0  0  0  0  0
  -18.0335  -26.0062   22.9008 H   0  0  0  0  0  0
  -19.7944  -30.7268   24.2255 H   0  0  0  0  0  0
  -17.5024  -31.6265   24.5156 H   0  0  0  0  0  0
  -15.5359  -30.2976   23.7660 H   0  0  0  0  0  0
  -15.8681  -28.0824   22.7047 H   0  0  0  0  0  0
  -24.5902  -30.7081   25.7761 H   0  0  0  0  0  0
  -24.8924  -32.2898   26.4848 H   0  0  0  0  0  0
  -25.8053  -30.8912   27.0205 H   0  0  0  0  0  0
  -26.2901  -29.6759   24.1183 H   0  0  0  0  0  0
  -27.4078  -29.7272   25.4624 H   0  0  0  0  0  0
  -27.8751  -30.4321   23.9327 H   0  0  0  0  0  0
  -27.2667  -33.3630   26.2032 H   0  0  0  0  0  0
  -28.3872  -32.6864   25.0306 H   0  0  0  0  0  0
  -28.0705  -31.8452   26.5404 H   0  0  0  0  0  0
  -28.2587  -38.0096   24.7502 H   0  0  0  0  0  0
  -28.1083  -36.2624   24.6305 H   0  0  0  0  0  0
  -27.2297  -37.1453   25.8869 H   0  0  0  0  0  0
  -20.9374  -29.8740   21.6872 H   0  0  0  0  0  0
  -26.0175  -38.2843   24.1402 H   0  0  0  0  0  0
  -31.1225  -20.0831   19.7137 H   0  0  0  0  0  0
  -27.2344  -20.0868   23.0479 H   0  0  0  0  0  0
  -26.2301  -19.0217   22.0649 H   0  0  0  0  0  0
  -26.6399  -20.5877   21.4561 H   0  0  0  0  0  0
  -30.0796  -22.0175   21.3817 H   0  0  0  0  0  0
  -28.4121  -21.9180   21.7516 H   0  0  0  0  0  0
  -27.7676  -24.1444   18.8671 H   0  0  0  0  0  0
  -27.0012  -23.5828   20.3113 H   0  0  0  0  0  0
  -29.5812  -25.0232   20.7825 H   0  0  0  0  0  0
  -28.0993  -25.1834   21.6481 H   0  0  0  0  0  0
  -28.9208  -15.3033   21.3483 H   0  0  0  0  0  0
  -28.3586  -21.9893   19.1219 H   0  0  0  0  0  0
  -29.7147  -22.8173   19.3561 H   0  0  0  0  0  0
  1 25  1  0  0  0
  1 30  2  0  0  0
  1 81  1  0  0  0
  2  3  1  0  0  0
  2 25  1  0  0  0
  2 85  1  0  0  0
  2 86  1  0  0  0
  3  4  1  0  0  0
  3 87  1  0  0  0
  3 88  1  0  0  0
  4  5  1  0  0  0
  4 89  1  0  0  0
  4 90  1  0  0  0
  5  6  1  0  0  0
  5 26  1  0  0  0
  5 91  1  0  0  0
  6 25  1  0  0  0
  6 92  1  0  0  0
  6 93  1  0  0  0
  7  8  2  0  0  0
  7 26  1  0  0  0
  7 29  1  0  0  0
  8  9  1  0  0  0
  8 22  1  0  0  0
  9 10  1  0  0  0
  9 27  2  0  0  0
 10 11  2  0  0  0
 10 15  1  0  0  0
 11 12  1  0  0  0
 11 94  1  0  0  0
 12 13  2  0  0  0
 12 95  1  0  0  0
 13 14  1  0  0  0
 13 31  1  0  0  0
 14 15  2  0  0  0
 14 96  1  0  0  0
 15 97  1  0  0  0
 16 17  2  0  0  0
 16 21  1  0  0  0
 16 31  1  0  0  0
 17 18  1  0  0  0
 17 98  1  0  0  0
 18 19  2  0  0  0
 18 99  1  0  0  0
 19 20  1  0  0  0
 19 24  1  0  0  0
 20 21  2  0  0  0
 20100  1  0  0  0
 21 23  1  0  0  0
 22 28  1  0  0  0
 22 32  2  0  0  0
 26 27  1  0  0  0
 28101  1  0  0  0
 28102  1  0  0  0
 29103  1  0  0  0
 29104  1  0  0  0
 33 34  1  0  0  0
 33 66  1  0  0  0
 33 70  2  0  0  0
 34 36  1  0  0  0
 34 59  1  0  0  0
 34105  1  0  0  0
 35 44  2  0  0  0
 35 45  1  0  0  0
 35 68  1  0  0  0
 36 56  1  0  0  0
 36106  1  0  0  0
 37 39  1  0  0  0
 37 47  1  0  0  0
 37 66  1  0  0  0
 37107  1  0  0  0
 38 43  2  0  0  0
 38 46  1  0  0  0
 38 47  1  0  0  0
 39 64  1  0  0  0
 39 67  2  0  0  0
 40 52  1  0  0  0
 40 53  2  0  0  0
 40 58  1  0  0  0
 41108  1  0  0  0
 41109  1  0  0  0
 41110  1  0  0  0
 41 48  1  0  0  0
 42 43  1  0  0  0
 42 66  1  0  0  0
 42111  1  0  0  0
 42112  1  0  0  0
 43 44  1  0  0  0
 44113  1  0  0  0
 45 46  2  0  0  0
 45114  1  0  0  0
 46115  1  0  0  0
 47116  1  0  0  0
 47117  1  0  0  0
 48 56  1  0  0  0
 48 65  1  0  0  0
 48118  1  0  0  0
 49 50  1  0  0  0
 49 53  1  0  0  0
 49 64  1  0  0  0
 49119  1  0  0  0
 50 51  1  0  0  0
 50120  1  0  0  0
 50121  1  0  0  0
 51 52  1  0  0  0
 51122  1  0  0  0
 51123  1  0  0  0
 52124  1  0  0  0
 52125  1  0  0  0
 53 54  1  0  0  0
 54 55  2  0  0  0
 54126  1  0  0  0
 55 57  1  0  0  0
 55127  1  0  0  0
 56 69  2  0  0  0
 57 58  2  0  0  0
 57128  1  0  0  0
 58129  1  0  0  0
 59 60  1  0  0  0
 59 61  1  0  0  0
 59 62  1  0  0  0
 60130  1  0  0  0
 60131  1  0  0  0
 60132  1  0  0  0
 61133  1  0  0  0
 61134  1  0  0  0
 61135  1  0  0  0
 62136  1  0  0  0
 62137  1  0  0  0
 62138  1  0  0  0
 63 65  1  0  0  0
 63139  1  0  0  0
 63140  1  0  0  0
 63141  1  0  0  0
 64142  1  0  0  0
 65143  1  0  0  0
 68 80  1  0  0  0
 71 72  2  0  0  0
 71 75  1  0  0  0
 71144  1  0  0  0
 72 73  1  0  0  0
 72 78  1  0  0  0
 73 76  2  0  0  0
 73 77  1  0  0  0
 74 75  2  0  0  0
 74 76  1  0  0  0
 74 81  1  0  0  0
 75 83  1  0  0  0
 76 84  1  0  0  0
 77145  1  0  0  0
 77146  1  0  0  0
 77147  1  0  0  0
 78 82  1  0  0  0
 78148  1  0  0  0
 78149  1  0  0  0
 79 80  1  0  0  0
 79 82  1  0  0  0
 79150  1  0  0  0
 79151  1  0  0  0
 80152  1  0  0  0
 80153  1  0  0  0
 81154  1  0  0  0
 82155  1  0  0  0
 82156  1  0  0  0
M  CHG  1  82   1
M  ISO  4   1 100  68 101  80 101  81 100
M  END
> <chiral flag>
0

> <version>
0

> <s_m_source_file>
/data/baiqing/PycharmProjects/Reinvent-master-3.2/result/LINK_invent/BTK/process_docking_weight1_custom_sum_contain_oxygen_bond_distance_aromatic_linkinvent_7_9_3/rearranged_h_0017.sdf

> <i_m_source_file_index>
48

> <r_mmod_Potential_Energy-OPLS-2005>
-90.3946228027344

> <r_mmod_Stretch_Energy-OPLS-2005>
94.3543853759766

> <r_mmod_Bend_Energy-OPLS-2005>
190.464935302734

> <r_mmod_Torsional_Energy-OPLS-2005>
237.98991394043

> <r_mmod_Improper_Torsional_Energy-OPLS-2005>
4.07287979125977

> <r_mmod_Van_der_Waal_Energy-OPLS-2005>
138.259750366211

> <r_mmod_Electrostatic_Energy-OPLS-2005>
-323.698333740234

> <r_mmod_Solvation_Energy-OPLS-2005>
-484.601257324219

> <b_mmod_Minimization_Converged-OPLS-2005>
0

> <r_mmod_RMS_Derivative-OPLS-2005>
0.970918416976929

$$$$
48
                    3D
 Structure written by MMmdl.
153161  0  0  1  0            999 V2000
  -30.2632  -15.7693   20.3189 C   0  0  0  0  0  0
  -30.4121  -13.1825   19.5367 C   0  0  0  0  0  0
  -29.5529  -12.6883   18.3346 C   0  0  0  0  0  0
  -28.1391  -12.3011   18.7885 C   0  0  0  0  0  0
  -27.5903  -13.3218   19.8091 C   0  0  2  0  0  0
  -28.5986  -13.7188   20.9168 C   0  0  0  0  0  0
  -25.2301  -13.8305   20.5820 C   0  0  0  0  0  0
  -24.1706  -13.0435   20.9304 C   0  0  0  0  0  0
  -24.6425  -11.6952   20.8765 C   0  0  0  0  0  0
  -23.9129  -10.4293   21.0392 C   0  0  0  0  0  0
  -24.3659   -9.4207   21.9177 C   0  0  0  0  0  0
  -23.6316   -8.2249   22.0752 C   0  0  0  0  0  0
  -22.4295   -8.0290   21.3545 C   0  0  0  0  0  0
  -21.9947   -9.0268   20.4644 C   0  0  0  0  0  0
  -22.7294  -10.2136   20.3046 C   0  0  0  0  0  0
  -21.6861   -6.0743   22.5278 C   0  0  0  0  0  0
  -21.4019   -6.5645   23.8212 C   0  0  0  0  0  0
  -21.3658   -5.6796   24.9174 C   0  0  0  0  0  0
  -21.6042   -4.3059   24.7224 C   0  0  0  0  0  0
  -21.8820   -3.8152   23.4346 C   0  0  0  0  0  0
  -21.9196   -4.6970   22.3402 C   0  0  0  0  0  0
  -22.7714  -13.5154   21.1932 C   0  0  0  0  0  0
  -22.1664   -4.2154   21.0979 F   0  0  0  0  0  0
  -21.5626   -3.4541   25.7736 F   0  0  0  0  0  0
  -29.7486  -14.3825   20.2472 N   0  0  0  0  0  0
  -26.2766  -12.9664   20.3259 N   0  0  0  0  0  0
  -25.9377  -11.6719   20.5696 N   0  0  0  0  0  0
  -22.0381  -12.8124   22.0481 N   0  0  0  0  0  0
  -25.3870  -15.2049   20.4261 N   0  0  0  0  0  0
  -31.4998  -15.6547   20.1831 O   0  0  0  0  0  0
  -21.6650   -6.8892   21.4244 O   0  0  0  0  0  0
  -22.3387  -14.5451   20.6766 O   0  0  0  0  0  0
  -24.6939  -31.7889   23.1435 C   0  0  0  0  0  0
  -25.9475  -32.4413   23.8018 C   0  0  1  0  0  0
  -27.2284  -26.6019   20.2268 C   0  0  0  0  0  0
  -25.6016  -33.8241   24.1903 N   0  0  0  0  0  0
  -23.5241  -30.3868   21.4992 C   0  0  2  0  0  0
  -24.9824  -28.7062   20.1215 C   0  0  0  0  0  0
  -22.7814  -29.4258   22.4676 C   0  0  0  0  0  0
  -18.0342  -28.1439   22.8460 C   0  0  0  0  0  0
  -24.1477  -36.7108   23.2656 C   0  0  0  0  0  0
  -26.1092  -30.4892   21.4220 C   0  0  0  0  0  0
  -26.1735  -29.0424   20.7752 C   0  0  0  0  0  0
  -27.2767  -28.0217   20.7916 C   0  0  0  0  0  0
  -26.0029  -26.5004   19.5139 C   0  0  0  0  0  0
  -24.9423  -27.4623   19.4663 C   0  0  0  0  0  0
  -23.7840  -29.6750   20.1386 C   0  0  0  0  0  0
  -25.4136  -36.2859   24.0278 C   0  0  1  0  0  0
  -20.5988  -28.3795   23.1126 C   0  0  2  0  0  0
  -20.6802  -26.9444   22.5410 C   0  0  0  0  0  0
  -19.5774  -26.6380   21.5225 C   0  0  0  0  0  0
  -18.1957  -26.7967   22.1625 C   0  0  0  0  0  0
  -19.1616  -28.8945   23.2771 C   0  0  0  0  0  0
  -18.9519  -30.1529   23.8818 C   0  0  0  0  0  0
  -17.6510  -30.6620   24.0555 C   0  0  0  0  0  0
  -25.9132  -34.9257   23.4930 C   0  0  0  0  0  0
  -16.5395  -29.9103   23.6366 C   0  0  0  0  0  0
  -16.7323  -28.6526   23.0381 C   0  0  0  0  0  0
  -26.4620  -31.6490   25.0678 C   0  0  0  0  0  0
  -25.3662  -31.3844   26.1280 C   0  0  0  0  0  0
  -27.0573  -30.2822   24.6646 C   0  0  0  0  0  0
  -27.6046  -32.4369   25.7510 C   0  0  0  0  0  0
  -27.5543  -37.1712   24.8473 C   0  0  0  0  0  0
  -21.4450  -29.3020   22.3428 N   0  0  0  0  0  0
  -26.4245  -37.3639   23.9422 N   0  0  0  0  0  0
  -24.8004  -30.9240   22.0736 N   0  0  0  0  0  0
  -23.4215  -28.7873   23.3063 O   0  0  0  0  0  0
  -28.1776  -25.3372   20.2987 O   0  0  0  0  0  0
  -26.5775  -34.8856   22.4550 O   0  0  0  0  0  0
  -23.5938  -32.1000   23.6337 O   0  0  0  0  0  0
  -28.9566  -21.9036   20.3150 C   0  0  0  0  0  0
  -28.7052  -20.2830   20.2384 C   0  0  0  0  0  0
  -30.3550  -22.0336   20.5317 C   0  0  0  0  0  0
  -30.9355  -19.5007   20.7077 C   0  0  0  0  0  0
  -29.6505  -18.9533   20.3921 C   0  0  0  0  0  0
  -31.2556  -20.9179   20.7332 C   0  0  0  0  0  0
  -27.2604  -19.9209   19.9661 C   0  0  0  0  0  0
  -30.9119  -23.4591   20.5708 C   0  0  0  0  0  0
  -32.0401  -18.5112   21.0704 C   0  0  0  0  0  0
  -27.9671  -23.5425   20.1770 C   0  0  0  0  0  0
  -29.5095  -17.1817   20.3346 N   0  0  0  0  0  0
  -32.9147  -21.3368   21.0491 Cl  0  0  0  0  0  0
  -31.3950  -13.4595   19.1535 H   0  0  0  0  0  0
  -30.6066  -12.3662   20.2349 H   0  0  0  0  0  0
  -30.0349  -11.8448   17.8379 H   0  0  0  0  0  0
  -29.4882  -13.4855   17.5925 H   0  0  0  0  0  0
  -28.1946  -11.3168   19.2555 H   0  0  0  0  0  0
  -27.4697  -12.2021   17.9332 H   0  0  0  0  0  0
  -27.4313  -14.2217   19.2128 H   0  0  0  0  0  0
  -28.8924  -12.8636   21.5273 H   0  0  0  0  0  0
  -28.1387  -14.4361   21.5983 H   0  0  0  0  0  0
  -25.2797   -9.5681   22.4765 H   0  0  0  0  0  0
  -24.0016   -7.4643   22.7480 H   0  0  0  0  0  0
  -21.0875   -8.8800   19.8952 H   0  0  0  0  0  0
  -22.3754  -10.9678   19.6158 H   0  0  0  0  0  0
  -21.2012   -7.6152   23.9716 H   0  0  0  0  0  0
  -21.1476   -6.0525   25.9075 H   0  0  0  0  0  0
  -22.0597   -2.7614   23.2845 H   0  0  0  0  0  0
  -22.4025  -11.9798   22.4869 H   0  0  0  0  0  0
  -21.0985  -13.1115   22.2673 H   0  0  0  0  0  0
  -24.6126  -15.8503   20.5380 H   0  0  0  0  0  0
  -26.2261  -15.6493   20.0794 H   0  0  0  0  0  0
  -26.7565  -32.4866   23.0734 H   0  0  0  0  0  0
  -25.0098  -33.9262   25.0015 H   0  0  0  0  0  0
  -22.8548  -31.2268   21.3018 H   0  0  0  0  0  0
  -23.3769  -35.9405   23.3272 H   0  0  0  0  0  0
  -24.3535  -36.8819   22.2078 H   0  0  0  0  0  0
  -23.7205  -37.6259   23.6765 H   0  0  0  0  0  0
  -26.3210  -31.2063   20.6276 H   0  0  0  0  0  0
  -26.9566  -30.5635   22.0911 H   0  0  0  0  0  0
  -28.1708  -28.2889   21.3372 H   0  0  0  0  0  0
  -25.8176  -25.5638   19.0066 H   0  0  0  0  0  0
  -24.0460  -27.1947   18.9234 H   0  0  0  0  0  0
  -23.9685  -30.4311   19.3744 H   0  0  0  0  0  0
  -22.8861  -29.1479   19.8113 H   0  0  0  0  0  0
  -25.1348  -36.1598   25.0765 H   0  0  0  0  0  0
  -21.0070  -28.3430   24.1253 H   0  0  0  0  0  0
  -20.5658  -26.2422   23.3682 H   0  0  0  0  0  0
  -21.6659  -26.7371   22.1228 H   0  0  0  0  0  0
  -19.6916  -25.6271   21.1302 H   0  0  0  0  0  0
  -19.6720  -27.3151   20.6725 H   0  0  0  0  0  0
  -17.4229  -26.6725   21.4024 H   0  0  0  0  0  0
  -18.0327  -26.0130   22.9038 H   0  0  0  0  0  0
  -19.7992  -30.7371   24.2146 H   0  0  0  0  0  0
  -17.5059  -31.6289   24.5176 H   0  0  0  0  0  0
  -15.5392  -30.2982   23.7738 H   0  0  0  0  0  0
  -15.8718  -28.0819   22.7145 H   0  0  0  0  0  0
  -24.5874  -30.7157   25.7595 H   0  0  0  0  0  0
  -24.8820  -32.3080   26.4461 H   0  0  0  0  0  0
  -25.7820  -30.9179   27.0221 H   0  0  0  0  0  0
  -26.3314  -29.6410   24.1636 H   0  0  0  0  0  0
  -27.3970  -29.7302   25.5420 H   0  0  0  0  0  0
  -27.9305  -30.3938   24.0216 H   0  0  0  0  0  0
  -27.2574  -33.3756   26.1841 H   0  0  0  0  0  0
  -28.3993  -32.6792   25.0440 H   0  0  0  0  0  0
  -28.0564  -31.8662   26.5636 H   0  0  0  0  0  0
  -28.2541  -38.0026   24.7520 H   0  0  0  0  0  0
  -28.1057  -36.2551   24.6299 H   0  0  0  0  0  0
  -27.2264  -37.1350   25.8878 H   0  0  0  0  0  0
  -20.9774  -29.8661   21.6467 H   0  0  0  0  0  0
  -26.0059  -38.2673   24.1463 H   0  0  0  0  0  0
  -26.6551  -20.8028   19.7560 H   0  0  0  0  0  0
  -26.8309  -19.4109   20.8290 H   0  0  0  0  0  0
  -27.1931  -19.2539   19.1063 H   0  0  0  0  0  0
  -30.4037  -24.1109   19.8637 H   0  0  0  0  0  0
  -31.9576  -23.5368   20.2816 H   0  0  0  0  0  0
  -30.8023  -23.8812   21.5702 H   0  0  0  0  0  0
  -31.6492  -17.7285   21.7166 H   0  0  0  0  0  0
  -32.8606  -18.9229   21.6516 H   0  0  0  0  0  0
  -32.4607  -18.0670   20.1686 H   0  0  0  0  0  0
  -27.1448  -23.3642   20.8697 H   0  0  0  0  0  0
  -27.5019  -23.4373   19.1967 H   0  0  0  0  0  0
  -28.5286  -16.9436   20.3013 H   0  0  0  0  0  0
  1 25  1  0  0  0
  1 30  2  0  0  0
  1 81  1  0  0  0
  2  3  1  0  0  0
  2 25  1  0  0  0
  2 83  1  0  0  0
  2 84  1  0  0  0
  3  4  1  0  0  0
  3 85  1  0  0  0
  3 86  1  0  0  0
  4  5  1  0  0  0
  4 87  1  0  0  0
  4 88  1  0  0  0
  5  6  1  0  0  0
  5 26  1  0  0  0
  5 89  1  0  0  0
  6 25  1  0  0  0
  6 90  1  0  0  0
  6 91  1  0  0  0
  7  8  2  0  0  0
  7 26  1  0  0  0
  7 29  1  0  0  0
  8  9  1  0  0  0
  8 22  1  0  0  0
  9 10  1  0  0  0
  9 27  2  0  0  0
 10 11  2  0  0  0
 10 15  1  0  0  0
 11 12  1  0  0  0
 11 92  1  0  0  0
 12 13  2  0  0  0
 12 93  1  0  0  0
 13 14  1  0  0  0
 13 31  1  0  0  0
 14 15  2  0  0  0
 14 94  1  0  0  0
 15 95  1  0  0  0
 16 17  2  0  0  0
 16 21  1  0  0  0
 16 31  1  0  0  0
 17 18  1  0  0  0
 17 96  1  0  0  0
 18 19  2  0  0  0
 18 97  1  0  0  0
 19 20  1  0  0  0
 19 24  1  0  0  0
 20 21  2  0  0  0
 20 98  1  0  0  0
 21 23  1  0  0  0
 22 28  1  0  0  0
 22 32  2  0  0  0
 26 27  1  0  0  0
 28 99  1  0  0  0
 28100  1  0  0  0
 29101  1  0  0  0
 29102  1  0  0  0
 33 34  1  0  0  0
 33 66  1  0  0  0
 33 70  2  0  0  0
 34 36  1  0  0  0
 34 59  1  0  0  0
 34103  1  0  0  0
 35 44  2  0  0  0
 35 45  1  0  0  0
 35 68  1  0  0  0
 36 56  1  0  0  0
 36104  1  0  0  0
 37 39  1  0  0  0
 37 47  1  0  0  0
 37 66  1  0  0  0
 37105  1  0  0  0
 38 43  2  0  0  0
 38 46  1  0  0  0
 38 47  1  0  0  0
 39 64  1  0  0  0
 39 67  2  0  0  0
 40 52  1  0  0  0
 40 53  2  0  0  0
 40 58  1  0  0  0
 41106  1  0  0  0
 41107  1  0  0  0
 41108  1  0  0  0
 41 48  1  0  0  0
 42 43  1  0  0  0
 42 66  1  0  0  0
 42109  1  0  0  0
 42110  1  0  0  0
 43 44  1  0  0  0
 44111  1  0  0  0
 45 46  2  0  0  0
 45112  1  0  0  0
 46113  1  0  0  0
 47114  1  0  0  0
 47115  1  0  0  0
 48 56  1  0  0  0
 48 65  1  0  0  0
 48116  1  0  0  0
 49 50  1  0  0  0
 49 53  1  0  0  0
 49 64  1  0  0  0
 49117  1  0  0  0
 50 51  1  0  0  0
 50118  1  0  0  0
 50119  1  0  0  0
 51 52  1  0  0  0
 51120  1  0  0  0
 51121  1  0  0  0
 52122  1  0  0  0
 52123  1  0  0  0
 53 54  1  0  0  0
 54 55  2  0  0  0
 54124  1  0  0  0
 55 57  1  0  0  0
 55125  1  0  0  0
 56 69  2  0  0  0
 57 58  2  0  0  0
 57126  1  0  0  0
 58127  1  0  0  0
 59 60  1  0  0  0
 59 61  1  0  0  0
 59 62  1  0  0  0
 60128  1  0  0  0
 60129  1  0  0  0
 60130  1  0  0  0
 61131  1  0  0  0
 61132  1  0  0  0
 61133  1  0  0  0
 62134  1  0  0  0
 62135  1  0  0  0
 62136  1  0  0  0
 63 65  1  0  0  0
 63137  1  0  0  0
 63138  1  0  0  0
 63139  1  0  0  0
 64140  1  0  0  0
 65141  1  0  0  0
 68 80  1  0  0  0
 71 72  2  0  0  0
 71 73  1  0  0  0
 71 80  1  0  0  0
 72 75  1  0  0  0
 72 77  1  0  0  0
 73 76  2  0  0  0
 73 78  1  0  0  0
 74 75  2  0  0  0
 74 76  1  0  0  0
 74 79  1  0  0  0
 75 81  1  0  0  0
 76 82  1  0  0  0
 77142  1  0  0  0
 77143  1  0  0  0
 77144  1  0  0  0
 78145  1  0  0  0
 78146  1  0  0  0
 78147  1  0  0  0
 79148  1  0  0  0
 79149  1  0  0  0
 79150  1  0  0  0
 80151  1  0  0  0
 80152  1  0  0  0
 81153  1  0  0  0
M  ISO  4   1 100  68 101  80 101  81 100
M  END
> <chiral flag>
0

> <version>
0

> <s_m_source_file>
/data/baiqing/PycharmProjects/Reinvent-master-3.2/result/LINK_invent/BTK/process_docking_weight1_custom_sum_contain_oxygen_bond_distance_aromatic_linkinvent_7_9_3/rearranged_h_0017.sdf

> <i_m_source_file_index>
49

> <r_mmod_Potential_Energy-OPLS-2005>
2832.69311523438

> <r_mmod_Stretch_Energy-OPLS-2005>
1286.6650390625

> <r_mmod_Bend_Energy-OPLS-2005>
641.714660644531

> <r_mmod_Torsional_Energy-OPLS-2005>
225.295669555664

> <r_mmod_Improper_Torsional_Energy-OPLS-2005>
4.56490707397461

> <r_mmod_Van_der_Waal_Energy-OPLS-2005>
152.252960205078

> <r_mmod_Electrostatic_Energy-OPLS-2005>
-384.750549316406

> <r_mmod_Solvation_Energy-OPLS-2005>
-206.658309936523

> <b_mmod_Minimization_Converged-OPLS-2005>
0

> <r_mmod_RMS_Derivative-OPLS-2005>
0.785530626773834

$$$$
49
                    3D
 Structure written by MMmdl.
150158  0  0  1  0            999 V2000
  -30.2878  -15.7194   20.3462 C   0  0  0  0  0  0
  -30.4149  -13.1583   19.5148 C   0  0  0  0  0  0
  -29.5462  -12.6686   18.3200 C   0  0  0  0  0  0
  -28.1310  -12.2917   18.7807 C   0  0  0  0  0  0
  -27.5902  -13.3131   19.8052 C   0  0  2  0  0  0
  -28.6067  -13.6981   20.9073 C   0  0  0  0  0  0
  -25.2322  -13.8292   20.5828 C   0  0  0  0  0  0
  -24.1710  -13.0433   20.9297 C   0  0  0  0  0  0
  -24.6420  -11.6948   20.8774 C   0  0  0  0  0  0
  -23.9124  -10.4293   21.0399 C   0  0  0  0  0  0
  -24.3656   -9.4204   21.9179 C   0  0  0  0  0  0
  -23.6315   -8.2247   22.0751 C   0  0  0  0  0  0
  -22.4297   -8.0290   21.3541 C   0  0  0  0  0  0
  -21.9945   -9.0267   20.4642 C   0  0  0  0  0  0
  -22.7290  -10.2138   20.3050 C   0  0  0  0  0  0
  -21.6859   -6.0746   22.5279 C   0  0  0  0  0  0
  -21.4017   -6.5645   23.8212 C   0  0  0  0  0  0
  -21.3657   -5.6795   24.9171 C   0  0  0  0  0  0
  -21.6044   -4.3057   24.7220 C   0  0  0  0  0  0
  -21.8819   -3.8153   23.4340 C   0  0  0  0  0  0
  -21.9194   -4.6971   22.3398 C   0  0  0  0  0  0
  -22.7722  -13.5166   21.1924 C   0  0  0  0  0  0
  -22.1665   -4.2157   21.0976 F   0  0  0  0  0  0
  -21.5625   -3.4541   25.7731 F   0  0  0  0  0  0
  -29.7511  -14.3531   20.2219 N   0  0  0  0  0  0
  -26.2770  -12.9629   20.3260 N   0  0  0  0  0  0
  -25.9369  -11.6695   20.5705 N   0  0  0  0  0  0
  -22.0389  -12.8140   22.0474 N   0  0  0  0  0  0
  -25.3919  -15.2035   20.4291 N   0  0  0  0  0  0
  -31.5294  -15.6017   20.2667 O   0  0  0  0  0  0
  -21.6650   -6.8892   21.4242 O   0  0  0  0  0  0
  -22.3398  -14.5463   20.6757 O   0  0  0  0  0  0
  -24.6906  -31.7927   23.1452 C   0  0  0  0  0  0
  -25.9448  -32.4435   23.8027 C   0  0  1  0  0  0
  -27.2270  -26.6324   20.2322 C   0  0  0  0  0  0
  -25.6003  -33.8263   24.1913 N   0  0  0  0  0  0
  -23.5195  -30.3914   21.5013 C   0  0  2  0  0  0
  -24.9756  -28.7140   20.1286 C   0  0  0  0  0  0
  -22.7800  -29.4275   22.4693 C   0  0  0  0  0  0
  -18.0344  -28.1424   22.8451 C   0  0  0  0  0  0
  -24.1491  -36.7139   23.2657 C   0  0  0  0  0  0
  -26.1039  -30.5041   21.4183 C   0  0  0  0  0  0
  -26.1682  -29.0592   20.7754 C   0  0  0  0  0  0
  -27.2793  -28.0515   20.7844 C   0  0  0  0  0  0
  -25.9962  -26.5106   19.5346 C   0  0  0  0  0  0
  -24.9321  -27.4651   19.4844 C   0  0  0  0  0  0
  -23.7782  -29.6809   20.1412 C   0  0  0  0  0  0
  -25.4142  -36.2876   24.0280 C   0  0  1  0  0  0
  -20.5984  -28.3786   23.1133 C   0  0  2  0  0  0
  -20.6809  -26.9439   22.5406 C   0  0  0  0  0  0
  -19.5786  -26.6368   21.5220 C   0  0  0  0  0  0
  -18.1966  -26.7951   22.1617 C   0  0  0  0  0  0
  -19.1612  -28.8931   23.2772 C   0  0  0  0  0  0
  -18.9517  -30.1514   23.8818 C   0  0  0  0  0  0
  -17.6506  -30.6607   24.0548 C   0  0  0  0  0  0
  -25.9130  -34.9270   23.4935 C   0  0  0  0  0  0
  -16.5394  -29.9089   23.6353 C   0  0  0  0  0  0
  -16.7324  -28.6511   23.0368 C   0  0  0  0  0  0
  -26.4605  -31.6491   25.0675 C   0  0  0  0  0  0
  -25.3652  -31.3825   26.1272 C   0  0  0  0  0  0
  -27.0546  -30.2824   24.6619 C   0  0  0  0  0  0
  -27.6041  -32.4367   25.7495 C   0  0  0  0  0  0
  -27.5556  -37.1724   24.8470 C   0  0  0  0  0  0
  -21.4439  -29.3022   22.3447 N   0  0  0  0  0  0
  -26.4260  -37.3645   23.9414 N   0  0  0  0  0  0
  -24.7959  -30.9309   22.0741 N   0  0  0  0  0  0
  -23.4214  -28.7881   23.3065 O   0  0  0  0  0  0
  -28.2128  -25.4074   20.2110 O   0  0  0  0  0  0
  -26.5782  -34.8860   22.4560 O   0  0  0  0  0  0
  -23.5909  -32.1027   23.6359 O   0  0  0  0  0  0
  -30.3569  -18.5879   22.0618 C   0  0  0  0  0  0
  -30.4754  -19.9154   22.5437 C   0  0  0  0  0  0
  -29.6965  -18.6294   20.8406 C   0  0  0  0  0  0
  -30.8935  -17.4225   22.8684 C   0  0  0  0  0  0
  -31.1635  -20.3808   23.7980 C   0  0  0  0  0  0
  -28.6921  -21.8052   19.9698 C   0  0  0  0  0  0
  -28.1714  -23.6379   20.5436 C   0  0  0  0  0  0
  -29.8904  -20.8173   21.8039 N   0  0  0  0  0  0
  -29.3032  -20.2757   20.7192 N   0  0  0  0  0  0
  -29.5774  -17.1399   20.2905 N   0  0  0  0  0  0
  -31.3936  -13.4412   19.1251 H   0  0  0  0  0  0
  -30.6139  -12.3437   20.2127 H   0  0  0  0  0  0
  -30.0204  -11.8209   17.8236 H   0  0  0  0  0  0
  -29.4827  -13.4641   17.5763 H   0  0  0  0  0  0
  -28.1824  -11.3065   19.2458 H   0  0  0  0  0  0
  -27.4572  -12.1958   17.9288 H   0  0  0  0  0  0
  -27.4335  -14.2156   19.2127 H   0  0  0  0  0  0
  -28.9009  -12.8402   21.5131 H   0  0  0  0  0  0
  -28.1572  -14.4170   21.5942 H   0  0  0  0  0  0
  -25.2795   -9.5681   22.4764 H   0  0  0  0  0  0
  -24.0013   -7.4644   22.7485 H   0  0  0  0  0  0
  -21.0869   -8.8802   19.8952 H   0  0  0  0  0  0
  -22.3748  -10.9683   19.6166 H   0  0  0  0  0  0
  -21.2015   -7.6154   23.9717 H   0  0  0  0  0  0
  -21.1476   -6.0523   25.9072 H   0  0  0  0  0  0
  -22.0600   -2.7616   23.2837 H   0  0  0  0  0  0
  -22.4033  -11.9811   22.4856 H   0  0  0  0  0  0
  -21.0995  -13.1132   22.2680 H   0  0  0  0  0  0
  -24.6236  -15.8539   20.5528 H   0  0  0  0  0  0
  -26.2412  -15.6499   20.1109 H   0  0  0  0  0  0
  -26.7535  -32.4894   23.0744 H   0  0  0  0  0  0
  -25.0059  -33.9290   25.0007 H   0  0  0  0  0  0
  -22.8487  -31.2304   21.3041 H   0  0  0  0  0  0
  -23.3774  -35.9448   23.3268 H   0  0  0  0  0  0
  -24.3558  -36.8857   22.2082 H   0  0  0  0  0  0
  -23.7230  -37.6296   23.6772 H   0  0  0  0  0  0
  -26.3118  -31.2216   20.6237 H   0  0  0  0  0  0
  -26.9538  -30.5780   22.0845 H   0  0  0  0  0  0
  -28.1863  -28.3340   21.3001 H   0  0  0  0  0  0
  -25.8230  -25.5728   19.0256 H   0  0  0  0  0  0
  -24.0338  -27.1912   18.9483 H   0  0  0  0  0  0
  -23.9654  -30.4372   19.3780 H   0  0  0  0  0  0
  -22.8810  -29.1535   19.8125 H   0  0  0  0  0  0
  -25.1353  -36.1626   25.0771 H   0  0  0  0  0  0
  -21.0064  -28.3411   24.1261 H   0  0  0  0  0  0
  -20.5674  -26.2405   23.3667 H   0  0  0  0  0  0
  -21.6667  -26.7376   22.1219 H   0  0  0  0  0  0
  -19.6942  -25.6261   21.1295 H   0  0  0  0  0  0
  -19.6733  -27.3139   20.6718 H   0  0  0  0  0  0
  -17.4237  -26.6698   21.4020 H   0  0  0  0  0  0
  -18.0349  -26.0115   22.9032 H   0  0  0  0  0  0
  -19.7993  -30.7352   24.2149 H   0  0  0  0  0  0
  -17.5058  -31.6278   24.5167 H   0  0  0  0  0  0
  -15.5395  -30.2968   23.7721 H   0  0  0  0  0  0
  -15.8722  -28.0808   22.7124 H   0  0  0  0  0  0
  -24.5865  -30.7150   25.7563 H   0  0  0  0  0  0
  -24.8811  -32.3052   26.4484 H   0  0  0  0  0  0
  -25.7807  -30.9122   27.0192 H   0  0  0  0  0  0
  -26.3274  -29.6418   24.1622 H   0  0  0  0  0  0
  -27.3967  -29.7296   25.5380 H   0  0  0  0  0  0
  -27.9259  -30.3941   24.0161 H   0  0  0  0  0  0
  -27.2576  -33.3750   26.1838 H   0  0  0  0  0  0
  -28.3966  -32.6799   25.0405 H   0  0  0  0  0  0
  -28.0585  -31.8656   26.5600 H   0  0  0  0  0  0
  -28.2540  -38.0048   24.7513 H   0  0  0  0  0  0
  -28.1079  -36.2570   24.6297 H   0  0  0  0  0  0
  -27.2274  -37.1364   25.8872 H   0  0  0  0  0  0
  -20.9754  -29.8677   21.6502 H   0  0  0  0  0  0
  -26.0083  -38.2689   24.1437 H   0  0  0  0  0  0
  -31.1340  -17.7010   23.8940 H   0  0  0  0  0  0
  -31.8146  -17.0210   22.4475 H   0  0  0  0  0  0
  -30.1722  -16.6109   22.9602 H   0  0  0  0  0  0
  -32.1662  -19.9597   23.8738 H   0  0  0  0  0  0
  -30.6080  -20.0782   24.6859 H   0  0  0  0  0  0
  -31.2685  -21.4661   23.8299 H   0  0  0  0  0  0
  -29.4668  -22.0162   19.2330 H   0  0  0  0  0  0
  -27.8600  -21.4765   19.3477 H   0  0  0  0  0  0
  -28.6559  -23.6642   21.5196 H   0  0  0  0  0  0
  -27.1210  -23.5045   20.8028 H   0  0  0  0  0  0
  -28.6610  -17.0071   19.8893 H   0  0  0  0  0  0
  1 25  1  0  0  0
  1 30  2  0  0  0
  1 80  1  0  0  0
  2  3  1  0  0  0
  2 25  1  0  0  0
  2 81  1  0  0  0
  2 82  1  0  0  0
  3  4  1  0  0  0
  3 83  1  0  0  0
  3 84  1  0  0  0
  4  5  1  0  0  0
  4 85  1  0  0  0
  4 86  1  0  0  0
  5  6  1  0  0  0
  5 26  1  0  0  0
  5 87  1  0  0  0
  6 25  1  0  0  0
  6 88  1  0  0  0
  6 89  1  0  0  0
  7  8  2  0  0  0
  7 26  1  0  0  0
  7 29  1  0  0  0
  8  9  1  0  0  0
  8 22  1  0  0  0
  9 10  1  0  0  0
  9 27  2  0  0  0
 10 11  2  0  0  0
 10 15  1  0  0  0
 11 12  1  0  0  0
 11 90  1  0  0  0
 12 13  2  0  0  0
 12 91  1  0  0  0
 13 14  1  0  0  0
 13 31  1  0  0  0
 14 15  2  0  0  0
 14 92  1  0  0  0
 15 93  1  0  0  0
 16 17  2  0  0  0
 16 21  1  0  0  0
 16 31  1  0  0  0
 17 18  1  0  0  0
 17 94  1  0  0  0
 18 19  2  0  0  0
 18 95  1  0  0  0
 19 20  1  0  0  0
 19 24  1  0  0  0
 20 21  2  0  0  0
 20 96  1  0  0  0
 21 23  1  0  0  0
 22 28  1  0  0  0
 22 32  2  0  0  0
 26 27  1  0  0  0
 28 97  1  0  0  0
 28 98  1  0  0  0
 29 99  1  0  0  0
 29100  1  0  0  0
 33 34  1  0  0  0
 33 66  1  0  0  0
 33 70  2  0  0  0
 34 36  1  0  0  0
 34 59  1  0  0  0
 34101  1  0  0  0
 35 44  2  0  0  0
 35 45  1  0  0  0
 35 68  1  0  0  0
 36 56  1  0  0  0
 36102  1  0  0  0
 37 39  1  0  0  0
 37 47  1  0  0  0
 37 66  1  0  0  0
 37103  1  0  0  0
 38 43  2  0  0  0
 38 46  1  0  0  0
 38 47  1  0  0  0
 39 64  1  0  0  0
 39 67  2  0  0  0
 40 52  1  0  0  0
 40 53  2  0  0  0
 40 58  1  0  0  0
 41104  1  0  0  0
 41105  1  0  0  0
 41106  1  0  0  0
 41 48  1  0  0  0
 42 43  1  0  0  0
 42 66  1  0  0  0
 42107  1  0  0  0
 42108  1  0  0  0
 43 44  1  0  0  0
 44109  1  0  0  0
 45 46  2  0  0  0
 45110  1  0  0  0
 46111  1  0  0  0
 47112  1  0  0  0
 47113  1  0  0  0
 48 56  1  0  0  0
 48 65  1  0  0  0
 48114  1  0  0  0
 49 50  1  0  0  0
 49 53  1  0  0  0
 49 64  1  0  0  0
 49115  1  0  0  0
 50 51  1  0  0  0
 50116  1  0  0  0
 50117  1  0  0  0
 51 52  1  0  0  0
 51118  1  0  0  0
 51119  1  0  0  0
 52120  1  0  0  0
 52121  1  0  0  0
 53 54  1  0  0  0
 54 55  2  0  0  0
 54122  1  0  0  0
 55 57  1  0  0  0
 55123  1  0  0  0
 56 69  2  0  0  0
 57 58  2  0  0  0
 57124  1  0  0  0
 58125  1  0  0  0
 59 60  1  0  0  0
 59 61  1  0  0  0
 59 62  1  0  0  0
 60126  1  0  0  0
 60127  1  0  0  0
 60128  1  0  0  0
 61129  1  0  0  0
 61130  1  0  0  0
 61131  1  0  0  0
 62132  1  0  0  0
 62133  1  0  0  0
 62134  1  0  0  0
 63 65  1  0  0  0
 63135  1  0  0  0
 63136  1  0  0  0
 63137  1  0  0  0
 64138  1  0  0  0
 65139  1  0  0  0
 68 77  1  0  0  0
 71 72  1  0  0  0
 71 73  2  0  0  0
 71 74  1  0  0  0
 72 75  1  0  0  0
 72 78  2  0  0  0
 73 79  1  0  0  0
 73 80  1  0  0  0
 74140  1  0  0  0
 74141  1  0  0  0
 74142  1  0  0  0
 75143  1  0  0  0
 75144  1  0  0  0
 75145  1  0  0  0
 76 77  1  0  0  0
 76 79  1  0  0  0
 76146  1  0  0  0
 76147  1  0  0  0
 77148  1  0  0  0
 77149  1  0  0  0
 78 79  1  0  0  0
 80150  1  0  0  0
M  ISO  4   1 100  68 101  77 101  80 100
M  END
> <chiral flag>
0

> <version>
0

> <s_m_source_file>
/data/baiqing/PycharmProjects/Reinvent-master-3.2/result/LINK_invent/BTK/process_docking_weight1_custom_sum_contain_oxygen_bond_distance_aromatic_linkinvent_7_9_3/rearranged_h_0017.sdf

> <i_m_source_file_index>
50

> <r_mmod_Potential_Energy-OPLS-2005>
2872.04931640625

> <r_mmod_Stretch_Energy-OPLS-2005>
1291.88623046875

> <r_mmod_Bend_Energy-OPLS-2005>
807.357360839844

> <r_mmod_Torsional_Energy-OPLS-2005>
264.847717285156

> <r_mmod_Improper_Torsional_Energy-OPLS-2005>
8.16232395172119

> <r_mmod_Van_der_Waal_Energy-OPLS-2005>
116.810302734375

> <r_mmod_Electrostatic_Energy-OPLS-2005>
-421.9697265625

> <r_mmod_Solvation_Energy-OPLS-2005>
-225.21272277832

> <b_mmod_Minimization_Converged-OPLS-2005>
0

> <r_mmod_RMS_Derivative-OPLS-2005>
0.796458065509796

$$$$
50
                    3D
 Structure written by MMmdl.
162170  0  0  1  0            999 V2000
  -30.7028  -14.5603   20.6379 C   0  0  0  0  0  0
  -30.4225  -12.3768   19.4619 C   0  0  0  0  0  0
  -29.5083  -12.5329   18.2262 C   0  0  0  0  0  0
  -28.0269  -12.3718   18.6195 C   0  0  0  0  0  0
  -27.6517  -13.2206   19.8614 C   0  0  2  0  0  0
  -28.6804  -13.0351   20.9919 C   0  0  0  0  0  0
  -25.2514  -13.8160   20.5628 C   0  0  0  0  0  0
  -24.1803  -13.0440   20.9124 C   0  0  0  0  0  0
  -24.6366  -11.6898   20.8670 C   0  0  0  0  0  0
  -23.9022  -10.4290   21.0352 C   0  0  0  0  0  0
  -24.3585   -9.4224   21.9146 C   0  0  0  0  0  0
  -23.6285   -8.2248   22.0749 C   0  0  0  0  0  0
  -22.4271   -8.0243   21.3537 C   0  0  0  0  0  0
  -21.9869   -9.0207   20.4638 C   0  0  0  0  0  0
  -22.7173  -10.2106   20.3027 C   0  0  0  0  0  0
  -21.6845   -6.0715   22.5276 C   0  0  0  0  0  0
  -21.3992   -6.5623   23.8206 C   0  0  0  0  0  0
  -21.3661   -5.6785   24.9172 C   0  0  0  0  0  0
  -21.6060   -4.3052   24.7232 C   0  0  0  0  0  0
  -21.8824   -3.8131   23.4359 C   0  0  0  0  0  0
  -21.9202   -4.6943   22.3410 C   0  0  0  0  0  0
  -22.7824  -13.5219   21.1836 C   0  0  0  0  0  0
  -22.1668   -4.2118   21.0995 F   0  0  0  0  0  0
  -21.5652   -3.4540   25.7755 F   0  0  0  0  0  0
  -30.0138  -13.3799   20.4737 N   0  0  0  0  0  0
  -26.2958  -12.9370   20.3250 N   0  0  0  0  0  0
  -25.9307  -11.6511   20.5696 N   0  0  0  0  0  0
  -22.0489  -12.8226   22.0412 N   0  0  0  0  0  0
  -25.4215  -15.1882   20.4114 N   0  0  0  0  0  0
  -31.7680  -14.7291   20.0377 O   0  0  0  0  0  0
  -21.6651   -6.8838   21.4233 O   0  0  0  0  0  0
  -22.3496  -14.5542   20.6695 O   0  0  0  0  0  0
  -24.6236  -31.8635   23.2149 C   0  0  0  0  0  0
  -25.9145  -32.4776   23.8414 C   0  0  1  0  0  0
  -27.1944  -27.3647   20.1038 C   0  0  0  0  0  0
  -25.5993  -33.8573   24.2356 N   0  0  0  0  0  0
  -23.4100  -30.5010   21.5470 C   0  0  2  0  0  0
  -24.8447  -28.9642   20.1033 C   0  0  0  0  0  0
  -22.7428  -29.4696   22.4890 C   0  0  0  0  0  0
  -18.0274  -28.1326   22.8487 C   0  0  0  0  0  0
  -24.1484  -36.7281   23.2650 C   0  0  0  0  0  0
  -25.9473  -30.8025   21.3839 C   0  0  0  0  0  0
  -26.0100  -29.4410   20.7135 C   0  0  0  0  0  0
  -27.1878  -28.6504   20.7079 C   0  0  0  0  0  0
  -26.0094  -26.9228   19.4740 C   0  0  0  0  0  0
  -24.8427  -27.7092   19.4748 C   0  0  0  0  0  0
  -23.6221  -29.8534   20.1546 C   0  0  0  0  0  0
  -25.4102  -36.3079   24.0363 C   0  0  1  0  0  0
  -20.5886  -28.3682   23.1231 C   0  0  2  0  0  0
  -20.6754  -26.9387   22.5388 C   0  0  0  0  0  0
  -19.5740  -26.6344   21.5175 C   0  0  0  0  0  0
  -18.1919  -26.7870   22.1590 C   0  0  0  0  0  0
  -19.1530  -28.8810   23.2864 C   0  0  0  0  0  0
  -18.9469  -30.1402   23.8893 C   0  0  0  0  0  0
  -17.6482  -30.6551   24.0543 C   0  0  0  0  0  0
  -25.9049  -34.9444   23.5131 C   0  0  0  0  0  0
  -16.5374  -29.9049   23.6313 C   0  0  0  0  0  0
  -16.7261  -28.6446   23.0367 C   0  0  0  0  0  0
  -26.4528  -31.6570   25.0760 C   0  0  0  0  0  0
  -25.3812  -31.3637   26.1519 C   0  0  0  0  0  0
  -27.0411  -30.3013   24.6243 C   0  0  0  0  0  0
  -27.6092  -32.4296   25.7497 C   0  0  0  0  0  0
  -27.5569  -37.1806   24.8477 C   0  0  0  0  0  0
  -21.4156  -29.3083   22.3631 N   0  0  0  0  0  0
  -26.4274  -37.3785   23.9428 N   0  0  0  0  0  0
  -24.6765  -31.0739   22.1043 N   0  0  0  0  0  0
  -23.4165  -28.8228   23.2937 O   0  0  0  0  0  0
  -28.3307  -26.5695   20.1674 O   0  0  0  0  0  0
  -26.5557  -34.8902   22.4646 O   0  0  0  0  0  0
  -23.5453  -32.1420   23.7581 O   0  0  0  0  0  0
  -31.7018  -17.4806   21.1218 C   0  0  0  0  0  0
  -31.9815  -18.8574   21.0753 C   0  0  0  0  0  0
  -29.5789  -19.3852   21.1081 C   0  0  0  0  0  0
  -30.3779  -16.9934   21.1636 C   0  0  0  0  0  0
  -30.9357  -19.8054   21.0741 C   0  0  0  0  0  0
  -29.3185  -17.9656   21.1537 C   0  0  0  0  0  0
  -33.4292  -19.3160   21.0778 C   0  0  0  0  0  0
  -29.8841  -15.2854   22.8327 C   0  0  0  0  0  0
  -28.4343  -20.4428   21.2832 C   0  0  0  0  0  0
  -27.4309  -24.1469   20.4776 C   0  0  0  0  0  0
  -28.1516  -22.9938   21.2706 C   0  0  0  0  0  0
  -28.3015  -25.1893   19.6941 C   0  0  0  0  0  0
  -30.1652  -15.5687   21.4163 N   0  0  0  0  0  0
  -28.4834  -21.7343   20.5062 N   0  3  0  0  0  0
  -31.3655  -21.4862   21.0845 Cl  0  0  0  0  0  0
  -27.6890  -17.3950   21.2748 Cl  0  0  0  0  0  0
  -31.4706  -12.4738   19.1707 H   0  0  0  0  0  0
  -30.3319  -11.3720   19.8775 H   0  0  0  0  0  0
  -29.7745  -11.8010   17.4605 H   0  0  0  0  0  0
  -29.6643  -13.5188   17.7829 H   0  0  0  0  0  0
  -27.8513  -11.3153   18.8232 H   0  0  0  0  0  0
  -27.3809  -12.6337   17.7805 H   0  0  0  0  0  0
  -27.6854  -14.2671   19.5542 H   0  0  0  0  0  0
  -28.6773  -12.0077   21.3577 H   0  0  0  0  0  0
  -28.3617  -13.6310   21.8381 H   0  0  0  0  0  0
  -25.2731   -9.5747   22.4696 H   0  0  0  0  0  0
  -24.0003   -7.4678   22.7501 H   0  0  0  0  0  0
  -21.0779   -8.8690   19.8978 H   0  0  0  0  0  0
  -22.3575  -10.9622   19.6127 H   0  0  0  0  0  0
  -21.1938   -7.6127   23.9682 H   0  0  0  0  0  0
  -21.1489   -6.0530   25.9075 H   0  0  0  0  0  0
  -22.0606   -2.7589   23.2882 H   0  0  0  0  0  0
  -22.4102  -11.9863   22.4776 H   0  0  0  0  0  0
  -21.1113  -13.1263   22.2652 H   0  0  0  0  0  0
  -24.6651  -15.8434   20.5653 H   0  0  0  0  0  0
  -26.3078  -15.6469   20.2453 H   0  0  0  0  0  0
  -26.7173  -32.5453   23.1124 H   0  0  0  0  0  0
  -25.0241  -33.9687   25.0578 H   0  0  0  0  0  0
  -22.7078  -31.3259   21.4144 H   0  0  0  0  0  0
  -23.3762  -35.9599   23.3311 H   0  0  0  0  0  0
  -24.3626  -36.8870   22.2068 H   0  0  0  0  0  0
  -23.7190  -37.6472   23.6652 H   0  0  0  0  0  0
  -26.1168  -31.5819   20.6403 H   0  0  0  0  0  0
  -26.8139  -30.8178   22.0320 H   0  0  0  0  0  0
  -28.0874  -29.0136   21.1854 H   0  0  0  0  0  0
  -25.9499  -25.9626   18.9849 H   0  0  0  0  0  0
  -23.9481  -27.3435   18.9877 H   0  0  0  0  0  0
  -23.7593  -30.6361   19.4050 H   0  0  0  0  0  0
  -22.7350  -29.3046   19.8413 H   0  0  0  0  0  0
  -25.1289  -36.1916   25.0869 H   0  0  0  0  0  0
  -21.0025  -28.3248   24.1336 H   0  0  0  0  0  0
  -20.5575  -26.2316   23.3619 H   0  0  0  0  0  0
  -21.6625  -26.7346   22.1237 H   0  0  0  0  0  0
  -19.6901  -25.6260   21.1186 H   0  0  0  0  0  0
  -19.6619  -27.3164   20.6711 H   0  0  0  0  0  0
  -17.4184  -26.6615   21.3991 H   0  0  0  0  0  0
  -18.0316  -25.9960   22.8936 H   0  0  0  0  0  0
  -19.7964  -30.7177   24.2277 H   0  0  0  0  0  0
  -17.5058  -31.6242   24.5131 H   0  0  0  0  0  0
  -15.5388  -30.2964   23.7657 H   0  0  0  0  0  0
  -15.8639  -28.0770   22.7131 H   0  0  0  0  0  0
  -24.6038  -30.6893   25.7916 H   0  0  0  0  0  0
  -24.8952  -32.2749   26.5035 H   0  0  0  0  0  0
  -25.8271  -30.8817   27.0234 H   0  0  0  0  0  0
  -26.3005  -29.6669   24.1361 H   0  0  0  0  0  0
  -27.4191  -29.7392   25.4796 H   0  0  0  0  0  0
  -27.8854  -30.4329   23.9464 H   0  0  0  0  0  0
  -27.2742  -33.3616   26.2080 H   0  0  0  0  0  0
  -28.3918  -32.6792   25.0315 H   0  0  0  0  0  0
  -28.0722  -31.8365   26.5389 H   0  0  0  0  0  0
  -28.2604  -38.0098   24.7573 H   0  0  0  0  0  0
  -28.1039  -36.2632   24.6253 H   0  0  0  0  0  0
  -27.2310  -37.1431   25.8888 H   0  0  0  0  0  0
  -20.9301  -29.8867   21.6921 H   0  0  0  0  0  0
  -26.0149  -38.2864   24.1416 H   0  0  0  0  0  0
  -32.5315  -16.7942   21.1749 H   0  0  0  0  0  0
  -34.1141  -18.4689   21.0535 H   0  0  0  0  0  0
  -33.6501  -19.9089   21.9679 H   0  0  0  0  0  0
  -33.6290  -19.9313   20.2000 H   0  0  0  0  0  0
  -28.8336  -15.4653   23.0569 H   0  0  0  0  0  0
  -30.4641  -15.9423   23.4839 H   0  0  0  0  0  0
  -30.1219  -14.2622   23.1320 H   0  0  0  0  0  0
  -28.3977  -20.6674   22.3492 H   0  0  0  0  0  0
  -27.4683  -20.0015   21.0466 H   0  0  0  0  0  0
  -26.7982  -24.6981   21.1775 H   0  0  0  0  0  0
  -26.7168  -23.6911   19.7935 H   0  0  0  0  0  0
  -27.4779  -22.7227   22.0886 H   0  0  0  0  0  0
  -29.0507  -23.3835   21.7535 H   0  0  0  0  0  0
  -29.3285  -24.8298   19.6986 H   0  0  0  0  0  0
  -28.0241  -25.1756   18.6393 H   0  0  0  0  0  0
  -27.8742  -21.6465   19.7097 H   0  0  0  0  0  0
  -29.4255  -21.8235   20.1548 H   0  0  0  0  0  0
  1 25  1  0  0  0
  1 30  2  0  0  0
  1 83  1  0  0  0
  2  3  1  0  0  0
  2 25  1  0  0  0
  2 87  1  0  0  0
  2 88  1  0  0  0
  3  4  1  0  0  0
  3 89  1  0  0  0
  3 90  1  0  0  0
  4  5  1  0  0  0
  4 91  1  0  0  0
  4 92  1  0  0  0
  5  6  1  0  0  0
  5 26  1  0  0  0
  5 93  1  0  0  0
  6 25  1  0  0  0
  6 94  1  0  0  0
  6 95  1  0  0  0
  7  8  2  0  0  0
  7 26  1  0  0  0
  7 29  1  0  0  0
  8  9  1  0  0  0
  8 22  1  0  0  0
  9 10  1  0  0  0
  9 27  2  0  0  0
 10 11  2  0  0  0
 10 15  1  0  0  0
 11 12  1  0  0  0
 11 96  1  0  0  0
 12 13  2  0  0  0
 12 97  1  0  0  0
 13 14  1  0  0  0
 13 31  1  0  0  0
 14 15  2  0  0  0
 14 98  1  0  0  0
 15 99  1  0  0  0
 16 17  2  0  0  0
 16 21  1  0  0  0
 16 31  1  0  0  0
 17 18  1  0  0  0
 17100  1  0  0  0
 18 19  2  0  0  0
 18101  1  0  0  0
 19 20  1  0  0  0
 19 24  1  0  0  0
 20 21  2  0  0  0
 20102  1  0  0  0
 21 23  1  0  0  0
 22 28  1  0  0  0
 22 32  2  0  0  0
 26 27  1  0  0  0
 28103  1  0  0  0
 28104  1  0  0  0
 29105  1  0  0  0
 29106  1  0  0  0
 33 34  1  0  0  0
 33 66  1  0  0  0
 33 70  2  0  0  0
 34 36  1  0  0  0
 34 59  1  0  0  0
 34107  1  0  0  0
 35 44  2  0  0  0
 35 45  1  0  0  0
 35 68  1  0  0  0
 36 56  1  0  0  0
 36108  1  0  0  0
 37 39  1  0  0  0
 37 47  1  0  0  0
 37 66  1  0  0  0
 37109  1  0  0  0
 38 43  2  0  0  0
 38 46  1  0  0  0
 38 47  1  0  0  0
 39 64  1  0  0  0
 39 67  2  0  0  0
 40 52  1  0  0  0
 40 53  2  0  0  0
 40 58  1  0  0  0
 41110  1  0  0  0
 41111  1  0  0  0
 41112  1  0  0  0
 41 48  1  0  0  0
 42 43  1  0  0  0
 42 66  1  0  0  0
 42113  1  0  0  0
 42114  1  0  0  0
 43 44  1  0  0  0
 44115  1  0  0  0
 45 46  2  0  0  0
 45116  1  0  0  0
 46117  1  0  0  0
 47118  1  0  0  0
 47119  1  0  0  0
 48 56  1  0  0  0
 48 65  1  0  0  0
 48120  1  0  0  0
 49 50  1  0  0  0
 49 53  1  0  0  0
 49 64  1  0  0  0
 49121  1  0  0  0
 50 51  1  0  0  0
 50122  1  0  0  0
 50123  1  0  0  0
 51 52  1  0  0  0
 51124  1  0  0  0
 51125  1  0  0  0
 52126  1  0  0  0
 52127  1  0  0  0
 53 54  1  0  0  0
 54 55  2  0  0  0
 54128  1  0  0  0
 55 57  1  0  0  0
 55129  1  0  0  0
 56 69  2  0  0  0
 57 58  2  0  0  0
 57130  1  0  0  0
 58131  1  0  0  0
 59 60  1  0  0  0
 59 61  1  0  0  0
 59 62  1  0  0  0
 60132  1  0  0  0
 60133  1  0  0  0
 60134  1  0  0  0
 61135  1  0  0  0
 61136  1  0  0  0
 61137  1  0  0  0
 62138  1  0  0  0
 62139  1  0  0  0
 62140  1  0  0  0
 63 65  1  0  0  0
 63141  1  0  0  0
 63142  1  0  0  0
 63143  1  0  0  0
 64144  1  0  0  0
 65145  1  0  0  0
 68 82  1  0  0  0
 71 72  2  0  0  0
 71 74  1  0  0  0
 71146  1  0  0  0
 72 75  1  0  0  0
 72 77  1  0  0  0
 73 75  2  0  0  0
 73 76  1  0  0  0
 73 79  1  0  0  0
 74 76  2  0  0  0
 74 83  1  0  0  0
 75 85  1  0  0  0
 76 86  1  0  0  0
 77147  1  0  0  0
 77148  1  0  0  0
 77149  1  0  0  0
 78 83  1  0  0  0
 78150  1  0  0  0
 78151  1  0  0  0
 78152  1  0  0  0
 79 84  1  0  0  0
 79153  1  0  0  0
 79154  1  0  0  0
 80 81  1  0  0  0
 80 82  1  0  0  0
 80155  1  0  0  0
 80156  1  0  0  0
 81 84  1  0  0  0
 81157  1  0  0  0
 81158  1  0  0  0
 82159  1  0  0  0
 82160  1  0  0  0
 84161  1  0  0  0
 84162  1  0  0  0
M  CHG  1  84   1
M  ISO  4   1 100  68 101  82 101  83 100
M  END
> <chiral flag>
0

> <version>
0

> <s_m_source_file>
/data/baiqing/PycharmProjects/Reinvent-master-3.2/result/LINK_invent/BTK/process_docking_weight1_custom_sum_contain_oxygen_bond_distance_aromatic_linkinvent_7_9_3/rearranged_h_0017.sdf

> <i_m_source_file_index>
51

> <r_mmod_Potential_Energy-OPLS-2005>
-7.30965566635132

> <r_mmod_Stretch_Energy-OPLS-2005>
69.5355606079102

> <r_mmod_Bend_Energy-OPLS-2005>
139.074844360352

> <r_mmod_Torsional_Energy-OPLS-2005>
317.261383056641

> <r_mmod_Improper_Torsional_Energy-OPLS-2005>
5.63921117782593

> <r_mmod_Van_der_Waal_Energy-OPLS-2005>
168.099075317383

> <r_mmod_Electrostatic_Energy-OPLS-2005>
-290.49658203125

> <r_mmod_Solvation_Energy-OPLS-2005>
-446.133270263672

> <b_mmod_Minimization_Converged-OPLS-2005>
0

> <r_mmod_RMS_Derivative-OPLS-2005>
4.64215040206909

$$$$
52
                    3D
 Structure written by MMmdl.
150158  0  0  1  0            999 V2000
  -30.2618  -15.7684   20.3207 C   0  0  0  0  0  0
  -30.4130  -13.1816   19.5375 C   0  0  0  0  0  0
  -29.5530  -12.6879   18.3356 C   0  0  0  0  0  0
  -28.1387  -12.3012   18.7887 C   0  0  0  0  0  0
  -27.5907  -13.3213   19.8098 C   0  0  2  0  0  0
  -28.5992  -13.7163   20.9180 C   0  0  0  0  0  0
  -25.2302  -13.8303   20.5819 C   0  0  0  0  0  0
  -24.1705  -13.0435   20.9302 C   0  0  0  0  0  0
  -24.6424  -11.6952   20.8767 C   0  0  0  0  0  0
  -23.9129  -10.4294   21.0393 C   0  0  0  0  0  0
  -24.3660   -9.4207   21.9178 C   0  0  0  0  0  0
  -23.6317   -8.2249   22.0753 C   0  0  0  0  0  0
  -22.4296   -8.0290   21.3545 C   0  0  0  0  0  0
  -21.9947   -9.0266   20.4643 C   0  0  0  0  0  0
  -22.7294  -10.2136   20.3047 C   0  0  0  0  0  0
  -21.6860   -6.0743   22.5279 C   0  0  0  0  0  0
  -21.4020   -6.5645   23.8213 C   0  0  0  0  0  0
  -21.3660   -5.6796   24.9174 C   0  0  0  0  0  0
  -21.6043   -4.3058   24.7224 C   0  0  0  0  0  0
  -21.8819   -3.8152   23.4344 C   0  0  0  0  0  0
  -21.9195   -4.6970   22.3402 C   0  0  0  0  0  0
  -22.7713  -13.5155   21.1928 C   0  0  0  0  0  0
  -22.1662   -4.2155   21.0979 F   0  0  0  0  0  0
  -21.5626   -3.4541   25.7735 F   0  0  0  0  0  0
  -29.7495  -14.3806   20.2490 N   0  0  0  0  0  0
  -26.2764  -12.9661   20.3257 N   0  0  0  0  0  0
  -25.9376  -11.6716   20.5698 N   0  0  0  0  0  0
  -22.0381  -12.8128   22.0478 N   0  0  0  0  0  0
  -25.3871  -15.2047   20.4259 N   0  0  0  0  0  0
  -31.4981  -15.6573   20.1864 O   0  0  0  0  0  0
  -21.6650   -6.8892   21.4243 O   0  0  0  0  0  0
  -22.3386  -14.5452   20.6761 O   0  0  0  0  0  0
  -24.6935  -31.7887   23.1430 C   0  0  0  0  0  0
  -25.9469  -32.4409   23.8014 C   0  0  1  0  0  0
  -27.2296  -26.6030   20.2253 C   0  0  0  0  0  0
  -25.6008  -33.8238   24.1895 N   0  0  0  0  0  0
  -23.5240  -30.3863   21.4993 C   0  0  2  0  0  0
  -24.9825  -28.7060   20.1210 C   0  0  0  0  0  0
  -22.7813  -29.4256   22.4683 C   0  0  0  0  0  0
  -18.0345  -28.1430   22.8455 C   0  0  0  0  0  0
  -24.1491  -36.7119   23.2656 C   0  0  0  0  0  0
  -26.1090  -30.4891   21.4223 C   0  0  0  0  0  0
  -26.1737  -29.0426   20.7746 C   0  0  0  0  0  0
  -27.2777  -28.0225   20.7903 C   0  0  0  0  0  0
  -26.0042  -26.5011   19.5120 C   0  0  0  0  0  0
  -24.9432  -27.4626   19.4650 C   0  0  0  0  0  0
  -23.7835  -29.6737   20.1389 C   0  0  0  0  0  0
  -25.4146  -36.2859   24.0276 C   0  0  1  0  0  0
  -20.5988  -28.3791   23.1125 C   0  0  2  0  0  0
  -20.6805  -26.9440   22.5407 C   0  0  0  0  0  0
  -19.5780  -26.6372   21.5220 C   0  0  0  0  0  0
  -18.1964  -26.7956   22.1621 C   0  0  0  0  0  0
  -19.1616  -28.8937   23.2767 C   0  0  0  0  0  0
  -18.9519  -30.1520   23.8815 C   0  0  0  0  0  0
  -17.6507  -30.6609   24.0549 C   0  0  0  0  0  0
  -25.9135  -34.9253   23.4929 C   0  0  0  0  0  0
  -16.5396  -29.9090   23.6356 C   0  0  0  0  0  0
  -16.7325  -28.6513   23.0373 C   0  0  0  0  0  0
  -26.4614  -31.6485   25.0678 C   0  0  0  0  0  0
  -25.3654  -31.3834   26.1277 C   0  0  0  0  0  0
  -27.0566  -30.2813   24.6649 C   0  0  0  0  0  0
  -27.6042  -32.4369   25.7503 C   0  0  0  0  0  0
  -27.5555  -37.1719   24.8471 C   0  0  0  0  0  0
  -21.4451  -29.3017   22.3432 N   0  0  0  0  0  0
  -26.4261  -37.3633   23.9411 N   0  0  0  0  0  0
  -24.7999  -30.9238   22.0735 N   0  0  0  0  0  0
  -23.4213  -28.7875   23.3073 O   0  0  0  0  0  0
  -28.1774  -25.3372   20.2992 O   0  0  0  0  0  0
  -26.5785  -34.8852   22.4554 O   0  0  0  0  0  0
  -23.5935  -32.1004   23.6326 O   0  0  0  0  0  0
  -31.1911  -20.8938   20.7830 C   0  0  0  0  0  0
  -30.3099  -22.0151   20.6251 C   0  0  0  0  0  0
  -28.9293  -21.8974   20.3264 C   0  0  0  0  0  0
  -28.6785  -20.2737   20.2232 C   0  0  0  0  0  0
  -29.6256  -18.9395   20.3804 C   0  0  0  0  0  0
  -30.9064  -19.4915   20.6827 C   0  0  0  0  0  0
  -30.8974  -23.4059   20.7972 C   0  0  0  0  0  0
  -27.2397  -19.9165   19.9153 C   0  0  0  0  0  0
  -27.9613  -23.5456   20.1654 C   0  0  0  0  0  0
  -29.4980  -17.1716   20.3274 N   0  0  0  0  0  0
  -32.2508  -18.4578   20.9977 Cl  0  0  0  0  0  0
  -31.3953  -13.4595   19.1544 H   0  0  0  0  0  0
  -30.6081  -12.3655   20.2354 H   0  0  0  0  0  0
  -30.0349  -11.8448   17.8387 H   0  0  0  0  0  0
  -29.4885  -13.4855   17.5941 H   0  0  0  0  0  0
  -28.1933  -11.3163   19.2544 H   0  0  0  0  0  0
  -27.4695  -12.2037   17.9328 H   0  0  0  0  0  0
  -27.4327  -14.2220   19.2145 H   0  0  0  0  0  0
  -28.8924  -12.8600   21.5271 H   0  0  0  0  0  0
  -28.1396  -14.4323   21.6009 H   0  0  0  0  0  0
  -25.2798   -9.5680   22.4765 H   0  0  0  0  0  0
  -24.0016   -7.4642   22.7480 H   0  0  0  0  0  0
  -21.0876   -8.8797   19.8950 H   0  0  0  0  0  0
  -22.3753  -10.9678   19.6159 H   0  0  0  0  0  0
  -21.2015   -7.6153   23.9719 H   0  0  0  0  0  0
  -21.1480   -6.0524   25.9077 H   0  0  0  0  0  0
  -22.0595   -2.7614   23.2843 H   0  0  0  0  0  0
  -22.4028  -11.9806   22.4874 H   0  0  0  0  0  0
  -21.0984  -13.1116   22.2672 H   0  0  0  0  0  0
  -24.6124  -15.8500   20.5364 H   0  0  0  0  0  0
  -26.2255  -15.6484   20.0767 H   0  0  0  0  0  0
  -26.7559  -32.4859   23.0730 H   0  0  0  0  0  0
  -25.0060  -33.9255   24.9987 H   0  0  0  0  0  0
  -22.8545  -31.2259   21.3011 H   0  0  0  0  0  0
  -23.3775  -35.9425   23.3266 H   0  0  0  0  0  0
  -24.3553  -36.8839   22.2080 H   0  0  0  0  0  0
  -23.7229  -37.6272   23.6774 H   0  0  0  0  0  0
  -26.3224  -31.2071   20.6294 H   0  0  0  0  0  0
  -26.9558  -30.5617   22.0922 H   0  0  0  0  0  0
  -28.1719  -28.2902   21.3353 H   0  0  0  0  0  0
  -25.8201  -25.5650   19.0041 H   0  0  0  0  0  0
  -24.0471  -27.1943   18.9221 H   0  0  0  0  0  0
  -23.9668  -30.4294   19.3742 H   0  0  0  0  0  0
  -22.8860  -29.1455   19.8124 H   0  0  0  0  0  0
  -25.1361  -36.1604   25.0765 H   0  0  0  0  0  0
  -21.0067  -28.3423   24.1254 H   0  0  0  0  0  0
  -20.5659  -26.2417   23.3679 H   0  0  0  0  0  0
  -21.6665  -26.7367   22.1230 H   0  0  0  0  0  0
  -19.6929  -25.6262   21.1300 H   0  0  0  0  0  0
  -19.6723  -27.3139   20.6717 H   0  0  0  0  0  0
  -17.4234  -26.6705   21.4023 H   0  0  0  0  0  0
  -18.0343  -26.0118   22.9035 H   0  0  0  0  0  0
  -19.7993  -30.7361   24.2144 H   0  0  0  0  0  0
  -17.5056  -31.6279   24.5170 H   0  0  0  0  0  0
  -15.5392  -30.2965   23.7729 H   0  0  0  0  0  0
  -15.8726  -28.0804   22.7136 H   0  0  0  0  0  0
  -24.5868  -30.7151   25.7582 H   0  0  0  0  0  0
  -24.8810  -32.3065   26.4467 H   0  0  0  0  0  0
  -25.7810  -30.9155   27.0210 H   0  0  0  0  0  0
  -26.3307  -29.6395   24.1646 H   0  0  0  0  0  0
  -27.3964  -29.7299   25.5427 H   0  0  0  0  0  0
  -27.9297  -30.3923   24.0217 H   0  0  0  0  0  0
  -27.2569  -33.3756   26.1835 H   0  0  0  0  0  0
  -28.3979  -32.6794   25.0423 H   0  0  0  0  0  0
  -28.0571  -31.8662   26.5621 H   0  0  0  0  0  0
  -28.2546  -38.0037   24.7510 H   0  0  0  0  0  0
  -28.1075  -36.2559   24.6309 H   0  0  0  0  0  0
  -27.2269  -37.1368   25.8873 H   0  0  0  0  0  0
  -20.9780  -29.8651   21.6464 H   0  0  0  0  0  0
  -26.0077  -38.2676   24.1427 H   0  0  0  0  0  0
  -32.2191  -21.1277   21.0200 H   0  0  0  0  0  0
  -31.9540  -23.3739   21.0648 H   0  0  0  0  0  0
  -30.3766  -23.9481   21.5868 H   0  0  0  0  0  0
  -30.8077  -23.9763   19.8722 H   0  0  0  0  0  0
  -26.6450  -20.8025   19.6919 H   0  0  0  0  0  0
  -26.7867  -19.4085   20.7671 H   0  0  0  0  0  0
  -27.1894  -19.2504   19.0539 H   0  0  0  0  0  0
  -27.1178  -23.3715   20.8334 H   0  0  0  0  0  0
  -27.5228  -23.4474   19.1725 H   0  0  0  0  0  0
  -28.5196  -16.9286   20.2942 H   0  0  0  0  0  0
  1 25  1  0  0  0
  1 30  2  0  0  0
  1 80  1  0  0  0
  2  3  1  0  0  0
  2 25  1  0  0  0
  2 82  1  0  0  0
  2 83  1  0  0  0
  3  4  1  0  0  0
  3 84  1  0  0  0
  3 85  1  0  0  0
  4  5  1  0  0  0
  4 86  1  0  0  0
  4 87  1  0  0  0
  5  6  1  0  0  0
  5 26  1  0  0  0
  5 88  1  0  0  0
  6 25  1  0  0  0
  6 89  1  0  0  0
  6 90  1  0  0  0
  7  8  2  0  0  0
  7 26  1  0  0  0
  7 29  1  0  0  0
  8  9  1  0  0  0
  8 22  1  0  0  0
  9 10  1  0  0  0
  9 27  2  0  0  0
 10 11  2  0  0  0
 10 15  1  0  0  0
 11 12  1  0  0  0
 11 91  1  0  0  0
 12 13  2  0  0  0
 12 92  1  0  0  0
 13 14  1  0  0  0
 13 31  1  0  0  0
 14 15  2  0  0  0
 14 93  1  0  0  0
 15 94  1  0  0  0
 16 17  2  0  0  0
 16 21  1  0  0  0
 16 31  1  0  0  0
 17 18  1  0  0  0
 17 95  1  0  0  0
 18 19  2  0  0  0
 18 96  1  0  0  0
 19 20  1  0  0  0
 19 24  1  0  0  0
 20 21  2  0  0  0
 20 97  1  0  0  0
 21 23  1  0  0  0
 22 28  1  0  0  0
 22 32  2  0  0  0
 26 27  1  0  0  0
 28 98  1  0  0  0
 28 99  1  0  0  0
 29100  1  0  0  0
 29101  1  0  0  0
 33 34  1  0  0  0
 33 66  1  0  0  0
 33 70  2  0  0  0
 34 36  1  0  0  0
 34 59  1  0  0  0
 34102  1  0  0  0
 35 44  2  0  0  0
 35 45  1  0  0  0
 35 68  1  0  0  0
 36 56  1  0  0  0
 36103  1  0  0  0
 37 39  1  0  0  0
 37 47  1  0  0  0
 37 66  1  0  0  0
 37104  1  0  0  0
 38 43  2  0  0  0
 38 46  1  0  0  0
 38 47  1  0  0  0
 39 64  1  0  0  0
 39 67  2  0  0  0
 40 52  1  0  0  0
 40 53  2  0  0  0
 40 58  1  0  0  0
 41105  1  0  0  0
 41106  1  0  0  0
 41107  1  0  0  0
 41 48  1  0  0  0
 42 43  1  0  0  0
 42 66  1  0  0  0
 42108  1  0  0  0
 42109  1  0  0  0
 43 44  1  0  0  0
 44110  1  0  0  0
 45 46  2  0  0  0
 45111  1  0  0  0
 46112  1  0  0  0
 47113  1  0  0  0
 47114  1  0  0  0
 48 56  1  0  0  0
 48 65  1  0  0  0
 48115  1  0  0  0
 49 50  1  0  0  0
 49 53  1  0  0  0
 49 64  1  0  0  0
 49116  1  0  0  0
 50 51  1  0  0  0
 50117  1  0  0  0
 50118  1  0  0  0
 51 52  1  0  0  0
 51119  1  0  0  0
 51120  1  0  0  0
 52121  1  0  0  0
 52122  1  0  0  0
 53 54  1  0  0  0
 54 55  2  0  0  0
 54123  1  0  0  0
 55 57  1  0  0  0
 55124  1  0  0  0
 56 69  2  0  0  0
 57 58  2  0  0  0
 57125  1  0  0  0
 58126  1  0  0  0
 59 60  1  0  0  0
 59 61  1  0  0  0
 59 62  1  0  0  0
 60127  1  0  0  0
 60128  1  0  0  0
 60129  1  0  0  0
 61130  1  0  0  0
 61131  1  0  0  0
 61132  1  0  0  0
 62133  1  0  0  0
 62134  1  0  0  0
 62135  1  0  0  0
 63 65  1  0  0  0
 63136  1  0  0  0
 63137  1  0  0  0
 63138  1  0  0  0
 64139  1  0  0  0
 65140  1  0  0  0
 68 79  1  0  0  0
 71 72  2  0  0  0
 71 76  1  0  0  0
 71141  1  0  0  0
 72 73  1  0  0  0
 72 77  1  0  0  0
 73 74  2  0  0  0
 73 79  1  0  0  0
 74 75  1  0  0  0
 74 78  1  0  0  0
 75 76  2  0  0  0
 75 80  1  0  0  0
 76 81  1  0  0  0
 77142  1  0  0  0
 77143  1  0  0  0
 77144  1  0  0  0
 78145  1  0  0  0
 78146  1  0  0  0
 78147  1  0  0  0
 79148  1  0  0  0
 79149  1  0  0  0
 80150  1  0  0  0
M  ISO  4   1 100  68 101  79 101  80 100
M  END
> <chiral flag>
0

> <version>
0

> <s_m_source_file>
/data/baiqing/PycharmProjects/Reinvent-master-3.2/result/LINK_invent/BTK/process_docking_weight1_custom_sum_contain_oxygen_bond_distance_aromatic_linkinvent_7_9_3/rearranged_h_0017.sdf

> <i_m_source_file_index>
52

> <r_mmod_Potential_Energy-OPLS-2005>
2809.70263671875

> <r_mmod_Stretch_Energy-OPLS-2005>
1276.33813476562

> <r_mmod_Bend_Energy-OPLS-2005>
642.190612792969

> <r_mmod_Torsional_Energy-OPLS-2005>
223.007965087891

> <r_mmod_Improper_Torsional_Energy-OPLS-2005>
4.76329135894775

> <r_mmod_Van_der_Waal_Energy-OPLS-2005>
130.050735473633

> <r_mmod_Electrostatic_Energy-OPLS-2005>
-363.146301269531

> <r_mmod_Solvation_Energy-OPLS-2005>
-215.980377197266

> <b_mmod_Minimization_Converged-OPLS-2005>
0

> <r_mmod_RMS_Derivative-OPLS-2005>
0.336018562316895

$$$$
53
                    3D
 Structure written by MMmdl.
180189  0  0  1  0            999 V2000
  -30.8158  -14.3634   20.7130 C   0  0  0  0  0  0
  -30.4895  -12.2952   19.3956 C   0  0  0  0  0  0
  -29.5222  -12.4918   18.1985 C   0  0  0  0  0  0
  -28.0511  -12.3291   18.6062 C   0  0  0  0  0  0
  -27.7110  -13.1473   19.8707 C   0  0  2  0  0  0
  -28.7561  -12.8737   20.9842 C   0  0  0  0  0  0
  -25.2898  -13.7980   20.5512 C   0  0  0  0  0  0
  -24.2090  -13.0359   20.9313 C   0  0  0  0  0  0
  -24.6570  -11.6878   20.8718 C   0  0  0  0  0  0
  -23.9097  -10.4336   21.0488 C   0  0  0  0  0  0
  -24.3677   -9.4229   21.9175 C   0  0  0  0  0  0
  -23.6428   -8.2236   22.0618 C   0  0  0  0  0  0
  -22.4377   -8.0335   21.3458 C   0  0  0  0  0  0
  -22.0051   -9.0256   20.4550 C   0  0  0  0  0  0
  -22.7346  -10.2166   20.3048 C   0  0  0  0  0  0
  -21.6784   -6.0937   22.5423 C   0  0  0  0  0  0
  -21.3853   -6.5778   23.8348 C   0  0  0  0  0  0
  -21.3579   -5.6866   24.9269 C   0  0  0  0  0  0
  -21.5979   -4.3183   24.7251 C   0  0  0  0  0  0
  -21.8780   -3.8347   23.4363 C   0  0  0  0  0  0
  -21.9169   -4.7178   22.3480 C   0  0  0  0  0  0
  -22.8164  -13.5226   21.2174 C   0  0  0  0  0  0
  -22.1720   -4.2425   21.1037 F   0  0  0  0  0  0
  -21.5722   -3.4634   25.7734 F   0  0  0  0  0  0
  -30.1189  -13.1963   20.5062 N   0  0  0  0  0  0
  -26.3324  -12.9083   20.3254 N   0  0  0  0  0  0
  -25.9357  -11.6328   20.5426 N   0  0  0  0  0  0
  -22.0790  -12.7996   22.0634 N   0  0  0  0  0  0
  -25.4526  -15.1580   20.3245 N   0  0  0  0  0  0
  -31.6612  -14.7735   19.9123 O   0  0  0  0  0  0
  -21.6555   -6.9081   21.4368 O   0  0  0  0  0  0
  -22.3880  -14.5497   20.7153 O   0  0  0  0  0  0
  -24.6090  -31.8690   23.2214 C   0  0  0  0  0  0
  -25.8967  -32.4848   23.8541 C   0  0  1  0  0  0
  -27.2600  -27.4923   20.0847 C   0  0  0  0  0  0
  -25.5854  -33.8653   24.2508 N   0  0  0  0  0  0
  -23.3987  -30.5004   21.5463 C   0  0  2  0  0  0
  -24.8489  -28.9623   20.1279 C   0  0  0  0  0  0
  -22.7384  -29.4698   22.4910 C   0  0  0  0  0  0
  -18.0258  -28.1387   22.8468 C   0  0  0  0  0  0
  -24.1453  -36.7290   23.2677 C   0  0  0  0  0  0
  -25.9209  -30.8523   21.3669 C   0  0  0  0  0  0
  -26.0039  -29.4897   20.7179 C   0  0  0  0  0  0
  -27.2094  -28.7603   20.7065 C   0  0  0  0  0  0
  -26.0885  -26.9714   19.4928 C   0  0  0  0  0  0
  -24.8808  -27.6975   19.5144 C   0  0  0  0  0  0
  -23.6167  -29.8366   20.1603 C   0  0  0  0  0  0
  -25.4063  -36.3173   24.0452 C   0  0  1  0  0  0
  -20.5852  -28.3680   23.1281 C   0  0  2  0  0  0
  -20.6747  -26.9408   22.5383 C   0  0  0  0  0  0
  -19.5723  -26.6403   21.5185 C   0  0  0  0  0  0
  -18.1911  -26.7939   22.1605 C   0  0  0  0  0  0
  -19.1509  -28.8841   23.2887 C   0  0  0  0  0  0
  -18.9439  -30.1446   23.8906 C   0  0  0  0  0  0
  -17.6440  -30.6578   24.0581 C   0  0  0  0  0  0
  -25.8983  -34.9507   23.5301 C   0  0  0  0  0  0
  -16.5332  -29.9083   23.6325 C   0  0  0  0  0  0
  -16.7252  -28.6510   23.0327 C   0  0  0  0  0  0
  -26.4486  -31.6569   25.0795 C   0  0  0  0  0  0
  -25.3884  -31.3470   26.1633 C   0  0  0  0  0  0
  -27.0400  -30.3103   24.6059 C   0  0  0  0  0  0
  -27.6139  -32.4260   25.7432 C   0  0  0  0  0  0
  -27.5578  -37.1832   24.8526 C   0  0  0  0  0  0
  -21.4108  -29.3090   22.3691 N   0  0  0  0  0  0
  -26.4287  -37.3813   23.9478 N   0  0  0  0  0  0
  -24.6594  -31.0901   22.1033 N   0  0  0  0  0  0
  -23.4165  -28.8183   23.2907 O   0  0  0  0  0  0
  -28.4019  -26.7310   19.9987 O   0  0  0  0  0  0
  -26.5493  -34.8909   22.4831 O   0  0  0  0  0  0
  -23.5289  -32.1376   23.7625 O   0  0  0  0  0  0
  -30.2681  -19.1740   21.7424 C   0  0  0  0  0  0
  -29.1422  -18.3546   21.6231 C   0  0  0  0  0  0
  -29.2994  -16.9663   21.8389 C   0  0  0  0  0  0
  -31.6536  -17.2566   22.4213 C   0  0  0  0  0  0
  -31.4623  -18.6686   22.3057 C   0  0  0  0  0  0
  -30.5775  -16.3830   22.0549 C   0  0  0  0  0  0
  -33.5368  -21.6922   22.0056 C   0  0  0  0  0  0
  -32.1819  -21.8339   24.0513 C   0  0  0  0  0  0
  -32.9866  -20.3090   21.6543 C   0  0  0  0  0  0
  -31.6324  -20.4274   23.8391 C   0  0  0  0  0  0
  -32.4428  -22.5290   22.7050 C   0  0  0  0  0  0
  -27.7827  -18.9959   21.4067 C   0  0  0  0  0  0
  -28.0728  -16.1142   21.9161 C   0  0  0  0  0  0
  -32.9522  -16.6766   22.9911 C   0  0  0  0  0  0
  -31.3100  -25.6620   22.0505 C   0  0  0  0  0  0
  -30.3650  -25.7420   20.8445 C   0  0  0  0  0  0
  -32.5992  -24.8592   21.7992 C   0  0  0  0  0  0
  -29.4579  -26.9752   20.9175 C   0  0  0  0  0  0
  -32.3615  -19.6349   22.8082 N   0  0  0  0  0  0
  -30.7255  -14.9500   21.9285 N   0  0  0  0  0  0
  -32.8260  -23.9325   22.9270 N   0  3  0  0  0  0
  -31.5191  -12.4999   19.0724 H   0  0  0  0  0  0
  -30.4802  -11.2584   19.7481 H   0  0  0  0  0  0
  -29.7536  -11.7863   17.3991 H   0  0  0  0  0  0
  -29.6482  -13.4873   17.7708 H   0  0  0  0  0  0
  -27.8371  -11.2696   18.7600 H   0  0  0  0  0  0
  -27.4045  -12.6365   17.7778 H   0  0  0  0  0  0
  -27.7882  -14.1842   19.5604 H   0  0  0  0  0  0
  -28.7280  -11.8075   21.2169 H   0  0  0  0  0  0
  -28.4905  -13.3630   21.9131 H   0  0  0  0  0  0
  -25.2810   -9.5735   22.4738 H   0  0  0  0  0  0
  -24.0205   -7.4563   22.7231 H   0  0  0  0  0  0
  -21.1040   -8.8790   19.8806 H   0  0  0  0  0  0
  -22.3843  -10.9674   19.6164 H   0  0  0  0  0  0
  -21.1615   -7.6222   23.9995 H   0  0  0  0  0  0
  -21.1434   -6.0525   25.9191 H   0  0  0  0  0  0
  -22.0612   -2.7865   23.2749 H   0  0  0  0  0  0
  -22.4461  -11.9561   22.4823 H   0  0  0  0  0  0
  -21.1474  -13.1096   22.3040 H   0  0  0  0  0  0
  -24.6297  -15.7416   20.2557 H   0  0  0  0  0  0
  -26.1972  -15.4963   19.7217 H   0  0  0  0  0  0
  -26.6994  -32.5590   23.1278 H   0  0  0  0  0  0
  -25.0235  -33.9785   25.0815 H   0  0  0  0  0  0
  -22.6886  -31.3205   21.4091 H   0  0  0  0  0  0
  -23.3752  -35.9587   23.3395 H   0  0  0  0  0  0
  -24.3590  -36.8779   22.2083 H   0  0  0  0  0  0
  -23.7108  -37.6508   23.6560 H   0  0  0  0  0  0
  -26.0428  -31.6148   20.5987 H   0  0  0  0  0  0
  -26.8085  -30.9033   21.9845 H   0  0  0  0  0  0
  -28.0977  -29.1973   21.1384 H   0  0  0  0  0  0
  -26.1193  -26.0095   18.9983 H   0  0  0  0  0  0
  -23.9926  -27.2823   19.0554 H   0  0  0  0  0  0
  -23.7531  -30.6246   19.4176 H   0  0  0  0  0  0
  -22.7365  -29.2824   19.8353 H   0  0  0  0  0  0
  -25.1200  -36.2167   25.0945 H   0  0  0  0  0  0
  -20.9967  -28.3290   24.1399 H   0  0  0  0  0  0
  -20.5652  -26.2304   23.3586 H   0  0  0  0  0  0
  -21.6625  -26.7456   22.1194 H   0  0  0  0  0  0
  -19.6903  -25.6329   21.1202 H   0  0  0  0  0  0
  -19.6682  -27.3228   20.6732 H   0  0  0  0  0  0
  -17.4185  -26.6677   21.4015 H   0  0  0  0  0  0
  -18.0322  -26.0068   22.8984 H   0  0  0  0  0  0
  -19.7919  -30.7256   24.2293 H   0  0  0  0  0  0
  -17.4996  -31.6258   24.5196 H   0  0  0  0  0  0
  -15.5336  -30.2997   23.7650 H   0  0  0  0  0  0
  -15.8648  -28.0861   22.7011 H   0  0  0  0  0  0
  -24.6026  -30.6848   25.7986 H   0  0  0  0  0  0
  -24.9092  -32.2482   26.5452 H   0  0  0  0  0  0
  -25.8401  -30.8416   27.0180 H   0  0  0  0  0  0
  -26.2917  -29.6684   24.1402 H   0  0  0  0  0  0
  -27.4605  -29.7510   25.4424 H   0  0  0  0  0  0
  -27.8523  -30.4596   23.8951 H   0  0  0  0  0  0
  -27.2887  -33.3505   26.2204 H   0  0  0  0  0  0
  -28.3764  -32.6894   25.0091 H   0  0  0  0  0  0
  -28.1030  -31.8281   26.5126 H   0  0  0  0  0  0
  -28.2681  -38.0041   24.7524 H   0  0  0  0  0  0
  -28.0988  -36.2604   24.6433 H   0  0  0  0  0  0
  -27.2320  -37.1584   25.8928 H   0  0  0  0  0  0
  -20.9230  -29.8892   21.7000 H   0  0  0  0  0  0
  -26.0258  -38.2948   24.1372 H   0  0  0  0  0  0
  -30.1503  -20.2430   21.5863 H   0  0  0  0  0  0
  -33.9160  -22.1453   21.0885 H   0  0  0  0  0  0
  -34.3820  -21.5503   22.6838 H   0  0  0  0  0  0
  -33.1049  -21.7641   24.6322 H   0  0  0  0  0  0
  -31.4716  -22.4112   24.6450 H   0  0  0  0  0  0
  -33.8100  -19.6710   21.3032 H   0  0  0  0  0  0
  -32.2928  -20.4360   20.8143 H   0  0  0  0  0  0
  -30.5716  -20.5791   23.6144 H   0  0  0  0  0  0
  -31.6288  -19.8838   24.7941 H   0  0  0  0  0  0
  -31.5324  -22.5434   22.0937 H   0  0  0  0  0  0
  -27.8472  -20.0113   20.9931 H   0  0  0  0  0  0
  -27.2718  -19.0623   22.3695 H   0  0  0  0  0  0
  -27.1642  -18.4169   20.7245 H   0  0  0  0  0  0
  -27.8612  -15.8179   20.8940 H   0  0  0  0  0  0
  -27.2350  -16.6563   22.3536 H   0  0  0  0  0  0
  -28.2442  -15.2740   22.5809 H   0  0  0  0  0  0
  -33.0254  -16.9324   24.0510 H   0  0  0  0  0  0
  -33.8447  -17.0438   22.4695 H   0  0  0  0  0  0
  -32.9771  -15.5884   22.9708 H   0  0  0  0  0  0
  -30.7301  -25.2096   22.8634 H   0  0  0  0  0  0
  -31.5923  -26.6603   22.4079 H   0  0  0  0  0  0
  -29.7432  -24.8430   20.8642 H   0  0  0  0  0  0
  -30.8860  -25.7201   19.8885 H   0  0  0  0  0  0
  -33.4308  -25.5637   21.7407 H   0  0  0  0  0  0
  -32.5717  -24.3362   20.8427 H   0  0  0  0  0  0
  -30.0039  -27.8852   20.6576 H   0  0  0  0  0  0
  -29.0820  -27.0919   21.9348 H   0  0  0  0  0  0
  -30.6017  -14.3546   22.7407 H   0  0  0  0  0  0
  -33.7755  -23.9834   23.2585 H   0  0  0  0  0  0
  -32.2029  -24.2625   23.6456 H   0  0  0  0  0  0
  1 25  1  0  0  0
  1 30  2  0  0  0
  1 90  1  0  0  0
  2  3  1  0  0  0
  2 25  1  0  0  0
  2 92  1  0  0  0
  2 93  1  0  0  0
  3  4  1  0  0  0
  3 94  1  0  0  0
  3 95  1  0  0  0
  4  5  1  0  0  0
  4 96  1  0  0  0
  4 97  1  0  0  0
  5  6  1  0  0  0
  5 26  1  0  0  0
  5 98  1  0  0  0
  6 25  1  0  0  0
  6 99  1  0  0  0
  6100  1  0  0  0
  7  8  2  0  0  0
  7 26  1  0  0  0
  7 29  1  0  0  0
  8  9  1  0  0  0
  8 22  1  0  0  0
  9 10  1  0  0  0
  9 27  2  0  0  0
 10 11  2  0  0  0
 10 15  1  0  0  0
 11 12  1  0  0  0
 11101  1  0  0  0
 12 13  2  0  0  0
 12102  1  0  0  0
 13 14  1  0  0  0
 13 31  1  0  0  0
 14 15  2  0  0  0
 14103  1  0  0  0
 15104  1  0  0  0
 16 17  2  0  0  0
 16 21  1  0  0  0
 16 31  1  0  0  0
 17 18  1  0  0  0
 17105  1  0  0  0
 18 19  2  0  0  0
 18106  1  0  0  0
 19 20  1  0  0  0
 19 24  1  0  0  0
 20 21  2  0  0  0
 20107  1  0  0  0
 21 23  1  0  0  0
 22 28  1  0  0  0
 22 32  2  0  0  0
 26 27  1  0  0  0
 28108  1  0  0  0
 28109  1  0  0  0
 29110  1  0  0  0
 29111  1  0  0  0
 33 34  1  0  0  0
 33 66  1  0  0  0
 33 70  2  0  0  0
 34 36  1  0  0  0
 34 59  1  0  0  0
 34112  1  0  0  0
 35 44  2  0  0  0
 35 45  1  0  0  0
 35 68  1  0  0  0
 36 56  1  0  0  0
 36113  1  0  0  0
 37 39  1  0  0  0
 37 47  1  0  0  0
 37 66  1  0  0  0
 37114  1  0  0  0
 38 43  2  0  0  0
 38 46  1  0  0  0
 38 47  1  0  0  0
 39 64  1  0  0  0
 39 67  2  0  0  0
 40 52  1  0  0  0
 40 53  2  0  0  0
 40 58  1  0  0  0
 41115  1  0  0  0
 41116  1  0  0  0
 41117  1  0  0  0
 41 48  1  0  0  0
 42 43  1  0  0  0
 42 66  1  0  0  0
 42118  1  0  0  0
 42119  1  0  0  0
 43 44  1  0  0  0
 44120  1  0  0  0
 45 46  2  0  0  0
 45121  1  0  0  0
 46122  1  0  0  0
 47123  1  0  0  0
 47124  1  0  0  0
 48 56  1  0  0  0
 48 65  1  0  0  0
 48125  1  0  0  0
 49 50  1  0  0  0
 49 53  1  0  0  0
 49 64  1  0  0  0
 49126  1  0  0  0
 50 51  1  0  0  0
 50127  1  0  0  0
 50128  1  0  0  0
 51 52  1  0  0  0
 51129  1  0  0  0
 51130  1  0  0  0
 52131  1  0  0  0
 52132  1  0  0  0
 53 54  1  0  0  0
 54 55  2  0  0  0
 54133  1  0  0  0
 55 57  1  0  0  0
 55134  1  0  0  0
 56 69  2  0  0  0
 57 58  2  0  0  0
 57135  1  0  0  0
 58136  1  0  0  0
 59 60  1  0  0  0
 59 61  1  0  0  0
 59 62  1  0  0  0
 60137  1  0  0  0
 60138  1  0  0  0
 60139  1  0  0  0
 61140  1  0  0  0
 61141  1  0  0  0
 61142  1  0  0  0
 62143  1  0  0  0
 62144  1  0  0  0
 62145  1  0  0  0
 63 65  1  0  0  0
 63146  1  0  0  0
 63147  1  0  0  0
 63148  1  0  0  0
 64149  1  0  0  0
 65150  1  0  0  0
 68 88  1  0  0  0
 71 72  2  0  0  0
 71 75  1  0  0  0
 71151  1  0  0  0
 72 73  1  0  0  0
 72 82  1  0  0  0
 73 76  2  0  0  0
 73 83  1  0  0  0
 74 75  2  0  0  0
 74 76  1  0  0  0
 74 84  1  0  0  0
 75 89  1  0  0  0
 76 90  1  0  0  0
 77 79  1  0  0  0
 77 81  1  0  0  0
 77152  1  0  0  0
 77153  1  0  0  0
 78 80  1  0  0  0
 78 81  1  0  0  0
 78154  1  0  0  0
 78155  1  0  0  0
 79 89  1  0  0  0
 79156  1  0  0  0
 79157  1  0  0  0
 80 89  1  0  0  0
 80158  1  0  0  0
 80159  1  0  0  0
 81 91  1  0  0  0
 81160  1  0  0  0
 82161  1  0  0  0
 82162  1  0  0  0
 82163  1  0  0  0
 83164  1  0  0  0
 83165  1  0  0  0
 83166  1  0  0  0
 84167  1  0  0  0
 84168  1  0  0  0
 84169  1  0  0  0
 85 86  1  0  0  0
 85 87  1  0  0  0
 85170  1  0  0  0
 85171  1  0  0  0
 86 88  1  0  0  0
 86172  1  0  0  0
 86173  1  0  0  0
 87 91  1  0  0  0
 87174  1  0  0  0
 87175  1  0  0  0
 88176  1  0  0  0
 88177  1  0  0  0
 90178  1  0  0  0
 91179  1  0  0  0
 91180  1  0  0  0
M  CHG  1  91   1
M  ISO  4   1 100  68 101  88 101  90 100
M  END
> <chiral flag>
0

> <version>
0

> <s_m_source_file>
/data/baiqing/PycharmProjects/Reinvent-master-3.2/result/LINK_invent/BTK/process_docking_weight1_custom_sum_contain_oxygen_bond_distance_aromatic_linkinvent_7_9_3/rearranged_h_0017.sdf

> <i_m_source_file_index>
53

> <r_mmod_Potential_Energy-OPLS-2005>
-22.5318698883057

> <r_mmod_Stretch_Energy-OPLS-2005>
49.2169609069824

> <r_mmod_Bend_Energy-OPLS-2005>
126.218132019043

> <r_mmod_Torsional_Energy-OPLS-2005>
382.850738525391

> <r_mmod_Improper_Torsional_Energy-OPLS-2005>
14.6218385696411

> <r_mmod_Van_der_Waal_Energy-OPLS-2005>
182.212890625

> <r_mmod_Electrostatic_Energy-OPLS-2005>
-332.921264648438

> <r_mmod_Solvation_Energy-OPLS-2005>
-462.208709716797

> <b_mmod_Minimization_Converged-OPLS-2005>
0

> <r_mmod_RMS_Derivative-OPLS-2005>
17.3877201080322

$$$$
54
                    3D
 Structure written by MMmdl.
181189  0  0  1  0            999 V2000
  -30.6930  -14.3682   20.6978 C   0  0  0  0  0  0
  -30.4246  -12.2815   19.4125 C   0  0  0  0  0  0
  -29.5037  -12.5227   18.2014 C   0  0  0  0  0  0
  -28.0265  -12.3500   18.6080 C   0  0  0  0  0  0
  -27.6637  -13.1813   19.8642 C   0  0  2  0  0  0
  -28.6793  -12.9126   20.9891 C   0  0  0  0  0  0
  -25.2635  -13.8122   20.5595 C   0  0  0  0  0  0
  -24.1859  -13.0429   20.9126 C   0  0  0  0  0  0
  -24.6352  -11.6886   20.8686 C   0  0  0  0  0  0
  -23.8993  -10.4300   21.0380 C   0  0  0  0  0  0
  -24.3558   -9.4231   21.9175 C   0  0  0  0  0  0
  -23.6264   -8.2249   22.0742 C   0  0  0  0  0  0
  -22.4251   -8.0252   21.3524 C   0  0  0  0  0  0
  -21.9862   -9.0213   20.4632 C   0  0  0  0  0  0
  -22.7161  -10.2121   20.3045 C   0  0  0  0  0  0
  -21.6848   -6.0726   22.5272 C   0  0  0  0  0  0
  -21.4000   -6.5620   23.8204 C   0  0  0  0  0  0
  -21.3675   -5.6759   24.9164 C   0  0  0  0  0  0
  -21.6056   -4.3027   24.7205 C   0  0  0  0  0  0
  -21.8826   -3.8123   23.4318 C   0  0  0  0  0  0
  -21.9169   -4.6947   22.3383 C   0  0  0  0  0  0
  -22.7891  -13.5249   21.1847 C   0  0  0  0  0  0
  -22.1646   -4.2134   21.0980 F   0  0  0  0  0  0
  -21.5639   -3.4521   25.7721 F   0  0  0  0  0  0
  -30.0367  -13.2035   20.4844 N   0  0  0  0  0  0
  -26.2997  -12.9226   20.3183 N   0  0  0  0  0  0
  -25.9240  -11.6404   20.5580 N   0  0  0  0  0  0
  -22.0500  -12.8258   22.0405 N   0  0  0  0  0  0
  -25.4430  -15.1848   20.4156 N   0  0  0  0  0  0
  -31.6556  -14.7570   20.0303 O   0  0  0  0  0  0
  -21.6615   -6.8850   21.4232 O   0  0  0  0  0  0
  -22.3577  -14.5537   20.6652 O   0  0  0  0  0  0
  -24.6107  -31.8725   23.2119 C   0  0  0  0  0  0
  -25.9010  -32.4851   23.8364 C   0  0  1  0  0  0
  -27.2224  -27.4499   20.0970 C   0  0  0  0  0  0
  -25.5872  -33.8626   24.2303 N   0  0  0  0  0  0
  -23.3963  -30.5000   21.5502 C   0  0  2  0  0  0
  -24.8463  -28.9695   20.1121 C   0  0  0  0  0  0
  -22.7362  -29.4688   22.4956 C   0  0  0  0  0  0
  -18.0278  -28.1348   22.8496 C   0  0  0  0  0  0
  -24.1506  -36.7369   23.2612 C   0  0  0  0  0  0
  -25.9218  -30.8326   21.3709 C   0  0  0  0  0  0
  -25.9992  -29.4616   20.7402 C   0  0  0  0  0  0
  -27.1906  -28.7021   20.7535 C   0  0  0  0  0  0
  -26.0774  -27.0008   19.4166 C   0  0  0  0  0  0
  -24.8812  -27.7371   19.4409 C   0  0  0  0  0  0
  -23.6105  -29.8379   20.1643 C   0  0  0  0  0  0
  -25.4115  -36.3123   24.0321 C   0  0  1  0  0  0
  -20.5849  -28.3671   23.1297 C   0  0  2  0  0  0
  -20.6774  -26.9421   22.5388 C   0  0  0  0  0  0
  -19.5746  -26.6399   21.5177 C   0  0  0  0  0  0
  -18.1937  -26.7911   22.1617 C   0  0  0  0  0  0
  -19.1521  -28.8823   23.2901 C   0  0  0  0  0  0
  -18.9452  -30.1440   23.8912 C   0  0  0  0  0  0
  -17.6451  -30.6558   24.0572 C   0  0  0  0  0  0
  -25.9033  -34.9500   23.5088 C   0  0  0  0  0  0
  -16.5338  -29.9073   23.6299 C   0  0  0  0  0  0
  -16.7278  -28.6484   23.0324 C   0  0  0  0  0  0
  -26.4443  -31.6586   25.0663 C   0  0  0  0  0  0
  -25.3701  -31.3711   26.1408 C   0  0  0  0  0  0
  -27.0234  -30.3012   24.6000 C   0  0  0  0  0  0
  -27.6030  -32.4267   25.7433 C   0  0  0  0  0  0
  -27.5597  -37.1835   24.8437 C   0  0  0  0  0  0
  -21.4087  -29.3049   22.3678 N   0  0  0  0  0  0
  -26.4308  -37.3818   23.9393 N   0  0  0  0  0  0
  -24.6599  -31.0830   22.1035 N   0  0  0  0  0  0
  -23.4162  -28.8181   23.2935 O   0  0  0  0  0  0
  -28.3627  -26.6932   20.0081 O   0  0  0  0  0  0
  -26.5585  -34.8952   22.4667 O   0  0  0  0  0  0
  -23.5302  -32.1462   23.7503 O   0  0  0  0  0  0
  -29.4625  -17.3112   21.1388 C   0  0  0  0  0  0
  -29.6455  -16.1957   22.0175 C   0  0  0  0  0  0
  -28.7397  -18.2467   21.8384 C   0  0  0  0  0  0
  -28.9265  -16.4225   23.1657 C   0  0  0  0  0  0
  -29.8184  -17.4850   19.7021 C   0  0  0  0  0  0
  -28.2260  -19.5928   21.4313 C   0  0  0  0  0  0
  -28.5727  -15.4877   24.2919 C   0  0  0  0  0  0
  -31.2567  -17.8786   19.3668 C   0  0  0  0  0  0
  -27.7586  -18.4612   24.1597 C   0  0  0  0  0  0
  -27.5066  -22.2161   18.5650 C   0  0  0  0  0  0
  -28.6438  -21.7921   17.6082 C   0  0  0  0  0  0
  -27.9752  -23.0484   19.8148 C   0  0  0  0  0  0
  -29.2093  -20.3780   17.8486 C   0  0  0  0  0  0
  -26.9650  -23.8901   20.6962 C   0  0  0  0  0  0
  -28.3318  -19.2128   17.3300 C   0  0  0  0  0  0
  -27.5902  -24.9234   21.6669 C   0  0  0  0  0  0
  -28.9859  -17.8245   17.4782 C   0  0  0  0  0  0
  -28.6953  -25.8614   21.1217 C   0  0  0  0  0  0
  -28.8706  -17.3879   18.8537 N   0  0  0  0  0  0
  -28.4669  -17.7370   23.1045 N   0  0  0  0  0  0
  -30.3138  -14.9566   21.8377 N   0  0  0  0  0  0
  -31.4748  -12.3978   19.1398 H   0  0  0  0  0  0
  -30.3170  -11.2544   19.7635 H   0  0  0  0  0  0
  -29.7638  -11.8372   17.3951 H   0  0  0  0  0  0
  -29.6656  -13.5277   17.8140 H   0  0  0  0  0  0
  -27.8734  -11.2918   18.8169 H   0  0  0  0  0  0
  -27.3650  -12.5858   17.7745 H   0  0  0  0  0  0
  -27.7280  -14.2339   19.5900 H   0  0  0  0  0  0
  -28.6308  -11.8728   21.3089 H   0  0  0  0  0  0
  -28.3795  -13.4841   21.8646 H   0  0  0  0  0  0
  -25.2714   -9.5713   22.4741 H   0  0  0  0  0  0
  -23.9962   -7.4649   22.7480 H   0  0  0  0  0  0
  -21.0769   -8.8717   19.8961 H   0  0  0  0  0  0
  -22.3584  -10.9641   19.6142 H   0  0  0  0  0  0
  -21.1996   -7.6128   23.9690 H   0  0  0  0  0  0
  -21.1507   -6.0510   25.9069 H   0  0  0  0  0  0
  -22.0591   -2.7584   23.2823 H   0  0  0  0  0  0
  -22.3977  -11.9910   22.4888 H   0  0  0  0  0  0
  -21.1113  -13.1352   22.2508 H   0  0  0  0  0  0
  -24.6940  -15.8491   20.5748 H   0  0  0  0  0  0
  -26.3161  -15.6283   20.1574 H   0  0  0  0  0  0
  -26.7068  -32.5606   23.1119 H   0  0  0  0  0  0
  -25.0031  -33.9811   25.0440 H   0  0  0  0  0  0
  -22.6781  -31.3120   21.4156 H   0  0  0  0  0  0
  -23.3749  -35.9723   23.3263 H   0  0  0  0  0  0
  -24.3583  -36.8998   22.2021 H   0  0  0  0  0  0
  -23.7293  -37.6590   23.6640 H   0  0  0  0  0  0
  -26.0164  -31.5776   20.5775 H   0  0  0  0  0  0
  -26.8168  -30.9063   21.9771 H   0  0  0  0  0  0
  -28.0768  -29.0786   21.2446 H   0  0  0  0  0  0
  -26.1228  -26.0898   18.8357 H   0  0  0  0  0  0
  -24.0128  -27.3799   18.9006 H   0  0  0  0  0  0
  -23.7152  -30.6126   19.4040 H   0  0  0  0  0  0
  -22.7355  -29.2540   19.8753 H   0  0  0  0  0  0
  -25.1293  -36.1965   25.0816 H   0  0  0  0  0  0
  -20.9982  -28.3284   24.1391 H   0  0  0  0  0  0
  -20.5637  -26.2307   23.3580 H   0  0  0  0  0  0
  -21.6659  -26.7444   22.1180 H   0  0  0  0  0  0
  -19.6906  -25.6310   21.1207 H   0  0  0  0  0  0
  -19.6661  -27.3212   20.6703 H   0  0  0  0  0  0
  -17.4189  -26.6647   21.4038 H   0  0  0  0  0  0
  -18.0372  -26.0019   22.8987 H   0  0  0  0  0  0
  -19.7933  -30.7259   24.2270 H   0  0  0  0  0  0
  -17.5008  -31.6245   24.5194 H   0  0  0  0  0  0
  -15.5343  -30.2975   23.7618 H   0  0  0  0  0  0
  -15.8682  -28.0831   22.6985 H   0  0  0  0  0  0
  -24.5864  -30.7074   25.7743 H   0  0  0  0  0  0
  -24.8918  -32.2887   26.4820 H   0  0  0  0  0  0
  -25.8036  -30.8881   27.0166 H   0  0  0  0  0  0
  -26.2757  -29.6778   24.1081 H   0  0  0  0  0  0
  -27.4031  -29.7218   25.4417 H   0  0  0  0  0  0
  -27.8582  -30.4301   23.9114 H   0  0  0  0  0  0
  -27.2661  -33.3544   26.2057 H   0  0  0  0  0  0
  -28.3832  -32.6829   25.0264 H   0  0  0  0  0  0
  -28.0689  -31.8332   26.5297 H   0  0  0  0  0  0
  -28.2592  -38.0153   24.7502 H   0  0  0  0  0  0
  -28.1125  -36.2682   24.6243 H   0  0  0  0  0  0
  -27.2315  -37.1462   25.8840 H   0  0  0  0  0  0
  -20.9192  -29.8861   21.7002 H   0  0  0  0  0  0
  -26.0187  -38.2911   24.1364 H   0  0  0  0  0  0
  -28.9329  -20.3751   21.7052 H   0  0  0  0  0  0
  -27.2646  -19.8200   21.8918 H   0  0  0  0  0  0
  -28.0544  -19.6388   20.3597 H   0  0  0  0  0  0
  -28.3080  -14.5095   23.8890 H   0  0  0  0  0  0
  -27.6917  -15.8158   24.8426 H   0  0  0  0  0  0
  -29.3849  -15.3448   25.0049 H   0  0  0  0  0  0
  -31.8543  -17.9078   20.2752 H   0  0  0  0  0  0
  -31.3155  -18.8669   18.9068 H   0  0  0  0  0  0
  -31.7205  -17.1571   18.6885 H   0  0  0  0  0  0
  -26.6809  -18.3731   24.0210 H   0  0  0  0  0  0
  -28.0175  -19.5214   24.1353 H   0  0  0  0  0  0
  -28.0288  -18.0901   25.1482 H   0  0  0  0  0  0
  -26.9369  -21.3192   18.8220 H   0  0  0  0  0  0
  -26.7875  -22.7901   17.9726 H   0  0  0  0  0  0
  -29.4568  -22.5179   17.6671 H   0  0  0  0  0  0
  -28.2837  -21.8383   16.5787 H   0  0  0  0  0  0
  -27.5206  -22.2459   20.3876 H   0  0  0  0  0  0
  -27.8502  -23.9219   19.1687 H   0  0  0  0  0  0
  -29.4406  -20.2669   18.9047 H   0  0  0  0  0  0
  -30.1671  -20.3039   17.3349 H   0  0  0  0  0  0
  -26.3026  -23.2885   21.3341 H   0  0  0  0  0  0
  -26.2243  -24.3990   20.0810 H   0  0  0  0  0  0
  -28.1352  -19.3659   16.2686 H   0  0  0  0  0  0
  -27.3579  -19.2026   17.8231 H   0  0  0  0  0  0
  -28.0170  -24.3795   22.5104 H   0  0  0  0  0  0
  -26.7912  -25.5276   22.1019 H   0  0  0  0  0  0
  -30.0073  -17.8378   17.0928 H   0  0  0  0  0  0
  -28.4333  -17.1132   16.8602 H   0  0  0  0  0  0
  -29.5404  -25.2447   20.8157 H   0  0  0  0  0  0
  -29.0799  -26.4813   21.9341 H   0  0  0  0  0  0
  -29.9902  -14.2598   22.4891 H   0  0  0  0  0  0
  1 25  1  0  0  0
  1 30  2  0  0  0
  1 91  1  0  0  0
  2  3  1  0  0  0
  2 25  1  0  0  0
  2 92  1  0  0  0
  2 93  1  0  0  0
  3  4  1  0  0  0
  3 94  1  0  0  0
  3 95  1  0  0  0
  4  5  1  0  0  0
  4 96  1  0  0  0
  4 97  1  0  0  0
  5  6  1  0  0  0
  5 26  1  0  0  0
  5 98  1  0  0  0
  6 25  1  0  0  0
  6 99  1  0  0  0
  6100  1  0  0  0
  7  8  2  0  0  0
  7 26  1  0  0  0
  7 29  1  0  0  0
  8  9  1  0  0  0
  8 22  1  0  0  0
  9 10  1  0  0  0
  9 27  2  0  0  0
 10 11  2  0  0  0
 10 15  1  0  0  0
 11 12  1  0  0  0
 11101  1  0  0  0
 12 13  2  0  0  0
 12102  1  0  0  0
 13 14  1  0  0  0
 13 31  1  0  0  0
 14 15  2  0  0  0
 14103  1  0  0  0
 15104  1  0  0  0
 16 17  2  0  0  0
 16 21  1  0  0  0
 16 31  1  0  0  0
 17 18  1  0  0  0
 17105  1  0  0  0
 18 19  2  0  0  0
 18106  1  0  0  0
 19 20  1  0  0  0
 19 24  1  0  0  0
 20 21  2  0  0  0
 20107  1  0  0  0
 21 23  1  0  0  0
 22 28  1  0  0  0
 22 32  2  0  0  0
 26 27  1  0  0  0
 28108  1  0  0  0
 28109  1  0  0  0
 29110  1  0  0  0
 29111  1  0  0  0
 33 34  1  0  0  0
 33 66  1  0  0  0
 33 70  2  0  0  0
 34 36  1  0  0  0
 34 59  1  0  0  0
 34112  1  0  0  0
 35 44  2  0  0  0
 35 45  1  0  0  0
 35 68  1  0  0  0
 36 56  1  0  0  0
 36113  1  0  0  0
 37 39  1  0  0  0
 37 47  1  0  0  0
 37 66  1  0  0  0
 37114  1  0  0  0
 38 43  2  0  0  0
 38 46  1  0  0  0
 38 47  1  0  0  0
 39 64  1  0  0  0
 39 67  2  0  0  0
 40 52  1  0  0  0
 40 53  2  0  0  0
 40 58  1  0  0  0
 41115  1  0  0  0
 41116  1  0  0  0
 41117  1  0  0  0
 41 48  1  0  0  0
 42 43  1  0  0  0
 42 66  1  0  0  0
 42118  1  0  0  0
 42119  1  0  0  0
 43 44  1  0  0  0
 44120  1  0  0  0
 45 46  2  0  0  0
 45121  1  0  0  0
 46122  1  0  0  0
 47123  1  0  0  0
 47124  1  0  0  0
 48 56  1  0  0  0
 48 65  1  0  0  0
 48125  1  0  0  0
 49 50  1  0  0  0
 49 53  1  0  0  0
 49 64  1  0  0  0
 49126  1  0  0  0
 50 51  1  0  0  0
 50127  1  0  0  0
 50128  1  0  0  0
 51 52  1  0  0  0
 51129  1  0  0  0
 51130  1  0  0  0
 52131  1  0  0  0
 52132  1  0  0  0
 53 54  1  0  0  0
 54 55  2  0  0  0
 54133  1  0  0  0
 55 57  1  0  0  0
 55134  1  0  0  0
 56 69  2  0  0  0
 57 58  2  0  0  0
 57135  1  0  0  0
 58136  1  0  0  0
 59 60  1  0  0  0
 59 61  1  0  0  0
 59 62  1  0  0  0
 60137  1  0  0  0
 60138  1  0  0  0
 60139  1  0  0  0
 61140  1  0  0  0
 61141  1  0  0  0
 61142  1  0  0  0
 62143  1  0  0  0
 62144  1  0  0  0
 62145  1  0  0  0
 63 65  1  0  0  0
 63146  1  0  0  0
 63147  1  0  0  0
 63148  1  0  0  0
 64149  1  0  0  0
 65150  1  0  0  0
 68 88  1  0  0  0
 71 72  1  0  0  0
 71 73  2  0  0  0
 71 75  1  0  0  0
 72 74  2  0  0  0
 72 91  1  0  0  0
 73 76  1  0  0  0
 73 90  1  0  0  0
 74 77  1  0  0  0
 74 90  1  0  0  0
 75 78  1  0  0  0
 75 89  2  0  0  0
 76151  1  0  0  0
 76152  1  0  0  0
 76153  1  0  0  0
 77154  1  0  0  0
 77155  1  0  0  0
 77156  1  0  0  0
 78157  1  0  0  0
 78158  1  0  0  0
 78159  1  0  0  0
 79 90  1  0  0  0
 79160  1  0  0  0
 79161  1  0  0  0
 79162  1  0  0  0
 80 81  1  0  0  0
 80 82  1  0  0  0
 80163  1  0  0  0
 80164  1  0  0  0
 81 83  1  0  0  0
 81165  1  0  0  0
 81166  1  0  0  0
 82 84  1  0  0  0
 82167  1  0  0  0
 82168  1  0  0  0
 83 85  1  0  0  0
 83169  1  0  0  0
 83170  1  0  0  0
 84 86  1  0  0  0
 84171  1  0  0  0
 84172  1  0  0  0
 85 87  1  0  0  0
 85173  1  0  0  0
 85174  1  0  0  0
 86 88  1  0  0  0
 86175  1  0  0  0
 86176  1  0  0  0
 87 89  1  0  0  0
 87177  1  0  0  0
 87178  1  0  0  0
 88179  1  0  0  0
 88180  1  0  0  0
 91181  1  0  0  0
M  ISO  4   1 100  68 101  88 101  91 100
M  END
> <chiral flag>
0

> <version>
0

> <s_m_source_file>
/data/baiqing/PycharmProjects/Reinvent-master-3.2/result/LINK_invent/BTK/process_docking_weight1_custom_sum_contain_oxygen_bond_distance_aromatic_linkinvent_7_9_3/rearranged_h_0017.sdf

> <i_m_source_file_index>
54

> <r_mmod_Potential_Energy-OPLS-2005>
325.072418212891

> <r_mmod_Stretch_Energy-OPLS-2005>
39.1818428039551

> <r_mmod_Bend_Energy-OPLS-2005>
384.595123291016

> <r_mmod_Torsional_Energy-OPLS-2005>
318.52099609375

> <r_mmod_Improper_Torsional_Energy-OPLS-2005>
9.47279644012451

> <r_mmod_Van_der_Waal_Energy-OPLS-2005>
133.057891845703

> <r_mmod_Electrostatic_Energy-OPLS-2005>
-373.447723388672

> <r_mmod_Solvation_Energy-OPLS-2005>
-199.323089599609

> <b_mmod_Minimization_Converged-OPLS-2005>
0

> <r_mmod_RMS_Derivative-OPLS-2005>
7.31949710845947

$$$$
55
                    3D
 Structure written by MMmdl.
160168  0  0  1  0            999 V2000
  -30.0740  -16.2571   20.2684 C   0  0  0  0  0  0
  -30.3666  -13.5522   19.5467 C   0  0  0  0  0  0
  -29.5726  -12.8407   18.3918 C   0  0  0  0  0  0
  -28.2019  -12.3450   18.8614 C   0  0  0  0  0  0
  -27.5814  -13.3821   19.8149 C   0  0  2  0  0  0
  -28.5471  -13.9695   20.8930 C   0  0  0  0  0  0
  -25.2226  -13.8400   20.5874 C   0  0  0  0  0  0
  -24.1686  -13.0452   20.9321 C   0  0  0  0  0  0
  -24.6487  -11.6997   20.8751 C   0  0  0  0  0  0
  -23.9195  -10.4311   21.0362 C   0  0  0  0  0  0
  -24.3705   -9.4217   21.9153 C   0  0  0  0  0  0
  -23.6343   -8.2266   22.0753 C   0  0  0  0  0  0
  -22.4321   -8.0306   21.3546 C   0  0  0  0  0  0
  -21.9980   -9.0285   20.4638 C   0  0  0  0  0  0
  -22.7350  -10.2140   20.3024 C   0  0  0  0  0  0
  -21.6870   -6.0745   22.5270 C   0  0  0  0  0  0
  -21.4032   -6.5646   23.8202 C   0  0  0  0  0  0
  -21.3665   -5.6798   24.9163 C   0  0  0  0  0  0
  -21.6047   -4.3059   24.7215 C   0  0  0  0  0  0
  -21.8818   -3.8149   23.4335 C   0  0  0  0  0  0
  -21.9196   -4.6970   22.3391 C   0  0  0  0  0  0
  -22.7669  -13.5120   21.1915 C   0  0  0  0  0  0
  -22.1654   -4.2154   21.0966 F   0  0  0  0  0  0
  -21.5626   -3.4536   25.7721 F   0  0  0  0  0  0
  -29.6204  -14.7821   20.2053 N   0  0  0  0  0  0
  -26.2780  -12.9882   20.3353 N   0  0  0  0  0  0
  -25.9470  -11.6874   20.5676 N   0  0  0  0  0  0
  -22.0345  -12.8094   22.0472 N   0  0  0  0  0  0
  -25.3708  -15.2154   20.4309 N   0  0  0  0  0  0
  -31.3187  -16.0803   20.1521 O   0  0  0  0  0  0
  -21.6669   -6.8907   21.4241 O   0  0  0  0  0  0
  -22.3320  -14.5399   20.6729 O   0  0  0  0  0  0
  -24.7247  -31.7482   23.1142 C   0  0  0  0  0  0
  -25.9620  -32.4209   23.7854 C   0  0  1  0  0  0
  -27.2439  -26.2597   20.2519 C   0  0  0  0  0  0
  -25.6023  -33.8057   24.1718 N   0  0  0  0  0  0
  -23.5707  -30.3309   21.4762 C   0  0  2  0  0  0
  -25.0310  -28.5759   20.1336 C   0  0  0  0  0  0
  -22.7951  -29.4042   22.4557 C   0  0  0  0  0  0
  -18.0379  -28.1428   22.8457 C   0  0  0  0  0  0
  -24.1491  -36.7044   23.2662 C   0  0  0  0  0  0
  -26.1661  -30.3341   21.4445 C   0  0  0  0  0  0
  -26.2255  -28.8473   20.8083 C   0  0  0  0  0  0
  -27.2954  -27.7346   20.8187 C   0  0  0  0  0  0
  -26.0140  -26.3172   19.5081 C   0  0  0  0  0  0
  -24.9911  -27.3408   19.4567 C   0  0  0  0  0  0
  -23.8505  -29.5858   20.1322 C   0  0  0  0  0  0
  -25.4151  -36.2755   24.0270 C   0  0  1  0  0  0
  -20.6033  -28.3819   23.1056 C   0  0  2  0  0  0
  -20.6824  -26.9437   22.5407 C   0  0  0  0  0  0
  -19.5799  -26.6353   21.5223 C   0  0  0  0  0  0
  -18.1983  -26.7956   22.1616 C   0  0  0  0  0  0
  -19.1651  -28.8949   23.2741 C   0  0  0  0  0  0
  -18.9549  -30.1519   23.8811 C   0  0  0  0  0  0
  -17.6532  -30.6608   24.0531 C   0  0  0  0  0  0
  -25.9153  -34.9151   23.4861 C   0  0  0  0  0  0
  -16.5420  -29.9086   23.6349 C   0  0  0  0  0  0
  -16.7352  -28.6498   23.0395 C   0  0  0  0  0  0
  -26.4684  -31.6420   25.0647 C   0  0  0  0  0  0
  -25.3642  -31.3846   26.1184 C   0  0  0  0  0  0
  -27.0670  -30.2701   24.6852 C   0  0  0  0  0  0
  -27.6058  -32.4375   25.7477 C   0  0  0  0  0  0
  -27.5558  -37.1678   24.8473 C   0  0  0  0  0  0
  -21.4554  -29.2999   22.3322 N   0  0  0  0  0  0
  -26.4250  -37.3561   23.9424 N   0  0  0  0  0  0
  -24.8491  -30.8493   22.0630 N   0  0  0  0  0  0
  -23.4205  -28.7704   23.3079 O   0  0  0  0  0  0
  -28.1829  -24.8613   20.2626 O   0  0  0  0  0  0
  -26.5840  -34.8821   22.4512 O   0  0  0  0  0  0
  -23.6175  -32.0740   23.5840 O   0  0  0  0  0  0
  -30.7974  -19.5625   19.5614 C   0  0  0  0  0  0
  -30.2180  -21.7683   19.4920 C   0  0  0  0  0  0
  -31.1721  -20.8617   19.1186 C   0  0  0  0  0  0
  -29.5423  -19.4908   20.1056 C   0  0  0  0  0  0
  -33.3802  -20.0146   18.1914 C   0  0  0  0  0  0
  -33.1700  -22.3925   18.9529 C   0  0  0  0  0  0
  -31.9679  -21.6215   16.8880 C   0  0  0  0  0  0
  -27.3213  -22.7126   21.6784 C   0  0  0  0  0  0
  -26.9196  -22.7038   19.2274 C   0  0  0  0  0  0
  -32.4149  -21.2140   18.3058 C   0  0  0  0  0  0
  -27.9784  -22.9217   20.3116 C   0  0  0  0  0  0
  -29.0788  -21.2637   20.1008 N   0  0  0  0  0  0
  -29.3443  -17.8036   20.3198 N   0  0  0  0  0  0
  -31.3058  -13.8983   19.1128 H   0  0  0  0  0  0
  -30.6802  -12.8246   20.2979 H   0  0  0  0  0  0
  -30.1528  -12.0155   17.9788 H   0  0  0  0  0  0
  -29.4340  -13.5550   17.5793 H   0  0  0  0  0  0
  -28.3359  -11.3989   19.3891 H   0  0  0  0  0  0
  -27.5475  -12.1428   18.0128 H   0  0  0  0  0  0
  -27.3650  -14.2204   19.1502 H   0  0  0  0  0  0
  -28.9373  -13.1936   21.5533 H   0  0  0  0  0  0
  -27.9988  -14.6529   21.5436 H   0  0  0  0  0  0
  -25.2832   -9.5677   22.4755 H   0  0  0  0  0  0
  -24.0023   -7.4666   22.7497 H   0  0  0  0  0  0
  -21.0894   -8.8824   19.8957 H   0  0  0  0  0  0
  -22.3805  -10.9680   19.6137 H   0  0  0  0  0  0
  -21.2038   -7.6154   23.9709 H   0  0  0  0  0  0
  -21.1486   -6.0521   25.9066 H   0  0  0  0  0  0
  -22.0595   -2.7611   23.2824 H   0  0  0  0  0  0
  -22.4000  -11.9801   22.4907 H   0  0  0  0  0  0
  -21.0928  -13.1049   22.2648 H   0  0  0  0  0  0
  -24.5931  -15.8566   20.5414 H   0  0  0  0  0  0
  -26.2097  -15.6637   20.0875 H   0  0  0  0  0  0
  -26.7744  -32.4598   23.0593 H   0  0  0  0  0  0
  -25.0088  -33.8987   24.9828 H   0  0  0  0  0  0
  -22.9223  -31.1788   21.2457 H   0  0  0  0  0  0
  -23.3790  -35.9329   23.3222 H   0  0  0  0  0  0
  -24.3563  -36.8819   22.2097 H   0  0  0  0  0  0
  -23.7207  -37.6171   23.6815 H   0  0  0  0  0  0
  -26.4096  -31.0230   20.6346 H   0  0  0  0  0  0
  -27.0041  -30.4226   22.1219 H   0  0  0  0  0  0
  -28.1932  -27.9749   21.3702 H   0  0  0  0  0  0
  -25.7840  -25.4332   18.9335 H   0  0  0  0  0  0
  -24.1098  -27.1184   18.8713 H   0  0  0  0  0  0
  -24.0663  -30.3229   19.3578 H   0  0  0  0  0  0
  -22.9476  -29.0751   19.7948 H   0  0  0  0  0  0
  -25.1379  -36.1465   25.0759 H   0  0  0  0  0  0
  -21.0124  -28.3470   24.1174 H   0  0  0  0  0  0
  -20.5632  -26.2459   23.3709 H   0  0  0  0  0  0
  -21.6684  -26.7298   22.1250 H   0  0  0  0  0  0
  -19.6944  -25.6236   21.1324 H   0  0  0  0  0  0
  -19.6748  -27.3099   20.6702 H   0  0  0  0  0  0
  -17.4262  -26.6723   21.4008 H   0  0  0  0  0  0
  -18.0351  -26.0103   22.9011 H   0  0  0  0  0  0
  -19.8017  -30.7355   24.2163 H   0  0  0  0  0  0
  -17.5074  -31.6278   24.5144 H   0  0  0  0  0  0
  -15.5413  -30.2958   23.7701 H   0  0  0  0  0  0
  -15.8762  -28.0752   22.7199 H   0  0  0  0  0  0
  -24.5901  -30.7126   25.7466 H   0  0  0  0  0  0
  -24.8755  -32.3086   26.4273 H   0  0  0  0  0  0
  -25.7722  -30.9233   27.0184 H   0  0  0  0  0  0
  -26.3458  -29.6184   24.1900 H   0  0  0  0  0  0
  -27.3981  -29.7329   25.5755 H   0  0  0  0  0  0
  -27.9494  -30.3737   24.0528 H   0  0  0  0  0  0
  -27.2574  -33.3819   26.1683 H   0  0  0  0  0  0
  -28.4042  -32.6697   25.0411 H   0  0  0  0  0  0
  -28.0529  -31.8749   26.5686 H   0  0  0  0  0  0
  -28.2516  -38.0027   24.7532 H   0  0  0  0  0  0
  -28.1116  -36.2546   24.6282 H   0  0  0  0  0  0
  -27.2282  -37.1291   25.8878 H   0  0  0  0  0  0
  -20.9936  -29.8610   21.6293 H   0  0  0  0  0  0
  -26.0048  -38.2598   24.1428 H   0  0  0  0  0  0
  -31.4134  -18.6900   19.3984 H   0  0  0  0  0  0
  -30.2413  -22.8328   19.3029 H   0  0  0  0  0  0
  -33.7626  -19.7099   19.1664 H   0  0  0  0  0  0
  -34.2401  -20.2564   17.5655 H   0  0  0  0  0  0
  -32.8988  -19.1458   17.7413 H   0  0  0  0  0  0
  -33.5018  -22.1472   19.9619 H   0  0  0  0  0  0
  -32.5523  -23.2888   19.0192 H   0  0  0  0  0  0
  -34.0571  -22.6599   18.3766 H   0  0  0  0  0  0
  -31.4270  -20.8131   16.3930 H   0  0  0  0  0  0
  -32.8187  -21.8773   16.2562 H   0  0  0  0  0  0
  -31.3061  -22.4886   16.9081 H   0  0  0  0  0  0
  -26.4976  -23.4132   21.8197 H   0  0  0  0  0  0
  -28.0600  -22.8708   22.4644 H   0  0  0  0  0  0
  -26.9377  -21.6943   21.7521 H   0  0  0  0  0  0
  -26.6213  -21.6556   19.1961 H   0  0  0  0  0  0
  -27.3274  -22.9804   18.2557 H   0  0  0  0  0  0
  -26.0347  -23.3034   19.4293 H   0  0  0  0  0  0
  -28.3674  -17.6186   20.5037 H   0  0  0  0  0  0
  1 25  1  0  0  0
  1 30  2  0  0  0
  1 83  1  0  0  0
  2  3  1  0  0  0
  2 25  1  0  0  0
  2 84  1  0  0  0
  2 85  1  0  0  0
  3  4  1  0  0  0
  3 86  1  0  0  0
  3 87  1  0  0  0
  4  5  1  0  0  0
  4 88  1  0  0  0
  4 89  1  0  0  0
  5  6  1  0  0  0
  5 26  1  0  0  0
  5 90  1  0  0  0
  6 25  1  0  0  0
  6 91  1  0  0  0
  6 92  1  0  0  0
  7  8  2  0  0  0
  7 26  1  0  0  0
  7 29  1  0  0  0
  8  9  1  0  0  0
  8 22  1  0  0  0
  9 10  1  0  0  0
  9 27  2  0  0  0
 10 11  2  0  0  0
 10 15  1  0  0  0
 11 12  1  0  0  0
 11 93  1  0  0  0
 12 13  2  0  0  0
 12 94  1  0  0  0
 13 14  1  0  0  0
 13 31  1  0  0  0
 14 15  2  0  0  0
 14 95  1  0  0  0
 15 96  1  0  0  0
 16 17  2  0  0  0
 16 21  1  0  0  0
 16 31  1  0  0  0
 17 18  1  0  0  0
 17 97  1  0  0  0
 18 19  2  0  0  0
 18 98  1  0  0  0
 19 20  1  0  0  0
 19 24  1  0  0  0
 20 21  2  0  0  0
 20 99  1  0  0  0
 21 23  1  0  0  0
 22 28  1  0  0  0
 22 32  2  0  0  0
 26 27  1  0  0  0
 28100  1  0  0  0
 28101  1  0  0  0
 29102  1  0  0  0
 29103  1  0  0  0
 33 34  1  0  0  0
 33 66  1  0  0  0
 33 70  2  0  0  0
 34 36  1  0  0  0
 34 59  1  0  0  0
 34104  1  0  0  0
 35 44  2  0  0  0
 35 45  1  0  0  0
 35 68  1  0  0  0
 36 56  1  0  0  0
 36105  1  0  0  0
 37 39  1  0  0  0
 37 47  1  0  0  0
 37 66  1  0  0  0
 37106  1  0  0  0
 38 43  2  0  0  0
 38 46  1  0  0  0
 38 47  1  0  0  0
 39 64  1  0  0  0
 39 67  2  0  0  0
 40 52  1  0  0  0
 40 53  2  0  0  0
 40 58  1  0  0  0
 41107  1  0  0  0
 41108  1  0  0  0
 41109  1  0  0  0
 41 48  1  0  0  0
 42 43  1  0  0  0
 42 66  1  0  0  0
 42110  1  0  0  0
 42111  1  0  0  0
 43 44  1  0  0  0
 44112  1  0  0  0
 45 46  2  0  0  0
 45113  1  0  0  0
 46114  1  0  0  0
 47115  1  0  0  0
 47116  1  0  0  0
 48 56  1  0  0  0
 48 65  1  0  0  0
 48117  1  0  0  0
 49 50  1  0  0  0
 49 53  1  0  0  0
 49 64  1  0  0  0
 49118  1  0  0  0
 50 51  1  0  0  0
 50119  1  0  0  0
 50120  1  0  0  0
 51 52  1  0  0  0
 51121  1  0  0  0
 51122  1  0  0  0
 52123  1  0  0  0
 52124  1  0  0  0
 53 54  1  0  0  0
 54 55  2  0  0  0
 54125  1  0  0  0
 55 57  1  0  0  0
 55126  1  0  0  0
 56 69  2  0  0  0
 57 58  2  0  0  0
 57127  1  0  0  0
 58128  1  0  0  0
 59 60  1  0  0  0
 59 61  1  0  0  0
 59 62  1  0  0  0
 60129  1  0  0  0
 60130  1  0  0  0
 60131  1  0  0  0
 61132  1  0  0  0
 61133  1  0  0  0
 61134  1  0  0  0
 62135  1  0  0  0
 62136  1  0  0  0
 62137  1  0  0  0
 63 65  1  0  0  0
 63138  1  0  0  0
 63139  1  0  0  0
 63140  1  0  0  0
 64141  1  0  0  0
 65142  1  0  0  0
 68 81  1  0  0  0
 71 73  1  0  0  0
 71 74  2  0  0  0
 71143  1  0  0  0
 72 73  2  0  0  0
 72 82  1  0  0  0
 72144  1  0  0  0
 73 80  1  0  0  0
 74 82  1  0  0  0
 74 83  1  0  0  0
 75145  1  0  0  0
 75146  1  0  0  0
 75147  1  0  0  0
 75 80  1  0  0  0
 76 80  1  0  0  0
 76148  1  0  0  0
 76149  1  0  0  0
 76150  1  0  0  0
 77 80  1  0  0  0
 77151  1  0  0  0
 77152  1  0  0  0
 77153  1  0  0  0
 78154  1  0  0  0
 78155  1  0  0  0
 78156  1  0  0  0
 78 81  1  0  0  0
 79 81  1  0  0  0
 79157  1  0  0  0
 79158  1  0  0  0
 79159  1  0  0  0
 81 82  1  0  0  0
 83160  1  0  0  0
M  ISO  4   1 100  68 101  81 101  83 100
M  END
> <chiral flag>
0

> <version>
0

> <s_m_source_file>
/data/baiqing/PycharmProjects/Reinvent-master-3.2/result/LINK_invent/BTK/process_docking_weight1_custom_sum_contain_oxygen_bond_distance_aromatic_linkinvent_7_9_3/rearranged_h_0017.sdf

> <i_m_source_file_index>
55

> <r_mmod_Potential_Energy-OPLS-2005>
5193.44677734375

> <r_mmod_Stretch_Energy-OPLS-2005>
2278.11572265625

> <r_mmod_Bend_Energy-OPLS-2005>
1092.22021484375

> <r_mmod_Torsional_Energy-OPLS-2005>
251.995590209961

> <r_mmod_Improper_Torsional_Energy-OPLS-2005>
4.35350799560547

> <r_mmod_Van_der_Waal_Energy-OPLS-2005>
115.309860229492

> <r_mmod_Electrostatic_Energy-OPLS-2005>
-411.021209716797

> <r_mmod_Solvation_Energy-OPLS-2005>
-200.997604370117

> <b_mmod_Minimization_Converged-OPLS-2005>
0

> <r_mmod_RMS_Derivative-OPLS-2005>
2.35902667045593

$$$$
56
                    3D
 Structure written by MMmdl.
153161  0  0  1  0            999 V2000
  -30.5046  -15.0019   20.4173 C   0  0  0  0  0  0
  -30.4466  -12.6307   19.4790 C   0  0  0  0  0  0
  -29.5200  -12.5298   18.2453 C   0  0  0  0  0  0
  -28.0560  -12.3046   18.6735 C   0  0  0  0  0  0
  -27.6239  -13.2463   19.8278 C   0  0  2  0  0  0
  -28.6714  -13.2992   20.9569 C   0  0  0  0  0  0
  -25.2454  -13.8200   20.5723 C   0  0  0  0  0  0
  -24.1772  -13.0425   20.9237 C   0  0  0  0  0  0
  -24.6390  -11.6912   20.8759 C   0  0  0  0  0  0
  -23.9073  -10.4285   21.0409 C   0  0  0  0  0  0
  -24.3622   -9.4201   21.9187 C   0  0  0  0  0  0
  -23.6295   -8.2238   22.0756 C   0  0  0  0  0  0
  -22.4278   -8.0277   21.3545 C   0  0  0  0  0  0
  -21.9915   -9.0251   20.4646 C   0  0  0  0  0  0
  -22.7244  -10.2129   20.3057 C   0  0  0  0  0  0
  -21.6854   -6.0734   22.5279 C   0  0  0  0  0  0
  -21.4015   -6.5638   23.8213 C   0  0  0  0  0  0
  -21.3662   -5.6790   24.9175 C   0  0  0  0  0  0
  -21.6046   -4.3053   24.7223 C   0  0  0  0  0  0
  -21.8817   -3.8145   23.4343 C   0  0  0  0  0  0
  -21.9191   -4.6962   22.3400 C   0  0  0  0  0  0
  -22.7793  -13.5202   21.1885 C   0  0  0  0  0  0
  -22.1658   -4.2149   21.0977 F   0  0  0  0  0  0
  -21.5631   -3.4536   25.7735 F   0  0  0  0  0  0
  -29.9281  -13.7339   20.3348 N   0  0  0  0  0  0
  -26.2869  -12.9427   20.3227 N   0  0  0  0  0  0
  -25.9321  -11.6560   20.5733 N   0  0  0  0  0  0
  -22.0440  -12.8198   22.0442 N   0  0  0  0  0  0
  -25.4092  -15.1933   20.4158 N   0  0  0  0  0  0
  -31.7302  -15.0656   20.2668 O   0  0  0  0  0  0
  -21.6639   -6.8877   21.4242 O   0  0  0  0  0  0
  -22.3478  -14.5504   20.6722 O   0  0  0  0  0  0
  -24.6460  -31.8405   23.1830 C   0  0  0  0  0  0
  -25.9215  -32.4676   23.8238 C   0  0  1  0  0  0
  -27.2210  -27.0997   20.1739 C   0  0  0  0  0  0
  -25.5949  -33.8482   24.2155 N   0  0  0  0  0  0
  -23.4516  -30.4553   21.5299 C   0  0  2  0  0  0
  -24.9010  -28.8629   20.1229 C   0  0  0  0  0  0
  -22.7575  -29.4527   22.4858 C   0  0  0  0  0  0
  -18.0305  -28.1397   22.8474 C   0  0  0  0  0  0
  -24.1493  -36.7250   23.2643 C   0  0  0  0  0  0
  -26.0082  -30.7033   21.3847 C   0  0  0  0  0  0
  -26.0798  -29.3061   20.7369 C   0  0  0  0  0  0
  -27.2433  -28.4441   20.7349 C   0  0  0  0  0  0
  -26.0132  -26.7521   19.5375 C   0  0  0  0  0  0
  -24.8809  -27.5996   19.5082 C   0  0  0  0  0  0
  -23.6813  -29.7734   20.1543 C   0  0  0  0  0  0
  -25.4128  -36.3021   24.0311 C   0  0  1  0  0  0
  -20.5918  -28.3726   23.1233 C   0  0  2  0  0  0
  -20.6789  -26.9427   22.5407 C   0  0  0  0  0  0
  -19.5765  -26.6381   21.5212 C   0  0  0  0  0  0
  -18.1946  -26.7935   22.1623 C   0  0  0  0  0  0
  -19.1562  -28.8880   23.2845 C   0  0  0  0  0  0
  -18.9478  -30.1474   23.8873 C   0  0  0  0  0  0
  -17.6475  -30.6593   24.0559 C   0  0  0  0  0  0
  -25.9079  -34.9397   23.5048 C   0  0  0  0  0  0
  -16.5366  -29.9086   23.6334 C   0  0  0  0  0  0
  -16.7290  -28.6505   23.0354 C   0  0  0  0  0  0
  -26.4527  -31.6557   25.0694 C   0  0  0  0  0  0
  -25.3702  -31.3753   26.1381 C   0  0  0  0  0  0
  -27.0395  -30.2949   24.6289 C   0  0  0  0  0  0
  -27.6044  -32.4332   25.7492 C   0  0  0  0  0  0
  -27.5576  -37.1781   24.8465 C   0  0  0  0  0  0
  -21.4266  -29.3047   22.3603 N   0  0  0  0  0  0
  -26.4287  -37.3738   23.9406 N   0  0  0  0  0  0
  -24.7220  -31.0224   22.0878 N   0  0  0  0  0  0
  -23.4200  -28.8091   23.3035 O   0  0  0  0  0  0
  -28.3066  -26.1476   20.1117 O   0  0  0  0  0  0
  -26.5676  -34.8904   22.4633 O   0  0  0  0  0  0
  -23.5573  -32.1294   23.7034 O   0  0  0  0  0  0
  -29.5877  -19.0608   22.8412 C   0  0  0  0  0  0
  -29.3487  -20.2618   22.1294 C   0  0  0  0  0  0
  -29.2725  -20.2808   20.7152 C   0  0  0  0  0  0
  -29.6939  -17.6270   20.8284 C   0  0  0  0  0  0
  -29.7609  -17.7962   22.2340 C   0  0  0  0  0  0
  -29.4352  -18.9151   20.0982 C   0  0  0  0  0  0
  -29.2117  -21.5487   22.9282 C   0  0  0  0  0  0
  -29.2382  -21.7909   19.9915 C   0  0  0  0  0  0
  -28.1554  -23.1127   20.1176 C   0  0  0  0  0  0
  -28.3468  -24.7005   20.7225 C   0  0  0  0  0  0
  -29.6841  -16.1698   20.3024 N   0  0  0  0  0  0
  -29.9779  -16.4447   23.2944 Cl  0  0  0  0  0  0
  -29.3296  -18.8088   18.3780 Cl  0  0  0  0  0  0
  -31.4722  -12.8204   19.1586 H   0  0  0  0  0  0
  -30.4702  -11.6892   20.0300 H   0  0  0  0  0  0
  -29.8483  -11.7229   17.5887 H   0  0  0  0  0  0
  -29.5909  -13.4483   17.6608 H   0  0  0  0  0  0
  -27.9661  -11.2664   18.9953 H   0  0  0  0  0  0
  -27.3877  -12.4168   17.8188 H   0  0  0  0  0  0
  -27.5744  -14.2409   19.3847 H   0  0  0  0  0  0
  -28.7814  -12.3296   21.4448 H   0  0  0  0  0  0
  -28.3665  -14.0068   21.7301 H   0  0  0  0  0  0
  -25.2763   -9.5681   22.4767 H   0  0  0  0  0  0
  -24.0003   -7.4630   22.7477 H   0  0  0  0  0  0
  -21.0847   -8.8768   19.8951 H   0  0  0  0  0  0
  -22.3701  -10.9670   19.6169 H   0  0  0  0  0  0
  -21.2011   -7.6146   23.9717 H   0  0  0  0  0  0
  -21.1490   -6.0520   25.9079 H   0  0  0  0  0  0
  -22.0595   -2.7607   23.2841 H   0  0  0  0  0  0
  -22.4055  -11.9864   22.4840 H   0  0  0  0  0  0
  -21.1057  -13.1226   22.2636 H   0  0  0  0  0  0
  -24.6367  -15.8398   20.5336 H   0  0  0  0  0  0
  -26.2521  -15.6441   20.0880 H   0  0  0  0  0  0
  -26.7280  -32.5275   23.0964 H   0  0  0  0  0  0
  -25.0055  -33.9589   25.0275 H   0  0  0  0  0  0
  -22.7561  -31.2816   21.3681 H   0  0  0  0  0  0
  -23.3760  -35.9575   23.3290 H   0  0  0  0  0  0
  -24.3576  -36.8901   22.2059 H   0  0  0  0  0  0
  -23.7243  -37.6438   23.6695 H   0  0  0  0  0  0
  -26.1633  -31.4512   20.6059 H   0  0  0  0  0  0
  -26.8786  -30.7606   22.0267 H   0  0  0  0  0  0
  -28.1523  -28.7908   21.2058 H   0  0  0  0  0  0
  -25.9406  -25.7850   19.0598 H   0  0  0  0  0  0
  -23.9809  -27.2545   19.0180 H   0  0  0  0  0  0
  -23.8253  -30.5415   19.3938 H   0  0  0  0  0  0
  -22.7948  -29.2179   19.8433 H   0  0  0  0  0  0
  -25.1319  -36.1841   25.0803 H   0  0  0  0  0  0
  -21.0005  -28.3317   24.1356 H   0  0  0  0  0  0
  -20.5681  -26.2340   23.3628 H   0  0  0  0  0  0
  -21.6655  -26.7430   22.1206 H   0  0  0  0  0  0
  -19.6928  -25.6285   21.1260 H   0  0  0  0  0  0
  -19.6704  -27.3176   20.6730 H   0  0  0  0  0  0
  -17.4215  -26.6674   21.4028 H   0  0  0  0  0  0
  -18.0347  -26.0084   22.9027 H   0  0  0  0  0  0
  -19.7955  -30.7295   24.2232 H   0  0  0  0  0  0
  -17.5030  -31.6271   24.5167 H   0  0  0  0  0  0
  -15.5367  -30.2982   23.7673 H   0  0  0  0  0  0
  -15.8689  -28.0818   22.7081 H   0  0  0  0  0  0
  -24.5891  -30.7095   25.7695 H   0  0  0  0  0  0
  -24.8882  -32.2938   26.4740 H   0  0  0  0  0  0
  -25.7976  -30.8968   27.0202 H   0  0  0  0  0  0
  -26.3008  -29.6666   24.1296 H   0  0  0  0  0  0
  -27.4002  -29.7257   25.4868 H   0  0  0  0  0  0
  -27.8922  -30.4181   23.9607 H   0  0  0  0  0  0
  -27.2623  -33.3650   26.2008 H   0  0  0  0  0  0
  -28.3892  -32.6866   25.0352 H   0  0  0  0  0  0
  -28.0669  -31.8498   26.5465 H   0  0  0  0  0  0
  -28.2583  -38.0087   24.7510 H   0  0  0  0  0  0
  -28.1083  -36.2616   24.6296 H   0  0  0  0  0  0
  -27.2293  -37.1430   25.8867 H   0  0  0  0  0  0
  -20.9486  -29.8744   21.6762 H   0  0  0  0  0  0
  -26.0152  -38.2804   24.1409 H   0  0  0  0  0  0
  -29.6394  -19.1001   23.9202 H   0  0  0  0  0  0
  -29.3005  -21.3702   24.0003 H   0  0  0  0  0  0
  -28.2375  -22.0057   22.7563 H   0  0  0  0  0  0
  -29.9863  -22.2646   22.6521 H   0  0  0  0  0  0
  -29.2674  -21.5639   18.9261 H   0  0  0  0  0  0
  -30.2297  -22.2055   20.1738 H   0  0  0  0  0  0
  -27.2701  -22.7095   20.6092 H   0  0  0  0  0  0
  -27.7963  -23.2695   19.1003 H   0  0  0  0  0  0
  -29.3148  -24.6774   21.2231 H   0  0  0  0  0  0
  -27.6466  -24.7638   21.5562 H   0  0  0  0  0  0
  -28.7683  -15.9141   19.9717 H   0  0  0  0  0  0
  1 25  1  0  0  0
  1 30  2  0  0  0
  1 81  1  0  0  0
  2  3  1  0  0  0
  2 25  1  0  0  0
  2 84  1  0  0  0
  2 85  1  0  0  0
  3  4  1  0  0  0
  3 86  1  0  0  0
  3 87  1  0  0  0
  4  5  1  0  0  0
  4 88  1  0  0  0
  4 89  1  0  0  0
  5  6  1  0  0  0
  5 26  1  0  0  0
  5 90  1  0  0  0
  6 25  1  0  0  0
  6 91  1  0  0  0
  6 92  1  0  0  0
  7  8  2  0  0  0
  7 26  1  0  0  0
  7 29  1  0  0  0
  8  9  1  0  0  0
  8 22  1  0  0  0
  9 10  1  0  0  0
  9 27  2  0  0  0
 10 11  2  0  0  0
 10 15  1  0  0  0
 11 12  1  0  0  0
 11 93  1  0  0  0
 12 13  2  0  0  0
 12 94  1  0  0  0
 13 14  1  0  0  0
 13 31  1  0  0  0
 14 15  2  0  0  0
 14 95  1  0  0  0
 15 96  1  0  0  0
 16 17  2  0  0  0
 16 21  1  0  0  0
 16 31  1  0  0  0
 17 18  1  0  0  0
 17 97  1  0  0  0
 18 19  2  0  0  0
 18 98  1  0  0  0
 19 20  1  0  0  0
 19 24  1  0  0  0
 20 21  2  0  0  0
 20 99  1  0  0  0
 21 23  1  0  0  0
 22 28  1  0  0  0
 22 32  2  0  0  0
 26 27  1  0  0  0
 28100  1  0  0  0
 28101  1  0  0  0
 29102  1  0  0  0
 29103  1  0  0  0
 33 34  1  0  0  0
 33 66  1  0  0  0
 33 70  2  0  0  0
 34 36  1  0  0  0
 34 59  1  0  0  0
 34104  1  0  0  0
 35 44  2  0  0  0
 35 45  1  0  0  0
 35 68  1  0  0  0
 36 56  1  0  0  0
 36105  1  0  0  0
 37 39  1  0  0  0
 37 47  1  0  0  0
 37 66  1  0  0  0
 37106  1  0  0  0
 38 43  2  0  0  0
 38 46  1  0  0  0
 38 47  1  0  0  0
 39 64  1  0  0  0
 39 67  2  0  0  0
 40 52  1  0  0  0
 40 53  2  0  0  0
 40 58  1  0  0  0
 41107  1  0  0  0
 41108  1  0  0  0
 41109  1  0  0  0
 41 48  1  0  0  0
 42 43  1  0  0  0
 42 66  1  0  0  0
 42110  1  0  0  0
 42111  1  0  0  0
 43 44  1  0  0  0
 44112  1  0  0  0
 45 46  2  0  0  0
 45113  1  0  0  0
 46114  1  0  0  0
 47115  1  0  0  0
 47116  1  0  0  0
 48 56  1  0  0  0
 48 65  1  0  0  0
 48117  1  0  0  0
 49 50  1  0  0  0
 49 53  1  0  0  0
 49 64  1  0  0  0
 49118  1  0  0  0
 50 51  1  0  0  0
 50119  1  0  0  0
 50120  1  0  0  0
 51 52  1  0  0  0
 51121  1  0  0  0
 51122  1  0  0  0
 52123  1  0  0  0
 52124  1  0  0  0
 53 54  1  0  0  0
 54 55  2  0  0  0
 54125  1  0  0  0
 55 57  1  0  0  0
 55126  1  0  0  0
 56 69  2  0  0  0
 57 58  2  0  0  0
 57127  1  0  0  0
 58128  1  0  0  0
 59 60  1  0  0  0
 59 61  1  0  0  0
 59 62  1  0  0  0
 60129  1  0  0  0
 60130  1  0  0  0
 60131  1  0  0  0
 61132  1  0  0  0
 61133  1  0  0  0
 61134  1  0  0  0
 62135  1  0  0  0
 62136  1  0  0  0
 62137  1  0  0  0
 63 65  1  0  0  0
 63138  1  0  0  0
 63139  1  0  0  0
 63140  1  0  0  0
 64141  1  0  0  0
 65142  1  0  0  0
 68 80  1  0  0  0
 71 72  2  0  0  0
 71 75  1  0  0  0
 71143  1  0  0  0
 72 73  1  0  0  0
 72 77  1  0  0  0
 73 76  2  0  0  0
 73 78  1  0  0  0
 74 75  2  0  0  0
 74 76  1  0  0  0
 74 81  1  0  0  0
 75 82  1  0  0  0
 76 83  1  0  0  0
 77144  1  0  0  0
 77145  1  0  0  0
 77146  1  0  0  0
 78 79  1  0  0  0
 78147  1  0  0  0
 78148  1  0  0  0
 79 80  1  0  0  0
 79149  1  0  0  0
 79150  1  0  0  0
 80151  1  0  0  0
 80152  1  0  0  0
 81153  1  0  0  0
M  ISO  4   1 100  68 101  80 101  81 100
M  END
> <chiral flag>
0

> <version>
0

> <s_m_source_file>
/data/baiqing/PycharmProjects/Reinvent-master-3.2/result/LINK_invent/BTK/process_docking_weight1_custom_sum_contain_oxygen_bond_distance_aromatic_linkinvent_7_9_3/rearranged_h_0017.sdf

> <i_m_source_file_index>
56

> <r_mmod_Potential_Energy-OPLS-2005>
677.061279296875

> <r_mmod_Stretch_Energy-OPLS-2005>
306.689666748047

> <r_mmod_Bend_Energy-OPLS-2005>
328.840301513672

> <r_mmod_Torsional_Energy-OPLS-2005>
293.211669921875

> <r_mmod_Improper_Torsional_Energy-OPLS-2005>
12.6237869262695

> <r_mmod_Van_der_Waal_Energy-OPLS-2005>
122.341102600098

> <r_mmod_Electrostatic_Energy-OPLS-2005>
-406.939331054688

> <r_mmod_Solvation_Energy-OPLS-2005>
-204.785354614258

> <b_mmod_Minimization_Converged-OPLS-2005>
0

> <r_mmod_RMS_Derivative-OPLS-2005>
0.405626147985458

$$$$
57
                    3D
 Structure written by MMmdl.
159167  0  0  1  0            999 V2000
  -30.6099  -14.6656   20.5037 C   0  0  0  0  0  0
  -30.4419  -12.4100   19.4568 C   0  0  0  0  0  0
  -29.5089  -12.5087   18.2278 C   0  0  0  0  0  0
  -28.0315  -12.3429   18.6387 C   0  0  0  0  0  0
  -27.6509  -13.2182   19.8623 C   0  0  2  0  0  0
  -28.6952  -13.0795   20.9925 C   0  0  0  0  0  0
  -25.2517  -13.8158   20.5614 C   0  0  0  0  0  0
  -24.1804  -13.0425   20.9175 C   0  0  0  0  0  0
  -24.6392  -11.6903   20.8752 C   0  0  0  0  0  0
  -23.9064  -10.4288   21.0421 C   0  0  0  0  0  0
  -24.3616   -9.4200   21.9194 C   0  0  0  0  0  0
  -23.6292   -8.2236   22.0755 C   0  0  0  0  0  0
  -22.4274   -8.0280   21.3547 C   0  0  0  0  0  0
  -21.9916   -9.0251   20.4646 C   0  0  0  0  0  0
  -22.7241  -10.2132   20.3063 C   0  0  0  0  0  0
  -21.6847   -6.0738   22.5278 C   0  0  0  0  0  0
  -21.4009   -6.5640   23.8212 C   0  0  0  0  0  0
  -21.3661   -5.6793   24.9173 C   0  0  0  0  0  0
  -21.6040   -4.3057   24.7221 C   0  0  0  0  0  0
  -21.8821   -3.8150   23.4343 C   0  0  0  0  0  0
  -21.9191   -4.6967   22.3401 C   0  0  0  0  0  0
  -22.7827  -13.5219   21.1849 C   0  0  0  0  0  0
  -22.1659   -4.2153   21.0978 F   0  0  0  0  0  0
  -21.5633   -3.4542   25.7734 F   0  0  0  0  0  0
  -30.0088  -13.4338   20.4305 N   0  0  0  0  0  0
  -26.2969  -12.9352   20.3318 N   0  0  0  0  0  0
  -25.9325  -11.6507   20.5782 N   0  0  0  0  0  0
  -22.0480  -12.8214   22.0414 N   0  0  0  0  0  0
  -25.4190  -15.1860   20.3891 N   0  0  0  0  0  0
  -31.7813  -14.8094   20.1507 O   0  0  0  0  0  0
  -21.6636   -6.8879   21.4239 O   0  0  0  0  0  0
  -22.3500  -14.5520   20.6695 O   0  0  0  0  0  0
  -24.6258  -31.8601   23.2018 C   0  0  0  0  0  0
  -25.9098  -32.4783   23.8350 C   0  0  1  0  0  0
  -27.2166  -27.2968   20.1394 C   0  0  0  0  0  0
  -25.5926  -33.8585   24.2280 N   0  0  0  0  0  0
  -23.4202  -30.4834   21.5439 C   0  0  2  0  0  0
  -24.8689  -28.9292   20.1208 C   0  0  0  0  0  0
  -22.7474  -29.4631   22.4926 C   0  0  0  0  0  0
  -18.0292  -28.1396   22.8478 C   0  0  0  0  0  0
  -24.1492  -36.7280   23.2638 C   0  0  0  0  0  0
  -25.9623  -30.7822   21.3789 C   0  0  0  0  0  0
  -26.0361  -29.4016   20.7366 C   0  0  0  0  0  0
  -27.2148  -28.5932   20.7441 C   0  0  0  0  0  0
  -26.0407  -26.8954   19.4776 C   0  0  0  0  0  0
  -24.8728  -27.6792   19.4846 C   0  0  0  0  0  0
  -23.6393  -29.8139   20.1617 C   0  0  0  0  0  0
  -25.4110  -36.3079   24.0337 C   0  0  1  0  0  0
  -20.5895  -28.3692   23.1284 C   0  0  2  0  0  0
  -20.6794  -26.9423   22.5403 C   0  0  0  0  0  0
  -19.5772  -26.6395   21.5207 C   0  0  0  0  0  0
  -18.1945  -26.7942   22.1619 C   0  0  0  0  0  0
  -19.1546  -28.8860   23.2879 C   0  0  0  0  0  0
  -18.9474  -30.1465   23.8890 C   0  0  0  0  0  0
  -17.6474  -30.6593   24.0567 C   0  0  0  0  0  0
  -25.9044  -34.9452   23.5105 C   0  0  0  0  0  0
  -16.5367  -29.9088   23.6342 C   0  0  0  0  0  0
  -16.7281  -28.6516   23.0340 C   0  0  0  0  0  0
  -26.4482  -31.6586   25.0717 C   0  0  0  0  0  0
  -25.3717  -31.3745   26.1447 C   0  0  0  0  0  0
  -27.0324  -30.3017   24.6158 C   0  0  0  0  0  0
  -27.6053  -32.4303   25.7484 C   0  0  0  0  0  0
  -27.5576  -37.1793   24.8470 C   0  0  0  0  0  0
  -21.4185  -29.3050   22.3676 N   0  0  0  0  0  0
  -26.4286  -37.3769   23.9416 N   0  0  0  0  0  0
  -24.6879  -31.0597   22.0988 N   0  0  0  0  0  0
  -23.4195  -28.8176   23.3009 O   0  0  0  0  0  0
  -28.3282  -26.4470   20.0579 O   0  0  0  0  0  0
  -26.5601  -34.8919   22.4664 O   0  0  0  0  0  0
  -23.5417  -32.1416   23.7322 O   0  0  0  0  0  0
  -30.4882  -19.4858   20.1777 C   0  0  0  0  0  0
  -29.4951  -20.1317   20.9654 C   0  0  0  0  0  0
  -28.5933  -19.2505   21.6340 C   0  0  0  0  0  0
  -29.7863  -17.1795   20.8289 C   0  0  0  0  0  0
  -30.6283  -18.0644   20.0823 C   0  0  0  0  0  0
  -28.7614  -17.8233   21.5843 C   0  0  0  0  0  0
  -27.4419  -19.8261   22.4521 C   0  0  0  0  0  0
  -26.5727  -23.6976   20.2579 C   0  0  0  0  0  0
  -29.5396  -21.6980   21.2340 C   0  0  0  0  0  0
  -28.5172  -25.3276   21.0143 C   0  0  0  0  0  0
  -27.9785  -23.8078   20.8664 C   0  0  2  0  0  0
  -29.7810  -15.6996   20.8623 N   0  0  0  0  0  0
  -28.8718  -22.6973   20.3007 N   0  3  0  0  0  0
  -31.8449  -17.4951   18.9981 Cl  0  0  0  0  0  0
  -27.6865  -16.8149   22.5025 Cl  0  0  0  0  0  0
  -31.4812  -12.5460   19.1525 H   0  0  0  0  0  0
  -30.3904  -11.4161   19.9047 H   0  0  0  0  0  0
  -29.7768  -11.7512   17.4899 H   0  0  0  0  0  0
  -29.6470  -13.4744   17.7385 H   0  0  0  0  0  0
  -27.8710  -11.2903   18.8744 H   0  0  0  0  0  0
  -27.3768  -12.5681   17.7960 H   0  0  0  0  0  0
  -27.6668  -14.2522   19.5165 H   0  0  0  0  0  0
  -28.7140  -12.0567   21.3720 H   0  0  0  0  0  0
  -28.4343  -13.7072   21.8462 H   0  0  0  0  0  0
  -25.2761   -9.5670   22.4772 H   0  0  0  0  0  0
  -24.0001   -7.4619   22.7471 H   0  0  0  0  0  0
  -21.0852   -8.8761   19.8947 H   0  0  0  0  0  0
  -22.3698  -10.9669   19.6173 H   0  0  0  0  0  0
  -21.1998   -7.6147   23.9712 H   0  0  0  0  0  0
  -21.1482   -6.0526   25.9075 H   0  0  0  0  0  0
  -22.0603   -2.7612   23.2839 H   0  0  0  0  0  0
  -22.4101  -11.9872   22.4796 H   0  0  0  0  0  0
  -21.1101  -13.1237   22.2642 H   0  0  0  0  0  0
  -24.6556  -15.8426   20.5037 H   0  0  0  0  0  0
  -26.2723  -15.6238   20.0694 H   0  0  0  0  0  0
  -26.7163  -32.5452   23.1086 H   0  0  0  0  0  0
  -25.0130  -33.9738   25.0466 H   0  0  0  0  0  0
  -22.7144  -31.3028   21.3947 H   0  0  0  0  0  0
  -23.3767  -35.9602   23.3297 H   0  0  0  0  0  0
  -24.3598  -36.8893   22.2057 H   0  0  0  0  0  0
  -23.7238  -37.6481   23.6652 H   0  0  0  0  0  0
  -26.0874  -31.5383   20.6029 H   0  0  0  0  0  0
  -26.8455  -30.8420   22.0027 H   0  0  0  0  0  0
  -28.1148  -28.9544   21.2220 H   0  0  0  0  0  0
  -26.0205  -25.9653   18.9333 H   0  0  0  0  0  0
  -23.9852  -27.3177   18.9842 H   0  0  0  0  0  0
  -23.7634  -30.5867   19.4029 H   0  0  0  0  0  0
  -22.7602  -29.2440   19.8564 H   0  0  0  0  0  0
  -25.1290  -36.1932   25.0834 H   0  0  0  0  0  0
  -20.9975  -28.3268   24.1405 H   0  0  0  0  0  0
  -20.5724  -26.2294   23.3595 H   0  0  0  0  0  0
  -21.6659  -26.7482   22.1175 H   0  0  0  0  0  0
  -19.6946  -25.6304   21.1234 H   0  0  0  0  0  0
  -19.6715  -27.3203   20.6742 H   0  0  0  0  0  0
  -17.4219  -26.6687   21.4019 H   0  0  0  0  0  0
  -18.0352  -26.0082   22.9018 H   0  0  0  0  0  0
  -19.7957  -30.7286   24.2237 H   0  0  0  0  0  0
  -17.5040  -31.6269   24.5170 H   0  0  0  0  0  0
  -15.5368  -30.2992   23.7677 H   0  0  0  0  0  0
  -15.8683  -28.0845   22.7036 H   0  0  0  0  0  0
  -24.5886  -30.7094   25.7779 H   0  0  0  0  0  0
  -24.8914  -32.2930   26.4843 H   0  0  0  0  0  0
  -25.8044  -30.8947   27.0238 H   0  0  0  0  0  0
  -26.2905  -29.6766   24.1177 H   0  0  0  0  0  0
  -27.4041  -29.7265   25.4645 H   0  0  0  0  0  0
  -27.8758  -30.4313   23.9373 H   0  0  0  0  0  0
  -27.2695  -33.3631   26.2021 H   0  0  0  0  0  0
  -28.3893  -32.6804   25.0323 H   0  0  0  0  0  0
  -28.0674  -31.8441   26.5431 H   0  0  0  0  0  0
  -28.2578  -38.0104   24.7512 H   0  0  0  0  0  0
  -28.1092  -36.2633   24.6297 H   0  0  0  0  0  0
  -27.2304  -37.1433   25.8876 H   0  0  0  0  0  0
  -20.9361  -29.8756   21.6870 H   0  0  0  0  0  0
  -26.0177  -38.2847   24.1421 H   0  0  0  0  0  0
  -31.1948  -20.0995   19.6386 H   0  0  0  0  0  0
  -27.7046  -19.8632   23.5094 H   0  0  0  0  0  0
  -26.5415  -19.2199   22.3489 H   0  0  0  0  0  0
  -27.1608  -20.8268   22.1281 H   0  0  0  0  0  0
  -25.8806  -24.3978   20.7269 H   0  0  0  0  0  0
  -26.1531  -22.7020   20.4103 H   0  0  0  0  0  0
  -26.5849  -23.8807   19.1840 H   0  0  0  0  0  0
  -30.5935  -21.9781   21.2551 H   0  0  0  0  0  0
  -29.2154  -21.8723   22.2599 H   0  0  0  0  0  0
  -29.5907  -25.2724   21.1952 H   0  0  0  0  0  0
  -28.1154  -25.6983   21.9595 H   0  0  0  0  0  0
  -27.8294  -23.5116   21.9054 H   0  0  0  0  0  0
  -28.9159  -15.3461   21.2411 H   0  0  0  0  0  0
  -28.2961  -22.1466   19.6859 H   0  0  0  0  0  0
  -29.5869  -23.1004   19.7149 H   0  0  0  0  0  0
  1 25  1  0  0  0
  1 30  2  0  0  0
  1 82  1  0  0  0
  2  3  1  0  0  0
  2 25  1  0  0  0
  2 86  1  0  0  0
  2 87  1  0  0  0
  3  4  1  0  0  0
  3 88  1  0  0  0
  3 89  1  0  0  0
  4  5  1  0  0  0
  4 90  1  0  0  0
  4 91  1  0  0  0
  5  6  1  0  0  0
  5 26  1  0  0  0
  5 92  1  0  0  0
  6 25  1  0  0  0
  6 93  1  0  0  0
  6 94  1  0  0  0
  7  8  2  0  0  0
  7 26  1  0  0  0
  7 29  1  0  0  0
  8  9  1  0  0  0
  8 22  1  0  0  0
  9 10  1  0  0  0
  9 27  2  0  0  0
 10 11  2  0  0  0
 10 15  1  0  0  0
 11 12  1  0  0  0
 11 95  1  0  0  0
 12 13  2  0  0  0
 12 96  1  0  0  0
 13 14  1  0  0  0
 13 31  1  0  0  0
 14 15  2  0  0  0
 14 97  1  0  0  0
 15 98  1  0  0  0
 16 17  2  0  0  0
 16 21  1  0  0  0
 16 31  1  0  0  0
 17 18  1  0  0  0
 17 99  1  0  0  0
 18 19  2  0  0  0
 18100  1  0  0  0
 19 20  1  0  0  0
 19 24  1  0  0  0
 20 21  2  0  0  0
 20101  1  0  0  0
 21 23  1  0  0  0
 22 28  1  0  0  0
 22 32  2  0  0  0
 26 27  1  0  0  0
 28102  1  0  0  0
 28103  1  0  0  0
 29104  1  0  0  0
 29105  1  0  0  0
 33 34  1  0  0  0
 33 66  1  0  0  0
 33 70  2  0  0  0
 34 36  1  0  0  0
 34 59  1  0  0  0
 34106  1  0  0  0
 35 44  2  0  0  0
 35 45  1  0  0  0
 35 68  1  0  0  0
 36 56  1  0  0  0
 36107  1  0  0  0
 37 39  1  0  0  0
 37 47  1  0  0  0
 37 66  1  0  0  0
 37108  1  0  0  0
 38 43  2  0  0  0
 38 46  1  0  0  0
 38 47  1  0  0  0
 39 64  1  0  0  0
 39 67  2  0  0  0
 40 52  1  0  0  0
 40 53  2  0  0  0
 40 58  1  0  0  0
 41109  1  0  0  0
 41110  1  0  0  0
 41111  1  0  0  0
 41 48  1  0  0  0
 42 43  1  0  0  0
 42 66  1  0  0  0
 42112  1  0  0  0
 42113  1  0  0  0
 43 44  1  0  0  0
 44114  1  0  0  0
 45 46  2  0  0  0
 45115  1  0  0  0
 46116  1  0  0  0
 47117  1  0  0  0
 47118  1  0  0  0
 48 56  1  0  0  0
 48 65  1  0  0  0
 48119  1  0  0  0
 49 50  1  0  0  0
 49 53  1  0  0  0
 49 64  1  0  0  0
 49120  1  0  0  0
 50 51  1  0  0  0
 50121  1  0  0  0
 50122  1  0  0  0
 51 52  1  0  0  0
 51123  1  0  0  0
 51124  1  0  0  0
 52125  1  0  0  0
 52126  1  0  0  0
 53 54  1  0  0  0
 54 55  2  0  0  0
 54127  1  0  0  0
 55 57  1  0  0  0
 55128  1  0  0  0
 56 69  2  0  0  0
 57 58  2  0  0  0
 57129  1  0  0  0
 58130  1  0  0  0
 59 60  1  0  0  0
 59 61  1  0  0  0
 59 62  1  0  0  0
 60131  1  0  0  0
 60132  1  0  0  0
 60133  1  0  0  0
 61134  1  0  0  0
 61135  1  0  0  0
 61136  1  0  0  0
 62137  1  0  0  0
 62138  1  0  0  0
 62139  1  0  0  0
 63 65  1  0  0  0
 63140  1  0  0  0
 63141  1  0  0  0
 63142  1  0  0  0
 64143  1  0  0  0
 65144  1  0  0  0
 68 80  1  0  0  0
 71 72  2  0  0  0
 71 75  1  0  0  0
 71145  1  0  0  0
 72 73  1  0  0  0
 72 79  1  0  0  0
 73 76  2  0  0  0
 73 77  1  0  0  0
 74 75  2  0  0  0
 74 76  1  0  0  0
 74 82  1  0  0  0
 75 84  1  0  0  0
 76 85  1  0  0  0
 77146  1  0  0  0
 77147  1  0  0  0
 77148  1  0  0  0
 78149  1  0  0  0
 78150  1  0  0  0
 78151  1  0  0  0
 78 81  1  0  0  0
 79 83  1  0  0  0
 79152  1  0  0  0
 79153  1  0  0  0
 80 81  1  0  0  0
 80154  1  0  0  0
 80155  1  0  0  0
 81 83  1  0  0  0
 81156  1  0  0  0
 82157  1  0  0  0
 83158  1  0  0  0
 83159  1  0  0  0
M  CHG  1  83   1
M  ISO  4   1 100  68 101  80 101  82 100
M  END
> <chiral flag>
0

> <version>
0

> <s_m_source_file>
/data/baiqing/PycharmProjects/Reinvent-master-3.2/result/LINK_invent/BTK/process_docking_weight1_custom_sum_contain_oxygen_bond_distance_aromatic_linkinvent_7_9_3/rearranged_h_0017.sdf

> <i_m_source_file_index>
57

> <r_mmod_Potential_Energy-OPLS-2005>
-15.9052238464355

> <r_mmod_Stretch_Energy-OPLS-2005>
95.0826797485352

> <r_mmod_Bend_Energy-OPLS-2005>
205.724624633789

> <r_mmod_Torsional_Energy-OPLS-2005>
263.032531738281

> <r_mmod_Improper_Torsional_Energy-OPLS-2005>
4.34619760513306

> <r_mmod_Van_der_Waal_Energy-OPLS-2005>
140.31201171875

> <r_mmod_Electrostatic_Energy-OPLS-2005>
-306.692626953125

> <r_mmod_Solvation_Energy-OPLS-2005>
-472.328979492188

> <b_mmod_Minimization_Converged-OPLS-2005>
0

> <r_mmod_RMS_Derivative-OPLS-2005>
1.62302613258362

$$$$
58
                    3D
 Structure written by MMmdl.
159167  0  0  1  0            999 V2000
  -30.4335  -15.1866   20.3805 C   0  0  0  0  0  0
  -30.4488  -12.7513   19.5133 C   0  0  0  0  0  0
  -29.5343  -12.5647   18.2764 C   0  0  0  0  0  0
  -28.0775  -12.3034   18.7018 C   0  0  0  0  0  0
  -27.6185  -13.2640   19.8275 C   0  0  2  0  0  0
  -28.6573  -13.3859   20.9618 C   0  0  0  0  0  0
  -25.2418  -13.8226   20.5730 C   0  0  0  0  0  0
  -24.1760  -13.0429   20.9248 C   0  0  0  0  0  0
  -24.6402  -11.6923   20.8758 C   0  0  0  0  0  0
  -23.9091  -10.4288   21.0406 C   0  0  0  0  0  0
  -24.3634   -9.4203   21.9186 C   0  0  0  0  0  0
  -23.6301   -8.2241   22.0755 C   0  0  0  0  0  0
  -22.4283   -8.0282   21.3544 C   0  0  0  0  0  0
  -21.9924   -9.0258   20.4646 C   0  0  0  0  0  0
  -22.7260  -10.2133   20.3056 C   0  0  0  0  0  0
  -21.6856   -6.0737   22.5279 C   0  0  0  0  0  0
  -21.4017   -6.5641   23.8212 C   0  0  0  0  0  0
  -21.3659   -5.6794   24.9174 C   0  0  0  0  0  0
  -21.6043   -4.3056   24.7225 C   0  0  0  0  0  0
  -21.8819   -3.8147   23.4346 C   0  0  0  0  0  0
  -21.9194   -4.6964   22.3402 C   0  0  0  0  0  0
  -22.7778  -13.5191   21.1898 C   0  0  0  0  0  0
  -22.1662   -4.2149   21.0980 F   0  0  0  0  0  0
  -21.5627   -3.4540   25.7738 F   0  0  0  0  0  0
  -29.8996  -13.8759   20.3443 N   0  0  0  0  0  0
  -26.2845  -12.9484   20.3219 N   0  0  0  0  0  0
  -25.9337  -11.6600   20.5722 N   0  0  0  0  0  0
  -22.0434  -12.8176   22.0452 N   0  0  0  0  0  0
  -25.4037  -15.1961   20.4160 N   0  0  0  0  0  0
  -31.6532  -15.2433   20.1689 O   0  0  0  0  0  0
  -21.6643   -6.8881   21.4241 O   0  0  0  0  0  0
  -22.3459  -14.5496   20.6741 O   0  0  0  0  0  0
  -24.6583  -31.8283   23.1741 C   0  0  0  0  0  0
  -25.9284  -32.4612   23.8191 C   0  0  1  0  0  0
  -27.2194  -26.9756   20.1822 C   0  0  0  0  0  0
  -25.5968  -33.8424   24.2099 N   0  0  0  0  0  0
  -23.4705  -30.4411   21.5229 C   0  0  2  0  0  0
  -24.9224  -28.8340   20.1159 C   0  0  0  0  0  0
  -22.7642  -29.4466   22.4805 C   0  0  0  0  0  0
  -18.0318  -28.1404   22.8471 C   0  0  0  0  0  0
  -24.1495  -36.7221   23.2649 C   0  0  0  0  0  0
  -26.0366  -30.6510   21.3959 C   0  0  0  0  0  0
  -26.1057  -29.2447   20.7423 C   0  0  0  0  0  0
  -27.2518  -28.3372   20.7476 C   0  0  0  0  0  0
  -26.0059  -26.7024   19.5133 C   0  0  0  0  0  0
  -24.8947  -27.5817   19.4816 C   0  0  0  0  0  0
  -23.7071  -29.7573   20.1489 C   0  0  0  0  0  0
  -25.4135  -36.2983   24.0303 C   0  0  1  0  0  0
  -20.5940  -28.3745   23.1201 C   0  0  2  0  0  0
  -20.6797  -26.9431   22.5403 C   0  0  0  0  0  0
  -19.5770  -26.6377   21.5214 C   0  0  0  0  0  0
  -18.1953  -26.7939   22.1624 C   0  0  0  0  0  0
  -19.1578  -28.8895   23.2824 C   0  0  0  0  0  0
  -18.9490  -30.1487   23.8857 C   0  0  0  0  0  0
  -17.6483  -30.6595   24.0556 C   0  0  0  0  0  0
  -25.9093  -34.9362   23.5021 C   0  0  0  0  0  0
  -16.5374  -29.9084   23.6340 C   0  0  0  0  0  0
  -16.7301  -28.6504   23.0361 C   0  0  0  0  0  0
  -26.4551  -31.6540   25.0700 C   0  0  0  0  0  0
  -25.3689  -31.3777   26.1364 C   0  0  0  0  0  0
  -27.0443  -30.2915   24.6397 C   0  0  0  0  0  0
  -27.6048  -32.4342   25.7501 C   0  0  0  0  0  0
  -27.5566  -37.1778   24.8473 C   0  0  0  0  0  0
  -21.4317  -29.3044   22.3555 N   0  0  0  0  0  0
  -26.4290  -37.3708   23.9394 N   0  0  0  0  0  0
  -24.7429  -30.9992   22.0851 N   0  0  0  0  0  0
  -23.4211  -28.8035   23.3030 O   0  0  0  0  0  0
  -28.2519  -25.9157   20.2206 O   0  0  0  0  0  0
  -26.5700  -34.8889   22.4614 O   0  0  0  0  0  0
  -23.5664  -32.1231   23.6864 O   0  0  0  0  0  0
  -28.5749  -20.2296   19.3919 C   0  0  0  0  0  0
  -28.7520  -18.7541   19.4232 C   0  0  0  0  0  0
  -29.1293  -21.2274   20.2955 C   0  0  0  0  0  0
  -30.1078  -18.9582   21.2905 C   0  0  0  0  0  0
  -29.5645  -17.9801   20.3573 C   0  0  0  0  0  0
  -29.9033  -20.4359   21.2611 C   0  0  0  0  0  0
  -28.0127  -17.9604   18.3608 C   0  0  0  0  0  0
  -30.9465  -18.4162   22.4349 C   0  0  0  0  0  0
  -29.4775  -23.1172   18.5552 C   0  0  0  0  0  0
  -30.4121  -23.4892   20.8067 C   0  0  0  0  0  0
  -28.0307  -24.2990   20.3234 C   0  0  0  0  0  0
  -29.1716  -22.9674   20.0578 C   0  0  0  0  0  0
  -29.5726  -16.3744   20.4404 N   0  0  0  0  0  0
  -30.5245  -21.1192   22.2517 F   0  0  0  0  0  0
  -31.4678  -12.9611   19.1849 H   0  0  0  0  0  0
  -30.5089  -11.8306   20.0960 H   0  0  0  0  0  0
  -29.8967  -11.7451   17.6546 H   0  0  0  0  0  0
  -29.5767  -13.4615   17.6564 H   0  0  0  0  0  0
  -28.0179  -11.2729   19.0541 H   0  0  0  0  0  0
  -27.4094  -12.3718   17.8425 H   0  0  0  0  0  0
  -27.5483  -14.2430   19.3523 H   0  0  0  0  0  0
  -28.8060  -12.4324   21.4708 H   0  0  0  0  0  0
  -28.3144  -14.0919   21.7199 H   0  0  0  0  0  0
  -25.2776   -9.5677   22.4766 H   0  0  0  0  0  0
  -24.0004   -7.4635   22.7479 H   0  0  0  0  0  0
  -21.0852   -8.8785   19.8956 H   0  0  0  0  0  0
  -22.3719  -10.9676   19.6169 H   0  0  0  0  0  0
  -21.2011   -7.6150   23.9717 H   0  0  0  0  0  0
  -21.1480   -6.0524   25.9077 H   0  0  0  0  0  0
  -22.0597   -2.7609   23.2848 H   0  0  0  0  0  0
  -22.4063  -11.9843   22.4840 H   0  0  0  0  0  0
  -21.1049  -13.1190   22.2663 H   0  0  0  0  0  0
  -24.6280  -15.8393   20.5305 H   0  0  0  0  0  0
  -26.2352  -15.6421   20.0558 H   0  0  0  0  0  0
  -26.7353  -32.5167   23.0909 H   0  0  0  0  0  0
  -25.0066  -33.9510   25.0215 H   0  0  0  0  0  0
  -22.7813  -31.2714   21.3547 H   0  0  0  0  0  0
  -23.3754  -35.9557   23.3317 H   0  0  0  0  0  0
  -24.3562  -36.8856   22.2061 H   0  0  0  0  0  0
  -23.7264  -37.6419   23.6697 H   0  0  0  0  0  0
  -26.2095  -31.3942   20.6164 H   0  0  0  0  0  0
  -26.8997  -30.7082   22.0473 H   0  0  0  0  0  0
  -28.1531  -28.6530   21.2539 H   0  0  0  0  0  0
  -25.8884  -25.7498   19.0189 H   0  0  0  0  0  0
  -23.9955  -27.2621   18.9731 H   0  0  0  0  0  0
  -23.8596  -30.5256   19.3901 H   0  0  0  0  0  0
  -22.8177  -29.2093   19.8330 H   0  0  0  0  0  0
  -25.1337  -36.1794   25.0796 H   0  0  0  0  0  0
  -21.0029  -28.3348   24.1323 H   0  0  0  0  0  0
  -20.5679  -26.2362   23.3639 H   0  0  0  0  0  0
  -21.6661  -26.7414   22.1207 H   0  0  0  0  0  0
  -19.6929  -25.6278   21.1270 H   0  0  0  0  0  0
  -19.6707  -27.3166   20.6726 H   0  0  0  0  0  0
  -17.4221  -26.6681   21.4030 H   0  0  0  0  0  0
  -18.0350  -26.0091   22.9030 H   0  0  0  0  0  0
  -19.7964  -30.7315   24.2207 H   0  0  0  0  0  0
  -17.5033  -31.6270   24.5167 H   0  0  0  0  0  0
  -15.5372  -30.2972   23.7686 H   0  0  0  0  0  0
  -15.8703  -28.0808   22.7098 H   0  0  0  0  0  0
  -24.5885  -30.7111   25.7675 H   0  0  0  0  0  0
  -24.8861  -32.2973   26.4680 H   0  0  0  0  0  0
  -25.7931  -30.9017   27.0214 H   0  0  0  0  0  0
  -26.3100  -29.6599   24.1385 H   0  0  0  0  0  0
  -27.3976  -29.7268   25.5035 H   0  0  0  0  0  0
  -27.9039  -30.4112   23.9800 H   0  0  0  0  0  0
  -27.2619  -33.3680   26.1972 H   0  0  0  0  0  0
  -28.3916  -32.6846   25.0372 H   0  0  0  0  0  0
  -28.0654  -31.8541   26.5508 H   0  0  0  0  0  0
  -28.2602  -38.0053   24.7464 H   0  0  0  0  0  0
  -28.1043  -36.2577   24.6378 H   0  0  0  0  0  0
  -27.2270  -37.1514   25.8874 H   0  0  0  0  0  0
  -20.9562  -29.8733   21.6689 H   0  0  0  0  0  0
  -26.0146  -38.2778   24.1363 H   0  0  0  0  0  0
  -27.9795  -20.6229   18.5808 H   0  0  0  0  0  0
  -27.6156  -18.6035   17.5754 H   0  0  0  0  0  0
  -27.1776  -17.4191   18.8050 H   0  0  0  0  0  0
  -28.6778  -17.2369   17.8881 H   0  0  0  0  0  0
  -31.3037  -17.4064   22.2385 H   0  0  0  0  0  0
  -30.3594  -18.3979   23.3529 H   0  0  0  0  0  0
  -31.8238  -19.0412   22.6020 H   0  0  0  0  0  0
  -30.3479  -22.5300   18.2603 H   0  0  0  0  0  0
  -29.6791  -24.1550   18.2863 H   0  0  0  0  0  0
  -28.6354  -22.7887   17.9463 H   0  0  0  0  0  0
  -31.3058  -22.9111   20.5696 H   0  0  0  0  0  0
  -30.2615  -23.4603   21.8856 H   0  0  0  0  0  0
  -30.6269  -24.5276   20.5511 H   0  0  0  0  0  0
  -27.6619  -24.1613   21.3400 H   0  0  0  0  0  0
  -27.1675  -24.0718   19.6994 H   0  0  0  0  0  0
  -28.6248  -16.0329   20.4710 H   0  0  0  0  0  0
  1 25  1  0  0  0
  1 30  2  0  0  0
  1 83  1  0  0  0
  2  3  1  0  0  0
  2 25  1  0  0  0
  2 85  1  0  0  0
  2 86  1  0  0  0
  3  4  1  0  0  0
  3 87  1  0  0  0
  3 88  1  0  0  0
  4  5  1  0  0  0
  4 89  1  0  0  0
  4 90  1  0  0  0
  5  6  1  0  0  0
  5 26  1  0  0  0
  5 91  1  0  0  0
  6 25  1  0  0  0
  6 92  1  0  0  0
  6 93  1  0  0  0
  7  8  2  0  0  0
  7 26  1  0  0  0
  7 29  1  0  0  0
  8  9  1  0  0  0
  8 22  1  0  0  0
  9 10  1  0  0  0
  9 27  2  0  0  0
 10 11  2  0  0  0
 10 15  1  0  0  0
 11 12  1  0  0  0
 11 94  1  0  0  0
 12 13  2  0  0  0
 12 95  1  0  0  0
 13 14  1  0  0  0
 13 31  1  0  0  0
 14 15  2  0  0  0
 14 96  1  0  0  0
 15 97  1  0  0  0
 16 17  2  0  0  0
 16 21  1  0  0  0
 16 31  1  0  0  0
 17 18  1  0  0  0
 17 98  1  0  0  0
 18 19  2  0  0  0
 18 99  1  0  0  0
 19 20  1  0  0  0
 19 24  1  0  0  0
 20 21  2  0  0  0
 20100  1  0  0  0
 21 23  1  0  0  0
 22 28  1  0  0  0
 22 32  2  0  0  0
 26 27  1  0  0  0
 28101  1  0  0  0
 28102  1  0  0  0
 29103  1  0  0  0
 29104  1  0  0  0
 33 34  1  0  0  0
 33 66  1  0  0  0
 33 70  2  0  0  0
 34 36  1  0  0  0
 34 59  1  0  0  0
 34105  1  0  0  0
 35 44  2  0  0  0
 35 45  1  0  0  0
 35 68  1  0  0  0
 36 56  1  0  0  0
 36106  1  0  0  0
 37 39  1  0  0  0
 37 47  1  0  0  0
 37 66  1  0  0  0
 37107  1  0  0  0
 38 43  2  0  0  0
 38 46  1  0  0  0
 38 47  1  0  0  0
 39 64  1  0  0  0
 39 67  2  0  0  0
 40 52  1  0  0  0
 40 53  2  0  0  0
 40 58  1  0  0  0
 41108  1  0  0  0
 41109  1  0  0  0
 41110  1  0  0  0
 41 48  1  0  0  0
 42 43  1  0  0  0
 42 66  1  0  0  0
 42111  1  0  0  0
 42112  1  0  0  0
 43 44  1  0  0  0
 44113  1  0  0  0
 45 46  2  0  0  0
 45114  1  0  0  0
 46115  1  0  0  0
 47116  1  0  0  0
 47117  1  0  0  0
 48 56  1  0  0  0
 48 65  1  0  0  0
 48118  1  0  0  0
 49 50  1  0  0  0
 49 53  1  0  0  0
 49 64  1  0  0  0
 49119  1  0  0  0
 50 51  1  0  0  0
 50120  1  0  0  0
 50121  1  0  0  0
 51 52  1  0  0  0
 51122  1  0  0  0
 51123  1  0  0  0
 52124  1  0  0  0
 52125  1  0  0  0
 53 54  1  0  0  0
 54 55  2  0  0  0
 54126  1  0  0  0
 55 57  1  0  0  0
 55127  1  0  0  0
 56 69  2  0  0  0
 57 58  2  0  0  0
 57128  1  0  0  0
 58129  1  0  0  0
 59 60  1  0  0  0
 59 61  1  0  0  0
 59 62  1  0  0  0
 60130  1  0  0  0
 60131  1  0  0  0
 60132  1  0  0  0
 61133  1  0  0  0
 61134  1  0  0  0
 61135  1  0  0  0
 62136  1  0  0  0
 62137  1  0  0  0
 62138  1  0  0  0
 63 65  1  0  0  0
 63139  1  0  0  0
 63140  1  0  0  0
 63141  1  0  0  0
 64142  1  0  0  0
 65143  1  0  0  0
 68 81  1  0  0  0
 71 72  2  0  0  0
 71 73  1  0  0  0
 71144  1  0  0  0
 72 75  1  0  0  0
 72 77  1  0  0  0
 73 76  2  0  0  0
 73 82  1  0  0  0
 74 75  2  0  0  0
 74 76  1  0  0  0
 74 78  1  0  0  0
 75 83  1  0  0  0
 76 84  1  0  0  0
 77145  1  0  0  0
 77146  1  0  0  0
 77147  1  0  0  0
 78148  1  0  0  0
 78149  1  0  0  0
 78150  1  0  0  0
 79151  1  0  0  0
 79152  1  0  0  0
 79153  1  0  0  0
 79 82  1  0  0  0
 80 82  1  0  0  0
 80154  1  0  0  0
 80155  1  0  0  0
 80156  1  0  0  0
 81 82  1  0  0  0
 81157  1  0  0  0
 81158  1  0  0  0
 83159  1  0  0  0
M  ISO  4   1 100  68 101  81 101  83 100
M  END
> <chiral flag>
0

> <version>
0

> <s_m_source_file>
/data/baiqing/PycharmProjects/Reinvent-master-3.2/result/LINK_invent/BTK/process_docking_weight1_custom_sum_contain_oxygen_bond_distance_aromatic_linkinvent_7_9_3/rearranged_h_0017.sdf

> <i_m_source_file_index>
58

> <r_mmod_Potential_Energy-OPLS-2005>
1067.94189453125

> <r_mmod_Stretch_Energy-OPLS-2005>
471.252471923828

> <r_mmod_Bend_Energy-OPLS-2005>
406.180328369141

> <r_mmod_Torsional_Energy-OPLS-2005>
255.560317993164

> <r_mmod_Improper_Torsional_Energy-OPLS-2005>
8.76332092285156

> <r_mmod_Van_der_Waal_Energy-OPLS-2005>
130.868988037109

> <r_mmod_Electrostatic_Energy-OPLS-2005>
-386.76513671875

> <r_mmod_Solvation_Energy-OPLS-2005>
-199.334411621094

> <b_mmod_Minimization_Converged-OPLS-2005>
0

> <r_mmod_RMS_Derivative-OPLS-2005>
0.26275447010994

$$$$
59
                    3D
 Structure written by MMmdl.
163171  0  0  1  0            999 V2000
  -30.6776  -14.8085   20.4589 C   0  0  0  0  0  0
  -30.4210  -12.4946   19.5171 C   0  0  0  0  0  0
  -29.5298  -12.5222   18.2609 C   0  0  0  0  0  0
  -28.0593  -12.3275   18.6687 C   0  0  0  0  0  0
  -27.6438  -13.2494   19.8461 C   0  0  2  0  0  0
  -28.6831  -13.2771   20.9949 C   0  0  0  0  0  0
  -25.2583  -13.8248   20.5728 C   0  0  0  0  0  0
  -24.1869  -13.0407   20.9190 C   0  0  0  0  0  0
  -24.6487  -11.6937   20.8729 C   0  0  0  0  0  0
  -23.9108  -10.4292   21.0405 C   0  0  0  0  0  0
  -24.3685   -9.4232   21.9165 C   0  0  0  0  0  0
  -23.6360   -8.2252   22.0738 C   0  0  0  0  0  0
  -22.4321   -8.0326   21.3546 C   0  0  0  0  0  0
  -21.9964   -9.0270   20.4634 C   0  0  0  0  0  0
  -22.7296  -10.2145   20.3044 C   0  0  0  0  0  0
  -21.6856   -6.0747   22.5282 C   0  0  0  0  0  0
  -21.4049   -6.5631   23.8251 C   0  0  0  0  0  0
  -21.3670   -5.6782   24.9179 C   0  0  0  0  0  0
  -21.6028   -4.3039   24.7237 C   0  0  0  0  0  0
  -21.8844   -3.8153   23.4352 C   0  0  0  0  0  0
  -21.9241   -4.6958   22.3425 C   0  0  0  0  0  0
  -22.7903  -13.5237   21.1839 C   0  0  0  0  0  0
  -22.1686   -4.2157   21.0973 F   0  0  0  0  0  0
  -21.5614   -3.4523   25.7729 F   0  0  0  0  0  0
  -29.9853  -13.6086   20.4041 N   0  0  0  0  0  0
  -26.2985  -12.9464   20.3264 N   0  0  0  0  0  0
  -25.9420  -11.6572   20.5674 N   0  0  0  0  0  0
  -22.0554  -12.8156   22.0411 N   0  0  0  0  0  0
  -25.4263  -15.1932   20.4353 N   0  0  0  0  0  0
  -31.8586  -14.7999   20.0890 O   0  0  0  0  0  0
  -21.6681   -6.8890   21.4253 O   0  0  0  0  0  0
  -22.3585  -14.5524   20.6716 O   0  0  0  0  0  0
  -24.6483  -31.8432   23.1962 C   0  0  0  0  0  0
  -25.9340  -32.4586   23.8263 C   0  0  1  0  0  0
  -27.1719  -27.1591   20.1201 C   0  0  0  0  0  0
  -25.6073  -33.8397   24.2097 N   0  0  0  0  0  0
  -23.4355  -30.4962   21.5329 C   0  0  2  0  0  0
  -24.8718  -28.9285   20.1049 C   0  0  0  0  0  0
  -22.7417  -29.4765   22.4719 C   0  0  0  0  0  0
  -18.0284  -28.1353   22.8314 C   0  0  0  0  0  0
  -24.1532  -36.7327   23.2656 C   0  0  0  0  0  0
  -25.9939  -30.7137   21.4014 C   0  0  0  0  0  0
  -26.0500  -29.3349   20.7477 C   0  0  0  0  0  0
  -27.2047  -28.4699   20.7432 C   0  0  0  0  0  0
  -26.0132  -26.9112   19.3641 C   0  0  0  0  0  0
  -24.8766  -27.7386   19.3757 C   0  0  0  0  0  0
  -23.6590  -29.8489   20.1460 C   0  0  0  0  0  0
  -25.4107  -36.2939   24.0286 C   0  0  1  0  0  0
  -20.5902  -28.3774   23.1021 C   0  0  2  0  0  0
  -20.6768  -26.9471   22.5263 C   0  0  0  0  0  0
  -19.5769  -26.6355   21.5027 C   0  0  0  0  0  0
  -18.1960  -26.7861   22.1485 C   0  0  0  0  0  0
  -19.1539  -28.8827   23.2704 C   0  0  0  0  0  0
  -18.9570  -30.1409   23.8753 C   0  0  0  0  0  0
  -17.6604  -30.6549   24.0578 C   0  0  0  0  0  0
  -25.9082  -34.9336   23.4993 C   0  0  0  0  0  0
  -16.5450  -29.9109   23.6315 C   0  0  0  0  0  0
  -16.7312  -28.6538   23.0250 C   0  0  0  0  0  0
  -26.4668  -31.6466   25.0732 C   0  0  0  0  0  0
  -25.3823  -31.3870   26.1424 C   0  0  0  0  0  0
  -27.0543  -30.2757   24.6460 C   0  0  0  0  0  0
  -27.6050  -32.4356   25.7620 C   0  0  0  0  0  0
  -27.5484  -37.1800   24.8411 C   0  0  0  0  0  0
  -21.4155  -29.3213   22.3429 N   0  0  0  0  0  0
  -26.4194  -37.3690   23.9392 N   0  0  0  0  0  0
  -24.7115  -31.0399   22.0982 N   0  0  0  0  0  0
  -23.4020  -28.8291   23.2918 O   0  0  0  0  0  0
  -28.1772  -26.1352   20.1930 O   0  0  0  0  0  0
  -26.5739  -34.8888   22.4584 O   0  0  0  0  0  0
  -23.5669  -32.1416   23.7233 O   0  0  0  0  0  0
  -28.7243  -22.1071   20.9436 C   0  0  0  0  0  0
  -28.8448  -23.5238   20.8702 C   0  0  0  0  0  0
  -29.0269  -18.4847   20.1665 C   0  0  0  0  0  0
  -30.2321  -18.2818   22.2422 C   0  0  0  0  0  0
  -29.5577  -17.0059   19.7459 C   0  0  0  0  0  0
  -30.8522  -16.8963   21.7744 C   0  0  0  0  0  0
  -29.9396  -19.3589   21.1112 C   0  0  0  0  0  0
  -30.0104  -24.2547   21.5074 C   0  0  0  0  0  0
  -30.7673  -21.3360   22.5533 C   0  0  0  0  0  0
  -27.2750  -24.0375   18.8316 C   0  0  0  0  0  0
  -29.5392  -20.8813   21.6961 C   0  0  1  0  0  0
  -27.8184  -24.6096   20.1977 C   0  0  2  0  0  0
  -30.0800  -16.0449   20.8070 N   0  0  0  0  0  0
  -31.4732  -12.5600   19.2409 H   0  0  0  0  0  0
  -30.3205  -11.5375   20.0273 H   0  0  0  0  0  0
  -29.8300  -11.7472   17.5553 H   0  0  0  0  0  0
  -29.6463  -13.4757   17.7454 H   0  0  0  0  0  0
  -27.9351  -11.2752   18.9449 H   0  0  0  0  0  0
  -27.4075  -12.5130   17.8127 H   0  0  0  0  0  0
  -27.6082  -14.2516   19.4207 H   0  0  0  0  0  0
  -28.7271  -12.3249   21.5252 H   0  0  0  0  0  0
  -28.4010  -14.0305   21.7377 H   0  0  0  0  0  0
  -25.2870   -9.5648   22.4712 H   0  0  0  0  0  0
  -24.0078   -7.4618   22.7442 H   0  0  0  0  0  0
  -21.0916   -8.8836   19.8915 H   0  0  0  0  0  0
  -22.3845  -10.9687   19.6159 H   0  0  0  0  0  0
  -21.2040   -7.6144   23.9741 H   0  0  0  0  0  0
  -21.1438   -6.0483   25.9070 H   0  0  0  0  0  0
  -22.0618   -2.7603   23.2859 H   0  0  0  0  0  0
  -22.4255  -11.9882   22.4811 H   0  0  0  0  0  0
  -21.1124  -13.1114   22.2499 H   0  0  0  0  0  0
  -24.6641  -15.8447   20.5836 H   0  0  0  0  0  0
  -26.2934  -15.6523   20.1774 H   0  0  0  0  0  0
  -26.7333  -32.5184   23.0909 H   0  0  0  0  0  0
  -25.0007  -33.9385   25.0098 H   0  0  0  0  0  0
  -22.7497  -31.3370   21.3896 H   0  0  0  0  0  0
  -23.3663  -35.9780   23.3277 H   0  0  0  0  0  0
  -24.3624  -36.9023   22.2080 H   0  0  0  0  0  0
  -23.7501  -37.6580   23.6757 H   0  0  0  0  0  0
  -26.1553  -31.4589   20.6208 H   0  0  0  0  0  0
  -26.8603  -30.7374   22.0554 H   0  0  0  0  0  0
  -28.0973  -28.8038   21.2595 H   0  0  0  0  0  0
  -25.9492  -26.0866   18.6850 H   0  0  0  0  0  0
  -24.0452  -27.4618   18.7467 H   0  0  0  0  0  0
  -23.8280  -30.6459   19.4203 H   0  0  0  0  0  0
  -22.7629  -29.3269   19.7997 H   0  0  0  0  0  0
  -25.1306  -36.1644   25.0780 H   0  0  0  0  0  0
  -21.0013  -28.3423   24.1149 H   0  0  0  0  0  0
  -20.5410  -26.2522   23.3558 H   0  0  0  0  0  0
  -21.6712  -26.7393   22.1286 H   0  0  0  0  0  0
  -19.7029  -25.6223   21.1162 H   0  0  0  0  0  0
  -19.6649  -27.3050   20.6454 H   0  0  0  0  0  0
  -17.4216  -26.6434   21.3962 H   0  0  0  0  0  0
  -18.0581  -26.0031   22.8954 H   0  0  0  0  0  0
  -19.8138  -30.7180   24.2020 H   0  0  0  0  0  0
  -17.5289  -31.6214   24.5250 H   0  0  0  0  0  0
  -15.5479  -30.3063   23.7706 H   0  0  0  0  0  0
  -15.8702  -28.0934   22.6909 H   0  0  0  0  0  0
  -24.5941  -30.7219   25.7845 H   0  0  0  0  0  0
  -24.9175  -32.3210   26.4607 H   0  0  0  0  0  0
  -25.8112  -30.9271   27.0331 H   0  0  0  0  0  0
  -26.3212  -29.6388   24.1451 H   0  0  0  0  0  0
  -27.4012  -29.7083   25.5101 H   0  0  0  0  0  0
  -27.9171  -30.3770   23.9855 H   0  0  0  0  0  0
  -27.2300  -33.3563   26.2102 H   0  0  0  0  0  0
  -28.3953  -32.7042   25.0616 H   0  0  0  0  0  0
  -28.0597  -31.8643   26.5744 H   0  0  0  0  0  0
  -28.2422  -38.0160   24.7372 H   0  0  0  0  0  0
  -28.0998  -36.2642   24.6190 H   0  0  0  0  0  0
  -27.2203  -37.1426   25.8819 H   0  0  0  0  0  0
  -20.9228  -29.9230   21.6905 H   0  0  0  0  0  0
  -26.0010  -38.2714   24.1420 H   0  0  0  0  0  0
  -27.8320  -21.7133   20.4678 H   0  0  0  0  0  0
  -28.0496  -18.3687   20.6442 H   0  0  0  0  0  0
  -28.8454  -19.0616   19.2552 H   0  0  0  0  0  0
  -30.9096  -18.6621   23.0144 H   0  0  0  0  0  0
  -29.3048  -18.0800   22.7888 H   0  0  0  0  0  0
  -30.3106  -17.1066   18.9537 H   0  0  0  0  0  0
  -28.7317  -16.4931   19.2438 H   0  0  0  0  0  0
  -31.0620  -16.3129   22.6748 H   0  0  0  0  0  0
  -31.8356  -17.0823   21.3370 H   0  0  0  0  0  0
  -30.8703  -19.4984   20.5563 H   0  0  0  0  0  0
  -30.9064  -23.6471   21.5335 H   0  0  0  0  0  0
  -29.7502  -24.6260   22.5070 H   0  0  0  0  0  0
  -30.3202  -25.0871   20.8787 H   0  0  0  0  0  0
  -30.6256  -22.2835   23.0612 H   0  0  0  0  0  0
  -31.7119  -21.3606   21.9906 H   0  0  0  0  0  0
  -30.9378  -20.6929   23.4137 H   0  0  0  0  0  0
  -27.7016  -24.5127   17.9406 H   0  0  0  0  0  0
  -27.4302  -22.9654   18.6820 H   0  0  0  0  0  0
  -26.1835  -24.0992   18.7778 H   0  0  0  0  0  0
  -28.7820  -20.6399   22.4441 H   0  0  0  0  0  0
  -26.9617  -24.5660   20.8806 H   0  0  0  0  0  0
  1 25  1  0  0  0
  1 30  2  0  0  0
  1 83  1  0  0  0
  2  3  1  0  0  0
  2 25  1  0  0  0
  2 84  1  0  0  0
  2 85  1  0  0  0
  3  4  1  0  0  0
  3 86  1  0  0  0
  3 87  1  0  0  0
  4  5  1  0  0  0
  4 88  1  0  0  0
  4 89  1  0  0  0
  5  6  1  0  0  0
  5 26  1  0  0  0
  5 90  1  0  0  0
  6 25  1  0  0  0
  6 91  1  0  0  0
  6 92  1  0  0  0
  7  8  2  0  0  0
  7 26  1  0  0  0
  7 29  1  0  0  0
  8  9  1  0  0  0
  8 22  1  0  0  0
  9 10  1  0  0  0
  9 27  2  0  0  0
 10 11  2  0  0  0
 10 15  1  0  0  0
 11 12  1  0  0  0
 11 93  1  0  0  0
 12 13  2  0  0  0
 12 94  1  0  0  0
 13 14  1  0  0  0
 13 31  1  0  0  0
 14 15  2  0  0  0
 14 95  1  0  0  0
 15 96  1  0  0  0
 16 17  2  0  0  0
 16 21  1  0  0  0
 16 31  1  0  0  0
 17 18  1  0  0  0
 17 97  1  0  0  0
 18 19  2  0  0  0
 18 98  1  0  0  0
 19 20  1  0  0  0
 19 24  1  0  0  0
 20 21  2  0  0  0
 20 99  1  0  0  0
 21 23  1  0  0  0
 22 28  1  0  0  0
 22 32  2  0  0  0
 26 27  1  0  0  0
 28100  1  0  0  0
 28101  1  0  0  0
 29102  1  0  0  0
 29103  1  0  0  0
 33 34  1  0  0  0
 33 66  1  0  0  0
 33 70  2  0  0  0
 34 36  1  0  0  0
 34 59  1  0  0  0
 34104  1  0  0  0
 35 44  2  0  0  0
 35 45  1  0  0  0
 35 68  1  0  0  0
 36 56  1  0  0  0
 36105  1  0  0  0
 37 39  1  0  0  0
 37 47  1  0  0  0
 37 66  1  0  0  0
 37106  1  0  0  0
 38 43  2  0  0  0
 38 46  1  0  0  0
 38 47  1  0  0  0
 39 64  1  0  0  0
 39 67  2  0  0  0
 40 52  1  0  0  0
 40 53  2  0  0  0
 40 58  1  0  0  0
 41107  1  0  0  0
 41108  1  0  0  0
 41109  1  0  0  0
 41 48  1  0  0  0
 42 43  1  0  0  0
 42 66  1  0  0  0
 42110  1  0  0  0
 42111  1  0  0  0
 43 44  1  0  0  0
 44112  1  0  0  0
 45 46  2  0  0  0
 45113  1  0  0  0
 46114  1  0  0  0
 47115  1  0  0  0
 47116  1  0  0  0
 48 56  1  0  0  0
 48 65  1  0  0  0
 48117  1  0  0  0
 49 50  1  0  0  0
 49 53  1  0  0  0
 49 64  1  0  0  0
 49118  1  0  0  0
 50 51  1  0  0  0
 50119  1  0  0  0
 50120  1  0  0  0
 51 52  1  0  0  0
 51121  1  0  0  0
 51122  1  0  0  0
 52123  1  0  0  0
 52124  1  0  0  0
 53 54  1  0  0  0
 54 55  2  0  0  0
 54125  1  0  0  0
 55 57  1  0  0  0
 55126  1  0  0  0
 56 69  2  0  0  0
 57 58  2  0  0  0
 57127  1  0  0  0
 58128  1  0  0  0
 59 60  1  0  0  0
 59 61  1  0  0  0
 59 62  1  0  0  0
 60129  1  0  0  0
 60130  1  0  0  0
 60131  1  0  0  0
 61132  1  0  0  0
 61133  1  0  0  0
 61134  1  0  0  0
 62135  1  0  0  0
 62136  1  0  0  0
 62137  1  0  0  0
 63 65  1  0  0  0
 63138  1  0  0  0
 63139  1  0  0  0
 63140  1  0  0  0
 64141  1  0  0  0
 65142  1  0  0  0
 68 82  1  0  0  0
 71 72  2  0  0  0
 71 81  1  0  0  0
 71143  1  0  0  0
 72 78  1  0  0  0
 72 82  1  0  0  0
 73 75  1  0  0  0
 73144  1  0  0  0
 73145  1  0  0  0
 73 77  1  0  0  0
 74 76  1  0  0  0
 74 77  1  0  0  0
 74146  1  0  0  0
 74147  1  0  0  0
 75 83  1  0  0  0
 75148  1  0  0  0
 75149  1  0  0  0
 76 83  1  0  0  0
 76150  1  0  0  0
 76151  1  0  0  0
 77 81  1  0  0  0
 77152  1  0  0  0
 78153  1  0  0  0
 78154  1  0  0  0
 78155  1  0  0  0
 79156  1  0  0  0
 79157  1  0  0  0
 79158  1  0  0  0
 79 81  1  0  0  0
 80159  1  0  0  0
 80160  1  0  0  0
 80161  1  0  0  0
 80 82  1  0  0  0
 81162  1  0  0  0
 82163  1  0  0  0
M  ISO  4   1 100  68 101  82 101  83 100
M  END
> <chiral flag>
0

> <version>
0

> <s_m_source_file>
/data/baiqing/PycharmProjects/Reinvent-master-3.2/result/LINK_invent/BTK/process_docking_weight1_custom_sum_contain_oxygen_bond_distance_aromatic_linkinvent_7_9_3/rearranged_h_0017.sdf

> <i_m_source_file_index>
59

> <r_mmod_Potential_Energy-OPLS-2005>
691.094421386719

> <r_mmod_Stretch_Energy-OPLS-2005>
230.38117980957

> <r_mmod_Bend_Energy-OPLS-2005>
291.089538574219

> <r_mmod_Torsional_Energy-OPLS-2005>
343.544586181641

> <r_mmod_Improper_Torsional_Energy-OPLS-2005>
8.44150924682617

> <r_mmod_Van_der_Waal_Energy-OPLS-2005>
143.106018066406

> <r_mmod_Electrostatic_Energy-OPLS-2005>
-297.476684570312

> <r_mmod_Solvation_Energy-OPLS-2005>
-180.284301757812

> <b_mmod_Minimization_Converged-OPLS-2005>
0

> <r_mmod_RMS_Derivative-OPLS-2005>
13.5101432800293

$$$$
61
                    3D
 Structure written by MMmdl.
150158  0  0  1  0            999 V2000
  -30.3030  -15.5965   20.3294 C   0  0  0  0  0  0
  -30.4331  -13.0498   19.5374 C   0  0  0  0  0  0
  -29.5548  -12.6524   18.3171 C   0  0  0  0  0  0
  -28.1210  -12.3079   18.7528 C   0  0  0  0  0  0
  -27.5999  -13.3061   19.8128 C   0  0  2  0  0  0
  -28.6206  -13.6106   20.9343 C   0  0  0  0  0  0
  -25.2337  -13.8285   20.5783 C   0  0  0  0  0  0
  -24.1727  -13.0435   20.9286 C   0  0  0  0  0  0
  -24.6426  -11.6947   20.8764 C   0  0  0  0  0  0
  -23.9123  -10.4297   21.0407 C   0  0  0  0  0  0
  -24.3650   -9.4208   21.9193 C   0  0  0  0  0  0
  -23.6308   -8.2250   22.0763 C   0  0  0  0  0  0
  -22.4288   -8.0295   21.3550 C   0  0  0  0  0  0
  -21.9936   -9.0275   20.4652 C   0  0  0  0  0  0
  -22.7283  -10.2145   20.3059 C   0  0  0  0  0  0
  -21.6858   -6.0746   22.5279 C   0  0  0  0  0  0
  -21.4020   -6.5647   23.8215 C   0  0  0  0  0  0
  -21.3661   -5.6794   24.9175 C   0  0  0  0  0  0
  -21.6041   -4.3055   24.7225 C   0  0  0  0  0  0
  -21.8816   -3.8151   23.4343 C   0  0  0  0  0  0
  -21.9193   -4.6971   22.3401 C   0  0  0  0  0  0
  -22.7737  -13.5177   21.1907 C   0  0  0  0  0  0
  -22.1661   -4.2160   21.0975 F   0  0  0  0  0  0
  -21.5627   -3.4533   25.7736 F   0  0  0  0  0  0
  -29.8019  -14.2255   20.2852 N   0  0  0  0  0  0
  -26.2789  -12.9615   20.3212 N   0  0  0  0  0  0
  -25.9371  -11.6688   20.5687 N   0  0  0  0  0  0
  -22.0375  -12.8180   22.0457 N   0  0  0  0  0  0
  -25.3909  -15.2028   20.4214 N   0  0  0  0  0  0
  -31.5376  -15.5666   20.1621 O   0  0  0  0  0  0
  -21.6642   -6.8893   21.4243 O   0  0  0  0  0  0
  -22.3426  -14.5471   20.6726 O   0  0  0  0  0  0
  -24.6838  -31.8014   23.1524 C   0  0  0  0  0  0
  -25.9417  -32.4480   23.8077 C   0  0  1  0  0  0
  -27.2289  -26.7112   20.2108 C   0  0  0  0  0  0
  -25.5993  -33.8305   24.1958 N   0  0  0  0  0  0
  -23.5095  -30.4033   21.5071 C   0  0  2  0  0  0
  -24.9676  -28.7466   20.1193 C   0  0  0  0  0  0
  -22.7770  -29.4327   22.4725 C   0  0  0  0  0  0
  -18.0338  -28.1421   22.8454 C   0  0  0  0  0  0
  -24.1494  -36.7164   23.2651 C   0  0  0  0  0  0
  -26.0906  -30.5371   21.4160 C   0  0  0  0  0  0
  -26.1577  -29.1027   20.7651 C   0  0  0  0  0  0
  -27.2747  -28.1136   20.7774 C   0  0  0  0  0  0
  -26.0042  -26.5640   19.5098 C   0  0  0  0  0  0
  -24.9298  -27.5024   19.4678 C   0  0  0  0  0  0
  -23.7631  -29.7004   20.1427 C   0  0  0  0  0  0
  -25.4144  -36.2907   24.0281 C   0  0  1  0  0  0
  -20.5974  -28.3785   23.1142 C   0  0  2  0  0  0
  -20.6807  -26.9445   22.5404 C   0  0  0  0  0  0
  -19.5780  -26.6369   21.5219 C   0  0  0  0  0  0
  -18.1961  -26.7948   22.1619 C   0  0  0  0  0  0
  -19.1604  -28.8928   23.2777 C   0  0  0  0  0  0
  -18.9509  -30.1510   23.8824 C   0  0  0  0  0  0
  -17.6499  -30.6605   24.0547 C   0  0  0  0  0  0
  -25.9126  -34.9295   23.4959 C   0  0  0  0  0  0
  -16.5389  -29.9087   23.6349 C   0  0  0  0  0  0
  -16.7318  -28.6507   23.0371 C   0  0  0  0  0  0
  -26.4590  -31.6516   25.0701 C   0  0  0  0  0  0
  -25.3651  -31.3845   26.1317 C   0  0  0  0  0  0
  -27.0515  -30.2852   24.6603 C   0  0  0  0  0  0
  -27.6038  -32.4375   25.7522 C   0  0  0  0  0  0
  -27.5566  -37.1743   24.8462 C   0  0  0  0  0  0
  -21.4417  -29.3032   22.3468 N   0  0  0  0  0  0
  -26.4274  -37.3664   23.9402 N   0  0  0  0  0  0
  -24.7848  -30.9466   22.0775 N   0  0  0  0  0  0
  -23.4220  -28.7931   23.3068 O   0  0  0  0  0  0
  -28.1879  -25.4899   20.2657 O   0  0  0  0  0  0
  -26.5762  -34.8869   22.4574 O   0  0  0  0  0  0
  -23.5856  -32.1087   23.6473 O   0  0  0  0  0  0
  -29.5100  -19.6971   21.3327 C   0  0  0  0  0  0
  -29.1708  -21.1965   21.3109 C   0  0  0  0  0  0
  -28.6323  -22.0596   20.2152 C   0  0  0  0  0  0
  -28.5479  -20.9976   19.1598 C   0  0  0  0  0  0
  -29.4054  -18.6290   20.2966 C   0  0  0  0  0  0
  -28.8669  -19.4893   19.2069 C   0  0  0  0  0  0
  -29.3606  -21.9182   22.6319 C   0  0  0  0  0  0
  -28.0094  -21.5011   17.8254 C   0  0  0  0  0  0
  -27.8594  -23.7718   20.2179 C   0  0  0  0  0  0
  -29.4780  -16.9094   20.3836 N   0  0  0  0  0  0
  -28.4945  -18.5708   17.7864 Cl  0  0  0  0  0  0
  -31.4286  -13.3130   19.1787 H   0  0  0  0  0  0
  -30.5849  -12.1961   20.2006 H   0  0  0  0  0  0
  -30.0006  -11.8137   17.7812 H   0  0  0  0  0  0
  -29.5288  -13.4853   17.6121 H   0  0  0  0  0  0
  -28.1319  -11.3022   19.1748 H   0  0  0  0  0  0
  -27.4546  -12.2730   17.8901 H   0  0  0  0  0  0
  -27.4698  -14.2377   19.2603 H   0  0  0  0  0  0
  -28.8701  -12.7170   21.5086 H   0  0  0  0  0  0
  -28.1974  -14.3230   21.6440 H   0  0  0  0  0  0
  -25.2794   -9.5685   22.4769 H   0  0  0  0  0  0
  -24.0013   -7.4646   22.7490 H   0  0  0  0  0  0
  -21.0866   -8.8805   19.8960 H   0  0  0  0  0  0
  -22.3750  -10.9686   19.6166 H   0  0  0  0  0  0
  -21.2016   -7.6155   23.9723 H   0  0  0  0  0  0
  -21.1484   -6.0522   25.9079 H   0  0  0  0  0  0
  -22.0591   -2.7613   23.2833 H   0  0  0  0  0  0
  -22.3991  -11.9871   22.4900 H   0  0  0  0  0  0
  -21.0981  -13.1211   22.2606 H   0  0  0  0  0  0
  -24.6120  -15.8434   20.5278 H   0  0  0  0  0  0
  -26.2173  -15.6437   20.0415 H   0  0  0  0  0  0
  -26.7509  -32.4956   23.0800 H   0  0  0  0  0  0
  -25.0049  -33.9356   25.0048 H   0  0  0  0  0  0
  -22.8344  -31.2404   21.3173 H   0  0  0  0  0  0
  -23.3776  -35.9476   23.3272 H   0  0  0  0  0  0
  -24.3558  -36.8870   22.2074 H   0  0  0  0  0  0
  -23.7242  -37.6327   23.6756 H   0  0  0  0  0  0
  -26.2925  -31.2639   20.6282 H   0  0  0  0  0  0
  -26.9408  -30.6045   22.0822 H   0  0  0  0  0  0
  -28.1709  -28.3931   21.3132 H   0  0  0  0  0  0
  -25.8356  -25.6241   19.0045 H   0  0  0  0  0  0
  -24.0320  -27.2206   18.9347 H   0  0  0  0  0  0
  -23.9382  -30.4601   19.3801 H   0  0  0  0  0  0
  -22.8681  -29.1667   19.8181 H   0  0  0  0  0  0
  -25.1357  -36.1675   25.0774 H   0  0  0  0  0  0
  -21.0050  -28.3409   24.1270 H   0  0  0  0  0  0
  -20.5674  -26.2412   23.3669 H   0  0  0  0  0  0
  -21.6668  -26.7394   22.1220 H   0  0  0  0  0  0
  -19.6940  -25.6258   21.1300 H   0  0  0  0  0  0
  -19.6718  -27.3135   20.6714 H   0  0  0  0  0  0
  -17.4235  -26.6693   21.4018 H   0  0  0  0  0  0
  -18.0345  -26.0109   22.9030 H   0  0  0  0  0  0
  -19.7987  -30.7337   24.2170 H   0  0  0  0  0  0
  -17.5053  -31.6279   24.5160 H   0  0  0  0  0  0
  -15.5386  -30.2963   23.7716 H   0  0  0  0  0  0
  -15.8720  -28.0794   22.7137 H   0  0  0  0  0  0
  -24.5849  -30.7182   25.7622 H   0  0  0  0  0  0
  -24.8823  -32.3070   26.4546 H   0  0  0  0  0  0
  -25.7819  -30.9136   27.0229 H   0  0  0  0  0  0
  -26.3232  -29.6473   24.1586 H   0  0  0  0  0  0
  -27.3927  -29.7295   25.5348 H   0  0  0  0  0  0
  -27.9220  -30.3976   24.0139 H   0  0  0  0  0  0
  -27.2578  -33.3741   26.1908 H   0  0  0  0  0  0
  -28.3948  -32.6839   25.0427 H   0  0  0  0  0  0
  -28.0601  -31.8638   26.5599 H   0  0  0  0  0  0
  -28.2556  -38.0064   24.7507 H   0  0  0  0  0  0
  -28.1091  -36.2586   24.6294 H   0  0  0  0  0  0
  -27.2281  -37.1388   25.8865 H   0  0  0  0  0  0
  -20.9735  -29.8686   21.6524 H   0  0  0  0  0  0
  -26.0106  -38.2720   24.1396 H   0  0  0  0  0  0
  -29.8387  -19.3206   22.2904 H   0  0  0  0  0  0
  -29.9530  -21.3324   23.3357 H   0  0  0  0  0  0
  -28.3948  -22.1256   23.0932 H   0  0  0  0  0  0
  -29.8761  -22.8671   22.4788 H   0  0  0  0  0  0
  -28.0609  -22.5843   17.7361 H   0  0  0  0  0  0
  -26.9723  -21.1938   17.6909 H   0  0  0  0  0  0
  -28.5942  -21.1147   16.9910 H   0  0  0  0  0  0
  -27.1982  -23.6787   21.0796 H   0  0  0  0  0  0
  -27.1639  -23.7141   19.3830 H   0  0  0  0  0  0
  -28.5254  -16.5807   20.4337 H   0  0  0  0  0  0
  1 25  1  0  0  0
  1 30  2  0  0  0
  1 80  1  0  0  0
  2  3  1  0  0  0
  2 25  1  0  0  0
  2 82  1  0  0  0
  2 83  1  0  0  0
  3  4  1  0  0  0
  3 84  1  0  0  0
  3 85  1  0  0  0
  4  5  1  0  0  0
  4 86  1  0  0  0
  4 87  1  0  0  0
  5  6  1  0  0  0
  5 26  1  0  0  0
  5 88  1  0  0  0
  6 25  1  0  0  0
  6 89  1  0  0  0
  6 90  1  0  0  0
  7  8  2  0  0  0
  7 26  1  0  0  0
  7 29  1  0  0  0
  8  9  1  0  0  0
  8 22  1  0  0  0
  9 10  1  0  0  0
  9 27  2  0  0  0
 10 11  2  0  0  0
 10 15  1  0  0  0
 11 12  1  0  0  0
 11 91  1  0  0  0
 12 13  2  0  0  0
 12 92  1  0  0  0
 13 14  1  0  0  0
 13 31  1  0  0  0
 14 15  2  0  0  0
 14 93  1  0  0  0
 15 94  1  0  0  0
 16 17  2  0  0  0
 16 21  1  0  0  0
 16 31  1  0  0  0
 17 18  1  0  0  0
 17 95  1  0  0  0
 18 19  2  0  0  0
 18 96  1  0  0  0
 19 20  1  0  0  0
 19 24  1  0  0  0
 20 21  2  0  0  0
 20 97  1  0  0  0
 21 23  1  0  0  0
 22 28  1  0  0  0
 22 32  2  0  0  0
 26 27  1  0  0  0
 28 98  1  0  0  0
 28 99  1  0  0  0
 29100  1  0  0  0
 29101  1  0  0  0
 33 34  1  0  0  0
 33 66  1  0  0  0
 33 70  2  0  0  0
 34 36  1  0  0  0
 34 59  1  0  0  0
 34102  1  0  0  0
 35 44  2  0  0  0
 35 45  1  0  0  0
 35 68  1  0  0  0
 36 56  1  0  0  0
 36103  1  0  0  0
 37 39  1  0  0  0
 37 47  1  0  0  0
 37 66  1  0  0  0
 37104  1  0  0  0
 38 43  2  0  0  0
 38 46  1  0  0  0
 38 47  1  0  0  0
 39 64  1  0  0  0
 39 67  2  0  0  0
 40 52  1  0  0  0
 40 53  2  0  0  0
 40 58  1  0  0  0
 41105  1  0  0  0
 41106  1  0  0  0
 41107  1  0  0  0
 41 48  1  0  0  0
 42 43  1  0  0  0
 42 66  1  0  0  0
 42108  1  0  0  0
 42109  1  0  0  0
 43 44  1  0  0  0
 44110  1  0  0  0
 45 46  2  0  0  0
 45111  1  0  0  0
 46112  1  0  0  0
 47113  1  0  0  0
 47114  1  0  0  0
 48 56  1  0  0  0
 48 65  1  0  0  0
 48115  1  0  0  0
 49 50  1  0  0  0
 49 53  1  0  0  0
 49 64  1  0  0  0
 49116  1  0  0  0
 50 51  1  0  0  0
 50117  1  0  0  0
 50118  1  0  0  0
 51 52  1  0  0  0
 51119  1  0  0  0
 51120  1  0  0  0
 52121  1  0  0  0
 52122  1  0  0  0
 53 54  1  0  0  0
 54 55  2  0  0  0
 54123  1  0  0  0
 55 57  1  0  0  0
 55124  1  0  0  0
 56 69  2  0  0  0
 57 58  2  0  0  0
 57125  1  0  0  0
 58126  1  0  0  0
 59 60  1  0  0  0
 59 61  1  0  0  0
 59 62  1  0  0  0
 60127  1  0  0  0
 60128  1  0  0  0
 60129  1  0  0  0
 61130  1  0  0  0
 61131  1  0  0  0
 61132  1  0  0  0
 62133  1  0  0  0
 62134  1  0  0  0
 62135  1  0  0  0
 63 65  1  0  0  0
 63136  1  0  0  0
 63137  1  0  0  0
 63138  1  0  0  0
 64139  1  0  0  0
 65140  1  0  0  0
 68 79  1  0  0  0
 71 72  2  0  0  0
 71 75  1  0  0  0
 71141  1  0  0  0
 72 73  1  0  0  0
 72 77  1  0  0  0
 73 74  2  0  0  0
 73 79  1  0  0  0
 74 76  1  0  0  0
 74 78  1  0  0  0
 75 76  2  0  0  0
 75 80  1  0  0  0
 76 81  1  0  0  0
 77142  1  0  0  0
 77143  1  0  0  0
 77144  1  0  0  0
 78145  1  0  0  0
 78146  1  0  0  0
 78147  1  0  0  0
 79148  1  0  0  0
 79149  1  0  0  0
 80150  1  0  0  0
M  ISO  4   1 100  68 101  79 101  80 100
M  END
> <chiral flag>
0

> <version>
0

> <s_m_source_file>
/data/baiqing/PycharmProjects/Reinvent-master-3.2/result/LINK_invent/BTK/process_docking_weight1_custom_sum_contain_oxygen_bond_distance_aromatic_linkinvent_7_9_3/rearranged_h_0017.sdf

> <i_m_source_file_index>
60

> <r_mmod_Potential_Energy-OPLS-2005>
2270.41796875

> <r_mmod_Stretch_Energy-OPLS-2005>
928.454040527344

> <r_mmod_Bend_Energy-OPLS-2005>
647.606750488281

> <r_mmod_Torsional_Energy-OPLS-2005>
265.037506103516

> <r_mmod_Improper_Torsional_Energy-OPLS-2005>
10.5070247650146

> <r_mmod_Van_der_Waal_Energy-OPLS-2005>
134.255126953125

> <r_mmod_Electrostatic_Energy-OPLS-2005>
-369.675018310547

> <r_mmod_Solvation_Energy-OPLS-2005>
-208.952545166016

> <b_mmod_Minimization_Converged-OPLS-2005>
0

> <r_mmod_RMS_Derivative-OPLS-2005>
1.01162612438202

$$$$
62
                    3D
 Structure written by MMmdl.
160168  0  0  1  0            999 V2000
  -30.3771  -15.3822   20.3624 C   0  0  0  0  0  0
  -30.4393  -12.8911   19.5365 C   0  0  0  0  0  0
  -29.5419  -12.5932   18.3066 C   0  0  0  0  0  0
  -28.1004  -12.2907   18.7451 C   0  0  0  0  0  0
  -27.6063  -13.2836   19.8224 C   0  0  2  0  0  0
  -28.6333  -13.4971   20.9546 C   0  0  0  0  0  0
  -25.2344  -13.8273   20.5758 C   0  0  0  0  0  0
  -24.1715  -13.0442   20.9297 C   0  0  0  0  0  0
  -24.6398  -11.6947   20.8789 C   0  0  0  0  0  0
  -23.9108  -10.4293   21.0427 C   0  0  0  0  0  0
  -24.3634   -9.4194   21.9192 C   0  0  0  0  0  0
  -23.6305   -8.2229   22.0755 C   0  0  0  0  0  0
  -22.4281   -8.0279   21.3550 C   0  0  0  0  0  0
  -21.9938   -9.0262   20.4646 C   0  0  0  0  0  0
  -22.7282  -10.2130   20.3060 C   0  0  0  0  0  0
  -21.6848   -6.0734   22.5281 C   0  0  0  0  0  0
  -21.4013   -6.5635   23.8230 C   0  0  0  0  0  0
  -21.3660   -5.6780   24.9188 C   0  0  0  0  0  0
  -21.6035   -4.3050   24.7237 C   0  0  0  0  0  0
  -21.8816   -3.8143   23.4358 C   0  0  0  0  0  0
  -21.9194   -4.6968   22.3418 C   0  0  0  0  0  0
  -22.7728  -13.5178   21.1933 C   0  0  0  0  0  0
  -22.1659   -4.2140   21.0986 F   0  0  0  0  0  0
  -21.5630   -3.4535   25.7750 F   0  0  0  0  0  0
  -29.8484  -14.0457   20.3253 N   0  0  0  0  0  0
  -26.2781  -12.9556   20.3222 N   0  0  0  0  0  0
  -25.9331  -11.6658   20.5737 N   0  0  0  0  0  0
  -22.0369  -12.8167   22.0486 N   0  0  0  0  0  0
  -25.3959  -15.2015   20.4132 N   0  0  0  0  0  0
  -31.6018  -15.3792   20.1495 O   0  0  0  0  0  0
  -21.6636   -6.8887   21.4248 O   0  0  0  0  0  0
  -22.3413  -14.5477   20.6766 O   0  0  0  0  0  0
  -24.6697  -31.8109   23.1608 C   0  0  0  0  0  0
  -25.9349  -32.4518   23.8104 C   0  0  1  0  0  0
  -27.2450  -26.8458   20.1974 C   0  0  0  0  0  0
  -25.5971  -33.8333   24.2024 N   0  0  0  0  0  0
  -23.4919  -30.4124   21.5109 C   0  0  2  0  0  0
  -24.9549  -28.7798   20.1108 C   0  0  0  0  0  0
  -22.7711  -29.4329   22.4742 C   0  0  0  0  0  0
  -18.0323  -28.1387   22.8416 C   0  0  0  0  0  0
  -24.1482  -36.7184   23.2645 C   0  0  0  0  0  0
  -26.0612  -30.5902   21.4041 C   0  0  0  0  0  0
  -26.1356  -29.1685   20.7553 C   0  0  0  0  0  0
  -27.2681  -28.2233   20.7741 C   0  0  0  0  0  0
  -26.0371  -26.6314   19.4919 C   0  0  0  0  0  0
  -24.9345  -27.5330   19.4599 C   0  0  0  0  0  0
  -23.7410  -29.7129   20.1417 C   0  0  0  0  0  0
  -25.4116  -36.2922   24.0300 C   0  0  1  0  0  0
  -20.5937  -28.3722   23.1144 C   0  0  2  0  0  0
  -20.6772  -26.9384   22.5390 C   0  0  0  0  0  0
  -19.5769  -26.6355   21.5169 C   0  0  0  0  0  0
  -18.1943  -26.7917   22.1571 C   0  0  0  0  0  0
  -19.1581  -28.8879   23.2749 C   0  0  0  0  0  0
  -18.9505  -30.1467   23.8792 C   0  0  0  0  0  0
  -17.6500  -30.6571   24.0535 C   0  0  0  0  0  0
  -25.9096  -34.9302   23.5000 C   0  0  0  0  0  0
  -16.5387  -29.9062   23.6335 C   0  0  0  0  0  0
  -16.7305  -28.6493   23.0335 C   0  0  0  0  0  0
  -26.4587  -31.6513   25.0684 C   0  0  0  0  0  0
  -25.3685  -31.3771   26.1327 C   0  0  0  0  0  0
  -27.0503  -30.2862   24.6477 C   0  0  0  0  0  0
  -27.6048  -32.4356   25.7484 C   0  0  0  0  0  0
  -27.5569  -37.1706   24.8448 C   0  0  0  0  0  0
  -21.4369  -29.3009   22.3500 N   0  0  0  0  0  0
  -26.4244  -37.3680   23.9439 N   0  0  0  0  0  0
  -24.7620  -30.9672   22.0799 N   0  0  0  0  0  0
  -23.4213  -28.7901   23.2999 O   0  0  0  0  0  0
  -28.2455  -25.7161   20.3389 O   0  0  0  0  0  0
  -26.5719  -34.8863   22.4607 O   0  0  0  0  0  0
  -23.5743  -32.1111   23.6646 O   0  0  0  0  0  0
  -30.8223  -18.8959   20.0422 C   0  0  0  0  0  0
  -30.6547  -20.3662   20.0721 C   0  0  0  0  0  0
  -29.3348  -20.7848   20.3474 C   0  0  0  0  0  0
  -29.7013  -18.1801   20.3552 C   0  0  0  0  0  0
  -33.0914  -20.4977   19.3274 C   0  0  0  0  0  0
  -32.3158  -21.8433   21.2678 C   0  0  0  0  0  0
  -31.6138  -22.4323   18.9208 C   0  0  0  0  0  0
  -27.3915  -19.1685   20.9129 C   0  0  0  0  0  0
  -28.7027  -22.4426   20.7185 C   0  0  0  0  0  0
  -28.2698  -24.0698   19.9261 C   0  0  0  0  0  0
  -31.8839  -21.2790   19.8986 C   0  0  0  0  0  0
  -28.7773  -19.3716   20.5346 N   0  0  0  0  0  0
  -29.5715  -16.6579   20.4608 N   0  0  0  0  0  0
  -31.4476  -13.1218   19.1906 H   0  0  0  0  0  0
  -30.5463  -12.0037   20.1628 H   0  0  0  0  0  0
  -29.9436  -11.7574   17.7302 H   0  0  0  0  0  0
  -29.5458  -13.4579   17.6419 H   0  0  0  0  0  0
  -28.0913  -11.2821   19.1576 H   0  0  0  0  0  0
  -27.4274  -12.2772   17.8860 H   0  0  0  0  0  0
  -27.5108  -14.2367   19.2993 H   0  0  0  0  0  0
  -28.8287  -12.5698   21.4947 H   0  0  0  0  0  0
  -28.2523  -14.2115   21.6856 H   0  0  0  0  0  0
  -25.2767   -9.5655   22.4783 H   0  0  0  0  0  0
  -23.9988   -7.4621   22.7478 H   0  0  0  0  0  0
  -21.0852   -8.8801   19.8956 H   0  0  0  0  0  0
  -22.3752  -10.9671   19.6161 H   0  0  0  0  0  0
  -21.2002   -7.6136   23.9733 H   0  0  0  0  0  0
  -21.1479   -6.0510   25.9088 H   0  0  0  0  0  0
  -22.0595   -2.7604   23.2873 H   0  0  0  0  0  0
  -22.3968  -11.9836   22.4888 H   0  0  0  0  0  0
  -21.0980  -13.1183   22.2660 H   0  0  0  0  0  0
  -24.6131  -15.8415   20.4983 H   0  0  0  0  0  0
  -26.2141  -15.6315   20.0055 H   0  0  0  0  0  0
  -26.7425  -32.5022   23.0818 H   0  0  0  0  0  0
  -25.0059  -33.9389   25.0130 H   0  0  0  0  0  0
  -22.8094  -31.2433   21.3259 H   0  0  0  0  0  0
  -23.3770  -35.9481   23.3212 H   0  0  0  0  0  0
  -24.3574  -36.8956   22.2081 H   0  0  0  0  0  0
  -23.7216  -37.6325   23.6786 H   0  0  0  0  0  0
  -26.2357  -31.3242   20.6160 H   0  0  0  0  0  0
  -26.9232  -30.6639   22.0551 H   0  0  0  0  0  0
  -28.1561  -28.5156   21.3181 H   0  0  0  0  0  0
  -25.9020  -25.6787   18.9998 H   0  0  0  0  0  0
  -24.0384  -27.2244   18.9394 H   0  0  0  0  0  0
  -23.9081  -30.4775   19.3821 H   0  0  0  0  0  0
  -22.8510  -29.1704   19.8166 H   0  0  0  0  0  0
  -25.1295  -36.1691   25.0783 H   0  0  0  0  0  0
  -20.9978  -28.3353   24.1291 H   0  0  0  0  0  0
  -20.5582  -26.2347   23.3651 H   0  0  0  0  0  0
  -21.6643  -26.7329   22.1234 H   0  0  0  0  0  0
  -19.6939  -25.6258   21.1237 H   0  0  0  0  0  0
  -19.6738  -27.3126   20.6661 H   0  0  0  0  0  0
  -17.4212  -26.6633   21.3982 H   0  0  0  0  0  0
  -18.0345  -26.0074   22.8977 H   0  0  0  0  0  0
  -19.7998  -30.7263   24.2131 H   0  0  0  0  0  0
  -17.5083  -31.6245   24.5154 H   0  0  0  0  0  0
  -15.5388  -30.2927   23.7749 H   0  0  0  0  0  0
  -15.8702  -28.0808   22.7071 H   0  0  0  0  0  0
  -24.5936  -30.7055   25.7641 H   0  0  0  0  0  0
  -24.8786  -32.2959   26.4547 H   0  0  0  0  0  0
  -25.7891  -30.9106   27.0248 H   0  0  0  0  0  0
  -26.3211  -29.6496   24.1467 H   0  0  0  0  0  0
  -27.3994  -29.7277   25.5176 H   0  0  0  0  0  0
  -27.9158  -30.4032   23.9950 H   0  0  0  0  0  0
  -27.2640  -33.3762   26.1827 H   0  0  0  0  0  0
  -28.3963  -32.6754   25.0374 H   0  0  0  0  0  0
  -28.0610  -31.8649   26.5593 H   0  0  0  0  0  0
  -28.2454  -38.0113   24.7577 H   0  0  0  0  0  0
  -28.1193  -36.2639   24.6153 H   0  0  0  0  0  0
  -27.2304  -37.1184   25.8846 H   0  0  0  0  0  0
  -20.9650  -29.8793   21.6689 H   0  0  0  0  0  0
  -26.0088  -38.2706   24.1557 H   0  0  0  0  0  0
  -31.7458  -18.3725   19.8443 H   0  0  0  0  0  0
  -33.4346  -19.7193   20.0097 H   0  0  0  0  0  0
  -33.9496  -21.1514   19.1647 H   0  0  0  0  0  0
  -32.8521  -20.0362   18.3677 H   0  0  0  0  0  0
  -32.4164  -21.0511   22.0101 H   0  0  0  0  0  0
  -31.6091  -22.5700   21.6634 H   0  0  0  0  0  0
  -33.2812  -22.3475   21.2060 H   0  0  0  0  0  0
  -31.2478  -22.0701   17.9612 H   0  0  0  0  0  0
  -32.5249  -22.9995   18.7237 H   0  0  0  0  0  0
  -30.8949  -23.1404   19.3153 H   0  0  0  0  0  0
  -26.7677  -19.9450   20.4724 H   0  0  0  0  0  0
  -27.2956  -19.2012   21.9974 H   0  0  0  0  0  0
  -27.0425  -18.1992   20.5557 H   0  0  0  0  0  0
  -29.4261  -22.7879   21.4540 H   0  0  0  0  0  0
  -27.8327  -22.2551   21.3470 H   0  0  0  0  0  0
  -27.2992  -23.8961   19.4648 H   0  0  0  0  0  0
  -28.9355  -24.1087   19.0658 H   0  0  0  0  0  0
  -28.6130  -16.3958   20.6364 H   0  0  0  0  0  0
  1 25  1  0  0  0
  1 30  2  0  0  0
  1 83  1  0  0  0
  2  3  1  0  0  0
  2 25  1  0  0  0
  2 84  1  0  0  0
  2 85  1  0  0  0
  3  4  1  0  0  0
  3 86  1  0  0  0
  3 87  1  0  0  0
  4  5  1  0  0  0
  4 88  1  0  0  0
  4 89  1  0  0  0
  5  6  1  0  0  0
  5 26  1  0  0  0
  5 90  1  0  0  0
  6 25  1  0  0  0
  6 91  1  0  0  0
  6 92  1  0  0  0
  7  8  2  0  0  0
  7 26  1  0  0  0
  7 29  1  0  0  0
  8  9  1  0  0  0
  8 22  1  0  0  0
  9 10  1  0  0  0
  9 27  2  0  0  0
 10 11  2  0  0  0
 10 15  1  0  0  0
 11 12  1  0  0  0
 11 93  1  0  0  0
 12 13  2  0  0  0
 12 94  1  0  0  0
 13 14  1  0  0  0
 13 31  1  0  0  0
 14 15  2  0  0  0
 14 95  1  0  0  0
 15 96  1  0  0  0
 16 17  2  0  0  0
 16 21  1  0  0  0
 16 31  1  0  0  0
 17 18  1  0  0  0
 17 97  1  0  0  0
 18 19  2  0  0  0
 18 98  1  0  0  0
 19 20  1  0  0  0
 19 24  1  0  0  0
 20 21  2  0  0  0
 20 99  1  0  0  0
 21 23  1  0  0  0
 22 28  1  0  0  0
 22 32  2  0  0  0
 26 27  1  0  0  0
 28100  1  0  0  0
 28101  1  0  0  0
 29102  1  0  0  0
 29103  1  0  0  0
 33 34  1  0  0  0
 33 66  1  0  0  0
 33 70  2  0  0  0
 34 36  1  0  0  0
 34 59  1  0  0  0
 34104  1  0  0  0
 35 44  2  0  0  0
 35 45  1  0  0  0
 35 68  1  0  0  0
 36 56  1  0  0  0
 36105  1  0  0  0
 37 39  1  0  0  0
 37 47  1  0  0  0
 37 66  1  0  0  0
 37106  1  0  0  0
 38 43  2  0  0  0
 38 46  1  0  0  0
 38 47  1  0  0  0
 39 64  1  0  0  0
 39 67  2  0  0  0
 40 52  1  0  0  0
 40 53  2  0  0  0
 40 58  1  0  0  0
 41107  1  0  0  0
 41108  1  0  0  0
 41109  1  0  0  0
 41 48  1  0  0  0
 42 43  1  0  0  0
 42 66  1  0  0  0
 42110  1  0  0  0
 42111  1  0  0  0
 43 44  1  0  0  0
 44112  1  0  0  0
 45 46  2  0  0  0
 45113  1  0  0  0
 46114  1  0  0  0
 47115  1  0  0  0
 47116  1  0  0  0
 48 56  1  0  0  0
 48 65  1  0  0  0
 48117  1  0  0  0
 49 50  1  0  0  0
 49 53  1  0  0  0
 49 64  1  0  0  0
 49118  1  0  0  0
 50 51  1  0  0  0
 50119  1  0  0  0
 50120  1  0  0  0
 51 52  1  0  0  0
 51121  1  0  0  0
 51122  1  0  0  0
 52123  1  0  0  0
 52124  1  0  0  0
 53 54  1  0  0  0
 54 55  2  0  0  0
 54125  1  0  0  0
 55 57  1  0  0  0
 55126  1  0  0  0
 56 69  2  0  0  0
 57 58  2  0  0  0
 57127  1  0  0  0
 58128  1  0  0  0
 59 60  1  0  0  0
 59 61  1  0  0  0
 59 62  1  0  0  0
 60129  1  0  0  0
 60130  1  0  0  0
 60131  1  0  0  0
 61132  1  0  0  0
 61133  1  0  0  0
 61134  1  0  0  0
 62135  1  0  0  0
 62136  1  0  0  0
 62137  1  0  0  0
 63 65  1  0  0  0
 63138  1  0  0  0
 63139  1  0  0  0
 63140  1  0  0  0
 64141  1  0  0  0
 65142  1  0  0  0
 68 80  1  0  0  0
 71 72  1  0  0  0
 71 74  2  0  0  0
 71143  1  0  0  0
 72 73  2  0  0  0
 72 81  1  0  0  0
 73 79  1  0  0  0
 73 82  1  0  0  0
 74 82  1  0  0  0
 74 83  1  0  0  0
 75144  1  0  0  0
 75145  1  0  0  0
 75146  1  0  0  0
 75 81  1  0  0  0
 76 81  1  0  0  0
 76147  1  0  0  0
 76148  1  0  0  0
 76149  1  0  0  0
 77 81  1  0  0  0
 77150  1  0  0  0
 77151  1  0  0  0
 77152  1  0  0  0
 78 82  1  0  0  0
 78153  1  0  0  0
 78154  1  0  0  0
 78155  1  0  0  0
 79 80  1  0  0  0
 79156  1  0  0  0
 79157  1  0  0  0
 80158  1  0  0  0
 80159  1  0  0  0
 83160  1  0  0  0
M  ISO  4   1 100  68 101  80 101  83 100
M  END
> <chiral flag>
0

> <version>
0

> <s_m_source_file>
/data/baiqing/PycharmProjects/Reinvent-master-3.2/result/LINK_invent/BTK/process_docking_weight1_custom_sum_contain_oxygen_bond_distance_aromatic_linkinvent_7_9_3/rearranged_h_0017.sdf

> <i_m_source_file_index>
61

> <r_mmod_Potential_Energy-OPLS-2005>
1568.74633789062

> <r_mmod_Stretch_Energy-OPLS-2005>
725.27734375

> <r_mmod_Bend_Energy-OPLS-2005>
536.302734375

> <r_mmod_Torsional_Energy-OPLS-2005>
226.909362792969

> <r_mmod_Improper_Torsional_Energy-OPLS-2005>
5.85681247711182

> <r_mmod_Van_der_Waal_Energy-OPLS-2005>
110.275932312012

> <r_mmod_Electrostatic_Energy-OPLS-2005>
-415.610748291016

> <r_mmod_Solvation_Energy-OPLS-2005>
-213.118133544922

> <b_mmod_Minimization_Converged-OPLS-2005>
0

> <r_mmod_RMS_Derivative-OPLS-2005>
3.37580180168152

$$$$
63
                    3D
 Structure written by MMmdl.
159167  0  0  1  0            999 V2000
  -30.4212  -15.0330   20.4562 C   0  0  0  0  0  0
  -30.4572  -12.6533   19.4940 C   0  0  0  0  0  0
  -29.5219  -12.5469   18.2591 C   0  0  0  0  0  0
  -28.0570  -12.3113   18.6793 C   0  0  0  0  0  0
  -27.6307  -13.2353   19.8474 C   0  0  2  0  0  0
  -28.6752  -13.2265   20.9830 C   0  0  0  0  0  0
  -25.2475  -13.8166   20.5630 C   0  0  0  0  0  0
  -24.1791  -13.0421   20.9220 C   0  0  0  0  0  0
  -24.6391  -11.6899   20.8762 C   0  0  0  0  0  0
  -23.9055  -10.4280   21.0399 C   0  0  0  0  0  0
  -24.3619   -9.4189   21.9156 C   0  0  0  0  0  0
  -23.6294   -8.2230   22.0740 C   0  0  0  0  0  0
  -22.4262   -8.0269   21.3543 C   0  0  0  0  0  0
  -21.9893   -9.0239   20.4640 C   0  0  0  0  0  0
  -22.7234  -10.2117   20.3046 C   0  0  0  0  0  0
  -21.6846   -6.0735   22.5269 C   0  0  0  0  0  0
  -21.4013   -6.5642   23.8206 C   0  0  0  0  0  0
  -21.3651   -5.6795   24.9167 C   0  0  0  0  0  0
  -21.6040   -4.3062   24.7217 C   0  0  0  0  0  0
  -21.8817   -3.8154   23.4343 C   0  0  0  0  0  0
  -21.9195   -4.6969   22.3402 C   0  0  0  0  0  0
  -22.7815  -13.5218   21.1886 C   0  0  0  0  0  0
  -22.1664   -4.2155   21.0980 F   0  0  0  0  0  0
  -21.5622   -3.4537   25.7729 F   0  0  0  0  0  0
  -29.9290  -13.7211   20.3996 N   0  0  0  0  0  0
  -26.2902  -12.9366   20.3271 N   0  0  0  0  0  0
  -25.9324  -11.6517   20.5792 N   0  0  0  0  0  0
  -22.0458  -12.8209   22.0445 N   0  0  0  0  0  0
  -25.4103  -15.1863   20.3840 N   0  0  0  0  0  0
  -31.6101  -15.1861   20.1418 O   0  0  0  0  0  0
  -21.6635   -6.8860   21.4229 O   0  0  0  0  0  0
  -22.3494  -14.5500   20.6690 O   0  0  0  0  0  0
  -24.6464  -31.8347   23.1779 C   0  0  0  0  0  0
  -25.9205  -32.4649   23.8203 C   0  0  1  0  0  0
  -27.2221  -27.0622   20.2021 C   0  0  0  0  0  0
  -25.5938  -33.8457   24.2108 N   0  0  0  0  0  0
  -23.4572  -30.4509   21.5240 C   0  0  2  0  0  0
  -24.9087  -28.8520   20.1232 C   0  0  0  0  0  0
  -22.7585  -29.4510   22.4802 C   0  0  0  0  0  0
  -18.0303  -28.1396   22.8468 C   0  0  0  0  0  0
  -24.1493  -36.7230   23.2650 C   0  0  0  0  0  0
  -26.0156  -30.6871   21.3880 C   0  0  0  0  0  0
  -26.0878  -29.2866   20.7463 C   0  0  0  0  0  0
  -27.2474  -28.4130   20.7525 C   0  0  0  0  0  0
  -26.0164  -26.7332   19.5499 C   0  0  0  0  0  0
  -24.8913  -27.5904   19.5073 C   0  0  0  0  0  0
  -23.6923  -29.7682   20.1500 C   0  0  0  0  0  0
  -25.4113  -36.2985   24.0314 C   0  0  1  0  0  0
  -20.5928  -28.3743   23.1196 C   0  0  2  0  0  0
  -20.6785  -26.9433   22.5385 C   0  0  0  0  0  0
  -19.5760  -26.6353   21.5209 C   0  0  0  0  0  0
  -18.1943  -26.7931   22.1619 C   0  0  0  0  0  0
  -19.1566  -28.8886   23.2837 C   0  0  0  0  0  0
  -18.9505  -30.1490   23.8847 C   0  0  0  0  0  0
  -17.6501  -30.6601   24.0577 C   0  0  0  0  0  0
  -25.9079  -34.9386   23.5024 C   0  0  0  0  0  0
  -16.5388  -29.9101   23.6344 C   0  0  0  0  0  0
  -16.7295  -28.6522   23.0343 C   0  0  0  0  0  0
  -26.4512  -31.6548   25.0689 C   0  0  0  0  0  0
  -25.3701  -31.3784   26.1412 C   0  0  0  0  0  0
  -27.0392  -30.2915   24.6336 C   0  0  0  0  0  0
  -27.6010  -32.4378   25.7454 C   0  0  0  0  0  0
  -27.5574  -37.1744   24.8459 C   0  0  0  0  0  0
  -21.4263  -29.3055   22.3558 N   0  0  0  0  0  0
  -26.4246  -37.3726   23.9454 N   0  0  0  0  0  0
  -24.7272  -31.0162   22.0848 N   0  0  0  0  0  0
  -23.4199  -28.8053   23.2976 O   0  0  0  0  0  0
  -28.2970  -26.0844   20.1551 O   0  0  0  0  0  0
  -26.5688  -34.8907   22.4618 O   0  0  0  0  0  0
  -23.5562  -32.1251   23.6934 O   0  0  0  0  0  0
  -29.7289  -18.8507   20.1414 C   0  0  0  0  0  0
  -29.3375  -17.6709   20.8539 C   0  0  0  0  0  0
  -28.4705  -18.3093   21.8364 C   0  0  0  0  0  0
  -27.7677  -16.2265   23.1821 C   0  0  0  0  0  0
  -26.2204  -18.1511   23.0204 C   0  0  0  0  0  0
  -28.3639  -18.3374   24.3398 C   0  0  0  0  0  0
  -28.2536  -22.9932   20.2634 C   0  0  0  0  0  0
  -29.3637  -21.6898   20.4739 C   0  0  0  0  0  0
  -28.3451  -24.6378   20.8063 C   0  0  0  0  0  0
  -27.7176  -17.7580   23.0629 C   0  0  0  0  0  0
  -28.3791  -19.6584   21.6892 N   0  0  0  0  0  0
  -29.1238  -20.0977   20.6465 N   0  0  0  0  0  0
  -29.5030  -16.1117   20.7165 N   0  0  0  0  0  0
  -31.4745  -12.8731   19.1671 H   0  0  0  0  0  0
  -30.5171  -11.6979   20.0182 H   0  0  0  0  0  0
  -29.8547  -11.7398   17.6053 H   0  0  0  0  0  0
  -29.5811  -13.4642   17.6704 H   0  0  0  0  0  0
  -27.9672  -11.2697   18.9887 H   0  0  0  0  0  0
  -27.3864  -12.4336   17.8275 H   0  0  0  0  0  0
  -27.6010  -14.2423   19.4313 H   0  0  0  0  0  0
  -28.8005  -12.2232   21.3953 H   0  0  0  0  0  0
  -28.3641  -13.8459   21.8198 H   0  0  0  0  0  0
  -25.2773   -9.5650   22.4718 H   0  0  0  0  0  0
  -23.9997   -7.4624   22.7466 H   0  0  0  0  0  0
  -21.0810   -8.8786   19.8947 H   0  0  0  0  0  0
  -22.3700  -10.9661   19.6158 H   0  0  0  0  0  0
  -21.2000   -7.6145   23.9716 H   0  0  0  0  0  0
  -21.1466   -6.0515   25.9067 H   0  0  0  0  0  0
  -22.0596   -2.7617   23.2836 H   0  0  0  0  0  0
  -22.4104  -11.9893   22.4852 H   0  0  0  0  0  0
  -21.1073  -13.1202   22.2681 H   0  0  0  0  0  0
  -24.6079  -15.8058   20.4021 H   0  0  0  0  0  0
  -26.2203  -15.6097   19.9526 H   0  0  0  0  0  0
  -26.7274  -32.5237   23.0933 H   0  0  0  0  0  0
  -25.0121  -33.9592   25.0285 H   0  0  0  0  0  0
  -22.7668  -31.2786   21.3550 H   0  0  0  0  0  0
  -23.3784  -35.9540   23.3242 H   0  0  0  0  0  0
  -24.3590  -36.8903   22.2075 H   0  0  0  0  0  0
  -23.7186  -37.6371   23.6748 H   0  0  0  0  0  0
  -26.1789  -31.4293   20.6051 H   0  0  0  0  0  0
  -26.8811  -30.7418   22.0364 H   0  0  0  0  0  0
  -28.1532  -28.7557   21.2356 H   0  0  0  0  0  0
  -25.9380  -25.7645   19.0758 H   0  0  0  0  0  0
  -23.9935  -27.2469   19.0108 H   0  0  0  0  0  0
  -23.8494  -30.5386   19.3954 H   0  0  0  0  0  0
  -22.8032  -29.2217   19.8271 H   0  0  0  0  0  0
  -25.1279  -36.1793   25.0792 H   0  0  0  0  0  0
  -21.0051  -28.3345   24.1307 H   0  0  0  0  0  0
  -20.5675  -26.2357   23.3616 H   0  0  0  0  0  0
  -21.6650  -26.7414   22.1188 H   0  0  0  0  0  0
  -19.6949  -25.6251   21.1248 H   0  0  0  0  0  0
  -19.6712  -27.3165   20.6748 H   0  0  0  0  0  0
  -17.4212  -26.6698   21.4020 H   0  0  0  0  0  0
  -18.0356  -26.0059   22.9004 H   0  0  0  0  0  0
  -19.7999  -30.7310   24.2160 H   0  0  0  0  0  0
  -17.5087  -31.6282   24.5190 H   0  0  0  0  0  0
  -15.5400  -30.3016   23.7704 H   0  0  0  0  0  0
  -15.8683  -28.0863   22.7057 H   0  0  0  0  0  0
  -24.5866  -30.7129   25.7773 H   0  0  0  0  0  0
  -24.8966  -32.3010   26.4782 H   0  0  0  0  0  0
  -25.8006  -30.8988   27.0220 H   0  0  0  0  0  0
  -26.3023  -29.6616   24.1345 H   0  0  0  0  0  0
  -27.3946  -29.7228   25.4940 H   0  0  0  0  0  0
  -27.8957  -30.4090   23.9694 H   0  0  0  0  0  0
  -27.2560  -33.3725   26.1897 H   0  0  0  0  0  0
  -28.3877  -32.6860   25.0321 H   0  0  0  0  0  0
  -28.0647  -31.8612   26.5470 H   0  0  0  0  0  0
  -28.2505  -38.0138   24.7584 H   0  0  0  0  0  0
  -28.1125  -36.2635   24.6137 H   0  0  0  0  0  0
  -27.2320  -37.1206   25.8872 H   0  0  0  0  0  0
  -20.9470  -29.8799   21.6762 H   0  0  0  0  0  0
  -26.0085  -38.2758   24.1566 H   0  0  0  0  0  0
  -30.4048  -18.9156   19.2999 H   0  0  0  0  0  0
  -27.2693  -15.7541   22.3379 H   0  0  0  0  0  0
  -27.2502  -15.8827   24.0794 H   0  0  0  0  0  0
  -28.7917  -15.8593   23.2492 H   0  0  0  0  0  0
  -25.7060  -17.6861   22.1779 H   0  0  0  0  0  0
  -26.0785  -19.2287   22.9345 H   0  0  0  0  0  0
  -25.7038  -17.8387   23.9293 H   0  0  0  0  0  0
  -29.4331  -18.1278   24.3693 H   0  0  0  0  0  0
  -27.9231  -17.9141   25.2430 H   0  0  0  0  0  0
  -28.2445  -19.4198   24.3978 H   0  0  0  0  0  0
  -27.3439  -22.6232   20.7372 H   0  0  0  0  0  0
  -27.9888  -23.0236   19.2074 H   0  0  0  0  0  0
  -29.9320  -21.9588   21.3651 H   0  0  0  0  0  0
  -30.0968  -21.7847   19.6720 H   0  0  0  0  0  0
  -29.2978  -24.6694   21.3351 H   0  0  0  0  0  0
  -27.6278  -24.7072   21.6246 H   0  0  0  0  0  0
  -28.6488  -15.6599   21.0104 H   0  0  0  0  0  0
  1 25  1  0  0  0
  1 30  2  0  0  0
  1 83  1  0  0  0
  2  3  1  0  0  0
  2 25  1  0  0  0
  2 84  1  0  0  0
  2 85  1  0  0  0
  3  4  1  0  0  0
  3 86  1  0  0  0
  3 87  1  0  0  0
  4  5  1  0  0  0
  4 88  1  0  0  0
  4 89  1  0  0  0
  5  6  1  0  0  0
  5 26  1  0  0  0
  5 90  1  0  0  0
  6 25  1  0  0  0
  6 91  1  0  0  0
  6 92  1  0  0  0
  7  8  2  0  0  0
  7 26  1  0  0  0
  7 29  1  0  0  0
  8  9  1  0  0  0
  8 22  1  0  0  0
  9 10  1  0  0  0
  9 27  2  0  0  0
 10 11  2  0  0  0
 10 15  1  0  0  0
 11 12  1  0  0  0
 11 93  1  0  0  0
 12 13  2  0  0  0
 12 94  1  0  0  0
 13 14  1  0  0  0
 13 31  1  0  0  0
 14 15  2  0  0  0
 14 95  1  0  0  0
 15 96  1  0  0  0
 16 17  2  0  0  0
 16 21  1  0  0  0
 16 31  1  0  0  0
 17 18  1  0  0  0
 17 97  1  0  0  0
 18 19  2  0  0  0
 18 98  1  0  0  0
 19 20  1  0  0  0
 19 24  1  0  0  0
 20 21  2  0  0  0
 20 99  1  0  0  0
 21 23  1  0  0  0
 22 28  1  0  0  0
 22 32  2  0  0  0
 26 27  1  0  0  0
 28100  1  0  0  0
 28101  1  0  0  0
 29102  1  0  0  0
 29103  1  0  0  0
 33 34  1  0  0  0
 33 66  1  0  0  0
 33 70  2  0  0  0
 34 36  1  0  0  0
 34 59  1  0  0  0
 34104  1  0  0  0
 35 44  2  0  0  0
 35 45  1  0  0  0
 35 68  1  0  0  0
 36 56  1  0  0  0
 36105  1  0  0  0
 37 39  1  0  0  0
 37 47  1  0  0  0
 37 66  1  0  0  0
 37106  1  0  0  0
 38 43  2  0  0  0
 38 46  1  0  0  0
 38 47  1  0  0  0
 39 64  1  0  0  0
 39 67  2  0  0  0
 40 52  1  0  0  0
 40 53  2  0  0  0
 40 58  1  0  0  0
 41107  1  0  0  0
 41108  1  0  0  0
 41109  1  0  0  0
 41 48  1  0  0  0
 42 43  1  0  0  0
 42 66  1  0  0  0
 42110  1  0  0  0
 42111  1  0  0  0
 43 44  1  0  0  0
 44112  1  0  0  0
 45 46  2  0  0  0
 45113  1  0  0  0
 46114  1  0  0  0
 47115  1  0  0  0
 47116  1  0  0  0
 48 56  1  0  0  0
 48 65  1  0  0  0
 48117  1  0  0  0
 49 50  1  0  0  0
 49 53  1  0  0  0
 49 64  1  0  0  0
 49118  1  0  0  0
 50 51  1  0  0  0
 50119  1  0  0  0
 50120  1  0  0  0
 51 52  1  0  0  0
 51121  1  0  0  0
 51122  1  0  0  0
 52123  1  0  0  0
 52124  1  0  0  0
 53 54  1  0  0  0
 54 55  2  0  0  0
 54125  1  0  0  0
 55 57  1  0  0  0
 55126  1  0  0  0
 56 69  2  0  0  0
 57 58  2  0  0  0
 57127  1  0  0  0
 58128  1  0  0  0
 59 60  1  0  0  0
 59 61  1  0  0  0
 59 62  1  0  0  0
 60129  1  0  0  0
 60130  1  0  0  0
 60131  1  0  0  0
 61132  1  0  0  0
 61133  1  0  0  0
 61134  1  0  0  0
 62135  1  0  0  0
 62136  1  0  0  0
 62137  1  0  0  0
 63 65  1  0  0  0
 63138  1  0  0  0
 63139  1  0  0  0
 63140  1  0  0  0
 64141  1  0  0  0
 65142  1  0  0  0
 68 79  1  0  0  0
 71 72  2  0  0  0
 71 82  1  0  0  0
 71143  1  0  0  0
 72 73  1  0  0  0
 72 83  1  0  0  0
 73 80  1  0  0  0
 73 81  2  0  0  0
 74144  1  0  0  0
 74145  1  0  0  0
 74146  1  0  0  0
 74 80  1  0  0  0
 75 80  1  0  0  0
 75147  1  0  0  0
 75148  1  0  0  0
 75149  1  0  0  0
 76 80  1  0  0  0
 76150  1  0  0  0
 76151  1  0  0  0
 76152  1  0  0  0
 77 78  1  0  0  0
 77 79  1  0  0  0
 77153  1  0  0  0
 77154  1  0  0  0
 78 82  1  0  0  0
 78155  1  0  0  0
 78156  1  0  0  0
 79157  1  0  0  0
 79158  1  0  0  0
 81 82  1  0  0  0
 83159  1  0  0  0
M  ISO  4   1 100  68 101  79 101  83 100
M  END
> <chiral flag>
0

> <version>
0

> <s_m_source_file>
/data/baiqing/PycharmProjects/Reinvent-master-3.2/result/LINK_invent/BTK/process_docking_weight1_custom_sum_contain_oxygen_bond_distance_aromatic_linkinvent_7_9_3/rearranged_h_0017.sdf

> <i_m_source_file_index>
62

> <r_mmod_Potential_Energy-OPLS-2005>
758.655578613281

> <r_mmod_Stretch_Energy-OPLS-2005>
346.092498779297

> <r_mmod_Bend_Energy-OPLS-2005>
403.446380615234

> <r_mmod_Torsional_Energy-OPLS-2005>
262.103546142578

> <r_mmod_Improper_Torsional_Energy-OPLS-2005>
6.85418701171875

> <r_mmod_Van_der_Waal_Energy-OPLS-2005>
104.30541229248

> <r_mmod_Electrostatic_Energy-OPLS-2005>
-412.184143066406

> <r_mmod_Solvation_Energy-OPLS-2005>
-208.26545715332

> <b_mmod_Minimization_Converged-OPLS-2005>
0

> <r_mmod_RMS_Derivative-OPLS-2005>
3.86603236198425

$$$$
64
                    3D
 Structure written by MMmdl.
143150  0  0  1  0            999 V2000
  -30.1636  -16.0165   20.2837 C   0  0  0  0  0  0
  -30.4021  -13.3807   19.5097 C   0  0  0  0  0  0
  -29.5672  -12.7447   18.3499 C   0  0  0  0  0  0
  -28.1808  -12.2975   18.8321 C   0  0  0  0  0  0
  -27.5888  -13.3376   19.8001 C   0  0  2  0  0  0
  -28.5861  -13.8471   20.8777 C   0  0  0  0  0  0
  -25.2337  -13.8308   20.5832 C   0  0  0  0  0  0
  -24.1745  -13.0427   20.9297 C   0  0  0  0  0  0
  -24.6485  -11.6955   20.8763 C   0  0  0  0  0  0
  -23.9183  -10.4297   21.0405 C   0  0  0  0  0  0
  -24.3690   -9.4205   21.9200 C   0  0  0  0  0  0
  -23.6323   -8.2263   22.0773 C   0  0  0  0  0  0
  -22.4301   -8.0322   21.3557 C   0  0  0  0  0  0
  -21.9971   -9.0311   20.4658 C   0  0  0  0  0  0
  -22.7347  -10.2160   20.3056 C   0  0  0  0  0  0
  -21.6865   -6.0767   22.5277 C   0  0  0  0  0  0
  -21.4023   -6.5660   23.8211 C   0  0  0  0  0  0
  -21.3650   -5.6801   24.9170 C   0  0  0  0  0  0
  -21.6034   -4.3069   24.7210 C   0  0  0  0  0  0
  -21.8818   -3.8167   23.4328 C   0  0  0  0  0  0
  -21.9194   -4.6989   22.3390 C   0  0  0  0  0  0
  -22.7748  -13.5156   21.1899 C   0  0  0  0  0  0
  -22.1667   -4.2180   21.0968 F   0  0  0  0  0  0
  -21.5617   -3.4544   25.7721 F   0  0  0  0  0  0
  -29.6793  -14.5908   20.1704 N   0  0  0  0  0  0
  -26.2827  -12.9698   20.3296 N   0  0  0  0  0  0
  -25.9450  -11.6736   20.5678 N   0  0  0  0  0  0
  -22.0376  -12.8144   22.0431 N   0  0  0  0  0  0
  -25.3914  -15.2038   20.4227 N   0  0  0  0  0  0
  -31.4110  -15.8730   20.3150 O   0  0  0  0  0  0
  -21.6650   -6.8922   21.4243 O   0  0  0  0  0  0
  -22.3446  -14.5464   20.6738 O   0  0  0  0  0  0
  -24.7056  -31.7721   23.1279 C   0  0  0  0  0  0
  -25.9532  -32.4316   23.7901 C   0  0  1  0  0  0
  -27.2397  -26.4470   20.2423 C   0  0  0  0  0  0
  -25.6018  -33.8158   24.1777 N   0  0  0  0  0  0
  -23.5424  -30.3631   21.4905 C   0  0  2  0  0  0
  -25.0002  -28.6446   20.1351 C   0  0  0  0  0  0
  -22.7854  -29.4187   22.4644 C   0  0  0  0  0  0
  -18.0371  -28.1416   22.8423 C   0  0  0  0  0  0
  -24.1517  -36.7085   23.2660 C   0  0  0  0  0  0
  -26.1337  -30.4200   21.4327 C   0  0  0  0  0  0
  -26.1981  -28.9547   20.7902 C   0  0  0  0  0  0
  -27.2916  -27.8963   20.7967 C   0  0  0  0  0  0
  -26.0015  -26.4115   19.5305 C   0  0  0  0  0  0
  -24.9557  -27.3989   19.4822 C   0  0  0  0  0  0
  -23.8105  -29.6337   20.1397 C   0  0  0  0  0  0
  -25.4171  -36.2793   24.0256 C   0  0  1  0  0  0
  -20.6014  -28.3800   23.1070 C   0  0  2  0  0  0
  -20.6839  -26.9442   22.5381 C   0  0  0  0  0  0
  -19.5827  -26.6358   21.5191 C   0  0  0  0  0  0
  -18.2003  -26.7940   22.1583 C   0  0  0  0  0  0
  -19.1638  -28.8931   23.2716 C   0  0  0  0  0  0
  -18.9548  -30.1508   23.8772 C   0  0  0  0  0  0
  -17.6539  -30.6592   24.0541 C   0  0  0  0  0  0
  -25.9163  -34.9196   23.4875 C   0  0  0  0  0  0
  -16.5425  -29.9075   23.6350 C   0  0  0  0  0  0
  -16.7348  -28.6498   23.0359 C   0  0  0  0  0  0
  -26.4636  -31.6450   25.0620 C   0  0  0  0  0  0
  -25.3610  -31.3840   26.1159 C   0  0  0  0  0  0
  -27.0610  -30.2754   24.6715 C   0  0  0  0  0  0
  -27.6057  -32.4362   25.7419 C   0  0  0  0  0  0
  -27.5566  -37.1691   24.8469 C   0  0  0  0  0  0
  -21.4482  -29.3015   22.3371 N   0  0  0  0  0  0
  -26.4271  -37.3581   23.9410 N   0  0  0  0  0  0
  -24.8204  -30.8911   22.0685 N   0  0  0  0  0  0
  -23.4189  -28.7845   23.3110 O   0  0  0  0  0  0
  -28.2103  -25.1382   20.2091 O   0  0  0  0  0  0
  -26.5834  -34.8827   22.4520 O   0  0  0  0  0  0
  -23.6030  -32.0923   23.6086 O   0  0  0  0  0  0
  -28.1464  -17.3478   19.4672 C   0  0  0  0  0  0
  -28.8124  -21.3013   19.9737 C   0  0  0  0  0  0
  -29.3809  -19.3622   20.5689 C   0  0  0  0  0  0
  -28.2518  -23.2636   20.5080 C   0  0  0  0  0  0
  -29.4090  -17.4905   20.1879 N   0  0  0  0  0  0
  -31.3491  -13.7206   19.0871 H   0  0  0  0  0  0
  -30.6891  -12.6298   20.2484 H   0  0  0  0  0  0
  -30.1007  -11.9032   17.9056 H   0  0  0  0  0  0
  -29.4507  -13.4882   17.5599 H   0  0  0  0  0  0
  -28.2969  -11.3475   19.3561 H   0  0  0  0  0  0
  -27.5119  -12.1116   17.9905 H   0  0  0  0  0  0
  -27.3888  -14.1854   19.1460 H   0  0  0  0  0  0
  -28.9521  -13.0395   21.5131 H   0  0  0  0  0  0
  -28.0824  -14.5461   21.5462 H   0  0  0  0  0  0
  -25.2818   -9.5670   22.4811 H   0  0  0  0  0  0
  -24.0006   -7.4646   22.7503 H   0  0  0  0  0  0
  -21.0901   -8.8859   19.8964 H   0  0  0  0  0  0
  -22.3825  -10.9720   19.6176 H   0  0  0  0  0  0
  -21.2033   -7.6171   23.9723 H   0  0  0  0  0  0
  -21.1463   -6.0535   25.9069 H   0  0  0  0  0  0
  -22.0599   -2.7631   23.2819 H   0  0  0  0  0  0
  -22.3953  -11.9803   22.4832 H   0  0  0  0  0  0
  -21.0994  -13.1198   22.2586 H   0  0  0  0  0  0
  -24.6180  -15.8537   20.5135 H   0  0  0  0  0  0
  -26.2365  -15.6377   20.0778 H   0  0  0  0  0  0
  -26.7628  -32.4715   23.0604 H   0  0  0  0  0  0
  -25.0022  -33.9142   24.9835 H   0  0  0  0  0  0
  -22.8827  -31.2078   21.2796 H   0  0  0  0  0  0
  -23.3793  -35.9400   23.3237 H   0  0  0  0  0  0
  -24.3589  -36.8852   22.2098 H   0  0  0  0  0  0
  -23.7284  -37.6231   23.6819 H   0  0  0  0  0  0
  -26.3696  -31.1317   20.6405 H   0  0  0  0  0  0
  -26.9701  -30.4928   22.1139 H   0  0  0  0  0  0
  -28.1969  -28.1645   21.3228 H   0  0  0  0  0  0
  -25.7942  -25.4939   18.9988 H   0  0  0  0  0  0
  -24.0597  -27.1443   18.9321 H   0  0  0  0  0  0
  -24.0068  -30.3831   19.3723 H   0  0  0  0  0  0
  -22.9079  -29.1151   19.8100 H   0  0  0  0  0  0
  -25.1403  -36.1503   25.0741 H   0  0  0  0  0  0
  -21.0074  -28.3462   24.1202 H   0  0  0  0  0  0
  -20.5710  -26.2429   23.3662 H   0  0  0  0  0  0
  -21.6702  -26.7377   22.1213 H   0  0  0  0  0  0
  -19.7002  -25.6243   21.1297 H   0  0  0  0  0  0
  -19.6788  -27.3096   20.6667 H   0  0  0  0  0  0
  -17.4282  -26.6659   21.3976 H   0  0  0  0  0  0
  -18.0400  -26.0087   22.8982 H   0  0  0  0  0  0
  -19.8041  -30.7337   24.2090 H   0  0  0  0  0  0
  -17.5110  -31.6270   24.5154 H   0  0  0  0  0  0
  -15.5426  -30.2945   23.7749 H   0  0  0  0  0  0
  -15.8745  -28.0788   22.7127 H   0  0  0  0  0  0
  -24.5835  -30.7168   25.7404 H   0  0  0  0  0  0
  -24.8745  -32.3083   26.4274 H   0  0  0  0  0  0
  -25.7670  -30.9167   27.0138 H   0  0  0  0  0  0
  -26.3378  -29.6279   24.1734 H   0  0  0  0  0  0
  -27.3964  -29.7306   25.5554 H   0  0  0  0  0  0
  -27.9394  -30.3809   24.0341 H   0  0  0  0  0  0
  -27.2609  -33.3796   26.1651 H   0  0  0  0  0  0
  -28.4001  -32.6704   25.0320 H   0  0  0  0  0  0
  -28.0563  -31.8717   26.5586 H   0  0  0  0  0  0
  -28.2518  -38.0043   24.7519 H   0  0  0  0  0  0
  -28.1127  -36.2561   24.6293 H   0  0  0  0  0  0
  -27.2274  -37.1305   25.8866 H   0  0  0  0  0  0
  -20.9828  -29.8607   21.6350 H   0  0  0  0  0  0
  -26.0066  -38.2612   24.1440 H   0  0  0  0  0  0
  -28.1011  -18.0711   18.6522 H   0  0  0  0  0  0
  -27.3084  -17.5390   20.1372 H   0  0  0  0  0  0
  -28.0019  -16.3666   19.0140 H   0  0  0  0  0  0
  -28.0363  -21.0683   19.2450 H   0  0  0  0  0  0
  -29.6673  -21.5348   19.3396 H   0  0  0  0  0  0
  -28.8748  -19.3113   21.5346 H   0  0  0  0  0  0
  -30.4241  -19.5134   20.8524 H   0  0  0  0  0  0
  -27.2187  -23.1099   20.8199 H   0  0  0  0  0  0
  -28.7962  -23.3194   21.4512 H   0  0  0  0  0  0
  1 25  1  0  0  0
  1 30  2  0  0  0
  1 75  1  0  0  0
  2  3  1  0  0  0
  2 25  1  0  0  0
  2 76  1  0  0  0
  2 77  1  0  0  0
  3  4  1  0  0  0
  3 78  1  0  0  0
  3 79  1  0  0  0
  4  5  1  0  0  0
  4 80  1  0  0  0
  4 81  1  0  0  0
  5  6  1  0  0  0
  5 26  1  0  0  0
  5 82  1  0  0  0
  6 25  1  0  0  0
  6 83  1  0  0  0
  6 84  1  0  0  0
  7  8  2  0  0  0
  7 26  1  0  0  0
  7 29  1  0  0  0
  8  9  1  0  0  0
  8 22  1  0  0  0
  9 10  1  0  0  0
  9 27  2  0  0  0
 10 11  2  0  0  0
 10 15  1  0  0  0
 11 12  1  0  0  0
 11 85  1  0  0  0
 12 13  2  0  0  0
 12 86  1  0  0  0
 13 14  1  0  0  0
 13 31  1  0  0  0
 14 15  2  0  0  0
 14 87  1  0  0  0
 15 88  1  0  0  0
 16 17  2  0  0  0
 16 21  1  0  0  0
 16 31  1  0  0  0
 17 18  1  0  0  0
 17 89  1  0  0  0
 18 19  2  0  0  0
 18 90  1  0  0  0
 19 20  1  0  0  0
 19 24  1  0  0  0
 20 21  2  0  0  0
 20 91  1  0  0  0
 21 23  1  0  0  0
 22 28  1  0  0  0
 22 32  2  0  0  0
 26 27  1  0  0  0
 28 92  1  0  0  0
 28 93  1  0  0  0
 29 94  1  0  0  0
 29 95  1  0  0  0
 33 34  1  0  0  0
 33 66  1  0  0  0
 33 70  2  0  0  0
 34 36  1  0  0  0
 34 59  1  0  0  0
 34 96  1  0  0  0
 35 44  2  0  0  0
 35 45  1  0  0  0
 35 68  1  0  0  0
 36 56  1  0  0  0
 36 97  1  0  0  0
 37 39  1  0  0  0
 37 47  1  0  0  0
 37 66  1  0  0  0
 37 98  1  0  0  0
 38 43  2  0  0  0
 38 46  1  0  0  0
 38 47  1  0  0  0
 39 64  1  0  0  0
 39 67  2  0  0  0
 40 52  1  0  0  0
 40 53  2  0  0  0
 40 58  1  0  0  0
 41 99  1  0  0  0
 41100  1  0  0  0
 41101  1  0  0  0
 41 48  1  0  0  0
 42 43  1  0  0  0
 42 66  1  0  0  0
 42102  1  0  0  0
 42103  1  0  0  0
 43 44  1  0  0  0
 44104  1  0  0  0
 45 46  2  0  0  0
 45105  1  0  0  0
 46106  1  0  0  0
 47107  1  0  0  0
 47108  1  0  0  0
 48 56  1  0  0  0
 48 65  1  0  0  0
 48109  1  0  0  0
 49 50  1  0  0  0
 49 53  1  0  0  0
 49 64  1  0  0  0
 49110  1  0  0  0
 50 51  1  0  0  0
 50111  1  0  0  0
 50112  1  0  0  0
 51 52  1  0  0  0
 51113  1  0  0  0
 51114  1  0  0  0
 52115  1  0  0  0
 52116  1  0  0  0
 53 54  1  0  0  0
 54 55  2  0  0  0
 54117  1  0  0  0
 55 57  1  0  0  0
 55118  1  0  0  0
 56 69  2  0  0  0
 57 58  2  0  0  0
 57119  1  0  0  0
 58120  1  0  0  0
 59 60  1  0  0  0
 59 61  1  0  0  0
 59 62  1  0  0  0
 60121  1  0  0  0
 60122  1  0  0  0
 60123  1  0  0  0
 61124  1  0  0  0
 61125  1  0  0  0
 61126  1  0  0  0
 62127  1  0  0  0
 62128  1  0  0  0
 62129  1  0  0  0
 63 65  1  0  0  0
 63130  1  0  0  0
 63131  1  0  0  0
 63132  1  0  0  0
 64133  1  0  0  0
 65134  1  0  0  0
 68 74  1  0  0  0
 71 75  1  0  0  0
 71135  1  0  0  0
 71136  1  0  0  0
 71137  1  0  0  0
 72 73  1  0  0  0
 72 74  1  0  0  0
 72138  1  0  0  0
 72139  1  0  0  0
 73 75  1  0  0  0
 73140  1  0  0  0
 73141  1  0  0  0
 74142  1  0  0  0
 74143  1  0  0  0
M  ISO  4   1 100  68 101  74 101  75 100
M  END
> <chiral flag>
0

> <version>
0

> <s_m_source_file>
/data/baiqing/PycharmProjects/Reinvent-master-3.2/result/LINK_invent/BTK/process_docking_weight1_custom_sum_contain_oxygen_bond_distance_aromatic_linkinvent_7_9_3/rearranged_h_0017.sdf

> <i_m_source_file_index>
63

> <r_mmod_Potential_Energy-OPLS-2005>
4303.49072265625

> <r_mmod_Stretch_Energy-OPLS-2005>
1937.3203125

> <r_mmod_Bend_Energy-OPLS-2005>
891.069641113281

> <r_mmod_Torsional_Energy-OPLS-2005>
308.0107421875

> <r_mmod_Improper_Torsional_Energy-OPLS-2005>
4.89766931533813

> <r_mmod_Van_der_Waal_Energy-OPLS-2005>
112.25927734375

> <r_mmod_Electrostatic_Energy-OPLS-2005>
-274.442291259766

> <r_mmod_Solvation_Energy-OPLS-2005>
-215.008483886719

> <b_mmod_Minimization_Converged-OPLS-2005>
0

> <r_mmod_RMS_Derivative-OPLS-2005>
2.3036835193634

$$$$
65
                    3D
 Structure written by MMmdl.
164172  0  0  1  0            999 V2000
  -30.5920  -14.8307   20.3277 C   0  0  0  0  0  0
  -30.4425  -12.4675   19.5015 C   0  0  0  0  0  0
  -29.5053  -12.2982   18.2795 C   0  0  0  0  0  0
  -28.0201  -12.2577   18.6793 C   0  0  0  0  0  0
  -27.6293  -13.2303   19.8250 C   0  0  2  0  0  0
  -28.6777  -13.2490   20.9541 C   0  0  0  0  0  0
  -25.2465  -13.8242   20.5704 C   0  0  0  0  0  0
  -24.1757  -13.0480   20.9247 C   0  0  0  0  0  0
  -24.6349  -11.6965   20.8807 C   0  0  0  0  0  0
  -23.9048  -10.4318   21.0442 C   0  0  0  0  0  0
  -24.3614   -9.4211   21.9186 C   0  0  0  0  0  0
  -23.6294   -8.2249   22.0738 C   0  0  0  0  0  0
  -22.4275   -8.0291   21.3538 C   0  0  0  0  0  0
  -21.9921   -9.0265   20.4641 C   0  0  0  0  0  0
  -22.7245  -10.2150   20.3064 C   0  0  0  0  0  0
  -21.6869   -6.0738   22.5272 C   0  0  0  0  0  0
  -21.4027   -6.5632   23.8206 C   0  0  0  0  0  0
  -21.3655   -5.6779   24.9160 C   0  0  0  0  0  0
  -21.6054   -4.3045   24.7205 C   0  0  0  0  0  0
  -21.8827   -3.8143   23.4323 C   0  0  0  0  0  0
  -21.9182   -4.6967   22.3385 C   0  0  0  0  0  0
  -22.7764  -13.5246   21.1874 C   0  0  0  0  0  0
  -22.1663   -4.2152   21.0963 F   0  0  0  0  0  0
  -21.5619   -3.4528   25.7715 F   0  0  0  0  0  0
  -29.9605  -13.5990   20.3356 N   0  0  0  0  0  0
  -26.2869  -12.9438   20.3254 N   0  0  0  0  0  0
  -25.9275  -11.6602   20.5899 N   0  0  0  0  0  0
  -22.0417  -12.8225   22.0429 N   0  0  0  0  0  0
  -25.4177  -15.1951   20.4092 N   0  0  0  0  0  0
  -31.8125  -14.8601   20.1504 O   0  0  0  0  0  0
  -21.6649   -6.8884   21.4235 O   0  0  0  0  0  0
  -22.3448  -14.5531   20.6691 O   0  0  0  0  0  0
  -24.6307  -31.8541   23.1964 C   0  0  0  0  0  0
  -25.9122  -32.4760   23.8322 C   0  0  1  0  0  0
  -27.2189  -27.2674   20.1422 C   0  0  0  0  0  0
  -25.5914  -33.8559   24.2251 N   0  0  0  0  0  0
  -23.4300  -30.4746   21.5383 C   0  0  2  0  0  0
  -24.8779  -28.9203   20.1098 C   0  0  0  0  0  0
  -22.7498  -29.4597   22.4896 C   0  0  0  0  0  0
  -18.0287  -28.1358   22.8478 C   0  0  0  0  0  0
  -24.1488  -36.7286   23.2646 C   0  0  0  0  0  0
  -25.9742  -30.7724   21.3734 C   0  0  0  0  0  0
  -26.0490  -29.3948   20.7181 C   0  0  0  0  0  0
  -27.2268  -28.5816   20.7174 C   0  0  0  0  0  0
  -26.0311  -26.8591   19.5028 C   0  0  0  0  0  0
  -24.8734  -27.6610   19.4893 C   0  0  0  0  0  0
  -23.6487  -29.8055   20.1536 C   0  0  0  0  0  0
  -25.4115  -36.3089   24.0343 C   0  0  1  0  0  0
  -20.5887  -28.3686   23.1248 C   0  0  2  0  0  0
  -20.6765  -26.9401   22.5393 C   0  0  0  0  0  0
  -19.5746  -26.6364   21.5190 C   0  0  0  0  0  0
  -18.1930  -26.7903   22.1606 C   0  0  0  0  0  0
  -19.1540  -28.8834   23.2873 C   0  0  0  0  0  0
  -18.9469  -30.1433   23.8904 C   0  0  0  0  0  0
  -17.6471  -30.6573   24.0549 C   0  0  0  0  0  0
  -25.9057  -34.9452   23.5111 C   0  0  0  0  0  0
  -16.5361  -29.9075   23.6316 C   0  0  0  0  0  0
  -16.7278  -28.6476   23.0365 C   0  0  0  0  0  0
  -26.4483  -31.6581   25.0710 C   0  0  0  0  0  0
  -25.3720  -31.3721   26.1443 C   0  0  0  0  0  0
  -27.0326  -30.3003   24.6178 C   0  0  0  0  0  0
  -27.6039  -32.4308   25.7482 C   0  0  0  0  0  0
  -27.5581  -37.1802   24.8467 C   0  0  0  0  0  0
  -21.4199  -29.3051   22.3651 N   0  0  0  0  0  0
  -26.4285  -37.3780   23.9418 N   0  0  0  0  0  0
  -24.6976  -31.0509   22.0936 N   0  0  0  0  0  0
  -23.4199  -28.8148   23.2995 O   0  0  0  0  0  0
  -28.2990  -26.3569   20.1777 O   0  0  0  0  0  0
  -26.5630  -34.8929   22.4680 O   0  0  0  0  0  0
  -23.5450  -32.1344   23.7259 O   0  0  0  0  0  0
  -30.5199  -19.5197   18.5654 C   0  0  0  0  0  0
  -31.0889  -19.1106   17.3586 C   0  0  0  0  0  0
  -30.4707  -16.8296   17.9358 C   0  0  0  0  0  0
  -29.9397  -18.6393   19.5118 C   0  0  0  0  0  0
  -30.0957  -17.1775   19.2856 C   0  0  0  0  0  0
  -31.0130  -17.7598   17.0160 C   0  0  0  0  0  0
  -31.6823  -20.1609   16.4301 C   0  0  0  0  0  0
  -30.1919  -15.4503   17.3781 C   0  0  0  0  0  0
  -27.6266  -20.6495   19.0574 C   0  0  0  0  0  0
  -28.5246  -23.5701   20.0684 C   0  0  0  0  0  0
  -29.2065  -22.1461   20.5488 C   0  0  0  0  0  0
  -28.0509  -24.9857   20.7542 C   0  0  0  0  0  0
  -28.4974  -20.6910   20.3300 C   0  0  2  0  0  0
  -29.8431  -16.0193   20.2175 N   0  0  0  0  0  0
  -29.2622  -19.3713   20.5528 N   0  0  0  0  0  0
  -31.5663  -17.2557   15.4478 Cl  0  0  0  0  0  0
  -31.4646  -12.6179   19.1543 H   0  0  0  0  0  0
  -30.4658  -11.5507   20.0956 H   0  0  0  0  0  0
  -29.7532  -11.3623   17.7793 H   0  0  0  0  0  0
  -29.6709  -13.0287   17.5040 H   0  0  0  0  0  0
  -27.8374  -11.2343   19.0045 H   0  0  0  0  0  0
  -27.3815  -12.4106   17.8095 H   0  0  0  0  0  0
  -27.6012  -14.2275   19.3834 H   0  0  0  0  0  0
  -28.7281  -12.2786   21.4508 H   0  0  0  0  0  0
  -28.4092  -13.9802   21.7172 H   0  0  0  0  0  0
  -25.2766   -9.5680   22.4751 H   0  0  0  0  0  0
  -24.0011   -7.4639   22.7441 H   0  0  0  0  0  0
  -21.0860   -8.8775   19.8949 H   0  0  0  0  0  0
  -22.3703  -10.9673   19.6172 H   0  0  0  0  0  0
  -21.2054   -7.6151   23.9714 H   0  0  0  0  0  0
  -21.1466   -6.0504   25.9060 H   0  0  0  0  0  0
  -22.0610   -2.7604   23.2809 H   0  0  0  0  0  0
  -22.4062  -11.9918   22.4848 H   0  0  0  0  0  0
  -21.1031  -13.1216   22.2635 H   0  0  0  0  0  0
  -24.6537  -15.8539   20.5108 H   0  0  0  0  0  0
  -26.2706  -15.6252   20.0722 H   0  0  0  0  0  0
  -26.7206  -32.5426   23.1092 H   0  0  0  0  0  0
  -25.0059  -33.9679   25.0395 H   0  0  0  0  0  0
  -22.7314  -31.2993   21.3873 H   0  0  0  0  0  0
  -23.3762  -35.9607   23.3296 H   0  0  0  0  0  0
  -24.3586  -36.8902   22.2059 H   0  0  0  0  0  0
  -23.7224  -37.6485   23.6663 H   0  0  0  0  0  0
  -26.1094  -31.5356   20.6054 H   0  0  0  0  0  0
  -26.8534  -30.8234   22.0036 H   0  0  0  0  0  0
  -28.1277  -28.9354   21.1966 H   0  0  0  0  0  0
  -25.9911  -25.8881   19.0276 H   0  0  0  0  0  0
  -23.9795  -27.2925   19.0045 H   0  0  0  0  0  0
  -23.7743  -30.5801   19.3945 H   0  0  0  0  0  0
  -22.7694  -29.2338   19.8506 H   0  0  0  0  0  0
  -25.1297  -36.1934   25.0839 H   0  0  0  0  0  0
  -20.9997  -28.3253   24.1355 H   0  0  0  0  0  0
  -20.5600  -26.2312   23.3600 H   0  0  0  0  0  0
  -21.6648  -26.7383   22.1234 H   0  0  0  0  0  0
  -19.6918  -25.6272   21.1225 H   0  0  0  0  0  0
  -19.6680  -27.3160   20.6705 H   0  0  0  0  0  0
  -17.4197  -26.6629   21.4018 H   0  0  0  0  0  0
  -18.0367  -26.0039   22.8995 H   0  0  0  0  0  0
  -19.7960  -30.7228   24.2295 H   0  0  0  0  0  0
  -17.5038  -31.6259   24.5132 H   0  0  0  0  0  0
  -15.5368  -30.2987   23.7629 H   0  0  0  0  0  0
  -15.8669  -28.0788   22.7105 H   0  0  0  0  0  0
  -24.5911  -30.7037   25.7789 H   0  0  0  0  0  0
  -24.8896  -32.2882   26.4867 H   0  0  0  0  0  0
  -25.8062  -30.8918   27.0231 H   0  0  0  0  0  0
  -26.2898  -29.6757   24.1199 H   0  0  0  0  0  0
  -27.4010  -29.7247   25.4686 H   0  0  0  0  0  0
  -27.8785  -30.4282   23.9416 H   0  0  0  0  0  0
  -27.2658  -33.3617   26.2058 H   0  0  0  0  0  0
  -28.3867  -32.6844   25.0317 H   0  0  0  0  0  0
  -28.0708  -31.8432   26.5405 H   0  0  0  0  0  0
  -28.2605  -38.0093   24.7535 H   0  0  0  0  0  0
  -28.1062  -36.2626   24.6268 H   0  0  0  0  0  0
  -27.2305  -37.1443   25.8871 H   0  0  0  0  0  0
  -20.9361  -29.8826   21.6915 H   0  0  0  0  0  0
  -26.0168  -38.2861   24.1402 H   0  0  0  0  0  0
  -30.5074  -20.5790   18.7304 H   0  0  0  0  0  0
  -32.1979  -20.9277   17.0082 H   0  0  0  0  0  0
  -30.8952  -20.6502   15.8531 H   0  0  0  0  0  0
  -32.4134  -19.7445   15.7350 H   0  0  0  0  0  0
  -29.3081  -15.0442   17.8667 H   0  0  0  0  0  0
  -31.0601  -14.8063   17.5166 H   0  0  0  0  0  0
  -29.9337  -15.4531   16.3200 H   0  0  0  0  0  0
  -26.9698  -21.5175   19.0107 H   0  0  0  0  0  0
  -26.9814  -19.7710   19.0482 H   0  0  0  0  0  0
  -28.2008  -20.6494   18.1338 H   0  0  0  0  0  0
  -29.5152  -23.9864   20.2680 H   0  0  0  0  0  0
  -27.7690  -23.1758   20.7486 H   0  0  0  0  0  0
  -30.1917  -22.0934   20.0889 H   0  0  0  0  0  0
  -29.4421  -22.2189   21.6129 H   0  0  0  0  0  0
  -28.4740  -25.0287   21.7601 H   0  0  0  0  0  0
  -26.9776  -24.9260   20.9520 H   0  0  0  0  0  0
  -27.7627  -20.6648   21.1379 H   0  0  0  0  0  0
  -28.9165  -15.9901   20.6176 H   0  0  0  0  0  0
  -28.8776  -18.7814   21.2869 H   0  0  0  0  0  0
  1 25  1  0  0  0
  1 30  2  0  0  0
  1 84  1  0  0  0
  2  3  1  0  0  0
  2 25  1  0  0  0
  2 87  1  0  0  0
  2 88  1  0  0  0
  3  4  1  0  0  0
  3 89  1  0  0  0
  3 90  1  0  0  0
  4  5  1  0  0  0
  4 91  1  0  0  0
  4 92  1  0  0  0
  5  6  1  0  0  0
  5 26  1  0  0  0
  5 93  1  0  0  0
  6 25  1  0  0  0
  6 94  1  0  0  0
  6 95  1  0  0  0
  7  8  2  0  0  0
  7 26  1  0  0  0
  7 29  1  0  0  0
  8  9  1  0  0  0
  8 22  1  0  0  0
  9 10  1  0  0  0
  9 27  2  0  0  0
 10 11  2  0  0  0
 10 15  1  0  0  0
 11 12  1  0  0  0
 11 96  1  0  0  0
 12 13  2  0  0  0
 12 97  1  0  0  0
 13 14  1  0  0  0
 13 31  1  0  0  0
 14 15  2  0  0  0
 14 98  1  0  0  0
 15 99  1  0  0  0
 16 17  2  0  0  0
 16 21  1  0  0  0
 16 31  1  0  0  0
 17 18  1  0  0  0
 17100  1  0  0  0
 18 19  2  0  0  0
 18101  1  0  0  0
 19 20  1  0  0  0
 19 24  1  0  0  0
 20 21  2  0  0  0
 20102  1  0  0  0
 21 23  1  0  0  0
 22 28  1  0  0  0
 22 32  2  0  0  0
 26 27  1  0  0  0
 28103  1  0  0  0
 28104  1  0  0  0
 29105  1  0  0  0
 29106  1  0  0  0
 33 34  1  0  0  0
 33 66  1  0  0  0
 33 70  2  0  0  0
 34 36  1  0  0  0
 34 59  1  0  0  0
 34107  1  0  0  0
 35 44  2  0  0  0
 35 45  1  0  0  0
 35 68  1  0  0  0
 36 56  1  0  0  0
 36108  1  0  0  0
 37 39  1  0  0  0
 37 47  1  0  0  0
 37 66  1  0  0  0
 37109  1  0  0  0
 38 43  2  0  0  0
 38 46  1  0  0  0
 38 47  1  0  0  0
 39 64  1  0  0  0
 39 67  2  0  0  0
 40 52  1  0  0  0
 40 53  2  0  0  0
 40 58  1  0  0  0
 41110  1  0  0  0
 41111  1  0  0  0
 41112  1  0  0  0
 41 48  1  0  0  0
 42 43  1  0  0  0
 42 66  1  0  0  0
 42113  1  0  0  0
 42114  1  0  0  0
 43 44  1  0  0  0
 44115  1  0  0  0
 45 46  2  0  0  0
 45116  1  0  0  0
 46117  1  0  0  0
 47118  1  0  0  0
 47119  1  0  0  0
 48 56  1  0  0  0
 48 65  1  0  0  0
 48120  1  0  0  0
 49 50  1  0  0  0
 49 53  1  0  0  0
 49 64  1  0  0  0
 49121  1  0  0  0
 50 51  1  0  0  0
 50122  1  0  0  0
 50123  1  0  0  0
 51 52  1  0  0  0
 51124  1  0  0  0
 51125  1  0  0  0
 52126  1  0  0  0
 52127  1  0  0  0
 53 54  1  0  0  0
 54 55  2  0  0  0
 54128  1  0  0  0
 55 57  1  0  0  0
 55129  1  0  0  0
 56 69  2  0  0  0
 57 58  2  0  0  0
 57130  1  0  0  0
 58131  1  0  0  0
 59 60  1  0  0  0
 59 61  1  0  0  0
 59 62  1  0  0  0
 60132  1  0  0  0
 60133  1  0  0  0
 60134  1  0  0  0
 61135  1  0  0  0
 61136  1  0  0  0
 61137  1  0  0  0
 62138  1  0  0  0
 62139  1  0  0  0
 62140  1  0  0  0
 63 65  1  0  0  0
 63141  1  0  0  0
 63142  1  0  0  0
 63143  1  0  0  0
 64144  1  0  0  0
 65145  1  0  0  0
 68 82  1  0  0  0
 71 72  2  0  0  0
 71 74  1  0  0  0
 71146  1  0  0  0
 72 76  1  0  0  0
 72 77  1  0  0  0
 73 75  1  0  0  0
 73 76  2  0  0  0
 73 78  1  0  0  0
 74 75  2  0  0  0
 74 85  1  0  0  0
 75 84  1  0  0  0
 76 86  1  0  0  0
 77147  1  0  0  0
 77148  1  0  0  0
 77149  1  0  0  0
 78150  1  0  0  0
 78151  1  0  0  0
 78152  1  0  0  0
 79153  1  0  0  0
 79154  1  0  0  0
 79155  1  0  0  0
 79 83  1  0  0  0
 80 81  1  0  0  0
 80 82  1  0  0  0
 80156  1  0  0  0
 80157  1  0  0  0
 81 83  1  0  0  0
 81158  1  0  0  0
 81159  1  0  0  0
 82160  1  0  0  0
 82161  1  0  0  0
 83 85  1  0  0  0
 83162  1  0  0  0
 84163  1  0  0  0
 85164  1  0  0  0
M  ISO  4   1 100  68 101  82 101  84 100
M  END
> <chiral flag>
0

> <version>
0

> <s_m_source_file>
/data/baiqing/PycharmProjects/Reinvent-master-3.2/result/LINK_invent/BTK/process_docking_weight1_custom_sum_contain_oxygen_bond_distance_aromatic_linkinvent_7_9_3/rearranged_h_0017.sdf

> <i_m_source_file_index>
64

> <r_mmod_Potential_Energy-OPLS-2005>
538.701293945312

> <r_mmod_Stretch_Energy-OPLS-2005>
166.960739135742

> <r_mmod_Bend_Energy-OPLS-2005>
444.873931884766

> <r_mmod_Torsional_Energy-OPLS-2005>
310.893646240234

> <r_mmod_Improper_Torsional_Energy-OPLS-2005>
10.7367076873779

> <r_mmod_Van_der_Waal_Energy-OPLS-2005>
179.749496459961

> <r_mmod_Electrostatic_Energy-OPLS-2005>
-479.221282958984

> <r_mmod_Solvation_Energy-OPLS-2005>
-217.748123168945

> <b_mmod_Minimization_Converged-OPLS-2005>
0

> <r_mmod_RMS_Derivative-OPLS-2005>
3.98565149307251

$$$$
66
                    3D
 Structure written by MMmdl.
156164  0  0  1  0            999 V2000
  -30.4343  -15.1839   20.3830 C   0  0  0  0  0  0
  -30.4486  -12.7491   19.5163 C   0  0  0  0  0  0
  -29.5359  -12.5679   18.2772 C   0  0  0  0  0  0
  -28.0782  -12.3070   18.6999 C   0  0  0  0  0  0
  -27.6192  -13.2649   19.8279 C   0  0  2  0  0  0
  -28.6569  -13.3827   20.9642 C   0  0  0  0  0  0
  -25.2417  -13.8231   20.5719 C   0  0  0  0  0  0
  -24.1761  -13.0434   20.9249 C   0  0  0  0  0  0
  -24.6403  -11.6927   20.8758 C   0  0  0  0  0  0
  -23.9091  -10.4291   21.0406 C   0  0  0  0  0  0
  -24.3635   -9.4205   21.9184 C   0  0  0  0  0  0
  -23.6303   -8.2243   22.0755 C   0  0  0  0  0  0
  -22.4284   -8.0283   21.3545 C   0  0  0  0  0  0
  -21.9925   -9.0258   20.4647 C   0  0  0  0  0  0
  -22.7261  -10.2134   20.3055 C   0  0  0  0  0  0
  -21.6856   -6.0737   22.5277 C   0  0  0  0  0  0
  -21.4016   -6.5640   23.8211 C   0  0  0  0  0  0
  -21.3660   -5.6792   24.9173 C   0  0  0  0  0  0
  -21.6045   -4.3054   24.7223 C   0  0  0  0  0  0
  -21.8818   -3.8147   23.4344 C   0  0  0  0  0  0
  -21.9193   -4.6964   22.3400 C   0  0  0  0  0  0
  -22.7778  -13.5194   21.1896 C   0  0  0  0  0  0
  -22.1661   -4.2149   21.0978 F   0  0  0  0  0  0
  -21.5630   -3.4538   25.7737 F   0  0  0  0  0  0
  -29.9012  -13.8725   20.3510 N   0  0  0  0  0  0
  -26.2844  -12.9488   20.3207 N   0  0  0  0  0  0
  -25.9336  -11.6604   20.5715 N   0  0  0  0  0  0
  -22.0432  -12.8180   22.0451 N   0  0  0  0  0  0
  -25.4037  -15.1965   20.4131 N   0  0  0  0  0  0
  -31.6502  -15.2429   20.1512 O   0  0  0  0  0  0
  -21.6644   -6.8882   21.4241 O   0  0  0  0  0  0
  -22.3458  -14.5494   20.6734 O   0  0  0  0  0  0
  -24.6582  -31.8284   23.1738 C   0  0  0  0  0  0
  -25.9285  -32.4613   23.8189 C   0  0  1  0  0  0
  -27.2211  -26.9785   20.1788 C   0  0  0  0  0  0
  -25.5970  -33.8425   24.2097 N   0  0  0  0  0  0
  -23.4703  -30.4410   21.5226 C   0  0  2  0  0  0
  -24.9228  -28.8351   20.1139 C   0  0  0  0  0  0
  -22.7643  -29.4465   22.4804 C   0  0  0  0  0  0
  -18.0317  -28.1406   22.8469 C   0  0  0  0  0  0
  -24.1494  -36.7219   23.2646 C   0  0  0  0  0  0
  -26.0362  -30.6519   21.3956 C   0  0  0  0  0  0
  -26.1058  -29.2463   20.7406 C   0  0  0  0  0  0
  -27.2519  -28.3391   20.7464 C   0  0  0  0  0  0
  -26.0075  -26.7039   19.5106 C   0  0  0  0  0  0
  -24.8958  -27.5829   19.4794 C   0  0  0  0  0  0
  -23.7069  -29.7573   20.1483 C   0  0  0  0  0  0
  -25.4133  -36.2982   24.0302 C   0  0  1  0  0  0
  -20.5939  -28.3746   23.1201 C   0  0  2  0  0  0
  -20.6797  -26.9434   22.5403 C   0  0  0  0  0  0
  -19.5771  -26.6379   21.5214 C   0  0  0  0  0  0
  -18.1952  -26.7940   22.1623 C   0  0  0  0  0  0
  -19.1577  -28.8896   23.2822 C   0  0  0  0  0  0
  -18.9489  -30.1488   23.8855 C   0  0  0  0  0  0
  -17.6483  -30.6597   24.0556 C   0  0  0  0  0  0
  -25.9094  -34.9363   23.5019 C   0  0  0  0  0  0
  -16.5374  -29.9085   23.6343 C   0  0  0  0  0  0
  -16.7300  -28.6506   23.0360 C   0  0  0  0  0  0
  -26.4552  -31.6541   25.0699 C   0  0  0  0  0  0
  -25.3690  -31.3777   26.1363 C   0  0  0  0  0  0
  -27.0444  -30.2916   24.6398 C   0  0  0  0  0  0
  -27.6049  -32.4343   25.7501 C   0  0  0  0  0  0
  -27.5571  -37.1767   24.8465 C   0  0  0  0  0  0
  -21.4318  -29.3043   22.3553 N   0  0  0  0  0  0
  -26.4282  -37.3713   23.9407 N   0  0  0  0  0  0
  -24.7426  -30.9994   22.0848 N   0  0  0  0  0  0
  -23.4213  -28.8035   23.3028 O   0  0  0  0  0  0
  -28.2485  -25.9143   20.2382 O   0  0  0  0  0  0
  -26.5701  -34.8891   22.4613 O   0  0  0  0  0  0
  -23.5664  -32.1230   23.6864 O   0  0  0  0  0  0
  -29.8472  -18.9194   21.4549 C   0  0  0  0  0  0
  -29.6382  -20.3887   21.4401 C   0  0  0  0  0  0
  -29.1080  -21.1976   20.3425 C   0  0  0  0  0  0
  -28.8164  -20.2491   19.2675 C   0  0  0  0  0  0
  -29.5840  -17.9712   20.3902 C   0  0  0  0  0  0
  -29.0183  -18.7639   19.3032 C   0  0  0  0  0  0
  -30.0371  -21.1245   22.7072 C   0  0  0  0  0  0
  -29.3607  -21.1305   16.9437 C   0  0  0  0  0  0
  -29.1480  -22.9426   20.2693 C   0  0  0  0  0  0
  -28.2667  -20.8698   17.9874 C   0  0  0  0  0  0
  -28.0092  -24.2993   20.2030 C   0  0  0  0  0  0
  -29.5807  -16.3701   20.4913 N   0  0  0  0  0  0
  -28.5355  -17.8336   17.9239 Cl  0  0  0  0  0  0
  -31.4689  -12.9560   19.1906 H   0  0  0  0  0  0
  -30.5053  -11.8265   20.0961 H   0  0  0  0  0  0
  -29.8993  -11.7507   17.6528 H   0  0  0  0  0  0
  -29.5800  -13.4674   17.6612 H   0  0  0  0  0  0
  -28.0159  -11.2756   19.0485 H   0  0  0  0  0  0
  -27.4118  -12.3797   17.8395 H   0  0  0  0  0  0
  -27.5513  -14.2457   19.3559 H   0  0  0  0  0  0
  -28.8032  -12.4276   21.4707 H   0  0  0  0  0  0
  -28.3130  -14.0864   21.7239 H   0  0  0  0  0  0
  -25.2778   -9.5680   22.4761 H   0  0  0  0  0  0
  -24.0008   -7.4635   22.7477 H   0  0  0  0  0  0
  -21.0855   -8.8782   19.8953 H   0  0  0  0  0  0
  -22.3720  -10.9674   19.6165 H   0  0  0  0  0  0
  -21.2010   -7.6148   23.9715 H   0  0  0  0  0  0
  -21.1483   -6.0522   25.9076 H   0  0  0  0  0  0
  -22.0598   -2.7609   23.2843 H   0  0  0  0  0  0
  -22.4063  -11.9854   22.4850 H   0  0  0  0  0  0
  -21.1043  -13.1189   22.2649 H   0  0  0  0  0  0
  -24.6243  -15.8373   20.5149 H   0  0  0  0  0  0
  -26.2247  -15.6361   20.0198 H   0  0  0  0  0  0
  -26.7353  -32.5168   23.0907 H   0  0  0  0  0  0
  -25.0069  -33.9511   25.0214 H   0  0  0  0  0  0
  -22.7810  -31.2710   21.3546 H   0  0  0  0  0  0
  -23.3766  -35.9539   23.3281 H   0  0  0  0  0  0
  -24.3571  -36.8891   22.2066 H   0  0  0  0  0  0
  -23.7242  -37.6398   23.6717 H   0  0  0  0  0  0
  -26.2097  -31.3960   20.6170 H   0  0  0  0  0  0
  -26.8989  -30.7081   22.0477 H   0  0  0  0  0  0
  -28.1511  -28.6536   21.2574 H   0  0  0  0  0  0
  -25.8872  -25.7477   19.0236 H   0  0  0  0  0  0
  -23.9957  -27.2621   18.9731 H   0  0  0  0  0  0
  -23.8581  -30.5257   19.3893 H   0  0  0  0  0  0
  -22.8178  -29.2083   19.8332 H   0  0  0  0  0  0
  -25.1330  -36.1783   25.0793 H   0  0  0  0  0  0
  -21.0027  -28.3350   24.1324 H   0  0  0  0  0  0
  -20.5684  -26.2364   23.3639 H   0  0  0  0  0  0
  -21.6661  -26.7419   22.1207 H   0  0  0  0  0  0
  -19.6932  -25.6279   21.1272 H   0  0  0  0  0  0
  -19.6710  -27.3165   20.6725 H   0  0  0  0  0  0
  -17.4223  -26.6681   21.4026 H   0  0  0  0  0  0
  -18.0349  -26.0093   22.9030 H   0  0  0  0  0  0
  -19.7964  -30.7316   24.2206 H   0  0  0  0  0  0
  -17.5034  -31.6273   24.5165 H   0  0  0  0  0  0
  -15.5372  -30.2972   23.7692 H   0  0  0  0  0  0
  -15.8701  -28.0810   22.7099 H   0  0  0  0  0  0
  -24.5883  -30.7116   25.7672 H   0  0  0  0  0  0
  -24.8867  -32.2974   26.4683 H   0  0  0  0  0  0
  -25.7932  -30.9013   27.0211 H   0  0  0  0  0  0
  -26.3100  -29.6599   24.1388 H   0  0  0  0  0  0
  -27.3977  -29.7269   25.5036 H   0  0  0  0  0  0
  -27.9039  -30.4110   23.9799 H   0  0  0  0  0  0
  -27.2618  -33.3680   26.1970 H   0  0  0  0  0  0
  -28.3917  -32.6848   25.0373 H   0  0  0  0  0  0
  -28.0654  -31.8544   26.5509 H   0  0  0  0  0  0
  -28.2571  -38.0079   24.7512 H   0  0  0  0  0  0
  -28.1085  -36.2605   24.6293 H   0  0  0  0  0  0
  -27.2287  -37.1410   25.8867 H   0  0  0  0  0  0
  -20.9564  -29.8731   21.6686 H   0  0  0  0  0  0
  -26.0133  -38.2773   24.1413 H   0  0  0  0  0  0
  -30.2209  -18.4887   22.3730 H   0  0  0  0  0  0
  -30.1728  -20.4426   23.5472 H   0  0  0  0  0  0
  -29.2693  -21.8432   22.9956 H   0  0  0  0  0  0
  -30.9745  -21.6609   22.5577 H   0  0  0  0  0  0
  -28.9405  -21.5889   16.0483 H   0  0  0  0  0  0
  -29.8505  -20.2046   16.6416 H   0  0  0  0  0  0
  -30.1273  -21.8017   17.3310 H   0  0  0  0  0  0
  -29.7873  -23.1148   19.4039 H   0  0  0  0  0  0
  -29.7970  -23.2170   21.0984 H   0  0  0  0  0  0
  -27.7637  -21.8078   18.2226 H   0  0  0  0  0  0
  -27.4835  -20.2408   17.5648 H   0  0  0  0  0  0
  -27.3113  -24.1255   21.0222 H   0  0  0  0  0  0
  -27.4204  -24.1232   19.3036 H   0  0  0  0  0  0
  -28.6329  -16.0408   20.5869 H   0  0  0  0  0  0
  1 25  1  0  0  0
  1 30  2  0  0  0
  1 82  1  0  0  0
  2  3  1  0  0  0
  2 25  1  0  0  0
  2 84  1  0  0  0
  2 85  1  0  0  0
  3  4  1  0  0  0
  3 86  1  0  0  0
  3 87  1  0  0  0
  4  5  1  0  0  0
  4 88  1  0  0  0
  4 89  1  0  0  0
  5  6  1  0  0  0
  5 26  1  0  0  0
  5 90  1  0  0  0
  6 25  1  0  0  0
  6 91  1  0  0  0
  6 92  1  0  0  0
  7  8  2  0  0  0
  7 26  1  0  0  0
  7 29  1  0  0  0
  8  9  1  0  0  0
  8 22  1  0  0  0
  9 10  1  0  0  0
  9 27  2  0  0  0
 10 11  2  0  0  0
 10 15  1  0  0  0
 11 12  1  0  0  0
 11 93  1  0  0  0
 12 13  2  0  0  0
 12 94  1  0  0  0
 13 14  1  0  0  0
 13 31  1  0  0  0
 14 15  2  0  0  0
 14 95  1  0  0  0
 15 96  1  0  0  0
 16 17  2  0  0  0
 16 21  1  0  0  0
 16 31  1  0  0  0
 17 18  1  0  0  0
 17 97  1  0  0  0
 18 19  2  0  0  0
 18 98  1  0  0  0
 19 20  1  0  0  0
 19 24  1  0  0  0
 20 21  2  0  0  0
 20 99  1  0  0  0
 21 23  1  0  0  0
 22 28  1  0  0  0
 22 32  2  0  0  0
 26 27  1  0  0  0
 28100  1  0  0  0
 28101  1  0  0  0
 29102  1  0  0  0
 29103  1  0  0  0
 33 34  1  0  0  0
 33 66  1  0  0  0
 33 70  2  0  0  0
 34 36  1  0  0  0
 34 59  1  0  0  0
 34104  1  0  0  0
 35 44  2  0  0  0
 35 45  1  0  0  0
 35 68  1  0  0  0
 36 56  1  0  0  0
 36105  1  0  0  0
 37 39  1  0  0  0
 37 47  1  0  0  0
 37 66  1  0  0  0
 37106  1  0  0  0
 38 43  2  0  0  0
 38 46  1  0  0  0
 38 47  1  0  0  0
 39 64  1  0  0  0
 39 67  2  0  0  0
 40 52  1  0  0  0
 40 53  2  0  0  0
 40 58  1  0  0  0
 41107  1  0  0  0
 41108  1  0  0  0
 41109  1  0  0  0
 41 48  1  0  0  0
 42 43  1  0  0  0
 42 66  1  0  0  0
 42110  1  0  0  0
 42111  1  0  0  0
 43 44  1  0  0  0
 44112  1  0  0  0
 45 46  2  0  0  0
 45113  1  0  0  0
 46114  1  0  0  0
 47115  1  0  0  0
 47116  1  0  0  0
 48 56  1  0  0  0
 48 65  1  0  0  0
 48117  1  0  0  0
 49 50  1  0  0  0
 49 53  1  0  0  0
 49 64  1  0  0  0
 49118  1  0  0  0
 50 51  1  0  0  0
 50119  1  0  0  0
 50120  1  0  0  0
 51 52  1  0  0  0
 51121  1  0  0  0
 51122  1  0  0  0
 52123  1  0  0  0
 52124  1  0  0  0
 53 54  1  0  0  0
 54 55  2  0  0  0
 54125  1  0  0  0
 55 57  1  0  0  0
 55126  1  0  0  0
 56 69  2  0  0  0
 57 58  2  0  0  0
 57127  1  0  0  0
 58128  1  0  0  0
 59 60  1  0  0  0
 59 61  1  0  0  0
 59 62  1  0  0  0
 60129  1  0  0  0
 60130  1  0  0  0
 60131  1  0  0  0
 61132  1  0  0  0
 61133  1  0  0  0
 61134  1  0  0  0
 62135  1  0  0  0
 62136  1  0  0  0
 62137  1  0  0  0
 63 65  1  0  0  0
 63138  1  0  0  0
 63139  1  0  0  0
 63140  1  0  0  0
 64141  1  0  0  0
 65142  1  0  0  0
 68 81  1  0  0  0
 71 72  2  0  0  0
 71 75  1  0  0  0
 71143  1  0  0  0
 72 73  1  0  0  0
 72 77  1  0  0  0
 73 74  2  0  0  0
 73 79  1  0  0  0
 74 76  1  0  0  0
 74 80  1  0  0  0
 75 76  2  0  0  0
 75 82  1  0  0  0
 76 83  1  0  0  0
 77144  1  0  0  0
 77145  1  0  0  0
 77146  1  0  0  0
 78 80  1  0  0  0
 78147  1  0  0  0
 78148  1  0  0  0
 78149  1  0  0  0
 79 81  1  0  0  0
 79150  1  0  0  0
 79151  1  0  0  0
 80152  1  0  0  0
 80153  1  0  0  0
 81154  1  0  0  0
 81155  1  0  0  0
 82156  1  0  0  0
M  ISO  4   1 100  68 101  81 101  82 100
M  END
> <chiral flag>
0

> <version>
0

> <s_m_source_file>
/data/baiqing/PycharmProjects/Reinvent-master-3.2/result/LINK_invent/BTK/process_docking_weight1_custom_sum_contain_oxygen_bond_distance_aromatic_linkinvent_7_9_3/rearranged_h_0017.sdf

> <i_m_source_file_index>
65

> <r_mmod_Potential_Energy-OPLS-2005>
1033.75170898438

> <r_mmod_Stretch_Energy-OPLS-2005>
460.205871582031

> <r_mmod_Bend_Energy-OPLS-2005>
392.294616699219

> <r_mmod_Torsional_Energy-OPLS-2005>
249.654388427734

> <r_mmod_Improper_Torsional_Energy-OPLS-2005>
8.35072231292725

> <r_mmod_Van_der_Waal_Energy-OPLS-2005>
126.697128295898

> <r_mmod_Electrostatic_Energy-OPLS-2005>
-378.968322753906

> <r_mmod_Solvation_Energy-OPLS-2005>
-204.163681030273

> <b_mmod_Minimization_Converged-OPLS-2005>
0

> <r_mmod_RMS_Derivative-OPLS-2005>
0.179779469966888

$$$$
67
                    3D
 Structure written by MMmdl.
165173  0  0  1  0            999 V2000
  -30.4136  -15.3365   20.3427 C   0  0  0  0  0  0
  -30.4317  -12.8633   19.5339 C   0  0  0  0  0  0
  -29.5259  -12.6284   18.2991 C   0  0  0  0  0  0
  -28.0858  -12.3270   18.7331 C   0  0  0  0  0  0
  -27.6107  -13.2938   19.8446 C   0  0  2  0  0  0
  -28.6483  -13.4725   20.9749 C   0  0  0  0  0  0
  -25.2348  -13.8263   20.5866 C   0  0  0  0  0  0
  -24.1737  -13.0453   20.9329 C   0  0  0  0  0  0
  -24.6404  -11.6959   20.8816 C   0  0  0  0  0  0
  -23.9057  -10.4324   21.0478 C   0  0  0  0  0  0
  -24.3612   -9.4220   21.9239 C   0  0  0  0  0  0
  -23.6303   -8.2231   22.0790 C   0  0  0  0  0  0
  -22.4305   -8.0252   21.3553 C   0  0  0  0  0  0
  -21.9918   -9.0247   20.4715 C   0  0  0  0  0  0
  -22.7217  -10.2121   20.3146 C   0  0  0  0  0  0
  -21.6824   -6.0725   22.5270 C   0  0  0  0  0  0
  -21.3976   -6.5634   23.8201 C   0  0  0  0  0  0
  -21.3704   -5.6799   24.9169 C   0  0  0  0  0  0
  -21.6085   -4.3067   24.7200 C   0  0  0  0  0  0
  -21.8845   -3.8141   23.4315 C   0  0  0  0  0  0
  -21.9182   -4.6960   22.3386 C   0  0  0  0  0  0
  -22.7748  -13.5229   21.1935 C   0  0  0  0  0  0
  -22.1606   -4.2154   21.0948 F   0  0  0  0  0  0
  -21.5655   -3.4581   25.7714 F   0  0  0  0  0  0
  -29.8730  -14.0073   20.3474 N   0  0  0  0  0  0
  -26.2803  -12.9604   20.3341 N   0  0  0  0  0  0
  -25.9360  -11.6656   20.5789 N   0  0  0  0  0  0
  -22.0303  -12.8325   22.0446 N   0  0  0  0  0  0
  -25.3954  -15.2016   20.4316 N   0  0  0  0  0  0
  -31.6337  -15.3264   20.1047 O   0  0  0  0  0  0
  -21.6634   -6.8866   21.4233 O   0  0  0  0  0  0
  -22.3537  -14.5572   20.6762 O   0  0  0  0  0  0
  -24.6586  -31.8248   23.1715 C   0  0  0  0  0  0
  -25.9284  -32.4602   23.8155 C   0  0  1  0  0  0
  -27.2242  -26.9353   20.2427 C   0  0  0  0  0  0
  -25.5972  -33.8403   24.2094 N   0  0  0  0  0  0
  -23.4720  -30.4344   21.5183 C   0  0  2  0  0  0
  -24.9358  -28.8214   20.1198 C   0  0  0  0  0  0
  -22.7643  -29.4413   22.4776 C   0  0  0  0  0  0
  -18.0310  -28.1391   22.8484 C   0  0  0  0  0  0
  -24.1504  -36.7195   23.2647 C   0  0  0  0  0  0
  -26.0395  -30.6447   21.3986 C   0  0  0  0  0  0
  -26.1151  -29.2285   20.7594 C   0  0  0  0  0  0
  -27.2540  -28.3068   20.7958 C   0  0  0  0  0  0
  -26.0295  -26.6867   19.5324 C   0  0  0  0  0  0
  -24.9228  -27.5736   19.4798 C   0  0  0  0  0  0
  -23.7158  -29.7457   20.1459 C   0  0  0  0  0  0
  -25.4163  -36.2985   24.0296 C   0  0  1  0  0  0
  -20.5944  -28.3705   23.1216 C   0  0  2  0  0  0
  -20.6809  -26.9404   22.5380 C   0  0  0  0  0  0
  -19.5780  -26.6379   21.5191 C   0  0  0  0  0  0
  -18.1935  -26.7942   22.1580 C   0  0  0  0  0  0
  -19.1582  -28.8878   23.2852 C   0  0  0  0  0  0
  -18.9496  -30.1457   23.8939 C   0  0  0  0  0  0
  -17.6493  -30.6576   24.0619 C   0  0  0  0  0  0
  -25.9104  -34.9357   23.5006 C   0  0  0  0  0  0
  -16.5374  -29.9100   23.6370 C   0  0  0  0  0  0
  -16.7296  -28.6521   23.0376 C   0  0  0  0  0  0
  -26.4565  -31.6507   25.0641 C   0  0  0  0  0  0
  -25.3694  -31.3676   26.1285 C   0  0  0  0  0  0
  -27.0456  -30.2907   24.6296 C   0  0  0  0  0  0
  -27.6116  -32.4274   25.7420 C   0  0  0  0  0  0
  -27.5590  -37.1778   24.8470 C   0  0  0  0  0  0
  -21.4329  -29.3007   22.3583 N   0  0  0  0  0  0
  -26.4298  -37.3732   23.9397 N   0  0  0  0  0  0
  -24.7452  -30.9945   22.0822 N   0  0  0  0  0  0
  -23.4218  -28.7940   23.2959 O   0  0  0  0  0  0
  -28.2110  -25.8236   20.3885 O   0  0  0  0  0  0
  -26.5704  -34.8894   22.4598 O   0  0  0  0  0  0
  -23.5691  -32.1147   23.6885 O   0  0  0  0  0  0
  -28.2209  -19.4551   18.2115 C   0  0  0  0  0  0
  -28.0733  -20.6575   18.9157 C   0  0  0  0  0  0
  -29.0474  -18.3505   18.5540 C   0  0  0  0  0  0
  -28.7545  -20.9008   20.1291 C   0  0  0  0  0  0
  -29.3243  -19.5358   20.6550 C   0  0  0  0  0  0
  -29.4434  -18.1498   19.9333 C   0  0  0  0  0  0
  -27.2077  -21.7047   18.2309 C   0  0  0  0  0  0
  -29.8553  -19.5598   22.0765 C   0  0  0  0  0  0
  -29.8412  -18.5017   16.1287 C   0  0  0  0  0  0
  -28.1768  -16.7280   16.8257 C   0  0  0  0  0  0
  -30.6172  -16.5848   17.4071 C   0  0  0  0  0  0
  -28.7332  -22.5978   20.6615 C   0  0  0  0  0  0
  -27.9395  -24.2007   20.2266 C   0  0  0  0  0  0
  -29.4101  -17.5294   17.2825 C   0  0  0  0  0  0
  -29.6399  -16.6107   20.5025 N   0  0  0  0  0  0
  -31.4415  -13.0848   19.1906 H   0  0  0  0  0  0
  -30.5108  -11.9589   20.1404 H   0  0  0  0  0  0
  -29.9148  -11.8279   17.6715 H   0  0  0  0  0  0
  -29.5304  -13.5207   17.6752 H   0  0  0  0  0  0
  -28.0653  -11.3030   19.1047 H   0  0  0  0  0  0
  -27.4114  -12.3619   17.8773 H   0  0  0  0  0  0
  -27.5205  -14.2628   19.3534 H   0  0  0  0  0  0
  -28.8267  -12.5347   21.5067 H   0  0  0  0  0  0
  -28.2950  -14.1832   21.7204 H   0  0  0  0  0  0
  -25.2752   -9.5685   22.4825 H   0  0  0  0  0  0
  -24.0003   -7.4606   22.7489 H   0  0  0  0  0  0
  -21.0821   -8.8729   19.9065 H   0  0  0  0  0  0
  -22.3605  -10.9645   19.6279 H   0  0  0  0  0  0
  -21.1865   -7.6127   23.9714 H   0  0  0  0  0  0
  -21.1543   -6.0497   25.9092 H   0  0  0  0  0  0
  -22.0622   -2.7599   23.2744 H   0  0  0  0  0  0
  -22.3871  -12.0032   22.4951 H   0  0  0  0  0  0
  -21.1002  -13.1585   22.2699 H   0  0  0  0  0  0
  -24.6277  -15.8516   20.5693 H   0  0  0  0  0  0
  -26.2069  -15.6329   20.0120 H   0  0  0  0  0  0
  -26.7321  -32.5221   23.0864 H   0  0  0  0  0  0
  -25.0070  -33.9461   25.0224 H   0  0  0  0  0  0
  -22.7830  -31.2668   21.3516 H   0  0  0  0  0  0
  -23.3801  -35.9475   23.3250 H   0  0  0  0  0  0
  -24.3583  -36.8890   22.2060 H   0  0  0  0  0  0
  -23.7199  -37.6356   23.6728 H   0  0  0  0  0  0
  -26.2090  -31.3835   20.6145 H   0  0  0  0  0  0
  -26.9022  -30.7188   22.0507 H   0  0  0  0  0  0
  -28.1376  -28.6172   21.3405 H   0  0  0  0  0  0
  -25.9246  -25.7299   19.0418 H   0  0  0  0  0  0
  -24.0340  -27.2582   18.9487 H   0  0  0  0  0  0
  -23.8679  -30.5124   19.3833 H   0  0  0  0  0  0
  -22.8293  -29.1883   19.8331 H   0  0  0  0  0  0
  -25.1370  -36.1760   25.0786 H   0  0  0  0  0  0
  -21.0048  -28.3262   24.1327 H   0  0  0  0  0  0
  -20.5718  -26.2258   23.3555 H   0  0  0  0  0  0
  -21.6651  -26.7406   22.1141 H   0  0  0  0  0  0
  -19.6899  -25.6283   21.1238 H   0  0  0  0  0  0
  -19.6738  -27.3180   20.6715 H   0  0  0  0  0  0
  -17.4227  -26.6741   21.3946 H   0  0  0  0  0  0
  -18.0287  -26.0057   22.8955 H   0  0  0  0  0  0
  -19.7960  -30.7262   24.2343 H   0  0  0  0  0  0
  -17.5050  -31.6247   24.5256 H   0  0  0  0  0  0
  -15.5386  -30.3009   23.7737 H   0  0  0  0  0  0
  -15.8674  -28.0869   22.7095 H   0  0  0  0  0  0
  -24.5964  -30.6954   25.7535 H   0  0  0  0  0  0
  -24.8785  -32.2830   26.4592 H   0  0  0  0  0  0
  -25.7934  -30.8891   27.0125 H   0  0  0  0  0  0
  -26.3078  -29.6622   24.1309 H   0  0  0  0  0  0
  -27.4056  -29.7233   25.4886 H   0  0  0  0  0  0
  -27.9000  -30.4139   23.9641 H   0  0  0  0  0  0
  -27.2760  -33.3664   26.1850 H   0  0  0  0  0  0
  -28.4008  -32.6669   25.0261 H   0  0  0  0  0  0
  -28.0687  -31.8437   26.5441 H   0  0  0  0  0  0
  -28.2600  -38.0101   24.7592 H   0  0  0  0  0  0
  -28.1108  -36.2634   24.6234 H   0  0  0  0  0  0
  -27.2290  -37.1334   25.8873 H   0  0  0  0  0  0
  -20.9521  -29.8703   21.6795 H   0  0  0  0  0  0
  -26.0136  -38.2780   24.1451 H   0  0  0  0  0  0
  -27.7131  -19.4286   17.2590 H   0  0  0  0  0  0
  -26.4982  -21.2416   17.5425 H   0  0  0  0  0  0
  -27.8315  -22.3721   17.6407 H   0  0  0  0  0  0
  -26.6033  -22.2701   18.9379 H   0  0  0  0  0  0
  -29.2275  -20.1936   22.7054 H   0  0  0  0  0  0
  -30.8783  -19.9362   22.1066 H   0  0  0  0  0  0
  -29.8593  -18.5587   22.5102 H   0  0  0  0  0  0
  -29.0525  -19.1490   15.7479 H   0  0  0  0  0  0
  -30.1883  -17.9800   15.2383 H   0  0  0  0  0  0
  -30.6529  -19.1608   16.4445 H   0  0  0  0  0  0
  -27.3520  -17.3623   16.4998 H   0  0  0  0  0  0
  -27.7985  -16.1264   17.6515 H   0  0  0  0  0  0
  -28.4257  -16.0585   16.0017 H   0  0  0  0  0  0
  -31.4401  -17.0307   17.9675 H   0  0  0  0  0  0
  -31.0082  -16.3256   16.4243 H   0  0  0  0  0  0
  -30.3498  -15.6202   17.8196 H   0  0  0  0  0  0
  -27.7248  -22.2653   20.9130 H   0  0  0  0  0  0
  -29.2742  -22.7085   19.7263 H   0  0  0  0  0  0
  -26.9074  -24.1126   20.5696 H   0  0  0  0  0  0
  -27.8395  -24.1586   19.1443 H   0  0  0  0  0  0
  -28.8029  -16.3458   21.0048 H   0  0  0  0  0  0
  1 25  1  0  0  0
  1 30  2  0  0  0
  1 85  1  0  0  0
  2  3  1  0  0  0
  2 25  1  0  0  0
  2 86  1  0  0  0
  2 87  1  0  0  0
  3  4  1  0  0  0
  3 88  1  0  0  0
  3 89  1  0  0  0
  4  5  1  0  0  0
  4 90  1  0  0  0
  4 91  1  0  0  0
  5  6  1  0  0  0
  5 26  1  0  0  0
  5 92  1  0  0  0
  6 25  1  0  0  0
  6 93  1  0  0  0
  6 94  1  0  0  0
  7  8  2  0  0  0
  7 26  1  0  0  0
  7 29  1  0  0  0
  8  9  1  0  0  0
  8 22  1  0  0  0
  9 10  1  0  0  0
  9 27  2  0  0  0
 10 11  2  0  0  0
 10 15  1  0  0  0
 11 12  1  0  0  0
 11 95  1  0  0  0
 12 13  2  0  0  0
 12 96  1  0  0  0
 13 14  1  0  0  0
 13 31  1  0  0  0
 14 15  2  0  0  0
 14 97  1  0  0  0
 15 98  1  0  0  0
 16 17  2  0  0  0
 16 21  1  0  0  0
 16 31  1  0  0  0
 17 18  1  0  0  0
 17 99  1  0  0  0
 18 19  2  0  0  0
 18100  1  0  0  0
 19 20  1  0  0  0
 19 24  1  0  0  0
 20 21  2  0  0  0
 20101  1  0  0  0
 21 23  1  0  0  0
 22 28  1  0  0  0
 22 32  2  0  0  0
 26 27  1  0  0  0
 28102  1  0  0  0
 28103  1  0  0  0
 29104  1  0  0  0
 29105  1  0  0  0
 33 34  1  0  0  0
 33 66  1  0  0  0
 33 70  2  0  0  0
 34 36  1  0  0  0
 34 59  1  0  0  0
 34106  1  0  0  0
 35 44  2  0  0  0
 35 45  1  0  0  0
 35 68  1  0  0  0
 36 56  1  0  0  0
 36107  1  0  0  0
 37 39  1  0  0  0
 37 47  1  0  0  0
 37 66  1  0  0  0
 37108  1  0  0  0
 38 43  2  0  0  0
 38 46  1  0  0  0
 38 47  1  0  0  0
 39 64  1  0  0  0
 39 67  2  0  0  0
 40 52  1  0  0  0
 40 53  2  0  0  0
 40 58  1  0  0  0
 41109  1  0  0  0
 41110  1  0  0  0
 41111  1  0  0  0
 41 48  1  0  0  0
 42 43  1  0  0  0
 42 66  1  0  0  0
 42112  1  0  0  0
 42113  1  0  0  0
 43 44  1  0  0  0
 44114  1  0  0  0
 45 46  2  0  0  0
 45115  1  0  0  0
 46116  1  0  0  0
 47117  1  0  0  0
 47118  1  0  0  0
 48 56  1  0  0  0
 48 65  1  0  0  0
 48119  1  0  0  0
 49 50  1  0  0  0
 49 53  1  0  0  0
 49 64  1  0  0  0
 49120  1  0  0  0
 50 51  1  0  0  0
 50121  1  0  0  0
 50122  1  0  0  0
 51 52  1  0  0  0
 51123  1  0  0  0
 51124  1  0  0  0
 52125  1  0  0  0
 52126  1  0  0  0
 53 54  1  0  0  0
 54 55  2  0  0  0
 54127  1  0  0  0
 55 57  1  0  0  0
 55128  1  0  0  0
 56 69  2  0  0  0
 57 58  2  0  0  0
 57129  1  0  0  0
 58130  1  0  0  0
 59 60  1  0  0  0
 59 61  1  0  0  0
 59 62  1  0  0  0
 60131  1  0  0  0
 60132  1  0  0  0
 60133  1  0  0  0
 61134  1  0  0  0
 61135  1  0  0  0
 61136  1  0  0  0
 62137  1  0  0  0
 62138  1  0  0  0
 62139  1  0  0  0
 63 65  1  0  0  0
 63140  1  0  0  0
 63141  1  0  0  0
 63142  1  0  0  0
 64143  1  0  0  0
 65144  1  0  0  0
 68 83  1  0  0  0
 71 72  2  0  0  0
 71 73  1  0  0  0
 71145  1  0  0  0
 72 74  1  0  0  0
 72 77  1  0  0  0
 73 76  2  0  0  0
 73 84  1  0  0  0
 74 75  2  0  0  0
 74 82  1  0  0  0
 75 76  1  0  0  0
 75 78  1  0  0  0
 76 85  1  0  0  0
 77146  1  0  0  0
 77147  1  0  0  0
 77148  1  0  0  0
 78149  1  0  0  0
 78150  1  0  0  0
 78151  1  0  0  0
 79152  1  0  0  0
 79153  1  0  0  0
 79154  1  0  0  0
 79 84  1  0  0  0
 80 84  1  0  0  0
 80155  1  0  0  0
 80156  1  0  0  0
 80157  1  0  0  0
 81 84  1  0  0  0
 81158  1  0  0  0
 81159  1  0  0  0
 81160  1  0  0  0
 82 83  1  0  0  0
 82161  1  0  0  0
 82162  1  0  0  0
 83163  1  0  0  0
 83164  1  0  0  0
 85165  1  0  0  0
M  ISO  4   1 100  68 101  83 101  85 100
M  END
> <chiral flag>
0

> <version>
0

> <s_m_source_file>
/data/baiqing/PycharmProjects/Reinvent-master-3.2/result/LINK_invent/BTK/process_docking_weight1_custom_sum_contain_oxygen_bond_distance_aromatic_linkinvent_7_9_3/rearranged_h_0017.sdf

> <i_m_source_file_index>
66

> <r_mmod_Potential_Energy-OPLS-2005>
1724.59777832031

> <r_mmod_Stretch_Energy-OPLS-2005>
670.668029785156

> <r_mmod_Bend_Energy-OPLS-2005>
669.758239746094

> <r_mmod_Torsional_Energy-OPLS-2005>
325.179107666016

> <r_mmod_Improper_Torsional_Energy-OPLS-2005>
5.60744905471802

> <r_mmod_Van_der_Waal_Energy-OPLS-2005>
155.772094726562

> <r_mmod_Electrostatic_Energy-OPLS-2005>
-407.521881103516

> <r_mmod_Solvation_Energy-OPLS-2005>
-199.581726074219

> <b_mmod_Minimization_Converged-OPLS-2005>
0

> <r_mmod_RMS_Derivative-OPLS-2005>
7.41705989837646

$$$$
68
                    3D
 Structure written by MMmdl.
145153  0  0  1  0            999 V2000
  -30.2150  -15.8480   20.3135 C   0  0  0  0  0  0
  -30.4096  -13.2404   19.5441 C   0  0  0  0  0  0
  -29.5587  -12.7118   18.3466 C   0  0  0  0  0  0
  -28.1494  -12.3065   18.7988 C   0  0  0  0  0  0
  -27.5890  -13.3284   19.8102 C   0  0  2  0  0  0
  -28.5908  -13.7483   20.9173 C   0  0  0  0  0  0
  -25.2287  -13.8311   20.5819 C   0  0  0  0  0  0
  -24.1699  -13.0432   20.9300 C   0  0  0  0  0  0
  -24.6433  -11.6952   20.8763 C   0  0  0  0  0  0
  -23.9137  -10.4292   21.0388 C   0  0  0  0  0  0
  -24.3667   -9.4204   21.9172 C   0  0  0  0  0  0
  -23.6317   -8.2251   22.0754 C   0  0  0  0  0  0
  -22.4297   -8.0293   21.3546 C   0  0  0  0  0  0
  -21.9948   -9.0271   20.4645 C   0  0  0  0  0  0
  -22.7302  -10.2136   20.3043 C   0  0  0  0  0  0
  -21.6860   -6.0743   22.5277 C   0  0  0  0  0  0
  -21.4024   -6.5643   23.8210 C   0  0  0  0  0  0
  -21.3660   -5.6796   24.9171 C   0  0  0  0  0  0
  -21.6041   -4.3057   24.7221 C   0  0  0  0  0  0
  -21.8818   -3.8151   23.4342 C   0  0  0  0  0  0
  -21.9196   -4.6968   22.3398 C   0  0  0  0  0  0
  -22.7706  -13.5146   21.1929 C   0  0  0  0  0  0
  -22.1659   -4.2152   21.0977 F   0  0  0  0  0  0
  -21.5624   -3.4542   25.7733 F   0  0  0  0  0  0
  -29.7300  -14.4397   20.2503 N   0  0  0  0  0  0
  -26.2759  -12.9682   20.3256 N   0  0  0  0  0  0
  -25.9389  -11.6729   20.5688 N   0  0  0  0  0  0
  -22.0382  -12.8115   22.0481 N   0  0  0  0  0  0
  -25.3843  -15.2058   20.4261 N   0  0  0  0  0  0
  -31.4557  -15.7596   20.1775 O   0  0  0  0  0  0
  -21.6651   -6.8895   21.4243 O   0  0  0  0  0  0
  -22.3372  -14.5441   20.6763 O   0  0  0  0  0  0
  -24.6995  -31.7832   23.1373 C   0  0  0  0  0  0
  -25.9500  -32.4390   23.7978 C   0  0  1  0  0  0
  -27.2301  -26.5465   20.2325 C   0  0  0  0  0  0
  -25.6018  -33.8220   24.1863 N   0  0  0  0  0  0
  -23.5320  -30.3789   21.4949 C   0  0  2  0  0  0
  -24.9902  -28.6859   20.1224 C   0  0  0  0  0  0
  -22.7837  -29.4236   22.4659 C   0  0  0  0  0  0
  -18.0354  -28.1442   22.8454 C   0  0  0  0  0  0
  -24.1488  -36.7115   23.2655 C   0  0  0  0  0  0
  -26.1191  -30.4650   21.4243 C   0  0  0  0  0  0
  -26.1823  -29.0114   20.7794 C   0  0  0  0  0  0
  -27.2800  -27.9750   20.7965 C   0  0  0  0  0  0
  -26.0033  -26.4709   19.5129 C   0  0  0  0  0  0
  -24.9491  -27.4436   19.4640 C   0  0  0  0  0  0
  -23.7947  -29.6620   20.1368 C   0  0  0  0  0  0
  -25.4145  -36.2847   24.0271 C   0  0  1  0  0  0
  -20.5998  -28.3811   23.1119 C   0  0  2  0  0  0
  -20.6815  -26.9459   22.5409 C   0  0  0  0  0  0
  -19.5786  -26.6385   21.5227 C   0  0  0  0  0  0
  -18.1969  -26.7970   22.1627 C   0  0  0  0  0  0
  -19.1626  -28.8953   23.2767 C   0  0  0  0  0  0
  -18.9524  -30.1533   23.8821 C   0  0  0  0  0  0
  -17.6512  -30.6621   24.0556 C   0  0  0  0  0  0
  -25.9138  -34.9245   23.4913 C   0  0  0  0  0  0
  -16.5401  -29.9102   23.6360 C   0  0  0  0  0  0
  -16.7334  -28.6525   23.0376 C   0  0  0  0  0  0
  -26.4621  -31.6482   25.0660 C   0  0  0  0  0  0
  -25.3633  -31.3857   26.1239 C   0  0  0  0  0  0
  -27.0567  -30.2799   24.6666 C   0  0  0  0  0  0
  -27.6041  -32.4371   25.7489 C   0  0  0  0  0  0
  -27.5554  -37.1719   24.8468 C   0  0  0  0  0  0
  -21.4470  -29.3028   22.3414 N   0  0  0  0  0  0
  -26.4255  -37.3630   23.9414 N   0  0  0  0  0  0
  -24.8088  -30.9129   22.0707 N   0  0  0  0  0  0
  -23.4216  -28.7864   23.3071 O   0  0  0  0  0  0
  -28.1683  -25.2521   20.2994 O   0  0  0  0  0  0
  -26.5794  -34.8853   22.4540 O   0  0  0  0  0  0
  -23.5980  -32.0973   23.6239 O   0  0  0  0  0  0
  -30.1494  -21.2376   20.2420 C   0  0  0  0  0  0
  -28.7991  -21.6396   20.2708 C   0  0  0  0  0  0
  -28.4368  -20.0559   20.3195 C   0  0  0  0  0  0
  -29.4197  -18.8816   20.3150 C   0  0  0  0  0  0
  -31.8837  -19.3566   20.2286 C   0  0  0  0  0  0
  -27.9308  -23.4341   20.1928 C   0  0  0  0  0  0
  -30.5030  -19.8006   20.2656 N   0  0  0  0  0  0
  -29.4214  -17.2487   20.3460 N   0  0  0  0  0  0
  -26.7619  -19.6488   20.3724 Cl  0  0  0  0  0  0
  -31.3860  -13.5355   19.1581 H   0  0  0  0  0  0
  -30.6245  -12.4357   20.2494 H   0  0  0  0  0  0
  -30.0568  -11.8713   17.8612 H   0  0  0  0  0  0
  -29.4813  -13.4986   17.5948 H   0  0  0  0  0  0
  -28.2148  -11.3263   19.2731 H   0  0  0  0  0  0
  -27.4836  -12.1932   17.9422 H   0  0  0  0  0  0
  -27.4234  -14.2208   19.2048 H   0  0  0  0  0  0
  -28.9011  -12.9008   21.5306 H   0  0  0  0  0  0
  -28.1155  -14.4557   21.5987 H   0  0  0  0  0  0
  -25.2805   -9.5672   22.4755 H   0  0  0  0  0  0
  -24.0010   -7.4647   22.7488 H   0  0  0  0  0  0
  -21.0872   -8.8807   19.8957 H   0  0  0  0  0  0
  -22.3763  -10.9677   19.6154 H   0  0  0  0  0  0
  -21.2025   -7.6153   23.9712 H   0  0  0  0  0  0
  -21.1478   -6.0526   25.9072 H   0  0  0  0  0  0
  -22.0596   -2.7614   23.2842 H   0  0  0  0  0  0
  -22.4030  -11.9786   22.4860 H   0  0  0  0  0  0
  -21.0988  -13.1108   22.2690 H   0  0  0  0  0  0
  -24.6114  -15.8517   20.5432 H   0  0  0  0  0  0
  -26.2206  -15.6514   20.0741 H   0  0  0  0  0  0
  -26.7597  -32.4827   23.0697 H   0  0  0  0  0  0
  -25.0068  -33.9219   24.9956 H   0  0  0  0  0  0
  -22.8668  -31.2211   21.2925 H   0  0  0  0  0  0
  -23.3771  -35.9424   23.3257 H   0  0  0  0  0  0
  -24.3551  -36.8844   22.2082 H   0  0  0  0  0  0
  -23.7229  -37.6268   23.6776 H   0  0  0  0  0  0
  -26.3372  -31.1778   20.6281 H   0  0  0  0  0  0
  -26.9647  -30.5401   22.0953 H   0  0  0  0  0  0
  -28.1733  -28.2387   21.3443 H   0  0  0  0  0  0
  -25.8094  -25.5403   18.9983 H   0  0  0  0  0  0
  -24.0549  -27.1838   18.9144 H   0  0  0  0  0  0
  -23.9868  -30.4164   19.3730 H   0  0  0  0  0  0
  -22.8949  -29.1401   19.8063 H   0  0  0  0  0  0
  -25.1366  -36.1581   25.0761 H   0  0  0  0  0  0
  -21.0086  -28.3446   24.1244 H   0  0  0  0  0  0
  -20.5675  -26.2443   23.3689 H   0  0  0  0  0  0
  -21.6674  -26.7387   22.1227 H   0  0  0  0  0  0
  -19.6935  -25.6273   21.1318 H   0  0  0  0  0  0
  -19.6726  -27.3142   20.6713 H   0  0  0  0  0  0
  -17.4247  -26.6728   21.4023 H   0  0  0  0  0  0
  -18.0339  -26.0134   22.9041 H   0  0  0  0  0  0
  -19.7998  -30.7375   24.2157 H   0  0  0  0  0  0
  -17.5062  -31.6289   24.5179 H   0  0  0  0  0  0
  -15.5399  -30.2984   23.7724 H   0  0  0  0  0  0
  -15.8735  -28.0820   22.7136 H   0  0  0  0  0  0
  -24.5847  -30.7177   25.7537 H   0  0  0  0  0  0
  -24.8786  -32.3096   26.4402 H   0  0  0  0  0  0
  -25.7762  -30.9192   27.0190 H   0  0  0  0  0  0
  -26.3301  -29.6374   24.1684 H   0  0  0  0  0  0
  -27.3960  -29.7311   25.5465 H   0  0  0  0  0  0
  -27.9306  -30.3899   24.0240 H   0  0  0  0  0  0
  -27.2570  -33.3769   26.1802 H   0  0  0  0  0  0
  -28.3991  -32.6780   25.0414 H   0  0  0  0  0  0
  -28.0550  -31.8667   26.5621 H   0  0  0  0  0  0
  -28.2545  -38.0039   24.7515 H   0  0  0  0  0  0
  -28.1078  -36.2566   24.6297 H   0  0  0  0  0  0
  -27.2274  -37.1361   25.8870 H   0  0  0  0  0  0
  -20.9810  -29.8667   21.6443 H   0  0  0  0  0  0
  -26.0068  -38.2674   24.1423 H   0  0  0  0  0  0
  -30.9870  -21.9212   20.1902 H   0  0  0  0  0  0
  -32.5431  -20.1337   20.6160 H   0  0  0  0  0  0
  -32.1683  -19.1293   19.2013 H   0  0  0  0  0  0
  -32.0110  -18.4617   20.8376 H   0  0  0  0  0  0
  -27.1223  -23.2964   20.9110 H   0  0  0  0  0  0
  -27.4237  -23.3592   19.2309 H   0  0  0  0  0  0
  -28.4561  -16.9601   20.4083 H   0  0  0  0  0  0
  1 25  1  0  0  0
  1 30  2  0  0  0
  1 78  1  0  0  0
  2  3  1  0  0  0
  2 25  1  0  0  0
  2 80  1  0  0  0
  2 81  1  0  0  0
  3  4  1  0  0  0
  3 82  1  0  0  0
  3 83  1  0  0  0
  4  5  1  0  0  0
  4 84  1  0  0  0
  4 85  1  0  0  0
  5  6  1  0  0  0
  5 26  1  0  0  0
  5 86  1  0  0  0
  6 25  1  0  0  0
  6 87  1  0  0  0
  6 88  1  0  0  0
  7  8  2  0  0  0
  7 26  1  0  0  0
  7 29  1  0  0  0
  8  9  1  0  0  0
  8 22  1  0  0  0
  9 10  1  0  0  0
  9 27  2  0  0  0
 10 11  2  0  0  0
 10 15  1  0  0  0
 11 12  1  0  0  0
 11 89  1  0  0  0
 12 13  2  0  0  0
 12 90  1  0  0  0
 13 14  1  0  0  0
 13 31  1  0  0  0
 14 15  2  0  0  0
 14 91  1  0  0  0
 15 92  1  0  0  0
 16 17  2  0  0  0
 16 21  1  0  0  0
 16 31  1  0  0  0
 17 18  1  0  0  0
 17 93  1  0  0  0
 18 19  2  0  0  0
 18 94  1  0  0  0
 19 20  1  0  0  0
 19 24  1  0  0  0
 20 21  2  0  0  0
 20 95  1  0  0  0
 21 23  1  0  0  0
 22 28  1  0  0  0
 22 32  2  0  0  0
 26 27  1  0  0  0
 28 96  1  0  0  0
 28 97  1  0  0  0
 29 98  1  0  0  0
 29 99  1  0  0  0
 33 34  1  0  0  0
 33 66  1  0  0  0
 33 70  2  0  0  0
 34 36  1  0  0  0
 34 59  1  0  0  0
 34100  1  0  0  0
 35 44  2  0  0  0
 35 45  1  0  0  0
 35 68  1  0  0  0
 36 56  1  0  0  0
 36101  1  0  0  0
 37 39  1  0  0  0
 37 47  1  0  0  0
 37 66  1  0  0  0
 37102  1  0  0  0
 38 43  2  0  0  0
 38 46  1  0  0  0
 38 47  1  0  0  0
 39 64  1  0  0  0
 39 67  2  0  0  0
 40 52  1  0  0  0
 40 53  2  0  0  0
 40 58  1  0  0  0
 41103  1  0  0  0
 41104  1  0  0  0
 41105  1  0  0  0
 41 48  1  0  0  0
 42 43  1  0  0  0
 42 66  1  0  0  0
 42106  1  0  0  0
 42107  1  0  0  0
 43 44  1  0  0  0
 44108  1  0  0  0
 45 46  2  0  0  0
 45109  1  0  0  0
 46110  1  0  0  0
 47111  1  0  0  0
 47112  1  0  0  0
 48 56  1  0  0  0
 48 65  1  0  0  0
 48113  1  0  0  0
 49 50  1  0  0  0
 49 53  1  0  0  0
 49 64  1  0  0  0
 49114  1  0  0  0
 50 51  1  0  0  0
 50115  1  0  0  0
 50116  1  0  0  0
 51 52  1  0  0  0
 51117  1  0  0  0
 51118  1  0  0  0
 52119  1  0  0  0
 52120  1  0  0  0
 53 54  1  0  0  0
 54 55  2  0  0  0
 54121  1  0  0  0
 55 57  1  0  0  0
 55122  1  0  0  0
 56 69  2  0  0  0
 57 58  2  0  0  0
 57123  1  0  0  0
 58124  1  0  0  0
 59 60  1  0  0  0
 59 61  1  0  0  0
 59 62  1  0  0  0
 60125  1  0  0  0
 60126  1  0  0  0
 60127  1  0  0  0
 61128  1  0  0  0
 61129  1  0  0  0
 61130  1  0  0  0
 62131  1  0  0  0
 62132  1  0  0  0
 62133  1  0  0  0
 63 65  1  0  0  0
 63134  1  0  0  0
 63135  1  0  0  0
 63136  1  0  0  0
 64137  1  0  0  0
 65138  1  0  0  0
 68 76  1  0  0  0
 71 72  2  0  0  0
 71 77  1  0  0  0
 71139  1  0  0  0
 72 73  1  0  0  0
 72 76  1  0  0  0
 73 74  2  0  0  0
 73 79  1  0  0  0
 74 77  1  0  0  0
 74 78  1  0  0  0
 75 77  1  0  0  0
 75140  1  0  0  0
 75141  1  0  0  0
 75142  1  0  0  0
 76143  1  0  0  0
 76144  1  0  0  0
 78145  1  0  0  0
M  ISO  4   1 100  68 101  76 101  78 100
M  END
> <chiral flag>
0

> <version>
0

> <s_m_source_file>
/data/baiqing/PycharmProjects/Reinvent-master-3.2/result/LINK_invent/BTK/process_docking_weight1_custom_sum_contain_oxygen_bond_distance_aromatic_linkinvent_7_9_3/rearranged_h_0017.sdf

> <i_m_source_file_index>
67

> <r_mmod_Potential_Energy-OPLS-2005>
3041.498046875

> <r_mmod_Stretch_Energy-OPLS-2005>
1308.97326660156

> <r_mmod_Bend_Energy-OPLS-2005>
748.853332519531

> <r_mmod_Torsional_Energy-OPLS-2005>
214.828735351562

> <r_mmod_Improper_Torsional_Energy-OPLS-2005>
3.86188840866089

> <r_mmod_Van_der_Waal_Energy-OPLS-2005>
104.253204345703

> <r_mmod_Electrostatic_Energy-OPLS-2005>
-383.624938964844

> <r_mmod_Solvation_Energy-OPLS-2005>
-211.110580444336

> <b_mmod_Minimization_Converged-OPLS-2005>
0

> <r_mmod_RMS_Derivative-OPLS-2005>
1.02324938774109

$$$$
69
                    3D
 Structure written by MMmdl.
151159  0  0  1  0            999 V2000
  -30.4222  -15.2425   20.3889 C   0  0  0  0  0  0
  -30.4450  -12.7833   19.5376 C   0  0  0  0  0  0
  -29.5403  -12.5780   18.2945 C   0  0  0  0  0  0
  -28.0852  -12.3057   18.7141 C   0  0  0  0  0  0
  -27.6171  -13.2739   19.8281 C   0  0  2  0  0  0
  -28.6479  -13.4222   20.9668 C   0  0  0  0  0  0
  -25.2413  -13.8253   20.5747 C   0  0  0  0  0  0
  -24.1753  -13.0442   20.9238 C   0  0  0  0  0  0
  -24.6402  -11.6936   20.8743 C   0  0  0  0  0  0
  -23.9093  -10.4295   21.0397 C   0  0  0  0  0  0
  -24.3635   -9.4210   21.9178 C   0  0  0  0  0  0
  -23.6303   -8.2247   22.0751 C   0  0  0  0  0  0
  -22.4283   -8.0284   21.3544 C   0  0  0  0  0  0
  -21.9925   -9.0257   20.4643 C   0  0  0  0  0  0
  -22.7260  -10.2133   20.3049 C   0  0  0  0  0  0
  -21.6859   -6.0736   22.5277 C   0  0  0  0  0  0
  -21.4018   -6.5639   23.8209 C   0  0  0  0  0  0
  -21.3658   -5.6793   24.9171 C   0  0  0  0  0  0
  -21.6045   -4.3054   24.7224 C   0  0  0  0  0  0
  -21.8820   -3.8145   23.4345 C   0  0  0  0  0  0
  -21.9195   -4.6963   22.3400 C   0  0  0  0  0  0
  -22.7770  -13.5194   21.1892 C   0  0  0  0  0  0
  -22.1664   -4.2147   21.0979 F   0  0  0  0  0  0
  -21.5626   -3.4536   25.7737 F   0  0  0  0  0  0
  -29.8956  -13.9191   20.3659 N   0  0  0  0  0  0
  -26.2840  -12.9524   20.3223 N   0  0  0  0  0  0
  -25.9343  -11.6627   20.5711 N   0  0  0  0  0  0
  -22.0434  -12.8172   22.0448 N   0  0  0  0  0  0
  -25.4071  -15.1986   20.4215 N   0  0  0  0  0  0
  -31.6194  -15.2629   20.0666 O   0  0  0  0  0  0
  -21.6644   -6.8880   21.4239 O   0  0  0  0  0  0
  -22.3447  -14.5497   20.6738 O   0  0  0  0  0  0
  -24.6618  -31.8248   23.1716 C   0  0  0  0  0  0
  -25.9306  -32.4592   23.8182 C   0  0  1  0  0  0
  -27.2220  -26.9415   20.1807 C   0  0  0  0  0  0
  -25.5978  -33.8408   24.2087 N   0  0  0  0  0  0
  -23.4767  -30.4357   21.5198 C   0  0  2  0  0  0
  -24.9320  -28.8269   20.1086 C   0  0  0  0  0  0
  -22.7668  -29.4440   22.4778 C   0  0  0  0  0  0
  -18.0323  -28.1404   22.8473 C   0  0  0  0  0  0
  -24.1484  -36.7202   23.2651 C   0  0  0  0  0  0
  -26.0447  -30.6334   21.4029 C   0  0  0  0  0  0
  -26.1132  -29.2254   20.7459 C   0  0  0  0  0  0
  -27.2507  -28.3019   20.7621 C   0  0  0  0  0  0
  -26.0165  -26.6966   19.4848 C   0  0  0  0  0  0
  -24.9084  -27.5824   19.4576 C   0  0  0  0  0  0
  -23.7167  -29.7522   20.1450 C   0  0  0  0  0  0
  -25.4126  -36.2971   24.0303 C   0  0  1  0  0  0
  -20.5949  -28.3747   23.1185 C   0  0  2  0  0  0
  -20.6797  -26.9427   22.5400 C   0  0  0  0  0  0
  -19.5767  -26.6377   21.5216 C   0  0  0  0  0  0
  -18.1950  -26.7941   22.1622 C   0  0  0  0  0  0
  -19.1587  -28.8898   23.2814 C   0  0  0  0  0  0
  -18.9501  -30.1490   23.8843 C   0  0  0  0  0  0
  -17.6495  -30.6597   24.0558 C   0  0  0  0  0  0
  -25.9096  -34.9352   23.5016 C   0  0  0  0  0  0
  -16.5382  -29.9085   23.6349 C   0  0  0  0  0  0
  -16.7307  -28.6504   23.0369 C   0  0  0  0  0  0
  -26.4558  -31.6540   25.0712 C   0  0  0  0  0  0
  -25.3687  -31.3792   26.1370 C   0  0  0  0  0  0
  -27.0471  -30.2913   24.6451 C   0  0  0  0  0  0
  -27.6049  -32.4361   25.7502 C   0  0  0  0  0  0
  -27.5560  -37.1754   24.8471 C   0  0  0  0  0  0
  -21.4338  -29.3037   22.3532 N   0  0  0  0  0  0
  -26.4272  -37.3705   23.9412 N   0  0  0  0  0  0
  -24.7488  -30.9915   22.0849 N   0  0  0  0  0  0
  -23.4221  -28.8012   23.3020 O   0  0  0  0  0  0
  -28.2165  -25.8371   20.2944 O   0  0  0  0  0  0
  -26.5708  -34.8886   22.4614 O   0  0  0  0  0  0
  -23.5689  -32.1220   23.6806 O   0  0  0  0  0  0
  -29.9266  -20.3587   21.8715 C   0  0  0  0  0  0
  -29.9088  -21.6621   22.4334 C   0  0  0  0  0  0
  -29.3748  -20.0473   20.6108 C   0  0  0  0  0  0
  -28.7402  -22.7719   20.5399 C   0  0  0  0  0  0
  -29.3494  -22.8126   21.8171 C   0  0  0  0  0  0
  -28.7829  -21.3295   19.9809 C   0  0  0  0  0  0
  -29.8610  -16.9509   22.2935 C   0  0  0  0  0  0
  -29.6319  -18.4116   20.0348 C   0  0  0  0  0  0
  -27.9992  -24.2407   19.9515 C   0  0  0  0  0  0
  -29.6390  -16.7687   20.7845 C   0  0  1  0  0  0
  -29.4209  -24.2958   22.7015 Cl  0  0  0  0  0  0
  -28.0770  -21.1215   18.4199 Cl  0  0  0  0  0  0
  -31.4669  -12.9790   19.2110 H   0  0  0  0  0  0
  -30.5013  -11.8683   20.1292 H   0  0  0  0  0  0
  -29.9147  -11.7552   17.6837 H   0  0  0  0  0  0
  -29.5784  -13.4697   17.6672 H   0  0  0  0  0  0
  -28.0338  -11.2788   19.0780 H   0  0  0  0  0  0
  -27.4198  -12.3594   17.8518 H   0  0  0  0  0  0
  -27.5423  -14.2480   19.3437 H   0  0  0  0  0  0
  -28.7999  -12.4781   21.4917 H   0  0  0  0  0  0
  -28.2897  -14.1354   21.7106 H   0  0  0  0  0  0
  -25.2776   -9.5685   22.4757 H   0  0  0  0  0  0
  -24.0006   -7.4641   22.7476 H   0  0  0  0  0  0
  -21.0853   -8.8779   19.8953 H   0  0  0  0  0  0
  -22.3713  -10.9671   19.6157 H   0  0  0  0  0  0
  -21.2013   -7.6146   23.9712 H   0  0  0  0  0  0
  -21.1479   -6.0521   25.9074 H   0  0  0  0  0  0
  -22.0600   -2.7606   23.2845 H   0  0  0  0  0  0
  -22.4070  -11.9837   22.4830 H   0  0  0  0  0  0
  -21.1048  -13.1178   22.2662 H   0  0  0  0  0  0
  -24.6410  -15.8519   20.5435 H   0  0  0  0  0  0
  -26.2596  -15.6429   20.1063 H   0  0  0  0  0  0
  -26.7378  -32.5128   23.0898 H   0  0  0  0  0  0
  -25.0082  -33.9489   25.0209 H   0  0  0  0  0  0
  -22.7892  -31.2671   21.3495 H   0  0  0  0  0  0
  -23.3761  -35.9519   23.3303 H   0  0  0  0  0  0
  -24.3552  -36.8862   22.2069 H   0  0  0  0  0  0
  -23.7232  -37.6381   23.6716 H   0  0  0  0  0  0
  -26.2265  -31.3749   20.6244 H   0  0  0  0  0  0
  -26.9042  -30.6877   22.0591 H   0  0  0  0  0  0
  -28.1394  -28.6001   21.3002 H   0  0  0  0  0  0
  -25.8918  -25.7483   18.9835 H   0  0  0  0  0  0
  -24.0118  -27.2731   18.9387 H   0  0  0  0  0  0
  -23.8712  -30.5221   19.3884 H   0  0  0  0  0  0
  -22.8273  -29.2055   19.8265 H   0  0  0  0  0  0
  -25.1321  -36.1770   25.0793 H   0  0  0  0  0  0
  -21.0036  -28.3357   24.1311 H   0  0  0  0  0  0
  -20.5683  -26.2363   23.3642 H   0  0  0  0  0  0
  -21.6657  -26.7402   22.1199 H   0  0  0  0  0  0
  -19.6923  -25.6280   21.1268 H   0  0  0  0  0  0
  -19.6707  -27.3167   20.6730 H   0  0  0  0  0  0
  -17.4222  -26.6703   21.4023 H   0  0  0  0  0  0
  -18.0330  -26.0083   22.9016 H   0  0  0  0  0  0
  -19.7978  -30.7321   24.2182 H   0  0  0  0  0  0
  -17.5050  -31.6270   24.5174 H   0  0  0  0  0  0
  -15.5380  -30.2973   23.7703 H   0  0  0  0  0  0
  -15.8706  -28.0809   22.7113 H   0  0  0  0  0  0
  -24.5870  -30.7140   25.7680 H   0  0  0  0  0  0
  -24.8867  -32.2992   26.4687 H   0  0  0  0  0  0
  -25.7911  -30.9028   27.0228 H   0  0  0  0  0  0
  -26.3151  -29.6571   24.1434 H   0  0  0  0  0  0
  -27.3992  -29.7288   25.5108 H   0  0  0  0  0  0
  -27.9091  -30.4110   23.9885 H   0  0  0  0  0  0
  -27.2631  -33.3725   26.1923 H   0  0  0  0  0  0
  -28.3928  -32.6823   25.0372 H   0  0  0  0  0  0
  -28.0642  -31.8595   26.5542 H   0  0  0  0  0  0
  -28.2569  -38.0056   24.7505 H   0  0  0  0  0  0
  -28.1063  -36.2580   24.6317 H   0  0  0  0  0  0
  -27.2273  -37.1422   25.8874 H   0  0  0  0  0  0
  -20.9597  -29.8732   21.6661 H   0  0  0  0  0  0
  -26.0123  -38.2764   24.1427 H   0  0  0  0  0  0
  -30.4193  -19.5839   22.4370 H   0  0  0  0  0  0
  -30.3629  -21.7897   23.4061 H   0  0  0  0  0  0
  -29.1266  -17.6344   22.7192 H   0  0  0  0  0  0
  -30.8575  -17.3422   22.4972 H   0  0  0  0  0  0
  -29.7654  -16.0079   22.8335 H   0  0  0  0  0  0
  -30.6065  -18.4829   19.5516 H   0  0  0  0  0  0
  -28.9449  -18.3262   19.1926 H   0  0  0  0  0  0
  -26.9398  -24.0632   20.1341 H   0  0  0  0  0  0
  -28.0999  -24.1806   18.8681 H   0  0  0  0  0  0
  -28.5901  -16.4818   20.7092 H   0  0  0  0  0  0
  1 25  1  0  0  0
  1 30  2  0  0  0
  1 80  1  0  0  0
  2  3  1  0  0  0
  2 25  1  0  0  0
  2 83  1  0  0  0
  2 84  1  0  0  0
  3  4  1  0  0  0
  3 85  1  0  0  0
  3 86  1  0  0  0
  4  5  1  0  0  0
  4 87  1  0  0  0
  4 88  1  0  0  0
  5  6  1  0  0  0
  5 26  1  0  0  0
  5 89  1  0  0  0
  6 25  1  0  0  0
  6 90  1  0  0  0
  6 91  1  0  0  0
  7  8  2  0  0  0
  7 26  1  0  0  0
  7 29  1  0  0  0
  8  9  1  0  0  0
  8 22  1  0  0  0
  9 10  1  0  0  0
  9 27  2  0  0  0
 10 11  2  0  0  0
 10 15  1  0  0  0
 11 12  1  0  0  0
 11 92  1  0  0  0
 12 13  2  0  0  0
 12 93  1  0  0  0
 13 14  1  0  0  0
 13 31  1  0  0  0
 14 15  2  0  0  0
 14 94  1  0  0  0
 15 95  1  0  0  0
 16 17  2  0  0  0
 16 21  1  0  0  0
 16 31  1  0  0  0
 17 18  1  0  0  0
 17 96  1  0  0  0
 18 19  2  0  0  0
 18 97  1  0  0  0
 19 20  1  0  0  0
 19 24  1  0  0  0
 20 21  2  0  0  0
 20 98  1  0  0  0
 21 23  1  0  0  0
 22 28  1  0  0  0
 22 32  2  0  0  0
 26 27  1  0  0  0
 28 99  1  0  0  0
 28100  1  0  0  0
 29101  1  0  0  0
 29102  1  0  0  0
 33 34  1  0  0  0
 33 66  1  0  0  0
 33 70  2  0  0  0
 34 36  1  0  0  0
 34 59  1  0  0  0
 34103  1  0  0  0
 35 44  2  0  0  0
 35 45  1  0  0  0
 35 68  1  0  0  0
 36 56  1  0  0  0
 36104  1  0  0  0
 37 39  1  0  0  0
 37 47  1  0  0  0
 37 66  1  0  0  0
 37105  1  0  0  0
 38 43  2  0  0  0
 38 46  1  0  0  0
 38 47  1  0  0  0
 39 64  1  0  0  0
 39 67  2  0  0  0
 40 52  1  0  0  0
 40 53  2  0  0  0
 40 58  1  0  0  0
 41106  1  0  0  0
 41107  1  0  0  0
 41108  1  0  0  0
 41 48  1  0  0  0
 42 43  1  0  0  0
 42 66  1  0  0  0
 42109  1  0  0  0
 42110  1  0  0  0
 43 44  1  0  0  0
 44111  1  0  0  0
 45 46  2  0  0  0
 45112  1  0  0  0
 46113  1  0  0  0
 47114  1  0  0  0
 47115  1  0  0  0
 48 56  1  0  0  0
 48 65  1  0  0  0
 48116  1  0  0  0
 49 50  1  0  0  0
 49 53  1  0  0  0
 49 64  1  0  0  0
 49117  1  0  0  0
 50 51  1  0  0  0
 50118  1  0  0  0
 50119  1  0  0  0
 51 52  1  0  0  0
 51120  1  0  0  0
 51121  1  0  0  0
 52122  1  0  0  0
 52123  1  0  0  0
 53 54  1  0  0  0
 54 55  2  0  0  0
 54124  1  0  0  0
 55 57  1  0  0  0
 55125  1  0  0  0
 56 69  2  0  0  0
 57 58  2  0  0  0
 57126  1  0  0  0
 58127  1  0  0  0
 59 60  1  0  0  0
 59 61  1  0  0  0
 59 62  1  0  0  0
 60128  1  0  0  0
 60129  1  0  0  0
 60130  1  0  0  0
 61131  1  0  0  0
 61132  1  0  0  0
 61133  1  0  0  0
 62134  1  0  0  0
 62135  1  0  0  0
 62136  1  0  0  0
 63 65  1  0  0  0
 63137  1  0  0  0
 63138  1  0  0  0
 63139  1  0  0  0
 64140  1  0  0  0
 65141  1  0  0  0
 68 79  1  0  0  0
 71 72  2  0  0  0
 71 73  1  0  0  0
 71142  1  0  0  0
 72 75  1  0  0  0
 72143  1  0  0  0
 73 76  2  0  0  0
 73 78  1  0  0  0
 74 75  2  0  0  0
 74 76  1  0  0  0
 74 79  1  0  0  0
 75 81  1  0  0  0
 76 82  1  0  0  0
 77144  1  0  0  0
 77145  1  0  0  0
 77146  1  0  0  0
 77 80  1  0  0  0
 78 80  1  0  0  0
 78147  1  0  0  0
 78148  1  0  0  0
 79149  1  0  0  0
 79150  1  0  0  0
 80151  1  0  0  0
M  ISO  4   1 100  68 101  79 101  80 100
M  END
> <chiral flag>
0

> <version>
0

> <s_m_source_file>
/data/baiqing/PycharmProjects/Reinvent-master-3.2/result/LINK_invent/BTK/process_docking_weight1_custom_sum_contain_oxygen_bond_distance_aromatic_linkinvent_7_9_3/rearranged_h_0017.sdf

> <i_m_source_file_index>
68

> <r_mmod_Potential_Energy-OPLS-2005>
1248.47009277344

> <r_mmod_Stretch_Energy-OPLS-2005>
585.250610351562

> <r_mmod_Bend_Energy-OPLS-2005>
404.041809082031

> <r_mmod_Torsional_Energy-OPLS-2005>
191.427383422852

> <r_mmod_Improper_Torsional_Energy-OPLS-2005>
2.55942273139954

> <r_mmod_Van_der_Waal_Energy-OPLS-2005>
119.170021057129

> <r_mmod_Electrostatic_Energy-OPLS-2005>
-296.810180664062

> <r_mmod_Solvation_Energy-OPLS-2005>
-193.989456176758

> <b_mmod_Minimization_Converged-OPLS-2005>
0

> <r_mmod_RMS_Derivative-OPLS-2005>
0.754456102848053

$$$$
70
                    3D
 Structure written by MMmdl.
150158  0  0  1  0            999 V2000
  -30.4157  -15.3324   20.3461 C   0  0  0  0  0  0
  -30.4321  -12.8468   19.5519 C   0  0  0  0  0  0
  -29.5344  -12.5987   18.3096 C   0  0  0  0  0  0
  -28.0910  -12.2954   18.7409 C   0  0  0  0  0  0
  -27.6079  -13.2836   19.8288 C   0  0  2  0  0  0
  -28.6347  -13.4878   20.9653 C   0  0  0  0  0  0
  -25.2359  -13.8267   20.5773 C   0  0  0  0  0  0
  -24.1717  -13.0425   20.9265 C   0  0  0  0  0  0
  -24.6381  -11.6929   20.8746 C   0  0  0  0  0  0
  -23.9077  -10.4289   21.0378 C   0  0  0  0  0  0
  -24.3622   -9.4206   21.9154 C   0  0  0  0  0  0
  -23.6291   -8.2249   22.0742 C   0  0  0  0  0  0
  -22.4273   -8.0287   21.3534 C   0  0  0  0  0  0
  -21.9906   -9.0258   20.4635 C   0  0  0  0  0  0
  -22.7240  -10.2127   20.3031 C   0  0  0  0  0  0
  -21.6837   -6.0720   22.5265 C   0  0  0  0  0  0
  -21.4032   -6.5633   23.8203 C   0  0  0  0  0  0
  -21.3657   -5.6782   24.9159 C   0  0  0  0  0  0
  -21.6032   -4.3046   24.7209 C   0  0  0  0  0  0
  -21.8831   -3.8138   23.4328 C   0  0  0  0  0  0
  -21.9208   -4.6957   22.3386 C   0  0  0  0  0  0
  -22.7732  -13.5174   21.1922 C   0  0  0  0  0  0
  -22.1662   -4.2137   21.0954 F   0  0  0  0  0  0
  -21.5619   -3.4527   25.7720 F   0  0  0  0  0  0
  -29.8694  -14.0068   20.3474 N   0  0  0  0  0  0
  -26.2798  -12.9552   20.3259 N   0  0  0  0  0  0
  -25.9330  -11.6639   20.5735 N   0  0  0  0  0  0
  -22.0404  -12.8133   22.0477 N   0  0  0  0  0  0
  -25.3968  -15.2004   20.4250 N   0  0  0  0  0  0
  -31.6293  -15.3197   20.0820 O   0  0  0  0  0  0
  -21.6647   -6.8866   21.4227 O   0  0  0  0  0  0
  -22.3398  -14.5468   20.6762 O   0  0  0  0  0  0
  -24.6595  -31.8169   23.1666 C   0  0  0  0  0  0
  -25.9293  -32.4561   23.8101 C   0  0  1  0  0  0
  -27.2385  -26.8962   20.1878 C   0  0  0  0  0  0
  -25.5930  -33.8360   24.1983 N   0  0  0  0  0  0
  -23.4809  -30.4216   21.5177 C   0  0  2  0  0  0
  -24.9410  -28.7993   20.1113 C   0  0  0  0  0  0
  -22.7682  -29.4341   22.4758 C   0  0  0  0  0  0
  -18.0322  -28.1389   22.8433 C   0  0  0  0  0  0
  -24.1497  -36.7218   23.2650 C   0  0  0  0  0  0
  -26.0483  -30.6117   21.4056 C   0  0  0  0  0  0
  -26.1222  -29.1975   20.7495 C   0  0  0  0  0  0
  -27.2592  -28.2653   20.7685 C   0  0  0  0  0  0
  -26.0309  -26.6581   19.4921 C   0  0  0  0  0  0
  -24.9221  -27.5497   19.4658 C   0  0  0  0  0  0
  -23.7271  -29.7306   20.1477 C   0  0  0  0  0  0
  -25.4135  -36.2945   24.0285 C   0  0  1  0  0  0
  -20.5927  -28.3735   23.1173 C   0  0  2  0  0  0
  -20.6773  -26.9391   22.5395 C   0  0  0  0  0  0
  -19.5764  -26.6328   21.5201 C   0  0  0  0  0  0
  -18.1945  -26.7915   22.1576 C   0  0  0  0  0  0
  -19.1575  -28.8883   23.2789 C   0  0  0  0  0  0
  -18.9483  -30.1476   23.8826 C   0  0  0  0  0  0
  -17.6496  -30.6596   24.0531 C   0  0  0  0  0  0
  -25.9096  -34.9339   23.4974 C   0  0  0  0  0  0
  -16.5387  -29.9073   23.6349 C   0  0  0  0  0  0
  -16.7302  -28.6508   23.0326 C   0  0  0  0  0  0
  -26.4531  -31.6545   25.0665 C   0  0  0  0  0  0
  -25.3623  -31.3838   26.1310 C   0  0  0  0  0  0
  -27.0463  -30.2890   24.6486 C   0  0  0  0  0  0
  -27.5969  -32.4398   25.7492 C   0  0  0  0  0  0
  -27.5580  -37.1726   24.8443 C   0  0  0  0  0  0
  -21.4331  -29.3038   22.3555 N   0  0  0  0  0  0
  -26.4269  -37.3687   23.9432 N   0  0  0  0  0  0
  -24.7501  -30.9774   22.0841 N   0  0  0  0  0  0
  -23.4235  -28.7902   23.2978 O   0  0  0  0  0  0
  -28.2492  -25.7920   20.3226 O   0  0  0  0  0  0
  -26.5748  -34.8917   22.4591 O   0  0  0  0  0  0
  -23.5663  -32.1179   23.6738 O   0  0  0  0  0  0
  -30.3386  -21.0318   19.2052 C   0  0  0  0  0  0
  -30.8098  -18.5603   19.2152 C   0  0  0  0  0  0
  -31.0838  -19.8910   18.7801 C   0  0  0  0  0  0
  -29.2665  -20.9858   20.1260 C   0  0  0  0  0  0
  -29.8097  -18.2152   20.1525 C   0  0  0  0  0  0
  -29.0543  -19.5096   20.5760 C   0  0  0  0  0  0
  -28.6326  -22.5590   20.6411 C   0  0  0  0  0  0
  -28.2932  -24.1812   19.8642 C   0  0  0  0  0  0
  -32.2869  -20.0895   17.8566 C   0  0  0  0  0  0
  -29.6619  -16.6189   20.5058 N   0  0  0  0  0  0
  -28.0781  -19.3266   21.4949 F   0  0  0  0  0  0
  -32.3998  -21.3474   17.4265 F   0  0  0  0  0  0
  -33.3965  -19.7803   18.5290 F   0  0  0  0  0  0
  -32.2071  -19.2959   16.7885 F   0  0  0  0  0  0
  -31.4533  -13.0393   19.2229 H   0  0  0  0  0  0
  -30.4921  -11.9466   20.1642 H   0  0  0  0  0  0
  -29.9271  -11.7771   17.7058 H   0  0  0  0  0  0
  -29.5420  -13.4836   17.6729 H   0  0  0  0  0  0
  -28.0725  -11.2808   19.1393 H   0  0  0  0  0  0
  -27.4158  -12.2986   17.8815 H   0  0  0  0  0  0
  -27.5150  -14.2410   19.3141 H   0  0  0  0  0  0
  -28.8035  -12.5644   21.5174 H   0  0  0  0  0  0
  -28.2559  -14.2112   21.6905 H   0  0  0  0  0  0
  -25.2753   -9.5690   22.4743 H   0  0  0  0  0  0
  -23.9983   -7.4646   22.7480 H   0  0  0  0  0  0
  -21.0819   -8.8777   19.8957 H   0  0  0  0  0  0
  -22.3670  -10.9671   19.6159 H   0  0  0  0  0  0
  -21.2026   -7.6143   23.9693 H   0  0  0  0  0  0
  -21.1460   -6.0508   25.9052 H   0  0  0  0  0  0
  -22.0615   -2.7603   23.2826 H   0  0  0  0  0  0
  -22.4049  -11.9793   22.4850 H   0  0  0  0  0  0
  -21.1029  -13.1150   22.2704 H   0  0  0  0  0  0
  -24.6310  -15.8496   20.5658 H   0  0  0  0  0  0
  -26.2284  -15.6485   20.0624 H   0  0  0  0  0  0
  -26.7368  -32.5089   23.0815 H   0  0  0  0  0  0
  -24.9913  -33.9436   25.0021 H   0  0  0  0  0  0
  -22.7924  -31.2496   21.3417 H   0  0  0  0  0  0
  -23.3772  -35.9531   23.3212 H   0  0  0  0  0  0
  -24.3572  -36.8996   22.2083 H   0  0  0  0  0  0
  -23.7242  -37.6359   23.6812 H   0  0  0  0  0  0
  -26.2177  -31.3516   20.6240 H   0  0  0  0  0  0
  -26.9083  -30.6792   22.0592 H   0  0  0  0  0  0
  -28.1479  -28.5635   21.3125 H   0  0  0  0  0  0
  -25.9039  -25.7024   19.0062 H   0  0  0  0  0  0
  -24.0270  -27.2296   18.9503 H   0  0  0  0  0  0
  -23.8872  -30.4964   19.3913 H   0  0  0  0  0  0
  -22.8372  -29.1871   19.8253 H   0  0  0  0  0  0
  -25.1316  -36.1688   25.0763 H   0  0  0  0  0  0
  -20.9986  -28.3361   24.1287 H   0  0  0  0  0  0
  -20.5594  -26.2362   23.3649 H   0  0  0  0  0  0
  -21.6655  -26.7336   22.1236 H   0  0  0  0  0  0
  -19.6944  -25.6228   21.1254 H   0  0  0  0  0  0
  -19.6720  -27.3114   20.6720 H   0  0  0  0  0  0
  -17.4197  -26.6631   21.3996 H   0  0  0  0  0  0
  -18.0344  -26.0096   22.8983 H   0  0  0  0  0  0
  -19.8004  -30.7267   24.2136 H   0  0  0  0  0  0
  -17.5096  -31.6251   24.5144 H   0  0  0  0  0  0
  -15.5386  -30.2942   23.7783 H   0  0  0  0  0  0
  -15.8695  -28.0853   22.7035 H   0  0  0  0  0  0
  -24.5797  -30.7216   25.7607 H   0  0  0  0  0  0
  -24.8844  -32.3077   26.4578 H   0  0  0  0  0  0
  -25.7803  -30.9074   27.0187 H   0  0  0  0  0  0
  -26.3163  -29.6508   24.1509 H   0  0  0  0  0  0
  -27.3962  -29.7329   25.5198 H   0  0  0  0  0  0
  -27.9107  -30.4029   23.9932 H   0  0  0  0  0  0
  -27.2471  -33.3735   26.1893 H   0  0  0  0  0  0
  -28.3871  -32.6892   25.0405 H   0  0  0  0  0  0
  -28.0538  -31.8658   26.5570 H   0  0  0  0  0  0
  -28.2456  -38.0160   24.7579 H   0  0  0  0  0  0
  -28.1200  -36.2667   24.6106 H   0  0  0  0  0  0
  -27.2315  -37.1154   25.8847 H   0  0  0  0  0  0
  -20.9591  -29.8791   21.6718 H   0  0  0  0  0  0
  -26.0091  -38.2701   24.1552 H   0  0  0  0  0  0
  -30.6481  -22.0013   18.8431 H   0  0  0  0  0  0
  -31.4219  -17.7748   18.8014 H   0  0  0  0  0  0
  -27.7271  -22.3089   21.1989 H   0  0  0  0  0  0
  -29.3480  -22.8300   21.4186 H   0  0  0  0  0  0
  -27.4049  -24.0211   19.2558 H   0  0  0  0  0  0
  -29.0901  -24.2408   19.1227 H   0  0  0  0  0  0
  -28.7541  -16.4206   20.9024 H   0  0  0  0  0  0
  1 25  1  0  0  0
  1 30  2  0  0  0
  1 80  1  0  0  0
  2  3  1  0  0  0
  2 25  1  0  0  0
  2 85  1  0  0  0
  2 86  1  0  0  0
  3  4  1  0  0  0
  3 87  1  0  0  0
  3 88  1  0  0  0
  4  5  1  0  0  0
  4 89  1  0  0  0
  4 90  1  0  0  0
  5  6  1  0  0  0
  5 26  1  0  0  0
  5 91  1  0  0  0
  6 25  1  0  0  0
  6 92  1  0  0  0
  6 93  1  0  0  0
  7  8  2  0  0  0
  7 26  1  0  0  0
  7 29  1  0  0  0
  8  9  1  0  0  0
  8 22  1  0  0  0
  9 10  1  0  0  0
  9 27  2  0  0  0
 10 11  2  0  0  0
 10 15  1  0  0  0
 11 12  1  0  0  0
 11 94  1  0  0  0
 12 13  2  0  0  0
 12 95  1  0  0  0
 13 14  1  0  0  0
 13 31  1  0  0  0
 14 15  2  0  0  0
 14 96  1  0  0  0
 15 97  1  0  0  0
 16 17  2  0  0  0
 16 21  1  0  0  0
 16 31  1  0  0  0
 17 18  1  0  0  0
 17 98  1  0  0  0
 18 19  2  0  0  0
 18 99  1  0  0  0
 19 20  1  0  0  0
 19 24  1  0  0  0
 20 21  2  0  0  0
 20100  1  0  0  0
 21 23  1  0  0  0
 22 28  1  0  0  0
 22 32  2  0  0  0
 26 27  1  0  0  0
 28101  1  0  0  0
 28102  1  0  0  0
 29103  1  0  0  0
 29104  1  0  0  0
 33 34  1  0  0  0
 33 66  1  0  0  0
 33 70  2  0  0  0
 34 36  1  0  0  0
 34 59  1  0  0  0
 34105  1  0  0  0
 35 44  2  0  0  0
 35 45  1  0  0  0
 35 68  1  0  0  0
 36 56  1  0  0  0
 36106  1  0  0  0
 37 39  1  0  0  0
 37 47  1  0  0  0
 37 66  1  0  0  0
 37107  1  0  0  0
 38 43  2  0  0  0
 38 46  1  0  0  0
 38 47  1  0  0  0
 39 64  1  0  0  0
 39 67  2  0  0  0
 40 52  1  0  0  0
 40 53  2  0  0  0
 40 58  1  0  0  0
 41108  1  0  0  0
 41109  1  0  0  0
 41110  1  0  0  0
 41 48  1  0  0  0
 42 43  1  0  0  0
 42 66  1  0  0  0
 42111  1  0  0  0
 42112  1  0  0  0
 43 44  1  0  0  0
 44113  1  0  0  0
 45 46  2  0  0  0
 45114  1  0  0  0
 46115  1  0  0  0
 47116  1  0  0  0
 47117  1  0  0  0
 48 56  1  0  0  0
 48 65  1  0  0  0
 48118  1  0  0  0
 49 50  1  0  0  0
 49 53  1  0  0  0
 49 64  1  0  0  0
 49119  1  0  0  0
 50 51  1  0  0  0
 50120  1  0  0  0
 50121  1  0  0  0
 51 52  1  0  0  0
 51122  1  0  0  0
 51123  1  0  0  0
 52124  1  0  0  0
 52125  1  0  0  0
 53 54  1  0  0  0
 54 55  2  0  0  0
 54126  1  0  0  0
 55 57  1  0  0  0
 55127  1  0  0  0
 56 69  2  0  0  0
 57 58  2  0  0  0
 57128  1  0  0  0
 58129  1  0  0  0
 59 60  1  0  0  0
 59 61  1  0  0  0
 59 62  1  0  0  0
 60130  1  0  0  0
 60131  1  0  0  0
 60132  1  0  0  0
 61133  1  0  0  0
 61134  1  0  0  0
 61135  1  0  0  0
 62136  1  0  0  0
 62137  1  0  0  0
 62138  1  0  0  0
 63 65  1  0  0  0
 63139  1  0  0  0
 63140  1  0  0  0
 63141  1  0  0  0
 64142  1  0  0  0
 65143  1  0  0  0
 68 78  1  0  0  0
 71 73  2  0  0  0
 71 74  1  0  0  0
 71144  1  0  0  0
 72 73  1  0  0  0
 72 75  2  0  0  0
 72145  1  0  0  0
 73 79  1  0  0  0
 74 76  2  0  0  0
 74 77  1  0  0  0
 75 76  1  0  0  0
 75 80  1  0  0  0
 76 81  1  0  0  0
 77 78  1  0  0  0
 77146  1  0  0  0
 77147  1  0  0  0
 78148  1  0  0  0
 78149  1  0  0  0
 79 82  1  0  0  0
 79 83  1  0  0  0
 79 84  1  0  0  0
 80150  1  0  0  0
M  ISO  4   1 100  68 101  78 101  80 100
M  END
> <chiral flag>
0

> <version>
0

> <s_m_source_file>
/data/baiqing/PycharmProjects/Reinvent-master-3.2/result/LINK_invent/BTK/process_docking_weight1_custom_sum_contain_oxygen_bond_distance_aromatic_linkinvent_7_9_3/rearranged_h_0017.sdf

> <i_m_source_file_index>
69

> <r_mmod_Potential_Energy-OPLS-2005>
1399.03125

> <r_mmod_Stretch_Energy-OPLS-2005>
654.6767578125

> <r_mmod_Bend_Energy-OPLS-2005>
455.530792236328

> <r_mmod_Torsional_Energy-OPLS-2005>
219.942428588867

> <r_mmod_Improper_Torsional_Energy-OPLS-2005>
3.77803754806519

> <r_mmod_Van_der_Waal_Energy-OPLS-2005>
124.963798522949

> <r_mmod_Electrostatic_Energy-OPLS-2005>
-375.728057861328

> <r_mmod_Solvation_Energy-OPLS-2005>
-204.677703857422

> <b_mmod_Minimization_Converged-OPLS-2005>
0

> <r_mmod_RMS_Derivative-OPLS-2005>
5.13131141662598

$$$$
71
                    3D
 Structure written by MMmdl.
150158  0  0  1  0            999 V2000
  -30.3030  -15.5965   20.3294 C   0  0  0  0  0  0
  -30.4331  -13.0498   19.5374 C   0  0  0  0  0  0
  -29.5548  -12.6524   18.3171 C   0  0  0  0  0  0
  -28.1210  -12.3079   18.7528 C   0  0  0  0  0  0
  -27.5999  -13.3061   19.8128 C   0  0  2  0  0  0
  -28.6206  -13.6106   20.9343 C   0  0  0  0  0  0
  -25.2337  -13.8285   20.5783 C   0  0  0  0  0  0
  -24.1727  -13.0435   20.9286 C   0  0  0  0  0  0
  -24.6426  -11.6947   20.8764 C   0  0  0  0  0  0
  -23.9123  -10.4297   21.0407 C   0  0  0  0  0  0
  -24.3650   -9.4208   21.9193 C   0  0  0  0  0  0
  -23.6308   -8.2250   22.0763 C   0  0  0  0  0  0
  -22.4288   -8.0295   21.3550 C   0  0  0  0  0  0
  -21.9936   -9.0275   20.4652 C   0  0  0  0  0  0
  -22.7283  -10.2145   20.3059 C   0  0  0  0  0  0
  -21.6858   -6.0746   22.5279 C   0  0  0  0  0  0
  -21.4020   -6.5647   23.8215 C   0  0  0  0  0  0
  -21.3661   -5.6794   24.9175 C   0  0  0  0  0  0
  -21.6041   -4.3055   24.7225 C   0  0  0  0  0  0
  -21.8816   -3.8151   23.4343 C   0  0  0  0  0  0
  -21.9193   -4.6971   22.3401 C   0  0  0  0  0  0
  -22.7737  -13.5177   21.1907 C   0  0  0  0  0  0
  -22.1661   -4.2160   21.0975 F   0  0  0  0  0  0
  -21.5627   -3.4533   25.7736 F   0  0  0  0  0  0
  -29.8019  -14.2255   20.2852 N   0  0  0  0  0  0
  -26.2789  -12.9615   20.3212 N   0  0  0  0  0  0
  -25.9371  -11.6688   20.5687 N   0  0  0  0  0  0
  -22.0375  -12.8180   22.0457 N   0  0  0  0  0  0
  -25.3909  -15.2028   20.4214 N   0  0  0  0  0  0
  -31.5376  -15.5666   20.1621 O   0  0  0  0  0  0
  -21.6642   -6.8893   21.4243 O   0  0  0  0  0  0
  -22.3426  -14.5471   20.6726 O   0  0  0  0  0  0
  -24.6838  -31.8014   23.1524 C   0  0  0  0  0  0
  -25.9417  -32.4480   23.8077 C   0  0  1  0  0  0
  -27.2289  -26.7112   20.2108 C   0  0  0  0  0  0
  -25.5993  -33.8305   24.1958 N   0  0  0  0  0  0
  -23.5095  -30.4033   21.5071 C   0  0  2  0  0  0
  -24.9676  -28.7466   20.1193 C   0  0  0  0  0  0
  -22.7770  -29.4327   22.4725 C   0  0  0  0  0  0
  -18.0338  -28.1421   22.8454 C   0  0  0  0  0  0
  -24.1494  -36.7164   23.2651 C   0  0  0  0  0  0
  -26.0906  -30.5371   21.4160 C   0  0  0  0  0  0
  -26.1577  -29.1027   20.7651 C   0  0  0  0  0  0
  -27.2747  -28.1136   20.7774 C   0  0  0  0  0  0
  -26.0042  -26.5640   19.5098 C   0  0  0  0  0  0
  -24.9298  -27.5024   19.4678 C   0  0  0  0  0  0
  -23.7631  -29.7004   20.1427 C   0  0  0  0  0  0
  -25.4144  -36.2907   24.0281 C   0  0  1  0  0  0
  -20.5974  -28.3785   23.1142 C   0  0  2  0  0  0
  -20.6807  -26.9445   22.5404 C   0  0  0  0  0  0
  -19.5780  -26.6369   21.5219 C   0  0  0  0  0  0
  -18.1961  -26.7948   22.1619 C   0  0  0  0  0  0
  -19.1604  -28.8928   23.2777 C   0  0  0  0  0  0
  -18.9509  -30.1510   23.8824 C   0  0  0  0  0  0
  -17.6499  -30.6605   24.0547 C   0  0  0  0  0  0
  -25.9126  -34.9295   23.4959 C   0  0  0  0  0  0
  -16.5389  -29.9087   23.6349 C   0  0  0  0  0  0
  -16.7318  -28.6507   23.0371 C   0  0  0  0  0  0
  -26.4590  -31.6516   25.0701 C   0  0  0  0  0  0
  -25.3651  -31.3845   26.1317 C   0  0  0  0  0  0
  -27.0515  -30.2852   24.6603 C   0  0  0  0  0  0
  -27.6038  -32.4375   25.7522 C   0  0  0  0  0  0
  -27.5566  -37.1743   24.8462 C   0  0  0  0  0  0
  -21.4417  -29.3032   22.3468 N   0  0  0  0  0  0
  -26.4274  -37.3664   23.9402 N   0  0  0  0  0  0
  -24.7848  -30.9466   22.0775 N   0  0  0  0  0  0
  -23.4220  -28.7931   23.3068 O   0  0  0  0  0  0
  -28.1879  -25.4899   20.2657 O   0  0  0  0  0  0
  -26.5762  -34.8869   22.4574 O   0  0  0  0  0  0
  -23.5856  -32.1087   23.6473 O   0  0  0  0  0  0
  -29.5100  -19.6971   21.3327 C   0  0  0  0  0  0
  -29.1708  -21.1965   21.3109 C   0  0  0  0  0  0
  -28.6323  -22.0596   20.2152 C   0  0  0  0  0  0
  -28.5479  -20.9976   19.1598 C   0  0  0  0  0  0
  -29.4054  -18.6290   20.2966 C   0  0  0  0  0  0
  -28.8669  -19.4893   19.2069 C   0  0  0  0  0  0
  -29.3606  -21.9182   22.6319 C   0  0  0  0  0  0
  -28.0094  -21.5011   17.8254 C   0  0  0  0  0  0
  -27.8594  -23.7718   20.2179 C   0  0  0  0  0  0
  -29.4780  -16.9094   20.3836 N   0  0  0  0  0  0
  -28.4945  -18.5708   17.7864 Cl  0  0  0  0  0  0
  -31.4286  -13.3130   19.1787 H   0  0  0  0  0  0
  -30.5849  -12.1961   20.2006 H   0  0  0  0  0  0
  -30.0006  -11.8137   17.7812 H   0  0  0  0  0  0
  -29.5288  -13.4853   17.6121 H   0  0  0  0  0  0
  -28.1319  -11.3022   19.1748 H   0  0  0  0  0  0
  -27.4546  -12.2730   17.8901 H   0  0  0  0  0  0
  -27.4698  -14.2377   19.2603 H   0  0  0  0  0  0
  -28.8701  -12.7170   21.5086 H   0  0  0  0  0  0
  -28.1974  -14.3230   21.6440 H   0  0  0  0  0  0
  -25.2794   -9.5685   22.4769 H   0  0  0  0  0  0
  -24.0013   -7.4646   22.7490 H   0  0  0  0  0  0
  -21.0866   -8.8805   19.8960 H   0  0  0  0  0  0
  -22.3750  -10.9686   19.6166 H   0  0  0  0  0  0
  -21.2016   -7.6155   23.9723 H   0  0  0  0  0  0
  -21.1484   -6.0522   25.9079 H   0  0  0  0  0  0
  -22.0591   -2.7613   23.2833 H   0  0  0  0  0  0
  -22.3991  -11.9871   22.4900 H   0  0  0  0  0  0
  -21.0981  -13.1211   22.2606 H   0  0  0  0  0  0
  -24.6120  -15.8434   20.5278 H   0  0  0  0  0  0
  -26.2173  -15.6437   20.0415 H   0  0  0  0  0  0
  -26.7509  -32.4956   23.0800 H   0  0  0  0  0  0
  -25.0049  -33.9356   25.0048 H   0  0  0  0  0  0
  -22.8344  -31.2404   21.3173 H   0  0  0  0  0  0
  -23.3776  -35.9476   23.3272 H   0  0  0  0  0  0
  -24.3558  -36.8870   22.2074 H   0  0  0  0  0  0
  -23.7242  -37.6327   23.6756 H   0  0  0  0  0  0
  -26.2925  -31.2639   20.6282 H   0  0  0  0  0  0
  -26.9408  -30.6045   22.0822 H   0  0  0  0  0  0
  -28.1709  -28.3931   21.3132 H   0  0  0  0  0  0
  -25.8356  -25.6241   19.0045 H   0  0  0  0  0  0
  -24.0320  -27.2206   18.9347 H   0  0  0  0  0  0
  -23.9382  -30.4601   19.3801 H   0  0  0  0  0  0
  -22.8681  -29.1667   19.8181 H   0  0  0  0  0  0
  -25.1357  -36.1675   25.0774 H   0  0  0  0  0  0
  -21.0050  -28.3409   24.1270 H   0  0  0  0  0  0
  -20.5674  -26.2412   23.3669 H   0  0  0  0  0  0
  -21.6668  -26.7394   22.1220 H   0  0  0  0  0  0
  -19.6940  -25.6258   21.1300 H   0  0  0  0  0  0
  -19.6718  -27.3135   20.6714 H   0  0  0  0  0  0
  -17.4235  -26.6693   21.4018 H   0  0  0  0  0  0
  -18.0345  -26.0109   22.9030 H   0  0  0  0  0  0
  -19.7987  -30.7337   24.2170 H   0  0  0  0  0  0
  -17.5053  -31.6279   24.5160 H   0  0  0  0  0  0
  -15.5386  -30.2963   23.7716 H   0  0  0  0  0  0
  -15.8720  -28.0794   22.7137 H   0  0  0  0  0  0
  -24.5849  -30.7182   25.7622 H   0  0  0  0  0  0
  -24.8823  -32.3070   26.4546 H   0  0  0  0  0  0
  -25.7819  -30.9136   27.0229 H   0  0  0  0  0  0
  -26.3232  -29.6473   24.1586 H   0  0  0  0  0  0
  -27.3927  -29.7295   25.5348 H   0  0  0  0  0  0
  -27.9220  -30.3976   24.0139 H   0  0  0  0  0  0
  -27.2578  -33.3741   26.1908 H   0  0  0  0  0  0
  -28.3948  -32.6839   25.0427 H   0  0  0  0  0  0
  -28.0601  -31.8638   26.5599 H   0  0  0  0  0  0
  -28.2556  -38.0064   24.7507 H   0  0  0  0  0  0
  -28.1091  -36.2586   24.6294 H   0  0  0  0  0  0
  -27.2281  -37.1388   25.8865 H   0  0  0  0  0  0
  -20.9735  -29.8686   21.6524 H   0  0  0  0  0  0
  -26.0106  -38.2720   24.1396 H   0  0  0  0  0  0
  -29.8387  -19.3206   22.2904 H   0  0  0  0  0  0
  -29.9530  -21.3324   23.3357 H   0  0  0  0  0  0
  -28.3948  -22.1256   23.0932 H   0  0  0  0  0  0
  -29.8761  -22.8671   22.4788 H   0  0  0  0  0  0
  -28.0609  -22.5843   17.7361 H   0  0  0  0  0  0
  -26.9723  -21.1938   17.6909 H   0  0  0  0  0  0
  -28.5942  -21.1147   16.9910 H   0  0  0  0  0  0
  -27.1982  -23.6787   21.0796 H   0  0  0  0  0  0
  -27.1639  -23.7141   19.3830 H   0  0  0  0  0  0
  -28.5254  -16.5807   20.4337 H   0  0  0  0  0  0
  1 25  1  0  0  0
  1 30  2  0  0  0
  1 80  1  0  0  0
  2  3  1  0  0  0
  2 25  1  0  0  0
  2 82  1  0  0  0
  2 83  1  0  0  0
  3  4  1  0  0  0
  3 84  1  0  0  0
  3 85  1  0  0  0
  4  5  1  0  0  0
  4 86  1  0  0  0
  4 87  1  0  0  0
  5  6  1  0  0  0
  5 26  1  0  0  0
  5 88  1  0  0  0
  6 25  1  0  0  0
  6 89  1  0  0  0
  6 90  1  0  0  0
  7  8  2  0  0  0
  7 26  1  0  0  0
  7 29  1  0  0  0
  8  9  1  0  0  0
  8 22  1  0  0  0
  9 10  1  0  0  0
  9 27  2  0  0  0
 10 11  2  0  0  0
 10 15  1  0  0  0
 11 12  1  0  0  0
 11 91  1  0  0  0
 12 13  2  0  0  0
 12 92  1  0  0  0
 13 14  1  0  0  0
 13 31  1  0  0  0
 14 15  2  0  0  0
 14 93  1  0  0  0
 15 94  1  0  0  0
 16 17  2  0  0  0
 16 21  1  0  0  0
 16 31  1  0  0  0
 17 18  1  0  0  0
 17 95  1  0  0  0
 18 19  2  0  0  0
 18 96  1  0  0  0
 19 20  1  0  0  0
 19 24  1  0  0  0
 20 21  2  0  0  0
 20 97  1  0  0  0
 21 23  1  0  0  0
 22 28  1  0  0  0
 22 32  2  0  0  0
 26 27  1  0  0  0
 28 98  1  0  0  0
 28 99  1  0  0  0
 29100  1  0  0  0
 29101  1  0  0  0
 33 34  1  0  0  0
 33 66  1  0  0  0
 33 70  2  0  0  0
 34 36  1  0  0  0
 34 59  1  0  0  0
 34102  1  0  0  0
 35 44  2  0  0  0
 35 45  1  0  0  0
 35 68  1  0  0  0
 36 56  1  0  0  0
 36103  1  0  0  0
 37 39  1  0  0  0
 37 47  1  0  0  0
 37 66  1  0  0  0
 37104  1  0  0  0
 38 43  2  0  0  0
 38 46  1  0  0  0
 38 47  1  0  0  0
 39 64  1  0  0  0
 39 67  2  0  0  0
 40 52  1  0  0  0
 40 53  2  0  0  0
 40 58  1  0  0  0
 41105  1  0  0  0
 41106  1  0  0  0
 41107  1  0  0  0
 41 48  1  0  0  0
 42 43  1  0  0  0
 42 66  1  0  0  0
 42108  1  0  0  0
 42109  1  0  0  0
 43 44  1  0  0  0
 44110  1  0  0  0
 45 46  2  0  0  0
 45111  1  0  0  0
 46112  1  0  0  0
 47113  1  0  0  0
 47114  1  0  0  0
 48 56  1  0  0  0
 48 65  1  0  0  0
 48115  1  0  0  0
 49 50  1  0  0  0
 49 53  1  0  0  0
 49 64  1  0  0  0
 49116  1  0  0  0
 50 51  1  0  0  0
 50117  1  0  0  0
 50118  1  0  0  0
 51 52  1  0  0  0
 51119  1  0  0  0
 51120  1  0  0  0
 52121  1  0  0  0
 52122  1  0  0  0
 53 54  1  0  0  0
 54 55  2  0  0  0
 54123  1  0  0  0
 55 57  1  0  0  0
 55124  1  0  0  0
 56 69  2  0  0  0
 57 58  2  0  0  0
 57125  1  0  0  0
 58126  1  0  0  0
 59 60  1  0  0  0
 59 61  1  0  0  0
 59 62  1  0  0  0
 60127  1  0  0  0
 60128  1  0  0  0
 60129  1  0  0  0
 61130  1  0  0  0
 61131  1  0  0  0
 61132  1  0  0  0
 62133  1  0  0  0
 62134  1  0  0  0
 62135  1  0  0  0
 63 65  1  0  0  0
 63136  1  0  0  0
 63137  1  0  0  0
 63138  1  0  0  0
 64139  1  0  0  0
 65140  1  0  0  0
 68 79  1  0  0  0
 71 72  2  0  0  0
 71 75  1  0  0  0
 71141  1  0  0  0
 72 73  1  0  0  0
 72 77  1  0  0  0
 73 74  2  0  0  0
 73 79  1  0  0  0
 74 76  1  0  0  0
 74 78  1  0  0  0
 75 76  2  0  0  0
 75 80  1  0  0  0
 76 81  1  0  0  0
 77142  1  0  0  0
 77143  1  0  0  0
 77144  1  0  0  0
 78145  1  0  0  0
 78146  1  0  0  0
 78147  1  0  0  0
 79148  1  0  0  0
 79149  1  0  0  0
 80150  1  0  0  0
M  ISO  4   1 100  68 101  79 101  80 100
M  END
> <chiral flag>
0

> <version>
0

> <s_m_source_file>
/data/baiqing/PycharmProjects/Reinvent-master-3.2/result/LINK_invent/BTK/process_docking_weight1_custom_sum_contain_oxygen_bond_distance_aromatic_linkinvent_7_9_3/rearranged_h_0017.sdf

> <i_m_source_file_index>
70

> <r_mmod_Potential_Energy-OPLS-2005>
2270.41796875

> <r_mmod_Stretch_Energy-OPLS-2005>
928.454040527344

> <r_mmod_Bend_Energy-OPLS-2005>
647.606750488281

> <r_mmod_Torsional_Energy-OPLS-2005>
265.037506103516

> <r_mmod_Improper_Torsional_Energy-OPLS-2005>
10.5070247650146

> <r_mmod_Van_der_Waal_Energy-OPLS-2005>
134.255126953125

> <r_mmod_Electrostatic_Energy-OPLS-2005>
-369.675018310547

> <r_mmod_Solvation_Energy-OPLS-2005>
-208.952545166016

> <b_mmod_Minimization_Converged-OPLS-2005>
0

> <r_mmod_RMS_Derivative-OPLS-2005>
1.01162612438202

$$$$
72
                    3D
 Structure written by MMmdl.
159167  0  0  1  0            999 V2000
  -30.2773  -15.8590   20.3200 C   0  0  0  0  0  0
  -30.3923  -13.2597   19.5275 C   0  0  0  0  0  0
  -29.5459  -12.7183   18.3359 C   0  0  0  0  0  0
  -28.1423  -12.3099   18.7964 C   0  0  0  0  0  0
  -27.5839  -13.3344   19.8067 C   0  0  2  0  0  0
  -28.5881  -13.7843   20.9034 C   0  0  0  0  0  0
  -25.2283  -13.8334   20.5852 C   0  0  0  0  0  0
  -24.1685  -13.0464   20.9303 C   0  0  0  0  0  0
  -24.6403  -11.6983   20.8767 C   0  0  0  0  0  0
  -23.9104  -10.4322   21.0405 C   0  0  0  0  0  0
  -24.3634   -9.4240   21.9191 C   0  0  0  0  0  0
  -23.6289   -8.2280   22.0766 C   0  0  0  0  0  0
  -22.4273   -8.0301   21.3556 C   0  0  0  0  0  0
  -21.9913   -9.0279   20.4657 C   0  0  0  0  0  0
  -22.7260  -10.2152   20.3063 C   0  0  0  0  0  0
  -21.6860   -6.0732   22.5276 C   0  0  0  0  0  0
  -21.4028   -6.5633   23.8203 C   0  0  0  0  0  0
  -21.3664   -5.6784   24.9165 C   0  0  0  0  0  0
  -21.6041   -4.3047   24.7221 C   0  0  0  0  0  0
  -21.8812   -3.8139   23.4340 C   0  0  0  0  0  0
  -21.9196   -4.6959   22.3401 C   0  0  0  0  0  0
  -22.7693  -13.5208   21.1886 C   0  0  0  0  0  0
  -22.1665   -4.2154   21.0976 F   0  0  0  0  0  0
  -21.5628   -3.4526   25.7730 F   0  0  0  0  0  0
  -29.7179  -14.4777   20.2179 N   0  0  0  0  0  0
  -26.2752  -12.9702   20.3293 N   0  0  0  0  0  0
  -25.9364  -11.6751   20.5693 N   0  0  0  0  0  0
  -22.0319  -12.8217   22.0424 N   0  0  0  0  0  0
  -25.3893  -15.2070   20.4304 N   0  0  0  0  0  0
  -31.5118  -15.6739   20.2010 O   0  0  0  0  0  0
  -21.6641   -6.8890   21.4248 O   0  0  0  0  0  0
  -22.3405  -14.5518   20.6715 O   0  0  0  0  0  0
  -24.7004  -31.7808   23.1381 C   0  0  0  0  0  0
  -25.9509  -32.4385   23.7971 C   0  0  1  0  0  0
  -27.2366  -26.5397   20.2326 C   0  0  0  0  0  0
  -25.6029  -33.8211   24.1860 N   0  0  0  0  0  0
  -23.5332  -30.3757   21.4955 C   0  0  2  0  0  0
  -24.9945  -28.6815   20.1196 C   0  0  0  0  0  0
  -22.7840  -29.4217   22.4672 C   0  0  0  0  0  0
  -18.0349  -28.1431   22.8448 C   0  0  0  0  0  0
  -24.1483  -36.7100   23.2652 C   0  0  0  0  0  0
  -26.1195  -30.4611   21.4252 C   0  0  0  0  0  0
  -26.1838  -29.0063   20.7809 C   0  0  0  0  0  0
  -27.2791  -27.9669   20.8031 C   0  0  0  0  0  0
  -26.0162  -26.4675   19.5018 C   0  0  0  0  0  0
  -24.9601  -27.4403   19.4546 C   0  0  0  0  0  0
  -23.7959  -29.6549   20.1377 C   0  0  0  0  0  0
  -25.4143  -36.2849   24.0271 C   0  0  1  0  0  0
  -20.5990  -28.3792   23.1116 C   0  0  2  0  0  0
  -20.6800  -26.9436   22.5405 C   0  0  0  0  0  0
  -19.5781  -26.6372   21.5215 C   0  0  0  0  0  0
  -18.1967  -26.7956   22.1614 C   0  0  0  0  0  0
  -19.1619  -28.8943   23.2757 C   0  0  0  0  0  0
  -18.9519  -30.1525   23.8804 C   0  0  0  0  0  0
  -17.6504  -30.6613   24.0542 C   0  0  0  0  0  0
  -25.9143  -34.9242   23.4916 C   0  0  0  0  0  0
  -16.5396  -29.9085   23.6367 C   0  0  0  0  0  0
  -16.7323  -28.6505   23.0375 C   0  0  0  0  0  0
  -26.4629  -31.6483   25.0656 C   0  0  0  0  0  0
  -25.3654  -31.3856   26.1251 C   0  0  0  0  0  0
  -27.0584  -30.2814   24.6666 C   0  0  0  0  0  0
  -27.6070  -32.4355   25.7482 C   0  0  0  0  0  0
  -27.5554  -37.1709   24.8460 C   0  0  0  0  0  0
  -21.4470  -29.3008   22.3420 N   0  0  0  0  0  0
  -26.4253  -37.3637   23.9424 N   0  0  0  0  0  0
  -24.8099  -30.9093   22.0724 N   0  0  0  0  0  0
  -23.4209  -28.7855   23.3095 O   0  0  0  0  0  0
  -28.1743  -25.2462   20.3465 O   0  0  0  0  0  0
  -26.5780  -34.8859   22.4535 O   0  0  0  0  0  0
  -23.5987  -32.0944   23.6247 O   0  0  0  0  0  0
  -28.4021  -18.2797   20.5822 C   0  0  0  0  0  0
  -30.4428  -18.7960   19.9913 C   0  0  0  0  0  0
  -28.6804  -21.4943   20.4665 C   0  0  0  0  0  0
  -27.9456  -19.9587   20.0828 C   0  0  0  0  0  0
  -30.1323  -20.5217   20.4520 C   0  0  0  0  0  0
  -27.8004  -19.9330   18.5461 C   0  0  0  0  0  0
  -26.5207  -20.0949   20.6526 C   0  0  0  0  0  0
  -30.6467  -20.5732   21.9082 C   0  0  0  0  0  0
  -31.1263  -21.3328   19.6019 C   0  0  0  0  0  0
  -28.1231  -23.4290   20.0234 C   0  0  0  0  0  0
  -29.7098  -17.3818   20.2921 N   0  0  0  0  0  0
  -31.3696  -13.5331   19.1274 H   0  0  0  0  0  0
  -30.6039  -12.4660   20.2450 H   0  0  0  0  0  0
  -30.0483  -11.8788   17.8527 H   0  0  0  0  0  0
  -29.4620  -13.4987   17.5780 H   0  0  0  0  0  0
  -28.2104  -11.3308   19.2717 H   0  0  0  0  0  0
  -27.4733  -12.1965   17.9418 H   0  0  0  0  0  0
  -27.4076  -14.2169   19.1904 H   0  0  0  0  0  0
  -28.9089  -12.9516   21.5313 H   0  0  0  0  0  0
  -28.1087  -14.5002   21.5722 H   0  0  0  0  0  0
  -25.2771   -9.5725   22.4779 H   0  0  0  0  0  0
  -23.9994   -7.4685   22.7497 H   0  0  0  0  0  0
  -21.0835   -8.8803   19.8967 H   0  0  0  0  0  0
  -22.3707  -10.9691   19.6181 H   0  0  0  0  0  0
  -21.2024   -7.6142   23.9707 H   0  0  0  0  0  0
  -21.1493   -6.0514   25.9067 H   0  0  0  0  0  0
  -22.0584   -2.7603   23.2826 H   0  0  0  0  0  0
  -22.3895  -11.9906   22.4897 H   0  0  0  0  0  0
  -21.0955  -13.1331   22.2581 H   0  0  0  0  0  0
  -24.6223  -15.8626   20.5330 H   0  0  0  0  0  0
  -26.2419  -15.6424   20.1045 H   0  0  0  0  0  0
  -26.7612  -32.4826   23.0684 H   0  0  0  0  0  0
  -25.0124  -33.9215   24.9989 H   0  0  0  0  0  0
  -22.8687  -31.2185   21.2922 H   0  0  0  0  0  0
  -23.3794  -35.9377   23.3228 H   0  0  0  0  0  0
  -24.3551  -36.8848   22.2085 H   0  0  0  0  0  0
  -23.7189  -37.6236   23.6781 H   0  0  0  0  0  0
  -26.3343  -31.1750   20.6283 H   0  0  0  0  0  0
  -26.9655  -30.5398   22.0946 H   0  0  0  0  0  0
  -28.1659  -28.2261   21.3648 H   0  0  0  0  0  0
  -25.8252  -25.5368   18.9861 H   0  0  0  0  0  0
  -24.0682  -27.1802   18.9009 H   0  0  0  0  0  0
  -23.9808  -30.4061   19.3693 H   0  0  0  0  0  0
  -22.8970  -29.1278   19.8147 H   0  0  0  0  0  0
  -25.1360  -36.1579   25.0759 H   0  0  0  0  0  0
  -21.0061  -28.3421   24.1244 H   0  0  0  0  0  0
  -20.5657  -26.2416   23.3675 H   0  0  0  0  0  0
  -21.6664  -26.7359   22.1236 H   0  0  0  0  0  0
  -19.6929  -25.6260   21.1311 H   0  0  0  0  0  0
  -19.6737  -27.3119   20.6697 H   0  0  0  0  0  0
  -17.4242  -26.6702   21.4011 H   0  0  0  0  0  0
  -18.0338  -26.0118   22.9027 H   0  0  0  0  0  0
  -19.7994  -30.7367   24.2126 H   0  0  0  0  0  0
  -17.5058  -31.6293   24.5145 H   0  0  0  0  0  0
  -15.5390  -30.2955   23.7751 H   0  0  0  0  0  0
  -15.8717  -28.0800   22.7135 H   0  0  0  0  0  0
  -24.5834  -30.7218   25.7539 H   0  0  0  0  0  0
  -24.8849  -32.3105   26.4462 H   0  0  0  0  0  0
  -25.7787  -30.9144   27.0180 H   0  0  0  0  0  0
  -26.3337  -29.6401   24.1647 H   0  0  0  0  0  0
  -27.3951  -29.7301   25.5456 H   0  0  0  0  0  0
  -27.9337  -30.3923   24.0261 H   0  0  0  0  0  0
  -27.2624  -33.3745   26.1825 H   0  0  0  0  0  0
  -28.4009  -32.6771   25.0399 H   0  0  0  0  0  0
  -28.0599  -31.8633   26.5592 H   0  0  0  0  0  0
  -28.2529  -38.0046   24.7558 H   0  0  0  0  0  0
  -28.1095  -36.2581   24.6225 H   0  0  0  0  0  0
  -27.2281  -37.1272   25.8862 H   0  0  0  0  0  0
  -20.9809  -29.8644   21.6447 H   0  0  0  0  0  0
  -26.0059  -38.2677   24.1468 H   0  0  0  0  0  0
  -27.5936  -17.6345   20.2371 H   0  0  0  0  0  0
  -28.3082  -18.2548   21.6688 H   0  0  0  0  0  0
  -31.4756  -18.5986   20.2852 H   0  0  0  0  0  0
  -30.5137  -18.7931   18.9029 H   0  0  0  0  0  0
  -28.4590  -21.5712   21.5321 H   0  0  0  0  0  0
  -28.7624  -19.9033   18.0354 H   0  0  0  0  0  0
  -27.2789  -20.8194   18.1825 H   0  0  0  0  0  0
  -27.2292  -19.0643   18.2163 H   0  0  0  0  0  0
  -26.5387  -20.1676   21.7408 H   0  0  0  0  0  0
  -25.8961  -19.2369   20.3993 H   0  0  0  0  0  0
  -26.0137  -20.9815   20.2717 H   0  0  0  0  0  0
  -29.9925  -20.0113   22.5752 H   0  0  0  0  0  0
  -30.7064  -21.5947   22.2870 H   0  0  0  0  0  0
  -31.6437  -20.1423   22.0019 H   0  0  0  0  0  0
  -30.8195  -21.3590   18.5557 H   0  0  0  0  0  0
  -32.1312  -20.9086   19.6405 H   0  0  0  0  0  0
  -31.2001  -22.3650   19.9469 H   0  0  0  0  0  0
  -27.0436  -23.3144   20.1110 H   0  0  0  0  0  0
  -28.2842  -23.4423   18.9454 H   0  0  0  0  0  0
  1 25  1  0  0  0
  1 30  2  0  0  0
  1 81  1  0  0  0
  2  3  1  0  0  0
  2 25  1  0  0  0
  2 82  1  0  0  0
  2 83  1  0  0  0
  3  4  1  0  0  0
  3 84  1  0  0  0
  3 85  1  0  0  0
  4  5  1  0  0  0
  4 86  1  0  0  0
  4 87  1  0  0  0
  5  6  1  0  0  0
  5 26  1  0  0  0
  5 88  1  0  0  0
  6 25  1  0  0  0
  6 89  1  0  0  0
  6 90  1  0  0  0
  7  8  2  0  0  0
  7 26  1  0  0  0
  7 29  1  0  0  0
  8  9  1  0  0  0
  8 22  1  0  0  0
  9 10  1  0  0  0
  9 27  2  0  0  0
 10 11  2  0  0  0
 10 15  1  0  0  0
 11 12  1  0  0  0
 11 91  1  0  0  0
 12 13  2  0  0  0
 12 92  1  0  0  0
 13 14  1  0  0  0
 13 31  1  0  0  0
 14 15  2  0  0  0
 14 93  1  0  0  0
 15 94  1  0  0  0
 16 17  2  0  0  0
 16 21  1  0  0  0
 16 31  1  0  0  0
 17 18  1  0  0  0
 17 95  1  0  0  0
 18 19  2  0  0  0
 18 96  1  0  0  0
 19 20  1  0  0  0
 19 24  1  0  0  0
 20 21  2  0  0  0
 20 97  1  0  0  0
 21 23  1  0  0  0
 22 28  1  0  0  0
 22 32  2  0  0  0
 26 27  1  0  0  0
 28 98  1  0  0  0
 28 99  1  0  0  0
 29100  1  0  0  0
 29101  1  0  0  0
 33 34  1  0  0  0
 33 66  1  0  0  0
 33 70  2  0  0  0
 34 36  1  0  0  0
 34 59  1  0  0  0
 34102  1  0  0  0
 35 44  2  0  0  0
 35 45  1  0  0  0
 35 68  1  0  0  0
 36 56  1  0  0  0
 36103  1  0  0  0
 37 39  1  0  0  0
 37 47  1  0  0  0
 37 66  1  0  0  0
 37104  1  0  0  0
 38 43  2  0  0  0
 38 46  1  0  0  0
 38 47  1  0  0  0
 39 64  1  0  0  0
 39 67  2  0  0  0
 40 52  1  0  0  0
 40 53  2  0  0  0
 40 58  1  0  0  0
 41105  1  0  0  0
 41106  1  0  0  0
 41107  1  0  0  0
 41 48  1  0  0  0
 42 43  1  0  0  0
 42 66  1  0  0  0
 42108  1  0  0  0
 42109  1  0  0  0
 43 44  1  0  0  0
 44110  1  0  0  0
 45 46  2  0  0  0
 45111  1  0  0  0
 46112  1  0  0  0
 47113  1  0  0  0
 47114  1  0  0  0
 48 56  1  0  0  0
 48 65  1  0  0  0
 48115  1  0  0  0
 49 50  1  0  0  0
 49 53  1  0  0  0
 49 64  1  0  0  0
 49116  1  0  0  0
 50 51  1  0  0  0
 50117  1  0  0  0
 50118  1  0  0  0
 51 52  1  0  0  0
 51119  1  0  0  0
 51120  1  0  0  0
 52121  1  0  0  0
 52122  1  0  0  0
 53 54  1  0  0  0
 54 55  2  0  0  0
 54123  1  0  0  0
 55 57  1  0  0  0
 55124  1  0  0  0
 56 69  2  0  0  0
 57 58  2  0  0  0
 57125  1  0  0  0
 58126  1  0  0  0
 59 60  1  0  0  0
 59 61  1  0  0  0
 59 62  1  0  0  0
 60127  1  0  0  0
 60128  1  0  0  0
 60129  1  0  0  0
 61130  1  0  0  0
 61131  1  0  0  0
 61132  1  0  0  0
 62133  1  0  0  0
 62134  1  0  0  0
 62135  1  0  0  0
 63 65  1  0  0  0
 63136  1  0  0  0
 63137  1  0  0  0
 63138  1  0  0  0
 64139  1  0  0  0
 65140  1  0  0  0
 68 80  1  0  0  0
 71 74  1  0  0  0
 71 81  1  0  0  0
 71141  1  0  0  0
 71142  1  0  0  0
 72 75  1  0  0  0
 72 81  1  0  0  0
 72143  1  0  0  0
 72144  1  0  0  0
 73 74  1  0  0  0
 73 75  1  0  0  0
 73 80  1  0  0  0
 73145  1  0  0  0
 74 76  1  0  0  0
 74 77  1  0  0  0
 75 78  1  0  0  0
 75 79  1  0  0  0
 76146  1  0  0  0
 76147  1  0  0  0
 76148  1  0  0  0
 77149  1  0  0  0
 77150  1  0  0  0
 77151  1  0  0  0
 78152  1  0  0  0
 78153  1  0  0  0
 78154  1  0  0  0
 79155  1  0  0  0
 79156  1  0  0  0
 79157  1  0  0  0
 80158  1  0  0  0
 80159  1  0  0  0
M  ISO  4   1 100  68 101  80 101  81 100
M  END
> <chiral flag>
0

> <version>
0

> <s_m_source_file>
/data/baiqing/PycharmProjects/Reinvent-master-3.2/result/LINK_invent/BTK/process_docking_weight1_custom_sum_contain_oxygen_bond_distance_aromatic_linkinvent_7_9_3/rearranged_h_0017.sdf

> <i_m_source_file_index>
71

> <r_mmod_Potential_Energy-OPLS-2005>
3642.294921875

> <r_mmod_Stretch_Energy-OPLS-2005>
1403.05078125

> <r_mmod_Bend_Energy-OPLS-2005>
993.686462402344

> <r_mmod_Torsional_Energy-OPLS-2005>
350.236236572266

> <r_mmod_Improper_Torsional_Energy-OPLS-2005>
7.00735092163086

> <r_mmod_Van_der_Waal_Energy-OPLS-2005>
121.426277160645

> <r_mmod_Electrostatic_Energy-OPLS-2005>
-299.730773925781

> <r_mmod_Solvation_Energy-OPLS-2005>
-195.129470825195

> <b_mmod_Minimization_Converged-OPLS-2005>
0

> <r_mmod_RMS_Derivative-OPLS-2005>
2.28887915611267

$$$$
73
                    3D
 Structure written by MMmdl.
153161  0  0  1  0            999 V2000
  -30.2459  -15.7721   20.3181 C   0  0  0  0  0  0
  -30.4154  -13.1836   19.5416 C   0  0  0  0  0  0
  -29.5557  -12.6900   18.3383 C   0  0  0  0  0  0
  -28.1406  -12.3022   18.7893 C   0  0  0  0  0  0
  -27.5912  -13.3207   19.8109 C   0  0  2  0  0  0
  -28.5983  -13.7112   20.9215 C   0  0  0  0  0  0
  -25.2306  -13.8304   20.5821 C   0  0  0  0  0  0
  -24.1707  -13.0436   20.9302 C   0  0  0  0  0  0
  -24.6427  -11.6952   20.8768 C   0  0  0  0  0  0
  -23.9133  -10.4294   21.0398 C   0  0  0  0  0  0
  -24.3664   -9.4206   21.9182 C   0  0  0  0  0  0
  -23.6320   -8.2250   22.0755 C   0  0  0  0  0  0
  -22.4301   -8.0294   21.3547 C   0  0  0  0  0  0
  -21.9950   -9.0271   20.4645 C   0  0  0  0  0  0
  -22.7299  -10.2139   20.3052 C   0  0  0  0  0  0
  -21.6861   -6.0749   22.5281 C   0  0  0  0  0  0
  -21.4018   -6.5647   23.8214 C   0  0  0  0  0  0
  -21.3658   -5.6799   24.9174 C   0  0  0  0  0  0
  -21.6043   -4.3061   24.7222 C   0  0  0  0  0  0
  -21.8818   -3.8156   23.4344 C   0  0  0  0  0  0
  -21.9193   -4.6975   22.3400 C   0  0  0  0  0  0
  -22.7714  -13.5157   21.1928 C   0  0  0  0  0  0
  -22.1661   -4.2161   21.0978 F   0  0  0  0  0  0
  -21.5624   -3.4543   25.7734 F   0  0  0  0  0  0
  -29.7490  -14.3781   20.2564 N   0  0  0  0  0  0
  -26.2765  -12.9657   20.3254 N   0  0  0  0  0  0
  -25.9378  -11.6714   20.5697 N   0  0  0  0  0  0
  -22.0381  -12.8129   22.0477 N   0  0  0  0  0  0
  -25.3880  -15.2049   20.4274 N   0  0  0  0  0  0
  -31.4854  -15.6925   20.1789 O   0  0  0  0  0  0
  -21.6650   -6.8898   21.4246 O   0  0  0  0  0  0
  -22.3383  -14.5454   20.6764 O   0  0  0  0  0  0
  -24.6941  -31.7879   23.1427 C   0  0  0  0  0  0
  -25.9473  -32.4410   23.8015 C   0  0  1  0  0  0
  -27.2297  -26.5961   20.2275 C   0  0  0  0  0  0
  -25.6010  -33.8238   24.1901 N   0  0  0  0  0  0
  -23.5251  -30.3850   21.4993 C   0  0  2  0  0  0
  -24.9836  -28.7028   20.1228 C   0  0  0  0  0  0
  -22.7809  -29.4252   22.4682 C   0  0  0  0  0  0
  -18.0347  -28.1427   22.8455 C   0  0  0  0  0  0
  -24.1494  -36.7119   23.2655 C   0  0  0  0  0  0
  -26.1105  -30.4860   21.4222 C   0  0  0  0  0  0
  -26.1753  -29.0385   20.7759 C   0  0  0  0  0  0
  -27.2793  -28.0170   20.7906 C   0  0  0  0  0  0
  -26.0028  -26.4964   19.5160 C   0  0  0  0  0  0
  -24.9426  -27.4585   19.4685 C   0  0  0  0  0  0
  -23.7852  -29.6715   20.1399 C   0  0  0  0  0  0
  -25.4149  -36.2863   24.0279 C   0  0  1  0  0  0
  -20.5987  -28.3793   23.1125 C   0  0  2  0  0  0
  -20.6803  -26.9442   22.5404 C   0  0  0  0  0  0
  -19.5780  -26.6375   21.5214 C   0  0  0  0  0  0
  -18.1967  -26.7953   22.1623 C   0  0  0  0  0  0
  -19.1615  -28.8937   23.2768 C   0  0  0  0  0  0
  -18.9517  -30.1519   23.8818 C   0  0  0  0  0  0
  -17.6504  -30.6608   24.0550 C   0  0  0  0  0  0
  -25.9135  -34.9254   23.4935 C   0  0  0  0  0  0
  -16.5394  -29.9087   23.6354 C   0  0  0  0  0  0
  -16.7325  -28.6509   23.0373 C   0  0  0  0  0  0
  -26.4621  -31.6480   25.0675 C   0  0  0  0  0  0
  -25.3666  -31.3818   26.1277 C   0  0  0  0  0  0
  -27.0569  -30.2810   24.6639 C   0  0  0  0  0  0
  -27.6054  -32.4358   25.7499 C   0  0  0  0  0  0
  -27.5560  -37.1720   24.8471 C   0  0  0  0  0  0
  -21.4446  -29.3017   22.3428 N   0  0  0  0  0  0
  -26.4269  -37.3633   23.9409 N   0  0  0  0  0  0
  -24.8014  -30.9219   22.0739 N   0  0  0  0  0  0
  -23.4199  -28.7872   23.3080 O   0  0  0  0  0  0
  -28.1794  -25.3291   20.2911 O   0  0  0  0  0  0
  -26.5787  -34.8854   22.4560 O   0  0  0  0  0  0
  -23.5938  -32.1004   23.6313 O   0  0  0  0  0  0
  -30.8942  -19.4472   20.3223 C   0  0  0  0  0  0
  -31.2570  -20.8408   20.3169 C   0  0  0  0  0  0
  -30.3567  -21.9809   20.3104 C   0  0  0  0  0  0
  -28.9353  -21.8791   20.2822 C   0  0  0  0  0  0
  -28.6438  -20.2640   20.2938 C   0  0  0  0  0  0
  -29.5828  -18.9233   20.3190 C   0  0  0  0  0  0
  -32.7598  -21.0952   20.3108 C   0  0  0  0  0  0
  -30.9190  -23.4011   20.3254 C   0  0  0  0  0  0
  -27.1684  -19.9254   20.2780 C   0  0  0  0  0  0
  -27.9560  -23.5320   20.2091 C   0  0  0  0  0  0
  -29.4636  -17.1618   20.3443 N   0  0  0  0  0  0
  -31.3974  -13.4679   19.1619 H   0  0  0  0  0  0
  -30.6114  -12.3657   20.2372 H   0  0  0  0  0  0
  -30.0384  -11.8476   17.8410 H   0  0  0  0  0  0
  -29.4919  -13.4884   17.5974 H   0  0  0  0  0  0
  -28.1952  -11.3170   19.2546 H   0  0  0  0  0  0
  -27.4723  -12.2051   17.9328 H   0  0  0  0  0  0
  -27.4350  -14.2232   19.2179 H   0  0  0  0  0  0
  -28.8910  -12.8523   21.5275 H   0  0  0  0  0  0
  -28.1386  -14.4246   21.6070 H   0  0  0  0  0  0
  -25.2805   -9.5676   22.4767 H   0  0  0  0  0  0
  -24.0019   -7.4642   22.7482 H   0  0  0  0  0  0
  -21.0878   -8.8807   19.8953 H   0  0  0  0  0  0
  -22.3764  -10.9683   19.6163 H   0  0  0  0  0  0
  -21.2017   -7.6158   23.9722 H   0  0  0  0  0  0
  -21.1476   -6.0527   25.9077 H   0  0  0  0  0  0
  -22.0596   -2.7619   23.2840 H   0  0  0  0  0  0
  -22.4027  -11.9803   22.4867 H   0  0  0  0  0  0
  -21.0988  -13.1118   22.2682 H   0  0  0  0  0  0
  -24.6152  -15.8515   20.5438 H   0  0  0  0  0  0
  -26.2269  -15.6487   20.0795 H   0  0  0  0  0  0
  -26.7566  -32.4864   23.0731 H   0  0  0  0  0  0
  -25.0060  -33.9252   24.9994 H   0  0  0  0  0  0
  -22.8567  -31.2252   21.2998 H   0  0  0  0  0  0
  -23.3779  -35.9425   23.3275 H   0  0  0  0  0  0
  -24.3551  -36.8820   22.2076 H   0  0  0  0  0  0
  -23.7233  -37.6278   23.6759 H   0  0  0  0  0  0
  -26.3226  -31.2024   20.6275 H   0  0  0  0  0  0
  -26.9580  -30.5602   22.0908 H   0  0  0  0  0  0
  -28.1753  -28.2843   21.3329 H   0  0  0  0  0  0
  -25.8172  -25.5609   19.0077 H   0  0  0  0  0  0
  -24.0457  -27.1901   18.9271 H   0  0  0  0  0  0
  -23.9696  -30.4264   19.3748 H   0  0  0  0  0  0
  -22.8877  -29.1432   19.8137 H   0  0  0  0  0  0
  -25.1361  -36.1617   25.0769 H   0  0  0  0  0  0
  -21.0073  -28.3427   24.1249 H   0  0  0  0  0  0
  -20.5653  -26.2414   23.3672 H   0  0  0  0  0  0
  -21.6663  -26.7362   22.1231 H   0  0  0  0  0  0
  -19.6928  -25.6264   21.1296 H   0  0  0  0  0  0
  -19.6727  -27.3139   20.6709 H   0  0  0  0  0  0
  -17.4232  -26.6694   21.4033 H   0  0  0  0  0  0
  -18.0361  -26.0113   22.9039 H   0  0  0  0  0  0
  -19.7990  -30.7359   24.2151 H   0  0  0  0  0  0
  -17.5052  -31.6281   24.5167 H   0  0  0  0  0  0
  -15.5390  -30.2963   23.7723 H   0  0  0  0  0  0
  -15.8725  -28.0799   22.7137 H   0  0  0  0  0  0
  -24.5878  -30.7140   25.7575 H   0  0  0  0  0  0
  -24.8828  -32.3044   26.4492 H   0  0  0  0  0  0
  -25.7829  -30.9119   27.0196 H   0  0  0  0  0  0
  -26.3310  -29.6402   24.1625 H   0  0  0  0  0  0
  -27.3954  -29.7286   25.5415 H   0  0  0  0  0  0
  -27.9305  -30.3919   24.0212 H   0  0  0  0  0  0
  -27.2585  -33.3729   26.1865 H   0  0  0  0  0  0
  -28.3972  -32.6806   25.0407 H   0  0  0  0  0  0
  -28.0608  -31.8631   26.5588 H   0  0  0  0  0  0
  -28.2554  -38.0037   24.7509 H   0  0  0  0  0  0
  -28.1081  -36.2558   24.6317 H   0  0  0  0  0  0
  -27.2268  -37.1374   25.8871 H   0  0  0  0  0  0
  -20.9773  -29.8645   21.6456 H   0  0  0  0  0  0
  -26.0092  -38.2680   24.1417 H   0  0  0  0  0  0
  -31.6919  -18.7171   20.3312 H   0  0  0  0  0  0
  -33.3370  -20.1738   20.2295 H   0  0  0  0  0  0
  -33.0713  -21.5876   21.2324 H   0  0  0  0  0  0
  -33.0438  -21.7198   19.4631 H   0  0  0  0  0  0
  -31.9870  -23.4724   20.5149 H   0  0  0  0  0  0
  -30.4424  -23.9882   21.1107 H   0  0  0  0  0  0
  -30.7243  -23.8923   19.3715 H   0  0  0  0  0  0
  -26.5509  -20.8209   20.2100 H   0  0  0  0  0  0
  -26.8950  -19.3921   21.1889 H   0  0  0  0  0  0
  -26.9355  -19.2875   19.4252 H   0  0  0  0  0  0
  -27.1953  -23.3689   20.9723 H   0  0  0  0  0  0
  -27.4061  -23.4187   19.2748 H   0  0  0  0  0  0
  -28.4877  -16.9071   20.3906 H   0  0  0  0  0  0
  1 25  1  0  0  0
  1 30  2  0  0  0
  1 81  1  0  0  0
  2  3  1  0  0  0
  2 25  1  0  0  0
  2 82  1  0  0  0
  2 83  1  0  0  0
  3  4  1  0  0  0
  3 84  1  0  0  0
  3 85  1  0  0  0
  4  5  1  0  0  0
  4 86  1  0  0  0
  4 87  1  0  0  0
  5  6  1  0  0  0
  5 26  1  0  0  0
  5 88  1  0  0  0
  6 25  1  0  0  0
  6 89  1  0  0  0
  6 90  1  0  0  0
  7  8  2  0  0  0
  7 26  1  0  0  0
  7 29  1  0  0  0
  8  9  1  0  0  0
  8 22  1  0  0  0
  9 10  1  0  0  0
  9 27  2  0  0  0
 10 11  2  0  0  0
 10 15  1  0  0  0
 11 12  1  0  0  0
 11 91  1  0  0  0
 12 13  2  0  0  0
 12 92  1  0  0  0
 13 14  1  0  0  0
 13 31  1  0  0  0
 14 15  2  0  0  0
 14 93  1  0  0  0
 15 94  1  0  0  0
 16 17  2  0  0  0
 16 21  1  0  0  0
 16 31  1  0  0  0
 17 18  1  0  0  0
 17 95  1  0  0  0
 18 19  2  0  0  0
 18 96  1  0  0  0
 19 20  1  0  0  0
 19 24  1  0  0  0
 20 21  2  0  0  0
 20 97  1  0  0  0
 21 23  1  0  0  0
 22 28  1  0  0  0
 22 32  2  0  0  0
 26 27  1  0  0  0
 28 98  1  0  0  0
 28 99  1  0  0  0
 29100  1  0  0  0
 29101  1  0  0  0
 33 34  1  0  0  0
 33 66  1  0  0  0
 33 70  2  0  0  0
 34 36  1  0  0  0
 34 59  1  0  0  0
 34102  1  0  0  0
 35 44  2  0  0  0
 35 45  1  0  0  0
 35 68  1  0  0  0
 36 56  1  0  0  0
 36103  1  0  0  0
 37 39  1  0  0  0
 37 47  1  0  0  0
 37 66  1  0  0  0
 37104  1  0  0  0
 38 43  2  0  0  0
 38 46  1  0  0  0
 38 47  1  0  0  0
 39 64  1  0  0  0
 39 67  2  0  0  0
 40 52  1  0  0  0
 40 53  2  0  0  0
 40 58  1  0  0  0
 41105  1  0  0  0
 41106  1  0  0  0
 41107  1  0  0  0
 41 48  1  0  0  0
 42 43  1  0  0  0
 42 66  1  0  0  0
 42108  1  0  0  0
 42109  1  0  0  0
 43 44  1  0  0  0
 44110  1  0  0  0
 45 46  2  0  0  0
 45111  1  0  0  0
 46112  1  0  0  0
 47113  1  0  0  0
 47114  1  0  0  0
 48 56  1  0  0  0
 48 65  1  0  0  0
 48115  1  0  0  0
 49 50  1  0  0  0
 49 53  1  0  0  0
 49 64  1  0  0  0
 49116  1  0  0  0
 50 51  1  0  0  0
 50117  1  0  0  0
 50118  1  0  0  0
 51 52  1  0  0  0
 51119  1  0  0  0
 51120  1  0  0  0
 52121  1  0  0  0
 52122  1  0  0  0
 53 54  1  0  0  0
 54 55  2  0  0  0
 54123  1  0  0  0
 55 57  1  0  0  0
 55124  1  0  0  0
 56 69  2  0  0  0
 57 58  2  0  0  0
 57125  1  0  0  0
 58126  1  0  0  0
 59 60  1  0  0  0
 59 61  1  0  0  0
 59 62  1  0  0  0
 60127  1  0  0  0
 60128  1  0  0  0
 60129  1  0  0  0
 61130  1  0  0  0
 61131  1  0  0  0
 61132  1  0  0  0
 62133  1  0  0  0
 62134  1  0  0  0
 62135  1  0  0  0
 63 65  1  0  0  0
 63136  1  0  0  0
 63137  1  0  0  0
 63138  1  0  0  0
 64139  1  0  0  0
 65140  1  0  0  0
 68 80  1  0  0  0
 71 72  2  0  0  0
 71 76  1  0  0  0
 71141  1  0  0  0
 72 73  1  0  0  0
 72 77  1  0  0  0
 73 74  2  0  0  0
 73 78  1  0  0  0
 74 75  1  0  0  0
 74 80  1  0  0  0
 75 76  2  0  0  0
 75 79  1  0  0  0
 76 81  1  0  0  0
 77142  1  0  0  0
 77143  1  0  0  0
 77144  1  0  0  0
 78145  1  0  0  0
 78146  1  0  0  0
 78147  1  0  0  0
 79148  1  0  0  0
 79149  1  0  0  0
 79150  1  0  0  0
 80151  1  0  0  0
 80152  1  0  0  0
 81153  1  0  0  0
M  ISO  4   1 100  68 101  80 101  81 100
M  END
> <chiral flag>
0

> <version>
0

> <s_m_source_file>
/data/baiqing/PycharmProjects/Reinvent-master-3.2/result/LINK_invent/BTK/process_docking_weight1_custom_sum_contain_oxygen_bond_distance_aromatic_linkinvent_7_9_3/rearranged_h_0017.sdf

> <i_m_source_file_index>
72

> <r_mmod_Potential_Energy-OPLS-2005>
2814.38500976562

> <r_mmod_Stretch_Energy-OPLS-2005>
1268.65014648438

> <r_mmod_Bend_Energy-OPLS-2005>
639.809631347656

> <r_mmod_Torsional_Energy-OPLS-2005>
222.874649047852

> <r_mmod_Improper_Torsional_Energy-OPLS-2005>
3.90321707725525

> <r_mmod_Van_der_Waal_Energy-OPLS-2005>
131.543884277344

> <r_mmod_Electrostatic_Energy-OPLS-2005>
-370.007080078125

> <r_mmod_Solvation_Energy-OPLS-2005>
-210.074722290039

> <b_mmod_Minimization_Converged-OPLS-2005>
0

> <r_mmod_RMS_Derivative-OPLS-2005>
0.566254615783691

$$$$
74
                    3D
 Structure written by MMmdl.
153161  0  0  1  0            999 V2000
  -30.2629  -15.7656   20.3265 C   0  0  0  0  0  0
  -30.4146  -13.1850   19.5344 C   0  0  0  0  0  0
  -29.5526  -12.6872   18.3346 C   0  0  0  0  0  0
  -28.1444  -12.2918   18.7984 C   0  0  0  0  0  0
  -27.5933  -13.3172   19.8117 C   0  0  2  0  0  0
  -28.6031  -13.7147   20.9183 C   0  0  0  0  0  0
  -25.2325  -13.8297   20.5839 C   0  0  0  0  0  0
  -24.1716  -13.0436   20.9311 C   0  0  0  0  0  0
  -24.6426  -11.6950   20.8775 C   0  0  0  0  0  0
  -23.9129  -10.4289   21.0393 C   0  0  0  0  0  0
  -24.3657   -9.4201   21.9182 C   0  0  0  0  0  0
  -23.6317   -8.2245   22.0757 C   0  0  0  0  0  0
  -22.4302   -8.0294   21.3543 C   0  0  0  0  0  0
  -21.9944   -9.0271   20.4641 C   0  0  0  0  0  0
  -22.7293  -10.2136   20.3044 C   0  0  0  0  0  0
  -21.6859   -6.0751   22.5283 C   0  0  0  0  0  0
  -21.4013   -6.5648   23.8218 C   0  0  0  0  0  0
  -21.3653   -5.6800   24.9179 C   0  0  0  0  0  0
  -21.6039   -4.3065   24.7231 C   0  0  0  0  0  0
  -21.8816   -3.8160   23.4351 C   0  0  0  0  0  0
  -21.9190   -4.6974   22.3403 C   0  0  0  0  0  0
  -22.7722  -13.5165   21.1932 C   0  0  0  0  0  0
  -22.1662   -4.2158   21.0981 F   0  0  0  0  0  0
  -21.5619   -3.4544   25.7741 F   0  0  0  0  0  0
  -29.7492  -14.3796   20.2464 N   0  0  0  0  0  0
  -26.2786  -12.9634   20.3270 N   0  0  0  0  0  0
  -25.9379  -11.6693   20.5711 N   0  0  0  0  0  0
  -22.0363  -12.8152   22.0471 N   0  0  0  0  0  0
  -25.3914  -15.2048   20.4304 N   0  0  0  0  0  0
  -31.5014  -15.6609   20.2016 O   0  0  0  0  0  0
  -21.6654   -6.8905   21.4253 O   0  0  0  0  0  0
  -22.3401  -14.5454   20.6755 O   0  0  0  0  0  0
  -24.6926  -31.7908   23.1398 C   0  0  0  0  0  0
  -25.9484  -32.4420   23.7978 C   0  0  1  0  0  0
  -27.2299  -26.6029   20.2311 C   0  0  0  0  0  0
  -25.6009  -33.8239   24.1878 N   0  0  0  0  0  0
  -23.5207  -30.3869   21.4988 C   0  0  2  0  0  0
  -24.9810  -28.7049   20.1226 C   0  0  0  0  0  0
  -22.7803  -29.4265   22.4708 C   0  0  0  0  0  0
  -18.0346  -28.1459   22.8472 C   0  0  0  0  0  0
  -24.1477  -36.7097   23.2652 C   0  0  0  0  0  0
  -26.1046  -30.4938   21.4158 C   0  0  0  0  0  0
  -26.1721  -29.0438   20.7751 C   0  0  0  0  0  0
  -27.2755  -28.0246   20.7943 C   0  0  0  0  0  0
  -26.0028  -26.4976   19.5203 C   0  0  0  0  0  0
  -24.9428  -27.4586   19.4691 C   0  0  0  0  0  0
  -23.7805  -29.6711   20.1398 C   0  0  0  0  0  0
  -25.4137  -36.2862   24.0283 C   0  0  1  0  0  0
  -20.5987  -28.3821   23.1157 C   0  0  2  0  0  0
  -20.6807  -26.9471   22.5425 C   0  0  0  0  0  0
  -19.5772  -26.6416   21.5238 C   0  0  0  0  0  0
  -18.1951  -26.7995   22.1635 C   0  0  0  0  0  0
  -19.1612  -28.8973   23.2783 C   0  0  0  0  0  0
  -18.9530  -30.1553   23.8830 C   0  0  0  0  0  0
  -17.6515  -30.6635   24.0576 C   0  0  0  0  0  0
  -25.9129  -34.9258   23.4929 C   0  0  0  0  0  0
  -16.5405  -29.9122   23.6367 C   0  0  0  0  0  0
  -16.7322  -28.6548   23.0379 C   0  0  0  0  0  0
  -26.4616  -31.6468   25.0620 C   0  0  0  0  0  0
  -25.3648  -31.3852   26.1219 C   0  0  0  0  0  0
  -27.0551  -30.2793   24.6564 C   0  0  0  0  0  0
  -27.6059  -32.4316   25.7441 C   0  0  0  0  0  0
  -27.5546  -37.1706   24.8471 C   0  0  0  0  0  0
  -21.4446  -29.3026   22.3454 N   0  0  0  0  0  0
  -26.4232  -37.3656   23.9439 N   0  0  0  0  0  0
  -24.7980  -30.9269   22.0691 N   0  0  0  0  0  0
  -23.4212  -28.7898   23.3102 O   0  0  0  0  0  0
  -28.1774  -25.3368   20.3119 O   0  0  0  0  0  0
  -26.5784  -34.8866   22.4540 O   0  0  0  0  0  0
  -23.5932  -32.1013   23.6313 O   0  0  0  0  0  0
  -31.1452  -20.8747   20.9959 C   0  0  0  0  0  0
  -30.2894  -21.9981   20.7624 C   0  0  0  0  0  0
  -30.8740  -19.4717   20.8537 C   0  0  0  0  0  0
  -28.9327  -21.8932   20.3563 C   0  0  0  0  0  0
  -28.6926  -20.2704   20.2067 C   0  0  0  0  0  0
  -29.6227  -18.9330   20.4207 C   0  0  0  0  0  0
  -30.9033  -23.3726   20.9718 C   0  0  0  0  0  0
  -32.0250  -18.5504   21.2156 C   0  0  0  0  0  0
  -27.2910  -19.9125   19.7522 C   0  0  0  0  0  0
  -27.9743  -23.5445   20.1468 C   0  0  0  0  0  0
  -29.5000  -17.1689   20.3305 N   0  0  0  0  0  0
  -31.3928  -13.4723   19.1484 H   0  0  0  0  0  0
  -30.6162  -12.3712   20.2324 H   0  0  0  0  0  0
  -30.0382  -11.8477   17.8336 H   0  0  0  0  0  0
  -29.4802  -13.4848   17.5949 H   0  0  0  0  0  0
  -28.2163  -11.3160   19.2824 H   0  0  0  0  0  0
  -27.4719  -12.1682   17.9494 H   0  0  0  0  0  0
  -27.4346  -14.2153   19.2125 H   0  0  0  0  0  0
  -28.9044  -12.8576   21.5227 H   0  0  0  0  0  0
  -28.1455  -14.4265   21.6061 H   0  0  0  0  0  0
  -25.2786   -9.5687   22.4780 H   0  0  0  0  0  0
  -24.0008   -7.4641   22.7492 H   0  0  0  0  0  0
  -21.0866   -8.8807   19.8956 H   0  0  0  0  0  0
  -22.3752  -10.9680   19.6166 H   0  0  0  0  0  0
  -21.2013   -7.6157   23.9726 H   0  0  0  0  0  0
  -21.1470   -6.0529   25.9079 H   0  0  0  0  0  0
  -22.0598   -2.7622   23.2852 H   0  0  0  0  0  0
  -22.3983  -11.9836   22.4885 H   0  0  0  0  0  0
  -21.0966  -13.1162   22.2633 H   0  0  0  0  0  0
  -24.6204  -15.8538   20.5459 H   0  0  0  0  0  0
  -26.2397  -15.6482   20.1049 H   0  0  0  0  0  0
  -26.7561  -32.4908   23.0686 H   0  0  0  0  0  0
  -25.0087  -33.9235   24.9993 H   0  0  0  0  0  0
  -22.8492  -31.2238   21.2996 H   0  0  0  0  0  0
  -23.3775  -35.9386   23.3247 H   0  0  0  0  0  0
  -24.3518  -36.8814   22.2071 H   0  0  0  0  0  0
  -23.7187  -37.6245   23.6758 H   0  0  0  0  0  0
  -26.3123  -31.2106   20.6199 H   0  0  0  0  0  0
  -26.9532  -30.5742   22.0811 H   0  0  0  0  0  0
  -28.1675  -28.2973   21.3437 H   0  0  0  0  0  0
  -25.8180  -25.5585   19.0188 H   0  0  0  0  0  0
  -24.0462  -27.1904   18.9271 H   0  0  0  0  0  0
  -23.9582  -30.4226   19.3700 H   0  0  0  0  0  0
  -22.8831  -29.1402   19.8189 H   0  0  0  0  0  0
  -25.1341  -36.1573   25.0766 H   0  0  0  0  0  0
  -21.0071  -28.3450   24.1290 H   0  0  0  0  0  0
  -20.5680  -26.2447   23.3702 H   0  0  0  0  0  0
  -21.6666  -26.7393   22.1257 H   0  0  0  0  0  0
  -19.6918  -25.6303   21.1322 H   0  0  0  0  0  0
  -19.6717  -27.3186   20.6735 H   0  0  0  0  0  0
  -17.4236  -26.6758   21.4022 H   0  0  0  0  0  0
  -18.0298  -26.0151   22.9043 H   0  0  0  0  0  0
  -19.7999  -30.7394   24.2153 H   0  0  0  0  0  0
  -17.5071  -31.6307   24.5201 H   0  0  0  0  0  0
  -15.5411  -30.3021   23.7733 H   0  0  0  0  0  0
  -15.8717  -28.0853   22.7156 H   0  0  0  0  0  0
  -24.5875  -30.7115   25.7571 H   0  0  0  0  0  0
  -24.8773  -32.3107   26.4316 H   0  0  0  0  0  0
  -25.7814  -30.9272   27.0192 H   0  0  0  0  0  0
  -26.3290  -29.6399   24.1536 H   0  0  0  0  0  0
  -27.3949  -29.7249   25.5322 H   0  0  0  0  0  0
  -27.9281  -30.3903   24.0113 H   0  0  0  0  0  0
  -27.2623  -33.3731   26.1730 H   0  0  0  0  0  0
  -28.4044  -32.6673   25.0384 H   0  0  0  0  0  0
  -28.0512  -31.8592   26.5589 H   0  0  0  0  0  0
  -28.2558  -38.0013   24.7545 H   0  0  0  0  0  0
  -28.1050  -36.2551   24.6264 H   0  0  0  0  0  0
  -27.2264  -37.1310   25.8872 H   0  0  0  0  0  0
  -20.9797  -29.8623   21.6447 H   0  0  0  0  0  0
  -26.0040  -38.2679   24.1500 H   0  0  0  0  0  0
  -32.1410  -21.1253   21.3345 H   0  0  0  0  0  0
  -31.9899  -23.3268   20.9087 H   0  0  0  0  0  0
  -30.6429  -23.7614   21.9567 H   0  0  0  0  0  0
  -30.5802  -24.0838   20.2110 H   0  0  0  0  0  0
  -32.7868  -19.0672   21.8001 H   0  0  0  0  0  0
  -32.5020  -18.1701   20.3117 H   0  0  0  0  0  0
  -31.6899  -17.7159   21.8296 H   0  0  0  0  0  0
  -26.6087  -20.7556   19.8495 H   0  0  0  0  0  0
  -26.8905  -19.0873   20.3425 H   0  0  0  0  0  0
  -27.3093  -19.6053   18.7048 H   0  0  0  0  0  0
  -27.0749  -23.3640   20.7377 H   0  0  0  0  0  0
  -27.6206  -23.4578   19.1186 H   0  0  0  0  0  0
  -28.5211  -16.9255   20.2759 H   0  0  0  0  0  0
  1 25  1  0  0  0
  1 30  2  0  0  0
  1 81  1  0  0  0
  2  3  1  0  0  0
  2 25  1  0  0  0
  2 82  1  0  0  0
  2 83  1  0  0  0
  3  4  1  0  0  0
  3 84  1  0  0  0
  3 85  1  0  0  0
  4  5  1  0  0  0
  4 86  1  0  0  0
  4 87  1  0  0  0
  5  6  1  0  0  0
  5 26  1  0  0  0
  5 88  1  0  0  0
  6 25  1  0  0  0
  6 89  1  0  0  0
  6 90  1  0  0  0
  7  8  2  0  0  0
  7 26  1  0  0  0
  7 29  1  0  0  0
  8  9  1  0  0  0
  8 22  1  0  0  0
  9 10  1  0  0  0
  9 27  2  0  0  0
 10 11  2  0  0  0
 10 15  1  0  0  0
 11 12  1  0  0  0
 11 91  1  0  0  0
 12 13  2  0  0  0
 12 92  1  0  0  0
 13 14  1  0  0  0
 13 31  1  0  0  0
 14 15  2  0  0  0
 14 93  1  0  0  0
 15 94  1  0  0  0
 16 17  2  0  0  0
 16 21  1  0  0  0
 16 31  1  0  0  0
 17 18  1  0  0  0
 17 95  1  0  0  0
 18 19  2  0  0  0
 18 96  1  0  0  0
 19 20  1  0  0  0
 19 24  1  0  0  0
 20 21  2  0  0  0
 20 97  1  0  0  0
 21 23  1  0  0  0
 22 28  1  0  0  0
 22 32  2  0  0  0
 26 27  1  0  0  0
 28 98  1  0  0  0
 28 99  1  0  0  0
 29100  1  0  0  0
 29101  1  0  0  0
 33 34  1  0  0  0
 33 66  1  0  0  0
 33 70  2  0  0  0
 34 36  1  0  0  0
 34 59  1  0  0  0
 34102  1  0  0  0
 35 44  2  0  0  0
 35 45  1  0  0  0
 35 68  1  0  0  0
 36 56  1  0  0  0
 36103  1  0  0  0
 37 39  1  0  0  0
 37 47  1  0  0  0
 37 66  1  0  0  0
 37104  1  0  0  0
 38 43  2  0  0  0
 38 46  1  0  0  0
 38 47  1  0  0  0
 39 64  1  0  0  0
 39 67  2  0  0  0
 40 52  1  0  0  0
 40 53  2  0  0  0
 40 58  1  0  0  0
 41105  1  0  0  0
 41106  1  0  0  0
 41107  1  0  0  0
 41 48  1  0  0  0
 42 43  1  0  0  0
 42 66  1  0  0  0
 42108  1  0  0  0
 42109  1  0  0  0
 43 44  1  0  0  0
 44110  1  0  0  0
 45 46  2  0  0  0
 45111  1  0  0  0
 46112  1  0  0  0
 47113  1  0  0  0
 47114  1  0  0  0
 48 56  1  0  0  0
 48 65  1  0  0  0
 48115  1  0  0  0
 49 50  1  0  0  0
 49 53  1  0  0  0
 49 64  1  0  0  0
 49116  1  0  0  0
 50 51  1  0  0  0
 50117  1  0  0  0
 50118  1  0  0  0
 51 52  1  0  0  0
 51119  1  0  0  0
 51120  1  0  0  0
 52121  1  0  0  0
 52122  1  0  0  0
 53 54  1  0  0  0
 54 55  2  0  0  0
 54123  1  0  0  0
 55 57  1  0  0  0
 55124  1  0  0  0
 56 69  2  0  0  0
 57 58  2  0  0  0
 57125  1  0  0  0
 58126  1  0  0  0
 59 60  1  0  0  0
 59 61  1  0  0  0
 59 62  1  0  0  0
 60127  1  0  0  0
 60128  1  0  0  0
 60129  1  0  0  0
 61130  1  0  0  0
 61131  1  0  0  0
 61132  1  0  0  0
 62133  1  0  0  0
 62134  1  0  0  0
 62135  1  0  0  0
 63 65  1  0  0  0
 63136  1  0  0  0
 63137  1  0  0  0
 63138  1  0  0  0
 64139  1  0  0  0
 65140  1  0  0  0
 68 80  1  0  0  0
 71 72  2  0  0  0
 71 73  1  0  0  0
 71141  1  0  0  0
 72 74  1  0  0  0
 72 77  1  0  0  0
 73 76  2  0  0  0
 73 78  1  0  0  0
 74 75  2  0  0  0
 74 80  1  0  0  0
 75 76  1  0  0  0
 75 79  1  0  0  0
 76 81  1  0  0  0
 77142  1  0  0  0
 77143  1  0  0  0
 77144  1  0  0  0
 78145  1  0  0  0
 78146  1  0  0  0
 78147  1  0  0  0
 79148  1  0  0  0
 79149  1  0  0  0
 79150  1  0  0  0
 80151  1  0  0  0
 80152  1  0  0  0
 81153  1  0  0  0
M  ISO  4   1 100  68 101  80 101  81 100
M  END
> <chiral flag>
0

> <version>
0

> <s_m_source_file>
/data/baiqing/PycharmProjects/Reinvent-master-3.2/result/LINK_invent/BTK/process_docking_weight1_custom_sum_contain_oxygen_bond_distance_aromatic_linkinvent_7_9_3/rearranged_h_0017.sdf

> <i_m_source_file_index>
73

> <r_mmod_Potential_Energy-OPLS-2005>
2802.1328125

> <r_mmod_Stretch_Energy-OPLS-2005>
1277.92749023438

> <r_mmod_Bend_Energy-OPLS-2005>
643.240356445312

> <r_mmod_Torsional_Energy-OPLS-2005>
223.104019165039

> <r_mmod_Improper_Torsional_Energy-OPLS-2005>
4.76089096069336

> <r_mmod_Van_der_Waal_Energy-OPLS-2005>
132.802398681641

> <r_mmod_Electrostatic_Energy-OPLS-2005>
-385.983306884766

> <r_mmod_Solvation_Energy-OPLS-2005>
-206.680892944336

> <b_mmod_Minimization_Converged-OPLS-2005>
0

> <r_mmod_RMS_Derivative-OPLS-2005>
3.52881741523743

$$$$
75
                    3D
 Structure written by MMmdl.
159167  0  0  1  0            999 V2000
  -30.5323  -14.8580   20.4333 C   0  0  0  0  0  0
  -30.4474  -12.5248   19.4894 C   0  0  0  0  0  0
  -29.5193  -12.5237   18.2509 C   0  0  0  0  0  0
  -28.0477  -12.3242   18.6640 C   0  0  0  0  0  0
  -27.6385  -13.2345   19.8512 C   0  0  2  0  0  0
  -28.6823  -13.1922   20.9891 C   0  0  0  0  0  0
  -25.2474  -13.8178   20.5672 C   0  0  0  0  0  0
  -24.1775  -13.0426   20.9220 C   0  0  0  0  0  0
  -24.6375  -11.6909   20.8762 C   0  0  0  0  0  0
  -23.9059  -10.4289   21.0419 C   0  0  0  0  0  0
  -24.3599   -9.4191   21.9187 C   0  0  0  0  0  0
  -23.6278   -8.2228   22.0742 C   0  0  0  0  0  0
  -22.4254   -8.0284   21.3545 C   0  0  0  0  0  0
  -21.9905   -9.0255   20.4638 C   0  0  0  0  0  0
  -22.7236  -10.2132   20.3069 C   0  0  0  0  0  0
  -21.6842   -6.0740   22.5286 C   0  0  0  0  0  0
  -21.4004   -6.5638   23.8221 C   0  0  0  0  0  0
  -21.3664   -5.6781   24.9181 C   0  0  0  0  0  0
  -21.6050   -4.3049   24.7215 C   0  0  0  0  0  0
  -21.8819   -3.8145   23.4330 C   0  0  0  0  0  0
  -21.9179   -4.6968   22.3388 C   0  0  0  0  0  0
  -22.7794  -13.5205   21.1879 C   0  0  0  0  0  0
  -22.1655   -4.2158   21.0966 F   0  0  0  0  0  0
  -21.5625   -3.4529   25.7725 F   0  0  0  0  0  0
  -29.9744  -13.5898   20.4107 N   0  0  0  0  0  0
  -26.2910  -12.9394   20.3276 N   0  0  0  0  0  0
  -25.9306  -11.6534   20.5759 N   0  0  0  0  0  0
  -22.0434  -12.8217   22.0449 N   0  0  0  0  0  0
  -25.4124  -15.1906   20.4041 N   0  0  0  0  0  0
  -31.7110  -14.9933   20.0845 O   0  0  0  0  0  0
  -21.6619   -6.8883   21.4251 O   0  0  0  0  0  0
  -22.3485  -14.5507   20.6719 O   0  0  0  0  0  0
  -24.6388  -31.8484   23.1935 C   0  0  0  0  0  0
  -25.9193  -32.4716   23.8287 C   0  0  1  0  0  0
  -27.2154  -27.1912   20.1362 C   0  0  0  0  0  0
  -25.5958  -33.8520   24.2205 N   0  0  0  0  0  0
  -23.4392  -30.4699   21.5379 C   0  0  2  0  0  0
  -24.8863  -28.9082   20.1099 C   0  0  0  0  0  0
  -22.7554  -29.4569   22.4887 C   0  0  0  0  0  0
  -18.0304  -28.1387   22.8482 C   0  0  0  0  0  0
  -24.1491  -36.7266   23.2639 C   0  0  0  0  0  0
  -25.9932  -30.7383   21.3855 C   0  0  0  0  0  0
  -26.0637  -29.3570   20.7227 C   0  0  0  0  0  0
  -27.2308  -28.5139   20.7201 C   0  0  0  0  0  0
  -26.0091  -26.8312   19.4920 C   0  0  0  0  0  0
  -24.8688  -27.6559   19.4828 C   0  0  0  0  0  0
  -23.6615  -29.8038   20.1559 C   0  0  0  0  0  0
  -25.4123  -36.3041   24.0312 C   0  0  1  0  0  0
  -20.5912  -28.3706   23.1243 C   0  0  2  0  0  0
  -20.6796  -26.9413   22.5404 C   0  0  0  0  0  0
  -19.5767  -26.6375   21.5223 C   0  0  0  0  0  0
  -18.1942  -26.7927   22.1627 C   0  0  0  0  0  0
  -19.1559  -28.8872   23.2846 C   0  0  0  0  0  0
  -18.9474  -30.1470   23.8865 C   0  0  0  0  0  0
  -17.6473  -30.6587   24.0554 C   0  0  0  0  0  0
  -25.9068  -34.9415   23.5058 C   0  0  0  0  0  0
  -16.5359  -29.9076   23.6335 C   0  0  0  0  0  0
  -16.7285  -28.6497   23.0359 C   0  0  0  0  0  0
  -26.4520  -31.6585   25.0725 C   0  0  0  0  0  0
  -25.3721  -31.3792   26.1440 C   0  0  0  0  0  0
  -27.0387  -30.2982   24.6306 C   0  0  0  0  0  0
  -27.6025  -32.4373   25.7519 C   0  0  0  0  0  0
  -27.5579  -37.1787   24.8461 C   0  0  0  0  0  0
  -21.4254  -29.3038   22.3627 N   0  0  0  0  0  0
  -26.4292  -37.3751   23.9406 N   0  0  0  0  0  0
  -24.7100  -31.0409   22.0928 N   0  0  0  0  0  0
  -23.4233  -28.8101   23.2998 O   0  0  0  0  0  0
  -28.2796  -26.2358   20.1987 O   0  0  0  0  0  0
  -26.5643  -34.8901   22.4628 O   0  0  0  0  0  0
  -23.5525  -32.1321   23.7205 O   0  0  0  0  0  0
  -29.3575  -18.2937   21.6536 C   0  0  0  0  0  0
  -29.0555  -19.7049   21.5768 C   0  0  0  0  0  0
  -29.4304  -19.6269   19.2216 C   0  0  0  0  0  0
  -29.0341  -20.4415   20.3460 C   0  0  0  0  0  0
  -29.7282  -18.1958   19.3098 C   0  0  0  0  0  0
  -29.6843  -17.4548   20.5448 C   0  0  0  0  0  0
  -28.6697  -20.3910   22.8756 C   0  0  0  0  0  0
  -29.4597  -20.2858   17.8447 C   0  0  0  0  0  0
  -30.0188  -17.4412   18.0171 C   0  0  0  0  0  0
  -28.3175  -21.9112   20.2045 C   0  0  0  0  0  0
  -28.9526  -23.4334   20.3107 C   0  0  0  0  0  0
  -27.9722  -24.7420   20.0280 C   0  0  0  0  0  0
  -29.6895  -15.9462   20.7177 N   0  0  0  0  0  0
  -31.4817  -12.6859   19.1816 H   0  0  0  0  0  0
  -30.4330  -11.5552   19.9901 H   0  0  0  0  0  0
  -29.8213  -11.7393   17.5549 H   0  0  0  0  0  0
  -29.6241  -13.4680   17.7159 H   0  0  0  0  0  0
  -27.9240  -11.2768   18.9427 H   0  0  0  0  0  0
  -27.3858  -12.4918   17.8134 H   0  0  0  0  0  0
  -27.6250  -14.2505   19.4567 H   0  0  0  0  0  0
  -28.7427  -12.1940   21.4253 H   0  0  0  0  0  0
  -28.3923  -13.8601   21.8016 H   0  0  0  0  0  0
  -25.2738   -9.5652   22.4775 H   0  0  0  0  0  0
  -23.9987   -7.4604   22.7441 H   0  0  0  0  0  0
  -21.0845   -8.8773   19.8929 H   0  0  0  0  0  0
  -22.3699  -10.9678   19.6183 H   0  0  0  0  0  0
  -21.2011   -7.6148   23.9734 H   0  0  0  0  0  0
  -21.1491   -6.0507   25.9086 H   0  0  0  0  0  0
  -22.0597   -2.7614   23.2819 H   0  0  0  0  0  0
  -22.4050  -11.9899   22.4881 H   0  0  0  0  0  0
  -21.1055  -13.1266   22.2652 H   0  0  0  0  0  0
  -24.6321  -15.8324   20.4920 H   0  0  0  0  0  0
  -26.2440  -15.6294   20.0298 H   0  0  0  0  0  0
  -26.7258  -32.5347   23.1013 H   0  0  0  0  0  0
  -25.0133  -33.9625   25.0374 H   0  0  0  0  0  0
  -22.7384  -31.2944   21.3901 H   0  0  0  0  0  0
  -23.3751  -35.9606   23.3293 H   0  0  0  0  0  0
  -24.3569  -36.8908   22.2056 H   0  0  0  0  0  0
  -23.7255  -37.6461   23.6680 H   0  0  0  0  0  0
  -26.1483  -31.4955   20.6162 H   0  0  0  0  0  0
  -26.8639  -30.7818   22.0282 H   0  0  0  0  0  0
  -28.1296  -28.8530   21.2166 H   0  0  0  0  0  0
  -25.9053  -25.8747   19.0046 H   0  0  0  0  0  0
  -23.9696  -27.3034   18.9979 H   0  0  0  0  0  0
  -23.7906  -30.5794   19.4006 H   0  0  0  0  0  0
  -22.7787  -29.2405   19.8468 H   0  0  0  0  0  0
  -25.1310  -36.1868   25.0807 H   0  0  0  0  0  0
  -20.9989  -28.3294   24.1373 H   0  0  0  0  0  0
  -20.5715  -26.2311   23.3616 H   0  0  0  0  0  0
  -21.6652  -26.7438   22.1181 H   0  0  0  0  0  0
  -19.6903  -25.6285   21.1259 H   0  0  0  0  0  0
  -19.6697  -27.3176   20.6748 H   0  0  0  0  0  0
  -17.4212  -26.6680   21.4021 H   0  0  0  0  0  0
  -18.0314  -26.0082   22.9032 H   0  0  0  0  0  0
  -19.7955  -30.7294   24.2205 H   0  0  0  0  0  0
  -17.5028  -31.6260   24.5161 H   0  0  0  0  0  0
  -15.5353  -30.2960   23.7691 H   0  0  0  0  0  0
  -15.8693  -28.0803   22.7084 H   0  0  0  0  0  0
  -24.5859  -30.7175   25.7783 H   0  0  0  0  0  0
  -24.8963  -32.2998   26.4835 H   0  0  0  0  0  0
  -25.8015  -30.8984   27.0242 H   0  0  0  0  0  0
  -26.3002  -29.6715   24.1293 H   0  0  0  0  0  0
  -27.3968  -29.7275   25.4886 H   0  0  0  0  0  0
  -27.8925  -30.4206   23.9638 H   0  0  0  0  0  0
  -27.2553  -33.3659   26.2064 H   0  0  0  0  0  0
  -28.3854  -32.6974   25.0382 H   0  0  0  0  0  0
  -28.0678  -31.8551   26.5479 H   0  0  0  0  0  0
  -28.2580  -38.0094   24.7500 H   0  0  0  0  0  0
  -28.1079  -36.2615   24.6290 H   0  0  0  0  0  0
  -27.2287  -37.1453   25.8860 H   0  0  0  0  0  0
  -20.9459  -29.8776   21.6834 H   0  0  0  0  0  0
  -26.0153  -38.2821   24.1406 H   0  0  0  0  0  0
  -29.2770  -17.8211   22.6220 H   0  0  0  0  0  0
  -29.2775  -20.0152   23.6997 H   0  0  0  0  0  0
  -27.6252  -20.1966   23.1156 H   0  0  0  0  0  0
  -28.8244  -21.4684   22.8336 H   0  0  0  0  0  0
  -29.4536  -21.3736   17.8900 H   0  0  0  0  0  0
  -28.5953  -19.9710   17.2583 H   0  0  0  0  0  0
  -30.3642  -20.0149   17.2990 H   0  0  0  0  0  0
  -31.0067  -17.7129   17.6445 H   0  0  0  0  0  0
  -29.2814  -17.6836   17.2502 H   0  0  0  0  0  0
  -29.9926  -16.3609   18.1371 H   0  0  0  0  0  0
  -27.5018  -21.8938   20.9271 H   0  0  0  0  0  0
  -27.7772  -21.8816   19.2584 H   0  0  0  0  0  0
  -29.7889  -23.4971   19.6144 H   0  0  0  0  0  0
  -29.3909  -23.5454   21.3013 H   0  0  0  0  0  0
  -27.0744  -24.5603   20.6211 H   0  0  0  0  0  0
  -27.6615  -24.6255   18.9889 H   0  0  0  0  0  0
  -28.8297  -15.6108   21.1251 H   0  0  0  0  0  0
  1 25  1  0  0  0
  1 30  2  0  0  0
  1 83  1  0  0  0
  2  3  1  0  0  0
  2 25  1  0  0  0
  2 84  1  0  0  0
  2 85  1  0  0  0
  3  4  1  0  0  0
  3 86  1  0  0  0
  3 87  1  0  0  0
  4  5  1  0  0  0
  4 88  1  0  0  0
  4 89  1  0  0  0
  5  6  1  0  0  0
  5 26  1  0  0  0
  5 90  1  0  0  0
  6 25  1  0  0  0
  6 91  1  0  0  0
  6 92  1  0  0  0
  7  8  2  0  0  0
  7 26  1  0  0  0
  7 29  1  0  0  0
  8  9  1  0  0  0
  8 22  1  0  0  0
  9 10  1  0  0  0
  9 27  2  0  0  0
 10 11  2  0  0  0
 10 15  1  0  0  0
 11 12  1  0  0  0
 11 93  1  0  0  0
 12 13  2  0  0  0
 12 94  1  0  0  0
 13 14  1  0  0  0
 13 31  1  0  0  0
 14 15  2  0  0  0
 14 95  1  0  0  0
 15 96  1  0  0  0
 16 17  2  0  0  0
 16 21  1  0  0  0
 16 31  1  0  0  0
 17 18  1  0  0  0
 17 97  1  0  0  0
 18 19  2  0  0  0
 18 98  1  0  0  0
 19 20  1  0  0  0
 19 24  1  0  0  0
 20 21  2  0  0  0
 20 99  1  0  0  0
 21 23  1  0  0  0
 22 28  1  0  0  0
 22 32  2  0  0  0
 26 27  1  0  0  0
 28100  1  0  0  0
 28101  1  0  0  0
 29102  1  0  0  0
 29103  1  0  0  0
 33 34  1  0  0  0
 33 66  1  0  0  0
 33 70  2  0  0  0
 34 36  1  0  0  0
 34 59  1  0  0  0
 34104  1  0  0  0
 35 44  2  0  0  0
 35 45  1  0  0  0
 35 68  1  0  0  0
 36 56  1  0  0  0
 36105  1  0  0  0
 37 39  1  0  0  0
 37 47  1  0  0  0
 37 66  1  0  0  0
 37106  1  0  0  0
 38 43  2  0  0  0
 38 46  1  0  0  0
 38 47  1  0  0  0
 39 64  1  0  0  0
 39 67  2  0  0  0
 40 52  1  0  0  0
 40 53  2  0  0  0
 40 58  1  0  0  0
 41107  1  0  0  0
 41108  1  0  0  0
 41109  1  0  0  0
 41 48  1  0  0  0
 42 43  1  0  0  0
 42 66  1  0  0  0
 42110  1  0  0  0
 42111  1  0  0  0
 43 44  1  0  0  0
 44112  1  0  0  0
 45 46  2  0  0  0
 45113  1  0  0  0
 46114  1  0  0  0
 47115  1  0  0  0
 47116  1  0  0  0
 48 56  1  0  0  0
 48 65  1  0  0  0
 48117  1  0  0  0
 49 50  1  0  0  0
 49 53  1  0  0  0
 49 64  1  0  0  0
 49118  1  0  0  0
 50 51  1  0  0  0
 50119  1  0  0  0
 50120  1  0  0  0
 51 52  1  0  0  0
 51121  1  0  0  0
 51122  1  0  0  0
 52123  1  0  0  0
 52124  1  0  0  0
 53 54  1  0  0  0
 54 55  2  0  0  0
 54125  1  0  0  0
 55 57  1  0  0  0
 55126  1  0  0  0
 56 69  2  0  0  0
 57 58  2  0  0  0
 57127  1  0  0  0
 58128  1  0  0  0
 59 60  1  0  0  0
 59 61  1  0  0  0
 59 62  1  0  0  0
 60129  1  0  0  0
 60130  1  0  0  0
 60131  1  0  0  0
 61132  1  0  0  0
 61133  1  0  0  0
 61134  1  0  0  0
 62135  1  0  0  0
 62136  1  0  0  0
 62137  1  0  0  0
 63 65  1  0  0  0
 63138  1  0  0  0
 63139  1  0  0  0
 63140  1  0  0  0
 64141  1  0  0  0
 65142  1  0  0  0
 68 82  1  0  0  0
 71 72  2  0  0  0
 71 76  1  0  0  0
 71143  1  0  0  0
 72 74  1  0  0  0
 72 77  1  0  0  0
 73 74  2  0  0  0
 73 75  1  0  0  0
 73 78  1  0  0  0
 74 80  1  0  0  0
 75 76  2  0  0  0
 75 79  1  0  0  0
 76 83  1  0  0  0
 77144  1  0  0  0
 77145  1  0  0  0
 77146  1  0  0  0
 78147  1  0  0  0
 78148  1  0  0  0
 78149  1  0  0  0
 79150  1  0  0  0
 79151  1  0  0  0
 79152  1  0  0  0
 80 81  1  0  0  0
 80153  1  0  0  0
 80154  1  0  0  0
 81 82  1  0  0  0
 81155  1  0  0  0
 81156  1  0  0  0
 82157  1  0  0  0
 82158  1  0  0  0
 83159  1  0  0  0
M  ISO  4   1 100  68 101  82 101  83 100
M  END
> <chiral flag>
0

> <version>
0

> <s_m_source_file>
/data/baiqing/PycharmProjects/Reinvent-master-3.2/result/LINK_invent/BTK/process_docking_weight1_custom_sum_contain_oxygen_bond_distance_aromatic_linkinvent_7_9_3/rearranged_h_0017.sdf

> <i_m_source_file_index>
74

> <r_mmod_Potential_Energy-OPLS-2005>
336.928527832031

> <r_mmod_Stretch_Energy-OPLS-2005>
186.250061035156

> <r_mmod_Bend_Energy-OPLS-2005>
227.729400634766

> <r_mmod_Torsional_Energy-OPLS-2005>
244.369918823242

> <r_mmod_Improper_Torsional_Energy-OPLS-2005>
7.66756391525269

> <r_mmod_Van_der_Waal_Energy-OPLS-2005>
143.017669677734

> <r_mmod_Electrostatic_Energy-OPLS-2005>
-406.582824707031

> <r_mmod_Solvation_Energy-OPLS-2005>
-206.882965087891

> <b_mmod_Minimization_Converged-OPLS-2005>
0

> <r_mmod_RMS_Derivative-OPLS-2005>
2.45392060279846

$$$$
76
                    3D
 Structure written by MMmdl.
159167  0  0  1  0            999 V2000
  -30.4344  -15.2149   20.3716 C   0  0  0  0  0  0
  -30.4526  -12.7792   19.4983 C   0  0  0  0  0  0
  -29.5365  -12.5723   18.2666 C   0  0  0  0  0  0
  -28.0866  -12.2919   18.7023 C   0  0  0  0  0  0
  -27.6162  -13.2631   19.8146 C   0  0  2  0  0  0
  -28.6557  -13.4130   20.9446 C   0  0  0  0  0  0
  -25.2419  -13.8204   20.5747 C   0  0  0  0  0  0
  -24.1755  -13.0430   20.9271 C   0  0  0  0  0  0
  -24.6397  -11.6921   20.8758 C   0  0  0  0  0  0
  -23.9078  -10.4299   21.0412 C   0  0  0  0  0  0
  -24.3632   -9.4204   21.9167 C   0  0  0  0  0  0
  -23.6304   -8.2249   22.0735 C   0  0  0  0  0  0
  -22.4277   -8.0286   21.3530 C   0  0  0  0  0  0
  -21.9917   -9.0267   20.4632 C   0  0  0  0  0  0
  -22.7263  -10.2139   20.3047 C   0  0  0  0  0  0
  -21.6867   -6.0735   22.5286 C   0  0  0  0  0  0
  -21.4015   -6.5631   23.8219 C   0  0  0  0  0  0
  -21.3664   -5.6775   24.9177 C   0  0  0  0  0  0
  -21.6046   -4.3042   24.7220 C   0  0  0  0  0  0
  -21.8819   -3.8138   23.4343 C   0  0  0  0  0  0
  -21.9195   -4.6959   22.3401 C   0  0  0  0  0  0
  -22.7776  -13.5203   21.1920 C   0  0  0  0  0  0
  -22.1661   -4.2152   21.0977 F   0  0  0  0  0  0
  -21.5641   -3.4526   25.7728 F   0  0  0  0  0  0
  -29.8905  -13.9083   20.3128 N   0  0  0  0  0  0
  -26.2828  -12.9472   20.3153 N   0  0  0  0  0  0
  -25.9322  -11.6581   20.5671 N   0  0  0  0  0  0
  -22.0414  -12.8204   22.0469 N   0  0  0  0  0  0
  -25.4063  -15.1954   20.4266 N   0  0  0  0  0  0
  -31.6651  -15.2543   20.2265 O   0  0  0  0  0  0
  -21.6634   -6.8883   21.4253 O   0  0  0  0  0  0
  -22.3468  -14.5512   20.6762 O   0  0  0  0  0  0
  -24.6613  -31.8247   23.1699 C   0  0  0  0  0  0
  -25.9325  -32.4581   23.8147 C   0  0  1  0  0  0
  -27.2146  -26.9392   20.1850 C   0  0  0  0  0  0
  -25.6008  -33.8391   24.2063 N   0  0  0  0  0  0
  -23.4739  -30.4382   21.5186 C   0  0  2  0  0  0
  -24.9260  -28.8248   20.1144 C   0  0  0  0  0  0
  -22.7640  -29.4462   22.4769 C   0  0  0  0  0  0
  -18.0325  -28.1408   22.8480 C   0  0  0  0  0  0
  -24.1490  -36.7197   23.2643 C   0  0  0  0  0  0
  -26.0429  -30.6330   21.4002 C   0  0  0  0  0  0
  -26.1101  -29.2246   20.7459 C   0  0  0  0  0  0
  -27.2504  -28.3035   20.7574 C   0  0  0  0  0  0
  -26.0005  -26.6881   19.5074 C   0  0  0  0  0  0
  -24.8951  -27.5747   19.4759 C   0  0  0  0  0  0
  -23.7147  -29.7544   20.1451 C   0  0  0  0  0  0
  -25.4134  -36.2954   24.0288 C   0  0  1  0  0  0
  -20.5941  -28.3756   23.1191 C   0  0  2  0  0  0
  -20.6791  -26.9431   22.5401 C   0  0  0  0  0  0
  -19.5771  -26.6379   21.5209 C   0  0  0  0  0  0
  -18.1959  -26.7941   22.1623 C   0  0  0  0  0  0
  -19.1585  -28.8900   23.2832 C   0  0  0  0  0  0
  -18.9498  -30.1495   23.8855 C   0  0  0  0  0  0
  -17.6492  -30.6607   24.0559 C   0  0  0  0  0  0
  -25.9095  -34.9349   23.4988 C   0  0  0  0  0  0
  -16.5382  -29.9096   23.6345 C   0  0  0  0  0  0
  -16.7304  -28.6512   23.0370 C   0  0  0  0  0  0
  -26.4581  -31.6521   25.0673 C   0  0  0  0  0  0
  -25.3704  -31.3804   26.1331 C   0  0  0  0  0  0
  -27.0478  -30.2886   24.6405 C   0  0  0  0  0  0
  -27.6066  -32.4331   25.7490 C   0  0  0  0  0  0
  -27.5564  -37.1755   24.8468 C   0  0  0  0  0  0
  -21.4308  -29.3061   22.3530 N   0  0  0  0  0  0
  -26.4274  -37.3704   23.9407 N   0  0  0  0  0  0
  -24.7475  -30.9915   22.0830 N   0  0  0  0  0  0
  -23.4189  -28.8033   23.3014 O   0  0  0  0  0  0
  -28.2163  -25.8399   20.2578 O   0  0  0  0  0  0
  -26.5709  -34.8885   22.4583 O   0  0  0  0  0  0
  -23.5694  -32.1230   23.6801 O   0  0  0  0  0  0
  -30.3260  -18.8599   21.6815 C   0  0  0  0  0  0
  -30.0456  -20.4467   21.5464 C   0  0  0  0  0  0
  -29.0112  -19.4435   19.7720 C   0  0  0  0  0  0
  -29.4788  -18.0658   20.6596 C   0  0  1  0  0  0
  -28.7847  -20.8924   20.6790 C   0  0  2  0  0  0
  -27.2637  -21.5306   22.7589 C   0  0  0  0  0  0
  -26.1676  -20.6812   20.6691 C   0  0  0  0  0  0
  -28.8323  -22.6595   20.2143 C   0  0  0  0  0  0
  -27.9153  -24.2276   20.1374 C   0  0  0  0  0  0
  -27.4614  -20.6467   21.5107 C   0  0  0  0  0  0
  -29.5920  -16.4223   20.3864 N   0  0  0  0  0  0
  -31.4712  -13.0029   19.1715 H   0  0  0  0  0  0
  -30.5209  -11.8656   20.0915 H   0  0  0  0  0  0
  -29.9099  -11.7589   17.6434 H   0  0  0  0  0  0
  -29.5622  -13.4695   17.6470 H   0  0  0  0  0  0
  -28.0531  -11.2663   19.0702 H   0  0  0  0  0  0
  -27.4119  -12.3310   17.8458 H   0  0  0  0  0  0
  -27.5395  -14.2353   19.3260 H   0  0  0  0  0  0
  -28.8143  -12.4698   21.4701 H   0  0  0  0  0  0
  -28.3063  -14.1324   21.6873 H   0  0  0  0  0  0
  -25.2779   -9.5680   22.4732 H   0  0  0  0  0  0
  -24.0015   -7.4634   22.7447 H   0  0  0  0  0  0
  -21.0845   -8.8796   19.8944 H   0  0  0  0  0  0
  -22.3722  -10.9673   19.6157 H   0  0  0  0  0  0
  -21.1997   -7.6137   23.9728 H   0  0  0  0  0  0
  -21.1491   -6.0497   25.9084 H   0  0  0  0  0  0
  -22.0590   -2.7602   23.2837 H   0  0  0  0  0  0
  -22.4051  -11.9905   22.4914 H   0  0  0  0  0  0
  -21.1016  -13.1201   22.2611 H   0  0  0  0  0  0
  -24.6367  -15.8394   20.5727 H   0  0  0  0  0  0
  -26.2380  -15.6506   20.0769 H   0  0  0  0  0  0
  -26.7384  -32.5119   23.0846 H   0  0  0  0  0  0
  -25.0120  -33.9469   25.0192 H   0  0  0  0  0  0
  -22.7871  -31.2695   21.3470 H   0  0  0  0  0  0
  -23.3756  -35.9526   23.3280 H   0  0  0  0  0  0
  -24.3562  -36.8868   22.2060 H   0  0  0  0  0  0
  -23.7239  -37.6371   23.6716 H   0  0  0  0  0  0
  -26.2212  -31.3724   20.6180 H   0  0  0  0  0  0
  -26.9030  -30.6882   22.0555 H   0  0  0  0  0  0
  -28.1454  -28.6042   21.2852 H   0  0  0  0  0  0
  -25.8639  -25.7360   19.0177 H   0  0  0  0  0  0
  -23.9948  -27.2591   18.9670 H   0  0  0  0  0  0
  -23.8757  -30.5222   19.3884 H   0  0  0  0  0  0
  -22.8227  -29.2137   19.8227 H   0  0  0  0  0  0
  -25.1327  -36.1735   25.0778 H   0  0  0  0  0  0
  -21.0045  -28.3361   24.1311 H   0  0  0  0  0  0
  -20.5654  -26.2368   23.3642 H   0  0  0  0  0  0
  -21.6665  -26.7403   22.1226 H   0  0  0  0  0  0
  -19.6929  -25.6277   21.1280 H   0  0  0  0  0  0
  -19.6713  -27.3152   20.6714 H   0  0  0  0  0  0
  -17.4220  -26.6688   21.4035 H   0  0  0  0  0  0
  -18.0376  -26.0086   22.9024 H   0  0  0  0  0  0
  -19.7976  -30.7333   24.2185 H   0  0  0  0  0  0
  -17.5050  -31.6280   24.5173 H   0  0  0  0  0  0
  -15.5386  -30.2992   23.7687 H   0  0  0  0  0  0
  -15.8703  -28.0816   22.7107 H   0  0  0  0  0  0
  -24.5885  -30.7150   25.7653 H   0  0  0  0  0  0
  -24.8905  -32.3028   26.4609 H   0  0  0  0  0  0
  -25.7935  -30.9067   27.0197 H   0  0  0  0  0  0
  -26.3148  -29.6550   24.1396 H   0  0  0  0  0  0
  -27.3999  -29.7259   25.5059 H   0  0  0  0  0  0
  -27.9091  -30.4057   23.9824 H   0  0  0  0  0  0
  -27.2620  -33.3669   26.1951 H   0  0  0  0  0  0
  -28.3957  -32.6837   25.0386 H   0  0  0  0  0  0
  -28.0646  -31.8529   26.5509 H   0  0  0  0  0  0
  -28.2568  -38.0067   24.7512 H   0  0  0  0  0  0
  -28.1071  -36.2586   24.6296 H   0  0  0  0  0  0
  -27.2281  -37.1397   25.8875 H   0  0  0  0  0  0
  -20.9525  -29.8748   21.6674 H   0  0  0  0  0  0
  -26.0102  -38.2749   24.1449 H   0  0  0  0  0  0
  -30.0865  -18.5223   22.6906 H   0  0  0  0  0  0
  -31.3877  -18.6566   21.5362 H   0  0  0  0  0  0
  -30.9241  -20.8765   21.0638 H   0  0  0  0  0  0
  -30.0366  -20.9030   22.5348 H   0  0  0  0  0  0
  -29.7940  -19.6282   19.0355 H   0  0  0  0  0  0
  -28.1335  -19.2113   19.1740 H   0  0  0  0  0  0
  -28.5559  -17.9211   21.2177 H   0  0  0  0  0  0
  -28.1083  -21.4830   23.4448 H   0  0  0  0  0  0
  -26.3941  -21.1934   23.3251 H   0  0  0  0  0  0
  -27.0804  -22.5745   22.5079 H   0  0  0  0  0  0
  -26.2053  -20.0232   19.8030 H   0  0  0  0  0  0
  -25.9407  -21.6861   20.3141 H   0  0  0  0  0  0
  -25.3069  -20.3642   21.2596 H   0  0  0  0  0  0
  -28.9306  -22.8839   21.2736 H   0  0  0  0  0  0
  -27.9433  -22.3282   19.6880 H   0  0  0  0  0  0
  -27.0733  -24.0954   20.8175 H   0  0  0  0  0  0
  -27.4501  -24.1977   19.1508 H   0  0  0  0  0  0
  -27.5059  -19.6379   21.9154 H   0  0  0  0  0  0
  -28.6472  -16.0797   20.2817 H   0  0  0  0  0  0
  1 25  1  0  0  0
  1 30  2  0  0  0
  1 81  1  0  0  0
  2  3  1  0  0  0
  2 25  1  0  0  0
  2 82  1  0  0  0
  2 83  1  0  0  0
  3  4  1  0  0  0
  3 84  1  0  0  0
  3 85  1  0  0  0
  4  5  1  0  0  0
  4 86  1  0  0  0
  4 87  1  0  0  0
  5  6  1  0  0  0
  5 26  1  0  0  0
  5 88  1  0  0  0
  6 25  1  0  0  0
  6 89  1  0  0  0
  6 90  1  0  0  0
  7  8  2  0  0  0
  7 26  1  0  0  0
  7 29  1  0  0  0
  8  9  1  0  0  0
  8 22  1  0  0  0
  9 10  1  0  0  0
  9 27  2  0  0  0
 10 11  2  0  0  0
 10 15  1  0  0  0
 11 12  1  0  0  0
 11 91  1  0  0  0
 12 13  2  0  0  0
 12 92  1  0  0  0
 13 14  1  0  0  0
 13 31  1  0  0  0
 14 15  2  0  0  0
 14 93  1  0  0  0
 15 94  1  0  0  0
 16 17  2  0  0  0
 16 21  1  0  0  0
 16 31  1  0  0  0
 17 18  1  0  0  0
 17 95  1  0  0  0
 18 19  2  0  0  0
 18 96  1  0  0  0
 19 20  1  0  0  0
 19 24  1  0  0  0
 20 21  2  0  0  0
 20 97  1  0  0  0
 21 23  1  0  0  0
 22 28  1  0  0  0
 22 32  2  0  0  0
 26 27  1  0  0  0
 28 98  1  0  0  0
 28 99  1  0  0  0
 29100  1  0  0  0
 29101  1  0  0  0
 33 34  1  0  0  0
 33 66  1  0  0  0
 33 70  2  0  0  0
 34 36  1  0  0  0
 34 59  1  0  0  0
 34102  1  0  0  0
 35 44  2  0  0  0
 35 45  1  0  0  0
 35 68  1  0  0  0
 36 56  1  0  0  0
 36103  1  0  0  0
 37 39  1  0  0  0
 37 47  1  0  0  0
 37 66  1  0  0  0
 37104  1  0  0  0
 38 43  2  0  0  0
 38 46  1  0  0  0
 38 47  1  0  0  0
 39 64  1  0  0  0
 39 67  2  0  0  0
 40 52  1  0  0  0
 40 53  2  0  0  0
 40 58  1  0  0  0
 41105  1  0  0  0
 41106  1  0  0  0
 41107  1  0  0  0
 41 48  1  0  0  0
 42 43  1  0  0  0
 42 66  1  0  0  0
 42108  1  0  0  0
 42109  1  0  0  0
 43 44  1  0  0  0
 44110  1  0  0  0
 45 46  2  0  0  0
 45111  1  0  0  0
 46112  1  0  0  0
 47113  1  0  0  0
 47114  1  0  0  0
 48 56  1  0  0  0
 48 65  1  0  0  0
 48115  1  0  0  0
 49 50  1  0  0  0
 49 53  1  0  0  0
 49 64  1  0  0  0
 49116  1  0  0  0
 50 51  1  0  0  0
 50117  1  0  0  0
 50118  1  0  0  0
 51 52  1  0  0  0
 51119  1  0  0  0
 51120  1  0  0  0
 52121  1  0  0  0
 52122  1  0  0  0
 53 54  1  0  0  0
 54 55  2  0  0  0
 54123  1  0  0  0
 55 57  1  0  0  0
 55124  1  0  0  0
 56 69  2  0  0  0
 57 58  2  0  0  0
 57125  1  0  0  0
 58126  1  0  0  0
 59 60  1  0  0  0
 59 61  1  0  0  0
 59 62  1  0  0  0
 60127  1  0  0  0
 60128  1  0  0  0
 60129  1  0  0  0
 61130  1  0  0  0
 61131  1  0  0  0
 61132  1  0  0  0
 62133  1  0  0  0
 62134  1  0  0  0
 62135  1  0  0  0
 63 65  1  0  0  0
 63136  1  0  0  0
 63137  1  0  0  0
 63138  1  0  0  0
 64139  1  0  0  0
 65140  1  0  0  0
 68 79  1  0  0  0
 71 72  1  0  0  0
 71 74  1  0  0  0
 71141  1  0  0  0
 71142  1  0  0  0
 72 75  1  0  0  0
 72143  1  0  0  0
 72144  1  0  0  0
 73 74  1  0  0  0
 73 75  1  0  0  0
 73145  1  0  0  0
 73146  1  0  0  0
 74 81  1  0  0  0
 74147  1  0  0  0
 75 78  1  0  0  0
 75 80  1  0  0  0
 76148  1  0  0  0
 76149  1  0  0  0
 76150  1  0  0  0
 76 80  1  0  0  0
 77 80  1  0  0  0
 77151  1  0  0  0
 77152  1  0  0  0
 77153  1  0  0  0
 78 79  1  0  0  0
 78154  1  0  0  0
 78155  1  0  0  0
 79156  1  0  0  0
 79157  1  0  0  0
 80158  1  0  0  0
 81159  1  0  0  0
M  ISO  4   1 100  68 101  79 101  81 100
M  END
> <chiral flag>
0

> <version>
0

> <s_m_source_file>
/data/baiqing/PycharmProjects/Reinvent-master-3.2/result/LINK_invent/BTK/process_docking_weight1_custom_sum_contain_oxygen_bond_distance_aromatic_linkinvent_7_9_3/rearranged_h_0017.sdf

> <i_m_source_file_index>
75

> <r_mmod_Potential_Energy-OPLS-2005>
1595.50134277344

> <r_mmod_Stretch_Energy-OPLS-2005>
573.612670898438

> <r_mmod_Bend_Energy-OPLS-2005>
760.977416992188

> <r_mmod_Torsional_Energy-OPLS-2005>
282.033386230469

> <r_mmod_Improper_Torsional_Energy-OPLS-2005>
4.42998695373535

> <r_mmod_Van_der_Waal_Energy-OPLS-2005>
119.030914306641

> <r_mmod_Electrostatic_Energy-OPLS-2005>
-367.072937011719

> <r_mmod_Solvation_Energy-OPLS-2005>
-205.742980957031

> <b_mmod_Minimization_Converged-OPLS-2005>
0

> <r_mmod_RMS_Derivative-OPLS-2005>
3.07017111778259

$$$$
77
                    3D
 Structure written by MMmdl.
168176  0  0  1  0            999 V2000
  -30.5496  -15.1500   20.3668 C   0  0  0  0  0  0
  -30.4165  -12.7356   19.5005 C   0  0  0  0  0  0
  -29.5117  -12.5488   18.2625 C   0  0  0  0  0  0
  -28.0627  -12.2906   18.7037 C   0  0  0  0  0  0
  -27.6075  -13.2730   19.8132 C   0  0  2  0  0  0
  -28.6486  -13.4529   20.9387 C   0  0  0  0  0  0
  -25.2406  -13.8287   20.5790 C   0  0  0  0  0  0
  -24.1738  -13.0474   20.9291 C   0  0  0  0  0  0
  -24.6370  -11.6972   20.8761 C   0  0  0  0  0  0
  -23.9078  -10.4322   21.0395 C   0  0  0  0  0  0
  -24.3628   -9.4242   21.9174 C   0  0  0  0  0  0
  -23.6311   -8.2267   22.0743 C   0  0  0  0  0  0
  -22.4291   -8.0293   21.3551 C   0  0  0  0  0  0
  -21.9919   -9.0263   20.4650 C   0  0  0  0  0  0
  -22.7240  -10.2145   20.3053 C   0  0  0  0  0  0
  -21.6870   -6.0737   22.5285 C   0  0  0  0  0  0
  -21.4008   -6.5634   23.8213 C   0  0  0  0  0  0
  -21.3665   -5.6790   24.9173 C   0  0  0  0  0  0
  -21.6041   -4.3055   24.7228 C   0  0  0  0  0  0
  -21.8821   -3.8151   23.4347 C   0  0  0  0  0  0
  -21.9193   -4.6964   22.3406 C   0  0  0  0  0  0
  -22.7758  -13.5229   21.1936 C   0  0  0  0  0  0
  -22.1676   -4.2153   21.0984 F   0  0  0  0  0  0
  -21.5631   -3.4535   25.7742 F   0  0  0  0  0  0
  -29.8898  -13.9009   20.2972 N   0  0  0  0  0  0
  -26.2811  -12.9541   20.3250 N   0  0  0  0  0  0
  -25.9307  -11.6653   20.5733 N   0  0  0  0  0  0
  -22.0410  -12.8188   22.0465 N   0  0  0  0  0  0
  -25.4087  -15.2001   20.4216 N   0  0  0  0  0  0
  -31.7731  -15.0498   20.2017 O   0  0  0  0  0  0
  -21.6664   -6.8878   21.4244 O   0  0  0  0  0  0
  -22.3450  -14.5547   20.6799 O   0  0  0  0  0  0
  -24.6502  -31.8337   23.1793 C   0  0  0  0  0  0
  -25.9241  -32.4642   23.8189 C   0  0  1  0  0  0
  -27.2130  -27.0192   20.1760 C   0  0  0  0  0  0
  -25.5966  -33.8447   24.2137 N   0  0  0  0  0  0
  -23.4586  -30.4516   21.5213 C   0  0  2  0  0  0
  -24.9093  -28.8532   20.1023 C   0  0  0  0  0  0
  -22.7580  -29.4536   22.4775 C   0  0  0  0  0  0
  -18.0321  -28.1437   22.8463 C   0  0  0  0  0  0
  -24.1480  -36.7189   23.2651 C   0  0  0  0  0  0
  -26.0194  -30.6710   21.3919 C   0  0  0  0  0  0
  -26.0867  -29.2700   20.7340 C   0  0  0  0  0  0
  -27.2282  -28.3696   20.7541 C   0  0  0  0  0  0
  -26.0113  -26.7315   19.4899 C   0  0  0  0  0  0
  -24.8911  -27.6024   19.4606 C   0  0  0  0  0  0
  -23.6897  -29.7688   20.1443 C   0  0  0  0  0  0
  -25.4124  -36.3006   24.0327 C   0  0  1  0  0  0
  -20.5935  -28.3774   23.1188 C   0  0  2  0  0  0
  -20.6803  -26.9456   22.5404 C   0  0  0  0  0  0
  -19.5780  -26.6409   21.5207 C   0  0  0  0  0  0
  -18.1962  -26.7976   22.1612 C   0  0  0  0  0  0
  -19.1576  -28.8912   23.2842 C   0  0  0  0  0  0
  -18.9503  -30.1505   23.8876 C   0  0  0  0  0  0
  -17.6494  -30.6623   24.0558 C   0  0  0  0  0  0
  -25.9077  -34.9381   23.5051 C   0  0  0  0  0  0
  -16.5381  -29.9116   23.6347 C   0  0  0  0  0  0
  -16.7305  -28.6541   23.0359 C   0  0  0  0  0  0
  -26.4539  -31.6545   25.0654 C   0  0  0  0  0  0
  -25.3707  -31.3757   26.1331 C   0  0  0  0  0  0
  -27.0444  -30.2934   24.6346 C   0  0  0  0  0  0
  -27.6071  -32.4309   25.7452 C   0  0  0  0  0  0
  -27.5573  -37.1760   24.8483 C   0  0  0  0  0  0
  -21.4264  -29.3081   22.3512 N   0  0  0  0  0  0
  -26.4284  -37.3725   23.9423 N   0  0  0  0  0  0
  -24.7298  -31.0096   22.0857 N   0  0  0  0  0  0
  -23.4179  -28.8119   23.2989 O   0  0  0  0  0  0
  -28.2460  -25.9858   20.3368 O   0  0  0  0  0  0
  -26.5673  -34.8890   22.4640 O   0  0  0  0  0  0
  -23.5611  -32.1255   23.6946 O   0  0  0  0  0  0
  -30.3515  -19.1277   21.3660 C   0  0  0  0  0  0
  -28.4826  -18.9136   20.0434 C   0  0  0  0  0  0
  -30.8909  -17.6413   20.9627 C   0  0  0  0  0  0
  -29.6017  -20.0550   20.2852 C   0  0  1  0  0  0
  -28.9117  -17.3064   19.7206 C   0  0  1  0  0  0
  -29.2452  -17.1980   18.2194 C   0  0  0  0  0  0
  -31.0601  -22.4172   18.7449 C   0  0  0  0  0  0
  -31.9622  -21.9901   21.0853 C   0  0  0  0  0  0
  -27.0411  -22.1315   19.7989 C   0  0  0  0  0  0
  -28.3592  -24.4747   19.7883 C   0  0  0  0  0  0
  -30.7427  -22.4157   20.2533 C   0  0  0  0  0  0
  -28.2645  -22.8170   20.4281 C   0  0  2  0  0  0
  -29.9729  -16.5066   20.5276 N   0  0  0  0  0  0
  -29.4605  -21.6991   20.5707 N   0  3  1  0  0  0
  -31.4430  -12.8879   19.1657 H   0  0  0  0  0  0
  -30.4378  -11.8307   20.1111 H   0  0  0  0  0  0
  -29.8713  -11.7209   17.6491 H   0  0  0  0  0  0
  -29.5511  -13.4397   17.6333 H   0  0  0  0  0  0
  -28.0123  -11.2695   19.0803 H   0  0  0  0  0  0
  -27.3867  -12.3398   17.8497 H   0  0  0  0  0  0
  -27.5226  -14.2358   19.3101 H   0  0  0  0  0  0
  -28.7964  -12.5339   21.5081 H   0  0  0  0  0  0
  -28.3121  -14.2134   21.6462 H   0  0  0  0  0  0
  -25.2756   -9.5739   22.4757 H   0  0  0  0  0  0
  -24.0036   -7.4656   22.7446 H   0  0  0  0  0  0
  -21.0857   -8.8767   19.8950 H   0  0  0  0  0  0
  -22.3683  -10.9678   19.6174 H   0  0  0  0  0  0
  -21.2003   -7.6144   23.9715 H   0  0  0  0  0  0
  -21.1484   -6.0523   25.9076 H   0  0  0  0  0  0
  -22.0592   -2.7614   23.2851 H   0  0  0  0  0  0
  -22.4031  -11.9860   22.4865 H   0  0  0  0  0  0
  -21.1019  -13.1181   22.2661 H   0  0  0  0  0  0
  -24.6444  -15.8555   20.5378 H   0  0  0  0  0  0
  -26.2628  -15.6388   20.1042 H   0  0  0  0  0  0
  -26.7274  -32.5245   23.0877 H   0  0  0  0  0  0
  -25.0103  -33.9519   25.0281 H   0  0  0  0  0  0
  -22.7683  -31.2824   21.3589 H   0  0  0  0  0  0
  -23.3786  -35.9477   23.3295 H   0  0  0  0  0  0
  -24.3537  -36.8818   22.2063 H   0  0  0  0  0  0
  -23.7153  -37.6353   23.6674 H   0  0  0  0  0  0
  -26.1855  -31.4203   20.6161 H   0  0  0  0  0  0
  -26.8826  -30.7269   22.0445 H   0  0  0  0  0  0
  -28.1152  -28.6794   21.2885 H   0  0  0  0  0  0
  -25.8894  -25.7702   19.0164 H   0  0  0  0  0  0
  -23.9903  -27.2772   18.9574 H   0  0  0  0  0  0
  -23.8278  -30.5352   19.3805 H   0  0  0  0  0  0
  -22.7997  -29.2143   19.8409 H   0  0  0  0  0  0
  -25.1312  -36.1824   25.0818 H   0  0  0  0  0  0
  -21.0063  -28.3403   24.1296 H   0  0  0  0  0  0
  -20.5665  -26.2400   23.3653 H   0  0  0  0  0  0
  -21.6678  -26.7444   22.1216 H   0  0  0  0  0  0
  -19.6922  -25.6314   21.1274 H   0  0  0  0  0  0
  -19.6714  -27.3178   20.6706 H   0  0  0  0  0  0
  -17.4227  -26.6704   21.4026 H   0  0  0  0  0  0
  -18.0365  -26.0145   22.9042 H   0  0  0  0  0  0
  -19.7979  -30.7337   24.2230 H   0  0  0  0  0  0
  -17.5056  -31.6301   24.5182 H   0  0  0  0  0  0
  -15.5385  -30.3014   23.7713 H   0  0  0  0  0  0
  -15.8706  -28.0861   22.7083 H   0  0  0  0  0  0
  -24.5897  -30.7090   25.7637 H   0  0  0  0  0  0
  -24.8884  -32.2953   26.4674 H   0  0  0  0  0  0
  -25.7963  -30.8970   27.0160 H   0  0  0  0  0  0
  -26.3110  -29.6594   24.1355 H   0  0  0  0  0  0
  -27.3994  -29.7282   25.4971 H   0  0  0  0  0  0
  -27.9025  -30.4114   23.9718 H   0  0  0  0  0  0
  -27.2694  -33.3669   26.1910 H   0  0  0  0  0  0
  -28.3971  -32.6762   25.0337 H   0  0  0  0  0  0
  -28.0644  -31.8497   26.5473 H   0  0  0  0  0  0
  -28.2631  -38.0034   24.7571 H   0  0  0  0  0  0
  -28.1041  -36.2577   24.6296 H   0  0  0  0  0  0
  -27.2290  -37.1387   25.8885 H   0  0  0  0  0  0
  -20.9484  -29.8728   21.6632 H   0  0  0  0  0  0
  -26.0155  -38.2796   24.1435 H   0  0  0  0  0  0
  -31.1990  -19.6433   21.7999 H   0  0  0  0  0  0
  -29.6871  -19.0089   22.2242 H   0  0  0  0  0  0
  -27.8326  -19.2557   19.2396 H   0  0  0  0  0  0
  -27.8258  -18.9066   20.9152 H   0  0  0  0  0  0
  -31.4556  -17.2633   21.8157 H   0  0  0  0  0  0
  -31.6355  -17.7625   20.1732 H   0  0  0  0  0  0
  -30.2043  -20.0144   19.3813 H   0  0  0  0  0  0
  -27.9938  -16.7366   19.8597 H   0  0  0  0  0  0
  -29.4125  -16.1661   17.9081 H   0  0  0  0  0  0
  -30.1402  -17.7699   17.9694 H   0  0  0  0  0  0
  -28.4300  -17.5789   17.6025 H   0  0  0  0  0  0
  -31.7097  -23.2549   18.4914 H   0  0  0  0  0  0
  -30.1599  -22.4971   18.1350 H   0  0  0  0  0  0
  -31.5873  -21.5103   18.4436 H   0  0  0  0  0  0
  -31.7315  -21.9334   22.1512 H   0  0  0  0  0  0
  -32.7680  -22.7193   20.9816 H   0  0  0  0  0  0
  -32.3701  -21.0390   20.7484 H   0  0  0  0  0  0
  -26.7080  -21.2832   20.3949 H   0  0  0  0  0  0
  -27.2803  -21.7673   18.8002 H   0  0  0  0  0  0
  -26.1903  -22.8108   19.7180 H   0  0  0  0  0  0
  -27.6721  -24.4697   18.9447 H   0  0  0  0  0  0
  -29.3040  -24.5325   19.2540 H   0  0  0  0  0  0
  -30.6131  -23.4498   20.5667 H   0  0  0  0  0  0
  -27.9971  -22.9867   21.4727 H   0  0  0  0  0  0
  -29.4750  -21.6715   21.5805 H   0  0  0  0  0  0
  1 25  1  0  0  0
  1 30  2  0  0  0
  1 83  1  0  0  0
  2  3  1  0  0  0
  2 25  1  0  0  0
  2 85  1  0  0  0
  2 86  1  0  0  0
  3  4  1  0  0  0
  3 87  1  0  0  0
  3 88  1  0  0  0
  4  5  1  0  0  0
  4 89  1  0  0  0
  4 90  1  0  0  0
  5  6  1  0  0  0
  5 26  1  0  0  0
  5 91  1  0  0  0
  6 25  1  0  0  0
  6 92  1  0  0  0
  6 93  1  0  0  0
  7  8  2  0  0  0
  7 26  1  0  0  0
  7 29  1  0  0  0
  8  9  1  0  0  0
  8 22  1  0  0  0
  9 10  1  0  0  0
  9 27  2  0  0  0
 10 11  2  0  0  0
 10 15  1  0  0  0
 11 12  1  0  0  0
 11 94  1  0  0  0
 12 13  2  0  0  0
 12 95  1  0  0  0
 13 14  1  0  0  0
 13 31  1  0  0  0
 14 15  2  0  0  0
 14 96  1  0  0  0
 15 97  1  0  0  0
 16 17  2  0  0  0
 16 21  1  0  0  0
 16 31  1  0  0  0
 17 18  1  0  0  0
 17 98  1  0  0  0
 18 19  2  0  0  0
 18 99  1  0  0  0
 19 20  1  0  0  0
 19 24  1  0  0  0
 20 21  2  0  0  0
 20100  1  0  0  0
 21 23  1  0  0  0
 22 28  1  0  0  0
 22 32  2  0  0  0
 26 27  1  0  0  0
 28101  1  0  0  0
 28102  1  0  0  0
 29103  1  0  0  0
 29104  1  0  0  0
 33 34  1  0  0  0
 33 66  1  0  0  0
 33 70  2  0  0  0
 34 36  1  0  0  0
 34 59  1  0  0  0
 34105  1  0  0  0
 35 44  2  0  0  0
 35 45  1  0  0  0
 35 68  1  0  0  0
 36 56  1  0  0  0
 36106  1  0  0  0
 37 39  1  0  0  0
 37 47  1  0  0  0
 37 66  1  0  0  0
 37107  1  0  0  0
 38 43  2  0  0  0
 38 46  1  0  0  0
 38 47  1  0  0  0
 39 64  1  0  0  0
 39 67  2  0  0  0
 40 52  1  0  0  0
 40 53  2  0  0  0
 40 58  1  0  0  0
 41108  1  0  0  0
 41109  1  0  0  0
 41110  1  0  0  0
 41 48  1  0  0  0
 42 43  1  0  0  0
 42 66  1  0  0  0
 42111  1  0  0  0
 42112  1  0  0  0
 43 44  1  0  0  0
 44113  1  0  0  0
 45 46  2  0  0  0
 45114  1  0  0  0
 46115  1  0  0  0
 47116  1  0  0  0
 47117  1  0  0  0
 48 56  1  0  0  0
 48 65  1  0  0  0
 48118  1  0  0  0
 49 50  1  0  0  0
 49 53  1  0  0  0
 49 64  1  0  0  0
 49119  1  0  0  0
 50 51  1  0  0  0
 50120  1  0  0  0
 50121  1  0  0  0
 51 52  1  0  0  0
 51122  1  0  0  0
 51123  1  0  0  0
 52124  1  0  0  0
 52125  1  0  0  0
 53 54  1  0  0  0
 54 55  2  0  0  0
 54126  1  0  0  0
 55 57  1  0  0  0
 55127  1  0  0  0
 56 69  2  0  0  0
 57 58  2  0  0  0
 57128  1  0  0  0
 58129  1  0  0  0
 59 60  1  0  0  0
 59 61  1  0  0  0
 59 62  1  0  0  0
 60130  1  0  0  0
 60131  1  0  0  0
 60132  1  0  0  0
 61133  1  0  0  0
 61134  1  0  0  0
 61135  1  0  0  0
 62136  1  0  0  0
 62137  1  0  0  0
 62138  1  0  0  0
 63 65  1  0  0  0
 63139  1  0  0  0
 63140  1  0  0  0
 63141  1  0  0  0
 64142  1  0  0  0
 65143  1  0  0  0
 68 80  1  0  0  0
 71 73  1  0  0  0
 71144  1  0  0  0
 71145  1  0  0  0
 71 74  1  0  0  0
 72 74  1  0  0  0
 72 75  1  0  0  0
 72146  1  0  0  0
 72147  1  0  0  0
 73 83  1  0  0  0
 73148  1  0  0  0
 73149  1  0  0  0
 74 84  1  0  0  0
 74150  1  0  0  0
 75 76  1  0  0  0
 75 83  1  0  0  0
 75151  1  0  0  0
 76152  1  0  0  0
 76153  1  0  0  0
 76154  1  0  0  0
 77155  1  0  0  0
 77156  1  0  0  0
 77157  1  0  0  0
 77 81  1  0  0  0
 78 81  1  0  0  0
 78158  1  0  0  0
 78159  1  0  0  0
 78160  1  0  0  0
 79161  1  0  0  0
 79162  1  0  0  0
 79163  1  0  0  0
 79 82  1  0  0  0
 80 82  1  0  0  0
 80164  1  0  0  0
 80165  1  0  0  0
 81166  1  0  0  0
 81 84  1  0  0  0
 82 84  1  0  0  0
 82167  1  0  0  0
 84168  1  0  0  0
M  CHG  1  84   1
M  ISO  4   1 100  68 101  80 101  83 100
M  END
> <chiral flag>
0

> <version>
0

> <s_m_source_file>
/data/baiqing/PycharmProjects/Reinvent-master-3.2/result/LINK_invent/BTK/process_docking_weight1_custom_sum_contain_oxygen_bond_distance_aromatic_linkinvent_7_9_3/rearranged_h_0017.sdf

> <i_m_source_file_index>
76

> <r_mmod_Potential_Energy-OPLS-2005>
1341.05651855469

> <r_mmod_Stretch_Energy-OPLS-2005>
449.881103515625

> <r_mmod_Bend_Energy-OPLS-2005>
546.60693359375

> <r_mmod_Torsional_Energy-OPLS-2005>
371.134155273438

> <r_mmod_Improper_Torsional_Energy-OPLS-2005>
5.35444784164429

> <r_mmod_Van_der_Waal_Energy-OPLS-2005>
122.644653320312

> <r_mmod_Electrostatic_Energy-OPLS-2005>
-93.6374664306641

> <r_mmod_Solvation_Energy-OPLS-2005>
-402.728485107422

> <b_mmod_Minimization_Converged-OPLS-2005>
0

> <r_mmod_RMS_Derivative-OPLS-2005>
4.04486036300659

$$$$
78
                    3D
 Structure written by MMmdl.
153161  0  0  1  0            999 V2000
  -30.2967  -15.5959   20.3324 C   0  0  0  0  0  0
  -30.4325  -13.0496   19.5370 C   0  0  0  0  0  0
  -29.5537  -12.6476   18.3179 C   0  0  0  0  0  0
  -28.1203  -12.3029   18.7548 C   0  0  0  0  0  0
  -27.5984  -13.3037   19.8115 C   0  0  2  0  0  0
  -28.6180  -13.6091   20.9328 C   0  0  0  0  0  0
  -25.2334  -13.8274   20.5779 C   0  0  0  0  0  0
  -24.1720  -13.0429   20.9283 C   0  0  0  0  0  0
  -24.6416  -11.6938   20.8758 C   0  0  0  0  0  0
  -23.9113  -10.4291   21.0400 C   0  0  0  0  0  0
  -24.3648   -9.4205   21.9182 C   0  0  0  0  0  0
  -23.6310   -8.2245   22.0755 C   0  0  0  0  0  0
  -22.4288   -8.0287   21.3547 C   0  0  0  0  0  0
  -21.9934   -9.0263   20.4648 C   0  0  0  0  0  0
  -22.7277  -10.2135   20.3055 C   0  0  0  0  0  0
  -21.6856   -6.0741   22.5280 C   0  0  0  0  0  0
  -21.4018   -6.5643   23.8213 C   0  0  0  0  0  0
  -21.3662   -5.6794   24.9174 C   0  0  0  0  0  0
  -21.6044   -4.3056   24.7223 C   0  0  0  0  0  0
  -21.8817   -3.8149   23.4344 C   0  0  0  0  0  0
  -21.9193   -4.6968   22.3400 C   0  0  0  0  0  0
  -22.7734  -13.5168   21.1915 C   0  0  0  0  0  0
  -22.1662   -4.2155   21.0977 F   0  0  0  0  0  0
  -21.5627   -3.4537   25.7735 F   0  0  0  0  0  0
  -29.7983  -14.2240   20.2833 N   0  0  0  0  0  0
  -26.2779  -12.9600   20.3203 N   0  0  0  0  0  0
  -25.9360  -11.6675   20.5682 N   0  0  0  0  0  0
  -22.0389  -12.8157   22.0470 N   0  0  0  0  0  0
  -25.3912  -15.2014   20.4223 N   0  0  0  0  0  0
  -31.5327  -15.5685   20.1755 O   0  0  0  0  0  0
  -21.6646   -6.8889   21.4243 O   0  0  0  0  0  0
  -22.3412  -14.5462   20.6741 O   0  0  0  0  0  0
  -24.6838  -31.8010   23.1529 C   0  0  0  0  0  0
  -25.9421  -32.4474   23.8073 C   0  0  1  0  0  0
  -27.2252  -26.7106   20.2133 C   0  0  0  0  0  0
  -25.5998  -33.8299   24.1954 N   0  0  0  0  0  0
  -23.5093  -30.4040   21.5072 C   0  0  2  0  0  0
  -24.9662  -28.7469   20.1199 C   0  0  0  0  0  0
  -22.7764  -29.4325   22.4719 C   0  0  0  0  0  0
  -18.0341  -28.1421   22.8455 C   0  0  0  0  0  0
  -24.1494  -36.7154   23.2652 C   0  0  0  0  0  0
  -26.0904  -30.5360   21.4171 C   0  0  0  0  0  0
  -26.1564  -29.1023   20.7662 C   0  0  0  0  0  0
  -27.2729  -28.1129   20.7789 C   0  0  0  0  0  0
  -26.0014  -26.5641   19.5117 C   0  0  0  0  0  0
  -24.9275  -27.5030   19.4685 C   0  0  0  0  0  0
  -23.7628  -29.7019   20.1427 C   0  0  0  0  0  0
  -25.4144  -36.2900   24.0283 C   0  0  1  0  0  0
  -20.5975  -28.3783   23.1141 C   0  0  2  0  0  0
  -20.6806  -26.9442   22.5404 C   0  0  0  0  0  0
  -19.5781  -26.6368   21.5218 C   0  0  0  0  0  0
  -18.1964  -26.7949   22.1621 C   0  0  0  0  0  0
  -19.1606  -28.8927   23.2778 C   0  0  0  0  0  0
  -18.9511  -30.1510   23.8822 C   0  0  0  0  0  0
  -17.6501  -30.6604   24.0548 C   0  0  0  0  0  0
  -25.9126  -34.9290   23.4956 C   0  0  0  0  0  0
  -16.5390  -29.9084   23.6351 C   0  0  0  0  0  0
  -16.7321  -28.6507   23.0367 C   0  0  0  0  0  0
  -26.4591  -31.6509   25.0697 C   0  0  0  0  0  0
  -25.3657  -31.3836   26.1314 C   0  0  0  0  0  0
  -27.0526  -30.2845   24.6607 C   0  0  0  0  0  0
  -27.6036  -32.4375   25.7517 C   0  0  0  0  0  0
  -27.5565  -37.1734   24.8461 C   0  0  0  0  0  0
  -21.4413  -29.3032   22.3461 N   0  0  0  0  0  0
  -26.4268  -37.3662   23.9409 N   0  0  0  0  0  0
  -24.7846  -30.9462   22.0780 N   0  0  0  0  0  0
  -23.4210  -28.7927   23.3062 O   0  0  0  0  0  0
  -28.1827  -25.4884   20.2666 O   0  0  0  0  0  0
  -26.5765  -34.8866   22.4573 O   0  0  0  0  0  0
  -23.5858  -32.1082   23.6485 O   0  0  0  0  0  0
  -29.6324  -19.7191   21.2645 C   0  0  0  0  0  0
  -29.2901  -21.2193   21.2499 C   0  0  0  0  0  0
  -28.6006  -22.0527   20.2168 C   0  0  0  0  0  0
  -28.3521  -20.9598   19.2205 C   0  0  0  0  0  0
  -29.3745  -18.6237   20.2848 C   0  0  0  0  0  0
  -28.6785  -19.4529   19.2639 C   0  0  0  0  0  0
  -29.6596  -21.9795   22.5097 C   0  0  0  0  0  0
  -26.0827  -21.3170   18.1134 C   0  0  0  0  0  0
  -27.6073  -21.4467   17.9788 C   0  0  0  0  0  0
  -27.8442  -23.7724   20.2466 C   0  0  0  0  0  0
  -29.4636  -16.9040   20.3675 N   0  0  0  0  0  0
  -28.1165  -18.4819   17.9428 Cl  0  0  0  0  0  0
  -31.4275  -13.3148   19.1775 H   0  0  0  0  0  0
  -30.5873  -12.1976   20.2014 H   0  0  0  0  0  0
  -30.0000  -11.8066   17.7858 H   0  0  0  0  0  0
  -29.5263  -13.4778   17.6103 H   0  0  0  0  0  0
  -28.1328  -11.2987   19.1797 H   0  0  0  0  0  0
  -27.4539  -12.2640   17.8922 H   0  0  0  0  0  0
  -27.4681  -14.2337   19.2559 H   0  0  0  0  0  0
  -28.8673  -12.7156   21.5072 H   0  0  0  0  0  0
  -28.1942  -14.3218   21.6421 H   0  0  0  0  0  0
  -25.2790   -9.5678   22.4760 H   0  0  0  0  0  0
  -24.0014   -7.4637   22.7479 H   0  0  0  0  0  0
  -21.0861   -8.8787   19.8957 H   0  0  0  0  0  0
  -22.3734  -10.9674   19.6164 H   0  0  0  0  0  0
  -21.2014   -7.6153   23.9718 H   0  0  0  0  0  0
  -21.1485   -6.0524   25.9077 H   0  0  0  0  0  0
  -22.0593   -2.7612   23.2838 H   0  0  0  0  0  0
  -22.4026  -11.9844   22.4890 H   0  0  0  0  0  0
  -21.0994  -13.1165   22.2649 H   0  0  0  0  0  0
  -24.6126  -15.8424   20.5305 H   0  0  0  0  0  0
  -26.2179  -15.6435   20.0450 H   0  0  0  0  0  0
  -26.7504  -32.4946   23.0785 H   0  0  0  0  0  0
  -25.0052  -33.9339   25.0045 H   0  0  0  0  0  0
  -22.8347  -31.2419   21.3183 H   0  0  0  0  0  0
  -23.3777  -35.9462   23.3263 H   0  0  0  0  0  0
  -24.3560  -36.8870   22.2077 H   0  0  0  0  0  0
  -23.7231  -37.6311   23.6763 H   0  0  0  0  0  0
  -26.2953  -31.2623   20.6296 H   0  0  0  0  0  0
  -26.9402  -30.6008   22.0841 H   0  0  0  0  0  0
  -28.1695  -28.3923   21.3140 H   0  0  0  0  0  0
  -25.8325  -25.6250   19.0050 H   0  0  0  0  0  0
  -24.0304  -27.2223   18.9340 H   0  0  0  0  0  0
  -23.9381  -30.4622   19.3808 H   0  0  0  0  0  0
  -22.8673  -29.1691   19.8181 H   0  0  0  0  0  0
  -25.1353  -36.1661   25.0772 H   0  0  0  0  0  0
  -21.0060  -28.3411   24.1266 H   0  0  0  0  0  0
  -20.5671  -26.2410   23.3669 H   0  0  0  0  0  0
  -21.6668  -26.7385   22.1222 H   0  0  0  0  0  0
  -19.6936  -25.6259   21.1298 H   0  0  0  0  0  0
  -19.6720  -27.3136   20.6714 H   0  0  0  0  0  0
  -17.4234  -26.6693   21.4023 H   0  0  0  0  0  0
  -18.0349  -26.0110   22.9034 H   0  0  0  0  0  0
  -19.7987  -30.7346   24.2158 H   0  0  0  0  0  0
  -17.5052  -31.6278   24.5164 H   0  0  0  0  0  0
  -15.5387  -30.2959   23.7721 H   0  0  0  0  0  0
  -15.8723  -28.0799   22.7123 H   0  0  0  0  0  0
  -24.5850  -30.7178   25.7613 H   0  0  0  0  0  0
  -24.8839  -32.3066   26.4551 H   0  0  0  0  0  0
  -25.7829  -30.9115   27.0218 H   0  0  0  0  0  0
  -26.3245  -29.6457   24.1598 H   0  0  0  0  0  0
  -27.3940  -29.7297   25.5356 H   0  0  0  0  0  0
  -27.9230  -30.3962   24.0142 H   0  0  0  0  0  0
  -27.2563  -33.3734   26.1906 H   0  0  0  0  0  0
  -28.3943  -32.6851   25.0423 H   0  0  0  0  0  0
  -28.0602  -31.8640   26.5593 H   0  0  0  0  0  0
  -28.2545  -38.0064   24.7525 H   0  0  0  0  0  0
  -28.1099  -36.2590   24.6268 H   0  0  0  0  0  0
  -27.2284  -37.1346   25.8863 H   0  0  0  0  0  0
  -20.9720  -29.8684   21.6522 H   0  0  0  0  0  0
  -26.0096  -38.2709   24.1429 H   0  0  0  0  0  0
  -30.0988  -19.3685   22.1739 H   0  0  0  0  0  0
  -30.0968  -21.3315   23.2697 H   0  0  0  0  0  0
  -28.7769  -22.4495   22.9440 H   0  0  0  0  0  0
  -30.3840  -22.7615   22.2800 H   0  0  0  0  0  0
  -25.5808  -21.7038   17.2263 H   0  0  0  0  0  0
  -25.7070  -21.8714   18.9733 H   0  0  0  0  0  0
  -25.7817  -20.2763   18.2347 H   0  0  0  0  0  0
  -27.9523  -20.9230   17.0880 H   0  0  0  0  0  0
  -27.8723  -22.4838   17.7750 H   0  0  0  0  0  0
  -27.2191  -23.6881   21.1355 H   0  0  0  0  0  0
  -27.1163  -23.7232   19.4411 H   0  0  0  0  0  0
  -28.5133  -16.5655   20.3639 H   0  0  0  0  0  0
  1 25  1  0  0  0
  1 30  2  0  0  0
  1 81  1  0  0  0
  2  3  1  0  0  0
  2 25  1  0  0  0
  2 83  1  0  0  0
  2 84  1  0  0  0
  3  4  1  0  0  0
  3 85  1  0  0  0
  3 86  1  0  0  0
  4  5  1  0  0  0
  4 87  1  0  0  0
  4 88  1  0  0  0
  5  6  1  0  0  0
  5 26  1  0  0  0
  5 89  1  0  0  0
  6 25  1  0  0  0
  6 90  1  0  0  0
  6 91  1  0  0  0
  7  8  2  0  0  0
  7 26  1  0  0  0
  7 29  1  0  0  0
  8  9  1  0  0  0
  8 22  1  0  0  0
  9 10  1  0  0  0
  9 27  2  0  0  0
 10 11  2  0  0  0
 10 15  1  0  0  0
 11 12  1  0  0  0
 11 92  1  0  0  0
 12 13  2  0  0  0
 12 93  1  0  0  0
 13 14  1  0  0  0
 13 31  1  0  0  0
 14 15  2  0  0  0
 14 94  1  0  0  0
 15 95  1  0  0  0
 16 17  2  0  0  0
 16 21  1  0  0  0
 16 31  1  0  0  0
 17 18  1  0  0  0
 17 96  1  0  0  0
 18 19  2  0  0  0
 18 97  1  0  0  0
 19 20  1  0  0  0
 19 24  1  0  0  0
 20 21  2  0  0  0
 20 98  1  0  0  0
 21 23  1  0  0  0
 22 28  1  0  0  0
 22 32  2  0  0  0
 26 27  1  0  0  0
 28 99  1  0  0  0
 28100  1  0  0  0
 29101  1  0  0  0
 29102  1  0  0  0
 33 34  1  0  0  0
 33 66  1  0  0  0
 33 70  2  0  0  0
 34 36  1  0  0  0
 34 59  1  0  0  0
 34103  1  0  0  0
 35 44  2  0  0  0
 35 45  1  0  0  0
 35 68  1  0  0  0
 36 56  1  0  0  0
 36104  1  0  0  0
 37 39  1  0  0  0
 37 47  1  0  0  0
 37 66  1  0  0  0
 37105  1  0  0  0
 38 43  2  0  0  0
 38 46  1  0  0  0
 38 47  1  0  0  0
 39 64  1  0  0  0
 39 67  2  0  0  0
 40 52  1  0  0  0
 40 53  2  0  0  0
 40 58  1  0  0  0
 41106  1  0  0  0
 41107  1  0  0  0
 41108  1  0  0  0
 41 48  1  0  0  0
 42 43  1  0  0  0
 42 66  1  0  0  0
 42109  1  0  0  0
 42110  1  0  0  0
 43 44  1  0  0  0
 44111  1  0  0  0
 45 46  2  0  0  0
 45112  1  0  0  0
 46113  1  0  0  0
 47114  1  0  0  0
 47115  1  0  0  0
 48 56  1  0  0  0
 48 65  1  0  0  0
 48116  1  0  0  0
 49 50  1  0  0  0
 49 53  1  0  0  0
 49 64  1  0  0  0
 49117  1  0  0  0
 50 51  1  0  0  0
 50118  1  0  0  0
 50119  1  0  0  0
 51 52  1  0  0  0
 51120  1  0  0  0
 51121  1  0  0  0
 52122  1  0  0  0
 52123  1  0  0  0
 53 54  1  0  0  0
 54 55  2  0  0  0
 54124  1  0  0  0
 55 57  1  0  0  0
 55125  1  0  0  0
 56 69  2  0  0  0
 57 58  2  0  0  0
 57126  1  0  0  0
 58127  1  0  0  0
 59 60  1  0  0  0
 59 61  1  0  0  0
 59 62  1  0  0  0
 60128  1  0  0  0
 60129  1  0  0  0
 60130  1  0  0  0
 61131  1  0  0  0
 61132  1  0  0  0
 61133  1  0  0  0
 62134  1  0  0  0
 62135  1  0  0  0
 62136  1  0  0  0
 63 65  1  0  0  0
 63137  1  0  0  0
 63138  1  0  0  0
 63139  1  0  0  0
 64140  1  0  0  0
 65141  1  0  0  0
 68 80  1  0  0  0
 71 72  2  0  0  0
 71 75  1  0  0  0
 71142  1  0  0  0
 72 73  1  0  0  0
 72 77  1  0  0  0
 73 74  2  0  0  0
 73 80  1  0  0  0
 74 76  1  0  0  0
 74 79  1  0  0  0
 75 76  2  0  0  0
 75 81  1  0  0  0
 76 82  1  0  0  0
 77143  1  0  0  0
 77144  1  0  0  0
 77145  1  0  0  0
 78 79  1  0  0  0
 78146  1  0  0  0
 78147  1  0  0  0
 78148  1  0  0  0
 79149  1  0  0  0
 79150  1  0  0  0
 80151  1  0  0  0
 80152  1  0  0  0
 81153  1  0  0  0
M  ISO  4   1 100  68 101  80 101  81 100
M  END
> <chiral flag>
0

> <version>
0

> <s_m_source_file>
/data/baiqing/PycharmProjects/Reinvent-master-3.2/result/LINK_invent/BTK/process_docking_weight1_custom_sum_contain_oxygen_bond_distance_aromatic_linkinvent_7_9_3/rearranged_h_0017.sdf

> <i_m_source_file_index>
77

> <r_mmod_Potential_Energy-OPLS-2005>
2276.7373046875

> <r_mmod_Stretch_Energy-OPLS-2005>
928.585205078125

> <r_mmod_Bend_Energy-OPLS-2005>
651.0263671875

> <r_mmod_Torsional_Energy-OPLS-2005>
261.810455322266

> <r_mmod_Improper_Torsional_Energy-OPLS-2005>
10.3021802902222

> <r_mmod_Van_der_Waal_Energy-OPLS-2005>
132.908126831055

> <r_mmod_Electrostatic_Energy-OPLS-2005>
-367.305847167969

> <r_mmod_Solvation_Energy-OPLS-2005>
-205.568817138672

> <b_mmod_Minimization_Converged-OPLS-2005>
0

> <r_mmod_RMS_Derivative-OPLS-2005>
0.555236220359802

$$$$
79
                    3D
 Structure written by MMmdl.
166174  0  0  1  0            999 V2000
  -30.6823  -14.4308   20.5937 C   0  0  0  0  0  0
  -30.4384  -12.2996   19.3682 C   0  0  0  0  0  0
  -29.4802  -12.5290   18.1789 C   0  0  0  0  0  0
  -28.0066  -12.3843   18.6046 C   0  0  0  0  0  0
  -27.6784  -13.1789   19.8931 C   0  0  2  0  0  0
  -28.7313  -12.8860   20.9841 C   0  0  0  0  0  0
  -25.2777  -13.8088   20.5756 C   0  0  0  0  0  0
  -24.1940  -13.0420   20.9221 C   0  0  0  0  0  0
  -24.6418  -11.6878   20.8727 C   0  0  0  0  0  0
  -23.9057  -10.4273   21.0397 C   0  0  0  0  0  0
  -24.3609   -9.4197   21.9175 C   0  0  0  0  0  0
  -23.6251   -8.2263   22.0763 C   0  0  0  0  0  0
  -22.4247   -8.0289   21.3543 C   0  0  0  0  0  0
  -21.9883   -9.0274   20.4658 C   0  0  0  0  0  0
  -22.7229  -10.2135   20.3056 C   0  0  0  0  0  0
  -21.6854   -6.0707   22.5257 C   0  0  0  0  0  0
  -21.4009   -6.5617   23.8184 C   0  0  0  0  0  0
  -21.3668   -5.6779   24.9170 C   0  0  0  0  0  0
  -21.6047   -4.3034   24.7238 C   0  0  0  0  0  0
  -21.8805   -3.8110   23.4363 C   0  0  0  0  0  0
  -21.9180   -4.6924   22.3409 C   0  0  0  0  0  0
  -22.7983  -13.5262   21.1851 C   0  0  0  0  0  0
  -22.1629   -4.2095   21.1000 F   0  0  0  0  0  0
  -21.5646   -3.4526   25.7768 F   0  0  0  0  0  0
  -30.0625  -13.2281   20.4444 N   0  0  0  0  0  0
  -26.3150  -12.9153   20.3470 N   0  0  0  0  0  0
  -25.9332  -11.6354   20.5797 N   0  0  0  0  0  0
  -22.0592  -12.8273   22.0411 N   0  0  0  0  0  0
  -25.4644  -15.1764   20.4197 N   0  0  0  0  0  0
  -31.7357  -14.7337   20.0227 O   0  0  0  0  0  0
  -21.6628   -6.8874   21.4217 O   0  0  0  0  0  0
  -22.3726  -14.5590   20.6766 O   0  0  0  0  0  0
  -24.6149  -31.8709   23.2087 C   0  0  0  0  0  0
  -25.9030  -32.4825   23.8406 C   0  0  1  0  0  0
  -27.2440  -27.4587   20.0860 C   0  0  0  0  0  0
  -25.5895  -33.8605   24.2343 N   0  0  0  0  0  0
  -23.4057  -30.4870   21.5495 C   0  0  2  0  0  0
  -24.8525  -28.9599   20.1128 C   0  0  0  0  0  0
  -22.7407  -29.4674   22.5021 C   0  0  0  0  0  0
  -18.0321  -28.1420   22.8388 C   0  0  0  0  0  0
  -24.1482  -36.7304   23.2649 C   0  0  0  0  0  0
  -25.9282  -30.8457   21.3522 C   0  0  0  0  0  0
  -26.0099  -29.4796   20.7035 C   0  0  0  0  0  0
  -27.2101  -28.7347   20.6862 C   0  0  0  0  0  0
  -26.0720  -26.9585   19.4727 C   0  0  0  0  0  0
  -24.8790  -27.7031   19.4872 C   0  0  0  0  0  0
  -23.6053  -29.8081   20.1680 C   0  0  0  0  0  0
  -25.4101  -36.3100   24.0354 C   0  0  1  0  0  0
  -20.5887  -28.3681   23.1369 C   0  0  2  0  0  0
  -20.6781  -26.9361   22.5691 C   0  0  0  0  0  0
  -19.5912  -26.6296   21.5315 C   0  0  0  0  0  0
  -18.2008  -26.7992   22.1470 C   0  0  0  0  0  0
  -19.1534  -28.8874   23.2897 C   0  0  0  0  0  0
  -18.9409  -30.1464   23.8920 C   0  0  0  0  0  0
  -17.6398  -30.6565   24.0551 C   0  0  0  0  0  0
  -25.9020  -34.9457   23.5154 C   0  0  0  0  0  0
  -16.5332  -29.9018   23.6333 C   0  0  0  0  0  0
  -16.7293  -28.6493   23.0272 C   0  0  0  0  0  0
  -26.4471  -31.6599   25.0726 C   0  0  0  0  0  0
  -25.3734  -31.3662   26.1465 C   0  0  0  0  0  0
  -27.0307  -30.3089   24.6048 C   0  0  0  0  0  0
  -27.6097  -32.4240   25.7435 C   0  0  0  0  0  0
  -27.5579  -37.1817   24.8481 C   0  0  0  0  0  0
  -21.4179  -29.2956   22.3692 N   0  0  0  0  0  0
  -26.4292  -37.3798   23.9424 N   0  0  0  0  0  0
  -24.6672  -31.0813   22.0948 N   0  0  0  0  0  0
  -23.4168  -28.8305   23.3140 O   0  0  0  0  0  0
  -28.4016  -26.7143   20.1096 O   0  0  0  0  0  0
  -26.5594  -34.8892   22.4719 O   0  0  0  0  0  0
  -23.5319  -32.1425   23.7489 O   0  0  0  0  0  0
  -28.9784  -18.5616   22.6673 C   0  0  0  0  0  0
  -29.6093  -17.3111   22.5625 C   0  0  0  0  0  0
  -28.3433  -19.1489   21.5565 C   0  0  0  0  0  0
  -29.6517  -16.6131   21.3433 C   0  0  0  0  0  0
  -28.4535  -18.5071   20.2962 C   0  0  0  0  0  0
  -29.0964  -17.2389   20.1855 C   0  0  0  0  0  0
  -27.3459  -20.2142   21.8274 C   0  0  0  0  0  0
  -27.4156  -21.5274   21.4719 C   0  0  0  0  0  0
  -26.1491  -19.6278   22.5682 C   0  0  0  0  0  0
  -25.1772  -22.4719   20.6526 C   0  0  0  0  0  0
  -26.2642  -22.5033   21.7448 C   0  0  0  0  0  0
  -28.5950  -22.1781   20.7522 C   0  0  0  0  0  0
  -29.3199  -23.2855   21.5595 C   0  0  0  0  0  0
  -29.5058  -24.5925   20.7529 C   0  0  0  0  0  0
  -28.2343  -25.4602   20.7734 C   0  0  0  0  0  0
  -30.0699  -15.2495   21.4591 N   0  0  0  0  0  0
  -27.6994  -19.2193   18.9057 Cl  0  0  0  0  0  0
  -29.0496  -16.4314   18.6505 Cl  0  0  0  0  0  0
  -31.4743  -12.4256   19.0477 H   0  0  0  0  0  0
  -30.3631  -11.2696   19.7167 H   0  0  0  0  0  0
  -29.7048  -11.8203   17.3795 H   0  0  0  0  0  0
  -29.6297  -13.5277   17.7680 H   0  0  0  0  0  0
  -27.8028  -11.3237   18.7493 H   0  0  0  0  0  0
  -27.3485  -12.7027   17.7932 H   0  0  0  0  0  0
  -27.7386  -14.2343   19.6458 H   0  0  0  0  0  0
  -28.7188  -11.8280   21.2510 H   0  0  0  0  0  0
  -28.4901  -13.4080   21.9072 H   0  0  0  0  0  0
  -25.2770   -9.5628   22.4746 H   0  0  0  0  0  0
  -23.9917   -7.4660   22.7499 H   0  0  0  0  0  0
  -21.0811   -8.8810   19.8977 H   0  0  0  0  0  0
  -22.3698  -10.9680   19.6166 H   0  0  0  0  0  0
  -21.1997   -7.6125   23.9675 H   0  0  0  0  0  0
  -21.1511   -6.0538   25.9077 H   0  0  0  0  0  0
  -22.0581   -2.7568   23.2903 H   0  0  0  0  0  0
  -22.4121  -11.9913   22.4779 H   0  0  0  0  0  0
  -21.1256  -13.1313   22.2677 H   0  0  0  0  0  0
  -24.7235  -15.8437   20.5933 H   0  0  0  0  0  0
  -26.3280  -15.6015   20.1055 H   0  0  0  0  0  0
  -26.7088  -32.5570   23.1152 H   0  0  0  0  0  0
  -25.0032  -33.9804   25.0458 H   0  0  0  0  0  0
  -22.6977  -31.3062   21.4086 H   0  0  0  0  0  0
  -23.3737  -35.9649   23.3314 H   0  0  0  0  0  0
  -24.3568  -36.8898   22.2070 H   0  0  0  0  0  0
  -23.7238  -37.6514   23.6630 H   0  0  0  0  0  0
  -26.0306  -31.6035   20.5749 H   0  0  0  0  0  0
  -26.8218  -30.9144   21.9573 H   0  0  0  0  0  0
  -28.1089  -29.1339   21.1352 H   0  0  0  0  0  0
  -26.0712  -25.9985   18.9781 H   0  0  0  0  0  0
  -23.9932  -27.3081   19.0089 H   0  0  0  0  0  0
  -23.6869  -30.5743   19.3973 H   0  0  0  0  0  0
  -22.7374  -29.2082   19.8902 H   0  0  0  0  0  0
  -25.1267  -36.1992   25.0859 H   0  0  0  0  0  0
  -20.9890  -28.3399   24.1541 H   0  0  0  0  0  0
  -20.5461  -26.2323   23.3932 H   0  0  0  0  0  0
  -21.6747  -26.7284   22.1740 H   0  0  0  0  0  0
  -19.7110  -25.6115   21.1498 H   0  0  0  0  0  0
  -19.7076  -27.3013   20.6810 H   0  0  0  0  0  0
  -17.4448  -26.6926   21.3650 H   0  0  0  0  0  0
  -18.0121  -26.0085   22.8746 H   0  0  0  0  0  0
  -19.7872  -30.7250   24.2312 H   0  0  0  0  0  0
  -17.4883  -31.6298   24.5086 H   0  0  0  0  0  0
  -15.5299  -30.2846   23.7594 H   0  0  0  0  0  0
  -15.8711  -28.0827   22.6921 H   0  0  0  0  0  0
  -24.5836  -30.7136   25.7736 H   0  0  0  0  0  0
  -24.8995  -32.2808   26.5052 H   0  0  0  0  0  0
  -25.8054  -30.8651   27.0148 H   0  0  0  0  0  0
  -26.2850  -29.6835   24.1148 H   0  0  0  0  0  0
  -27.4222  -29.7345   25.4460 H   0  0  0  0  0  0
  -27.8589  -30.4488   23.9091 H   0  0  0  0  0  0
  -27.2828  -33.3539   26.2095 H   0  0  0  0  0  0
  -28.3846  -32.6803   25.0191 H   0  0  0  0  0  0
  -28.0857  -31.8295   26.5256 H   0  0  0  0  0  0
  -28.2625  -38.0091   24.7504 H   0  0  0  0  0  0
  -28.1046  -36.2630   24.6296 H   0  0  0  0  0  0
  -27.2318  -37.1458   25.8895 H   0  0  0  0  0  0
  -20.9288  -29.8513   21.6827 H   0  0  0  0  0  0
  -26.0175  -38.2883   24.1393 H   0  0  0  0  0  0
  -28.8871  -19.0182   23.6405 H   0  0  0  0  0  0
  -30.0040  -16.8472   23.4530 H   0  0  0  0  0  0
  -25.7558  -18.7765   22.0138 H   0  0  0  0  0  0
  -25.3184  -20.3077   22.7289 H   0  0  0  0  0  0
  -26.4668  -19.2616   23.5473 H   0  0  0  0  0  0
  -24.3313  -23.0930   20.9475 H   0  0  0  0  0  0
  -24.7905  -21.4647   20.4922 H   0  0  0  0  0  0
  -25.5416  -22.8483   19.6955 H   0  0  0  0  0  0
  -26.6352  -23.5175   21.8491 H   0  0  0  0  0  0
  -25.8238  -22.3105   22.7206 H   0  0  0  0  0  0
  -28.2027  -22.6020   19.8284 H   0  0  0  0  0  0
  -29.3237  -21.4317   20.4374 H   0  0  0  0  0  0
  -30.2917  -22.9105   21.8833 H   0  0  0  0  0  0
  -28.7958  -23.5111   22.4894 H   0  0  0  0  0  0
  -29.7850  -24.3553   19.7257 H   0  0  0  0  0  0
  -30.3475  -25.1547   21.1618 H   0  0  0  0  0  0
  -27.9369  -25.6495   21.8091 H   0  0  0  0  0  0
  -27.4375  -24.8810   20.3118 H   0  0  0  0  0  0
  -29.5536  -14.7441   22.1638 H   0  0  0  0  0  0
  1 25  1  0  0  0
  1 30  2  0  0  0
  1 86  1  0  0  0
  2  3  1  0  0  0
  2 25  1  0  0  0
  2 89  1  0  0  0
  2 90  1  0  0  0
  3  4  1  0  0  0
  3 91  1  0  0  0
  3 92  1  0  0  0
  4  5  1  0  0  0
  4 93  1  0  0  0
  4 94  1  0  0  0
  5  6  1  0  0  0
  5 26  1  0  0  0
  5 95  1  0  0  0
  6 25  1  0  0  0
  6 96  1  0  0  0
  6 97  1  0  0  0
  7  8  2  0  0  0
  7 26  1  0  0  0
  7 29  1  0  0  0
  8  9  1  0  0  0
  8 22  1  0  0  0
  9 10  1  0  0  0
  9 27  2  0  0  0
 10 11  2  0  0  0
 10 15  1  0  0  0
 11 12  1  0  0  0
 11 98  1  0  0  0
 12 13  2  0  0  0
 12 99  1  0  0  0
 13 14  1  0  0  0
 13 31  1  0  0  0
 14 15  2  0  0  0
 14100  1  0  0  0
 15101  1  0  0  0
 16 17  2  0  0  0
 16 21  1  0  0  0
 16 31  1  0  0  0
 17 18  1  0  0  0
 17102  1  0  0  0
 18 19  2  0  0  0
 18103  1  0  0  0
 19 20  1  0  0  0
 19 24  1  0  0  0
 20 21  2  0  0  0
 20104  1  0  0  0
 21 23  1  0  0  0
 22 28  1  0  0  0
 22 32  2  0  0  0
 26 27  1  0  0  0
 28105  1  0  0  0
 28106  1  0  0  0
 29107  1  0  0  0
 29108  1  0  0  0
 33 34  1  0  0  0
 33 66  1  0  0  0
 33 70  2  0  0  0
 34 36  1  0  0  0
 34 59  1  0  0  0
 34109  1  0  0  0
 35 44  2  0  0  0
 35 45  1  0  0  0
 35 68  1  0  0  0
 36 56  1  0  0  0
 36110  1  0  0  0
 37 39  1  0  0  0
 37 47  1  0  0  0
 37 66  1  0  0  0
 37111  1  0  0  0
 38 43  2  0  0  0
 38 46  1  0  0  0
 38 47  1  0  0  0
 39 64  1  0  0  0
 39 67  2  0  0  0
 40 52  1  0  0  0
 40 53  2  0  0  0
 40 58  1  0  0  0
 41112  1  0  0  0
 41113  1  0  0  0
 41114  1  0  0  0
 41 48  1  0  0  0
 42 43  1  0  0  0
 42 66  1  0  0  0
 42115  1  0  0  0
 42116  1  0  0  0
 43 44  1  0  0  0
 44117  1  0  0  0
 45 46  2  0  0  0
 45118  1  0  0  0
 46119  1  0  0  0
 47120  1  0  0  0
 47121  1  0  0  0
 48 56  1  0  0  0
 48 65  1  0  0  0
 48122  1  0  0  0
 49 50  1  0  0  0
 49 53  1  0  0  0
 49 64  1  0  0  0
 49123  1  0  0  0
 50 51  1  0  0  0
 50124  1  0  0  0
 50125  1  0  0  0
 51 52  1  0  0  0
 51126  1  0  0  0
 51127  1  0  0  0
 52128  1  0  0  0
 52129  1  0  0  0
 53 54  1  0  0  0
 54 55  2  0  0  0
 54130  1  0  0  0
 55 57  1  0  0  0
 55131  1  0  0  0
 56 69  2  0  0  0
 57 58  2  0  0  0
 57132  1  0  0  0
 58133  1  0  0  0
 59 60  1  0  0  0
 59 61  1  0  0  0
 59 62  1  0  0  0
 60134  1  0  0  0
 60135  1  0  0  0
 60136  1  0  0  0
 61137  1  0  0  0
 61138  1  0  0  0
 61139  1  0  0  0
 62140  1  0  0  0
 62141  1  0  0  0
 62142  1  0  0  0
 63 65  1  0  0  0
 63143  1  0  0  0
 63144  1  0  0  0
 63145  1  0  0  0
 64146  1  0  0  0
 65147  1  0  0  0
 68 85  1  0  0  0
 71 72  2  0  0  0
 71 73  1  0  0  0
 71148  1  0  0  0
 72 74  1  0  0  0
 72149  1  0  0  0
 73 75  2  0  0  0
 73 77  1  0  0  0
 74 76  2  0  0  0
 74 86  1  0  0  0
 75 76  1  0  0  0
 75 87  1  0  0  0
 76 88  1  0  0  0
 77 78  2  0  0  0
 77 79  1  0  0  0
 78 81  1  0  0  0
 78 82  1  0  0  0
 79150  1  0  0  0
 79151  1  0  0  0
 79152  1  0  0  0
 80 81  1  0  0  0
 80153  1  0  0  0
 80154  1  0  0  0
 80155  1  0  0  0
 81156  1  0  0  0
 81157  1  0  0  0
 82 83  1  0  0  0
 82158  1  0  0  0
 82159  1  0  0  0
 83 84  1  0  0  0
 83160  1  0  0  0
 83161  1  0  0  0
 84 85  1  0  0  0
 84162  1  0  0  0
 84163  1  0  0  0
 85164  1  0  0  0
 85165  1  0  0  0
 86166  1  0  0  0
M  ISO  4   1 100  68 101  85 101  86 100
M  END
> <chiral flag>
0

> <version>
0

> <s_m_source_file>
/data/baiqing/PycharmProjects/Reinvent-master-3.2/result/LINK_invent/BTK/process_docking_weight1_custom_sum_contain_oxygen_bond_distance_aromatic_linkinvent_7_9_3/rearranged_h_0017.sdf

> <i_m_source_file_index>
78

> <r_mmod_Potential_Energy-OPLS-2005>
81.2520904541016

> <r_mmod_Stretch_Energy-OPLS-2005>
39.4063873291016

> <r_mmod_Bend_Energy-OPLS-2005>
116.71484375

> <r_mmod_Torsional_Energy-OPLS-2005>
311.023315429688

> <r_mmod_Improper_Torsional_Energy-OPLS-2005>
7.69874620437622

> <r_mmod_Van_der_Waal_Energy-OPLS-2005>
149.94352722168

> <r_mmod_Electrostatic_Energy-OPLS-2005>
-357.692504882812

> <r_mmod_Solvation_Energy-OPLS-2005>
-197.743698120117

> <b_mmod_Minimization_Converged-OPLS-2005>
0

> <r_mmod_RMS_Derivative-OPLS-2005>
7.62430858612061

$$$$
80
                    3D
 Structure written by MMmdl.
150158  0  0  1  0            999 V2000
  -30.2473  -15.7740   20.3163 C   0  0  0  0  0  0
  -30.4158  -13.1861   19.5381 C   0  0  0  0  0  0
  -29.5553  -12.6880   18.3373 C   0  0  0  0  0  0
  -28.1399  -12.3019   18.7891 C   0  0  0  0  0  0
  -27.5912  -13.3211   19.8104 C   0  0  2  0  0  0
  -28.5996  -13.7129   20.9194 C   0  0  0  0  0  0
  -25.2304  -13.8302   20.5820 C   0  0  0  0  0  0
  -24.1707  -13.0433   20.9304 C   0  0  0  0  0  0
  -24.6428  -11.6950   20.8768 C   0  0  0  0  0  0
  -23.9133  -10.4292   21.0396 C   0  0  0  0  0  0
  -24.3665   -9.4204   21.9180 C   0  0  0  0  0  0
  -23.6322   -8.2247   22.0752 C   0  0  0  0  0  0
  -22.4300   -8.0290   21.3545 C   0  0  0  0  0  0
  -21.9951   -9.0266   20.4643 C   0  0  0  0  0  0
  -22.7297  -10.2136   20.3049 C   0  0  0  0  0  0
  -21.6860   -6.0747   22.5280 C   0  0  0  0  0  0
  -21.4019   -6.5647   23.8214 C   0  0  0  0  0  0
  -21.3660   -5.6798   24.9175 C   0  0  0  0  0  0
  -21.6044   -4.3060   24.7224 C   0  0  0  0  0  0
  -21.8818   -3.8155   23.4344 C   0  0  0  0  0  0
  -21.9194   -4.6973   22.3401 C   0  0  0  0  0  0
  -22.7715  -13.5152   21.1933 C   0  0  0  0  0  0
  -22.1662   -4.2158   21.0980 F   0  0  0  0  0  0
  -21.5626   -3.4542   25.7736 F   0  0  0  0  0  0
  -29.7486  -14.3806   20.2518 N   0  0  0  0  0  0
  -26.2767  -12.9657   20.3255 N   0  0  0  0  0  0
  -25.9379  -11.6713   20.5700 N   0  0  0  0  0  0
  -22.0387  -12.8121   22.0485 N   0  0  0  0  0  0
  -25.3874  -15.2045   20.4264 N   0  0  0  0  0  0
  -31.4875  -15.6925   20.1848 O   0  0  0  0  0  0
  -21.6651   -6.8895   21.4244 O   0  0  0  0  0  0
  -22.3381  -14.5447   20.6768 O   0  0  0  0  0  0
  -24.6943  -31.7880   23.1425 C   0  0  0  0  0  0
  -25.9474  -32.4409   23.8011 C   0  0  1  0  0  0
  -27.2318  -26.5965   20.2261 C   0  0  0  0  0  0
  -25.6007  -33.8239   24.1892 N   0  0  0  0  0  0
  -23.5252  -30.3850   21.4991 C   0  0  2  0  0  0
  -24.9842  -28.7028   20.1222 C   0  0  0  0  0  0
  -22.7813  -29.4253   22.4682 C   0  0  0  0  0  0
  -18.0346  -28.1432   22.8452 C   0  0  0  0  0  0
  -24.1494  -36.7126   23.2656 C   0  0  0  0  0  0
  -26.1106  -30.4860   21.4227 C   0  0  0  0  0  0
  -26.1757  -29.0384   20.7757 C   0  0  0  0  0  0
  -27.2800  -28.0172   20.7902 C   0  0  0  0  0  0
  -26.0053  -26.4971   19.5137 C   0  0  0  0  0  0
  -24.9444  -27.4594   19.4663 C   0  0  0  0  0  0
  -23.7855  -29.6713   20.1395 C   0  0  0  0  0  0
  -25.4150  -36.2863   24.0274 C   0  0  1  0  0  0
  -20.5986  -28.3798   23.1121 C   0  0  2  0  0  0
  -20.6804  -26.9445   22.5405 C   0  0  0  0  0  0
  -19.5782  -26.6372   21.5218 C   0  0  0  0  0  0
  -18.1966  -26.7956   22.1621 C   0  0  0  0  0  0
  -19.1614  -28.8943   23.2763 C   0  0  0  0  0  0
  -18.9517  -30.1522   23.8814 C   0  0  0  0  0  0
  -17.6506  -30.6611   24.0551 C   0  0  0  0  0  0
  -25.9134  -34.9254   23.4927 C   0  0  0  0  0  0
  -16.5396  -29.9091   23.6354 C   0  0  0  0  0  0
  -16.7324  -28.6514   23.0369 C   0  0  0  0  0  0
  -26.4615  -31.6488   25.0680 C   0  0  0  0  0  0
  -25.3651  -31.3841   26.1276 C   0  0  0  0  0  0
  -27.0565  -30.2816   24.6655 C   0  0  0  0  0  0
  -27.6041  -32.4372   25.7509 C   0  0  0  0  0  0
  -27.5555  -37.1728   24.8472 C   0  0  0  0  0  0
  -21.4451  -29.3022   22.3427 N   0  0  0  0  0  0
  -26.4270  -37.3632   23.9400 N   0  0  0  0  0  0
  -24.8013  -30.9219   22.0738 N   0  0  0  0  0  0
  -23.4204  -28.7871   23.3077 O   0  0  0  0  0  0
  -28.1825  -25.3297   20.2911 O   0  0  0  0  0  0
  -26.5786  -34.8853   22.4552 O   0  0  0  0  0  0
  -23.5937  -32.1004   23.6312 O   0  0  0  0  0  0
  -30.9009  -19.4494   20.3648 C   0  0  0  0  0  0
  -31.2639  -20.8437   20.3793 C   0  0  0  0  0  0
  -30.3640  -21.9840   20.3553 C   0  0  0  0  0  0
  -28.9439  -21.8808   20.2846 C   0  0  0  0  0  0
  -29.5895  -18.9261   20.3199 C   0  0  0  0  0  0
  -28.6522  -20.2671   20.2752 C   0  0  0  0  0  0
  -32.7661  -21.0981   20.4196 C   0  0  0  0  0  0
  -30.9229  -23.4055   20.4018 C   0  0  0  0  0  0
  -27.9639  -23.5315   20.1990 C   0  0  0  0  0  0
  -29.4675  -17.1638   20.3336 N   0  0  0  0  0  0
  -26.9698  -19.8930   20.1970 Cl  0  0  0  0  0  0
  -31.3957  -13.4725   19.1549 H   0  0  0  0  0  0
  -30.6162  -12.3706   20.2352 H   0  0  0  0  0  0
  -30.0374  -11.8430   17.8438 H   0  0  0  0  0  0
  -29.4915  -13.4828   17.5928 H   0  0  0  0  0  0
  -28.1931  -11.3166   19.2541 H   0  0  0  0  0  0
  -27.4711  -12.2053   17.9329 H   0  0  0  0  0  0
  -27.4343  -14.2230   19.2168 H   0  0  0  0  0  0
  -28.8940  -12.8540   21.5244 H   0  0  0  0  0  0
  -28.1400  -14.4252   21.6060 H   0  0  0  0  0  0
  -25.2802   -9.5674   22.4767 H   0  0  0  0  0  0
  -24.0020   -7.4638   22.7477 H   0  0  0  0  0  0
  -21.0880   -8.8800   19.8950 H   0  0  0  0  0  0
  -22.3760  -10.9681   19.6163 H   0  0  0  0  0  0
  -21.2016   -7.6156   23.9721 H   0  0  0  0  0  0
  -21.1481   -6.0527   25.9078 H   0  0  0  0  0  0
  -22.0595   -2.7616   23.2843 H   0  0  0  0  0  0
  -22.4038  -11.9799   22.4876 H   0  0  0  0  0  0
  -21.0991  -13.1105   22.2690 H   0  0  0  0  0  0
  -24.6139  -15.8505   20.5400 H   0  0  0  0  0  0
  -26.2259  -15.6489   20.0780 H   0  0  0  0  0  0
  -26.7569  -32.4860   23.0730 H   0  0  0  0  0  0
  -25.0057  -33.9255   24.9981 H   0  0  0  0  0  0
  -22.8570  -31.2253   21.2994 H   0  0  0  0  0  0
  -23.3770  -35.9441   23.3280 H   0  0  0  0  0  0
  -24.3545  -36.8830   22.2076 H   0  0  0  0  0  0
  -23.7245  -37.6290   23.6764 H   0  0  0  0  0  0
  -26.3235  -31.2029   20.6285 H   0  0  0  0  0  0
  -26.9577  -30.5593   22.0920 H   0  0  0  0  0  0
  -28.1752  -28.2850   21.3334 H   0  0  0  0  0  0
  -25.8202  -25.5624   19.0036 H   0  0  0  0  0  0
  -24.0486  -27.1916   18.9230 H   0  0  0  0  0  0
  -23.9702  -30.4262   19.3744 H   0  0  0  0  0  0
  -22.8882  -29.1432   19.8126 H   0  0  0  0  0  0
  -25.1366  -36.1613   25.0765 H   0  0  0  0  0  0
  -21.0067  -28.3436   24.1248 H   0  0  0  0  0  0
  -20.5657  -26.2425   23.3677 H   0  0  0  0  0  0
  -21.6665  -26.7369   22.1232 H   0  0  0  0  0  0
  -19.6931  -25.6259   21.1305 H   0  0  0  0  0  0
  -19.6727  -27.3133   20.6709 H   0  0  0  0  0  0
  -17.4234  -26.6698   21.4026 H   0  0  0  0  0  0
  -18.0353  -26.0120   22.9037 H   0  0  0  0  0  0
  -19.7992  -30.7361   24.2147 H   0  0  0  0  0  0
  -17.5055  -31.6281   24.5170 H   0  0  0  0  0  0
  -15.5391  -30.2966   23.7725 H   0  0  0  0  0  0
  -15.8725  -28.0805   22.7133 H   0  0  0  0  0  0
  -24.5861  -30.7165   25.7574 H   0  0  0  0  0  0
  -24.8816  -32.3077   26.4471 H   0  0  0  0  0  0
  -25.7801  -30.9155   27.0208 H   0  0  0  0  0  0
  -26.3306  -29.6401   24.1650 H   0  0  0  0  0  0
  -27.3953  -29.7303   25.5436 H   0  0  0  0  0  0
  -27.9298  -30.3918   24.0225 H   0  0  0  0  0  0
  -27.2564  -33.3747   26.1861 H   0  0  0  0  0  0
  -28.3970  -32.6817   25.0427 H   0  0  0  0  0  0
  -28.0582  -31.8658   26.5615 H   0  0  0  0  0  0
  -28.2563  -38.0029   24.7480 H   0  0  0  0  0  0
  -28.1059  -36.2548   24.6352 H   0  0  0  0  0  0
  -27.2259  -37.1428   25.8872 H   0  0  0  0  0  0
  -20.9781  -29.8661   21.6462 H   0  0  0  0  0  0
  -26.0090  -38.2681   24.1394 H   0  0  0  0  0  0
  -31.6969  -18.7190   20.3936 H   0  0  0  0  0  0
  -33.3464  -20.1772   20.3552 H   0  0  0  0  0  0
  -33.0496  -21.5908   21.3503 H   0  0  0  0  0  0
  -33.0760  -21.7230   19.5812 H   0  0  0  0  0  0
  -31.9934  -23.4774   20.5776 H   0  0  0  0  0  0
  -30.4509  -23.9680   21.2079 H   0  0  0  0  0  0
  -30.7148  -23.9222   19.4644 H   0  0  0  0  0  0
  -27.1875  -23.3631   20.9451 H   0  0  0  0  0  0
  -27.4349  -23.4198   19.2527 H   0  0  0  0  0  0
  -28.4891  -16.9163   20.3593 H   0  0  0  0  0  0
  1 25  1  0  0  0
  1 30  2  0  0  0
  1 80  1  0  0  0
  2  3  1  0  0  0
  2 25  1  0  0  0
  2 82  1  0  0  0
  2 83  1  0  0  0
  3  4  1  0  0  0
  3 84  1  0  0  0
  3 85  1  0  0  0
  4  5  1  0  0  0
  4 86  1  0  0  0
  4 87  1  0  0  0
  5  6  1  0  0  0
  5 26  1  0  0  0
  5 88  1  0  0  0
  6 25  1  0  0  0
  6 89  1  0  0  0
  6 90  1  0  0  0
  7  8  2  0  0  0
  7 26  1  0  0  0
  7 29  1  0  0  0
  8  9  1  0  0  0
  8 22  1  0  0  0
  9 10  1  0  0  0
  9 27  2  0  0  0
 10 11  2  0  0  0
 10 15  1  0  0  0
 11 12  1  0  0  0
 11 91  1  0  0  0
 12 13  2  0  0  0
 12 92  1  0  0  0
 13 14  1  0  0  0
 13 31  1  0  0  0
 14 15  2  0  0  0
 14 93  1  0  0  0
 15 94  1  0  0  0
 16 17  2  0  0  0
 16 21  1  0  0  0
 16 31  1  0  0  0
 17 18  1  0  0  0
 17 95  1  0  0  0
 18 19  2  0  0  0
 18 96  1  0  0  0
 19 20  1  0  0  0
 19 24  1  0  0  0
 20 21  2  0  0  0
 20 97  1  0  0  0
 21 23  1  0  0  0
 22 28  1  0  0  0
 22 32  2  0  0  0
 26 27  1  0  0  0
 28 98  1  0  0  0
 28 99  1  0  0  0
 29100  1  0  0  0
 29101  1  0  0  0
 33 34  1  0  0  0
 33 66  1  0  0  0
 33 70  2  0  0  0
 34 36  1  0  0  0
 34 59  1  0  0  0
 34102  1  0  0  0
 35 44  2  0  0  0
 35 45  1  0  0  0
 35 68  1  0  0  0
 36 56  1  0  0  0
 36103  1  0  0  0
 37 39  1  0  0  0
 37 47  1  0  0  0
 37 66  1  0  0  0
 37104  1  0  0  0
 38 43  2  0  0  0
 38 46  1  0  0  0
 38 47  1  0  0  0
 39 64  1  0  0  0
 39 67  2  0  0  0
 40 52  1  0  0  0
 40 53  2  0  0  0
 40 58  1  0  0  0
 41105  1  0  0  0
 41106  1  0  0  0
 41107  1  0  0  0
 41 48  1  0  0  0
 42 43  1  0  0  0
 42 66  1  0  0  0
 42108  1  0  0  0
 42109  1  0  0  0
 43 44  1  0  0  0
 44110  1  0  0  0
 45 46  2  0  0  0
 45111  1  0  0  0
 46112  1  0  0  0
 47113  1  0  0  0
 47114  1  0  0  0
 48 56  1  0  0  0
 48 65  1  0  0  0
 48115  1  0  0  0
 49 50  1  0  0  0
 49 53  1  0  0  0
 49 64  1  0  0  0
 49116  1  0  0  0
 50 51  1  0  0  0
 50117  1  0  0  0
 50118  1  0  0  0
 51 52  1  0  0  0
 51119  1  0  0  0
 51120  1  0  0  0
 52121  1  0  0  0
 52122  1  0  0  0
 53 54  1  0  0  0
 54 55  2  0  0  0
 54123  1  0  0  0
 55 57  1  0  0  0
 55124  1  0  0  0
 56 69  2  0  0  0
 57 58  2  0  0  0
 57125  1  0  0  0
 58126  1  0  0  0
 59 60  1  0  0  0
 59 61  1  0  0  0
 59 62  1  0  0  0
 60127  1  0  0  0
 60128  1  0  0  0
 60129  1  0  0  0
 61130  1  0  0  0
 61131  1  0  0  0
 61132  1  0  0  0
 62133  1  0  0  0
 62134  1  0  0  0
 62135  1  0  0  0
 63 65  1  0  0  0
 63136  1  0  0  0
 63137  1  0  0  0
 63138  1  0  0  0
 64139  1  0  0  0
 65140  1  0  0  0
 68 79  1  0  0  0
 71 72  2  0  0  0
 71 75  1  0  0  0
 71141  1  0  0  0
 72 73  1  0  0  0
 72 77  1  0  0  0
 73 74  2  0  0  0
 73 78  1  0  0  0
 74 76  1  0  0  0
 74 79  1  0  0  0
 75 76  2  0  0  0
 75 80  1  0  0  0
 76 81  1  0  0  0
 77142  1  0  0  0
 77143  1  0  0  0
 77144  1  0  0  0
 78145  1  0  0  0
 78146  1  0  0  0
 78147  1  0  0  0
 79148  1  0  0  0
 79149  1  0  0  0
 80150  1  0  0  0
M  ISO  4   1 100  68 101  79 101  80 100
M  END
> <chiral flag>
0

> <version>
0

> <s_m_source_file>
/data/baiqing/PycharmProjects/Reinvent-master-3.2/result/LINK_invent/BTK/process_docking_weight1_custom_sum_contain_oxygen_bond_distance_aromatic_linkinvent_7_9_3/rearranged_h_0017.sdf

> <i_m_source_file_index>
79

> <r_mmod_Potential_Energy-OPLS-2005>
2820.59448242188

> <r_mmod_Stretch_Energy-OPLS-2005>
1267.57104492188

> <r_mmod_Bend_Energy-OPLS-2005>
639.715881347656

> <r_mmod_Torsional_Energy-OPLS-2005>
223.121780395508

> <r_mmod_Improper_Torsional_Energy-OPLS-2005>
4.0295581817627

> <r_mmod_Van_der_Waal_Energy-OPLS-2005>
130.4892578125

> <r_mmod_Electrostatic_Energy-OPLS-2005>
-368.761657714844

> <r_mmod_Solvation_Energy-OPLS-2005>
-204.698760986328

> <b_mmod_Minimization_Converged-OPLS-2005>
0

> <r_mmod_RMS_Derivative-OPLS-2005>
0.427137464284897

$$$$
81
                    3D
 Structure written by MMmdl.
162170  0  0  1  0            999 V2000
  -30.2986  -15.5971   20.3303 C   0  0  0  0  0  0
  -30.4332  -13.0505   19.5372 C   0  0  0  0  0  0
  -29.5524  -12.6493   18.3192 C   0  0  0  0  0  0
  -28.1218  -12.3003   18.7595 C   0  0  0  0  0  0
  -27.5990  -13.3026   19.8134 C   0  0  2  0  0  0
  -28.6186  -13.6116   20.9344 C   0  0  0  0  0  0
  -25.2329  -13.8237   20.5791 C   0  0  0  0  0  0
  -24.1718  -13.0405   20.9305 C   0  0  0  0  0  0
  -24.6418  -11.6920   20.8772 C   0  0  0  0  0  0
  -23.9115  -10.4276   21.0404 C   0  0  0  0  0  0
  -24.3652   -9.4191   21.9186 C   0  0  0  0  0  0
  -23.6310   -8.2235   22.0756 C   0  0  0  0  0  0
  -22.4291   -8.0279   21.3545 C   0  0  0  0  0  0
  -21.9939   -9.0256   20.4644 C   0  0  0  0  0  0
  -22.7283  -10.2126   20.3052 C   0  0  0  0  0  0
  -21.6855   -6.0737   22.5280 C   0  0  0  0  0  0
  -21.4014   -6.5640   23.8214 C   0  0  0  0  0  0
  -21.3661   -5.6792   24.9176 C   0  0  0  0  0  0
  -21.6046   -4.3055   24.7225 C   0  0  0  0  0  0
  -21.8819   -3.8147   23.4345 C   0  0  0  0  0  0
  -21.9193   -4.6965   22.3402 C   0  0  0  0  0  0
  -22.7732  -13.5152   21.1930 C   0  0  0  0  0  0
  -22.1661   -4.2151   21.0980 F   0  0  0  0  0  0
  -21.5632   -3.4537   25.7737 F   0  0  0  0  0  0
  -29.8009  -14.2248   20.2859 N   0  0  0  0  0  0
  -26.2782  -12.9578   20.3216 N   0  0  0  0  0  0
  -25.9364  -11.6655   20.5695 N   0  0  0  0  0  0
  -22.0385  -12.8136   22.0477 N   0  0  0  0  0  0
  -25.3882  -15.1959   20.4199 N   0  0  0  0  0  0
  -31.5331  -15.5731   20.1629 O   0  0  0  0  0  0
  -21.6643   -6.8885   21.4244 O   0  0  0  0  0  0
  -22.3418  -14.5453   20.6761 O   0  0  0  0  0  0
  -24.6829  -31.8009   23.1527 C   0  0  0  0  0  0
  -25.9415  -32.4471   23.8068 C   0  0  1  0  0  0
  -27.2295  -26.7177   20.2090 C   0  0  0  0  0  0
  -25.5999  -33.8295   24.1957 N   0  0  0  0  0  0
  -23.5088  -30.4033   21.5061 C   0  0  2  0  0  0
  -24.9675  -28.7483   20.1162 C   0  0  0  0  0  0
  -22.7763  -29.4319   22.4711 C   0  0  0  0  0  0
  -18.0339  -28.1422   22.8458 C   0  0  0  0  0  0
  -24.1495  -36.7151   23.2655 C   0  0  0  0  0  0
  -26.0892  -30.5379   21.4160 C   0  0  0  0  0  0
  -26.1560  -29.1049   20.7645 C   0  0  0  0  0  0
  -27.2721  -28.1166   20.7807 C   0  0  0  0  0  0
  -26.0093  -26.5691   19.5017 C   0  0  0  0  0  0
  -24.9325  -27.5054   19.4612 C   0  0  0  0  0  0
  -23.7624  -29.7014   20.1408 C   0  0  0  0  0  0
  -25.4146  -36.2895   24.0282 C   0  0  1  0  0  0
  -20.5975  -28.3781   23.1142 C   0  0  2  0  0  0
  -20.6806  -26.9440   22.5404 C   0  0  0  0  0  0
  -19.5782  -26.6372   21.5217 C   0  0  0  0  0  0
  -18.1963  -26.7951   22.1619 C   0  0  0  0  0  0
  -19.1606  -28.8927   23.2781 C   0  0  0  0  0  0
  -18.9512  -30.1511   23.8825 C   0  0  0  0  0  0
  -17.6502  -30.6606   24.0551 C   0  0  0  0  0  0
  -25.9122  -34.9285   23.4953 C   0  0  0  0  0  0
  -16.5391  -29.9086   23.6354 C   0  0  0  0  0  0
  -16.7319  -28.6508   23.0371 C   0  0  0  0  0  0
  -26.4599  -31.6504   25.0686 C   0  0  0  0  0  0
  -25.3670  -31.3815   26.1305 C   0  0  0  0  0  0
  -27.0532  -30.2844   24.6580 C   0  0  0  0  0  0
  -27.6049  -32.4366   25.7503 C   0  0  0  0  0  0
  -27.5559  -37.1739   24.8471 C   0  0  0  0  0  0
  -21.4411  -29.3027   22.3461 N   0  0  0  0  0  0
  -26.4275  -37.3652   23.9400 N   0  0  0  0  0  0
  -24.7835  -30.9468   22.0774 N   0  0  0  0  0  0
  -23.4211  -28.7921   23.3052 O   0  0  0  0  0  0
  -28.1807  -25.4945   20.2968 O   0  0  0  0  0  0
  -26.5757  -34.8861   22.4567 O   0  0  0  0  0  0
  -23.5852  -32.1076   23.6489 O   0  0  0  0  0  0
  -27.7215  -20.8459   20.1898 C   0  0  0  0  0  0
  -30.1934  -19.8253   20.3685 C   0  0  0  0  0  0
  -28.5714  -22.0582   20.2397 C   0  0  0  0  0  0
  -28.0153  -19.3560   20.2274 C   0  0  0  0  0  0
  -29.9045  -21.3562   20.3292 C   0  0  0  0  0  0
  -29.3024  -18.6199   20.3221 C   0  0  0  0  0  0
  -26.5050  -18.0492   18.6738 C   0  0  0  0  0  0
  -32.4860  -21.6094   20.5067 C   0  0  0  0  0  0
  -30.9961  -23.2574   21.5957 C   0  0  0  0  0  0
  -31.1760  -23.1530   19.0815 C   0  0  0  0  0  0
  -26.7773  -18.4805   20.1211 C   0  0  0  0  0  0
  -27.8807  -23.7915   20.0569 C   0  0  0  0  0  0
  -31.1184  -22.3180   20.3774 C   0  0  0  0  0  0
  -29.4566  -16.9006   20.3717 N   0  0  0  0  0  0
  -31.4275  -13.3157   19.1757 H   0  0  0  0  0  0
  -30.5887  -12.1984   20.2011 H   0  0  0  0  0  0
  -29.9978  -11.8097   17.7839 H   0  0  0  0  0  0
  -29.5202  -13.4808   17.6135 H   0  0  0  0  0  0
  -28.1414  -11.2983   19.1898 H   0  0  0  0  0  0
  -27.4530  -12.2548   17.8990 H   0  0  0  0  0  0
  -27.4678  -14.2308   19.2557 H   0  0  0  0  0  0
  -28.8679  -12.7202   21.5121 H   0  0  0  0  0  0
  -28.1930  -14.3258   21.6410 H   0  0  0  0  0  0
  -25.2791   -9.5663   22.4772 H   0  0  0  0  0  0
  -24.0009   -7.4625   22.7481 H   0  0  0  0  0  0
  -21.0871   -8.8784   19.8948 H   0  0  0  0  0  0
  -22.3746  -10.9671   19.6166 H   0  0  0  0  0  0
  -21.2004   -7.6148   23.9718 H   0  0  0  0  0  0
  -21.1486   -6.0522   25.9081 H   0  0  0  0  0  0
  -22.0596   -2.7609   23.2845 H   0  0  0  0  0  0
  -22.4016  -11.9812   22.4880 H   0  0  0  0  0  0
  -21.0992  -13.1141   22.2659 H   0  0  0  0  0  0
  -24.5991  -15.8267   20.5061 H   0  0  0  0  0  0
  -26.1910  -15.6213   19.9802 H   0  0  0  0  0  0
  -26.7497  -32.4945   23.0782 H   0  0  0  0  0  0
  -25.0080  -33.9336   25.0066 H   0  0  0  0  0  0
  -22.8334  -31.2405   21.3170 H   0  0  0  0  0  0
  -23.3766  -35.9472   23.3293 H   0  0  0  0  0  0
  -24.3556  -36.8835   22.2073 H   0  0  0  0  0  0
  -23.7253  -37.6325   23.6746 H   0  0  0  0  0  0
  -26.2925  -31.2642   20.6281 H   0  0  0  0  0  0
  -26.9399  -30.6037   22.0818 H   0  0  0  0  0  0
  -28.1638  -28.3935   21.3252 H   0  0  0  0  0  0
  -25.8433  -25.6276   18.9980 H   0  0  0  0  0  0
  -24.0357  -27.2236   18.9265 H   0  0  0  0  0  0
  -23.9354  -30.4622   19.3787 H   0  0  0  0  0  0
  -22.8677  -29.1670   19.8169 H   0  0  0  0  0  0
  -25.1360  -36.1662   25.0774 H   0  0  0  0  0  0
  -21.0059  -28.3407   24.1267 H   0  0  0  0  0  0
  -20.5675  -26.2402   23.3664 H   0  0  0  0  0  0
  -21.6666  -26.7385   22.1218 H   0  0  0  0  0  0
  -19.6936  -25.6263   21.1293 H   0  0  0  0  0  0
  -19.6726  -27.3143   20.6717 H   0  0  0  0  0  0
  -17.4234  -26.6700   21.4019 H   0  0  0  0  0  0
  -18.0346  -26.0109   22.9029 H   0  0  0  0  0  0
  -19.7985  -30.7348   24.2159 H   0  0  0  0  0  0
  -17.5050  -31.6277   24.5169 H   0  0  0  0  0  0
  -15.5388  -30.2965   23.7718 H   0  0  0  0  0  0
  -15.8720  -28.0801   22.7130 H   0  0  0  0  0  0
  -24.5880  -30.7138   25.7606 H   0  0  0  0  0  0
  -24.8831  -32.3034   26.4540 H   0  0  0  0  0  0
  -25.7853  -30.9105   27.0209 H   0  0  0  0  0  0
  -26.3248  -29.6461   24.1570 H   0  0  0  0  0  0
  -27.3959  -29.7289   25.5319 H   0  0  0  0  0  0
  -27.9228  -30.3975   24.0106 H   0  0  0  0  0  0
  -27.2592  -33.3740   26.1872 H   0  0  0  0  0  0
  -28.3965  -32.6811   25.0407 H   0  0  0  0  0  0
  -28.0601  -31.8634   26.5590 H   0  0  0  0  0  0
  -28.2565  -38.0041   24.7485 H   0  0  0  0  0  0
  -28.1064  -36.2562   24.6346 H   0  0  0  0  0  0
  -27.2264  -37.1433   25.8871 H   0  0  0  0  0  0
  -20.9713  -29.8679   21.6525 H   0  0  0  0  0  0
  -26.0103  -38.2703   24.1399 H   0  0  0  0  0  0
  -26.6731  -21.0883   20.0878 H   0  0  0  0  0  0
  -31.2231  -19.5194   20.4414 H   0  0  0  0  0  0
  -25.5987  -17.4474   18.6066 H   0  0  0  0  0  0
  -27.3285  -17.4587   18.2710 H   0  0  0  0  0  0
  -26.3702  -18.9157   18.0258 H   0  0  0  0  0  0
  -32.5530  -21.0155   21.4194 H   0  0  0  0  0  0
  -33.3024  -22.3317   20.5475 H   0  0  0  0  0  0
  -32.6927  -20.9608   19.6545 H   0  0  0  0  0  0
  -30.9446  -22.6904   22.5260 H   0  0  0  0  0  0
  -30.1125  -23.8915   21.5535 H   0  0  0  0  0  0
  -31.8543  -23.9263   21.6708 H   0  0  0  0  0  0
  -31.2543  -22.5110   18.2033 H   0  0  0  0  0  0
  -32.0398  -23.8188   19.0753 H   0  0  0  0  0  0
  -30.2988  -23.7825   18.9459 H   0  0  0  0  0  0
  -25.9099  -19.0145   20.5110 H   0  0  0  0  0  0
  -26.8870  -17.6095   20.7665 H   0  0  0  0  0  0
  -26.9319  -23.6822   20.5823 H   0  0  0  0  0  0
  -27.5912  -23.7807   19.0061 H   0  0  0  0  0  0
  -28.5202  -16.5333   20.4390 H   0  0  0  0  0  0
  1 25  1  0  0  0
  1 30  2  0  0  0
  1 84  1  0  0  0
  2  3  1  0  0  0
  2 25  1  0  0  0
  2 85  1  0  0  0
  2 86  1  0  0  0
  3  4  1  0  0  0
  3 87  1  0  0  0
  3 88  1  0  0  0
  4  5  1  0  0  0
  4 89  1  0  0  0
  4 90  1  0  0  0
  5  6  1  0  0  0
  5 26  1  0  0  0
  5 91  1  0  0  0
  6 25  1  0  0  0
  6 92  1  0  0  0
  6 93  1  0  0  0
  7  8  2  0  0  0
  7 26  1  0  0  0
  7 29  1  0  0  0
  8  9  1  0  0  0
  8 22  1  0  0  0
  9 10  1  0  0  0
  9 27  2  0  0  0
 10 11  2  0  0  0
 10 15  1  0  0  0
 11 12  1  0  0  0
 11 94  1  0  0  0
 12 13  2  0  0  0
 12 95  1  0  0  0
 13 14  1  0  0  0
 13 31  1  0  0  0
 14 15  2  0  0  0
 14 96  1  0  0  0
 15 97  1  0  0  0
 16 17  2  0  0  0
 16 21  1  0  0  0
 16 31  1  0  0  0
 17 18  1  0  0  0
 17 98  1  0  0  0
 18 19  2  0  0  0
 18 99  1  0  0  0
 19 20  1  0  0  0
 19 24  1  0  0  0
 20 21  2  0  0  0
 20100  1  0  0  0
 21 23  1  0  0  0
 22 28  1  0  0  0
 22 32  2  0  0  0
 26 27  1  0  0  0
 28101  1  0  0  0
 28102  1  0  0  0
 29103  1  0  0  0
 29104  1  0  0  0
 33 34  1  0  0  0
 33 66  1  0  0  0
 33 70  2  0  0  0
 34 36  1  0  0  0
 34 59  1  0  0  0
 34105  1  0  0  0
 35 44  2  0  0  0
 35 45  1  0  0  0
 35 68  1  0  0  0
 36 56  1  0  0  0
 36106  1  0  0  0
 37 39  1  0  0  0
 37 47  1  0  0  0
 37 66  1  0  0  0
 37107  1  0  0  0
 38 43  2  0  0  0
 38 46  1  0  0  0
 38 47  1  0  0  0
 39 64  1  0  0  0
 39 67  2  0  0  0
 40 52  1  0  0  0
 40 53  2  0  0  0
 40 58  1  0  0  0
 41108  1  0  0  0
 41109  1  0  0  0
 41110  1  0  0  0
 41 48  1  0  0  0
 42 43  1  0  0  0
 42 66  1  0  0  0
 42111  1  0  0  0
 42112  1  0  0  0
 43 44  1  0  0  0
 44113  1  0  0  0
 45 46  2  0  0  0
 45114  1  0  0  0
 46115  1  0  0  0
 47116  1  0  0  0
 47117  1  0  0  0
 48 56  1  0  0  0
 48 65  1  0  0  0
 48118  1  0  0  0
 49 50  1  0  0  0
 49 53  1  0  0  0
 49 64  1  0  0  0
 49119  1  0  0  0
 50 51  1  0  0  0
 50120  1  0  0  0
 50121  1  0  0  0
 51 52  1  0  0  0
 51122  1  0  0  0
 51123  1  0  0  0
 52124  1  0  0  0
 52125  1  0  0  0
 53 54  1  0  0  0
 54 55  2  0  0  0
 54126  1  0  0  0
 55 57  1  0  0  0
 55127  1  0  0  0
 56 69  2  0  0  0
 57 58  2  0  0  0
 57128  1  0  0  0
 58129  1  0  0  0
 59 60  1  0  0  0
 59 61  1  0  0  0
 59 62  1  0  0  0
 60130  1  0  0  0
 60131  1  0  0  0
 60132  1  0  0  0
 61133  1  0  0  0
 61134  1  0  0  0
 61135  1  0  0  0
 62136  1  0  0  0
 62137  1  0  0  0
 62138  1  0  0  0
 63 65  1  0  0  0
 63139  1  0  0  0
 63140  1  0  0  0
 63141  1  0  0  0
 64142  1  0  0  0
 65143  1  0  0  0
 68 82  1  0  0  0
 71 73  2  0  0  0
 71 74  1  0  0  0
 71144  1  0  0  0
 72 75  2  0  0  0
 72 76  1  0  0  0
 72145  1  0  0  0
 73 75  1  0  0  0
 73 82  1  0  0  0
 74 76  2  0  0  0
 74 81  1  0  0  0
 75 83  1  0  0  0
 76 84  1  0  0  0
 77 81  1  0  0  0
 77146  1  0  0  0
 77147  1  0  0  0
 77148  1  0  0  0
 78149  1  0  0  0
 78150  1  0  0  0
 78151  1  0  0  0
 78 83  1  0  0  0
 79 83  1  0  0  0
 79152  1  0  0  0
 79153  1  0  0  0
 79154  1  0  0  0
 80 83  1  0  0  0
 80155  1  0  0  0
 80156  1  0  0  0
 80157  1  0  0  0
 81158  1  0  0  0
 81159  1  0  0  0
 82160  1  0  0  0
 82161  1  0  0  0
 84162  1  0  0  0
M  ISO  4   1 100  68 101  82 101  84 100
M  END
> <chiral flag>
0

> <version>
0

> <s_m_source_file>
/data/baiqing/PycharmProjects/Reinvent-master-3.2/result/LINK_invent/BTK/process_docking_weight1_custom_sum_contain_oxygen_bond_distance_aromatic_linkinvent_7_9_3/rearranged_h_0017.sdf

> <i_m_source_file_index>
80

> <r_mmod_Potential_Energy-OPLS-2005>
2256.4736328125

> <r_mmod_Stretch_Energy-OPLS-2005>
926.230041503906

> <r_mmod_Bend_Energy-OPLS-2005>
693.243286132812

> <r_mmod_Torsional_Energy-OPLS-2005>
223.664123535156

> <r_mmod_Improper_Torsional_Energy-OPLS-2005>
4.97294235229492

> <r_mmod_Van_der_Waal_Energy-OPLS-2005>
137.094497680664

> <r_mmod_Electrostatic_Energy-OPLS-2005>
-393.975158691406

> <r_mmod_Solvation_Energy-OPLS-2005>
-198.513946533203

> <b_mmod_Minimization_Converged-OPLS-2005>
0

> <r_mmod_RMS_Derivative-OPLS-2005>
0.388627141714096

$$$$
82
                    3D
 Structure written by MMmdl.
173181  0  0  1  0            999 V2000
  -30.7412  -14.4550   20.6205 C   0  0  0  0  0  0
  -30.4195  -12.3274   19.3905 C   0  0  0  0  0  0
  -29.4770  -12.5057   18.1843 C   0  0  0  0  0  0
  -28.0067  -12.3251   18.6102 C   0  0  0  0  0  0
  -27.6468  -13.1704   19.8556 C   0  0  2  0  0  0
  -28.6998  -12.9898   20.9754 C   0  0  0  0  0  0
  -25.2610  -13.8070   20.5671 C   0  0  0  0  0  0
  -24.1844  -13.0401   20.9240 C   0  0  0  0  0  0
  -24.6341  -11.6851   20.8782 C   0  0  0  0  0  0
  -23.9013  -10.4260   21.0453 C   0  0  0  0  0  0
  -24.3593   -9.4173   21.9204 C   0  0  0  0  0  0
  -23.6273   -8.2211   22.0767 C   0  0  0  0  0  0
  -22.4249   -8.0265   21.3561 C   0  0  0  0  0  0
  -21.9875   -9.0240   20.4665 C   0  0  0  0  0  0
  -22.7201  -10.2115   20.3085 C   0  0  0  0  0  0
  -21.6844   -6.0724   22.5287 C   0  0  0  0  0  0
  -21.4000   -6.5635   23.8217 C   0  0  0  0  0  0
  -21.3647   -5.6795   24.9183 C   0  0  0  0  0  0
  -21.6048   -4.3061   24.7237 C   0  0  0  0  0  0
  -21.8822   -3.8143   23.4361 C   0  0  0  0  0  0
  -21.9191   -4.6953   22.3413 C   0  0  0  0  0  0
  -22.7885  -13.5250   21.1886 C   0  0  0  0  0  0
  -22.1671   -4.2136   21.0990 F   0  0  0  0  0  0
  -21.5634   -3.4549   25.7755 F   0  0  0  0  0  0
  -30.0246  -13.3092   20.4130 N   0  0  0  0  0  0
  -26.2945  -12.9128   20.3287 N   0  0  0  0  0  0
  -25.9238  -11.6345   20.5770 N   0  0  0  0  0  0
  -22.0493  -12.8249   22.0416 N   0  0  0  0  0  0
  -25.4434  -15.1786   20.3987 N   0  0  0  0  0  0
  -31.8817  -14.6060   20.1679 O   0  0  0  0  0  0
  -21.6630   -6.8857   21.4244 O   0  0  0  0  0  0
  -22.3605  -14.5560   20.6713 O   0  0  0  0  0  0
  -24.6077  -31.8717   23.2124 C   0  0  0  0  0  0
  -25.8990  -32.4842   23.8412 C   0  0  1  0  0  0
  -27.2612  -27.4804   20.1040 C   0  0  0  0  0  0
  -25.5872  -33.8643   24.2348 N   0  0  0  0  0  0
  -23.3937  -30.4923   21.5515 C   0  0  2  0  0  0
  -24.8458  -28.9612   20.1193 C   0  0  0  0  0  0
  -22.7373  -29.4665   22.5021 C   0  0  0  0  0  0
  -18.0262  -28.1364   22.8497 C   0  0  0  0  0  0
  -24.1489  -36.7325   23.2637 C   0  0  0  0  0  0
  -25.9143  -30.8553   21.3556 C   0  0  0  0  0  0
  -25.9985  -29.4893   20.7115 C   0  0  0  0  0  0
  -27.2054  -28.7624   20.7034 C   0  0  0  0  0  0
  -26.0893  -26.9638   19.5119 C   0  0  0  0  0  0
  -24.8833  -27.6922   19.5161 C   0  0  0  0  0  0
  -23.6014  -29.8188   20.1673 C   0  0  0  0  0  0
  -25.4107  -36.3128   24.0343 C   0  0  1  0  0  0
  -20.5845  -28.3638   23.1345 C   0  0  2  0  0  0
  -20.6756  -26.9383   22.5429 C   0  0  0  0  0  0
  -19.5740  -26.6375   21.5216 C   0  0  0  0  0  0
  -18.1915  -26.7914   22.1624 C   0  0  0  0  0  0
  -19.1509  -28.8817   23.2916 C   0  0  0  0  0  0
  -18.9444  -30.1428   23.8918 C   0  0  0  0  0  0
  -17.6448  -30.6576   24.0561 C   0  0  0  0  0  0
  -25.9025  -34.9488   23.5142 C   0  0  0  0  0  0
  -16.5337  -29.9081   23.6321 C   0  0  0  0  0  0
  -16.7253  -28.6496   23.0346 C   0  0  0  0  0  0
  -26.4452  -31.6602   25.0713 C   0  0  0  0  0  0
  -25.3735  -31.3693   26.1472 C   0  0  0  0  0  0
  -27.0278  -30.3056   24.6034 C   0  0  0  0  0  0
  -27.6046  -32.4305   25.7463 C   0  0  0  0  0  0
  -27.5585  -37.1813   24.8463 C   0  0  0  0  0  0
  -21.4105  -29.3015   22.3761 N   0  0  0  0  0  0
  -26.4299  -37.3802   23.9407 N   0  0  0  0  0  0
  -24.6564  -31.0865   22.0997 N   0  0  0  0  0  0
  -23.4166  -28.8213   23.3048 O   0  0  0  0  0  0
  -28.3823  -26.6791   20.0245 O   0  0  0  0  0  0
  -26.5590  -34.8933   22.4703 O   0  0  0  0  0  0
  -23.5284  -32.1441   23.7556 O   0  0  0  0  0  0
  -29.0965  -17.4140   21.5338 C   0  0  0  0  0  0
  -29.2825  -16.3128   20.5712 C   0  0  0  0  0  0
  -30.4854  -16.1056   22.4331 C   0  0  0  0  0  0
  -26.2252  -19.1997   22.5657 C   0  0  0  0  0  0
  -29.3679  -22.7235   25.3485 C   0  0  0  0  0  0
  -29.0208  -25.5503   22.7872 C   0  0  0  0  0  0
  -29.9871  -25.7928   21.6076 C   0  0  0  0  0  0
  -29.4959  -20.9878   22.8834 C   0  0  0  0  0  0
  -28.0162  -20.7487   22.5205 C   0  0  0  0  0  0
  -29.6090  -24.7302   23.9615 C   0  0  0  0  0  0
  -29.8872  -22.4853   22.9298 C   0  0  0  0  0  0
  -29.5798  -26.9925   20.7352 C   0  0  0  0  0  0
  -28.1131  -18.5495   21.2294 C   0  0  1  0  0  0
  -29.8100  -17.2686   22.5655 N   0  0  0  0  0  0
  -30.1020  -15.4806   21.2296 N   0  0  0  0  0  0
  -27.6785  -19.3202   22.4275 N   0  0  0  0  0  0
  -31.3478  -15.6314   23.3598 N   0  3  0  0  0  0
  -29.2106  -23.2940   23.9858 N   0  3  1  0  0  0
  -28.8094  -16.2534   19.4253 O   0  0  0  0  0  0
  -28.8201  -19.6304   19.9814 Cl  0  0  0  0  0  0
  -31.4577  -12.4413   19.0722 H   0  0  0  0  0  0
  -30.3431  -11.3141   19.7872 H   0  0  0  0  0  0
  -29.7281  -11.7932   17.3972 H   0  0  0  0  0  0
  -29.6125  -13.4992   17.7528 H   0  0  0  0  0  0
  -27.8432  -11.2685   18.8238 H   0  0  0  0  0  0
  -27.3430  -12.5754   17.7819 H   0  0  0  0  0  0
  -27.6535  -14.1946   19.5110 H   0  0  0  0  0  0
  -28.6922  -11.9574   21.3297 H   0  0  0  0  0  0
  -28.4486  -13.5933   21.8484 H   0  0  0  0  0  0
  -25.2745   -9.5635   22.4770 H   0  0  0  0  0  0
  -23.9979   -7.4585   22.7472 H   0  0  0  0  0  0
  -21.0805   -8.8770   19.8965 H   0  0  0  0  0  0
  -22.3682  -10.9667   19.6210 H   0  0  0  0  0  0
  -21.1997   -7.6145   23.9718 H   0  0  0  0  0  0
  -21.1461   -6.0527   25.9085 H   0  0  0  0  0  0
  -22.0612   -2.7601   23.2871 H   0  0  0  0  0  0
  -22.4079  -11.9898   22.4798 H   0  0  0  0  0  0
  -21.1112  -13.1308   22.2605 H   0  0  0  0  0  0
  -24.6260  -15.7804   20.3917 H   0  0  0  0  0  0
  -26.1836  -15.5247   19.8016 H   0  0  0  0  0  0
  -26.7072  -32.5596   23.1202 H   0  0  0  0  0  0
  -25.0037  -33.9822   25.0499 H   0  0  0  0  0  0
  -22.6792  -31.3056   21.4121 H   0  0  0  0  0  0
  -23.3751  -35.9659   23.3317 H   0  0  0  0  0  0
  -24.3588  -36.8917   22.2048 H   0  0  0  0  0  0
  -23.7245  -37.6537   23.6638 H   0  0  0  0  0  0
  -26.0124  -31.6200   20.5835 H   0  0  0  0  0  0
  -26.8057  -30.9201   21.9678 H   0  0  0  0  0  0
  -28.0692  -29.2276   21.1485 H   0  0  0  0  0  0
  -26.1139  -25.9898   19.0437 H   0  0  0  0  0  0
  -23.9981  -27.2751   19.0561 H   0  0  0  0  0  0
  -23.7016  -30.5908   19.4037 H   0  0  0  0  0  0
  -22.7297  -29.2295   19.8769 H   0  0  0  0  0  0
  -25.1282  -36.2005   25.0837 H   0  0  0  0  0  0
  -20.9933  -28.3199   24.1463 H   0  0  0  0  0  0
  -20.5663  -26.2239   23.3604 H   0  0  0  0  0  0
  -21.6632  -26.7436   22.1218 H   0  0  0  0  0  0
  -19.6906  -25.6292   21.1228 H   0  0  0  0  0  0
  -19.6688  -27.3201   20.6760 H   0  0  0  0  0  0
  -17.4189  -26.6661   21.4020 H   0  0  0  0  0  0
  -18.0313  -26.0045   22.9011 H   0  0  0  0  0  0
  -19.7920  -30.7237   24.2297 H   0  0  0  0  0  0
  -17.5004  -31.6262   24.5156 H   0  0  0  0  0  0
  -15.5340  -30.2992   23.7633 H   0  0  0  0  0  0
  -15.8650  -28.0823   22.7053 H   0  0  0  0  0  0
  -24.5899  -30.7052   25.7808 H   0  0  0  0  0  0
  -24.8936  -32.2848   26.4942 H   0  0  0  0  0  0
  -25.8094  -30.8844   27.0212 H   0  0  0  0  0  0
  -26.2806  -29.6830   24.1096 H   0  0  0  0  0  0
  -27.4088  -29.7272   25.4460 H   0  0  0  0  0  0
  -27.8620  -30.4404   23.9144 H   0  0  0  0  0  0
  -27.2678  -33.3587   26.2089 H   0  0  0  0  0  0
  -28.3825  -32.6886   25.0265 H   0  0  0  0  0  0
  -28.0744  -31.8395   26.5333 H   0  0  0  0  0  0
  -28.2606  -38.0107   24.7516 H   0  0  0  0  0  0
  -28.1078  -36.2640   24.6284 H   0  0  0  0  0  0
  -27.2305  -37.1459   25.8866 H   0  0  0  0  0  0
  -20.9257  -29.8738   21.6995 H   0  0  0  0  0  0
  -26.0199  -38.2885   24.1406 H   0  0  0  0  0  0
  -25.9130  -18.1543   22.5776 H   0  0  0  0  0  0
  -25.7031  -19.6982   21.7457 H   0  0  0  0  0  0
  -25.8759  -19.6395   23.5020 H   0  0  0  0  0  0
  -28.8875  -23.3511   26.1002 H   0  0  0  0  0  0
  -30.4206  -22.6264   25.6172 H   0  0  0  0  0  0
  -28.9014  -21.7430   25.4359 H   0  0  0  0  0  0
  -28.0789  -25.1294   22.4344 H   0  0  0  0  0  0
  -28.7562  -26.5286   23.1917 H   0  0  0  0  0  0
  -30.0753  -24.9041   20.9832 H   0  0  0  0  0  0
  -30.9873  -25.9910   21.9954 H   0  0  0  0  0  0
  -30.1391  -20.5148   22.1441 H   0  0  0  0  0  0
  -29.7414  -20.4841   23.8175 H   0  0  0  0  0  0
  -27.7244  -21.2911   21.6191 H   0  0  0  0  0  0
  -27.4187  -21.1904   23.3197 H   0  0  0  0  0  0
  -29.2349  -25.1950   24.8753 H   0  0  0  0  0  0
  -30.6944  -24.8286   24.0178 H   0  0  0  0  0  0
  -29.6724  -22.9177   21.9534 H   0  0  0  0  0  0
  -30.9671  -22.5632   23.0638 H   0  0  0  0  0  0
  -30.3577  -27.1866   19.9960 H   0  0  0  0  0  0
  -29.5457  -27.8746   21.3671 H   0  0  0  0  0  0
  -27.2483  -18.0896   20.7453 H   0  0  0  0  0  0
  -31.5258  -16.1723   24.1978 H   0  0  0  0  0  0
  -31.8479  -14.7562   23.2666 H   0  0  0  0  0  0
  -28.2197  -23.2828   23.7983 H   0  0  0  0  0  0
  1 25  1  0  0  0
  1 30  2  0  0  0
  1 85  1  0  0  0
  2  3  1  0  0  0
  2 25  1  0  0  0
  2 91  1  0  0  0
  2 92  1  0  0  0
  3  4  1  0  0  0
  3 93  1  0  0  0
  3 94  1  0  0  0
  4  5  1  0  0  0
  4 95  1  0  0  0
  4 96  1  0  0  0
  5  6  1  0  0  0
  5 26  1  0  0  0
  5 97  1  0  0  0
  6 25  1  0  0  0
  6 98  1  0  0  0
  6 99  1  0  0  0
  7  8  2  0  0  0
  7 26  1  0  0  0
  7 29  1  0  0  0
  8  9  1  0  0  0
  8 22  1  0  0  0
  9 10  1  0  0  0
  9 27  2  0  0  0
 10 11  2  0  0  0
 10 15  1  0  0  0
 11 12  1  0  0  0
 11100  1  0  0  0
 12 13  2  0  0  0
 12101  1  0  0  0
 13 14  1  0  0  0
 13 31  1  0  0  0
 14 15  2  0  0  0
 14102  1  0  0  0
 15103  1  0  0  0
 16 17  2  0  0  0
 16 21  1  0  0  0
 16 31  1  0  0  0
 17 18  1  0  0  0
 17104  1  0  0  0
 18 19  2  0  0  0
 18105  1  0  0  0
 19 20  1  0  0  0
 19 24  1  0  0  0
 20 21  2  0  0  0
 20106  1  0  0  0
 21 23  1  0  0  0
 22 28  1  0  0  0
 22 32  2  0  0  0
 26 27  1  0  0  0
 28107  1  0  0  0
 28108  1  0  0  0
 29109  1  0  0  0
 29110  1  0  0  0
 33 34  1  0  0  0
 33 66  1  0  0  0
 33 70  2  0  0  0
 34 36  1  0  0  0
 34 59  1  0  0  0
 34111  1  0  0  0
 35 44  2  0  0  0
 35 45  1  0  0  0
 35 68  1  0  0  0
 36 56  1  0  0  0
 36112  1  0  0  0
 37 39  1  0  0  0
 37 47  1  0  0  0
 37 66  1  0  0  0
 37113  1  0  0  0
 38 43  2  0  0  0
 38 46  1  0  0  0
 38 47  1  0  0  0
 39 64  1  0  0  0
 39 67  2  0  0  0
 40 52  1  0  0  0
 40 53  2  0  0  0
 40 58  1  0  0  0
 41114  1  0  0  0
 41115  1  0  0  0
 41116  1  0  0  0
 41 48  1  0  0  0
 42 43  1  0  0  0
 42 66  1  0  0  0
 42117  1  0  0  0
 42118  1  0  0  0
 43 44  1  0  0  0
 44119  1  0  0  0
 45 46  2  0  0  0
 45120  1  0  0  0
 46121  1  0  0  0
 47122  1  0  0  0
 47123  1  0  0  0
 48 56  1  0  0  0
 48 65  1  0  0  0
 48124  1  0  0  0
 49 50  1  0  0  0
 49 53  1  0  0  0
 49 64  1  0  0  0
 49125  1  0  0  0
 50 51  1  0  0  0
 50126  1  0  0  0
 50127  1  0  0  0
 51 52  1  0  0  0
 51128  1  0  0  0
 51129  1  0  0  0
 52130  1  0  0  0
 52131  1  0  0  0
 53 54  1  0  0  0
 54 55  2  0  0  0
 54132  1  0  0  0
 55 57  1  0  0  0
 55133  1  0  0  0
 56 69  2  0  0  0
 57 58  2  0  0  0
 57134  1  0  0  0
 58135  1  0  0  0
 59 60  1  0  0  0
 59 61  1  0  0  0
 59 62  1  0  0  0
 60136  1  0  0  0
 60137  1  0  0  0
 60138  1  0  0  0
 61139  1  0  0  0
 61140  1  0  0  0
 61141  1  0  0  0
 62142  1  0  0  0
 62143  1  0  0  0
 62144  1  0  0  0
 63 65  1  0  0  0
 63145  1  0  0  0
 63146  1  0  0  0
 63147  1  0  0  0
 64148  1  0  0  0
 65149  1  0  0  0
 68 82  1  0  0  0
 71 72  1  0  0  0
 71 83  1  0  0  0
 71 84  2  0  0  0
 72 85  1  0  0  0
 72 89  2  0  0  0
 73 84  1  0  0  0
 73 85  1  0  0  0
 73 87  2  0  0  0
 74 86  1  0  0  0
 74150  1  0  0  0
 74151  1  0  0  0
 74152  1  0  0  0
 75153  1  0  0  0
 75154  1  0  0  0
 75155  1  0  0  0
 75 88  1  0  0  0
 76 77  1  0  0  0
 76 80  1  0  0  0
 76156  1  0  0  0
 76157  1  0  0  0
 77 82  1  0  0  0
 77158  1  0  0  0
 77159  1  0  0  0
 78 79  1  0  0  0
 78 81  1  0  0  0
 78160  1  0  0  0
 78161  1  0  0  0
 79 86  1  0  0  0
 79162  1  0  0  0
 79163  1  0  0  0
 80 88  1  0  0  0
 80164  1  0  0  0
 80165  1  0  0  0
 81 88  1  0  0  0
 81166  1  0  0  0
 81167  1  0  0  0
 82168  1  0  0  0
 82169  1  0  0  0
 83 86  1  0  0  0
 83 90  1  0  0  0
 83170  1  0  0  0
 87171  1  0  0  0
 87172  1  0  0  0
 88173  1  0  0  0
M  CHG  2  87   1  88   1
M  ISO  4   1 100  68 101  82 101  85 100
M  END
> <chiral flag>
0

> <version>
0

> <s_m_source_file>
/data/baiqing/PycharmProjects/Reinvent-master-3.2/result/LINK_invent/BTK/process_docking_weight1_custom_sum_contain_oxygen_bond_distance_aromatic_linkinvent_7_9_3/rearranged_h_0017.sdf

> <i_m_source_file_index>
81

> <r_mmod_Potential_Energy-OPLS-2005>
37.0413589477539

> <r_mmod_Stretch_Energy-OPLS-2005>
40.951789855957

> <r_mmod_Bend_Energy-OPLS-2005>
187.92512512207

> <r_mmod_Torsional_Energy-OPLS-2005>
336.274261474609

> <r_mmod_Improper_Torsional_Energy-OPLS-2005>
6.78574371337891

> <r_mmod_Van_der_Waal_Energy-OPLS-2005>
142.707000732422

> <r_mmod_Electrostatic_Energy-OPLS-2005>
130.477630615234

> <r_mmod_Solvation_Energy-OPLS-2005>
-820.489562988281

> <b_mmod_Minimization_Converged-OPLS-2005>
0

> <r_mmod_RMS_Derivative-OPLS-2005>
1.60256171226501

$$$$
83
                    3D
 Structure written by MMmdl.
159167  0  0  1  0            999 V2000
  -30.4369  -15.1793   20.3858 C   0  0  0  0  0  0
  -30.4503  -12.7461   19.5140 C   0  0  0  0  0  0
  -29.5390  -12.5689   18.2740 C   0  0  0  0  0  0
  -28.0774  -12.3159   18.6921 C   0  0  0  0  0  0
  -27.6191  -13.2674   19.8266 C   0  0  2  0  0  0
  -28.6582  -13.3806   20.9611 C   0  0  0  0  0  0
  -25.2416  -13.8222   20.5734 C   0  0  0  0  0  0
  -24.1757  -13.0428   20.9238 C   0  0  0  0  0  0
  -24.6405  -11.6926   20.8753 C   0  0  0  0  0  0
  -23.9096  -10.4290   21.0407 C   0  0  0  0  0  0
  -24.3639   -9.4205   21.9189 C   0  0  0  0  0  0
  -23.6302   -8.2242   22.0764 C   0  0  0  0  0  0
  -22.4281   -8.0287   21.3550 C   0  0  0  0  0  0
  -21.9921   -9.0264   20.4655 C   0  0  0  0  0  0
  -22.7261  -10.2139   20.3059 C   0  0  0  0  0  0
  -21.6853   -6.0743   22.5276 C   0  0  0  0  0  0
  -21.4018   -6.5643   23.8212 C   0  0  0  0  0  0
  -21.3660   -5.6793   24.9171 C   0  0  0  0  0  0
  -21.6042   -4.3055   24.7218 C   0  0  0  0  0  0
  -21.8817   -3.8152   23.4337 C   0  0  0  0  0  0
  -21.9189   -4.6969   22.3398 C   0  0  0  0  0  0
  -22.7775  -13.5198   21.1871 C   0  0  0  0  0  0
  -22.1657   -4.2160   21.0972 F   0  0  0  0  0  0
  -21.5626   -3.4534   25.7729 F   0  0  0  0  0  0
  -29.9009  -13.8696   20.3445 N   0  0  0  0  0  0
  -26.2848  -12.9493   20.3207 N   0  0  0  0  0  0
  -25.9341  -11.6606   20.5702 N   0  0  0  0  0  0
  -22.0410  -12.8215   22.0434 N   0  0  0  0  0  0
  -25.4032  -15.1949   20.4194 N   0  0  0  0  0  0
  -31.6585  -15.2368   20.1883 O   0  0  0  0  0  0
  -21.6638   -6.8889   21.4243 O   0  0  0  0  0  0
  -22.3467  -14.5498   20.6702 O   0  0  0  0  0  0
  -24.6590  -31.8285   23.1734 C   0  0  0  0  0  0
  -25.9291  -32.4613   23.8186 C   0  0  1  0  0  0
  -27.2210  -26.9766   20.1776 C   0  0  0  0  0  0
  -25.5974  -33.8423   24.2099 N   0  0  0  0  0  0
  -23.4702  -30.4414   21.5228 C   0  0  2  0  0  0
  -24.9218  -28.8343   20.1150 C   0  0  0  0  0  0
  -22.7643  -29.4468   22.4802 C   0  0  0  0  0  0
  -18.0318  -28.1397   22.8468 C   0  0  0  0  0  0
  -24.1491  -36.7218   23.2643 C   0  0  0  0  0  0
  -26.0367  -30.6508   21.3955 C   0  0  0  0  0  0
  -26.1056  -29.2449   20.7405 C   0  0  0  0  0  0
  -27.2517  -28.3372   20.7455 C   0  0  0  0  0  0
  -26.0069  -26.7034   19.5101 C   0  0  0  0  0  0
  -24.8951  -27.5821   19.4802 C   0  0  0  0  0  0
  -23.7059  -29.7570   20.1489 C   0  0  0  0  0  0
  -25.4132  -36.2982   24.0301 C   0  0  1  0  0  0
  -20.5939  -28.3741   23.1196 C   0  0  2  0  0  0
  -20.6795  -26.9428   22.5400 C   0  0  0  0  0  0
  -19.5770  -26.6370   21.5211 C   0  0  0  0  0  0
  -18.1952  -26.7932   22.1619 C   0  0  0  0  0  0
  -19.1578  -28.8890   23.2818 C   0  0  0  0  0  0
  -18.9489  -30.1482   23.8852 C   0  0  0  0  0  0
  -17.6483  -30.6593   24.0554 C   0  0  0  0  0  0
  -25.9097  -34.9362   23.5019 C   0  0  0  0  0  0
  -16.5372  -29.9080   23.6339 C   0  0  0  0  0  0
  -16.7301  -28.6495   23.0367 C   0  0  0  0  0  0
  -26.4551  -31.6539   25.0698 C   0  0  0  0  0  0
  -25.3691  -31.3780   26.1366 C   0  0  0  0  0  0
  -27.0440  -30.2908   24.6406 C   0  0  0  0  0  0
  -27.6047  -32.4341   25.7504 C   0  0  0  0  0  0
  -27.5575  -37.1767   24.8463 C   0  0  0  0  0  0
  -21.4317  -29.3044   22.3553 N   0  0  0  0  0  0
  -26.4282  -37.3716   23.9408 N   0  0  0  0  0  0
  -24.7430  -30.9999   22.0842 N   0  0  0  0  0  0
  -23.4211  -28.8043   23.3035 O   0  0  0  0  0  0
  -28.2481  -25.9114   20.2322 O   0  0  0  0  0  0
  -26.5707  -34.8891   22.4614 O   0  0  0  0  0  0
  -23.5675  -32.1219   23.6867 O   0  0  0  0  0  0
  -28.6063  -20.2282   19.4032 C   0  0  0  0  0  0
  -30.1008  -18.9270   21.3049 C   0  0  0  0  0  0
  -29.1334  -21.2001   20.3488 C   0  0  0  0  0  0
  -29.9047  -20.4006   21.3073 C   0  0  0  0  0  0
  -28.7716  -18.7458   19.4194 C   0  0  0  0  0  0
  -29.5700  -17.9642   20.3601 C   0  0  0  0  0  0
  -26.8893  -17.9082   18.3162 C   0  0  0  0  0  0
  -30.6107  -21.1501   22.4229 C   0  0  0  0  0  0
  -26.2847  -17.0950   17.1912 C   0  0  0  0  0  0
  -25.8843  -18.5591   19.2588 C   0  0  0  0  0  0
  -29.1542  -22.9416   20.2381 C   0  0  0  0  0  0
  -28.0094  -24.2945   20.2197 C   0  0  0  0  0  0
  -28.1579  -17.9967   18.4097 N   0  0  0  0  0  0
  -29.5760  -16.3634   20.4297 N   0  0  0  0  0  0
  -31.4711  -12.9556   19.1914 H   0  0  0  0  0  0
  -30.5055  -11.8232   20.0946 H   0  0  0  0  0  0
  -29.9020  -11.7523   17.6492 H   0  0  0  0  0  0
  -29.5884  -13.4685   17.6581 H   0  0  0  0  0  0
  -28.0044  -11.2820   19.0302 H   0  0  0  0  0  0
  -27.4158  -12.4030   17.8294 H   0  0  0  0  0  0
  -27.5506  -14.2506   19.3602 H   0  0  0  0  0  0
  -28.8024  -12.4234   21.4645 H   0  0  0  0  0  0
  -28.3192  -14.0838   21.7236 H   0  0  0  0  0  0
  -25.2785   -9.5672   22.4766 H   0  0  0  0  0  0
  -24.0004   -7.4633   22.7485 H   0  0  0  0  0  0
  -21.0848   -8.8788   19.8965 H   0  0  0  0  0  0
  -22.3720  -10.9680   19.6169 H   0  0  0  0  0  0
  -21.2019   -7.6154   23.9719 H   0  0  0  0  0  0
  -21.1484   -6.0521   25.9075 H   0  0  0  0  0  0
  -22.0598   -2.7615   23.2823 H   0  0  0  0  0  0
  -22.4021  -11.9902   22.4868 H   0  0  0  0  0  0
  -21.1029  -13.1259   22.2611 H   0  0  0  0  0  0
  -24.6285  -15.8366   20.5431 H   0  0  0  0  0  0
  -26.2422  -15.6417   20.0814 H   0  0  0  0  0  0
  -26.7366  -32.5168   23.0913 H   0  0  0  0  0  0
  -25.0079  -33.9511   25.0220 H   0  0  0  0  0  0
  -22.7804  -31.2713   21.3555 H   0  0  0  0  0  0
  -23.3767  -35.9536   23.3277 H   0  0  0  0  0  0
  -24.3569  -36.8894   22.2064 H   0  0  0  0  0  0
  -23.7236  -37.6392   23.6718 H   0  0  0  0  0  0
  -26.2137  -31.3941   20.6168 H   0  0  0  0  0  0
  -26.8975  -30.7054   22.0504 H   0  0  0  0  0  0
  -28.1517  -28.6517   21.2549 H   0  0  0  0  0  0
  -25.8881  -25.7485   19.0207 H   0  0  0  0  0  0
  -23.9954  -27.2608   18.9733 H   0  0  0  0  0  0
  -23.8562  -30.5239   19.3880 H   0  0  0  0  0  0
  -22.8159  -29.2080   19.8361 H   0  0  0  0  0  0
  -25.1328  -36.1783   25.0793 H   0  0  0  0  0  0
  -21.0030  -28.3347   24.1319 H   0  0  0  0  0  0
  -20.5675  -26.2363   23.3638 H   0  0  0  0  0  0
  -21.6662  -26.7415   22.1212 H   0  0  0  0  0  0
  -19.6934  -25.6268   21.1275 H   0  0  0  0  0  0
  -19.6707  -27.3151   20.6716 H   0  0  0  0  0  0
  -17.4223  -26.6673   21.4023 H   0  0  0  0  0  0
  -18.0352  -26.0080   22.9020 H   0  0  0  0  0  0
  -19.7963  -30.7310   24.2201 H   0  0  0  0  0  0
  -17.5034  -31.6272   24.5160 H   0  0  0  0  0  0
  -15.5370  -30.2972   23.7685 H   0  0  0  0  0  0
  -15.8697  -28.0798   22.7118 H   0  0  0  0  0  0
  -24.5879  -30.7127   25.7676 H   0  0  0  0  0  0
  -24.8877  -32.2980   26.4689 H   0  0  0  0  0  0
  -25.7930  -30.9011   27.0213 H   0  0  0  0  0  0
  -26.3097  -29.6596   24.1393 H   0  0  0  0  0  0
  -27.3957  -29.7260   25.5049 H   0  0  0  0  0  0
  -27.9043  -30.4089   23.9818 H   0  0  0  0  0  0
  -27.2613  -33.3674   26.1980 H   0  0  0  0  0  0
  -28.3913  -32.6855   25.0377 H   0  0  0  0  0  0
  -28.0660  -31.8541   26.5509 H   0  0  0  0  0  0
  -28.2571  -38.0082   24.7525 H   0  0  0  0  0  0
  -28.1091  -36.2613   24.6272 H   0  0  0  0  0  0
  -27.2296  -37.1388   25.8866 H   0  0  0  0  0  0
  -20.9564  -29.8725   21.6683 H   0  0  0  0  0  0
  -26.0131  -38.2777   24.1412 H   0  0  0  0  0  0
  -28.0399  -20.6428   18.5804 H   0  0  0  0  0  0
  -30.6877  -18.5086   22.1102 H   0  0  0  0  0  0
  -31.0114  -20.4733   23.1782 H   0  0  0  0  0  0
  -29.9239  -21.8268   22.9314 H   0  0  0  0  0  0
  -31.4418  -21.7319   22.0242 H   0  0  0  0  0  0
  -25.2260  -16.8953   17.3548 H   0  0  0  0  0  0
  -26.7974  -16.1368   17.1002 H   0  0  0  0  0  0
  -26.3871  -17.6310   16.2478 H   0  0  0  0  0  0
  -24.9139  -18.0657   19.2096 H   0  0  0  0  0  0
  -25.7428  -19.6060   18.9919 H   0  0  0  0  0  0
  -26.2223  -18.5034   20.2930 H   0  0  0  0  0  0
  -29.7354  -23.0978   19.3299 H   0  0  0  0  0  0
  -29.8473  -23.2397   21.0212 H   0  0  0  0  0  0
  -27.3577  -24.1260   21.0771 H   0  0  0  0  0  0
  -27.3738  -24.1057   19.3556 H   0  0  0  0  0  0
  -28.6273  -16.0278   20.3985 H   0  0  0  0  0  0
  1 25  1  0  0  0
  1 30  2  0  0  0
  1 84  1  0  0  0
  2  3  1  0  0  0
  2 25  1  0  0  0
  2 85  1  0  0  0
  2 86  1  0  0  0
  3  4  1  0  0  0
  3 87  1  0  0  0
  3 88  1  0  0  0
  4  5  1  0  0  0
  4 89  1  0  0  0
  4 90  1  0  0  0
  5  6  1  0  0  0
  5 26  1  0  0  0
  5 91  1  0  0  0
  6 25  1  0  0  0
  6 92  1  0  0  0
  6 93  1  0  0  0
  7  8  2  0  0  0
  7 26  1  0  0  0
  7 29  1  0  0  0
  8  9  1  0  0  0
  8 22  1  0  0  0
  9 10  1  0  0  0
  9 27  2  0  0  0
 10 11  2  0  0  0
 10 15  1  0  0  0
 11 12  1  0  0  0
 11 94  1  0  0  0
 12 13  2  0  0  0
 12 95  1  0  0  0
 13 14  1  0  0  0
 13 31  1  0  0  0
 14 15  2  0  0  0
 14 96  1  0  0  0
 15 97  1  0  0  0
 16 17  2  0  0  0
 16 21  1  0  0  0
 16 31  1  0  0  0
 17 18  1  0  0  0
 17 98  1  0  0  0
 18 19  2  0  0  0
 18 99  1  0  0  0
 19 20  1  0  0  0
 19 24  1  0  0  0
 20 21  2  0  0  0
 20100  1  0  0  0
 21 23  1  0  0  0
 22 28  1  0  0  0
 22 32  2  0  0  0
 26 27  1  0  0  0
 28101  1  0  0  0
 28102  1  0  0  0
 29103  1  0  0  0
 29104  1  0  0  0
 33 34  1  0  0  0
 33 66  1  0  0  0
 33 70  2  0  0  0
 34 36  1  0  0  0
 34 59  1  0  0  0
 34105  1  0  0  0
 35 44  2  0  0  0
 35 45  1  0  0  0
 35 68  1  0  0  0
 36 56  1  0  0  0
 36106  1  0  0  0
 37 39  1  0  0  0
 37 47  1  0  0  0
 37 66  1  0  0  0
 37107  1  0  0  0
 38 43  2  0  0  0
 38 46  1  0  0  0
 38 47  1  0  0  0
 39 64  1  0  0  0
 39 67  2  0  0  0
 40 52  1  0  0  0
 40 53  2  0  0  0
 40 58  1  0  0  0
 41108  1  0  0  0
 41109  1  0  0  0
 41110  1  0  0  0
 41 48  1  0  0  0
 42 43  1  0  0  0
 42 66  1  0  0  0
 42111  1  0  0  0
 42112  1  0  0  0
 43 44  1  0  0  0
 44113  1  0  0  0
 45 46  2  0  0  0
 45114  1  0  0  0
 46115  1  0  0  0
 47116  1  0  0  0
 47117  1  0  0  0
 48 56  1  0  0  0
 48 65  1  0  0  0
 48118  1  0  0  0
 49 50  1  0  0  0
 49 53  1  0  0  0
 49 64  1  0  0  0
 49119  1  0  0  0
 50 51  1  0  0  0
 50120  1  0  0  0
 50121  1  0  0  0
 51 52  1  0  0  0
 51122  1  0  0  0
 51123  1  0  0  0
 52124  1  0  0  0
 52125  1  0  0  0
 53 54  1  0  0  0
 54 55  2  0  0  0
 54126  1  0  0  0
 55 57  1  0  0  0
 55127  1  0  0  0
 56 69  2  0  0  0
 57 58  2  0  0  0
 57128  1  0  0  0
 58129  1  0  0  0
 59 60  1  0  0  0
 59 61  1  0  0  0
 59 62  1  0  0  0
 60130  1  0  0  0
 60131  1  0  0  0
 60132  1  0  0  0
 61133  1  0  0  0
 61134  1  0  0  0
 61135  1  0  0  0
 62136  1  0  0  0
 62137  1  0  0  0
 62138  1  0  0  0
 63 65  1  0  0  0
 63139  1  0  0  0
 63140  1  0  0  0
 63141  1  0  0  0
 64142  1  0  0  0
 65143  1  0  0  0
 68 82  1  0  0  0
 71 73  2  0  0  0
 71 75  1  0  0  0
 71144  1  0  0  0
 72 74  2  0  0  0
 72 76  1  0  0  0
 72145  1  0  0  0
 73 74  1  0  0  0
 73 81  1  0  0  0
 74 78  1  0  0  0
 75 76  2  0  0  0
 75 83  1  0  0  0
 76 84  1  0  0  0
 77 79  1  0  0  0
 77 80  1  0  0  0
 77 83  2  0  0  0
 78146  1  0  0  0
 78147  1  0  0  0
 78148  1  0  0  0
 79149  1  0  0  0
 79150  1  0  0  0
 79151  1  0  0  0
 80152  1  0  0  0
 80153  1  0  0  0
 80154  1  0  0  0
 81 82  1  0  0  0
 81155  1  0  0  0
 81156  1  0  0  0
 82157  1  0  0  0
 82158  1  0  0  0
 84159  1  0  0  0
M  ISO  4   1 100  68 101  82 101  84 100
M  END
> <chiral flag>
0

> <version>
0

> <s_m_source_file>
/data/baiqing/PycharmProjects/Reinvent-master-3.2/result/LINK_invent/BTK/process_docking_weight1_custom_sum_contain_oxygen_bond_distance_aromatic_linkinvent_7_9_3/rearranged_h_0017.sdf

> <i_m_source_file_index>
82

> <r_mmod_Potential_Energy-OPLS-2005>
975.8642578125

> <r_mmod_Stretch_Energy-OPLS-2005>
456.374420166016

> <r_mmod_Bend_Energy-OPLS-2005>
408.251556396484

> <r_mmod_Torsional_Energy-OPLS-2005>
259.297943115234

> <r_mmod_Improper_Torsional_Energy-OPLS-2005>
8.2881441116333

> <r_mmod_Van_der_Waal_Energy-OPLS-2005>
126.565589904785

> <r_mmod_Electrostatic_Energy-OPLS-2005>
-448.682586669922

> <r_mmod_Solvation_Energy-OPLS-2005>
-212.479995727539

> <b_mmod_Minimization_Converged-OPLS-2005>
0

> <r_mmod_RMS_Derivative-OPLS-2005>
1.21243798732758

$$$$
84
                    3D
 Structure written by MMmdl.
176183  0  0  1  0            999 V2000
  -30.6327  -14.5277   20.5183 C   0  0  0  0  0  0
  -30.4329  -12.3304   19.4011 C   0  0  0  0  0  0
  -29.4973  -12.5199   18.1872 C   0  0  0  0  0  0
  -28.0144  -12.3776   18.5929 C   0  0  0  0  0  0
  -27.6577  -13.2021   19.8579 C   0  0  2  0  0  0
  -28.7040  -12.9773   20.9698 C   0  0  0  0  0  0
  -25.2590  -13.8142   20.5581 C   0  0  0  0  0  0
  -24.1853  -13.0438   20.9182 C   0  0  0  0  0  0
  -24.6406  -11.6902   20.8709 C   0  0  0  0  0  0
  -23.9055  -10.4306   21.0370 C   0  0  0  0  0  0
  -24.3631   -9.4229   21.9164 C   0  0  0  0  0  0
  -23.6362   -8.2238   22.0748 C   0  0  0  0  0  0
  -22.4343   -8.0253   21.3547 C   0  0  0  0  0  0
  -21.9929   -9.0207   20.4637 C   0  0  0  0  0  0
  -22.7214  -10.2115   20.3052 C   0  0  0  0  0  0
  -21.6844   -6.0752   22.5288 C   0  0  0  0  0  0
  -21.3978   -6.5664   23.8213 C   0  0  0  0  0  0
  -21.3678   -5.6811   24.9171 C   0  0  0  0  0  0
  -21.6072   -4.3082   24.7193 C   0  0  0  0  0  0
  -21.8815   -3.8165   23.4302 C   0  0  0  0  0  0
  -21.9198   -4.6997   22.3388 C   0  0  0  0  0  0
  -22.7880  -13.5224   21.1902 C   0  0  0  0  0  0
  -22.1637   -4.2180   21.0949 F   0  0  0  0  0  0
  -21.5687   -3.4576   25.7711 F   0  0  0  0  0  0
  -30.0234  -13.3138   20.4130 N   0  0  0  0  0  0
  -26.3004  -12.9302   20.3246 N   0  0  0  0  0  0
  -25.9315  -11.6472   20.5688 N   0  0  0  0  0  0
  -22.0489  -12.8216   22.0449 N   0  0  0  0  0  0
  -25.4287  -15.1850   20.3884 N   0  0  0  0  0  0
  -31.8041  -14.7304   20.1891 O   0  0  0  0  0  0
  -21.6661   -6.8881   21.4244 O   0  0  0  0  0  0
  -22.3555  -14.5537   20.6769 O   0  0  0  0  0  0
  -24.6175  -31.8672   23.2089 C   0  0  0  0  0  0
  -25.9049  -32.4805   23.8388 C   0  0  1  0  0  0
  -27.2350  -27.4097   20.1240 C   0  0  0  0  0  0
  -25.5911  -33.8616   24.2316 N   0  0  0  0  0  0
  -23.4036  -30.4890   21.5470 C   0  0  2  0  0  0
  -24.8532  -28.9504   20.1116 C   0  0  0  0  0  0
  -22.7427  -29.4668   22.4973 C   0  0  0  0  0  0
  -18.0278  -28.1381   22.8479 C   0  0  0  0  0  0
  -24.1475  -36.7297   23.2634 C   0  0  0  0  0  0
  -25.9355  -30.8253   21.3665 C   0  0  0  0  0  0
  -26.0127  -29.4590   20.7147 C   0  0  0  0  0  0
  -27.2080  -28.6980   20.7110 C   0  0  0  0  0  0
  -26.0590  -26.9238   19.5074 C   0  0  0  0  0  0
  -24.8743  -27.6852   19.5028 C   0  0  0  0  0  0
  -23.6125  -29.8181   20.1619 C   0  0  0  0  0  0
  -25.4096  -36.3106   24.0342 C   0  0  1  0  0  0
  -20.5852  -28.3683   23.1300 C   0  0  2  0  0  0
  -20.6755  -26.9413   22.5410 C   0  0  0  0  0  0
  -19.5739  -26.6381   21.5209 C   0  0  0  0  0  0
  -18.1920  -26.7941   22.1602 C   0  0  0  0  0  0
  -19.1511  -28.8846   23.2880 C   0  0  0  0  0  0
  -18.9458  -30.1449   23.8872 C   0  0  0  0  0  0
  -17.6456  -30.6591   24.0554 C   0  0  0  0  0  0
  -25.9039  -34.9469   23.5135 C   0  0  0  0  0  0
  -16.5350  -29.9082   23.6342 C   0  0  0  0  0  0
  -16.7265  -28.6510   23.0357 C   0  0  0  0  0  0
  -26.4465  -31.6596   25.0736 C   0  0  0  0  0  0
  -25.3720  -31.3720   26.1476 C   0  0  0  0  0  0
  -27.0322  -30.3032   24.6164 C   0  0  0  0  0  0
  -27.6029  -32.4326   25.7509 C   0  0  0  0  0  0
  -27.5581  -37.1792   24.8453 C   0  0  0  0  0  0
  -21.4151  -29.3044   22.3705 N   0  0  0  0  0  0
  -26.4271  -37.3797   23.9435 N   0  0  0  0  0  0
  -24.6678  -31.0773   22.0970 N   0  0  0  0  0  0
  -23.4201  -28.8233   23.3033 O   0  0  0  0  0  0
  -28.3905  -26.6480   20.1355 O   0  0  0  0  0  0
  -26.5601  -34.8936   22.4693 O   0  0  0  0  0  0
  -23.5364  -32.1437   23.7467 O   0  0  0  0  0  0
  -27.2295  -19.5921   17.8780 C   0  0  0  0  0  0
  -27.8551  -21.9590   17.6896 C   0  0  0  0  0  0
  -30.9129  -22.2180   18.7899 C   0  0  0  0  0  0
  -28.9596  -19.7447   21.8292 C   0  0  0  0  0  0
  -29.5821  -17.3942   18.6841 C   0  0  0  0  0  0
  -31.4554  -18.5573   19.8511 C   0  0  0  0  0  0
  -29.3342  -24.3276   20.1474 C   0  0  0  0  0  0
  -29.1356  -22.8389   20.6087 C   0  0  0  0  0  0
  -30.0224  -16.9549   21.1681 C   0  0  0  0  0  0
  -28.2720  -25.3194   20.6987 C   0  0  0  0  0  0
  -27.8123  -20.7796   18.6865 C   0  0  0  0  0  0
  -29.9356  -21.6888   19.8650 C   0  0  1  0  0  0
  -29.0380  -19.2957   20.3501 C   0  0  2  0  0  0
  -30.0030  -18.0572   20.0196 C   0  0  0  0  0  0
  -29.7840  -15.5334   20.8246 N   0  0  0  0  0  0
  -29.1284  -20.4782   19.3810 N   0  3  1  0  0  0
  -31.4759  -12.4565   19.1033 H   0  0  0  0  0  0
  -30.3505  -11.3176   19.7991 H   0  0  0  0  0  0
  -29.7440  -11.7990   17.4046 H   0  0  0  0  0  0
  -29.6603  -13.5077   17.7529 H   0  0  0  0  0  0
  -27.8178  -11.3220   18.7666 H   0  0  0  0  0  0
  -27.3691  -12.6763   17.7671 H   0  0  0  0  0  0
  -27.7001  -14.2505   19.5657 H   0  0  0  0  0  0
  -28.6984  -11.9359   21.3001 H   0  0  0  0  0  0
  -28.4747  -13.5685   21.8575 H   0  0  0  0  0  0
  -25.2748   -9.5777   22.4742 H   0  0  0  0  0  0
  -24.0121   -7.4638   22.7471 H   0  0  0  0  0  0
  -21.0859   -8.8630   19.8961 H   0  0  0  0  0  0
  -22.3568  -10.9642   19.6170 H   0  0  0  0  0  0
  -21.1894   -7.6161   23.9724 H   0  0  0  0  0  0
  -21.1535   -6.0529   25.9094 H   0  0  0  0  0  0
  -22.0591   -2.7637   23.2763 H   0  0  0  0  0  0
  -22.4049  -11.9847   22.4832 H   0  0  0  0  0  0
  -21.1085  -13.1223   22.2587 H   0  0  0  0  0  0
  -24.6540  -15.8303   20.4934 H   0  0  0  0  0  0
  -26.2619  -15.6268   20.0233 H   0  0  0  0  0  0
  -26.7133  -32.5505   23.1159 H   0  0  0  0  0  0
  -25.0092  -33.9757   25.0481 H   0  0  0  0  0  0
  -22.6936  -31.3067   21.4054 H   0  0  0  0  0  0
  -23.3759  -35.9600   23.3252 H   0  0  0  0  0  0
  -24.3593  -36.8960   22.2062 H   0  0  0  0  0  0
  -23.7190  -37.6473   23.6678 H   0  0  0  0  0  0
  -26.0596  -31.5906   20.5980 H   0  0  0  0  0  0
  -26.8178  -30.8713   21.9928 H   0  0  0  0  0  0
  -28.1004  -29.0876   21.1815 H   0  0  0  0  0  0
  -26.0546  -25.9553   19.0296 H   0  0  0  0  0  0
  -23.9880  -27.2908   19.0233 H   0  0  0  0  0  0
  -23.7142  -30.5871   19.3968 H   0  0  0  0  0  0
  -22.7387  -29.2329   19.8745 H   0  0  0  0  0  0
  -25.1261  -36.1946   25.0827 H   0  0  0  0  0  0
  -20.9949  -28.3245   24.1415 H   0  0  0  0  0  0
  -20.5654  -26.2310   23.3599 H   0  0  0  0  0  0
  -21.6630  -26.7452   22.1202 H   0  0  0  0  0  0
  -19.6898  -25.6292   21.1249 H   0  0  0  0  0  0
  -19.6683  -27.3166   20.6727 H   0  0  0  0  0  0
  -17.4207  -26.6704   21.3991 H   0  0  0  0  0  0
  -18.0288  -26.0067   22.8972 H   0  0  0  0  0  0
  -19.7940  -30.7261   24.2231 H   0  0  0  0  0  0
  -17.5036  -31.6275   24.5147 H   0  0  0  0  0  0
  -15.5358  -30.2980   23.7693 H   0  0  0  0  0  0
  -15.8665  -28.0825   22.7087 H   0  0  0  0  0  0
  -24.5903  -30.7047   25.7830 H   0  0  0  0  0  0
  -24.8892  -32.2881   26.4896 H   0  0  0  0  0  0
  -25.8062  -30.8930   27.0257 H   0  0  0  0  0  0
  -26.2912  -29.6785   24.1170 H   0  0  0  0  0  0
  -27.4020  -29.7282   25.4665 H   0  0  0  0  0  0
  -27.8767  -30.4340   23.9392 H   0  0  0  0  0  0
  -27.2630  -33.3611   26.2108 H   0  0  0  0  0  0
  -28.3832  -32.6911   25.0337 H   0  0  0  0  0  0
  -28.0705  -31.8443   26.5414 H   0  0  0  0  0  0
  -28.2546  -38.0142   24.7585 H   0  0  0  0  0  0
  -28.1125  -36.2686   24.6146 H   0  0  0  0  0  0
  -27.2332  -37.1280   25.8858 H   0  0  0  0  0  0
  -20.9325  -29.8781   21.6914 H   0  0  0  0  0  0
  -26.0149  -38.2861   24.1475 H   0  0  0  0  0  0
  -26.2768  -19.8731   17.4301 H   0  0  0  0  0  0
  -27.0048  -18.6997   18.4568 H   0  0  0  0  0  0
  -27.8812  -19.3117   17.0504 H   0  0  0  0  0  0
  -26.9314  -22.0191   17.1123 H   0  0  0  0  0  0
  -28.6541  -21.8463   16.9577 H   0  0  0  0  0  0
  -27.9482  -22.9257   18.1740 H   0  0  0  0  0  0
  -31.5750  -22.9808   19.2015 H   0  0  0  0  0  0
  -30.4165  -22.6781   17.9390 H   0  0  0  0  0  0
  -31.5589  -21.4309   18.4036 H   0  0  0  0  0  0
  -28.4307  -19.0234   22.4502 H   0  0  0  0  0  0
  -28.3645  -20.6492   21.9331 H   0  0  0  0  0  0
  -29.9339  -19.9211   22.2810 H   0  0  0  0  0  0
  -30.2754  -16.6035   18.3946 H   0  0  0  0  0  0
  -29.5911  -18.0941   17.8531 H   0  0  0  0  0  0
  -28.5934  -16.9391   18.7452 H   0  0  0  0  0  0
  -32.1480  -17.7199   19.7632 H   0  0  0  0  0  0
  -31.7716  -19.1561   20.7049 H   0  0  0  0  0  0
  -31.5919  -19.1560   18.9511 H   0  0  0  0  0  0
  -29.2962  -24.3926   19.0618 H   0  0  0  0  0  0
  -30.3299  -24.6744   20.4288 H   0  0  0  0  0  0
  -28.0707  -22.6236   20.6073 H   0  0  0  0  0  0
  -29.4039  -22.7959   21.6649 H   0  0  0  0  0  0
  -29.2151  -17.1483   21.8691 H   0  0  0  0  0  0
  -30.9388  -17.0168   21.7589 H   0  0  0  0  0  0
  -28.3777  -25.4006   21.7814 H   0  0  0  0  0  0
  -27.2860  -24.8894   20.5333 H   0  0  0  0  0  0
  -27.0860  -21.0235   19.4593 H   0  0  0  0  0  0
  -30.6346  -21.3031   20.6068 H   0  0  0  0  0  0
  -28.0481  -18.8688   20.2392 H   0  0  0  0  0  0
  -28.8311  -15.2271   20.9382 H   0  0  0  0  0  0
  -29.7139  -20.1085   18.6463 H   0  0  0  0  0  0
  1 25  1  0  0  0
  1 30  2  0  0  0
  1 85  1  0  0  0
  2  3  1  0  0  0
  2 25  1  0  0  0
  2 87  1  0  0  0
  2 88  1  0  0  0
  3  4  1  0  0  0
  3 89  1  0  0  0
  3 90  1  0  0  0
  4  5  1  0  0  0
  4 91  1  0  0  0
  4 92  1  0  0  0
  5  6  1  0  0  0
  5 26  1  0  0  0
  5 93  1  0  0  0
  6 25  1  0  0  0
  6 94  1  0  0  0
  6 95  1  0  0  0
  7  8  2  0  0  0
  7 26  1  0  0  0
  7 29  1  0  0  0
  8  9  1  0  0  0
  8 22  1  0  0  0
  9 10  1  0  0  0
  9 27  2  0  0  0
 10 11  2  0  0  0
 10 15  1  0  0  0
 11 12  1  0  0  0
 11 96  1  0  0  0
 12 13  2  0  0  0
 12 97  1  0  0  0
 13 14  1  0  0  0
 13 31  1  0  0  0
 14 15  2  0  0  0
 14 98  1  0  0  0
 15 99  1  0  0  0
 16 17  2  0  0  0
 16 21  1  0  0  0
 16 31  1  0  0  0
 17 18  1  0  0  0
 17100  1  0  0  0
 18 19  2  0  0  0
 18101  1  0  0  0
 19 20  1  0  0  0
 19 24  1  0  0  0
 20 21  2  0  0  0
 20102  1  0  0  0
 21 23  1  0  0  0
 22 28  1  0  0  0
 22 32  2  0  0  0
 26 27  1  0  0  0
 28103  1  0  0  0
 28104  1  0  0  0
 29105  1  0  0  0
 29106  1  0  0  0
 33 34  1  0  0  0
 33 66  1  0  0  0
 33 70  2  0  0  0
 34 36  1  0  0  0
 34 59  1  0  0  0
 34107  1  0  0  0
 35 44  2  0  0  0
 35 45  1  0  0  0
 35 68  1  0  0  0
 36 56  1  0  0  0
 36108  1  0  0  0
 37 39  1  0  0  0
 37 47  1  0  0  0
 37 66  1  0  0  0
 37109  1  0  0  0
 38 43  2  0  0  0
 38 46  1  0  0  0
 38 47  1  0  0  0
 39 64  1  0  0  0
 39 67  2  0  0  0
 40 52  1  0  0  0
 40 53  2  0  0  0
 40 58  1  0  0  0
 41110  1  0  0  0
 41111  1  0  0  0
 41112  1  0  0  0
 41 48  1  0  0  0
 42 43  1  0  0  0
 42 66  1  0  0  0
 42113  1  0  0  0
 42114  1  0  0  0
 43 44  1  0  0  0
 44115  1  0  0  0
 45 46  2  0  0  0
 45116  1  0  0  0
 46117  1  0  0  0
 47118  1  0  0  0
 47119  1  0  0  0
 48 56  1  0  0  0
 48 65  1  0  0  0
 48120  1  0  0  0
 49 50  1  0  0  0
 49 53  1  0  0  0
 49 64  1  0  0  0
 49121  1  0  0  0
 50 51  1  0  0  0
 50122  1  0  0  0
 50123  1  0  0  0
 51 52  1  0  0  0
 51124  1  0  0  0
 51125  1  0  0  0
 52126  1  0  0  0
 52127  1  0  0  0
 53 54  1  0  0  0
 54 55  2  0  0  0
 54128  1  0  0  0
 55 57  1  0  0  0
 55129  1  0  0  0
 56 69  2  0  0  0
 57 58  2  0  0  0
 57130  1  0  0  0
 58131  1  0  0  0
 59 60  1  0  0  0
 59 61  1  0  0  0
 59 62  1  0  0  0
 60132  1  0  0  0
 60133  1  0  0  0
 60134  1  0  0  0
 61135  1  0  0  0
 61136  1  0  0  0
 61137  1  0  0  0
 62138  1  0  0  0
 62139  1  0  0  0
 62140  1  0  0  0
 63 65  1  0  0  0
 63141  1  0  0  0
 63142  1  0  0  0
 63143  1  0  0  0
 64144  1  0  0  0
 65145  1  0  0  0
 68 80  1  0  0  0
 71146  1  0  0  0
 71147  1  0  0  0
 71148  1  0  0  0
 71 81  1  0  0  0
 72 81  1  0  0  0
 72149  1  0  0  0
 72150  1  0  0  0
 72151  1  0  0  0
 73152  1  0  0  0
 73153  1  0  0  0
 73154  1  0  0  0
 73 82  1  0  0  0
 74155  1  0  0  0
 74156  1  0  0  0
 74157  1  0  0  0
 74 83  1  0  0  0
 75158  1  0  0  0
 75159  1  0  0  0
 75160  1  0  0  0
 75 84  1  0  0  0
 76 84  1  0  0  0
 76161  1  0  0  0
 76162  1  0  0  0
 76163  1  0  0  0
 77 78  1  0  0  0
 77 80  1  0  0  0
 77164  1  0  0  0
 77165  1  0  0  0
 78 82  1  0  0  0
 78166  1  0  0  0
 78167  1  0  0  0
 79 84  1  0  0  0
 79 85  1  0  0  0
 79168  1  0  0  0
 79169  1  0  0  0
 80170  1  0  0  0
 80171  1  0  0  0
 81172  1  0  0  0
 81 86  1  0  0  0
 82 86  1  0  0  0
 82173  1  0  0  0
 83 84  1  0  0  0
 83 86  1  0  0  0
 83174  1  0  0  0
 85175  1  0  0  0
 86176  1  0  0  0
M  CHG  1  86   1
M  ISO  4   1 100  68 101  80 101  85 100
M  END
> <chiral flag>
0

> <version>
0

> <s_m_source_file>
/data/baiqing/PycharmProjects/Reinvent-master-3.2/result/LINK_invent/BTK/process_docking_weight1_custom_sum_contain_oxygen_bond_distance_aromatic_linkinvent_7_9_3/rearranged_h_0017.sdf

> <i_m_source_file_index>
83

> <r_mmod_Potential_Energy-OPLS-2005>
58.6689605712891

> <r_mmod_Stretch_Energy-OPLS-2005>
68.9661026000977

> <r_mmod_Bend_Energy-OPLS-2005>
157.180038452148

> <r_mmod_Torsional_Energy-OPLS-2005>
319.949493408203

> <r_mmod_Improper_Torsional_Energy-OPLS-2005>
4.64840984344482

> <r_mmod_Van_der_Waal_Energy-OPLS-2005>
149.664428710938

> <r_mmod_Electrostatic_Energy-OPLS-2005>
-248.318267822266

> <r_mmod_Solvation_Energy-OPLS-2005>
-415.1416015625

> <b_mmod_Minimization_Converged-OPLS-2005>
0

> <r_mmod_RMS_Derivative-OPLS-2005>
5.47594833374023

$$$$
85
                    3D
 Structure written by MMmdl.
183191  0  0  1  0            999 V2000
  -30.8926  -14.2272   20.7837 C   0  0  0  0  0  0
  -30.3937  -12.2928   19.3647 C   0  0  0  0  0  0
  -29.4619  -12.5721   18.1788 C   0  0  0  0  0  0
  -27.9989  -12.3959   18.6103 C   0  0  0  0  0  0
  -27.6593  -13.2320   19.8660 C   0  0  2  0  0  0
  -28.7004  -12.9970   20.9815 C   0  0  0  0  0  0
  -25.2518  -13.8201   20.5723 C   0  0  0  0  0  0
  -24.1800  -13.0422   20.9198 C   0  0  0  0  0  0
  -24.6402  -11.6921   20.8687 C   0  0  0  0  0  0
  -23.9057  -10.4298   21.0328 C   0  0  0  0  0  0
  -24.3573   -9.4239   21.9139 C   0  0  0  0  0  0
  -23.6260   -8.2261   22.0715 C   0  0  0  0  0  0
  -22.4263   -8.0290   21.3499 C   0  0  0  0  0  0
  -21.9908   -9.0245   20.4577 C   0  0  0  0  0  0
  -22.7227  -10.2132   20.2966 C   0  0  0  0  0  0
  -21.6862   -6.0724   22.5260 C   0  0  0  0  0  0
  -21.4049   -6.5611   23.8200 C   0  0  0  0  0  0
  -21.3724   -5.6753   24.9153 C   0  0  0  0  0  0
  -21.6084   -4.3010   24.7197 C   0  0  0  0  0  0
  -21.8814   -3.8105   23.4300 C   0  0  0  0  0  0
  -21.9189   -4.6943   22.3365 C   0  0  0  0  0  0
  -22.7814  -13.5215   21.1818 C   0  0  0  0  0  0
  -22.1636   -4.2124   21.0922 F   0  0  0  0  0  0
  -21.5623   -3.4511   25.7731 F   0  0  0  0  0  0
  -30.0662  -13.1988   20.4743 N   0  0  0  0  0  0
  -26.3004  -12.9464   20.3344 N   0  0  0  0  0  0
  -25.9333  -11.6573   20.5662 N   0  0  0  0  0  0
  -22.0421  -12.8270   22.0402 N   0  0  0  0  0  0
  -25.4069  -15.1910   20.4223 N   0  0  0  0  0  0
  -31.7262  -14.6720   19.9919 O   0  0  0  0  0  0
  -21.6610   -6.8898   21.4234 O   0  0  0  0  0  0
  -22.3486  -14.5498   20.6656 O   0  0  0  0  0  0
  -24.6093  -31.8716   23.2105 C   0  0  0  0  0  0
  -25.9015  -32.4837   23.8397 C   0  0  1  0  0  0
  -27.2383  -27.4685   20.0938 C   0  0  0  0  0  0
  -25.5885  -33.8625   24.2342 N   0  0  0  0  0  0
  -23.3973  -30.4936   21.5482 C   0  0  2  0  0  0
  -24.8476  -28.9586   20.1203 C   0  0  0  0  0  0
  -22.7389  -29.4675   22.4967 C   0  0  0  0  0  0
  -18.0272  -28.1381   22.8489 C   0  0  0  0  0  0
  -24.1488  -36.7313   23.2635 C   0  0  0  0  0  0
  -25.9210  -30.8467   21.3607 C   0  0  0  0  0  0
  -26.0034  -29.4792   20.7177 C   0  0  0  0  0  0
  -27.2019  -28.7351   20.7129 C   0  0  0  0  0  0
  -26.0747  -26.9587   19.4854 C   0  0  0  0  0  0
  -24.8738  -27.6925   19.5105 C   0  0  0  0  0  0
  -23.6082  -29.8221   20.1644 C   0  0  0  0  0  0
  -25.4108  -36.3115   24.0338 C   0  0  1  0  0  0
  -20.5859  -28.3669   23.1318 C   0  0  2  0  0  0
  -20.6764  -26.9404   22.5413 C   0  0  0  0  0  0
  -19.5744  -26.6392   21.5211 C   0  0  0  0  0  0
  -18.1925  -26.7927   22.1621 C   0  0  0  0  0  0
  -19.1517  -28.8841   23.2911 C   0  0  0  0  0  0
  -18.9452  -30.1447   23.8920 C   0  0  0  0  0  0
  -17.6458  -30.6589   24.0572 C   0  0  0  0  0  0
  -25.9031  -34.9478   23.5139 C   0  0  0  0  0  0
  -16.5349  -29.9096   23.6323 C   0  0  0  0  0  0
  -16.7266  -28.6511   23.0346 C   0  0  0  0  0  0
  -26.4473  -31.6600   25.0697 C   0  0  0  0  0  0
  -25.3735  -31.3710   26.1439 C   0  0  0  0  0  0
  -27.0313  -30.3045   24.6062 C   0  0  0  0  0  0
  -27.6079  -32.4288   25.7447 C   0  0  0  0  0  0
  -27.5581  -37.1803   24.8461 C   0  0  0  0  0  0
  -21.4109  -29.3034   22.3707 N   0  0  0  0  0  0
  -26.4295  -37.3796   23.9406 N   0  0  0  0  0  0
  -24.6609  -31.0848   22.0995 N   0  0  0  0  0  0
  -23.4170  -28.8218   23.2994 O   0  0  0  0  0  0
  -28.3953  -26.7344   20.0536 O   0  0  0  0  0  0
  -26.5595  -34.8928   22.4699 O   0  0  0  0  0  0
  -23.5302  -32.1438   23.7536 O   0  0  0  0  0  0
  -28.7666  -15.8706   24.6328 C   0  0  0  0  0  0
  -28.8765  -17.2510   24.3783 C   0  0  0  0  0  0
  -29.6146  -14.8982   24.0477 C   0  0  0  0  0  0
  -29.9279  -17.6895   23.5248 C   0  0  0  0  0  0
  -30.3801  -15.3298   22.9189 C   0  0  0  0  0  0
  -30.5982  -16.7238   22.7302 C   0  0  0  0  0  0
  -30.4316  -19.1342   23.4551 C   0  0  0  0  0  0
  -32.4465  -13.6880   24.8104 C   0  0  0  0  0  0
  -29.7407  -12.2643   23.9221 C   0  0  0  0  0  0
  -28.6853  -13.2914   25.8495 C   0  0  0  0  0  0
  -27.8719  -18.1104   25.1691 C   0  0  0  0  0  0
  -31.1324  -13.5455   25.5980 C   0  0  0  0  0  0
  -27.5679  -22.2668   22.2491 C   0  0  0  0  0  0
  -28.1227  -23.6992   22.3225 C   0  0  0  0  0  0
  -27.7152  -21.5994   23.6255 C   0  0  0  0  0  0
  -27.9754  -24.5197   21.0365 C   0  0  0  0  0  0
  -27.3387  -20.1073   23.7212 C   0  0  0  0  0  0
  -28.6029  -25.9198   21.2033 C   0  0  0  0  0  0
  -29.7988  -13.5311   24.7949 C   0  0  0  0  0  0
  -31.1036  -14.4265   22.0955 N   0  0  0  0  0  0
  -27.8866  -19.5699   24.9854 N   0  3  0  0  0  0
  -31.7748  -17.2710   21.5764 Cl  0  0  0  0  0  0
  -31.4348  -12.3826   19.0492 H   0  0  0  0  0  0
  -30.2819  -11.2611   19.6985 H   0  0  0  0  0  0
  -29.6969  -11.9037   17.3485 H   0  0  0  0  0  0
  -29.6143  -13.5885   17.8101 H   0  0  0  0  0  0
  -27.8399  -11.3387   18.8215 H   0  0  0  0  0  0
  -27.3232  -12.6491   17.7922 H   0  0  0  0  0  0
  -27.7039  -14.2828   19.5770 H   0  0  0  0  0  0
  -28.6131  -11.9704   21.3311 H   0  0  0  0  0  0
  -28.4791  -13.6488   21.8259 H   0  0  0  0  0  0
  -25.2677   -9.5767   22.4745 H   0  0  0  0  0  0
  -23.9914   -7.4684   22.7511 H   0  0  0  0  0  0
  -21.0809   -8.8772   19.8948 H   0  0  0  0  0  0
  -22.3684  -10.9639   19.6040 H   0  0  0  0  0  0
  -21.2061   -7.6128   23.9709 H   0  0  0  0  0  0
  -21.1556   -6.0476   25.9058 H   0  0  0  0  0  0
  -22.0545   -2.7565   23.2776 H   0  0  0  0  0  0
  -22.3998  -12.0020   22.4986 H   0  0  0  0  0  0
  -21.1091  -13.1486   22.2566 H   0  0  0  0  0  0
  -24.6148  -15.8197   20.5025 H   0  0  0  0  0  0
  -26.2721  -15.6620   20.1869 H   0  0  0  0  0  0
  -26.7083  -32.5585   23.1176 H   0  0  0  0  0  0
  -25.0028  -33.9795   25.0482 H   0  0  0  0  0  0
  -22.6837  -31.3073   21.4054 H   0  0  0  0  0  0
  -23.3748  -35.9648   23.3310 H   0  0  0  0  0  0
  -24.3583  -36.8911   22.2046 H   0  0  0  0  0  0
  -23.7244  -37.6523   23.6637 H   0  0  0  0  0  0
  -26.0219  -31.6123   20.5891 H   0  0  0  0  0  0
  -26.8128  -30.9109   21.9722 H   0  0  0  0  0  0
  -28.0939  -29.1298   21.1798 H   0  0  0  0  0  0
  -26.1009  -25.9949   18.9974 H   0  0  0  0  0  0
  -23.9837  -27.2842   19.0530 H   0  0  0  0  0  0
  -23.7152  -30.5935   19.4001 H   0  0  0  0  0  0
  -22.7356  -29.2366   19.8686 H   0  0  0  0  0  0
  -25.1284  -36.1985   25.0830 H   0  0  0  0  0  0
  -20.9968  -28.3247   24.1436 H   0  0  0  0  0  0
  -20.5683  -26.2273   23.3603 H   0  0  0  0  0  0
  -21.6642  -26.7453   22.1209 H   0  0  0  0  0  0
  -19.6914  -25.6317   21.1219 H   0  0  0  0  0  0
  -19.6691  -27.3219   20.6762 H   0  0  0  0  0  0
  -17.4196  -26.6682   21.4025 H   0  0  0  0  0  0
  -18.0324  -26.0073   22.9016 H   0  0  0  0  0  0
  -19.7931  -30.7253   24.2303 H   0  0  0  0  0  0
  -17.5016  -31.6271   24.5170 H   0  0  0  0  0  0
  -15.5351  -30.3013   23.7636 H   0  0  0  0  0  0
  -15.8662  -28.0844   22.7047 H   0  0  0  0  0  0
  -24.5905  -30.7074   25.7745 H   0  0  0  0  0  0
  -24.8936  -32.2880   26.4865 H   0  0  0  0  0  0
  -25.8065  -30.8865   27.0198 H   0  0  0  0  0  0
  -26.2863  -29.6775   24.1147 H   0  0  0  0  0  0
  -27.4132  -29.7301   25.4514 H   0  0  0  0  0  0
  -27.8667  -30.4367   23.9181 H   0  0  0  0  0  0
  -27.2742  -33.3576   26.2082 H   0  0  0  0  0  0
  -28.3868  -32.6854   25.0251 H   0  0  0  0  0  0
  -28.0777  -31.8360   26.5309 H   0  0  0  0  0  0
  -28.2608  -38.0094   24.7515 H   0  0  0  0  0  0
  -28.1071  -36.2627   24.6283 H   0  0  0  0  0  0
  -27.2295  -37.1445   25.8863 H   0  0  0  0  0  0
  -20.9252  -29.8756   21.6939 H   0  0  0  0  0  0
  -26.0187  -38.2871   24.1421 H   0  0  0  0  0  0
  -28.0510  -15.6059   25.3954 H   0  0  0  0  0  0
  -29.9946  -19.6761   22.6145 H   0  0  0  0  0  0
  -31.5131  -19.1585   23.3225 H   0  0  0  0  0  0
  -30.2904  -19.6892   24.3799 H   0  0  0  0  0  0
  -32.5215  -12.9604   24.0000 H   0  0  0  0  0  0
  -33.3064  -13.5350   25.4645 H   0  0  0  0  0  0
  -32.5588  -14.6898   24.4017 H   0  0  0  0  0  0
  -30.4926  -12.2270   23.1393 H   0  0  0  0  0  0
  -28.7517  -12.1483   23.4890 H   0  0  0  0  0  0
  -29.9052  -11.3711   24.5267 H   0  0  0  0  0  0
  -27.6912  -13.3134   25.3989 H   0  0  0  0  0  0
  -28.7120  -14.0161   26.6642 H   0  0  0  0  0  0
  -28.7862  -12.3149   26.3284 H   0  0  0  0  0  0
  -28.0567  -17.9255   26.2284 H   0  0  0  0  0  0
  -26.8616  -17.7424   24.9790 H   0  0  0  0  0  0
  -31.0913  -14.3597   26.3231 H   0  0  0  0  0  0
  -31.2014  -12.6261   26.1836 H   0  0  0  0  0  0
  -28.1133  -21.7001   21.4925 H   0  0  0  0  0  0
  -26.5217  -22.2764   21.9408 H   0  0  0  0  0  0
  -29.1797  -23.6554   22.5931 H   0  0  0  0  0  0
  -27.6259  -24.2340   23.1345 H   0  0  0  0  0  0
  -27.1231  -22.1567   24.3522 H   0  0  0  0  0  0
  -28.7542  -21.7172   23.9374 H   0  0  0  0  0  0
  -26.9159  -24.6031   20.7926 H   0  0  0  0  0  0
  -28.4514  -23.9964   20.2059 H   0  0  0  0  0  0
  -27.7340  -19.5527   22.8710 H   0  0  0  0  0  0
  -26.2552  -19.9780   23.7001 H   0  0  0  0  0  0
  -29.6783  -25.8194   21.3570 H   0  0  0  0  0  0
  -28.2129  -26.4045   22.1019 H   0  0  0  0  0  0
  -32.0834  -14.6545   22.1708 H   0  0  0  0  0  0
  -28.8439  -19.8613   25.0860 H   0  0  0  0  0  0
  -27.3680  -19.9738   25.7484 H   0  0  0  0  0  0
  1 25  1  0  0  0
  1 30  2  0  0  0
  1 90  1  0  0  0
  2  3  1  0  0  0
  2 25  1  0  0  0
  2 93  1  0  0  0
  2 94  1  0  0  0
  3  4  1  0  0  0
  3 95  1  0  0  0
  3 96  1  0  0  0
  4  5  1  0  0  0
  4 97  1  0  0  0
  4 98  1  0  0  0
  5  6  1  0  0  0
  5 26  1  0  0  0
  5 99  1  0  0  0
  6 25  1  0  0  0
  6100  1  0  0  0
  6101  1  0  0  0
  7  8  2  0  0  0
  7 26  1  0  0  0
  7 29  1  0  0  0
  8  9  1  0  0  0
  8 22  1  0  0  0
  9 10  1  0  0  0
  9 27  2  0  0  0
 10 11  2  0  0  0
 10 15  1  0  0  0
 11 12  1  0  0  0
 11102  1  0  0  0
 12 13  2  0  0  0
 12103  1  0  0  0
 13 14  1  0  0  0
 13 31  1  0  0  0
 14 15  2  0  0  0
 14104  1  0  0  0
 15105  1  0  0  0
 16 17  2  0  0  0
 16 21  1  0  0  0
 16 31  1  0  0  0
 17 18  1  0  0  0
 17106  1  0  0  0
 18 19  2  0  0  0
 18107  1  0  0  0
 19 20  1  0  0  0
 19 24  1  0  0  0
 20 21  2  0  0  0
 20108  1  0  0  0
 21 23  1  0  0  0
 22 28  1  0  0  0
 22 32  2  0  0  0
 26 27  1  0  0  0
 28109  1  0  0  0
 28110  1  0  0  0
 29111  1  0  0  0
 29112  1  0  0  0
 33 34  1  0  0  0
 33 66  1  0  0  0
 33 70  2  0  0  0
 34 36  1  0  0  0
 34 59  1  0  0  0
 34113  1  0  0  0
 35 44  2  0  0  0
 35 45  1  0  0  0
 35 68  1  0  0  0
 36 56  1  0  0  0
 36114  1  0  0  0
 37 39  1  0  0  0
 37 47  1  0  0  0
 37 66  1  0  0  0
 37115  1  0  0  0
 38 43  2  0  0  0
 38 46  1  0  0  0
 38 47  1  0  0  0
 39 64  1  0  0  0
 39 67  2  0  0  0
 40 52  1  0  0  0
 40 53  2  0  0  0
 40 58  1  0  0  0
 41116  1  0  0  0
 41117  1  0  0  0
 41118  1  0  0  0
 41 48  1  0  0  0
 42 43  1  0  0  0
 42 66  1  0  0  0
 42119  1  0  0  0
 42120  1  0  0  0
 43 44  1  0  0  0
 44121  1  0  0  0
 45 46  2  0  0  0
 45122  1  0  0  0
 46123  1  0  0  0
 47124  1  0  0  0
 47125  1  0  0  0
 48 56  1  0  0  0
 48 65  1  0  0  0
 48126  1  0  0  0
 49 50  1  0  0  0
 49 53  1  0  0  0
 49 64  1  0  0  0
 49127  1  0  0  0
 50 51  1  0  0  0
 50128  1  0  0  0
 50129  1  0  0  0
 51 52  1  0  0  0
 51130  1  0  0  0
 51131  1  0  0  0
 52132  1  0  0  0
 52133  1  0  0  0
 53 54  1  0  0  0
 54 55  2  0  0  0
 54134  1  0  0  0
 55 57  1  0  0  0
 55135  1  0  0  0
 56 69  2  0  0  0
 57 58  2  0  0  0
 57136  1  0  0  0
 58137  1  0  0  0
 59 60  1  0  0  0
 59 61  1  0  0  0
 59 62  1  0  0  0
 60138  1  0  0  0
 60139  1  0  0  0
 60140  1  0  0  0
 61141  1  0  0  0
 61142  1  0  0  0
 61143  1  0  0  0
 62144  1  0  0  0
 62145  1  0  0  0
 62146  1  0  0  0
 63 65  1  0  0  0
 63147  1  0  0  0
 63148  1  0  0  0
 63149  1  0  0  0
 64150  1  0  0  0
 65151  1  0  0  0
 68 88  1  0  0  0
 71 72  2  0  0  0
 71 73  1  0  0  0
 71152  1  0  0  0
 72 74  1  0  0  0
 72 81  1  0  0  0
 73 75  2  0  0  0
 73 89  1  0  0  0
 74 76  2  0  0  0
 74 77  1  0  0  0
 75 76  1  0  0  0
 75 90  1  0  0  0
 76 92  1  0  0  0
 77153  1  0  0  0
 77154  1  0  0  0
 77155  1  0  0  0
 78 82  1  0  0  0
 78156  1  0  0  0
 78157  1  0  0  0
 78158  1  0  0  0
 79159  1  0  0  0
 79160  1  0  0  0
 79161  1  0  0  0
 79 89  1  0  0  0
 80 89  1  0  0  0
 80162  1  0  0  0
 80163  1  0  0  0
 80164  1  0  0  0
 81 91  1  0  0  0
 81165  1  0  0  0
 81166  1  0  0  0
 82 89  1  0  0  0
 82167  1  0  0  0
 82168  1  0  0  0
 83 84  1  0  0  0
 83 85  1  0  0  0
 83169  1  0  0  0
 83170  1  0  0  0
 84 86  1  0  0  0
 84171  1  0  0  0
 84172  1  0  0  0
 85 87  1  0  0  0
 85173  1  0  0  0
 85174  1  0  0  0
 86 88  1  0  0  0
 86175  1  0  0  0
 86176  1  0  0  0
 87 91  1  0  0  0
 87177  1  0  0  0
 87178  1  0  0  0
 88179  1  0  0  0
 88180  1  0  0  0
 90181  1  0  0  0
 91182  1  0  0  0
 91183  1  0  0  0
M  CHG  1  91   1
M  ISO  4   1 100  68 101  88 101  90 100
M  END
> <chiral flag>
0

> <version>
0

> <s_m_source_file>
/data/baiqing/PycharmProjects/Reinvent-master-3.2/result/LINK_invent/BTK/process_docking_weight1_custom_sum_contain_oxygen_bond_distance_aromatic_linkinvent_7_9_3/rearranged_h_0017.sdf

> <i_m_source_file_index>
84

> <r_mmod_Potential_Energy-OPLS-2005>
-48.794849395752

> <r_mmod_Stretch_Energy-OPLS-2005>
42.6998405456543

> <r_mmod_Bend_Energy-OPLS-2005>
152.543685913086

> <r_mmod_Torsional_Energy-OPLS-2005>
336.087951660156

> <r_mmod_Improper_Torsional_Energy-OPLS-2005>
21.5869903564453

> <r_mmod_Van_der_Waal_Energy-OPLS-2005>
170.356887817383

> <r_mmod_Electrostatic_Energy-OPLS-2005>
-330.278625488281

> <r_mmod_Solvation_Energy-OPLS-2005>
-454.290222167969

> <b_mmod_Minimization_Converged-OPLS-2005>
0

> <r_mmod_RMS_Derivative-OPLS-2005>
4.12652921676636

$$$$
86
                    3D
 Structure written by MMmdl.
144152  0  0  1  0            999 V2000
  -30.3001  -15.5951   20.3339 C   0  0  0  0  0  0
  -30.4335  -13.0461   19.5496 C   0  0  0  0  0  0
  -29.5547  -12.6508   18.3276 C   0  0  0  0  0  0
  -28.1223  -12.3048   18.7628 C   0  0  0  0  0  0
  -27.6016  -13.3047   19.8201 C   0  0  2  0  0  0
  -28.6191  -13.6079   20.9458 C   0  0  0  0  0  0
  -25.2338  -13.8283   20.5783 C   0  0  0  0  0  0
  -24.1723  -13.0437   20.9281 C   0  0  0  0  0  0
  -24.6420  -11.6946   20.8762 C   0  0  0  0  0  0
  -23.9119  -10.4295   21.0399 C   0  0  0  0  0  0
  -24.3654   -9.4207   21.9181 C   0  0  0  0  0  0
  -23.6314   -8.2248   22.0756 C   0  0  0  0  0  0
  -22.4294   -8.0290   21.3547 C   0  0  0  0  0  0
  -21.9942   -9.0265   20.4646 C   0  0  0  0  0  0
  -22.7285  -10.2136   20.3052 C   0  0  0  0  0  0
  -21.6860   -6.0743   22.5277 C   0  0  0  0  0  0
  -21.4020   -6.5645   23.8210 C   0  0  0  0  0  0
  -21.3659   -5.6796   24.9172 C   0  0  0  0  0  0
  -21.6044   -4.3059   24.7222 C   0  0  0  0  0  0
  -21.8817   -3.8152   23.4342 C   0  0  0  0  0  0
  -21.9195   -4.6970   22.3399 C   0  0  0  0  0  0
  -22.7733  -13.5171   21.1915 C   0  0  0  0  0  0
  -22.1662   -4.2155   21.0977 F   0  0  0  0  0  0
  -21.5627   -3.4540   25.7734 F   0  0  0  0  0  0
  -29.8060  -14.2201   20.3059 N   0  0  0  0  0  0
  -26.2792  -12.9611   20.3245 N   0  0  0  0  0  0
  -25.9369  -11.6684   20.5711 N   0  0  0  0  0  0
  -22.0402  -12.8146   22.0470 N   0  0  0  0  0  0
  -25.3921  -15.2020   20.4212 N   0  0  0  0  0  0
  -31.5266  -15.5742   20.1162 O   0  0  0  0  0  0
  -21.6650   -6.8890   21.4242 O   0  0  0  0  0  0
  -22.3401  -14.5464   20.6749 O   0  0  0  0  0  0
  -24.6829  -31.8005   23.1522 C   0  0  0  0  0  0
  -25.9413  -32.4471   23.8065 C   0  0  1  0  0  0
  -27.2297  -26.7139   20.2128 C   0  0  0  0  0  0
  -25.5999  -33.8295   24.1956 N   0  0  0  0  0  0
  -23.5093  -30.4029   21.5048 C   0  0  2  0  0  0
  -24.9688  -28.7469   20.1152 C   0  0  0  0  0  0
  -22.7767  -29.4319   22.4703 C   0  0  0  0  0  0
  -18.0342  -28.1428   22.8459 C   0  0  0  0  0  0
  -24.1490  -36.7149   23.2651 C   0  0  0  0  0  0
  -26.0895  -30.5374   21.4156 C   0  0  0  0  0  0
  -26.1563  -29.1034   20.7655 C   0  0  0  0  0  0
  -27.2711  -28.1133   20.7846 C   0  0  0  0  0  0
  -26.0120  -26.5672   19.5005 C   0  0  0  0  0  0
  -24.9352  -27.5045   19.4589 C   0  0  0  0  0  0
  -23.7635  -29.7001   20.1398 C   0  0  0  0  0  0
  -25.4141  -36.2896   24.0282 C   0  0  1  0  0  0
  -20.5979  -28.3784   23.1143 C   0  0  2  0  0  0
  -20.6808  -26.9442   22.5405 C   0  0  0  0  0  0
  -19.5780  -26.6375   21.5221 C   0  0  0  0  0  0
  -18.1964  -26.7956   22.1626 C   0  0  0  0  0  0
  -19.1610  -28.8930   23.2784 C   0  0  0  0  0  0
  -18.9515  -30.1516   23.8826 C   0  0  0  0  0  0
  -17.6504  -30.6609   24.0553 C   0  0  0  0  0  0
  -25.9121  -34.9287   23.4956 C   0  0  0  0  0  0
  -16.5393  -29.9091   23.6355 C   0  0  0  0  0  0
  -16.7323  -28.6514   23.0371 C   0  0  0  0  0  0
  -26.4596  -31.6505   25.0685 C   0  0  0  0  0  0
  -25.3662  -31.3826   26.1303 C   0  0  0  0  0  0
  -27.0526  -30.2841   24.6580 C   0  0  0  0  0  0
  -27.6044  -32.4369   25.7503 C   0  0  0  0  0  0
  -27.5560  -37.1733   24.8467 C   0  0  0  0  0  0
  -21.4415  -29.3029   22.3456 N   0  0  0  0  0  0
  -26.4265  -37.3659   23.9412 N   0  0  0  0  0  0
  -24.7837  -30.9466   22.0766 N   0  0  0  0  0  0
  -23.4215  -28.7924   23.3045 O   0  0  0  0  0  0
  -28.1787  -25.4888   20.3153 O   0  0  0  0  0  0
  -26.5758  -34.8864   22.4570 O   0  0  0  0  0  0
  -23.5850  -32.1072   23.6484 O   0  0  0  0  0  0
  -30.0423  -19.7657   19.7481 C   0  0  0  0  0  0
  -28.5929  -22.0572   20.2875 C   0  0  0  0  0  0
  -29.3321  -18.6217   20.3955 C   0  0  0  0  0  0
  -29.7156  -21.2699   19.6838 C   0  0  0  0  0  0
  -27.8998  -20.9150   20.9500 C   0  0  0  0  0  0
  -28.2237  -19.4154   20.9926 C   0  0  0  0  0  0
  -27.9154  -23.7849   20.0176 C   0  0  0  0  0  0
  -29.4730  -16.9009   20.4627 N   0  0  0  0  0  0
  -30.7975  -22.1981   18.7097 Cl  0  0  0  0  0  0
  -26.4517  -21.3848   21.7774 Cl  0  0  0  0  0  0
  -27.1069  -18.4175   21.8626 Cl  0  0  0  0  0  0
  -31.4300  -13.3055   19.1903 H   0  0  0  0  0  0
  -30.5856  -12.1908   20.2098 H   0  0  0  0  0  0
  -29.9994  -11.8112   17.7917 H   0  0  0  0  0  0
  -29.5277  -13.4842   17.6241 H   0  0  0  0  0  0
  -28.1360  -11.3008   19.1883 H   0  0  0  0  0  0
  -27.4550  -12.2660   17.9010 H   0  0  0  0  0  0
  -27.4741  -14.2360   19.2665 H   0  0  0  0  0  0
  -28.8650  -12.7141   21.5211 H   0  0  0  0  0  0
  -28.1932  -14.3200   21.6542 H   0  0  0  0  0  0
  -25.2792   -9.5681   22.4766 H   0  0  0  0  0  0
  -24.0013   -7.4643   22.7483 H   0  0  0  0  0  0
  -21.0870   -8.8795   19.8953 H   0  0  0  0  0  0
  -22.3744  -10.9680   19.6165 H   0  0  0  0  0  0
  -21.2015   -7.6153   23.9715 H   0  0  0  0  0  0
  -21.1482   -6.0526   25.9075 H   0  0  0  0  0  0
  -22.0596   -2.7615   23.2839 H   0  0  0  0  0  0
  -22.4045  -11.9819   22.4857 H   0  0  0  0  0  0
  -21.1011  -13.1144   22.2679 H   0  0  0  0  0  0
  -24.6209  -15.8483   20.5458 H   0  0  0  0  0  0
  -26.2282  -15.6491   20.0720 H   0  0  0  0  0  0
  -26.7495  -32.4952   23.0777 H   0  0  0  0  0  0
  -25.0072  -33.9333   25.0061 H   0  0  0  0  0  0
  -22.8340  -31.2399   21.3153 H   0  0  0  0  0  0
  -23.3771  -35.9459   23.3266 H   0  0  0  0  0  0
  -24.3554  -36.8857   22.2074 H   0  0  0  0  0  0
  -23.7231  -37.6309   23.6754 H   0  0  0  0  0  0
  -26.2928  -31.2634   20.6271 H   0  0  0  0  0  0
  -26.9401  -30.6044   22.0815 H   0  0  0  0  0  0
  -28.1615  -28.3888   21.3319 H   0  0  0  0  0  0
  -25.8472  -25.6253   18.9973 H   0  0  0  0  0  0
  -24.0395  -27.2241   18.9216 H   0  0  0  0  0  0
  -23.9368  -30.4606   19.3775 H   0  0  0  0  0  0
  -22.8688  -29.1653   19.8163 H   0  0  0  0  0  0
  -25.1349  -36.1654   25.0771 H   0  0  0  0  0  0
  -21.0070  -28.3413   24.1266 H   0  0  0  0  0  0
  -20.5676  -26.2407   23.3670 H   0  0  0  0  0  0
  -21.6668  -26.7389   22.1217 H   0  0  0  0  0  0
  -19.6931  -25.6268   21.1296 H   0  0  0  0  0  0
  -19.6721  -27.3145   20.6718 H   0  0  0  0  0  0
  -17.4234  -26.6707   21.4028 H   0  0  0  0  0  0
  -18.0348  -26.0118   22.9041 H   0  0  0  0  0  0
  -19.7990  -30.7355   24.2161 H   0  0  0  0  0  0
  -17.5055  -31.6280   24.5171 H   0  0  0  0  0  0
  -15.5391  -30.2971   23.7715 H   0  0  0  0  0  0
  -15.8727  -28.0807   22.7127 H   0  0  0  0  0  0
  -24.5864  -30.7157   25.7608 H   0  0  0  0  0  0
  -24.8833  -32.3051   26.4535 H   0  0  0  0  0  0
  -25.7841  -30.9118   27.0209 H   0  0  0  0  0  0
  -26.3240  -29.6458   24.1570 H   0  0  0  0  0  0
  -27.3951  -29.7286   25.5321 H   0  0  0  0  0  0
  -27.9225  -30.3967   24.0106 H   0  0  0  0  0  0
  -27.2581  -33.3742   26.1869 H   0  0  0  0  0  0
  -28.3963  -32.6817   25.0412 H   0  0  0  0  0  0
  -28.0588  -31.8639   26.5595 H   0  0  0  0  0  0
  -28.2548  -38.0055   24.7520 H   0  0  0  0  0  0
  -28.1088  -36.2581   24.6291 H   0  0  0  0  0  0
  -27.2277  -37.1364   25.8869 H   0  0  0  0  0  0
  -20.9717  -29.8678   21.6519 H   0  0  0  0  0  0
  -26.0091  -38.2703   24.1438 H   0  0  0  0  0  0
  -30.9213  -19.4789   19.1899 H   0  0  0  0  0  0
  -26.8896  -23.6786   20.3665 H   0  0  0  0  0  0
  -27.8067  -23.7849   18.9333 H   0  0  0  0  0  0
  -28.5621  -16.5595   20.7330 H   0  0  0  0  0  0
  1 25  1  0  0  0
  1 30  2  0  0  0
  1 78  1  0  0  0
  2  3  1  0  0  0
  2 25  1  0  0  0
  2 82  1  0  0  0
  2 83  1  0  0  0
  3  4  1  0  0  0
  3 84  1  0  0  0
  3 85  1  0  0  0
  4  5  1  0  0  0
  4 86  1  0  0  0
  4 87  1  0  0  0
  5  6  1  0  0  0
  5 26  1  0  0  0
  5 88  1  0  0  0
  6 25  1  0  0  0
  6 89  1  0  0  0
  6 90  1  0  0  0
  7  8  2  0  0  0
  7 26  1  0  0  0
  7 29  1  0  0  0
  8  9  1  0  0  0
  8 22  1  0  0  0
  9 10  1  0  0  0
  9 27  2  0  0  0
 10 11  2  0  0  0
 10 15  1  0  0  0
 11 12  1  0  0  0
 11 91  1  0  0  0
 12 13  2  0  0  0
 12 92  1  0  0  0
 13 14  1  0  0  0
 13 31  1  0  0  0
 14 15  2  0  0  0
 14 93  1  0  0  0
 15 94  1  0  0  0
 16 17  2  0  0  0
 16 21  1  0  0  0
 16 31  1  0  0  0
 17 18  1  0  0  0
 17 95  1  0  0  0
 18 19  2  0  0  0
 18 96  1  0  0  0
 19 20  1  0  0  0
 19 24  1  0  0  0
 20 21  2  0  0  0
 20 97  1  0  0  0
 21 23  1  0  0  0
 22 28  1  0  0  0
 22 32  2  0  0  0
 26 27  1  0  0  0
 28 98  1  0  0  0
 28 99  1  0  0  0
 29100  1  0  0  0
 29101  1  0  0  0
 33 34  1  0  0  0
 33 66  1  0  0  0
 33 70  2  0  0  0
 34 36  1  0  0  0
 34 59  1  0  0  0
 34102  1  0  0  0
 35 44  2  0  0  0
 35 45  1  0  0  0
 35 68  1  0  0  0
 36 56  1  0  0  0
 36103  1  0  0  0
 37 39  1  0  0  0
 37 47  1  0  0  0
 37 66  1  0  0  0
 37104  1  0  0  0
 38 43  2  0  0  0
 38 46  1  0  0  0
 38 47  1  0  0  0
 39 64  1  0  0  0
 39 67  2  0  0  0
 40 52  1  0  0  0
 40 53  2  0  0  0
 40 58  1  0  0  0
 41105  1  0  0  0
 41106  1  0  0  0
 41107  1  0  0  0
 41 48  1  0  0  0
 42 43  1  0  0  0
 42 66  1  0  0  0
 42108  1  0  0  0
 42109  1  0  0  0
 43 44  1  0  0  0
 44110  1  0  0  0
 45 46  2  0  0  0
 45111  1  0  0  0
 46112  1  0  0  0
 47113  1  0  0  0
 47114  1  0  0  0
 48 56  1  0  0  0
 48 65  1  0  0  0
 48115  1  0  0  0
 49 50  1  0  0  0
 49 53  1  0  0  0
 49 64  1  0  0  0
 49116  1  0  0  0
 50 51  1  0  0  0
 50117  1  0  0  0
 50118  1  0  0  0
 51 52  1  0  0  0
 51119  1  0  0  0
 51120  1  0  0  0
 52121  1  0  0  0
 52122  1  0  0  0
 53 54  1  0  0  0
 54 55  2  0  0  0
 54123  1  0  0  0
 55 57  1  0  0  0
 55124  1  0  0  0
 56 69  2  0  0  0
 57 58  2  0  0  0
 57125  1  0  0  0
 58126  1  0  0  0
 59 60  1  0  0  0
 59 61  1  0  0  0
 59 62  1  0  0  0
 60127  1  0  0  0
 60128  1  0  0  0
 60129  1  0  0  0
 61130  1  0  0  0
 61131  1  0  0  0
 61132  1  0  0  0
 62133  1  0  0  0
 62134  1  0  0  0
 62135  1  0  0  0
 63 65  1  0  0  0
 63136  1  0  0  0
 63137  1  0  0  0
 63138  1  0  0  0
 64139  1  0  0  0
 65140  1  0  0  0
 68 77  1  0  0  0
 71 73  2  0  0  0
 71 74  1  0  0  0
 71141  1  0  0  0
 72 74  2  0  0  0
 72 75  1  0  0  0
 72 77  1  0  0  0
 73 76  1  0  0  0
 73 78  1  0  0  0
 74 79  1  0  0  0
 75 76  2  0  0  0
 75 80  1  0  0  0
 76 81  1  0  0  0
 77142  1  0  0  0
 77143  1  0  0  0
 78144  1  0  0  0
M  ISO  4   1 100  68 101  77 101  78 100
M  END
> <chiral flag>
0

> <version>
0

> <s_m_source_file>
/data/baiqing/PycharmProjects/Reinvent-master-3.2/result/LINK_invent/BTK/process_docking_weight1_custom_sum_contain_oxygen_bond_distance_aromatic_linkinvent_7_9_3/rearranged_h_0017.sdf

> <i_m_source_file_index>
85

> <r_mmod_Potential_Energy-OPLS-2005>
2248.46655273438

> <r_mmod_Stretch_Energy-OPLS-2005>
924.372009277344

> <r_mmod_Bend_Energy-OPLS-2005>
670.430847167969

> <r_mmod_Torsional_Energy-OPLS-2005>
230.46272277832

> <r_mmod_Improper_Torsional_Energy-OPLS-2005>
6.4034161567688

> <r_mmod_Van_der_Waal_Energy-OPLS-2005>
129.581024169922

> <r_mmod_Electrostatic_Energy-OPLS-2005>
-356.627136230469

> <r_mmod_Solvation_Energy-OPLS-2005>
-220.580825805664

> <b_mmod_Minimization_Converged-OPLS-2005>
0

> <r_mmod_RMS_Derivative-OPLS-2005>
0.537267684936523

$$$$
87
                    3D
 Structure written by MMmdl.
165173  0  0  1  0            999 V2000
  -30.6541  -14.4617   20.5579 C   0  0  0  0  0  0
  -30.4492  -12.2960   19.4026 C   0  0  0  0  0  0
  -29.5181  -12.5107   18.1914 C   0  0  0  0  0  0
  -28.0351  -12.3592   18.5938 C   0  0  0  0  0  0
  -27.6707  -13.1867   19.8597 C   0  0  2  0  0  0
  -28.7071  -12.9250   20.9750 C   0  0  0  0  0  0
  -25.2679  -13.8125   20.5574 C   0  0  0  0  0  0
  -24.1918  -13.0427   20.9111 C   0  0  0  0  0  0
  -24.6426  -11.6875   20.8659 C   0  0  0  0  0  0
  -23.9041  -10.4297   21.0387 C   0  0  0  0  0  0
  -24.3591   -9.4246   21.9191 C   0  0  0  0  0  0
  -23.6251   -8.2291   22.0809 C   0  0  0  0  0  0
  -22.4243   -8.0313   21.3591 C   0  0  0  0  0  0
  -21.9861   -9.0280   20.4708 C   0  0  0  0  0  0
  -22.7193  -10.2152   20.3085 C   0  0  0  0  0  0
  -21.6879   -6.0718   22.5261 C   0  0  0  0  0  0
  -21.4019   -6.5628   23.8195 C   0  0  0  0  0  0
  -21.3653   -5.6813   24.9162 C   0  0  0  0  0  0
  -21.6040   -4.3062   24.7246 C   0  0  0  0  0  0
  -21.8822   -3.8142   23.4369 C   0  0  0  0  0  0
  -21.9192   -4.6926   22.3422 C   0  0  0  0  0  0
  -22.7948  -13.5282   21.1729 C   0  0  0  0  0  0
  -22.1665   -4.2101   21.0994 F   0  0  0  0  0  0
  -21.5615   -3.4556   25.7762 F   0  0  0  0  0  0
  -30.0436  -13.2507   20.4423 N   0  0  0  0  0  0
  -26.3076  -12.9238   20.3194 N   0  0  0  0  0  0
  -25.9341  -11.6425   20.5670 N   0  0  0  0  0  0
  -22.0501  -12.8391   22.0294 N   0  0  0  0  0  0
  -25.4361  -15.1833   20.3992 N   0  0  0  0  0  0
  -31.7910  -14.6924   20.1449 O   0  0  0  0  0  0
  -21.6660   -6.8859   21.4244 O   0  0  0  0  0  0
  -22.3692  -14.5607   20.6558 O   0  0  0  0  0  0
  -24.6143  -31.8786   23.2145 C   0  0  0  0  0  0
  -25.9058  -32.4864   23.8420 C   0  0  1  0  0  0
  -27.1969  -27.4421   20.0917 C   0  0  0  0  0  0
  -25.5981  -33.8663   24.2371 N   0  0  0  0  0  0
  -23.3938  -30.5097   21.5612 C   0  0  2  0  0  0
  -24.8293  -28.9910   20.1040 C   0  0  0  0  0  0
  -22.7288  -29.4812   22.5005 C   0  0  0  0  0  0
  -18.0243  -28.1445   22.8604 C   0  0  0  0  0  0
  -24.1502  -36.7325   23.2629 C   0  0  0  0  0  0
  -25.9248  -30.8432   21.3692 C   0  0  0  0  0  0
  -25.9898  -29.4793   20.7149 C   0  0  0  0  0  0
  -27.1727  -28.7090   20.7191 C   0  0  0  0  0  0
  -26.0229  -26.9872   19.4538 C   0  0  0  0  0  0
  -24.8381  -27.7403   19.4675 C   0  0  0  0  0  0
  -23.5931  -29.8588   20.1677 C   0  0  0  0  0  0
  -25.4113  -36.3128   24.0330 C   0  0  1  0  0  0
  -20.5798  -28.3838   23.1451 C   0  0  2  0  0  0
  -20.6604  -26.9468   22.5848 C   0  0  0  0  0  0
  -19.5796  -26.6705   21.5337 C   0  0  0  0  0  0
  -18.1986  -26.7992   22.1801 C   0  0  0  0  0  0
  -19.1443  -28.8969   23.3017 C   0  0  0  0  0  0
  -18.9323  -30.1534   23.9073 C   0  0  0  0  0  0
  -17.6305  -30.6670   24.0577 C   0  0  0  0  0  0
  -25.9070  -34.9488   23.5140 C   0  0  0  0  0  0
  -16.5232  -29.9154   23.6212 C   0  0  0  0  0  0
  -16.7198  -28.6515   23.0360 C   0  0  0  0  0  0
  -26.4496  -31.6616   25.0722 C   0  0  0  0  0  0
  -25.3773  -31.3734   26.1478 C   0  0  0  0  0  0
  -27.0300  -30.3084   24.5990 C   0  0  0  0  0  0
  -27.6108  -32.4253   25.7507 C   0  0  0  0  0  0
  -27.5566  -37.1809   24.8454 C   0  0  0  0  0  0
  -21.4024  -29.3059   22.3615 N   0  0  0  0  0  0
  -26.4279  -37.3812   23.9405 N   0  0  0  0  0  0
  -24.6643  -31.0880   22.1080 N   0  0  0  0  0  0
  -23.4011  -28.8406   23.3130 O   0  0  0  0  0  0
  -28.3483  -26.6828   20.0947 O   0  0  0  0  0  0
  -26.5595  -34.8929   22.4679 O   0  0  0  0  0  0
  -23.5357  -32.1570   23.7553 O   0  0  0  0  0  0
  -28.3885  -18.7191   21.7443 C   0  0  0  0  0  0
  -28.7496  -19.4919   20.6261 C   0  0  0  0  0  0
  -29.5733  -18.9058   19.6224 C   0  0  0  0  0  0
  -29.6122  -16.7749   20.8850 C   0  0  0  0  0  0
  -28.8007  -17.3835   21.8704 C   0  0  0  0  0  0
  -29.9844  -17.5418   19.7378 C   0  0  0  0  0  0
  -29.9950  -19.7479   18.4186 C   0  0  0  0  0  0
  -26.7005  -23.5402   19.7782 C   0  0  0  0  0  0
  -28.3835  -24.6468   18.2463 C   0  0  0  0  0  0
  -28.1294  -20.8879   20.4927 C   0  0  0  0  0  0
  -29.2572  -23.0903   19.9407 C   0  0  0  0  0  0
  -28.2189  -25.3750   20.6890 C   0  0  0  0  0  0
  -28.1246  -24.1599   19.6945 C   0  0  0  0  0  0
  -29.8581  -15.3846   21.1240 N   0  0  0  0  0  0
  -29.0109  -22.0011   20.9301 N   0  3  0  0  0  0
  -28.2221  -16.4747   23.2250 Cl  0  0  0  0  0  0
  -30.8302  -16.8221   18.4007 Cl  0  0  0  0  0  0
  -31.4917  -12.4258   19.1053 H   0  0  0  0  0  0
  -30.3679  -11.2731   19.7701 H   0  0  0  0  0  0
  -29.7702  -11.8066   17.3955 H   0  0  0  0  0  0
  -29.6789  -13.5063   17.7773 H   0  0  0  0  0  0
  -27.8527  -11.2977   18.7713 H   0  0  0  0  0  0
  -27.3962  -12.6455   17.7559 H   0  0  0  0  0  0
  -27.7268  -14.2384   19.5796 H   0  0  0  0  0  0
  -28.6836  -11.8790   21.2781 H   0  0  0  0  0  0
  -28.4570  -13.4830   21.8763 H   0  0  0  0  0  0
  -25.2745   -9.5741   22.4738 H   0  0  0  0  0  0
  -23.9949   -7.4743   22.7589 H   0  0  0  0  0  0
  -21.0770   -8.8817   19.9060 H   0  0  0  0  0  0
  -22.3640  -10.9688   19.6195 H   0  0  0  0  0  0
  -21.2034   -7.6144   23.9660 H   0  0  0  0  0  0
  -21.1460   -6.0564   25.9056 H   0  0  0  0  0  0
  -22.0602   -2.7586   23.2915 H   0  0  0  0  0  0
  -22.4070  -12.0072   22.4795 H   0  0  0  0  0  0
  -21.1118  -13.1518   22.2359 H   0  0  0  0  0  0
  -24.6703  -15.8298   20.5593 H   0  0  0  0  0  0
  -26.2739  -15.6383   20.0629 H   0  0  0  0  0  0
  -26.7097  -32.5585   23.1156 H   0  0  0  0  0  0
  -25.0073  -33.9854   25.0460 H   0  0  0  0  0  0
  -22.6864  -31.3351   21.4345 H   0  0  0  0  0  0
  -23.3773  -35.9663   23.3316 H   0  0  0  0  0  0
  -24.3578  -36.8912   22.2044 H   0  0  0  0  0  0
  -23.7258  -37.6527   23.6629 H   0  0  0  0  0  0
  -26.0400  -31.6055   20.5992 H   0  0  0  0  0  0
  -26.8165  -30.8974   21.9779 H   0  0  0  0  0  0
  -28.0523  -29.0823   21.2216 H   0  0  0  0  0  0
  -25.9978  -26.0736   18.8919 H   0  0  0  0  0  0
  -23.9465  -27.3775   18.9716 H   0  0  0  0  0  0
  -23.6860  -30.6572   19.4301 H   0  0  0  0  0  0
  -22.7175  -29.2796   19.8693 H   0  0  0  0  0  0
  -25.1290  -36.1978   25.0816 H   0  0  0  0  0  0
  -20.9976  -28.3645   24.1551 H   0  0  0  0  0  0
  -20.4940  -26.2576   23.4144 H   0  0  0  0  0  0
  -21.6677  -26.7216   22.2313 H   0  0  0  0  0  0
  -19.7128  -25.6844   21.0907 H   0  0  0  0  0  0
  -19.6655  -27.3930   20.7225 H   0  0  0  0  0  0
  -17.4110  -26.6499   21.4438 H   0  0  0  0  0  0
  -18.0673  -26.0213   22.9316 H   0  0  0  0  0  0
  -19.7668  -30.7381   24.2652 H   0  0  0  0  0  0
  -17.4839  -31.6293   24.5272 H   0  0  0  0  0  0
  -15.5218  -30.3090   23.7403 H   0  0  0  0  0  0
  -15.8687  -28.0732   22.7061 H   0  0  0  0  0  0
  -24.5939  -30.7092   25.7805 H   0  0  0  0  0  0
  -24.8982  -32.2917   26.4894 H   0  0  0  0  0  0
  -25.8122  -30.8912   27.0240 H   0  0  0  0  0  0
  -26.2828  -29.6915   24.0983 H   0  0  0  0  0  0
  -27.4114  -29.7196   25.4339 H   0  0  0  0  0  0
  -27.8642  -30.4490   23.9112 H   0  0  0  0  0  0
  -27.2791  -33.3520   26.2188 H   0  0  0  0  0  0
  -28.3911  -32.6837   25.0342 H   0  0  0  0  0  0
  -28.0798  -31.8294   26.5340 H   0  0  0  0  0  0
  -28.2610  -38.0090   24.7487 H   0  0  0  0  0  0
  -28.1037  -36.2609   24.6288 H   0  0  0  0  0  0
  -27.2279  -37.1462   25.8860 H   0  0  0  0  0  0
  -20.9214  -29.8287   21.6414 H   0  0  0  0  0  0
  -26.0183  -38.2899   24.1359 H   0  0  0  0  0  0
  -27.7413  -19.1377   22.4999 H   0  0  0  0  0  0
  -29.1723  -20.3348   18.0149 H   0  0  0  0  0  0
  -30.3658  -19.1707   17.5733 H   0  0  0  0  0  0
  -30.7901  -20.4288   18.7237 H   0  0  0  0  0  0
  -26.4992  -22.8456   18.9616 H   0  0  0  0  0  0
  -25.9013  -24.2719   19.7590 H   0  0  0  0  0  0
  -26.5267  -23.0339   20.7261 H   0  0  0  0  0  0
  -29.4239  -24.9524   18.1120 H   0  0  0  0  0  0
  -27.7709  -25.4938   17.9509 H   0  0  0  0  0  0
  -28.1867  -23.8530   17.5208 H   0  0  0  0  0  0
  -27.2221  -20.9215   21.0964 H   0  0  0  0  0  0
  -27.7771  -21.0321   19.4735 H   0  0  0  0  0  0
  -30.1611  -23.6181   20.2504 H   0  0  0  0  0  0
  -29.5434  -22.6095   19.0013 H   0  0  0  0  0  0
  -29.0838  -25.2667   21.3421 H   0  0  0  0  0  0
  -27.3670  -25.3779   21.3760 H   0  0  0  0  0  0
  -29.1130  -14.9644   21.6585 H   0  0  0  0  0  0
  -29.9013  -21.5755   21.1264 H   0  0  0  0  0  0
  -28.6813  -22.3915   21.7980 H   0  0  0  0  0  0
  1 25  1  0  0  0
  1 30  2  0  0  0
  1 84  1  0  0  0
  2  3  1  0  0  0
  2 25  1  0  0  0
  2 88  1  0  0  0
  2 89  1  0  0  0
  3  4  1  0  0  0
  3 90  1  0  0  0
  3 91  1  0  0  0
  4  5  1  0  0  0
  4 92  1  0  0  0
  4 93  1  0  0  0
  5  6  1  0  0  0
  5 26  1  0  0  0
  5 94  1  0  0  0
  6 25  1  0  0  0
  6 95  1  0  0  0
  6 96  1  0  0  0
  7  8  2  0  0  0
  7 26  1  0  0  0
  7 29  1  0  0  0
  8  9  1  0  0  0
  8 22  1  0  0  0
  9 10  1  0  0  0
  9 27  2  0  0  0
 10 11  2  0  0  0
 10 15  1  0  0  0
 11 12  1  0  0  0
 11 97  1  0  0  0
 12 13  2  0  0  0
 12 98  1  0  0  0
 13 14  1  0  0  0
 13 31  1  0  0  0
 14 15  2  0  0  0
 14 99  1  0  0  0
 15100  1  0  0  0
 16 17  2  0  0  0
 16 21  1  0  0  0
 16 31  1  0  0  0
 17 18  1  0  0  0
 17101  1  0  0  0
 18 19  2  0  0  0
 18102  1  0  0  0
 19 20  1  0  0  0
 19 24  1  0  0  0
 20 21  2  0  0  0
 20103  1  0  0  0
 21 23  1  0  0  0
 22 28  1  0  0  0
 22 32  2  0  0  0
 26 27  1  0  0  0
 28104  1  0  0  0
 28105  1  0  0  0
 29106  1  0  0  0
 29107  1  0  0  0
 33 34  1  0  0  0
 33 66  1  0  0  0
 33 70  2  0  0  0
 34 36  1  0  0  0
 34 59  1  0  0  0
 34108  1  0  0  0
 35 44  2  0  0  0
 35 45  1  0  0  0
 35 68  1  0  0  0
 36 56  1  0  0  0
 36109  1  0  0  0
 37 39  1  0  0  0
 37 47  1  0  0  0
 37 66  1  0  0  0
 37110  1  0  0  0
 38 43  2  0  0  0
 38 46  1  0  0  0
 38 47  1  0  0  0
 39 64  1  0  0  0
 39 67  2  0  0  0
 40 52  1  0  0  0
 40 53  2  0  0  0
 40 58  1  0  0  0
 41111  1  0  0  0
 41112  1  0  0  0
 41113  1  0  0  0
 41 48  1  0  0  0
 42 43  1  0  0  0
 42 66  1  0  0  0
 42114  1  0  0  0
 42115  1  0  0  0
 43 44  1  0  0  0
 44116  1  0  0  0
 45 46  2  0  0  0
 45117  1  0  0  0
 46118  1  0  0  0
 47119  1  0  0  0
 47120  1  0  0  0
 48 56  1  0  0  0
 48 65  1  0  0  0
 48121  1  0  0  0
 49 50  1  0  0  0
 49 53  1  0  0  0
 49 64  1  0  0  0
 49122  1  0  0  0
 50 51  1  0  0  0
 50123  1  0  0  0
 50124  1  0  0  0
 51 52  1  0  0  0
 51125  1  0  0  0
 51126  1  0  0  0
 52127  1  0  0  0
 52128  1  0  0  0
 53 54  1  0  0  0
 54 55  2  0  0  0
 54129  1  0  0  0
 55 57  1  0  0  0
 55130  1  0  0  0
 56 69  2  0  0  0
 57 58  2  0  0  0
 57131  1  0  0  0
 58132  1  0  0  0
 59 60  1  0  0  0
 59 61  1  0  0  0
 59 62  1  0  0  0
 60133  1  0  0  0
 60134  1  0  0  0
 60135  1  0  0  0
 61136  1  0  0  0
 61137  1  0  0  0
 61138  1  0  0  0
 62139  1  0  0  0
 62140  1  0  0  0
 62141  1  0  0  0
 63 65  1  0  0  0
 63142  1  0  0  0
 63143  1  0  0  0
 63144  1  0  0  0
 64145  1  0  0  0
 65146  1  0  0  0
 68 82  1  0  0  0
 71 72  2  0  0  0
 71 75  1  0  0  0
 71147  1  0  0  0
 72 73  1  0  0  0
 72 80  1  0  0  0
 73 76  2  0  0  0
 73 77  1  0  0  0
 74 75  2  0  0  0
 74 76  1  0  0  0
 74 84  1  0  0  0
 75 86  1  0  0  0
 76 87  1  0  0  0
 77148  1  0  0  0
 77149  1  0  0  0
 77150  1  0  0  0
 78151  1  0  0  0
 78152  1  0  0  0
 78153  1  0  0  0
 78 83  1  0  0  0
 79 83  1  0  0  0
 79154  1  0  0  0
 79155  1  0  0  0
 79156  1  0  0  0
 80 85  1  0  0  0
 80157  1  0  0  0
 80158  1  0  0  0
 81 83  1  0  0  0
 81 85  1  0  0  0
 81159  1  0  0  0
 81160  1  0  0  0
 82 83  1  0  0  0
 82161  1  0  0  0
 82162  1  0  0  0
 84163  1  0  0  0
 85164  1  0  0  0
 85165  1  0  0  0
M  CHG  1  85   1
M  ISO  4   1 100  68 101  82 101  84 100
M  END
> <chiral flag>
0

> <version>
0

> <s_m_source_file>
/data/baiqing/PycharmProjects/Reinvent-master-3.2/result/LINK_invent/BTK/process_docking_weight1_custom_sum_contain_oxygen_bond_distance_aromatic_linkinvent_7_9_3/rearranged_h_0017.sdf

> <i_m_source_file_index>
86

> <r_mmod_Potential_Energy-OPLS-2005>
-171.167984008789

> <r_mmod_Stretch_Energy-OPLS-2005>
45.1478614807129

> <r_mmod_Bend_Energy-OPLS-2005>
137.454376220703

> <r_mmod_Torsional_Energy-OPLS-2005>
284.83642578125

> <r_mmod_Improper_Torsional_Energy-OPLS-2005>
4.5066990852356

> <r_mmod_Van_der_Waal_Energy-OPLS-2005>
181.47639465332

> <r_mmod_Electrostatic_Energy-OPLS-2005>
-353.572692871094

> <r_mmod_Solvation_Energy-OPLS-2005>
-487.531066894531

> <b_mmod_Minimization_Converged-OPLS-2005>
0

> <r_mmod_RMS_Derivative-OPLS-2005>
6.25093364715576

$$$$
88
                    3D
 Structure written by MMmdl.
166174  0  0  1  0            999 V2000
  -29.9241  -15.1545   20.7116 C   0  0  0  0  0  0
  -30.3610  -12.7952   19.6414 C   0  0  0  0  0  0
  -29.5241  -12.6208   18.3402 C   0  0  0  0  0  0
  -28.0456  -12.3297   18.6668 C   0  0  0  0  0  0
  -27.5469  -13.2141   19.8371 C   0  0  2  0  0  0
  -28.4779  -13.1603   21.0429 C   0  0  0  0  0  0
  -25.1978  -13.8084   20.5404 C   0  0  0  0  0  0
  -24.1410  -13.0365   20.9201 C   0  0  0  0  0  0
  -24.6043  -11.6844   20.8787 C   0  0  0  0  0  0
  -23.8859  -10.4234   21.0504 C   0  0  0  0  0  0
  -24.3514   -9.4184   21.9259 C   0  0  0  0  0  0
  -23.6242   -8.2197   22.0797 C   0  0  0  0  0  0
  -22.4230   -8.0228   21.3568 C   0  0  0  0  0  0
  -21.9814   -9.0180   20.4682 C   0  0  0  0  0  0
  -22.7085  -10.2071   20.3111 C   0  0  0  0  0  0
  -21.6825   -6.0733   22.5315 C   0  0  0  0  0  0
  -21.3998   -6.5650   23.8249 C   0  0  0  0  0  0
  -21.3637   -5.6798   24.9205 C   0  0  0  0  0  0
  -21.6037   -4.3063   24.7245 C   0  0  0  0  0  0
  -21.8818   -3.8161   23.4364 C   0  0  0  0  0  0
  -21.9182   -4.6973   22.3424 C   0  0  0  0  0  0
  -22.7511  -13.5226   21.1920 C   0  0  0  0  0  0
  -22.1657   -4.2169   21.0996 F   0  0  0  0  0  0
  -21.5603   -3.4543   25.7753 F   0  0  0  0  0  0
  -29.6632  -13.7860   20.5503 N   0  0  0  0  0  0
  -26.2190  -12.9180   20.2831 N   0  0  0  0  0  0
  -25.8855  -11.6379   20.5558 N   0  0  0  0  0  0
  -22.0167  -12.8265   22.0505 N   0  0  0  0  0  0
  -25.3648  -15.1775   20.3574 N   0  0  0  0  0  0
  -31.1322  -15.3807   20.4424 O   0  0  0  0  0  0
  -21.6600   -6.8838   21.4262 O   0  0  0  0  0  0
  -22.3259  -14.5547   20.6752 O   0  0  0  0  0  0
  -24.6588  -31.9381   23.2362 C   0  0  0  0  0  0
  -25.9507  -32.5072   23.8689 C   0  0  1  0  0  0
  -26.1281  -27.2363   20.3956 C   0  0  0  0  0  0
  -25.6362  -33.8827   24.2623 N   0  0  0  0  0  0
  -23.4567  -30.6017   21.5970 C   0  0  2  0  0  0
  -24.8573  -29.3639   19.7965 C   0  0  0  0  0  0
  -23.0527  -29.5055   22.6194 C   0  0  0  0  0  0
  -18.5943  -27.7653   22.4575 C   0  0  0  0  0  0
  -24.1507  -36.7338   23.2595 C   0  0  0  0  0  0
  -25.9879  -30.8433   21.4408 C   0  0  0  0  0  0
  -25.9213  -29.5423   20.6806 C   0  0  0  0  0  0
  -26.7554  -28.4296   20.8799 C   0  0  0  0  0  0
  -25.8868  -27.2768   19.0531 C   0  0  0  0  0  0
  -24.9744  -28.3228   18.8235 C   0  0  0  0  0  0
  -23.6078  -30.1734   20.0894 C   0  0  0  0  0  0
  -25.4117  -36.3177   24.0316 C   0  0  1  0  0  0
  -21.2978  -28.0920   23.5284 C   0  0  2  0  0  0
  -22.2074  -26.4224   22.7920 C   0  0  0  0  0  0
  -20.7028  -25.3881   21.2991 C   0  0  0  0  0  0
  -18.9387  -26.3649   21.4049 C   0  0  0  0  0  0
  -19.6188  -28.4928   23.3021 C   0  0  0  0  0  0
  -19.1821  -29.7291   23.9349 C   0  0  0  0  0  0
  -17.8605  -30.2381   23.9466 C   0  0  0  0  0  0
  -25.9117  -34.9575   23.5164 C   0  0  0  0  0  0
  -16.8614  -29.4758   23.3349 C   0  0  0  0  0  0
  -17.2304  -28.2879   22.6190 C   0  0  0  0  0  0
  -26.4623  -31.6657   25.0997 C   0  0  0  0  0  0
  -25.3733  -31.3783   26.1596 C   0  0  0  0  0  0
  -27.0424  -30.3054   24.6458 C   0  0  0  0  0  0
  -27.6144  -32.4317   25.7860 C   0  0  0  0  0  0
  -27.5598  -37.1861   24.8461 C   0  0  0  0  0  0
  -21.8050  -29.3726   22.9871 N   0  0  0  0  0  0
  -26.4303  -37.3856   23.9407 N   0  0  0  0  0  0
  -24.7160  -31.1887   22.1089 N   0  0  0  0  0  0
  -23.8768  -28.8099   23.1952 O   0  0  0  0  0  0
  -24.8061  -26.9792   20.9660 O   0  0  0  0  0  0
  -26.5486  -34.8943   22.4615 O   0  0  0  0  0  0
  -23.5774  -32.2096   23.7794 O   0  0  0  0  0  0
  -25.8347  -18.3477   22.8933 C   0  0  0  0  0  0
  -25.4822  -19.6292   22.2279 C   0  0  0  0  0  0
  -27.7531  -17.2694   21.3464 C   0  0  0  0  0  0
  -27.4077  -18.5372   20.6944 C   0  0  0  0  0  0
  -26.8411  -17.2763   22.5062 C   0  0  0  0  0  0
  -26.4084  -19.5937   21.0853 C   0  0  0  0  0  0
  -22.2629  -23.4298   23.3829 C   0  0  0  0  0  0
  -20.0631  -22.8972   25.5563 C   0  0  0  0  0  0
  -24.5240  -21.0654   22.7869 C   0  0  0  0  0  0
  -22.8098  -21.7842   22.9167 C   0  0  0  0  0  0
  -21.1216  -27.5661   21.2344 C   0  0  0  0  0  0
  -19.8820  -23.2756   24.0693 C   0  0  0  0  0  0
  -20.1625  -25.8826   23.4143 C   0  0  0  0  0  0
  -23.0306  -27.2101   20.5355 C   0  0  0  0  0  0
  -28.8563  -16.2260   20.6694 N   0  0  0  0  0  0
  -20.9217  -24.2014   23.5847 N   0  0  0  0  0  0
  -23.3131  -24.0327   23.5931 O   0  0  0  0  0  0
  -28.1284  -18.7864   19.5720 F   0  0  0  0  0  0
  -26.9444  -15.9069   23.5522 Cl  0  0  0  0  0  0
  -26.3867  -20.9888   20.0654 Cl  0  0  0  0  0  0
  -31.3716  -13.1247   19.4015 H   0  0  0  0  0  0
  -30.4809  -11.8322   20.1423 H   0  0  0  0  0  0
  -29.9417  -11.8330   17.7132 H   0  0  0  0  0  0
  -29.5795  -13.5379   17.7526 H   0  0  0  0  0  0
  -27.9507  -11.2762   18.9335 H   0  0  0  0  0  0
  -27.4272  -12.4828   17.7822 H   0  0  0  0  0  0
  -27.5171  -14.2282   19.4394 H   0  0  0  0  0  0
  -28.6445  -12.1369   21.3850 H   0  0  0  0  0  0
  -28.0693  -13.7138   21.8907 H   0  0  0  0  0  0
  -25.2653   -9.5705   22.4832 H   0  0  0  0  0  0
  -23.9974   -7.4600   22.7517 H   0  0  0  0  0  0
  -21.0748   -8.8689   19.8997 H   0  0  0  0  0  0
  -22.3562  -10.9623   19.6233 H   0  0  0  0  0  0
  -21.2005   -7.6164   23.9751 H   0  0  0  0  0  0
  -21.1442   -6.0536   25.9103 H   0  0  0  0  0  0
  -22.0607   -2.7629   23.2860 H   0  0  0  0  0  0
  -22.3738  -11.9913   22.4894 H   0  0  0  0  0  0
  -21.0844  -13.1401   22.2782 H   0  0  0  0  0  0
  -24.5677  -15.8029   20.3794 H   0  0  0  0  0  0
  -26.1790  -15.5724   19.9086 H   0  0  0  0  0  0
  -26.7630  -32.5624   23.1463 H   0  0  0  0  0  0
  -25.0730  -34.0024   25.0913 H   0  0  0  0  0  0
  -22.6741  -31.3635   21.6168 H   0  0  0  0  0  0
  -23.3799  -35.9650   23.3247 H   0  0  0  0  0  0
  -24.3630  -36.8971   22.2026 H   0  0  0  0  0  0
  -23.7241  -37.6524   23.6618 H   0  0  0  0  0  0
  -26.2378  -31.6448   20.7445 H   0  0  0  0  0  0
  -26.8371  -30.7518   22.1060 H   0  0  0  0  0  0
  -27.4847  -28.4185   21.6786 H   0  0  0  0  0  0
  -25.8051  -26.3819   18.4511 H   0  0  0  0  0  0
  -24.2775  -28.2432   17.9975 H   0  0  0  0  0  0
  -22.6902  -29.7099   19.7351 H   0  0  0  0  0  0
  -23.6948  -31.0818   19.4935 H   0  0  0  0  0  0
  -25.1276  -36.2052   25.0808 H   0  0  0  0  0  0
  -21.5052  -28.1222   24.5994 H   0  0  0  0  0  0
  -22.4062  -26.0462   23.7941 H   0  0  0  0  0  0
  -23.2767  -26.4153   22.6271 H   0  0  0  0  0  0
  -20.5340  -24.3119   21.3407 H   0  0  0  0  0  0
  -21.0472  -25.3610   20.2619 H   0  0  0  0  0  0
  -18.1719  -25.6218   21.6269 H   0  0  0  0  0  0
  -18.6556  -26.6624   20.3923 H   0  0  0  0  0  0
  -19.9137  -30.2948   24.4955 H   0  0  0  0  0  0
  -17.6223  -31.1523   24.4710 H   0  0  0  0  0  0
  -15.8285  -29.7946   23.3663 H   0  0  0  0  0  0
  -16.4375  -27.7661   22.1027 H   0  0  0  0  0  0
  -24.5905  -30.7188   25.7857 H   0  0  0  0  0  0
  -24.8936  -32.2951   26.5011 H   0  0  0  0  0  0
  -25.7936  -30.8923   27.0409 H   0  0  0  0  0  0
  -26.3053  -29.6905   24.1302 H   0  0  0  0  0  0
  -27.3917  -29.7191   25.4972 H   0  0  0  0  0  0
  -27.9045  -30.4343   23.9912 H   0  0  0  0  0  0
  -27.2716  -33.3597   26.2450 H   0  0  0  0  0  0
  -28.3984  -32.6921   25.0736 H   0  0  0  0  0  0
  -28.0763  -31.8437   26.5805 H   0  0  0  0  0  0
  -28.2559  -38.0209   24.7536 H   0  0  0  0  0  0
  -28.1148  -36.2743   24.6231 H   0  0  0  0  0  0
  -27.2317  -37.1407   25.8860 H   0  0  0  0  0  0
  -21.1123  -30.0343   22.6625 H   0  0  0  0  0  0
  -26.0181  -38.2920   24.1449 H   0  0  0  0  0  0
  -25.3088  -18.1551   23.8182 H   0  0  0  0  0  0
  -19.1218  -22.9995   26.1005 H   0  0  0  0  0  0
  -20.8019  -23.5163   26.0659 H   0  0  0  0  0  0
  -20.3745  -21.8570   25.6550 H   0  0  0  0  0  0
  -25.0644  -21.8694   22.2853 H   0  0  0  0  0  0
  -24.8845  -21.1609   23.8111 H   0  0  0  0  0  0
  -22.3218  -21.6180   21.9538 H   0  0  0  0  0  0
  -22.2768  -21.1290   23.6046 H   0  0  0  0  0  0
  -20.7827  -28.5982   21.1333 H   0  0  0  0  0  0
  -20.6544  -27.4368   20.2503 H   0  0  0  0  0  0
  -18.8860  -23.6971   23.9574 H   0  0  0  0  0  0
  -19.8755  -22.3694   23.4580 H   0  0  0  0  0  0
  -19.0972  -25.6993   23.5710 H   0  0  0  0  0  0
  -20.3104  -26.2381   24.4407 H   0  0  0  0  0  0
  -22.8931  -27.6136   19.5455 H   0  0  0  0  0  0
  -22.9599  -26.1707   20.2259 H   0  0  0  0  0  0
  -29.2555  -16.8029   19.9414 H   0  0  0  0  0  0
  1 25  1  0  0  0
  1 30  2  0  0  0
  1 85  1  0  0  0
  2  3  1  0  0  0
  2 25  1  0  0  0
  2 91  1  0  0  0
  2 92  1  0  0  0
  3  4  1  0  0  0
  3 93  1  0  0  0
  3 94  1  0  0  0
  4  5  1  0  0  0
  4 95  1  0  0  0
  4 96  1  0  0  0
  5  6  1  0  0  0
  5 26  1  0  0  0
  5 97  1  0  0  0
  6 25  1  0  0  0
  6 98  1  0  0  0
  6 99  1  0  0  0
  7  8  2  0  0  0
  7 26  1  0  0  0
  7 29  1  0  0  0
  8  9  1  0  0  0
  8 22  1  0  0  0
  9 10  1  0  0  0
  9 27  2  0  0  0
 10 11  2  0  0  0
 10 15  1  0  0  0
 11 12  1  0  0  0
 11100  1  0  0  0
 12 13  2  0  0  0
 12101  1  0  0  0
 13 14  1  0  0  0
 13 31  1  0  0  0
 14 15  2  0  0  0
 14102  1  0  0  0
 15103  1  0  0  0
 16 17  2  0  0  0
 16 21  1  0  0  0
 16 31  1  0  0  0
 17 18  1  0  0  0
 17104  1  0  0  0
 18 19  2  0  0  0
 18105  1  0  0  0
 19 20  1  0  0  0
 19 24  1  0  0  0
 20 21  2  0  0  0
 20106  1  0  0  0
 21 23  1  0  0  0
 22 28  1  0  0  0
 22 32  2  0  0  0
 26 27  1  0  0  0
 28107  1  0  0  0
 28108  1  0  0  0
 29109  1  0  0  0
 29110  1  0  0  0
 33 34  1  0  0  0
 33 66  1  0  0  0
 33 70  2  0  0  0
 34 36  1  0  0  0
 34 59  1  0  0  0
 34111  1  0  0  0
 35 44  2  0  0  0
 35 45  1  0  0  0
 35 68  1  0  0  0
 36 56  1  0  0  0
 36112  1  0  0  0
 37 39  1  0  0  0
 37 47  1  0  0  0
 37 66  1  0  0  0
 37113  1  0  0  0
 38 43  2  0  0  0
 38 46  1  0  0  0
 38 47  1  0  0  0
 39 64  1  0  0  0
 39 67  2  0  0  0
 40 52  1  0  0  0
 40 53  2  0  0  0
 40 58  1  0  0  0
 41114  1  0  0  0
 41115  1  0  0  0
 41116  1  0  0  0
 41 48  1  0  0  0
 42 43  1  0  0  0
 42 66  1  0  0  0
 42117  1  0  0  0
 42118  1  0  0  0
 43 44  1  0  0  0
 44119  1  0  0  0
 45 46  2  0  0  0
 45120  1  0  0  0
 46121  1  0  0  0
 47122  1  0  0  0
 47123  1  0  0  0
 48 56  1  0  0  0
 48 65  1  0  0  0
 48124  1  0  0  0
 49 50  1  0  0  0
 49 53  1  0  0  0
 49 64  1  0  0  0
 49125  1  0  0  0
 50 51  1  0  0  0
 50126  1  0  0  0
 50127  1  0  0  0
 51 52  1  0  0  0
 51128  1  0  0  0
 51129  1  0  0  0
 52130  1  0  0  0
 52131  1  0  0  0
 53 54  1  0  0  0
 54 55  2  0  0  0
 54132  1  0  0  0
 55 57  1  0  0  0
 55133  1  0  0  0
 56 69  2  0  0  0
 57 58  2  0  0  0
 57134  1  0  0  0
 58135  1  0  0  0
 59 60  1  0  0  0
 59 61  1  0  0  0
 59 62  1  0  0  0
 60136  1  0  0  0
 60137  1  0  0  0
 60138  1  0  0  0
 61139  1  0  0  0
 61140  1  0  0  0
 61141  1  0  0  0
 62142  1  0  0  0
 62143  1  0  0  0
 62144  1  0  0  0
 63 65  1  0  0  0
 63145  1  0  0  0
 63146  1  0  0  0
 63147  1  0  0  0
 64148  1  0  0  0
 65149  1  0  0  0
 68 84  1  0  0  0
 71 72  2  0  0  0
 71 75  1  0  0  0
 71150  1  0  0  0
 72 76  1  0  0  0
 72 79  1  0  0  0
 73 74  1  0  0  0
 73 75  2  0  0  0
 73 85  1  0  0  0
 74 76  2  0  0  0
 74 88  1  0  0  0
 75 89  1  0  0  0
 76 90  1  0  0  0
 77 80  1  0  0  0
 77 86  1  0  0  0
 77 87  2  0  0  0
 78 82  1  0  0  0
 78151  1  0  0  0
 78152  1  0  0  0
 78153  1  0  0  0
 79 80  1  0  0  0
 79154  1  0  0  0
 79155  1  0  0  0
 80156  1  0  0  0
 80157  1  0  0  0
 81 83  1  0  0  0
 81 84  1  0  0  0
 81158  1  0  0  0
 81159  1  0  0  0
 82 86  1  0  0  0
 82160  1  0  0  0
 82161  1  0  0  0
 83 86  1  0  0  0
 83162  1  0  0  0
 83163  1  0  0  0
 84164  1  0  0  0
 84165  1  0  0  0
 85166  1  0  0  0
M  ISO  4   1 100  68 101  84 101  85 100
M  END
> <chiral flag>
0

> <version>
0

> <s_m_source_file>
/data/baiqing/PycharmProjects/Reinvent-master-3.2/result/LINK_invent/BTK/process_docking_weight1_custom_sum_contain_oxygen_bond_distance_aromatic_linkinvent_7_9_3/rearranged_h_0017.sdf

> <i_m_source_file_index>
87

> <r_mmod_Potential_Energy-OPLS-2005>
11592.4296875

> <r_mmod_Stretch_Energy-OPLS-2005>
5284.62060546875

> <r_mmod_Bend_Energy-OPLS-2005>
1152.97375488281

> <r_mmod_Torsional_Energy-OPLS-2005>
601.267822265625

> <r_mmod_Improper_Torsional_Energy-OPLS-2005>
58.8467140197754

> <r_mmod_Van_der_Waal_Energy-OPLS-2005>
1924.78125

> <r_mmod_Electrostatic_Energy-OPLS-2005>
-401.948791503906

> <r_mmod_Solvation_Energy-OPLS-2005>
-216.171875

> <b_mmod_Minimization_Converged-OPLS-2005>
0

> <r_mmod_RMS_Derivative-OPLS-2005>
6.3723292350769

$$$$
89
                    3D
 Structure written by MMmdl.
174181  0  0  1  0            999 V2000
  -30.5106  -14.9603   20.4584 C   0  0  0  0  0  0
  -30.4494  -12.6008   19.5401 C   0  0  0  0  0  0
  -29.5397  -12.5437   18.2887 C   0  0  0  0  0  0
  -28.0633  -12.3311   18.6761 C   0  0  0  0  0  0
  -27.6299  -13.2518   19.8456 C   0  0  2  0  0  0
  -28.6561  -13.2607   21.0001 C   0  0  0  0  0  0
  -25.2440  -13.8262   20.5701 C   0  0  0  0  0  0
  -24.1741  -13.0460   20.9202 C   0  0  0  0  0  0
  -24.6361  -11.6957   20.8746 C   0  0  0  0  0  0
  -23.9046  -10.4310   21.0408 C   0  0  0  0  0  0
  -24.3602   -9.4235   21.9173 C   0  0  0  0  0  0
  -23.6292   -8.2264   22.0755 C   0  0  0  0  0  0
  -22.4299   -8.0261   21.3506 C   0  0  0  0  0  0
  -21.9901   -9.0256   20.4641 C   0  0  0  0  0  0
  -22.7224  -10.2140   20.3053 C   0  0  0  0  0  0
  -21.6855   -6.0730   22.5277 C   0  0  0  0  0  0
  -21.4013   -6.5640   23.8219 C   0  0  0  0  0  0
  -21.3667   -5.6787   24.9185 C   0  0  0  0  0  0
  -21.6051   -4.3057   24.7221 C   0  0  0  0  0  0
  -21.8812   -3.8145   23.4345 C   0  0  0  0  0  0
  -21.9198   -4.6963   22.3400 C   0  0  0  0  0  0
  -22.7772  -13.5259   21.1858 C   0  0  0  0  0  0
  -22.1644   -4.2169   21.0973 F   0  0  0  0  0  0
  -21.5639   -3.4510   25.7717 F   0  0  0  0  0  0
  -29.9463  -13.6827   20.4369 N   0  0  0  0  0  0
  -26.2846  -12.9470   20.3192 N   0  0  0  0  0  0
  -25.9290  -11.6598   20.5692 N   0  0  0  0  0  0
  -22.0401  -12.8243   22.0431 N   0  0  0  0  0  0
  -25.4145  -15.1969   20.4140 N   0  0  0  0  0  0
  -31.6754  -15.0710   20.0671 O   0  0  0  0  0  0
  -21.6654   -6.8861   21.4215 O   0  0  0  0  0  0
  -22.3441  -14.5550   20.6728 O   0  0  0  0  0  0
  -24.6505  -31.8416   23.1816 C   0  0  0  0  0  0
  -25.9265  -32.4653   23.8212 C   0  0  1  0  0  0
  -27.2258  -27.1016   20.1851 C   0  0  0  0  0  0
  -25.6034  -33.8450   24.2151 N   0  0  0  0  0  0
  -23.4505  -30.4601   21.5275 C   0  0  2  0  0  0
  -24.8990  -28.8630   20.1232 C   0  0  0  0  0  0
  -22.7582  -29.4597   22.4859 C   0  0  0  0  0  0
  -18.0313  -28.1382   22.8496 C   0  0  0  0  0  0
  -24.1508  -36.7240   23.2632 C   0  0  0  0  0  0
  -26.0087  -30.7046   21.3873 C   0  0  0  0  0  0
  -26.0794  -29.3085   20.7362 C   0  0  0  0  0  0
  -27.2457  -28.4482   20.7358 C   0  0  0  0  0  0
  -26.0172  -26.7565   19.5435 C   0  0  0  0  0  0
  -24.8812  -27.5976   19.5137 C   0  0  0  0  0  0
  -23.6817  -29.7742   20.1544 C   0  0  0  0  0  0
  -25.4137  -36.2974   24.0284 C   0  0  1  0  0  0
  -20.5934  -28.3754   23.1219 C   0  0  2  0  0  0
  -20.6802  -26.9455   22.5407 C   0  0  0  0  0  0
  -19.5763  -26.6375   21.5225 C   0  0  0  0  0  0
  -18.1950  -26.7925   22.1624 C   0  0  0  0  0  0
  -19.1576  -28.8876   23.2844 C   0  0  0  0  0  0
  -18.9497  -30.1490   23.8834 C   0  0  0  0  0  0
  -17.6487  -30.6589   24.0567 C   0  0  0  0  0  0
  -25.9121  -34.9364   23.5012 C   0  0  0  0  0  0
  -16.5378  -29.9086   23.6330 C   0  0  0  0  0  0
  -16.7297  -28.6499   23.0357 C   0  0  0  0  0  0
  -26.4574  -31.6499   25.0659 C   0  0  0  0  0  0
  -25.3776  -31.3721   26.1372 C   0  0  0  0  0  0
  -27.0435  -30.2852   24.6290 C   0  0  0  0  0  0
  -27.6057  -32.4292   25.7488 C   0  0  0  0  0  0
  -27.5562  -37.1764   24.8450 C   0  0  0  0  0  0
  -21.4279  -29.3054   22.3571 N   0  0  0  0  0  0
  -26.4267  -37.3718   23.9406 N   0  0  0  0  0  0
  -24.7217  -31.0254   22.0865 N   0  0  0  0  0  0
  -23.4225  -28.8185   23.3027 O   0  0  0  0  0  0
  -28.3068  -26.1474   20.0859 O   0  0  0  0  0  0
  -26.5714  -34.8862   22.4590 O   0  0  0  0  0  0
  -23.5615  -32.1341   23.7031 O   0  0  0  0  0  0
  -28.3222  -23.2283   20.5328 C   0  0  0  0  0  0
  -29.2150  -22.1045   20.4731 C   0  0  0  0  0  0
  -30.5356  -22.5086   17.8967 C   0  0  0  0  0  0
  -32.7005  -23.0909   19.0443 C   0  0  0  0  0  0
  -29.2673  -20.3653   23.2444 C   0  0  0  0  0  0
  -27.6085  -18.5642   22.6582 C   0  0  0  0  0  0
  -29.9741  -18.0286   23.3136 C   0  0  0  0  0  0
  -27.5503  -20.2530   19.8357 C   0  0  0  0  0  0
  -28.5057  -24.8439   20.9245 C   0  0  0  0  0  0
  -30.7164  -22.3452   20.4824 C   0  0  0  0  0  0
  -29.6543  -17.6137   20.1884 C   0  0  0  0  0  0
  -31.1744  -23.0684   19.1846 C   0  0  0  0  0  0
  -29.5379  -19.1383   21.0021 C   0  0  2  0  0  0
  -29.0799  -19.0183   22.5146 C   0  0  0  0  0  0
  -29.7142  -16.1096   20.7354 N   0  0  0  0  0  0
  -28.9540  -20.4596   20.2379 N   0  3  2  0  0  0
  -31.4798  -12.7852   19.2298 H   0  0  0  0  0  0
  -30.4601  -11.6454   20.0646 H   0  0  0  0  0  0
  -29.8785  -11.7514   17.6209 H   0  0  0  0  0  0
  -29.6266  -13.4771   17.7320 H   0  0  0  0  0  0
  -27.9454  -11.2846   18.9532 H   0  0  0  0  0  0
  -27.4199  -12.4911   17.8084 H   0  0  0  0  0  0
  -27.6002  -14.2585   19.4295 H   0  0  0  0  0  0
  -28.7276  -12.2746   21.4597 H   0  0  0  0  0  0
  -28.3378  -13.9441   21.7919 H   0  0  0  0  0  0
  -25.2731   -9.5767   22.4745 H   0  0  0  0  0  0
  -24.0033   -7.4679   22.7471 H   0  0  0  0  0  0
  -21.0831   -8.8735   19.8962 H   0  0  0  0  0  0
  -22.3633  -10.9652   19.6171 H   0  0  0  0  0  0
  -21.1978   -7.6151   23.9722 H   0  0  0  0  0  0
  -21.1500   -6.0522   25.9094 H   0  0  0  0  0  0
  -22.0591   -2.7602   23.2833 H   0  0  0  0  0  0
  -22.3938  -11.9923   22.4907 H   0  0  0  0  0  0
  -21.1006  -13.1293   22.2570 H   0  0  0  0  0  0
  -24.6537  -15.8548   20.5442 H   0  0  0  0  0  0
  -26.2625  -15.6305   20.0708 H   0  0  0  0  0  0
  -26.7353  -32.5242   23.0970 H   0  0  0  0  0  0
  -25.0163  -33.9543   25.0274 H   0  0  0  0  0  0
  -22.7519  -31.2847   21.3644 H   0  0  0  0  0  0
  -23.3750  -35.9597   23.3290 H   0  0  0  0  0  0
  -24.3623  -36.8891   22.2049 H   0  0  0  0  0  0
  -23.7237  -37.6410   23.6714 H   0  0  0  0  0  0
  -26.1725  -31.4484   20.6081 H   0  0  0  0  0  0
  -26.8786  -30.7568   22.0329 H   0  0  0  0  0  0
  -28.1611  -28.8035   21.1929 H   0  0  0  0  0  0
  -25.9462  -25.7893   19.0647 H   0  0  0  0  0  0
  -23.9796  -27.2461   19.0298 H   0  0  0  0  0  0
  -23.8225  -30.5398   19.3894 H   0  0  0  0  0  0
  -22.7921  -29.2209   19.8517 H   0  0  0  0  0  0
  -25.1321  -36.1797   25.0770 H   0  0  0  0  0  0
  -21.0020  -28.3350   24.1346 H   0  0  0  0  0  0
  -20.5692  -26.2400   23.3662 H   0  0  0  0  0  0
  -21.6676  -26.7471   22.1194 H   0  0  0  0  0  0
  -19.6937  -25.6282   21.1267 H   0  0  0  0  0  0
  -19.6639  -27.3172   20.6736 H   0  0  0  0  0  0
  -17.4236  -26.6717   21.4022 H   0  0  0  0  0  0
  -18.0323  -26.0065   22.8996 H   0  0  0  0  0  0
  -19.7983  -30.7345   24.2152 H   0  0  0  0  0  0
  -17.5033  -31.6246   24.5221 H   0  0  0  0  0  0
  -15.5377  -30.2955   23.7651 H   0  0  0  0  0  0
  -15.8715  -28.0780   22.7062 H   0  0  0  0  0  0
  -24.5969  -30.7047   25.7730 H   0  0  0  0  0  0
  -24.8993  -32.2923   26.4720 H   0  0  0  0  0  0
  -25.8098  -30.8961   27.0188 H   0  0  0  0  0  0
  -26.3065  -29.6533   24.1339 H   0  0  0  0  0  0
  -27.4024  -29.7183   25.4885 H   0  0  0  0  0  0
  -27.8996  -30.3985   23.9647 H   0  0  0  0  0  0
  -27.2600  -33.3623   26.1966 H   0  0  0  0  0  0
  -28.3971  -32.6803   25.0415 H   0  0  0  0  0  0
  -28.0657  -31.8493   26.5502 H   0  0  0  0  0  0
  -28.2556  -38.0086   24.7544 H   0  0  0  0  0  0
  -28.1089  -36.2605   24.6267 H   0  0  0  0  0  0
  -27.2328  -37.1410   25.8867 H   0  0  0  0  0  0
  -20.9527  -29.8743   21.6713 H   0  0  0  0  0  0
  -26.0124  -38.2790   24.1395 H   0  0  0  0  0  0
  -27.2737  -23.0101   20.3904 H   0  0  0  0  0  0
  -30.9281  -23.0173   17.0147 H   0  0  0  0  0  0
  -29.4549  -22.6601   17.8693 H   0  0  0  0  0  0
  -30.7332  -21.4456   17.7687 H   0  0  0  0  0  0
  -33.0029  -23.6177   18.1367 H   0  0  0  0  0  0
  -33.1026  -22.0798   18.9917 H   0  0  0  0  0  0
  -33.1737  -23.5980   19.8859 H   0  0  0  0  0  0
  -29.0065  -20.2901   24.2985 H   0  0  0  0  0  0
  -28.6271  -21.1450   22.8414 H   0  0  0  0  0  0
  -30.3015  -20.7133   23.1945 H   0  0  0  0  0  0
  -27.3695  -18.3382   23.6993 H   0  0  0  0  0  0
  -27.3918  -17.6704   22.0721 H   0  0  0  0  0  0
  -26.9038  -19.3350   22.3493 H   0  0  0  0  0  0
  -29.7901  -18.0934   24.3879 H   0  0  0  0  0  0
  -31.0356  -18.2325   23.1701 H   0  0  0  0  0  0
  -29.8049  -16.9840   23.0624 H   0  0  0  0  0  0
  -26.8900  -20.7029   20.5716 H   0  0  0  0  0  0
  -27.2865  -19.2035   19.7558 H   0  0  0  0  0  0
  -27.3583  -20.7267   18.8728 H   0  0  0  0  0  0
  -29.5381  -24.9221   21.2669 H   0  0  0  0  0  0
  -27.9095  -24.9911   21.8260 H   0  0  0  0  0  0
  -31.2643  -21.4158   20.6069 H   0  0  0  0  0  0
  -30.9634  -22.9476   21.3553 H   0  0  0  0  0  0
  -30.5089  -17.6776   19.5104 H   0  0  0  0  0  0
  -28.7949  -17.5646   19.5234 H   0  0  0  0  0  0
  -30.8497  -24.1071   19.2620 H   0  0  0  0  0  0
  -30.5911  -19.3942   21.1039 H   0  0  0  0  0  0
  -28.8464  -15.8286   21.1682 H   0  0  0  0  0  0
  -29.4286  -20.2995   19.3633 H   0  0  0  0  0  0
  1 25  1  0  0  0
  1 30  2  0  0  0
  1 85  1  0  0  0
  2  3  1  0  0  0
  2 25  1  0  0  0
  2 87  1  0  0  0
  2 88  1  0  0  0
  3  4  1  0  0  0
  3 89  1  0  0  0
  3 90  1  0  0  0
  4  5  1  0  0  0
  4 91  1  0  0  0
  4 92  1  0  0  0
  5  6  1  0  0  0
  5 26  1  0  0  0
  5 93  1  0  0  0
  6 25  1  0  0  0
  6 94  1  0  0  0
  6 95  1  0  0  0
  7  8  2  0  0  0
  7 26  1  0  0  0
  7 29  1  0  0  0
  8  9  1  0  0  0
  8 22  1  0  0  0
  9 10  1  0  0  0
  9 27  2  0  0  0
 10 11  2  0  0  0
 10 15  1  0  0  0
 11 12  1  0  0  0
 11 96  1  0  0  0
 12 13  2  0  0  0
 12 97  1  0  0  0
 13 14  1  0  0  0
 13 31  1  0  0  0
 14 15  2  0  0  0
 14 98  1  0  0  0
 15 99  1  0  0  0
 16 17  2  0  0  0
 16 21  1  0  0  0
 16 31  1  0  0  0
 17 18  1  0  0  0
 17100  1  0  0  0
 18 19  2  0  0  0
 18101  1  0  0  0
 19 20  1  0  0  0
 19 24  1  0  0  0
 20 21  2  0  0  0
 20102  1  0  0  0
 21 23  1  0  0  0
 22 28  1  0  0  0
 22 32  2  0  0  0
 26 27  1  0  0  0
 28103  1  0  0  0
 28104  1  0  0  0
 29105  1  0  0  0
 29106  1  0  0  0
 33 34  1  0  0  0
 33 66  1  0  0  0
 33 70  2  0  0  0
 34 36  1  0  0  0
 34 59  1  0  0  0
 34107  1  0  0  0
 35 44  2  0  0  0
 35 45  1  0  0  0
 35 68  1  0  0  0
 36 56  1  0  0  0
 36108  1  0  0  0
 37 39  1  0  0  0
 37 47  1  0  0  0
 37 66  1  0  0  0
 37109  1  0  0  0
 38 43  2  0  0  0
 38 46  1  0  0  0
 38 47  1  0  0  0
 39 64  1  0  0  0
 39 67  2  0  0  0
 40 52  1  0  0  0
 40 53  2  0  0  0
 40 58  1  0  0  0
 41110  1  0  0  0
 41111  1  0  0  0
 41112  1  0  0  0
 41 48  1  0  0  0
 42 43  1  0  0  0
 42 66  1  0  0  0
 42113  1  0  0  0
 42114  1  0  0  0
 43 44  1  0  0  0
 44115  1  0  0  0
 45 46  2  0  0  0
 45116  1  0  0  0
 46117  1  0  0  0
 47118  1  0  0  0
 47119  1  0  0  0
 48 56  1  0  0  0
 48 65  1  0  0  0
 48120  1  0  0  0
 49 50  1  0  0  0
 49 53  1  0  0  0
 49 64  1  0  0  0
 49121  1  0  0  0
 50 51  1  0  0  0
 50122  1  0  0  0
 50123  1  0  0  0
 51 52  1  0  0  0
 51124  1  0  0  0
 51125  1  0  0  0
 52126  1  0  0  0
 52127  1  0  0  0
 53 54  1  0  0  0
 54 55  2  0  0  0
 54128  1  0  0  0
 55 57  1  0  0  0
 55129  1  0  0  0
 56 69  2  0  0  0
 57 58  2  0  0  0
 57130  1  0  0  0
 58131  1  0  0  0
 59 60  1  0  0  0
 59 61  1  0  0  0
 59 62  1  0  0  0
 60132  1  0  0  0
 60133  1  0  0  0
 60134  1  0  0  0
 61135  1  0  0  0
 61136  1  0  0  0
 61137  1  0  0  0
 62138  1  0  0  0
 62139  1  0  0  0
 62140  1  0  0  0
 63 65  1  0  0  0
 63141  1  0  0  0
 63142  1  0  0  0
 63143  1  0  0  0
 64144  1  0  0  0
 65145  1  0  0  0
 68 79  1  0  0  0
 71 72  2  0  0  0
 71 79  1  0  0  0
 71146  1  0  0  0
 72 80  1  0  0  0
 72 86  1  0  0  0
 73147  1  0  0  0
 73148  1  0  0  0
 73149  1  0  0  0
 73 82  1  0  0  0
 74 82  1  0  0  0
 74150  1  0  0  0
 74151  1  0  0  0
 74152  1  0  0  0
 75153  1  0  0  0
 75154  1  0  0  0
 75155  1  0  0  0
 75 84  1  0  0  0
 76 84  1  0  0  0
 76156  1  0  0  0
 76157  1  0  0  0
 76158  1  0  0  0
 77 84  1  0  0  0
 77159  1  0  0  0
 77160  1  0  0  0
 77161  1  0  0  0
 78162  1  0  0  0
 78163  1  0  0  0
 78164  1  0  0  0
 78 86  1  0  0  0
 79165  1  0  0  0
 79166  1  0  0  0
 80 82  1  0  0  0
 80167  1  0  0  0
 80168  1  0  0  0
 81 85  1  0  0  0
 81169  1  0  0  0
 81170  1  0  0  0
 81 83  1  0  0  0
 82171  1  0  0  0
 83 84  1  0  0  0
 83 86  1  0  0  0
 83172  1  0  0  0
 85173  1  0  0  0
 86174  1  0  0  0
M  CHG  1  86   1
M  ISO  4   1 100  68 101  79 101  85 100
M  END
> <chiral flag>
0

> <version>
0

> <s_m_source_file>
/data/baiqing/PycharmProjects/Reinvent-master-3.2/result/LINK_invent/BTK/process_docking_weight1_custom_sum_contain_oxygen_bond_distance_aromatic_linkinvent_7_9_3/rearranged_h_0017.sdf

> <i_m_source_file_index>
88

> <r_mmod_Potential_Energy-OPLS-2005>
645.057373046875

> <r_mmod_Stretch_Energy-OPLS-2005>
346.592987060547

> <r_mmod_Bend_Energy-OPLS-2005>
363.860870361328

> <r_mmod_Torsional_Energy-OPLS-2005>
291.077697753906

> <r_mmod_Improper_Torsional_Energy-OPLS-2005>
8.29052639007568

> <r_mmod_Van_der_Waal_Energy-OPLS-2005>
110.513465881348

> <r_mmod_Electrostatic_Energy-OPLS-2005>
-244.467346191406

> <r_mmod_Solvation_Energy-OPLS-2005>
-434.651245117188

> <b_mmod_Minimization_Converged-OPLS-2005>
0

> <r_mmod_RMS_Derivative-OPLS-2005>
6.57929039001465

$$$$
90
                    3D
 Structure written by MMmdl.
160168  0  0  1  0            999 V2000
  -30.4339  -15.1849   20.3719 C   0  0  0  0  0  0
  -30.4492  -12.7489   19.5111 C   0  0  0  0  0  0
  -29.5342  -12.5644   18.2742 C   0  0  0  0  0  0
  -28.0777  -12.3026   18.7012 C   0  0  0  0  0  0
  -27.6180  -13.2639   19.8264 C   0  0  2  0  0  0
  -28.6578  -13.3874   20.9598 C   0  0  0  0  0  0
  -25.2432  -13.8216   20.5787 C   0  0  0  0  0  0
  -24.1759  -13.0418   20.9247 C   0  0  0  0  0  0
  -24.6395  -11.6915   20.8741 C   0  0  0  0  0  0
  -23.9083  -10.4286   21.0396 C   0  0  0  0  0  0
  -24.3629   -9.4205   21.9180 C   0  0  0  0  0  0
  -23.6299   -8.2245   22.0755 C   0  0  0  0  0  0
  -22.4279   -8.0282   21.3547 C   0  0  0  0  0  0
  -21.9916   -9.0255   20.4647 C   0  0  0  0  0  0
  -22.7250  -10.2130   20.3051 C   0  0  0  0  0  0
  -21.6856   -6.0736   22.5280 C   0  0  0  0  0  0
  -21.4015   -6.5638   23.8213 C   0  0  0  0  0  0
  -21.3659   -5.6790   24.9174 C   0  0  0  0  0  0
  -21.6044   -4.3053   24.7225 C   0  0  0  0  0  0
  -21.8820   -3.8146   23.4346 C   0  0  0  0  0  0
  -21.9194   -4.6964   22.3402 C   0  0  0  0  0  0
  -22.7780  -13.5193   21.1896 C   0  0  0  0  0  0
  -22.1664   -4.2150   21.0980 F   0  0  0  0  0  0
  -21.5627   -3.4536   25.7737 F   0  0  0  0  0  0
  -29.9008  -13.8743   20.3409 N   0  0  0  0  0  0
  -26.2848  -12.9477   20.3222 N   0  0  0  0  0  0
  -25.9328  -11.6590   20.5696 N   0  0  0  0  0  0
  -22.0427  -12.8184   22.0449 N   0  0  0  0  0  0
  -25.4058  -15.1956   20.4367 N   0  0  0  0  0  0
  -31.6538  -15.2441   20.1631 O   0  0  0  0  0  0
  -21.6640   -6.8882   21.4243 O   0  0  0  0  0  0
  -22.3467  -14.5496   20.6739 O   0  0  0  0  0  0
  -24.6579  -31.8280   23.1737 C   0  0  0  0  0  0
  -25.9283  -32.4610   23.8184 C   0  0  1  0  0  0
  -27.2234  -26.9801   20.1758 C   0  0  0  0  0  0
  -25.5970  -33.8422   24.2095 N   0  0  0  0  0  0
  -23.4703  -30.4402   21.5221 C   0  0  2  0  0  0
  -24.9233  -28.8342   20.1122 C   0  0  0  0  0  0
  -22.7641  -29.4463   22.4803 C   0  0  0  0  0  0
  -18.0317  -28.1404   22.8467 C   0  0  0  0  0  0
  -24.1495  -36.7217   23.2646 C   0  0  0  0  0  0
  -26.0359  -30.6515   21.3955 C   0  0  0  0  0  0
  -26.1057  -29.2462   20.7394 C   0  0  0  0  0  0
  -27.2518  -28.3396   20.7457 C   0  0  0  0  0  0
  -26.0111  -26.7038   19.5063 C   0  0  0  0  0  0
  -24.8981  -27.5821   19.4763 C   0  0  0  0  0  0
  -23.7068  -29.7561   20.1477 C   0  0  0  0  0  0
  -25.4134  -36.2979   24.0302 C   0  0  1  0  0  0
  -20.5938  -28.3743   23.1201 C   0  0  2  0  0  0
  -20.6796  -26.9431   22.5403 C   0  0  0  0  0  0
  -19.5772  -26.6377   21.5212 C   0  0  0  0  0  0
  -18.1953  -26.7938   22.1620 C   0  0  0  0  0  0
  -19.1577  -28.8895   23.2821 C   0  0  0  0  0  0
  -18.9489  -30.1486   23.8855 C   0  0  0  0  0  0
  -17.6483  -30.6596   24.0553 C   0  0  0  0  0  0
  -25.9094  -34.9362   23.5018 C   0  0  0  0  0  0
  -16.5373  -29.9083   23.6342 C   0  0  0  0  0  0
  -16.7299  -28.6503   23.0360 C   0  0  0  0  0  0
  -26.4551  -31.6539   25.0693 C   0  0  0  0  0  0
  -25.3691  -31.3776   26.1360 C   0  0  0  0  0  0
  -27.0441  -30.2912   24.6393 C   0  0  0  0  0  0
  -27.6050  -32.4341   25.7492 C   0  0  0  0  0  0
  -27.5573  -37.1764   24.8464 C   0  0  0  0  0  0
  -21.4317  -29.3039   22.3554 N   0  0  0  0  0  0
  -26.4281  -37.3712   23.9407 N   0  0  0  0  0  0
  -24.7423  -30.9987   22.0846 N   0  0  0  0  0  0
  -23.4210  -28.8031   23.3028 O   0  0  0  0  0  0
  -28.2498  -25.9161   20.2464 O   0  0  0  0  0  0
  -26.5700  -34.8890   22.4610 O   0  0  0  0  0  0
  -23.5662  -32.1227   23.6865 O   0  0  0  0  0  0
  -30.5560  -18.9581   20.6270 C   0  0  0  0  0  0
  -30.3926  -20.4343   20.6184 C   0  0  0  0  0  0
  -29.1775  -21.2083   20.3350 C   0  0  0  0  0  0
  -28.1511  -20.2172   20.0446 C   0  0  0  0  0  0
  -29.5390  -17.9685   20.3504 C   0  0  0  0  0  0
  -28.3308  -18.7340   20.0402 C   0  0  0  0  0  0
  -31.6423  -21.2311   20.9547 C   0  0  0  0  0  0
  -26.7726  -20.7557   19.7025 C   0  0  0  0  0  0
  -25.8301  -17.6422   17.7666 C   0  0  0  0  0  0
  -29.1455  -22.9545   20.3873 C   0  0  0  0  0  0
  -27.2502  -17.5568   18.3306 C   0  0  0  0  0  0
  -28.0278  -24.3040   20.1196 C   0  0  0  0  0  0
  -29.5694  -16.3671   20.4173 N   0  0  0  0  0  0
  -27.2362  -17.9844   19.6894 O   0  0  0  0  0  0
  -31.4691  -12.9570   19.1840 H   0  0  0  0  0  0
  -30.5068  -11.8285   20.0942 H   0  0  0  0  0  0
  -29.8968  -11.7458   17.6509 H   0  0  0  0  0  0
  -29.5757  -13.4624   17.6558 H   0  0  0  0  0  0
  -28.0196  -11.2729   19.0559 H   0  0  0  0  0  0
  -27.4090  -12.3684   17.8422 H   0  0  0  0  0  0
  -27.5455  -14.2419   19.3504 H   0  0  0  0  0  0
  -28.8057  -12.4352   21.4712 H   0  0  0  0  0  0
  -28.3154  -14.0957   21.7163 H   0  0  0  0  0  0
  -25.2774   -9.5682   22.4754 H   0  0  0  0  0  0
  -24.0006   -7.4636   22.7476 H   0  0  0  0  0  0
  -21.0846   -8.8776   19.8955 H   0  0  0  0  0  0
  -22.3709  -10.9669   19.6159 H   0  0  0  0  0  0
  -21.2008   -7.6147   23.9716 H   0  0  0  0  0  0
  -21.1480   -6.0521   25.9077 H   0  0  0  0  0  0
  -22.0599   -2.7609   23.2845 H   0  0  0  0  0  0
  -22.4044  -11.9850   22.4843 H   0  0  0  0  0  0
  -21.1045  -13.1212   22.2650 H   0  0  0  0  0  0
  -24.6330  -15.8359   20.5797 H   0  0  0  0  0  0
  -26.2476  -15.6650   20.1340 H   0  0  0  0  0  0
  -26.7350  -32.5166   23.0900 H   0  0  0  0  0  0
  -25.0071  -33.9505   25.0213 H   0  0  0  0  0  0
  -22.7806  -31.2701   21.3541 H   0  0  0  0  0  0
  -23.3768  -35.9536   23.3279 H   0  0  0  0  0  0
  -24.3573  -36.8890   22.2066 H   0  0  0  0  0  0
  -23.7241  -37.6394   23.6717 H   0  0  0  0  0  0
  -26.2100  -31.3963   20.6181 H   0  0  0  0  0  0
  -26.8983  -30.7065   22.0481 H   0  0  0  0  0  0
  -28.1496  -28.6534   21.2595 H   0  0  0  0  0  0
  -25.8941  -25.7451   19.0227 H   0  0  0  0  0  0
  -23.9981  -27.2603   18.9705 H   0  0  0  0  0  0
  -23.8575  -30.5245   19.3888 H   0  0  0  0  0  0
  -22.8178  -29.2067   19.8330 H   0  0  0  0  0  0
  -25.1331  -36.1780   25.0793 H   0  0  0  0  0  0
  -21.0022  -28.3346   24.1326 H   0  0  0  0  0  0
  -20.5679  -26.2360   23.3637 H   0  0  0  0  0  0
  -21.6661  -26.7415   22.1209 H   0  0  0  0  0  0
  -19.6931  -25.6275   21.1271 H   0  0  0  0  0  0
  -19.6711  -27.3162   20.6722 H   0  0  0  0  0  0
  -17.4221  -26.6677   21.4024 H   0  0  0  0  0  0
  -18.0350  -26.0091   22.9029 H   0  0  0  0  0  0
  -19.7964  -30.7312   24.2206 H   0  0  0  0  0  0
  -17.5035  -31.6273   24.5161 H   0  0  0  0  0  0
  -15.5372  -30.2970   23.7693 H   0  0  0  0  0  0
  -15.8699  -28.0807   22.7101 H   0  0  0  0  0  0
  -24.5881  -30.7119   25.7669 H   0  0  0  0  0  0
  -24.8873  -32.2974   26.4683 H   0  0  0  0  0  0
  -25.7934  -30.9008   27.0204 H   0  0  0  0  0  0
  -26.3094  -29.6596   24.1387 H   0  0  0  0  0  0
  -27.3976  -29.7266   25.5030 H   0  0  0  0  0  0
  -27.9033  -30.4104   23.9792 H   0  0  0  0  0  0
  -27.2619  -33.3677   26.1965 H   0  0  0  0  0  0
  -28.3914  -32.6849   25.0361 H   0  0  0  0  0  0
  -28.0660  -31.8539   26.5496 H   0  0  0  0  0  0
  -28.2571  -38.0079   24.7517 H   0  0  0  0  0  0
  -28.1090  -36.2605   24.6284 H   0  0  0  0  0  0
  -27.2289  -37.1399   25.8867 H   0  0  0  0  0  0
  -20.9562  -29.8727   21.6689 H   0  0  0  0  0  0
  -26.0133  -38.2772   24.1417 H   0  0  0  0  0  0
  -31.5306  -18.5658   20.8816 H   0  0  0  0  0  0
  -32.4932  -20.5855   21.1731 H   0  0  0  0  0  0
  -31.4764  -21.8572   21.8314 H   0  0  0  0  0  0
  -31.9258  -21.8722   20.1197 H   0  0  0  0  0  0
  -26.6134  -21.7458   20.1267 H   0  0  0  0  0  0
  -25.9856  -20.1107   20.0937 H   0  0  0  0  0  0
  -26.6542  -20.8237   18.6213 H   0  0  0  0  0  0
  -25.8052  -17.3128   16.7279 H   0  0  0  0  0  0
  -25.4566  -18.6655   17.7992 H   0  0  0  0  0  0
  -25.1381  -17.0165   18.3293 H   0  0  0  0  0  0
  -29.9828  -23.2139   19.7399 H   0  0  0  0  0  0
  -29.5192  -23.1548   21.3909 H   0  0  0  0  0  0
  -27.9171  -18.1659   17.7160 H   0  0  0  0  0  0
  -27.6151  -16.5307   18.2759 H   0  0  0  0  0  0
  -27.1719  -24.1032   20.7641 H   0  0  0  0  0  0
  -27.6470  -24.1610   19.1082 H   0  0  0  0  0  0
  -28.6223  -16.0267   20.4712 H   0  0  0  0  0  0
  1 25  1  0  0  0
  1 30  2  0  0  0
  1 83  1  0  0  0
  2  3  1  0  0  0
  2 25  1  0  0  0
  2 85  1  0  0  0
  2 86  1  0  0  0
  3  4  1  0  0  0
  3 87  1  0  0  0
  3 88  1  0  0  0
  4  5  1  0  0  0
  4 89  1  0  0  0
  4 90  1  0  0  0
  5  6  1  0  0  0
  5 26  1  0  0  0
  5 91  1  0  0  0
  6 25  1  0  0  0
  6 92  1  0  0  0
  6 93  1  0  0  0
  7  8  2  0  0  0
  7 26  1  0  0  0
  7 29  1  0  0  0
  8  9  1  0  0  0
  8 22  1  0  0  0
  9 10  1  0  0  0
  9 27  2  0  0  0
 10 11  2  0  0  0
 10 15  1  0  0  0
 11 12  1  0  0  0
 11 94  1  0  0  0
 12 13  2  0  0  0
 12 95  1  0  0  0
 13 14  1  0  0  0
 13 31  1  0  0  0
 14 15  2  0  0  0
 14 96  1  0  0  0
 15 97  1  0  0  0
 16 17  2  0  0  0
 16 21  1  0  0  0
 16 31  1  0  0  0
 17 18  1  0  0  0
 17 98  1  0  0  0
 18 19  2  0  0  0
 18 99  1  0  0  0
 19 20  1  0  0  0
 19 24  1  0  0  0
 20 21  2  0  0  0
 20100  1  0  0  0
 21 23  1  0  0  0
 22 28  1  0  0  0
 22 32  2  0  0  0
 26 27  1  0  0  0
 28101  1  0  0  0
 28102  1  0  0  0
 29103  1  0  0  0
 29104  1  0  0  0
 33 34  1  0  0  0
 33 66  1  0  0  0
 33 70  2  0  0  0
 34 36  1  0  0  0
 34 59  1  0  0  0
 34105  1  0  0  0
 35 44  2  0  0  0
 35 45  1  0  0  0
 35 68  1  0  0  0
 36 56  1  0  0  0
 36106  1  0  0  0
 37 39  1  0  0  0
 37 47  1  0  0  0
 37 66  1  0  0  0
 37107  1  0  0  0
 38 43  2  0  0  0
 38 46  1  0  0  0
 38 47  1  0  0  0
 39 64  1  0  0  0
 39 67  2  0  0  0
 40 52  1  0  0  0
 40 53  2  0  0  0
 40 58  1  0  0  0
 41108  1  0  0  0
 41109  1  0  0  0
 41110  1  0  0  0
 41 48  1  0  0  0
 42 43  1  0  0  0
 42 66  1  0  0  0
 42111  1  0  0  0
 42112  1  0  0  0
 43 44  1  0  0  0
 44113  1  0  0  0
 45 46  2  0  0  0
 45114  1  0  0  0
 46115  1  0  0  0
 47116  1  0  0  0
 47117  1  0  0  0
 48 56  1  0  0  0
 48 65  1  0  0  0
 48118  1  0  0  0
 49 50  1  0  0  0
 49 53  1  0  0  0
 49 64  1  0  0  0
 49119  1  0  0  0
 50 51  1  0  0  0
 50120  1  0  0  0
 50121  1  0  0  0
 51 52  1  0  0  0
 51122  1  0  0  0
 51123  1  0  0  0
 52124  1  0  0  0
 52125  1  0  0  0
 53 54  1  0  0  0
 54 55  2  0  0  0
 54126  1  0  0  0
 55 57  1  0  0  0
 55127  1  0  0  0
 56 69  2  0  0  0
 57 58  2  0  0  0
 57128  1  0  0  0
 58129  1  0  0  0
 59 60  1  0  0  0
 59 61  1  0  0  0
 59 62  1  0  0  0
 60130  1  0  0  0
 60131  1  0  0  0
 60132  1  0  0  0
 61133  1  0  0  0
 61134  1  0  0  0
 61135  1  0  0  0
 62136  1  0  0  0
 62137  1  0  0  0
 62138  1  0  0  0
 63 65  1  0  0  0
 63139  1  0  0  0
 63140  1  0  0  0
 63141  1  0  0  0
 64142  1  0  0  0
 65143  1  0  0  0
 68 82  1  0  0  0
 71 72  2  0  0  0
 71 75  1  0  0  0
 71144  1  0  0  0
 72 73  1  0  0  0
 72 77  1  0  0  0
 73 74  2  0  0  0
 73 80  1  0  0  0
 74 76  1  0  0  0
 74 78  1  0  0  0
 75 76  2  0  0  0
 75 83  1  0  0  0
 76 84  1  0  0  0
 77145  1  0  0  0
 77146  1  0  0  0
 77147  1  0  0  0
 78148  1  0  0  0
 78149  1  0  0  0
 78150  1  0  0  0
 79 81  1  0  0  0
 79151  1  0  0  0
 79152  1  0  0  0
 79153  1  0  0  0
 80 82  1  0  0  0
 80154  1  0  0  0
 80155  1  0  0  0
 81 84  1  0  0  0
 81156  1  0  0  0
 81157  1  0  0  0
 82158  1  0  0  0
 82159  1  0  0  0
 83160  1  0  0  0
M  ISO  4   1 100  68 101  82 101  83 100
M  END
> <chiral flag>
0

> <version>
0

> <s_m_source_file>
/data/baiqing/PycharmProjects/Reinvent-master-3.2/result/LINK_invent/BTK/process_docking_weight1_custom_sum_contain_oxygen_bond_distance_aromatic_linkinvent_7_9_3/rearranged_h_0017.sdf

> <i_m_source_file_index>
89

> <r_mmod_Potential_Energy-OPLS-2005>
1000.66986083984

> <r_mmod_Stretch_Energy-OPLS-2005>
457.089965820312

> <r_mmod_Bend_Energy-OPLS-2005>
414.879943847656

> <r_mmod_Torsional_Energy-OPLS-2005>
248.422882080078

> <r_mmod_Improper_Torsional_Energy-OPLS-2005>
4.66607761383057

> <r_mmod_Van_der_Waal_Energy-OPLS-2005>
119.239379882812

> <r_mmod_Electrostatic_Energy-OPLS-2005>
-423.365753173828

> <r_mmod_Solvation_Energy-OPLS-2005>
-201.735412597656

> <b_mmod_Minimization_Converged-OPLS-2005>
0

> <r_mmod_RMS_Derivative-OPLS-2005>
0.467230439186096

$$$$
91
                    3D
 Structure written by MMmdl.
164172  0  0  1  0            999 V2000
  -30.6155  -14.6288   20.5213 C   0  0  0  0  0  0
  -30.4431  -12.3900   19.4496 C   0  0  0  0  0  0
  -29.5099  -12.5165   18.2242 C   0  0  0  0  0  0
  -28.0322  -12.3518   18.6344 C   0  0  0  0  0  0
  -27.6573  -13.2133   19.8699 C   0  0  2  0  0  0
  -28.7010  -13.0443   20.9973 C   0  0  0  0  0  0
  -25.2577  -13.8166   20.5692 C   0  0  0  0  0  0
  -24.1834  -13.0437   20.9185 C   0  0  0  0  0  0
  -24.6395  -11.6905   20.8733 C   0  0  0  0  0  0
  -23.9059  -10.4292   21.0400 C   0  0  0  0  0  0
  -24.3612   -9.4210   21.9182 C   0  0  0  0  0  0
  -23.6289   -8.2244   22.0752 C   0  0  0  0  0  0
  -22.4272   -8.0278   21.3542 C   0  0  0  0  0  0
  -21.9905   -9.0251   20.4646 C   0  0  0  0  0  0
  -22.7230  -10.2131   20.3054 C   0  0  0  0  0  0
  -21.6850   -6.0733   22.5279 C   0  0  0  0  0  0
  -21.4011   -6.5637   23.8211 C   0  0  0  0  0  0
  -21.3661   -5.6789   24.9174 C   0  0  0  0  0  0
  -21.6048   -4.3053   24.7225 C   0  0  0  0  0  0
  -21.8818   -3.8143   23.4346 C   0  0  0  0  0  0
  -21.9193   -4.6961   22.3402 C   0  0  0  0  0  0
  -22.7857  -13.5238   21.1847 C   0  0  0  0  0  0
  -22.1662   -4.2148   21.0980 F   0  0  0  0  0  0
  -21.5633   -3.4537   25.7738 F   0  0  0  0  0  0
  -30.0194  -13.3969   20.4425 N   0  0  0  0  0  0
  -26.3006  -12.9339   20.3342 N   0  0  0  0  0  0
  -25.9324  -11.6497   20.5758 N   0  0  0  0  0  0
  -22.0492  -12.8235   22.0404 N   0  0  0  0  0  0
  -25.4300  -15.1888   20.4121 N   0  0  0  0  0  0
  -31.7580  -14.8210   20.0927 O   0  0  0  0  0  0
  -21.6638   -6.8875   21.4240 O   0  0  0  0  0  0
  -22.3544  -14.5543   20.6690 O   0  0  0  0  0  0
  -24.6255  -31.8610   23.2038 C   0  0  0  0  0  0
  -25.9109  -32.4783   23.8361 C   0  0  1  0  0  0
  -27.2245  -27.3284   20.1108 C   0  0  0  0  0  0
  -25.5930  -33.8583   24.2290 N   0  0  0  0  0  0
  -23.4183  -30.4855   21.5470 C   0  0  2  0  0  0
  -24.8642  -28.9443   20.1108 C   0  0  0  0  0  0
  -22.7472  -29.4629   22.4948 C   0  0  0  0  0  0
  -18.0283  -28.1381   22.8491 C   0  0  0  0  0  0
  -24.1488  -36.7292   23.2640 C   0  0  0  0  0  0
  -25.9595  -30.7939   21.3747 C   0  0  0  0  0  0
  -26.0336  -29.4234   20.7148 C   0  0  0  0  0  0
  -27.2164  -28.6271   20.7055 C   0  0  0  0  0  0
  -26.0307  -26.9041   19.4797 C   0  0  0  0  0  0
  -24.8644  -27.6895   19.4854 C   0  0  0  0  0  0
  -23.6317  -29.8223   20.1615 C   0  0  0  0  0  0
  -25.4114  -36.3085   24.0331 C   0  0  1  0  0  0
  -20.5885  -28.3685   23.1287 C   0  0  2  0  0  0
  -20.6774  -26.9409   22.5411 C   0  0  0  0  0  0
  -19.5748  -26.6381   21.5216 C   0  0  0  0  0  0
  -18.1927  -26.7927   22.1623 C   0  0  0  0  0  0
  -19.1536  -28.8850   23.2884 C   0  0  0  0  0  0
  -18.9459  -30.1454   23.8898 C   0  0  0  0  0  0
  -17.6459  -30.6588   24.0563 C   0  0  0  0  0  0
  -25.9050  -34.9453   23.5109 C   0  0  0  0  0  0
  -16.5350  -29.9084   23.6332 C   0  0  0  0  0  0
  -16.7270  -28.6499   23.0357 C   0  0  0  0  0  0
  -26.4495  -31.6588   25.0726 C   0  0  0  0  0  0
  -25.3731  -31.3720   26.1454 C   0  0  0  0  0  0
  -27.0341  -30.3014   24.6176 C   0  0  0  0  0  0
  -27.6056  -32.4324   25.7497 C   0  0  0  0  0  0
  -27.5581  -37.1800   24.8466 C   0  0  0  0  0  0
  -21.4187  -29.3042   22.3687 N   0  0  0  0  0  0
  -26.4294  -37.3779   23.9408 N   0  0  0  0  0  0
  -24.6867  -31.0628   22.0988 N   0  0  0  0  0  0
  -23.4200  -28.8169   23.3025 O   0  0  0  0  0  0
  -28.3438  -26.4817   20.1656 O   0  0  0  0  0  0
  -26.5612  -34.8922   22.4671 O   0  0  0  0  0  0
  -23.5422  -32.1404   23.7373 O   0  0  0  0  0  0
  -30.6128  -17.8334   19.9842 C   0  0  0  0  0  0
  -30.5735  -19.2600   19.9246 C   0  0  0  0  0  0
  -29.0430  -17.8600   21.8211 C   0  0  0  0  0  0
  -29.0032  -19.2981   21.7718 C   0  0  0  0  0  0
  -29.8606  -17.0964   20.9330 C   0  0  0  0  0  0
  -29.7766  -20.0352   20.8186 C   0  0  0  0  0  0
  -31.4371  -19.9613   18.8887 C   0  0  0  0  0  0
  -28.1917  -17.1202   22.8569 C   0  0  0  0  0  0
  -28.1407  -20.0345   22.7975 C   0  0  0  0  0  0
  -30.7653  -21.8870   21.9660 C   0  0  0  0  0  0
  -29.2319  -23.9963   20.4586 C   0  0  0  0  0  0
  -28.8814  -22.4371   20.3581 C   0  0  0  0  0  0
  -28.1197  -25.0283   19.9967 C   0  0  0  0  0  0
  -29.8164  -15.6342   20.9933 N   0  0  0  0  0  0
  -29.9193  -21.4700   20.8491 N   0  0  0  0  0  0
  -31.4836  -12.5227   19.1481 H   0  0  0  0  0  0
  -30.3833  -11.3883   19.8784 H   0  0  0  0  0  0
  -29.7745  -11.7741   17.4703 H   0  0  0  0  0  0
  -29.6518  -13.4915   17.7553 H   0  0  0  0  0  0
  -27.8677  -11.2971   18.8579 H   0  0  0  0  0  0
  -27.3780  -12.5896   17.7947 H   0  0  0  0  0  0
  -27.6828  -14.2531   19.5430 H   0  0  0  0  0  0
  -28.7112  -12.0138   21.3557 H   0  0  0  0  0  0
  -28.4415  -13.6511   21.8656 H   0  0  0  0  0  0
  -25.2757   -9.5693   22.4755 H   0  0  0  0  0  0
  -24.0003   -7.4637   22.7469 H   0  0  0  0  0  0
  -21.0837   -8.8762   19.8951 H   0  0  0  0  0  0
  -22.3684  -10.9666   19.6163 H   0  0  0  0  0  0
  -21.1997   -7.6143   23.9717 H   0  0  0  0  0  0
  -21.1487   -6.0517   25.9078 H   0  0  0  0  0  0
  -22.0598   -2.7607   23.2844 H   0  0  0  0  0  0
  -22.4094  -11.9899   22.4808 H   0  0  0  0  0  0
  -21.1108  -13.1266   22.2595 H   0  0  0  0  0  0
  -24.6614  -15.8418   20.5174 H   0  0  0  0  0  0
  -26.2792  -15.6287   20.0806 H   0  0  0  0  0  0
  -26.7177  -32.5453   23.1112 H   0  0  0  0  0  0
  -25.0089  -33.9734   25.0442 H   0  0  0  0  0  0
  -22.7117  -31.3060   21.4054 H   0  0  0  0  0  0
  -23.3756  -35.9619   23.3304 H   0  0  0  0  0  0
  -24.3582  -36.8909   22.2054 H   0  0  0  0  0  0
  -23.7235  -37.6492   23.6659 H   0  0  0  0  0  0
  -26.0918  -31.5591   20.6087 H   0  0  0  0  0  0
  -26.8394  -30.8400   22.0043 H   0  0  0  0  0  0
  -28.1129  -28.9898   21.1889 H   0  0  0  0  0  0
  -25.9666  -25.9483   18.9819 H   0  0  0  0  0  0
  -23.9685  -27.3175   19.0072 H   0  0  0  0  0  0
  -23.7483  -30.5994   19.4053 H   0  0  0  0  0  0
  -22.7522  -29.2503   19.8598 H   0  0  0  0  0  0
  -25.1295  -36.1942   25.0825 H   0  0  0  0  0  0
  -20.9971  -28.3254   24.1409 H   0  0  0  0  0  0
  -20.5680  -26.2296   23.3611 H   0  0  0  0  0  0
  -21.6643  -26.7445   22.1198 H   0  0  0  0  0  0
  -19.6911  -25.6291   21.1246 H   0  0  0  0  0  0
  -19.6686  -27.3194   20.6748 H   0  0  0  0  0  0
  -17.4201  -26.6686   21.4019 H   0  0  0  0  0  0
  -18.0318  -26.0061   22.9009 H   0  0  0  0  0  0
  -19.7938  -30.7270   24.2266 H   0  0  0  0  0  0
  -17.5015  -31.6268   24.5161 H   0  0  0  0  0  0
  -15.5352  -30.2985   23.7656 H   0  0  0  0  0  0
  -15.8670  -28.0816   22.7077 H   0  0  0  0  0  0
  -24.5916  -30.7059   25.7780 H   0  0  0  0  0  0
  -24.8913  -32.2882   26.4874 H   0  0  0  0  0  0
  -25.8059  -30.8902   27.0230 H   0  0  0  0  0  0
  -26.2911  -29.6762   24.1209 H   0  0  0  0  0  0
  -27.4053  -29.7271   25.4675 H   0  0  0  0  0  0
  -27.8775  -30.4303   23.9389 H   0  0  0  0  0  0
  -27.2664  -33.3624   26.2074 H   0  0  0  0  0  0
  -28.3865  -32.6886   25.0324 H   0  0  0  0  0  0
  -28.0726  -31.8450   26.5414 H   0  0  0  0  0  0
  -28.2599  -38.0097   24.7517 H   0  0  0  0  0  0
  -28.1076  -36.2629   24.6289 H   0  0  0  0  0  0
  -27.2299  -37.1443   25.8870 H   0  0  0  0  0  0
  -20.9368  -29.8765   21.6897 H   0  0  0  0  0  0
  -26.0178  -38.2856   24.1410 H   0  0  0  0  0  0
  -31.2333  -17.2991   19.2791 H   0  0  0  0  0  0
  -31.9095  -19.2537   18.2073 H   0  0  0  0  0  0
  -32.2232  -20.5372   19.3774 H   0  0  0  0  0  0
  -30.8338  -20.6465   18.2926 H   0  0  0  0  0  0
  -28.1457  -17.6498   23.8069 H   0  0  0  0  0  0
  -28.5794  -16.1335   23.1052 H   0  0  0  0  0  0
  -27.1734  -16.9989   22.4869 H   0  0  0  0  0  0
  -27.1189  -19.6550   22.7857 H   0  0  0  0  0  0
  -28.0752  -21.1058   22.6383 H   0  0  0  0  0  0
  -28.5497  -19.8977   23.7984 H   0  0  0  0  0  0
  -31.3916  -21.0719   22.3345 H   0  0  0  0  0  0
  -30.1652  -22.2492   22.8015 H   0  0  0  0  0  0
  -31.4337  -22.6917   21.6577 H   0  0  0  0  0  0
  -30.1422  -24.1918   19.8913 H   0  0  0  0  0  0
  -29.4696  -24.2356   21.4947 H   0  0  0  0  0  0
  -28.6840  -22.1984   19.3117 H   0  0  0  0  0  0
  -27.9377  -22.2567   20.8712 H   0  0  0  0  0  0
  -27.2128  -24.7582   20.5407 H   0  0  0  0  0  0
  -27.9163  -24.8405   18.9418 H   0  0  0  0  0  0
  -28.9773  -15.2733   21.4193 H   0  0  0  0  0  0
  1 25  1  0  0  0
  1 30  2  0  0  0
  1 84  1  0  0  0
  2  3  1  0  0  0
  2 25  1  0  0  0
  2 86  1  0  0  0
  2 87  1  0  0  0
  3  4  1  0  0  0
  3 88  1  0  0  0
  3 89  1  0  0  0
  4  5  1  0  0  0
  4 90  1  0  0  0
  4 91  1  0  0  0
  5  6  1  0  0  0
  5 26  1  0  0  0
  5 92  1  0  0  0
  6 25  1  0  0  0
  6 93  1  0  0  0
  6 94  1  0  0  0
  7  8  2  0  0  0
  7 26  1  0  0  0
  7 29  1  0  0  0
  8  9  1  0  0  0
  8 22  1  0  0  0
  9 10  1  0  0  0
  9 27  2  0  0  0
 10 11  2  0  0  0
 10 15  1  0  0  0
 11 12  1  0  0  0
 11 95  1  0  0  0
 12 13  2  0  0  0
 12 96  1  0  0  0
 13 14  1  0  0  0
 13 31  1  0  0  0
 14 15  2  0  0  0
 14 97  1  0  0  0
 15 98  1  0  0  0
 16 17  2  0  0  0
 16 21  1  0  0  0
 16 31  1  0  0  0
 17 18  1  0  0  0
 17 99  1  0  0  0
 18 19  2  0  0  0
 18100  1  0  0  0
 19 20  1  0  0  0
 19 24  1  0  0  0
 20 21  2  0  0  0
 20101  1  0  0  0
 21 23  1  0  0  0
 22 28  1  0  0  0
 22 32  2  0  0  0
 26 27  1  0  0  0
 28102  1  0  0  0
 28103  1  0  0  0
 29104  1  0  0  0
 29105  1  0  0  0
 33 34  1  0  0  0
 33 66  1  0  0  0
 33 70  2  0  0  0
 34 36  1  0  0  0
 34 59  1  0  0  0
 34106  1  0  0  0
 35 44  2  0  0  0
 35 45  1  0  0  0
 35 68  1  0  0  0
 36 56  1  0  0  0
 36107  1  0  0  0
 37 39  1  0  0  0
 37 47  1  0  0  0
 37 66  1  0  0  0
 37108  1  0  0  0
 38 43  2  0  0  0
 38 46  1  0  0  0
 38 47  1  0  0  0
 39 64  1  0  0  0
 39 67  2  0  0  0
 40 52  1  0  0  0
 40 53  2  0  0  0
 40 58  1  0  0  0
 41109  1  0  0  0
 41110  1  0  0  0
 41111  1  0  0  0
 41 48  1  0  0  0
 42 43  1  0  0  0
 42 66  1  0  0  0
 42112  1  0  0  0
 42113  1  0  0  0
 43 44  1  0  0  0
 44114  1  0  0  0
 45 46  2  0  0  0
 45115  1  0  0  0
 46116  1  0  0  0
 47117  1  0  0  0
 47118  1  0  0  0
 48 56  1  0  0  0
 48 65  1  0  0  0
 48119  1  0  0  0
 49 50  1  0  0  0
 49 53  1  0  0  0
 49 64  1  0  0  0
 49120  1  0  0  0
 50 51  1  0  0  0
 50121  1  0  0  0
 50122  1  0  0  0
 51 52  1  0  0  0
 51123  1  0  0  0
 51124  1  0  0  0
 52125  1  0  0  0
 52126  1  0  0  0
 53 54  1  0  0  0
 54 55  2  0  0  0
 54127  1  0  0  0
 55 57  1  0  0  0
 55128  1  0  0  0
 56 69  2  0  0  0
 57 58  2  0  0  0
 57129  1  0  0  0
 58130  1  0  0  0
 59 60  1  0  0  0
 59 61  1  0  0  0
 59 62  1  0  0  0
 60131  1  0  0  0
 60132  1  0  0  0
 60133  1  0  0  0
 61134  1  0  0  0
 61135  1  0  0  0
 61136  1  0  0  0
 62137  1  0  0  0
 62138  1  0  0  0
 62139  1  0  0  0
 63 65  1  0  0  0
 63140  1  0  0  0
 63141  1  0  0  0
 63142  1  0  0  0
 64143  1  0  0  0
 65144  1  0  0  0
 68 83  1  0  0  0
 71 72  2  0  0  0
 71 75  1  0  0  0
 71145  1  0  0  0
 72 76  1  0  0  0
 72 77  1  0  0  0
 73 74  1  0  0  0
 73 75  2  0  0  0
 73 78  1  0  0  0
 74 76  2  0  0  0
 74 79  1  0  0  0
 75 84  1  0  0  0
 76 85  1  0  0  0
 77146  1  0  0  0
 77147  1  0  0  0
 77148  1  0  0  0
 78149  1  0  0  0
 78150  1  0  0  0
 78151  1  0  0  0
 79152  1  0  0  0
 79153  1  0  0  0
 79154  1  0  0  0
 80 85  1  0  0  0
 80155  1  0  0  0
 80156  1  0  0  0
 80157  1  0  0  0
 81 82  1  0  0  0
 81 83  1  0  0  0
 81158  1  0  0  0
 81159  1  0  0  0
 82 85  1  0  0  0
 82160  1  0  0  0
 82161  1  0  0  0
 83162  1  0  0  0
 83163  1  0  0  0
 84164  1  0  0  0
M  ISO  4   1 100  68 101  83 101  84 100
M  END
> <chiral flag>
0

> <version>
0

> <s_m_source_file>
/data/baiqing/PycharmProjects/Reinvent-master-3.2/result/LINK_invent/BTK/process_docking_weight1_custom_sum_contain_oxygen_bond_distance_aromatic_linkinvent_7_9_3/rearranged_h_0017.sdf

> <i_m_source_file_index>
90

> <r_mmod_Potential_Energy-OPLS-2005>
33.3166618347168

> <r_mmod_Stretch_Energy-OPLS-2005>
82.3384399414062

> <r_mmod_Bend_Energy-OPLS-2005>
141.62873840332

> <r_mmod_Torsional_Energy-OPLS-2005>
240.567855834961

> <r_mmod_Improper_Torsional_Energy-OPLS-2005>
6.10910272598267

> <r_mmod_Van_der_Waal_Energy-OPLS-2005>
159.121856689453

> <r_mmod_Electrostatic_Energy-OPLS-2005>
-432.854888916016

> <r_mmod_Solvation_Energy-OPLS-2005>
-208.482025146484

> <b_mmod_Minimization_Converged-OPLS-2005>
0

> <r_mmod_RMS_Derivative-OPLS-2005>
0.562368810176849

$$$$
92
                    3D
 Structure written by MMmdl.
161169  0  0  1  0            999 V2000
  -30.5641  -14.8649   20.4492 C   0  0  0  0  0  0
  -30.4535  -12.5350   19.4996 C   0  0  0  0  0  0
  -29.5257  -12.5141   18.2625 C   0  0  0  0  0  0
  -28.0599  -12.3028   18.6846 C   0  0  0  0  0  0
  -27.6435  -13.2319   19.8532 C   0  0  2  0  0  0
  -28.6875  -13.2176   20.9928 C   0  0  0  0  0  0
  -25.2447  -13.8126   20.5541 C   0  0  0  0  0  0
  -24.1790  -13.0394   20.9204 C   0  0  0  0  0  0
  -24.6432  -11.6896   20.8827 C   0  0  0  0  0  0
  -23.9113  -10.4273   21.0460 C   0  0  0  0  0  0
  -24.3630   -9.4174   21.9242 C   0  0  0  0  0  0
  -23.6279   -8.2217   22.0791 C   0  0  0  0  0  0
  -22.4267   -8.0282   21.3563 C   0  0  0  0  0  0
  -21.9923   -9.0269   20.4663 C   0  0  0  0  0  0
  -22.7286  -10.2136   20.3092 C   0  0  0  0  0  0
  -21.6842   -6.0733   22.5269 C   0  0  0  0  0  0
  -21.4006   -6.5629   23.8204 C   0  0  0  0  0  0
  -21.3672   -5.6785   24.9165 C   0  0  0  0  0  0
  -21.6042   -4.3047   24.7211 C   0  0  0  0  0  0
  -21.8823   -3.8139   23.4332 C   0  0  0  0  0  0
  -21.9186   -4.6959   22.3386 C   0  0  0  0  0  0
  -22.7813  -13.5199   21.1840 C   0  0  0  0  0  0
  -22.1655   -4.2143   21.0966 F   0  0  0  0  0  0
  -21.5630   -3.4529   25.7724 F   0  0  0  0  0  0
  -29.9813  -13.6088   20.4120 N   0  0  0  0  0  0
  -26.2940  -12.9366   20.3294 N   0  0  0  0  0  0
  -25.9378  -11.6534   20.5880 N   0  0  0  0  0  0
  -22.0440  -12.8217   22.0402 N   0  0  0  0  0  0
  -25.3988  -15.1796   20.3536 N   0  0  0  0  0  0
  -31.7410  -14.9740   20.0971 O   0  0  0  0  0  0
  -21.6632   -6.8885   21.4238 O   0  0  0  0  0  0
  -22.3512  -14.5517   20.6702 O   0  0  0  0  0  0
  -24.6369  -31.8486   23.1877 C   0  0  0  0  0  0
  -25.9165  -32.4704   23.8220 C   0  0  1  0  0  0
  -27.2167  -27.1897   20.1427 C   0  0  0  0  0  0
  -25.5983  -33.8512   24.2152 N   0  0  0  0  0  0
  -23.4398  -30.4672   21.5331 C   0  0  2  0  0  0
  -24.8843  -28.9039   20.1077 C   0  0  0  0  0  0
  -22.7562  -29.4578   22.4871 C   0  0  0  0  0  0
  -18.0323  -28.1435   22.8471 C   0  0  0  0  0  0
  -24.1532  -36.7261   23.2633 C   0  0  0  0  0  0
  -25.9866  -30.7431   21.3700 C   0  0  0  0  0  0
  -26.0600  -29.3555   20.7203 C   0  0  0  0  0  0
  -27.2272  -28.5132   20.7244 C   0  0  0  0  0  0
  -26.0172  -26.8308   19.4859 C   0  0  0  0  0  0
  -24.8720  -27.6523   19.4784 C   0  0  0  0  0  0
  -23.6587  -29.7982   20.1506 C   0  0  0  0  0  0
  -25.4160  -36.3035   24.0307 C   0  0  1  0  0  0
  -20.5932  -28.3739   23.1281 C   0  0  2  0  0  0
  -20.6863  -26.9458   22.5433 C   0  0  0  0  0  0
  -19.5837  -26.6411   21.5248 C   0  0  0  0  0  0
  -18.1985  -26.7993   22.1596 C   0  0  0  0  0  0
  -19.1587  -28.8904   23.2869 C   0  0  0  0  0  0
  -18.9492  -30.1509   23.8868 C   0  0  0  0  0  0
  -17.6495  -30.6623   24.0594 C   0  0  0  0  0  0
  -25.9095  -34.9414   23.5028 C   0  0  0  0  0  0
  -16.5377  -29.9130   23.6357 C   0  0  0  0  0  0
  -16.7308  -28.6570   23.0319 C   0  0  0  0  0  0
  -26.4534  -31.6546   25.0615 C   0  0  0  0  0  0
  -25.3758  -31.3720   26.1334 C   0  0  0  0  0  0
  -27.0372  -30.2972   24.6061 C   0  0  0  0  0  0
  -27.6086  -32.4283   25.7399 C   0  0  0  0  0  0
  -27.5612  -37.1764   24.8439 C   0  0  0  0  0  0
  -21.4265  -29.3043   22.3621 N   0  0  0  0  0  0
  -26.4300  -37.3767   23.9426 N   0  0  0  0  0  0
  -24.7093  -31.0391   22.0869 N   0  0  0  0  0  0
  -23.4237  -28.8113   23.3008 O   0  0  0  0  0  0
  -28.2855  -26.2401   20.2345 O   0  0  0  0  0  0
  -26.5660  -34.8931   22.4584 O   0  0  0  0  0  0
  -23.5502  -32.1304   23.7142 O   0  0  0  0  0  0
  -30.4098  -19.8332   19.9117 C   0  0  0  0  0  0
  -30.6802  -18.4183   20.1022 C   0  0  0  0  0  0
  -29.1815  -20.4926   20.2385 C   0  0  0  0  0  0
  -28.2431  -19.6024   20.8516 C   0  0  0  0  0  0
  -28.4926  -18.1776   21.0387 C   0  0  0  0  0  0
  -29.6951  -17.4913   20.6171 C   0  0  0  0  0  0
  -32.0777  -18.0087   19.8231 C   0  0  0  0  0  0
  -26.8969  -20.1729   21.2914 C   0  0  0  0  0  0
  -27.3999  -17.3716   21.7446 C   0  0  0  0  0  0
  -32.5145  -17.9827   18.3638 C   0  0  0  0  0  0
  -28.8072  -21.9930   19.7100 C   0  0  0  0  0  0
  -28.9304  -23.4535   20.4660 C   0  0  0  0  0  0
  -28.0625  -24.7556   19.9201 C   0  0  0  0  0  0
  -29.7433  -15.9686   20.7509 N   0  0  0  0  0  0
  -32.8971  -17.7529   20.7109 O   0  0  0  0  0  0
  -31.4863  -12.6961   19.1841 H   0  0  0  0  0  0
  -30.4453  -11.5747   20.0157 H   0  0  0  0  0  0
  -29.8349  -11.7221   17.5782 H   0  0  0  0  0  0
  -29.6158  -13.4541   17.7147 H   0  0  0  0  0  0
  -27.9638  -11.2617   18.9985 H   0  0  0  0  0  0
  -27.3905  -12.4321   17.8333 H   0  0  0  0  0  0
  -27.6224  -14.2414   19.4402 H   0  0  0  0  0  0
  -28.7554  -12.2328   21.4569 H   0  0  0  0  0  0
  -28.3977  -13.9094   21.7841 H   0  0  0  0  0  0
  -25.2776   -9.5613   22.4833 H   0  0  0  0  0  0
  -23.9972   -7.4598   22.7509 H   0  0  0  0  0  0
  -21.0865   -8.8812   19.8946 H   0  0  0  0  0  0
  -22.3789  -10.9688   19.6188 H   0  0  0  0  0  0
  -21.2002   -7.6137   23.9697 H   0  0  0  0  0  0
  -21.1496   -6.0523   25.9073 H   0  0  0  0  0  0
  -22.0598   -2.7598   23.2828 H   0  0  0  0  0  0
  -22.4009  -11.9844   22.4769 H   0  0  0  0  0  0
  -21.1101  -13.1323   22.2686 H   0  0  0  0  0  0
  -24.5922  -15.7944   20.3654 H   0  0  0  0  0  0
  -26.1745  -15.5637   19.8288 H   0  0  0  0  0  0
  -26.7209  -32.5299   23.0930 H   0  0  0  0  0  0
  -25.0205  -33.9630   25.0349 H   0  0  0  0  0  0
  -22.7395  -31.2914   21.3799 H   0  0  0  0  0  0
  -23.3813  -35.9573   23.3217 H   0  0  0  0  0  0
  -24.3643  -36.8953   22.2061 H   0  0  0  0  0  0
  -23.7279  -37.6418   23.6740 H   0  0  0  0  0  0
  -26.1209  -31.4942   20.5898 H   0  0  0  0  0  0
  -26.8699  -30.8031   21.9921 H   0  0  0  0  0  0
  -28.1241  -28.8573   21.2166 H   0  0  0  0  0  0
  -25.9202  -25.8806   18.9815 H   0  0  0  0  0  0
  -23.9752  -27.3026   18.9852 H   0  0  0  0  0  0
  -23.7880  -30.5714   19.3924 H   0  0  0  0  0  0
  -22.7758  -29.2328   19.8429 H   0  0  0  0  0  0
  -25.1357  -36.1808   25.0795 H   0  0  0  0  0  0
  -21.0016  -28.3347   24.1408 H   0  0  0  0  0  0
  -20.5851  -26.2333   23.3625 H   0  0  0  0  0  0
  -21.6735  -26.7550   22.1155 H   0  0  0  0  0  0
  -19.7037  -25.6324   21.1266 H   0  0  0  0  0  0
  -19.6827  -27.3253   20.6807 H   0  0  0  0  0  0
  -17.4299  -26.6759   21.3935 H   0  0  0  0  0  0
  -18.0323  -26.0138   22.8976 H   0  0  0  0  0  0
  -19.7973  -30.7371   24.2161 H   0  0  0  0  0  0
  -17.5048  -31.6293   24.5254 H   0  0  0  0  0  0
  -15.5378  -30.3025   23.7756 H   0  0  0  0  0  0
  -15.8696  -28.0947   22.6953 H   0  0  0  0  0  0
  -24.5984  -30.7005   25.7688 H   0  0  0  0  0  0
  -24.8882  -32.2877   26.4675 H   0  0  0  0  0  0
  -25.8066  -30.8979   27.0151 H   0  0  0  0  0  0
  -26.2904  -29.6687   24.1179 H   0  0  0  0  0  0
  -27.4209  -29.7274   25.4524 H   0  0  0  0  0  0
  -27.8746  -30.4280   23.9208 H   0  0  0  0  0  0
  -27.2735  -33.3656   26.1869 H   0  0  0  0  0  0
  -28.3976  -32.6676   25.0255 H   0  0  0  0  0  0
  -28.0672  -31.8420   26.5363 H   0  0  0  0  0  0
  -28.2524  -38.0163   24.7600 H   0  0  0  0  0  0
  -28.1195  -36.2671   24.6112 H   0  0  0  0  0  0
  -27.2323  -37.1234   25.8835 H   0  0  0  0  0  0
  -20.9458  -29.8667   21.6729 H   0  0  0  0  0  0
  -26.0120  -38.2790   24.1528 H   0  0  0  0  0  0
  -31.1851  -20.4445   19.4705 H   0  0  0  0  0  0
  -26.8456  -21.2596   21.2459 H   0  0  0  0  0  0
  -26.6804  -19.9016   22.3235 H   0  0  0  0  0  0
  -26.0966  -19.7790   20.6631 H   0  0  0  0  0  0
  -26.4139  -17.6066   21.3469 H   0  0  0  0  0  0
  -27.3931  -17.5945   22.8123 H   0  0  0  0  0  0
  -27.5083  -16.2953   21.6558 H   0  0  0  0  0  0
  -31.6583  -18.0287   17.6917 H   0  0  0  0  0  0
  -33.0618  -17.0612   18.1651 H   0  0  0  0  0  0
  -33.1705  -18.8272   18.1507 H   0  0  0  0  0  0
  -27.7819  -21.9219   19.3474 H   0  0  0  0  0  0
  -29.3822  -22.1020   18.7878 H   0  0  0  0  0  0
  -29.9848  -23.7254   20.4553 H   0  0  0  0  0  0
  -28.6757  -23.3117   21.5154 H   0  0  0  0  0  0
  -27.0425  -24.5112   20.2211 H   0  0  0  0  0  0
  -28.0669  -24.6982   18.8328 H   0  0  0  0  0  0
  -28.8525  -15.6119   21.0597 H   0  0  0  0  0  0
  1 25  1  0  0  0
  1 30  2  0  0  0
  1 84  1  0  0  0
  2  3  1  0  0  0
  2 25  1  0  0  0
  2 86  1  0  0  0
  2 87  1  0  0  0
  3  4  1  0  0  0
  3 88  1  0  0  0
  3 89  1  0  0  0
  4  5  1  0  0  0
  4 90  1  0  0  0
  4 91  1  0  0  0
  5  6  1  0  0  0
  5 26  1  0  0  0
  5 92  1  0  0  0
  6 25  1  0  0  0
  6 93  1  0  0  0
  6 94  1  0  0  0
  7  8  2  0  0  0
  7 26  1  0  0  0
  7 29  1  0  0  0
  8  9  1  0  0  0
  8 22  1  0  0  0
  9 10  1  0  0  0
  9 27  2  0  0  0
 10 11  2  0  0  0
 10 15  1  0  0  0
 11 12  1  0  0  0
 11 95  1  0  0  0
 12 13  2  0  0  0
 12 96  1  0  0  0
 13 14  1  0  0  0
 13 31  1  0  0  0
 14 15  2  0  0  0
 14 97  1  0  0  0
 15 98  1  0  0  0
 16 17  2  0  0  0
 16 21  1  0  0  0
 16 31  1  0  0  0
 17 18  1  0  0  0
 17 99  1  0  0  0
 18 19  2  0  0  0
 18100  1  0  0  0
 19 20  1  0  0  0
 19 24  1  0  0  0
 20 21  2  0  0  0
 20101  1  0  0  0
 21 23  1  0  0  0
 22 28  1  0  0  0
 22 32  2  0  0  0
 26 27  1  0  0  0
 28102  1  0  0  0
 28103  1  0  0  0
 29104  1  0  0  0
 29105  1  0  0  0
 33 34  1  0  0  0
 33 66  1  0  0  0
 33 70  2  0  0  0
 34 36  1  0  0  0
 34 59  1  0  0  0
 34106  1  0  0  0
 35 44  2  0  0  0
 35 45  1  0  0  0
 35 68  1  0  0  0
 36 56  1  0  0  0
 36107  1  0  0  0
 37 39  1  0  0  0
 37 47  1  0  0  0
 37 66  1  0  0  0
 37108  1  0  0  0
 38 43  2  0  0  0
 38 46  1  0  0  0
 38 47  1  0  0  0
 39 64  1  0  0  0
 39 67  2  0  0  0
 40 52  1  0  0  0
 40 53  2  0  0  0
 40 58  1  0  0  0
 41109  1  0  0  0
 41110  1  0  0  0
 41111  1  0  0  0
 41 48  1  0  0  0
 42 43  1  0  0  0
 42 66  1  0  0  0
 42112  1  0  0  0
 42113  1  0  0  0
 43 44  1  0  0  0
 44114  1  0  0  0
 45 46  2  0  0  0
 45115  1  0  0  0
 46116  1  0  0  0
 47117  1  0  0  0
 47118  1  0  0  0
 48 56  1  0  0  0
 48 65  1  0  0  0
 48119  1  0  0  0
 49 50  1  0  0  0
 49 53  1  0  0  0
 49 64  1  0  0  0
 49120  1  0  0  0
 50 51  1  0  0  0
 50121  1  0  0  0
 50122  1  0  0  0
 51 52  1  0  0  0
 51123  1  0  0  0
 51124  1  0  0  0
 52125  1  0  0  0
 52126  1  0  0  0
 53 54  1  0  0  0
 54 55  2  0  0  0
 54127  1  0  0  0
 55 57  1  0  0  0
 55128  1  0  0  0
 56 69  2  0  0  0
 57 58  2  0  0  0
 57129  1  0  0  0
 58130  1  0  0  0
 59 60  1  0  0  0
 59 61  1  0  0  0
 59 62  1  0  0  0
 60131  1  0  0  0
 60132  1  0  0  0
 60133  1  0  0  0
 61134  1  0  0  0
 61135  1  0  0  0
 61136  1  0  0  0
 62137  1  0  0  0
 62138  1  0  0  0
 62139  1  0  0  0
 63 65  1  0  0  0
 63140  1  0  0  0
 63141  1  0  0  0
 63142  1  0  0  0
 64143  1  0  0  0
 65144  1  0  0  0
 68 83  1  0  0  0
 71 72  2  0  0  0
 71 73  1  0  0  0
 71145  1  0  0  0
 72 76  1  0  0  0
 72 77  1  0  0  0
 73 74  2  0  0  0
 73 81  1  0  0  0
 74 75  1  0  0  0
 74 78  1  0  0  0
 75 76  2  0  0  0
 75 79  1  0  0  0
 76 84  1  0  0  0
 77 80  1  0  0  0
 77 85  2  0  0  0
 78146  1  0  0  0
 78147  1  0  0  0
 78148  1  0  0  0
 79149  1  0  0  0
 79150  1  0  0  0
 79151  1  0  0  0
 80152  1  0  0  0
 80153  1  0  0  0
 80154  1  0  0  0
 81 82  1  0  0  0
 81155  1  0  0  0
 81156  1  0  0  0
 82 83  1  0  0  0
 82157  1  0  0  0
 82158  1  0  0  0
 83159  1  0  0  0
 83160  1  0  0  0
 84161  1  0  0  0
M  ISO  4   1 100  68 101  83 101  84 100
M  END
> <chiral flag>
0

> <version>
0

> <s_m_source_file>
/data/baiqing/PycharmProjects/Reinvent-master-3.2/result/LINK_invent/BTK/process_docking_weight1_custom_sum_contain_oxygen_bond_distance_aromatic_linkinvent_7_9_3/rearranged_h_0017.sdf

> <i_m_source_file_index>
91

> <r_mmod_Potential_Energy-OPLS-2005>
411.592742919922

> <r_mmod_Stretch_Energy-OPLS-2005>
188.7685546875

> <r_mmod_Bend_Energy-OPLS-2005>
246.693862915039

> <r_mmod_Torsional_Energy-OPLS-2005>
273.651672363281

> <r_mmod_Improper_Torsional_Energy-OPLS-2005>
7.00979566574097

> <r_mmod_Van_der_Waal_Energy-OPLS-2005>
145.305099487305

> <r_mmod_Electrostatic_Energy-OPLS-2005>
-373.787109375

> <r_mmod_Solvation_Energy-OPLS-2005>
-220.146438598633

> <b_mmod_Minimization_Converged-OPLS-2005>
0

> <r_mmod_RMS_Derivative-OPLS-2005>
4.30143690109253

$$$$
