0
                    3D
 Structure written by MMmdl.
156164  0  0  1  0            999 V2000
  -30.5290  -14.9734   20.3989 C   0  0  0  0  0  0
  -30.4360  -12.5974   19.5163 C   0  0  0  0  0  0
  -29.5225  -12.5403   18.2682 C   0  0  0  0  0  0
  -28.0556  -12.3277   18.6815 C   0  0  0  0  0  0
  -27.6317  -13.2554   19.8498 C   0  0  2  0  0  0
  -28.6721  -13.2800   20.9901 C   0  0  0  0  0  0
  -25.2468  -13.8226   20.5737 C   0  0  0  0  0  0
  -24.1778  -13.0447   20.9222 C   0  0  0  0  0  0
  -24.6395  -11.6933   20.8739 C   0  0  0  0  0  0
  -23.9083  -10.4292   21.0389 C   0  0  0  0  0  0
  -24.3623   -9.4211   21.9180 C   0  0  0  0  0  0
  -23.6287   -8.2249   22.0760 C   0  0  0  0  0  0
  -22.4268   -8.0275   21.3539 C   0  0  0  0  0  0
  -21.9914   -9.0259   20.4653 C   0  0  0  0  0  0
  -22.7249  -10.2133   20.3055 C   0  0  0  0  0  0
  -21.6862   -6.0730   22.5275 C   0  0  0  0  0  0
  -21.4017   -6.5633   23.8203 C   0  0  0  0  0  0
  -21.3658   -5.6791   24.9160 C   0  0  0  0  0  0
  -21.6034   -4.3051   24.7221 C   0  0  0  0  0  0
  -21.8826   -3.8144   23.4341 C   0  0  0  0  0  0
  -21.9193   -4.6959   22.3392 C   0  0  0  0  0  0
  -22.7799  -13.5217   21.1876 C   0  0  0  0  0  0
  -22.1666   -4.2145   21.0973 F   0  0  0  0  0  0
  -21.5626   -3.4544   25.7734 F   0  0  0  0  0  0
  -29.9485  -13.7010   20.3988 N   0  0  0  0  0  0
  -26.2895  -12.9475   20.3296 N   0  0  0  0  0  0
  -25.9342  -11.6588   20.5773 N   0  0  0  0  0  0
  -22.0460  -12.8195   22.0419 N   0  0  0  0  0  0
  -25.4137  -15.1956   20.4173 N   0  0  0  0  0  0
  -31.7184  -15.0309   20.0647 O   0  0  0  0  0  0
  -21.6634   -6.8865   21.4228 O   0  0  0  0  0  0
  -22.3481  -14.5517   20.6719 O   0  0  0  0  0  0
  -24.6490  -31.8372   23.1797 C   0  0  0  0  0  0
  -25.9234  -32.4637   23.8239 C   0  0  1  0  0  0
  -27.2319  -27.0972   20.1530 C   0  0  0  0  0  0
  -25.5940  -33.8442   24.2150 N   0  0  0  0  0  0
  -23.4575  -30.4532   21.5213 C   0  0  2  0  0  0
  -24.9108  -28.8690   20.0998 C   0  0  0  0  0  0
  -22.7616  -29.4506   22.4780 C   0  0  0  0  0  0
  -18.0321  -28.1406   22.8481 C   0  0  0  0  0  0
  -24.1471  -36.7243   23.2648 C   0  0  0  0  0  0
  -26.0130  -30.6937   21.3887 C   0  0  0  0  0  0
  -26.0811  -29.3006   20.7318 C   0  0  0  0  0  0
  -27.2332  -28.4266   20.7512 C   0  0  0  0  0  0
  -26.0396  -26.7679   19.4770 C   0  0  0  0  0  0
  -24.9038  -27.6149   19.4597 C   0  0  0  0  0  0
  -23.6883  -29.7761   20.1402 C   0  0  0  0  0  0
  -25.4103  -36.3002   24.0315 C   0  0  1  0  0  0
  -20.5940  -28.3745   23.1217 C   0  0  2  0  0  0
  -20.6772  -26.9422   22.5428 C   0  0  0  0  0  0
  -19.5755  -26.6378   21.5238 C   0  0  0  0  0  0
  -18.1934  -26.7939   22.1630 C   0  0  0  0  0  0
  -19.1581  -28.8893   23.2832 C   0  0  0  0  0  0
  -18.9505  -30.1477   23.8882 C   0  0  0  0  0  0
  -17.6499  -30.6594   24.0572 C   0  0  0  0  0  0
  -25.9085  -34.9383   23.5062 C   0  0  0  0  0  0
  -16.5388  -29.9089   23.6345 C   0  0  0  0  0  0
  -16.7303  -28.6507   23.0362 C   0  0  0  0  0  0
  -26.4536  -31.6525   25.0721 C   0  0  0  0  0  0
  -25.3688  -31.3729   26.1411 C   0  0  0  0  0  0
  -27.0421  -30.2912   24.6336 C   0  0  0  0  0  0
  -27.6075  -32.4302   25.7474 C   0  0  0  0  0  0
  -27.5565  -37.1756   24.8468 C   0  0  0  0  0  0
  -21.4296  -29.3044   22.3560 N   0  0  0  0  0  0
  -26.4261  -37.3738   23.9436 N   0  0  0  0  0  0
  -24.7254  -31.0188   22.0838 N   0  0  0  0  0  0
  -23.4230  -28.8058   23.2964 O   0  0  0  0  0  0
  -28.2906  -26.1176   20.2927 O   0  0  0  0  0  0
  -26.5719  -34.8903   22.4673 O   0  0  0  0  0  0
  -23.5595  -32.1278   23.6971 O   0  0  0  0  0  0
  -29.9148  -20.1664   18.6434 C   0  0  0  0  0  0
  -30.3634  -17.7335   18.7785 C   0  0  0  0  0  0
  -30.3937  -18.9583   18.0721 C   0  0  0  0  0  0
  -29.4156  -20.2483   19.9603 C   0  0  0  0  0  0
  -29.3747  -18.9165   20.6558 C   0  0  0  0  0  0
  -29.8454  -17.6081   20.0821 C   0  0  0  0  0  0
  -28.8374  -18.9129   22.0717 C   0  0  0  0  0  0
  -29.2201  -21.8047   20.5441 C   0  0  0  0  0  0
  -28.1725  -23.0640   20.0679 C   0  0  0  0  0  0
  -28.4532  -24.7004   19.6327 C   0  0  0  0  0  0
  -30.9732  -18.9433   16.6622 C   0  0  0  0  0  0
  -29.7759  -16.1674   20.6463 N   0  0  0  0  0  0
  -31.1053  -20.1698   16.1549 F   0  0  0  0  0  0
  -32.1777  -18.3665   16.6664 F   0  0  0  0  0  0
  -30.1755  -18.2393   15.8598 F   0  0  0  0  0  0
  -31.4715  -12.7427   19.2065 H   0  0  0  0  0  0
  -30.4200  -11.6449   20.0478 H   0  0  0  0  0  0
  -29.8434  -11.7397   17.6004 H   0  0  0  0  0  0
  -29.6126  -13.4676   17.7011 H   0  0  0  0  0  0
  -27.9507  -11.2855   18.9833 H   0  0  0  0  0  0
  -27.3932  -12.4664   17.8260 H   0  0  0  0  0  0
  -27.5960  -14.2599   19.4282 H   0  0  0  0  0  0
  -28.7598  -12.2991   21.4603 H   0  0  0  0  0  0
  -28.3676  -13.9716   21.7757 H   0  0  0  0  0  0
  -25.2772   -9.5684   22.4762 H   0  0  0  0  0  0
  -23.9995   -7.4643   22.7492 H   0  0  0  0  0  0
  -21.0851   -8.8778   19.8962 H   0  0  0  0  0  0
  -22.3708  -10.9671   19.6165 H   0  0  0  0  0  0
  -21.2012   -7.6152   23.9700 H   0  0  0  0  0  0
  -21.1474   -6.0525   25.9062 H   0  0  0  0  0  0
  -22.0604   -2.7613   23.2843 H   0  0  0  0  0  0
  -22.4103  -11.9863   22.4805 H   0  0  0  0  0  0
  -21.1084  -13.1218   22.2654 H   0  0  0  0  0  0
  -24.6440  -15.8472   20.5202 H   0  0  0  0  0  0
  -26.2616  -15.6363   20.0859 H   0  0  0  0  0  0
  -26.7306  -32.5237   23.0965 H   0  0  0  0  0  0
  -24.9984  -33.9532   25.0222 H   0  0  0  0  0  0
  -22.7650  -31.2800   21.3586 H   0  0  0  0  0  0
  -23.3750  -35.9551   23.3270 H   0  0  0  0  0  0
  -24.3563  -36.8948   22.2075 H   0  0  0  0  0  0
  -23.7207  -37.6405   23.6736 H   0  0  0  0  0  0
  -26.1804  -31.4397   20.6105 H   0  0  0  0  0  0
  -26.8793  -30.7448   22.0363 H   0  0  0  0  0  0
  -28.1155  -28.7427   21.2903 H   0  0  0  0  0  0
  -25.9525  -25.8021   19.0010 H   0  0  0  0  0  0
  -24.0101  -27.2759   18.9566 H   0  0  0  0  0  0
  -23.8297  -30.5509   19.3877 H   0  0  0  0  0  0
  -22.8033  -29.2215   19.8232 H   0  0  0  0  0  0
  -25.1255  -36.1827   25.0800 H   0  0  0  0  0  0
  -21.0047  -28.3367   24.1328 H   0  0  0  0  0  0
  -20.5694  -26.2353   23.3661 H   0  0  0  0  0  0
  -21.6631  -26.7410   22.1202 H   0  0  0  0  0  0
  -19.6923  -25.6288   21.1263 H   0  0  0  0  0  0
  -19.6694  -27.3184   20.6761 H   0  0  0  0  0  0
  -17.4200  -26.6743   21.4007 H   0  0  0  0  0  0
  -18.0282  -26.0064   22.9010 H   0  0  0  0  0  0
  -19.7995  -30.7286   24.2228 H   0  0  0  0  0  0
  -17.5063  -31.6268   24.5178 H   0  0  0  0  0  0
  -15.5392  -30.2984   23.7676 H   0  0  0  0  0  0
  -15.8705  -28.0824   22.7084 H   0  0  0  0  0  0
  -24.5884  -30.7064   25.7724 H   0  0  0  0  0  0
  -24.8859  -32.2903   26.4788 H   0  0  0  0  0  0
  -25.7938  -30.8942   27.0249 H   0  0  0  0  0  0
  -26.3054  -29.6591   24.1374 H   0  0  0  0  0  0
  -27.4064  -29.7258   25.4924 H   0  0  0  0  0  0
  -27.8937  -30.4134   23.9643 H   0  0  0  0  0  0
  -27.2714  -33.3676   26.1919 H   0  0  0  0  0  0
  -28.3930  -32.6746   25.0307 H   0  0  0  0  0  0
  -28.0678  -31.8514   26.5498 H   0  0  0  0  0  0
  -28.2532  -38.0089   24.7558 H   0  0  0  0  0  0
  -28.1115  -36.2641   24.6217 H   0  0  0  0  0  0
  -27.2333  -37.1314   25.8879 H   0  0  0  0  0  0
  -20.9529  -29.8783   21.6745 H   0  0  0  0  0  0
  -26.0137  -38.2806   24.1467 H   0  0  0  0  0  0
  -29.9879  -21.0760   18.0641 H   0  0  0  0  0  0
  -30.7353  -16.8600   18.2645 H   0  0  0  0  0  0
  -27.8489  -19.3721   22.0945 H   0  0  0  0  0  0
  -29.4934  -19.4874   22.7266 H   0  0  0  0  0  0
  -28.7524  -17.9038   22.4737 H   0  0  0  0  0  0
  -30.2186  -22.2306   20.4418 H   0  0  0  0  0  0
  -29.1065  -21.7004   21.6231 H   0  0  0  0  0  0
  -27.3352  -23.0606   20.7649 H   0  0  0  0  0  0
  -27.7289  -22.6515   19.1613 H   0  0  0  0  0  0
  -27.9192  -24.8136   18.6886 H   0  0  0  0  0  0
  -29.4931  -24.7131   19.3060 H   0  0  0  0  0  0
  -28.9361  -15.9820   21.1741 H   0  0  0  0  0  0
  1 25  1  0  0  0
  1 30  2  0  0  0
  1 82  1  0  0  0
  2  3  1  0  0  0
  2 25  1  0  0  0
  2 86  1  0  0  0
  2 87  1  0  0  0
  3  4  1  0  0  0
  3 88  1  0  0  0
  3 89  1  0  0  0
  4  5  1  0  0  0
  4 90  1  0  0  0
  4 91  1  0  0  0
  5  6  1  0  0  0
  5 26  1  0  0  0
  5 92  1  0  0  0
  6 25  1  0  0  0
  6 93  1  0  0  0
  6 94  1  0  0  0
  7  8  2  0  0  0
  7 26  1  0  0  0
  7 29  1  0  0  0
  8  9  1  0  0  0
  8 22  1  0  0  0
  9 10  1  0  0  0
  9 27  2  0  0  0
 10 11  2  0  0  0
 10 15  1  0  0  0
 11 12  1  0  0  0
 11 95  1  0  0  0
 12 13  2  0  0  0
 12 96  1  0  0  0
 13 14  1  0  0  0
 13 31  1  0  0  0
 14 15  2  0  0  0
 14 97  1  0  0  0
 15 98  1  0  0  0
 16 17  2  0  0  0
 16 21  1  0  0  0
 16 31  1  0  0  0
 17 18  1  0  0  0
 17 99  1  0  0  0
 18 19  2  0  0  0
 18100  1  0  0  0
 19 20  1  0  0  0
 19 24  1  0  0  0
 20 21  2  0  0  0
 20101  1  0  0  0
 21 23  1  0  0  0
 22 28  1  0  0  0
 22 32  2  0  0  0
 26 27  1  0  0  0
 28102  1  0  0  0
 28103  1  0  0  0
 29104  1  0  0  0
 29105  1  0  0  0
 33 34  1  0  0  0
 33 66  1  0  0  0
 33 70  2  0  0  0
 34 36  1  0  0  0
 34 59  1  0  0  0
 34106  1  0  0  0
 35 44  2  0  0  0
 35 45  1  0  0  0
 35 68  1  0  0  0
 36 56  1  0  0  0
 36107  1  0  0  0
 37 39  1  0  0  0
 37 47  1  0  0  0
 37 66  1  0  0  0
 37108  1  0  0  0
 38 43  2  0  0  0
 38 46  1  0  0  0
 38 47  1  0  0  0
 39 64  1  0  0  0
 39 67  2  0  0  0
 40 52  1  0  0  0
 40 53  2  0  0  0
 40 58  1  0  0  0
 41109  1  0  0  0
 41110  1  0  0  0
 41111  1  0  0  0
 41 48  1  0  0  0
 42 43  1  0  0  0
 42 66  1  0  0  0
 42112  1  0  0  0
 42113  1  0  0  0
 43 44  1  0  0  0
 44114  1  0  0  0
 45 46  2  0  0  0
 45115  1  0  0  0
 46116  1  0  0  0
 47117  1  0  0  0
 47118  1  0  0  0
 48 56  1  0  0  0
 48 65  1  0  0  0
 48119  1  0  0  0
 49 50  1  0  0  0
 49 53  1  0  0  0
 49 64  1  0  0  0
 49120  1  0  0  0
 50 51  1  0  0  0
 50121  1  0  0  0
 50122  1  0  0  0
 51 52  1  0  0  0
 51123  1  0  0  0
 51124  1  0  0  0
 52125  1  0  0  0
 52126  1  0  0  0
 53 54  1  0  0  0
 54 55  2  0  0  0
 54127  1  0  0  0
 55 57  1  0  0  0
 55128  1  0  0  0
 56 69  2  0  0  0
 57 58  2  0  0  0
 57129  1  0  0  0
 58130  1  0  0  0
 59 60  1  0  0  0
 59 61  1  0  0  0
 59 62  1  0  0  0
 60131  1  0  0  0
 60132  1  0  0  0
 60133  1  0  0  0
 61134  1  0  0  0
 61135  1  0  0  0
 61136  1  0  0  0
 62137  1  0  0  0
 62138  1  0  0  0
 62139  1  0  0  0
 63 65  1  0  0  0
 63140  1  0  0  0
 63141  1  0  0  0
 63142  1  0  0  0
 64143  1  0  0  0
 65144  1  0  0  0
 68 80  1  0  0  0
 71 73  2  0  0  0
 71 74  1  0  0  0
 71145  1  0  0  0
 72 73  1  0  0  0
 72 76  2  0  0  0
 72146  1  0  0  0
 73 81  1  0  0  0
 74 75  2  0  0  0
 74 78  1  0  0  0
 75 76  1  0  0  0
 75 77  1  0  0  0
 76 82  1  0  0  0
 77147  1  0  0  0
 77148  1  0  0  0
 77149  1  0  0  0
 78 79  1  0  0  0
 78150  1  0  0  0
 78151  1  0  0  0
 79 80  1  0  0  0
 79152  1  0  0  0
 79153  1  0  0  0
 80154  1  0  0  0
 80155  1  0  0  0
 81 83  1  0  0  0
 81 84  1  0  0  0
 81 85  1  0  0  0
 82156  1  0  0  0
M  ISO  4   1 100  68 101  80 101  82 100
M  END
> <chiral flag>
0

> <version>
0

> <s_m_source_file>
/data/baiqing/PycharmProjects/Reinvent-master-3.2/result/LINK_invent/BTK/process_docking_weight1_custom_sum_contain_oxygen_bond_distance_aromatic_linkinvent_7_9_3/rearranged_h_0022.sdf

> <i_m_source_file_index>
1

> <r_mmod_Potential_Energy-OPLS-2005>
670.834716796875

> <r_mmod_Stretch_Energy-OPLS-2005>
308.180419921875

> <r_mmod_Bend_Energy-OPLS-2005>
339.248382568359

> <r_mmod_Torsional_Energy-OPLS-2005>
246.163970947266

> <r_mmod_Improper_Torsional_Energy-OPLS-2005>
4.96024942398071

> <r_mmod_Van_der_Waal_Energy-OPLS-2005>
127.290298461914

> <r_mmod_Electrostatic_Energy-OPLS-2005>
-370.781951904297

> <r_mmod_Solvation_Energy-OPLS-2005>
-202.926956176758

> <b_mmod_Minimization_Converged-OPLS-2005>
0

> <r_mmod_RMS_Derivative-OPLS-2005>
3.17860531806946

$$$$
1
                    3D
 Structure written by MMmdl.
169177  0  0  1  0            999 V2000
  -30.8362  -14.3992   20.6046 C   0  0  0  0  0  0
  -30.3955  -12.2849   19.4194 C   0  0  0  0  0  0
  -29.4828  -12.5215   18.2024 C   0  0  0  0  0  0
  -28.0107  -12.3563   18.6206 C   0  0  0  0  0  0
  -27.6643  -13.2180   19.8623 C   0  0  2  0  0  0
  -28.7096  -13.0553   20.9926 C   0  0  0  0  0  0
  -25.2623  -13.8181   20.5668 C   0  0  0  0  0  0
  -24.1921  -13.0430   20.9128 C   0  0  0  0  0  0
  -24.6463  -11.6883   20.8773 C   0  0  0  0  0  0
  -23.9153  -10.4188   21.0438 C   0  0  0  0  0  0
  -24.3818   -9.3993   21.9062 C   0  0  0  0  0  0
  -23.6550   -8.1949   22.0500 C   0  0  0  0  0  0
  -22.4422   -8.0140   21.3452 C   0  0  0  0  0  0
  -21.9971   -9.0160   20.4691 C   0  0  0  0  0  0
  -22.7252  -10.2085   20.3188 C   0  0  0  0  0  0
  -21.6831   -6.0778   22.5291 C   0  0  0  0  0  0
  -21.4064   -6.5658   23.8264 C   0  0  0  0  0  0
  -21.3741   -5.6744   24.9185 C   0  0  0  0  0  0
  -21.6045   -4.3001   24.7183 C   0  0  0  0  0  0
  -21.8890   -3.8182   23.4276 C   0  0  0  0  0  0
  -21.9186   -4.7037   22.3393 C   0  0  0  0  0  0
  -22.7946  -13.5239   21.1708 C   0  0  0  0  0  0
  -22.1625   -4.2271   21.0934 F   0  0  0  0  0  0
  -21.5595   -3.4431   25.7644 F   0  0  0  0  0  0
  -30.0578  -13.2890   20.4469 N   0  0  0  0  0  0
  -26.3072  -12.9392   20.3310 N   0  0  0  0  0  0
  -25.9404  -11.6528   20.5852 N   0  0  0  0  0  0
  -22.0704  -12.8220   22.0278 N   0  0  0  0  0  0
  -25.4286  -15.1930   20.4153 N   0  0  0  0  0  0
  -31.8689  -14.5767   19.9614 O   0  0  0  0  0  0
  -21.6628   -6.8850   21.4225 O   0  0  0  0  0  0
  -22.3548  -14.5445   20.6432 O   0  0  0  0  0  0
  -24.6221  -31.8739   23.2191 C   0  0  0  0  0  0
  -25.9086  -32.4861   23.8494 C   0  0  1  0  0  0
  -27.2038  -27.3867   20.0745 C   0  0  0  0  0  0
  -25.5913  -33.8662   24.2359 N   0  0  0  0  0  0
  -23.4123  -30.5140   21.5619 C   0  0  2  0  0  0
  -24.8526  -29.0128   20.1056 C   0  0  0  0  0  0
  -22.7458  -29.4741   22.4948 C   0  0  0  0  0  0
  -18.0281  -28.1399   22.8481 C   0  0  0  0  0  0
  -24.1491  -36.7300   23.2637 C   0  0  0  0  0  0
  -25.9604  -30.8194   21.4028 C   0  0  0  0  0  0
  -26.0232  -29.4616   20.7321 C   0  0  0  0  0  0
  -27.1962  -28.6505   20.7325 C   0  0  0  0  0  0
  -26.0326  -27.0645   19.3434 C   0  0  0  0  0  0
  -24.8531  -27.8062   19.4111 C   0  0  0  0  0  0
  -23.6227  -29.8813   20.1685 C   0  0  0  0  0  0
  -25.4114  -36.3109   24.0345 C   0  0  1  0  0  0
  -20.5899  -28.3696   23.1265 C   0  0  2  0  0  0
  -20.6771  -26.9424   22.5395 C   0  0  0  0  0  0
  -19.5733  -26.6386   21.5202 C   0  0  0  0  0  0
  -18.1923  -26.7935   22.1626 C   0  0  0  0  0  0
  -19.1557  -28.8851   23.2886 C   0  0  0  0  0  0
  -18.9466  -30.1437   23.8912 C   0  0  0  0  0  0
  -17.6471  -30.6599   24.0551 C   0  0  0  0  0  0
  -25.9048  -34.9483   23.5120 C   0  0  0  0  0  0
  -16.5347  -29.9105   23.6306 C   0  0  0  0  0  0
  -16.7280  -28.6527   23.0333 C   0  0  0  0  0  0
  -26.4477  -31.6663   25.0842 C   0  0  0  0  0  0
  -25.3728  -31.3857   26.1585 C   0  0  0  0  0  0
  -27.0335  -30.3082   24.6331 C   0  0  0  0  0  0
  -27.6041  -32.4406   25.7571 C   0  0  0  0  0  0
  -27.5598  -37.1810   24.8464 C   0  0  0  0  0  0
  -21.4173  -29.3072   22.3651 N   0  0  0  0  0  0
  -26.4284  -37.3808   23.9435 N   0  0  0  0  0  0
  -24.6831  -31.0845   22.1138 N   0  0  0  0  0  0
  -23.4214  -28.8254   23.2991 O   0  0  0  0  0  0
  -28.2816  -26.4859   20.1920 O   0  0  0  0  0  0
  -26.5592  -34.8910   22.4685 O   0  0  0  0  0  0
  -23.5378  -32.1494   23.7531 O   0  0  0  0  0  0
  -30.7165  -19.1723   22.1621 C   0  0  0  0  0  0
  -29.1323  -23.9626   22.1777 C   0  0  0  0  0  0
  -30.3142  -23.3565   20.0192 C   0  0  0  0  0  0
  -29.7481  -22.6449   22.7487 C   0  0  0  0  0  0
  -30.5194  -21.8635   20.4939 C   0  0  0  0  0  0
  -29.0177  -23.9639   20.6256 C   0  0  2  0  0  0
  -29.6471  -21.4774   21.7334 C   0  0  1  0  0  0
  -28.2214  -24.8818   18.4075 C   0  0  0  0  0  0
  -26.6424  -24.5770   20.4963 C   0  0  0  0  0  0
  -28.4539  -19.7230   22.9460 C   0  0  0  0  0  0
  -30.4036  -17.6715   22.4594 C   0  0  0  0  0  0
  -31.1659  -16.6324   21.5986 C   0  0  0  0  0  0
  -28.0595  -25.0383   19.9448 C   0  0  0  0  0  0
  -30.4550  -15.3360   21.4842 N   0  0  0  0  0  0
  -29.7265  -20.1014   22.3092 N   0  0  0  0  0  0
  -31.8546  -19.4673   21.7928 O   0  0  0  0  0  0
  -31.4434  -12.3168   19.1164 H   0  0  0  0  0  0
  -30.2366  -11.2791   19.8142 H   0  0  0  0  0  0
  -29.7366  -11.8290   17.3974 H   0  0  0  0  0  0
  -29.6465  -13.5284   17.8113 H   0  0  0  0  0  0
  -27.8293  -11.3021   18.8382 H   0  0  0  0  0  0
  -27.3488  -12.6172   17.7934 H   0  0  0  0  0  0
  -27.6967  -14.2566   19.5326 H   0  0  0  0  0  0
  -28.6605  -12.0560   21.4224 H   0  0  0  0  0  0
  -28.4756  -13.7351   21.8107 H   0  0  0  0  0  0
  -25.3084   -9.5243   22.4485 H   0  0  0  0  0  0
  -24.0415   -7.4119   22.6850 H   0  0  0  0  0  0
  -21.0916   -8.8595   19.9026 H   0  0  0  0  0  0
  -22.3530  -10.9648   19.6437 H   0  0  0  0  0  0
  -21.2169   -7.6168   23.9833 H   0  0  0  0  0  0
  -21.1573   -6.0447   25.9097 H   0  0  0  0  0  0
  -22.0737   -2.7680   23.2653 H   0  0  0  0  0  0
  -22.4387  -11.9915   22.4665 H   0  0  0  0  0  0
  -21.1169  -13.0990   22.2136 H   0  0  0  0  0  0
  -24.6450  -15.8325   20.4956 H   0  0  0  0  0  0
  -26.2799  -15.6403   20.1026 H   0  0  0  0  0  0
  -26.7168  -32.5543   23.1275 H   0  0  0  0  0  0
  -25.0062  -33.9862   25.0489 H   0  0  0  0  0  0
  -22.7026  -31.3362   21.4346 H   0  0  0  0  0  0
  -23.3748  -35.9633   23.3283 H   0  0  0  0  0  0
  -24.3606  -36.8917   22.2054 H   0  0  0  0  0  0
  -23.7207  -37.6498   23.6634 H   0  0  0  0  0  0
  -26.1077  -31.5977   20.6543 H   0  0  0  0  0  0
  -26.8365  -30.8404   22.0409 H   0  0  0  0  0  0
  -28.0800  -28.9727   21.2682 H   0  0  0  0  0  0
  -25.9559  -26.2099   18.7037 H   0  0  0  0  0  0
  -23.9731  -27.4750   18.8727 H   0  0  0  0  0  0
  -23.7341  -30.6709   19.4278 H   0  0  0  0  0  0
  -22.7482  -29.3123   19.8525 H   0  0  0  0  0  0
  -25.1287  -36.1971   25.0833 H   0  0  0  0  0  0
  -20.9983  -28.3248   24.1379 H   0  0  0  0  0  0
  -20.5603  -26.2332   23.3622 H   0  0  0  0  0  0
  -21.6661  -26.7414   22.1230 H   0  0  0  0  0  0
  -19.6889  -25.6279   21.1271 H   0  0  0  0  0  0
  -19.6668  -27.3161   20.6703 H   0  0  0  0  0  0
  -17.4179  -26.6640   21.4046 H   0  0  0  0  0  0
  -18.0331  -26.0120   22.9059 H   0  0  0  0  0  0
  -19.7947  -30.7235   24.2338 H   0  0  0  0  0  0
  -17.5031  -31.6282   24.5137 H   0  0  0  0  0  0
  -15.5353  -30.3006   23.7638 H   0  0  0  0  0  0
  -15.8679  -28.0836   22.7041 H   0  0  0  0  0  0
  -24.5761  -30.7375   25.7912 H   0  0  0  0  0  0
  -24.9101  -32.3082   26.5097 H   0  0  0  0  0  0
  -25.8032  -30.8917   27.0308 H   0  0  0  0  0  0
  -26.2947  -29.6812   24.1322 H   0  0  0  0  0  0
  -27.3973  -29.7350   25.4869 H   0  0  0  0  0  0
  -27.8836  -30.4370   23.9632 H   0  0  0  0  0  0
  -27.2634  -33.3646   26.2260 H   0  0  0  0  0  0
  -28.3768  -32.7092   25.0355 H   0  0  0  0  0  0
  -28.0807  -31.8498   26.5402 H   0  0  0  0  0  0
  -28.2602  -38.0119   24.7531 H   0  0  0  0  0  0
  -28.1106  -36.2654   24.6230 H   0  0  0  0  0  0
  -27.2359  -37.1416   25.8880 H   0  0  0  0  0  0
  -20.9294  -29.8872   21.6966 H   0  0  0  0  0  0
  -26.0161  -38.2894   24.1394 H   0  0  0  0  0  0
  -29.7519  -24.8060   22.4818 H   0  0  0  0  0  0
  -28.1584  -24.1334   22.6366 H   0  0  0  0  0  0
  -30.3258  -23.3714   18.9304 H   0  0  0  0  0  0
  -31.1636  -23.9591   20.3326 H   0  0  0  0  0  0
  -29.2635  -22.3985   23.6929 H   0  0  0  0  0  0
  -30.8000  -22.8107   22.9905 H   0  0  0  0  0  0
  -31.5780  -21.7100   20.7025 H   0  0  0  0  0  0
  -30.2611  -21.1867   19.6768 H   0  0  0  0  0  0
  -28.4191  -23.1142   20.3389 H   0  0  0  0  0  0
  -28.6167  -21.4514   21.3820 H   0  0  0  0  0  0
  -29.2448  -25.1096   18.1097 H   0  0  0  0  0  0
  -27.6312  -25.5690   17.8080 H   0  0  0  0  0  0
  -27.9879  -23.8723   18.0631 H   0  0  0  0  0  0
  -26.5884  -23.5851   20.9402 H   0  0  0  0  0  0
  -25.8738  -24.5078   19.7283 H   0  0  0  0  0  0
  -26.2985  -25.2298   21.3014 H   0  0  0  0  0  0
  -28.5894  -19.0557   23.7991 H   0  0  0  0  0  0
  -27.8226  -19.2220   22.2126 H   0  0  0  0  0  0
  -27.8930  -20.5809   23.3210 H   0  0  0  0  0  0
  -29.3443  -17.4730   22.2956 H   0  0  0  0  0  0
  -30.6155  -17.4879   23.5136 H   0  0  0  0  0  0
  -32.1550  -16.4587   22.0216 H   0  0  0  0  0  0
  -31.3472  -17.0376   20.5988 H   0  0  0  0  0  0
  -29.6560  -15.1558   22.0734 H   0  0  0  0  0  0
  1 25  1  0  0  0
  1 30  2  0  0  0
  1 84  1  0  0  0
  2  3  1  0  0  0
  2 25  1  0  0  0
  2 87  1  0  0  0
  2 88  1  0  0  0
  3  4  1  0  0  0
  3 89  1  0  0  0
  3 90  1  0  0  0
  4  5  1  0  0  0
  4 91  1  0  0  0
  4 92  1  0  0  0
  5  6  1  0  0  0
  5 26  1  0  0  0
  5 93  1  0  0  0
  6 25  1  0  0  0
  6 94  1  0  0  0
  6 95  1  0  0  0
  7  8  2  0  0  0
  7 26  1  0  0  0
  7 29  1  0  0  0
  8  9  1  0  0  0
  8 22  1  0  0  0
  9 10  1  0  0  0
  9 27  2  0  0  0
 10 11  2  0  0  0
 10 15  1  0  0  0
 11 12  1  0  0  0
 11 96  1  0  0  0
 12 13  2  0  0  0
 12 97  1  0  0  0
 13 14  1  0  0  0
 13 31  1  0  0  0
 14 15  2  0  0  0
 14 98  1  0  0  0
 15 99  1  0  0  0
 16 17  2  0  0  0
 16 21  1  0  0  0
 16 31  1  0  0  0
 17 18  1  0  0  0
 17100  1  0  0  0
 18 19  2  0  0  0
 18101  1  0  0  0
 19 20  1  0  0  0
 19 24  1  0  0  0
 20 21  2  0  0  0
 20102  1  0  0  0
 21 23  1  0  0  0
 22 28  1  0  0  0
 22 32  2  0  0  0
 26 27  1  0  0  0
 28103  1  0  0  0
 28104  1  0  0  0
 29105  1  0  0  0
 29106  1  0  0  0
 33 34  1  0  0  0
 33 66  1  0  0  0
 33 70  2  0  0  0
 34 36  1  0  0  0
 34 59  1  0  0  0
 34107  1  0  0  0
 35 44  2  0  0  0
 35 45  1  0  0  0
 35 68  1  0  0  0
 36 56  1  0  0  0
 36108  1  0  0  0
 37 39  1  0  0  0
 37 47  1  0  0  0
 37 66  1  0  0  0
 37109  1  0  0  0
 38 43  2  0  0  0
 38 46  1  0  0  0
 38 47  1  0  0  0
 39 64  1  0  0  0
 39 67  2  0  0  0
 40 52  1  0  0  0
 40 53  2  0  0  0
 40 58  1  0  0  0
 41110  1  0  0  0
 41111  1  0  0  0
 41112  1  0  0  0
 41 48  1  0  0  0
 42 43  1  0  0  0
 42 66  1  0  0  0
 42113  1  0  0  0
 42114  1  0  0  0
 43 44  1  0  0  0
 44115  1  0  0  0
 45 46  2  0  0  0
 45116  1  0  0  0
 46117  1  0  0  0
 47118  1  0  0  0
 47119  1  0  0  0
 48 56  1  0  0  0
 48 65  1  0  0  0
 48120  1  0  0  0
 49 50  1  0  0  0
 49 53  1  0  0  0
 49 64  1  0  0  0
 49121  1  0  0  0
 50 51  1  0  0  0
 50122  1  0  0  0
 50123  1  0  0  0
 51 52  1  0  0  0
 51124  1  0  0  0
 51125  1  0  0  0
 52126  1  0  0  0
 52127  1  0  0  0
 53 54  1  0  0  0
 54 55  2  0  0  0
 54128  1  0  0  0
 55 57  1  0  0  0
 55129  1  0  0  0
 56 69  2  0  0  0
 57 58  2  0  0  0
 57130  1  0  0  0
 58131  1  0  0  0
 59 60  1  0  0  0
 59 61  1  0  0  0
 59 62  1  0  0  0
 60132  1  0  0  0
 60133  1  0  0  0
 60134  1  0  0  0
 61135  1  0  0  0
 61136  1  0  0  0
 61137  1  0  0  0
 62138  1  0  0  0
 62139  1  0  0  0
 62140  1  0  0  0
 63 65  1  0  0  0
 63141  1  0  0  0
 63142  1  0  0  0
 63143  1  0  0  0
 64144  1  0  0  0
 65145  1  0  0  0
 68 83  1  0  0  0
 71 81  1  0  0  0
 71 85  1  0  0  0
 71 86  2  0  0  0
 72 74  1  0  0  0
 72146  1  0  0  0
 72147  1  0  0  0
 72 76  1  0  0  0
 73 75  1  0  0  0
 73 76  1  0  0  0
 73148  1  0  0  0
 73149  1  0  0  0
 74 77  1  0  0  0
 74150  1  0  0  0
 74151  1  0  0  0
 75 77  1  0  0  0
 75152  1  0  0  0
 75153  1  0  0  0
 76 83  1  0  0  0
 76154  1  0  0  0
 77 85  1  0  0  0
 77155  1  0  0  0
 78156  1  0  0  0
 78157  1  0  0  0
 78158  1  0  0  0
 78 83  1  0  0  0
 79 83  1  0  0  0
 79159  1  0  0  0
 79160  1  0  0  0
 79161  1  0  0  0
 80 85  1  0  0  0
 80162  1  0  0  0
 80163  1  0  0  0
 80164  1  0  0  0
 81 82  1  0  0  0
 81165  1  0  0  0
 81166  1  0  0  0
 82 84  1  0  0  0
 82167  1  0  0  0
 82168  1  0  0  0
 84169  1  0  0  0
M  ISO  4   1 100  68 101  83 101  84 100
M  END
> <chiral flag>
0

> <version>
0

> <s_m_source_file>
/data/baiqing/PycharmProjects/Reinvent-master-3.2/result/LINK_invent/BTK/process_docking_weight1_custom_sum_contain_oxygen_bond_distance_aromatic_linkinvent_7_9_3/rearranged_h_0022.sdf

> <i_m_source_file_index>
2

> <r_mmod_Potential_Energy-OPLS-2005>
231.650955200195

> <r_mmod_Stretch_Energy-OPLS-2005>
70.6462326049805

> <r_mmod_Bend_Energy-OPLS-2005>
204.53889465332

> <r_mmod_Torsional_Energy-OPLS-2005>
288.713012695312

> <r_mmod_Improper_Torsional_Energy-OPLS-2005>
2.04505729675293

> <r_mmod_Van_der_Waal_Energy-OPLS-2005>
221.397613525391

> <r_mmod_Electrostatic_Energy-OPLS-2005>
-365.683197021484

> <r_mmod_Solvation_Energy-OPLS-2005>
-225.128814697266

> <b_mmod_Minimization_Converged-OPLS-2005>
0

> <r_mmod_RMS_Derivative-OPLS-2005>
7.10754346847534

$$$$
2
                    3D
 Structure written by MMmdl.
165173  0  0  1  0            999 V2000
  -30.6207  -14.7221   20.4715 C   0  0  0  0  0  0
  -30.4360  -12.4420   19.4769 C   0  0  0  0  0  0
  -29.5132  -12.5179   18.2402 C   0  0  0  0  0  0
  -28.0398  -12.3384   18.6522 C   0  0  0  0  0  0
  -27.6483  -13.2317   19.8591 C   0  0  2  0  0  0
  -28.6914  -13.1463   20.9962 C   0  0  0  0  0  0
  -25.2523  -13.8203   20.5708 C   0  0  0  0  0  0
  -24.1804  -13.0441   20.9193 C   0  0  0  0  0  0
  -24.6392  -11.6924   20.8726 C   0  0  0  0  0  0
  -23.9063  -10.4290   21.0386 C   0  0  0  0  0  0
  -24.3606   -9.4215   21.9180 C   0  0  0  0  0  0
  -23.6285   -8.2247   22.0755 C   0  0  0  0  0  0
  -22.4273   -8.0275   21.3542 C   0  0  0  0  0  0
  -21.9911   -9.0238   20.4636 C   0  0  0  0  0  0
  -22.7230  -10.2121   20.3044 C   0  0  0  0  0  0
  -21.6851   -6.0730   22.5275 C   0  0  0  0  0  0
  -21.4008   -6.5633   23.8209 C   0  0  0  0  0  0
  -21.3664   -5.6786   24.9172 C   0  0  0  0  0  0
  -21.6051   -4.3049   24.7222 C   0  0  0  0  0  0
  -21.8817   -3.8147   23.4340 C   0  0  0  0  0  0
  -21.9189   -4.6963   22.3395 C   0  0  0  0  0  0
  -22.7819  -13.5222   21.1857 C   0  0  0  0  0  0
  -22.1663   -4.2147   21.0978 F   0  0  0  0  0  0
  -21.5632   -3.4545   25.7735 F   0  0  0  0  0  0
  -30.0027  -13.4920   20.4286 N   0  0  0  0  0  0
  -26.2969  -12.9420   20.3323 N   0  0  0  0  0  0
  -25.9333  -11.6559   20.5758 N   0  0  0  0  0  0
  -22.0451  -12.8204   22.0385 N   0  0  0  0  0  0
  -25.4209  -15.1926   20.4155 N   0  0  0  0  0  0
  -31.7813  -14.8454   20.0716 O   0  0  0  0  0  0
  -21.6639   -6.8875   21.4238 O   0  0  0  0  0  0
  -22.3515  -14.5533   20.6703 O   0  0  0  0  0  0
  -24.6339  -31.8525   23.1976 C   0  0  0  0  0  0
  -25.9145  -32.4751   23.8337 C   0  0  1  0  0  0
  -27.2297  -27.2567   20.1257 C   0  0  0  0  0  0
  -25.5930  -33.8555   24.2254 N   0  0  0  0  0  0
  -23.4307  -30.4750   21.5429 C   0  0  2  0  0  0
  -24.8794  -28.9225   20.1117 C   0  0  0  0  0  0
  -22.7508  -29.4573   22.4912 C   0  0  0  0  0  0
  -18.0282  -28.1379   22.8458 C   0  0  0  0  0  0
  -24.1482  -36.7271   23.2638 C   0  0  0  0  0  0
  -25.9776  -30.7657   21.3769 C   0  0  0  0  0  0
  -26.0527  -29.3886   20.7186 C   0  0  0  0  0  0
  -27.2294  -28.5705   20.7098 C   0  0  0  0  0  0
  -26.0277  -26.8597   19.4932 C   0  0  0  0  0  0
  -24.8735  -27.6664   19.4887 C   0  0  0  0  0  0
  -23.6483  -29.8077   20.1599 C   0  0  0  0  0  0
  -25.4107  -36.3068   24.0326 C   0  0  1  0  0  0
  -20.5890  -28.3680   23.1255 C   0  0  2  0  0  0
  -20.6772  -26.9399   22.5393 C   0  0  0  0  0  0
  -19.5751  -26.6378   21.5192 C   0  0  0  0  0  0
  -18.1921  -26.7919   22.1602 C   0  0  0  0  0  0
  -19.1541  -28.8849   23.2850 C   0  0  0  0  0  0
  -18.9478  -30.1452   23.8869 C   0  0  0  0  0  0
  -17.6479  -30.6579   24.0549 C   0  0  0  0  0  0
  -25.9060  -34.9442   23.5090 C   0  0  0  0  0  0
  -16.5360  -29.9066   23.6352 C   0  0  0  0  0  0
  -16.7268  -28.6494   23.0333 C   0  0  0  0  0  0
  -26.4504  -31.6578   25.0733 C   0  0  0  0  0  0
  -25.3696  -31.3688   26.1424 C   0  0  0  0  0  0
  -27.0402  -30.3025   24.6201 C   0  0  0  0  0  0
  -27.6059  -32.4329   25.7512 C   0  0  0  0  0  0
  -27.5566  -37.1793   24.8450 C   0  0  0  0  0  0
  -21.4207  -29.3043   22.3680 N   0  0  0  0  0  0
  -26.4273  -37.3773   23.9412 N   0  0  0  0  0  0
  -24.7012  -31.0471   22.0968 N   0  0  0  0  0  0
  -23.4204  -28.8102   23.3009 O   0  0  0  0  0  0
  -28.3294  -26.3641   20.1889 O   0  0  0  0  0  0
  -26.5639  -34.8907   22.4660 O   0  0  0  0  0  0
  -23.5484  -32.1356   23.7258 O   0  0  0  0  0  0
  -30.7096  -17.7813   19.3440 C   0  0  0  0  0  0
  -30.0651  -17.2584   20.4969 C   0  0  0  0  0  0
  -29.6145  -18.4074   21.1526 C   0  0  0  0  0  0
  -28.8555  -18.4641   22.4380 C   0  0  0  0  0  0
  -28.8584  -21.9160   18.6290 C   0  0  0  0  0  0
  -27.5890  -21.7660   20.7352 C   0  0  0  0  0  0
  -31.4949  -21.6035   20.2571 C   0  0  0  0  0  0
  -30.2035  -21.2886   22.2937 C   0  0  0  0  0  0
  -29.2008  -23.7577   20.4018 C   0  0  0  0  0  0
  -28.0946  -24.8838   20.0189 C   0  0  0  0  0  0
  -28.9677  -22.1445   20.1539 C   0  0  0  0  0  0
  -30.1070  -21.1080   20.7591 C   0  0  0  0  0  0
  -30.6694  -19.1171   19.3096 N   0  0  0  0  0  0
  -30.0529  -19.5772   20.4448 N   0  0  0  0  0  0
  -29.8768  -15.8266   20.8415 N   0  0  0  0  0  0
  -31.4783  -12.5605   19.1755 H   0  0  0  0  0  0
  -30.3742  -11.4601   19.9471 H   0  0  0  0  0  0
  -29.7947  -11.7573   17.5112 H   0  0  0  0  0  0
  -29.6384  -13.4814   17.7435 H   0  0  0  0  0  0
  -27.8956  -11.2885   18.9102 H   0  0  0  0  0  0
  -27.3818  -12.5367   17.8052 H   0  0  0  0  0  0
  -27.6489  -14.2577   19.4899 H   0  0  0  0  0  0
  -28.7167  -12.1428   21.4231 H   0  0  0  0  0  0
  -28.4248  -13.8156   21.8151 H   0  0  0  0  0  0
  -25.2744   -9.5707   22.4761 H   0  0  0  0  0  0
  -23.9992   -7.4656   22.7489 H   0  0  0  0  0  0
  -21.0847   -8.8748   19.8939 H   0  0  0  0  0  0
  -22.3685  -10.9655   19.6148 H   0  0  0  0  0  0
  -21.1994   -7.6133   23.9712 H   0  0  0  0  0  0
  -21.1496   -6.0518   25.9076 H   0  0  0  0  0  0
  -22.0592   -2.7608   23.2844 H   0  0  0  0  0  0
  -22.4041  -11.9844   22.4754 H   0  0  0  0  0  0
  -21.1063  -13.1236   22.2576 H   0  0  0  0  0  0
  -24.6487  -15.8421   20.5146 H   0  0  0  0  0  0
  -26.2723  -15.6385   20.0977 H   0  0  0  0  0  0
  -26.7204  -32.5404   23.1080 H   0  0  0  0  0  0
  -25.0105  -33.9695   25.0416 H   0  0  0  0  0  0
  -22.7288  -31.2979   21.3958 H   0  0  0  0  0  0
  -23.3769  -35.9571   23.3276 H   0  0  0  0  0  0
  -24.3585  -36.8927   22.2057 H   0  0  0  0  0  0
  -23.7212  -37.6449   23.6688 H   0  0  0  0  0  0
  -26.1068  -31.5247   20.6045 H   0  0  0  0  0  0
  -26.8594  -30.8212   22.0056 H   0  0  0  0  0  0
  -28.1299  -28.9228   21.1938 H   0  0  0  0  0  0
  -25.9478  -25.8992   19.0071 H   0  0  0  0  0  0
  -23.9742  -27.3008   19.0111 H   0  0  0  0  0  0
  -23.7653  -30.5826   19.4036 H   0  0  0  0  0  0
  -22.7675  -29.2371   19.8581 H   0  0  0  0  0  0
  -25.1286  -36.1924   25.0821 H   0  0  0  0  0  0
  -20.9970  -28.3249   24.1378 H   0  0  0  0  0  0
  -20.5680  -26.2269   23.3584 H   0  0  0  0  0  0
  -21.6632  -26.7412   22.1184 H   0  0  0  0  0  0
  -19.6921  -25.6290   21.1216 H   0  0  0  0  0  0
  -19.6711  -27.3188   20.6722 H   0  0  0  0  0  0
  -17.4203  -26.6677   21.3992 H   0  0  0  0  0  0
  -18.0318  -26.0028   22.8974 H   0  0  0  0  0  0
  -19.7958  -30.7272   24.2212 H   0  0  0  0  0  0
  -17.5028  -31.6256   24.5150 H   0  0  0  0  0  0
  -15.5363  -30.2956   23.7697 H   0  0  0  0  0  0
  -15.8662  -28.0827   22.7039 H   0  0  0  0  0  0
  -24.5925  -30.6991   25.7715 H   0  0  0  0  0  0
  -24.8813  -32.2825   26.4823 H   0  0  0  0  0  0
  -25.7983  -30.8887   27.0229 H   0  0  0  0  0  0
  -26.3018  -29.6744   24.1205 H   0  0  0  0  0  0
  -27.4117  -29.7304   25.4711 H   0  0  0  0  0  0
  -27.8838  -30.4368   23.9430 H   0  0  0  0  0  0
  -27.2708  -33.3682   26.2003 H   0  0  0  0  0  0
  -28.3909  -32.6801   25.0355 H   0  0  0  0  0  0
  -28.0655  -31.8491   26.5497 H   0  0  0  0  0  0
  -28.2543  -38.0126   24.7568 H   0  0  0  0  0  0
  -28.1127  -36.2679   24.6224 H   0  0  0  0  0  0
  -27.2297  -37.1346   25.8848 H   0  0  0  0  0  0
  -20.9408  -29.8802   21.6911 H   0  0  0  0  0  0
  -26.0158  -38.2838   24.1462 H   0  0  0  0  0  0
  -31.1844  -17.2483   18.5315 H   0  0  0  0  0  0
  -28.3878  -17.5062   22.6583 H   0  0  0  0  0  0
  -28.0632  -19.2093   22.3982 H   0  0  0  0  0  0
  -29.5199  -18.7036   23.2675 H   0  0  0  0  0  0
  -28.0238  -22.4669   18.1932 H   0  0  0  0  0  0
  -28.6989  -20.8635   18.3922 H   0  0  0  0  0  0
  -29.7556  -22.2358   18.1000 H   0  0  0  0  0  0
  -26.7814  -22.2921   20.2272 H   0  0  0  0  0  0
  -27.5013  -22.0121   21.7929 H   0  0  0  0  0  0
  -27.3835  -20.7008   20.6224 H   0  0  0  0  0  0
  -31.7212  -22.6178   20.5830 H   0  0  0  0  0  0
  -31.5810  -21.5897   19.1711 H   0  0  0  0  0  0
  -32.2987  -20.9725   20.6383 H   0  0  0  0  0  0
  -30.5108  -22.2962   22.5727 H   0  0  0  0  0  0
  -30.9436  -20.6121   22.7246 H   0  0  0  0  0  0
  -29.2618  -21.1031   22.8032 H   0  0  0  0  0  0
  -29.4265  -23.9096   21.4566 H   0  0  0  0  0  0
  -30.1113  -24.0425   19.8772 H   0  0  0  0  0  0
  -27.2034  -24.6385   20.5954 H   0  0  0  0  0  0
  -27.8332  -24.7258   18.9731 H   0  0  0  0  0  0
  -29.0140  -15.6053   21.3145 H   0  0  0  0  0  0
  1 25  1  0  0  0
  1 30  2  0  0  0
  1 85  1  0  0  0
  2  3  1  0  0  0
  2 25  1  0  0  0
  2 86  1  0  0  0
  2 87  1  0  0  0
  3  4  1  0  0  0
  3 88  1  0  0  0
  3 89  1  0  0  0
  4  5  1  0  0  0
  4 90  1  0  0  0
  4 91  1  0  0  0
  5  6  1  0  0  0
  5 26  1  0  0  0
  5 92  1  0  0  0
  6 25  1  0  0  0
  6 93  1  0  0  0
  6 94  1  0  0  0
  7  8  2  0  0  0
  7 26  1  0  0  0
  7 29  1  0  0  0
  8  9  1  0  0  0
  8 22  1  0  0  0
  9 10  1  0  0  0
  9 27  2  0  0  0
 10 11  2  0  0  0
 10 15  1  0  0  0
 11 12  1  0  0  0
 11 95  1  0  0  0
 12 13  2  0  0  0
 12 96  1  0  0  0
 13 14  1  0  0  0
 13 31  1  0  0  0
 14 15  2  0  0  0
 14 97  1  0  0  0
 15 98  1  0  0  0
 16 17  2  0  0  0
 16 21  1  0  0  0
 16 31  1  0  0  0
 17 18  1  0  0  0
 17 99  1  0  0  0
 18 19  2  0  0  0
 18100  1  0  0  0
 19 20  1  0  0  0
 19 24  1  0  0  0
 20 21  2  0  0  0
 20101  1  0  0  0
 21 23  1  0  0  0
 22 28  1  0  0  0
 22 32  2  0  0  0
 26 27  1  0  0  0
 28102  1  0  0  0
 28103  1  0  0  0
 29104  1  0  0  0
 29105  1  0  0  0
 33 34  1  0  0  0
 33 66  1  0  0  0
 33 70  2  0  0  0
 34 36  1  0  0  0
 34 59  1  0  0  0
 34106  1  0  0  0
 35 44  2  0  0  0
 35 45  1  0  0  0
 35 68  1  0  0  0
 36 56  1  0  0  0
 36107  1  0  0  0
 37 39  1  0  0  0
 37 47  1  0  0  0
 37 66  1  0  0  0
 37108  1  0  0  0
 38 43  2  0  0  0
 38 46  1  0  0  0
 38 47  1  0  0  0
 39 64  1  0  0  0
 39 67  2  0  0  0
 40 52  1  0  0  0
 40 53  2  0  0  0
 40 58  1  0  0  0
 41109  1  0  0  0
 41110  1  0  0  0
 41111  1  0  0  0
 41 48  1  0  0  0
 42 43  1  0  0  0
 42 66  1  0  0  0
 42112  1  0  0  0
 42113  1  0  0  0
 43 44  1  0  0  0
 44114  1  0  0  0
 45 46  2  0  0  0
 45115  1  0  0  0
 46116  1  0  0  0
 47117  1  0  0  0
 47118  1  0  0  0
 48 56  1  0  0  0
 48 65  1  0  0  0
 48119  1  0  0  0
 49 50  1  0  0  0
 49 53  1  0  0  0
 49 64  1  0  0  0
 49120  1  0  0  0
 50 51  1  0  0  0
 50121  1  0  0  0
 50122  1  0  0  0
 51 52  1  0  0  0
 51123  1  0  0  0
 51124  1  0  0  0
 52125  1  0  0  0
 52126  1  0  0  0
 53 54  1  0  0  0
 54 55  2  0  0  0
 54127  1  0  0  0
 55 57  1  0  0  0
 55128  1  0  0  0
 56 69  2  0  0  0
 57 58  2  0  0  0
 57129  1  0  0  0
 58130  1  0  0  0
 59 60  1  0  0  0
 59 61  1  0  0  0
 59 62  1  0  0  0
 60131  1  0  0  0
 60132  1  0  0  0
 60133  1  0  0  0
 61134  1  0  0  0
 61135  1  0  0  0
 61136  1  0  0  0
 62137  1  0  0  0
 62138  1  0  0  0
 62139  1  0  0  0
 63 65  1  0  0  0
 63140  1  0  0  0
 63141  1  0  0  0
 63142  1  0  0  0
 64143  1  0  0  0
 65144  1  0  0  0
 68 80  1  0  0  0
 71 72  1  0  0  0
 71 83  2  0  0  0
 71145  1  0  0  0
 72 73  2  0  0  0
 72 85  1  0  0  0
 73 74  1  0  0  0
 73 84  1  0  0  0
 74146  1  0  0  0
 74147  1  0  0  0
 74148  1  0  0  0
 75149  1  0  0  0
 75150  1  0  0  0
 75151  1  0  0  0
 75 81  1  0  0  0
 76 81  1  0  0  0
 76152  1  0  0  0
 76153  1  0  0  0
 76154  1  0  0  0
 77155  1  0  0  0
 77156  1  0  0  0
 77157  1  0  0  0
 77 82  1  0  0  0
 78 82  1  0  0  0
 78158  1  0  0  0
 78159  1  0  0  0
 78160  1  0  0  0
 79 80  1  0  0  0
 79 81  1  0  0  0
 79161  1  0  0  0
 79162  1  0  0  0
 80163  1  0  0  0
 80164  1  0  0  0
 81 82  1  0  0  0
 82 84  1  0  0  0
 83 84  1  0  0  0
 85165  1  0  0  0
M  ISO  4   1 100  68 101  80 101  85 100
M  END
> <chiral flag>
0

> <version>
0

> <s_m_source_file>
/data/baiqing/PycharmProjects/Reinvent-master-3.2/result/LINK_invent/BTK/process_docking_weight1_custom_sum_contain_oxygen_bond_distance_aromatic_linkinvent_7_9_3/rearranged_h_0022.sdf

> <i_m_source_file_index>
3

> <r_mmod_Potential_Energy-OPLS-2005>
192.94206237793

> <r_mmod_Stretch_Energy-OPLS-2005>
145.697647094727

> <r_mmod_Bend_Energy-OPLS-2005>
191.407897949219

> <r_mmod_Torsional_Energy-OPLS-2005>
273.086395263672

> <r_mmod_Improper_Torsional_Energy-OPLS-2005>
3.86552429199219

> <r_mmod_Van_der_Waal_Energy-OPLS-2005>
129.463775634766

> <r_mmod_Electrostatic_Energy-OPLS-2005>
-420.244232177734

> <r_mmod_Solvation_Energy-OPLS-2005>
-210.133697509766

> <b_mmod_Minimization_Converged-OPLS-2005>
0

> <r_mmod_RMS_Derivative-OPLS-2005>
2.66782259941101

$$$$
3
                    3D
 Structure written by MMmdl.
168176  0  0  1  0            999 V2000
  -30.7551  -14.3797   20.6289 C   0  0  0  0  0  0
  -30.4131  -12.2729   19.4091 C   0  0  0  0  0  0
  -29.4874  -12.5116   18.2010 C   0  0  0  0  0  0
  -28.0082  -12.3825   18.6135 C   0  0  0  0  0  0
  -27.6669  -13.2067   19.8847 C   0  0  2  0  0  0
  -28.7049  -12.9576   21.0027 C   0  0  0  0  0  0
  -25.2600  -13.8164   20.5685 C   0  0  0  0  0  0
  -24.1847  -13.0447   20.9175 C   0  0  0  0  0  0
  -24.6399  -11.6910   20.8734 C   0  0  0  0  0  0
  -23.9052  -10.4299   21.0402 C   0  0  0  0  0  0
  -24.3605   -9.4209   21.9183 C   0  0  0  0  0  0
  -23.6291   -8.2238   22.0736 C   0  0  0  0  0  0
  -22.4268   -8.0284   21.3535 C   0  0  0  0  0  0
  -21.9901   -9.0250   20.4634 C   0  0  0  0  0  0
  -22.7224  -10.2137   20.3045 C   0  0  0  0  0  0
  -21.6848   -6.0728   22.5274 C   0  0  0  0  0  0
  -21.4023   -6.5631   23.8217 C   0  0  0  0  0  0
  -21.3658   -5.6779   24.9175 C   0  0  0  0  0  0
  -21.6046   -4.3043   24.7219 C   0  0  0  0  0  0
  -21.8824   -3.8136   23.4341 C   0  0  0  0  0  0
  -21.9198   -4.6958   22.3398 C   0  0  0  0  0  0
  -22.7876  -13.5247   21.1852 C   0  0  0  0  0  0
  -22.1662   -4.2142   21.0978 F   0  0  0  0  0  0
  -21.5627   -3.4530   25.7734 F   0  0  0  0  0  0
  -30.0459  -13.2358   20.4574 N   0  0  0  0  0  0
  -26.3055  -12.9331   20.3419 N   0  0  0  0  0  0
  -25.9336  -11.6486   20.5790 N   0  0  0  0  0  0
  -22.0506  -12.8241   22.0405 N   0  0  0  0  0  0
  -25.4357  -15.1877   20.4081 N   0  0  0  0  0  0
  -31.8170  -14.6105   20.0411 O   0  0  0  0  0  0
  -21.6641   -6.8877   21.4238 O   0  0  0  0  0  0
  -22.3557  -14.5538   20.6695 O   0  0  0  0  0  0
  -24.6111  -31.8696   23.2132 C   0  0  0  0  0  0
  -25.9013  -32.4833   23.8422 C   0  0  1  0  0  0
  -27.2397  -27.4610   20.1138 C   0  0  0  0  0  0
  -25.5885  -33.8625   24.2365 N   0  0  0  0  0  0
  -23.3990  -30.4923   21.5514 C   0  0  2  0  0  0
  -24.8516  -28.9621   20.1149 C   0  0  0  0  0  0
  -22.7404  -29.4645   22.4998 C   0  0  0  0  0  0
  -18.0266  -28.1384   22.8491 C   0  0  0  0  0  0
  -24.1483  -36.7314   23.2634 C   0  0  0  0  0  0
  -25.9237  -30.8466   21.3618 C   0  0  0  0  0  0
  -26.0050  -29.4794   20.7192 C   0  0  0  0  0  0
  -27.2023  -28.7324   20.7264 C   0  0  0  0  0  0
  -26.0803  -26.9580   19.4903 C   0  0  0  0  0  0
  -24.8820  -27.6978   19.4990 C   0  0  0  0  0  0
  -23.6093  -29.8234   20.1648 C   0  0  0  0  0  0
  -25.4101  -36.3126   24.0341 C   0  0  1  0  0  0
  -20.5856  -28.3646   23.1340 C   0  0  2  0  0  0
  -20.6760  -26.9393   22.5427 C   0  0  0  0  0  0
  -19.5740  -26.6397   21.5223 C   0  0  0  0  0  0
  -18.1915  -26.7925   22.1631 C   0  0  0  0  0  0
  -19.1515  -28.8835   23.2918 C   0  0  0  0  0  0
  -18.9446  -30.1446   23.8937 C   0  0  0  0  0  0
  -17.6447  -30.6595   24.0556 C   0  0  0  0  0  0
  -25.9027  -34.9478   23.5158 C   0  0  0  0  0  0
  -16.5341  -29.9096   23.6319 C   0  0  0  0  0  0
  -16.7257  -28.6508   23.0349 C   0  0  0  0  0  0
  -26.4474  -31.6576   25.0706 C   0  0  0  0  0  0
  -25.3745  -31.3649   26.1451 C   0  0  0  0  0  0
  -27.0307  -30.3028   24.6032 C   0  0  0  0  0  0
  -27.6085  -32.4273   25.7442 C   0  0  0  0  0  0
  -27.5591  -37.1818   24.8464 C   0  0  0  0  0  0
  -21.4131  -29.3012   22.3750 N   0  0  0  0  0  0
  -26.4298  -37.3809   23.9410 N   0  0  0  0  0  0
  -24.6629  -31.0821   22.1021 N   0  0  0  0  0  0
  -23.4197  -28.8185   23.3014 O   0  0  0  0  0  0
  -28.3735  -26.6871   20.1079 O   0  0  0  0  0  0
  -26.5588  -34.8921   22.4720 O   0  0  0  0  0  0
  -23.5312  -32.1416   23.7559 O   0  0  0  0  0  0
  -28.8208  -18.0840   22.0604 C   0  0  0  0  0  0
  -28.1239  -19.0310   22.8293 C   0  0  0  0  0  0
  -30.0321  -17.5386   22.5286 C   0  0  0  0  0  0
  -28.6225  -19.4487   24.0819 C   0  0  0  0  0  0
  -30.5154  -17.9063   23.8084 C   0  0  0  0  0  0
  -29.8103  -18.8562   24.5859 C   0  0  0  0  0  0
  -26.5714  -19.9603   25.4474 C   0  0  0  0  0  0
  -30.8118  -16.6151   21.6079 C   0  0  0  0  0  0
  -29.1329  -23.8509   23.6084 C   0  0  0  0  0  0
  -30.1748  -24.5000   22.6722 C   0  0  0  0  0  0
  -28.7988  -22.3917   23.2412 C   0  0  0  0  0  0
  -29.6132  -25.0080   21.3248 C   0  0  0  0  0  0
  -27.5897  -21.8096   24.0152 C   0  0  0  0  0  0
  -28.8677  -26.3529   21.4069 C   0  0  0  0  0  0
  -27.8673  -20.5344   24.8524 C   0  0  2  0  0  0
  -30.2177  -15.2937   21.4408 N   0  0  0  0  0  0
  -31.9740  -17.2061   24.4322 Cl  0  0  0  0  0  0
  -30.4315  -19.2902   26.1472 Cl  0  0  0  0  0  0
  -31.4584  -12.3579   19.1064 H   0  0  0  0  0  0
  -30.2966  -11.2542   19.7836 H   0  0  0  0  0  0
  -29.7189  -11.8035   17.4047 H   0  0  0  0  0  0
  -29.6688  -13.5055   17.7864 H   0  0  0  0  0  0
  -27.8039  -11.3262   18.7904 H   0  0  0  0  0  0
  -27.3601  -12.6818   17.7894 H   0  0  0  0  0  0
  -27.7231  -14.2610   19.6134 H   0  0  0  0  0  0
  -28.6598  -11.9191   21.3323 H   0  0  0  0  0  0
  -28.4657  -13.5504   21.8870 H   0  0  0  0  0  0
  -25.2755   -9.5690   22.4757 H   0  0  0  0  0  0
  -24.0004   -7.4626   22.7440 H   0  0  0  0  0  0
  -21.0834   -8.8765   19.8939 H   0  0  0  0  0  0
  -22.3674  -10.9677   19.6154 H   0  0  0  0  0  0
  -21.2009   -7.6141   23.9722 H   0  0  0  0  0  0
  -21.1483   -6.0504   25.9082 H   0  0  0  0  0  0
  -22.0607   -2.7598   23.2843 H   0  0  0  0  0  0
  -22.4100  -11.9908   22.4817 H   0  0  0  0  0  0
  -21.1128  -13.1284   22.2594 H   0  0  0  0  0  0
  -24.6757  -15.8507   20.5165 H   0  0  0  0  0  0
  -26.2983  -15.6209   20.1023 H   0  0  0  0  0  0
  -26.7090  -32.5592   23.1203 H   0  0  0  0  0  0
  -25.0028  -33.9783   25.0508 H   0  0  0  0  0  0
  -22.6854  -31.3073   21.4141 H   0  0  0  0  0  0
  -23.3747  -35.9653   23.3318 H   0  0  0  0  0  0
  -24.3573  -36.8903   22.2046 H   0  0  0  0  0  0
  -23.7234  -37.6526   23.6619 H   0  0  0  0  0  0
  -26.0205  -31.6073   20.5864 H   0  0  0  0  0  0
  -26.8180  -30.9139   21.9690 H   0  0  0  0  0  0
  -28.0892  -29.1295   21.2002 H   0  0  0  0  0  0
  -26.1043  -25.9854   19.0187 H   0  0  0  0  0  0
  -23.9952  -27.2929   19.0318 H   0  0  0  0  0  0
  -23.7160  -30.5983   19.4062 H   0  0  0  0  0  0
  -22.7357  -29.2399   19.8688 H   0  0  0  0  0  0
  -25.1285  -36.2004   25.0839 H   0  0  0  0  0  0
  -20.9959  -28.3199   24.1454 H   0  0  0  0  0  0
  -20.5671  -26.2254   23.3600 H   0  0  0  0  0  0
  -21.6626  -26.7438   22.1215 H   0  0  0  0  0  0
  -19.6887  -25.6317   21.1232 H   0  0  0  0  0  0
  -19.6679  -27.3226   20.6772 H   0  0  0  0  0  0
  -17.4187  -26.6689   21.4028 H   0  0  0  0  0  0
  -18.0303  -26.0066   22.9034 H   0  0  0  0  0  0
  -19.7925  -30.7254   24.2336 H   0  0  0  0  0  0
  -17.4999  -31.6271   24.5164 H   0  0  0  0  0  0
  -15.5347  -30.3015   23.7618 H   0  0  0  0  0  0
  -15.8652  -28.0842   22.7055 H   0  0  0  0  0  0
  -24.5930  -30.6993   25.7759 H   0  0  0  0  0  0
  -24.8909  -32.2788   26.4915 H   0  0  0  0  0  0
  -25.8115  -30.8783   27.0185 H   0  0  0  0  0  0
  -26.2828  -29.6791   24.1107 H   0  0  0  0  0  0
  -27.4138  -29.7258   25.4458 H   0  0  0  0  0  0
  -27.8634  -30.4385   23.9120 H   0  0  0  0  0  0
  -27.2751  -33.3556   26.2092 H   0  0  0  0  0  0
  -28.3838  -32.6863   25.0221 H   0  0  0  0  0  0
  -28.0826  -31.8339   26.5270 H   0  0  0  0  0  0
  -28.2634  -38.0096   24.7507 H   0  0  0  0  0  0
  -28.1076  -36.2634   24.6313 H   0  0  0  0  0  0
  -27.2300  -37.1488   25.8865 H   0  0  0  0  0  0
  -20.9302  -29.8738   21.6974 H   0  0  0  0  0  0
  -26.0197  -38.2902   24.1397 H   0  0  0  0  0  0
  -28.4382  -17.8039   21.0893 H   0  0  0  0  0  0
  -27.2105  -19.4555   22.4371 H   0  0  0  0  0  0
  -26.7776  -19.1033   26.0916 H   0  0  0  0  0  0
  -25.8844  -19.6242   24.6690 H   0  0  0  0  0  0
  -26.0496  -20.7033   26.0509 H   0  0  0  0  0  0
  -31.8522  -16.5168   21.9187 H   0  0  0  0  0  0
  -30.8518  -17.0984   20.6296 H   0  0  0  0  0  0
  -28.2279  -24.4580   23.6413 H   0  0  0  0  0  0
  -29.5291  -23.8591   24.6256 H   0  0  0  0  0  0
  -30.9718  -23.7807   22.4786 H   0  0  0  0  0  0
  -30.6603  -25.3292   23.1893 H   0  0  0  0  0  0
  -29.6922  -21.7855   23.3952 H   0  0  0  0  0  0
  -28.5840  -22.3207   22.1745 H   0  0  0  0  0  0
  -28.9622  -24.2525   20.8850 H   0  0  0  0  0  0
  -30.4428  -25.1286   20.6265 H   0  0  0  0  0  0
  -26.8020  -21.5967   23.2917 H   0  0  0  0  0  0
  -27.1628  -22.5687   24.6716 H   0  0  0  0  0  0
  -29.5396  -27.1357   21.7581 H   0  0  0  0  0  0
  -28.0525  -26.2841   22.1302 H   0  0  0  0  0  0
  -28.4745  -20.8706   25.6909 H   0  0  0  0  0  0
  -29.3421  -15.0876   21.8975 H   0  0  0  0  0  0
  1 25  1  0  0  0
  1 30  2  0  0  0
  1 86  1  0  0  0
  2  3  1  0  0  0
  2 25  1  0  0  0
  2 89  1  0  0  0
  2 90  1  0  0  0
  3  4  1  0  0  0
  3 91  1  0  0  0
  3 92  1  0  0  0
  4  5  1  0  0  0
  4 93  1  0  0  0
  4 94  1  0  0  0
  5  6  1  0  0  0
  5 26  1  0  0  0
  5 95  1  0  0  0
  6 25  1  0  0  0
  6 96  1  0  0  0
  6 97  1  0  0  0
  7  8  2  0  0  0
  7 26  1  0  0  0
  7 29  1  0  0  0
  8  9  1  0  0  0
  8 22  1  0  0  0
  9 10  1  0  0  0
  9 27  2  0  0  0
 10 11  2  0  0  0
 10 15  1  0  0  0
 11 12  1  0  0  0
 11 98  1  0  0  0
 12 13  2  0  0  0
 12 99  1  0  0  0
 13 14  1  0  0  0
 13 31  1  0  0  0
 14 15  2  0  0  0
 14100  1  0  0  0
 15101  1  0  0  0
 16 17  2  0  0  0
 16 21  1  0  0  0
 16 31  1  0  0  0
 17 18  1  0  0  0
 17102  1  0  0  0
 18 19  2  0  0  0
 18103  1  0  0  0
 19 20  1  0  0  0
 19 24  1  0  0  0
 20 21  2  0  0  0
 20104  1  0  0  0
 21 23  1  0  0  0
 22 28  1  0  0  0
 22 32  2  0  0  0
 26 27  1  0  0  0
 28105  1  0  0  0
 28106  1  0  0  0
 29107  1  0  0  0
 29108  1  0  0  0
 33 34  1  0  0  0
 33 66  1  0  0  0
 33 70  2  0  0  0
 34 36  1  0  0  0
 34 59  1  0  0  0
 34109  1  0  0  0
 35 44  2  0  0  0
 35 45  1  0  0  0
 35 68  1  0  0  0
 36 56  1  0  0  0
 36110  1  0  0  0
 37 39  1  0  0  0
 37 47  1  0  0  0
 37 66  1  0  0  0
 37111  1  0  0  0
 38 43  2  0  0  0
 38 46  1  0  0  0
 38 47  1  0  0  0
 39 64  1  0  0  0
 39 67  2  0  0  0
 40 52  1  0  0  0
 40 53  2  0  0  0
 40 58  1  0  0  0
 41112  1  0  0  0
 41113  1  0  0  0
 41114  1  0  0  0
 41 48  1  0  0  0
 42 43  1  0  0  0
 42 66  1  0  0  0
 42115  1  0  0  0
 42116  1  0  0  0
 43 44  1  0  0  0
 44117  1  0  0  0
 45 46  2  0  0  0
 45118  1  0  0  0
 46119  1  0  0  0
 47120  1  0  0  0
 47121  1  0  0  0
 48 56  1  0  0  0
 48 65  1  0  0  0
 48122  1  0  0  0
 49 50  1  0  0  0
 49 53  1  0  0  0
 49 64  1  0  0  0
 49123  1  0  0  0
 50 51  1  0  0  0
 50124  1  0  0  0
 50125  1  0  0  0
 51 52  1  0  0  0
 51126  1  0  0  0
 51127  1  0  0  0
 52128  1  0  0  0
 52129  1  0  0  0
 53 54  1  0  0  0
 54 55  2  0  0  0
 54130  1  0  0  0
 55 57  1  0  0  0
 55131  1  0  0  0
 56 69  2  0  0  0
 57 58  2  0  0  0
 57132  1  0  0  0
 58133  1  0  0  0
 59 60  1  0  0  0
 59 61  1  0  0  0
 59 62  1  0  0  0
 60134  1  0  0  0
 60135  1  0  0  0
 60136  1  0  0  0
 61137  1  0  0  0
 61138  1  0  0  0
 61139  1  0  0  0
 62140  1  0  0  0
 62141  1  0  0  0
 62142  1  0  0  0
 63 65  1  0  0  0
 63143  1  0  0  0
 63144  1  0  0  0
 63145  1  0  0  0
 64146  1  0  0  0
 65147  1  0  0  0
 68 84  1  0  0  0
 71 72  2  0  0  0
 71 73  1  0  0  0
 71148  1  0  0  0
 72 74  1  0  0  0
 72149  1  0  0  0
 73 75  2  0  0  0
 73 78  1  0  0  0
 74 76  2  0  0  0
 74 85  1  0  0  0
 75 76  1  0  0  0
 75 87  1  0  0  0
 76 88  1  0  0  0
 77150  1  0  0  0
 77151  1  0  0  0
 77152  1  0  0  0
 77 85  1  0  0  0
 78 86  1  0  0  0
 78153  1  0  0  0
 78154  1  0  0  0
 79 80  1  0  0  0
 79 81  1  0  0  0
 79155  1  0  0  0
 79156  1  0  0  0
 80 82  1  0  0  0
 80157  1  0  0  0
 80158  1  0  0  0
 81 83  1  0  0  0
 81159  1  0  0  0
 81160  1  0  0  0
 82 84  1  0  0  0
 82161  1  0  0  0
 82162  1  0  0  0
 83 85  1  0  0  0
 83163  1  0  0  0
 83164  1  0  0  0
 84165  1  0  0  0
 84166  1  0  0  0
 85167  1  0  0  0
 86168  1  0  0  0
M  ISO  4   1 100  68 101  84 101  86 100
M  END
> <chiral flag>
0

> <version>
0

> <s_m_source_file>
/data/baiqing/PycharmProjects/Reinvent-master-3.2/result/LINK_invent/BTK/process_docking_weight1_custom_sum_contain_oxygen_bond_distance_aromatic_linkinvent_7_9_3/rearranged_h_0022.sdf

> <i_m_source_file_index>
4

> <r_mmod_Potential_Energy-OPLS-2005>
-30.0329933166504

> <r_mmod_Stretch_Energy-OPLS-2005>
34.4543037414551

> <r_mmod_Bend_Energy-OPLS-2005>
90.7358016967773

> <r_mmod_Torsional_Energy-OPLS-2005>
240.584259033203

> <r_mmod_Improper_Torsional_Energy-OPLS-2005>
2.05972456932068

> <r_mmod_Van_der_Waal_Energy-OPLS-2005>
155.981506347656

> <r_mmod_Electrostatic_Energy-OPLS-2005>
-367.528503417969

> <r_mmod_Solvation_Energy-OPLS-2005>
-194.013381958008

> <b_mmod_Minimization_Converged-OPLS-2005>
0

> <r_mmod_RMS_Derivative-OPLS-2005>
2.51298117637634

$$$$
4
                    3D
 Structure written by MMmdl.
162170  0  0  1  0            999 V2000
  -30.7125  -14.4187   20.6505 C   0  0  0  0  0  0
  -30.4269  -12.2884   19.4239 C   0  0  0  0  0  0
  -29.4996  -12.4875   18.2059 C   0  0  0  0  0  0
  -28.0225  -12.3280   18.6133 C   0  0  0  0  0  0
  -27.6563  -13.1834   19.8573 C   0  0  2  0  0  0
  -28.6883  -12.9469   20.9804 C   0  0  0  0  0  0
  -25.2484  -13.8115   20.5435 C   0  0  0  0  0  0
  -24.1767  -13.0469   20.9052 C   0  0  0  0  0  0
  -24.6283  -11.6900   20.8599 C   0  0  0  0  0  0
  -23.9000  -10.4294   21.0339 C   0  0  0  0  0  0
  -24.3599   -9.4232   21.9160 C   0  0  0  0  0  0
  -23.6286   -8.2270   22.0772 C   0  0  0  0  0  0
  -22.4267   -8.0307   21.3582 C   0  0  0  0  0  0
  -21.9873   -9.0232   20.4671 C   0  0  0  0  0  0
  -22.7158  -10.2110   20.3019 C   0  0  0  0  0  0
  -21.6877   -6.0756   22.5265 C   0  0  0  0  0  0
  -21.4021   -6.5658   23.8190 C   0  0  0  0  0  0
  -21.3602   -5.6816   24.9161 C   0  0  0  0  0  0
  -21.6007   -4.3072   24.7220 C   0  0  0  0  0  0
  -21.8793   -3.8163   23.4337 C   0  0  0  0  0  0
  -21.9177   -4.6982   22.3397 C   0  0  0  0  0  0
  -22.7767  -13.5258   21.1747 C   0  0  0  0  0  0
  -22.1649   -4.2177   21.0972 F   0  0  0  0  0  0
  -21.5568   -3.4534   25.7714 F   0  0  0  0  0  0
  -30.0269  -13.2576   20.4587 N   0  0  0  0  0  0
  -26.2927  -12.9261   20.3181 N   0  0  0  0  0  0
  -25.9183  -11.6452   20.5635 N   0  0  0  0  0  0
  -22.0468  -12.8337   22.0383 N   0  0  0  0  0  0
  -25.4171  -15.1822   20.3696 N   0  0  0  0  0  0
  -31.8035  -14.6509   20.1319 O   0  0  0  0  0  0
  -21.6661   -6.8910   21.4243 O   0  0  0  0  0  0
  -22.3406  -14.5572   20.6617 O   0  0  0  0  0  0
  -24.6236  -31.8635   23.2149 C   0  0  0  0  0  0
  -25.9107  -32.4783   23.8410 C   0  0  1  0  0  0
  -27.1478  -27.3384   20.0836 C   0  0  0  0  0  0
  -25.5991  -33.8604   24.2354 N   0  0  0  0  0  0
  -23.4049  -30.5115   21.5610 C   0  0  2  0  0  0
  -24.8366  -28.9935   20.1045 C   0  0  0  0  0  0
  -22.7316  -29.4726   22.4944 C   0  0  0  0  0  0
  -18.0062  -28.1449   22.8370 C   0  0  0  0  0  0
  -24.1476  -36.7326   23.2632 C   0  0  0  0  0  0
  -25.9516  -30.7956   21.3856 C   0  0  0  0  0  0
  -26.0112  -29.4317   20.7256 C   0  0  0  0  0  0
  -27.1780  -28.6151   20.7192 C   0  0  0  0  0  0
  -25.9643  -26.9974   19.3750 C   0  0  0  0  0  0
  -24.8150  -27.7810   19.4150 C   0  0  0  0  0  0
  -23.6152  -29.8776   20.1690 C   0  0  0  0  0  0
  -25.4106  -36.3102   24.0323 C   0  0  1  0  0  0
  -20.5690  -28.3733   23.1270 C   0  0  2  0  0  0
  -20.6612  -26.9615   22.5165 C   0  0  0  0  0  0
  -19.5506  -26.6540   21.5076 C   0  0  0  0  0  0
  -18.1708  -26.8010   22.1557 C   0  0  0  0  0  0
  -19.1292  -28.8827   23.2930 C   0  0  0  0  0  0
  -18.9243  -30.1287   23.9144 C   0  0  0  0  0  0
  -17.6255  -30.6390   24.0896 C   0  0  0  0  0  0
  -25.9034  -34.9459   23.5099 C   0  0  0  0  0  0
  -16.5143  -29.9112   23.6308 C   0  0  0  0  0  0
  -16.7016  -28.6593   23.0165 C   0  0  0  0  0  0
  -26.4523  -31.6584   25.0747 C   0  0  0  0  0  0
  -25.3772  -31.3713   26.1472 C   0  0  0  0  0  0
  -27.0372  -30.3042   24.6136 C   0  0  0  0  0  0
  -27.6090  -32.4314   25.7525 C   0  0  0  0  0  0
  -27.5583  -37.1823   24.8465 C   0  0  0  0  0  0
  -21.4047  -29.3109   22.3700 N   0  0  0  0  0  0
  -26.4304  -37.3808   23.9394 N   0  0  0  0  0  0
  -24.6821  -31.0689   22.1106 N   0  0  0  0  0  0
  -23.4035  -28.8205   23.2966 O   0  0  0  0  0  0
  -28.1881  -26.4055   20.1928 O   0  0  0  0  0  0
  -26.5623  -34.8970   22.4683 O   0  0  0  0  0  0
  -23.5442  -32.1465   23.7561 O   0  0  0  0  0  0
  -27.0719  -18.4050   22.7937 C   0  0  0  0  0  0
  -29.8670  -18.2585   22.6002 C   0  0  0  0  0  0
  -27.8105  -19.5721   22.5241 C   0  0  0  0  0  0
  -29.1143  -17.0657   22.7345 C   0  0  0  0  0  0
  -29.2329  -19.5125   22.5045 C   0  0  0  0  0  0
  -27.7078  -17.1533   22.9046 C   0  0  0  0  0  0
  -27.0268  -20.8340   22.1856 C   0  0  0  0  0  0
  -29.8420  -15.7317   22.6050 C   0  0  0  0  0  0
  -26.5772  -20.8064   20.7156 C   0  0  0  0  0  0
  -27.7191  -21.1085   19.7153 C   0  0  0  0  0  0
  -27.8659  -22.5826   19.2535 C   0  0  0  0  0  0
  -28.4392  -23.6937   20.2014 C   0  0  0  0  0  0
  -27.7675  -25.0413   19.8232 C   0  0  0  0  0  0
  -30.0162  -15.4336   21.1800 N   0  0  0  0  0  0
  -30.2112  -20.9277   22.3329 Cl  0  0  0  0  0  0
  -26.7367  -15.7508   23.2047 Cl  0  0  0  0  0  0
  -31.4745  -12.3833   19.1373 H   0  0  0  0  0  0
  -30.3314  -11.2706   19.8077 H   0  0  0  0  0  0
  -29.7448  -11.7638   17.4267 H   0  0  0  0  0  0
  -29.6470  -13.4736   17.7714 H   0  0  0  0  0  0
  -27.8522  -11.2739   18.8378 H   0  0  0  0  0  0
  -27.3717  -12.5684   17.7725 H   0  0  0  0  0  0
  -27.7127  -14.2285   19.5560 H   0  0  0  0  0  0
  -28.6640  -11.9014   21.2968 H   0  0  0  0  0  0
  -28.4279  -13.5155   21.8654 H   0  0  0  0  0  0
  -25.2762   -9.5692   22.4746 H   0  0  0  0  0  0
  -23.9939   -7.4697   22.7544 H   0  0  0  0  0  0
  -21.0768   -8.8714   19.9087 H   0  0  0  0  0  0
  -22.3581  -10.9620   19.6112 H   0  0  0  0  0  0
  -21.2094   -7.6182   23.9694 H   0  0  0  0  0  0
  -21.1429   -6.0574   25.9061 H   0  0  0  0  0  0
  -22.0671   -2.7652   23.2802 H   0  0  0  0  0  0
  -22.4076  -11.9967   22.4714 H   0  0  0  0  0  0
  -21.1096  -13.1298   22.2684 H   0  0  0  0  0  0
  -24.6808  -15.8245   20.6417 H   0  0  0  0  0  0
  -26.3337  -15.6086   20.3171 H   0  0  0  0  0  0
  -26.7171  -32.5459   23.1149 H   0  0  0  0  0  0
  -25.0111  -33.9732   25.0493 H   0  0  0  0  0  0
  -22.7044  -31.3369   21.4342 H   0  0  0  0  0  0
  -23.3716  -35.9681   23.3330 H   0  0  0  0  0  0
  -24.3564  -36.8930   22.2043 H   0  0  0  0  0  0
  -23.7268  -37.6563   23.6637 H   0  0  0  0  0  0
  -26.0728  -31.5544   20.6101 H   0  0  0  0  0  0
  -26.8389  -30.8382   22.0085 H   0  0  0  0  0  0
  -28.0699  -28.9311   21.2367 H   0  0  0  0  0  0
  -25.8601  -26.1067   18.7776 H   0  0  0  0  0  0
  -23.9278  -27.4629   18.8910 H   0  0  0  0  0  0
  -23.7505  -30.6680   19.4269 H   0  0  0  0  0  0
  -22.7233  -29.3338   19.8477 H   0  0  0  0  0  0
  -25.1266  -36.1963   25.0829 H   0  0  0  0  0  0
  -20.9739  -28.3042   24.1428 H   0  0  0  0  0  0
  -21.6470  -26.7685   22.0987 H   0  0  0  0  0  0
  -20.5649  -26.2583   23.3424 H   0  0  0  0  0  0
  -19.6780  -25.6570   21.1042 H   0  0  0  0  0  0
  -19.6283  -27.3295   20.6514 H   0  0  0  0  0  0
  -17.3900  -26.6492   21.4010 H   0  0  0  0  0  0
  -18.0184  -26.0309   22.9086 H   0  0  0  0  0  0
  -19.7735  -30.6845   24.2893 H   0  0  0  0  0  0
  -17.4647  -31.5762   24.6040 H   0  0  0  0  0  0
  -15.5143  -30.2920   23.7690 H   0  0  0  0  0  0
  -15.8353  -28.1055   22.6698 H   0  0  0  0  0  0
  -24.5881  -30.7130   25.7798 H   0  0  0  0  0  0
  -24.9028  -32.2892   26.4968 H   0  0  0  0  0  0
  -25.8072  -30.8815   27.0220 H   0  0  0  0  0  0
  -26.2930  -29.6777   24.1199 H   0  0  0  0  0  0
  -27.4184  -29.7259   25.4565 H   0  0  0  0  0  0
  -27.8739  -30.4379   23.9271 H   0  0  0  0  0  0
  -27.2654  -33.3558   26.2204 H   0  0  0  0  0  0
  -28.3849  -32.7000   25.0321 H   0  0  0  0  0  0
  -28.0824  -31.8389   26.5375 H   0  0  0  0  0  0
  -28.2593  -38.0124   24.7505 H   0  0  0  0  0  0
  -28.1071  -36.2659   24.6258 H   0  0  0  0  0  0
  -27.2304  -37.1446   25.8874 H   0  0  0  0  0  0
  -20.9256  -29.8706   21.6721 H   0  0  0  0  0  0
  -26.0159  -38.2867   24.1467 H   0  0  0  0  0  0
  -25.9967  -18.4515   22.8554 H   0  0  0  0  0  0
  -30.9455  -18.2199   22.5562 H   0  0  0  0  0  0
  -27.5903  -21.7443   22.4087 H   0  0  0  0  0  0
  -26.1339  -20.8742   22.8152 H   0  0  0  0  0  0
  -30.8274  -15.8010   23.0723 H   0  0  0  0  0  0
  -29.3274  -14.9428   23.1491 H   0  0  0  0  0  0
  -25.7488  -21.5003   20.5484 H   0  0  0  0  0  0
  -26.1401  -19.8219   20.4906 H   0  0  0  0  0  0
  -27.4991  -20.5322   18.8160 H   0  0  0  0  0  0
  -28.6668  -20.6945   20.0450 H   0  0  0  0  0  0
  -26.8765  -22.8781   18.9015 H   0  0  0  0  0  0
  -28.5057  -22.5855   18.3667 H   0  0  0  0  0  0
  -29.5173  -23.7444   20.0802 H   0  0  0  0  0  0
  -28.2456  -23.4597   21.2464 H   0  0  0  0  0  0
  -26.7692  -24.8574   20.2171 H   0  0  0  0  0  0
  -27.6983  -25.0407   18.7381 H   0  0  0  0  0  0
  -30.2641  -16.2925   20.7129 H   0  0  0  0  0  0
  1 25  1  0  0  0
  1 30  2  0  0  0
  1 84  1  0  0  0
  2  3  1  0  0  0
  2 25  1  0  0  0
  2 87  1  0  0  0
  2 88  1  0  0  0
  3  4  1  0  0  0
  3 89  1  0  0  0
  3 90  1  0  0  0
  4  5  1  0  0  0
  4 91  1  0  0  0
  4 92  1  0  0  0
  5  6  1  0  0  0
  5 26  1  0  0  0
  5 93  1  0  0  0
  6 25  1  0  0  0
  6 94  1  0  0  0
  6 95  1  0  0  0
  7  8  2  0  0  0
  7 26  1  0  0  0
  7 29  1  0  0  0
  8  9  1  0  0  0
  8 22  1  0  0  0
  9 10  1  0  0  0
  9 27  2  0  0  0
 10 11  2  0  0  0
 10 15  1  0  0  0
 11 12  1  0  0  0
 11 96  1  0  0  0
 12 13  2  0  0  0
 12 97  1  0  0  0
 13 14  1  0  0  0
 13 31  1  0  0  0
 14 15  2  0  0  0
 14 98  1  0  0  0
 15 99  1  0  0  0
 16 17  2  0  0  0
 16 21  1  0  0  0
 16 31  1  0  0  0
 17 18  1  0  0  0
 17100  1  0  0  0
 18 19  2  0  0  0
 18101  1  0  0  0
 19 20  1  0  0  0
 19 24  1  0  0  0
 20 21  2  0  0  0
 20102  1  0  0  0
 21 23  1  0  0  0
 22 28  1  0  0  0
 22 32  2  0  0  0
 26 27  1  0  0  0
 28103  1  0  0  0
 28104  1  0  0  0
 29105  1  0  0  0
 29106  1  0  0  0
 33 34  1  0  0  0
 33 66  1  0  0  0
 33 70  2  0  0  0
 34 36  1  0  0  0
 34 59  1  0  0  0
 34107  1  0  0  0
 35 44  2  0  0  0
 35 45  1  0  0  0
 35 68  1  0  0  0
 36 56  1  0  0  0
 36108  1  0  0  0
 37 39  1  0  0  0
 37 47  1  0  0  0
 37 66  1  0  0  0
 37109  1  0  0  0
 38 43  2  0  0  0
 38 46  1  0  0  0
 38 47  1  0  0  0
 39 64  1  0  0  0
 39 67  2  0  0  0
 40 52  1  0  0  0
 40 53  2  0  0  0
 40 58  1  0  0  0
 41110  1  0  0  0
 41111  1  0  0  0
 41112  1  0  0  0
 41 48  1  0  0  0
 42 43  1  0  0  0
 42 66  1  0  0  0
 42113  1  0  0  0
 42114  1  0  0  0
 43 44  1  0  0  0
 44115  1  0  0  0
 45 46  2  0  0  0
 45116  1  0  0  0
 46117  1  0  0  0
 47118  1  0  0  0
 47119  1  0  0  0
 48 56  1  0  0  0
 48 65  1  0  0  0
 48120  1  0  0  0
 49 50  1  0  0  0
 49 53  1  0  0  0
 49 64  1  0  0  0
 49121  1  0  0  0
 50 51  1  0  0  0
 50122  1  0  0  0
 50123  1  0  0  0
 51 52  1  0  0  0
 51124  1  0  0  0
 51125  1  0  0  0
 52126  1  0  0  0
 52127  1  0  0  0
 53 54  1  0  0  0
 54 55  2  0  0  0
 54128  1  0  0  0
 55 57  1  0  0  0
 55129  1  0  0  0
 56 69  2  0  0  0
 57 58  2  0  0  0
 57130  1  0  0  0
 58131  1  0  0  0
 59 60  1  0  0  0
 59 61  1  0  0  0
 59 62  1  0  0  0
 60132  1  0  0  0
 60133  1  0  0  0
 60134  1  0  0  0
 61135  1  0  0  0
 61136  1  0  0  0
 61137  1  0  0  0
 62138  1  0  0  0
 62139  1  0  0  0
 62140  1  0  0  0
 63 65  1  0  0  0
 63141  1  0  0  0
 63142  1  0  0  0
 63143  1  0  0  0
 64144  1  0  0  0
 65145  1  0  0  0
 68 83  1  0  0  0
 71 73  2  0  0  0
 71 76  1  0  0  0
 71146  1  0  0  0
 72 74  1  0  0  0
 72 75  2  0  0  0
 72147  1  0  0  0
 73 75  1  0  0  0
 73 77  1  0  0  0
 74 76  2  0  0  0
 74 78  1  0  0  0
 75 85  1  0  0  0
 76 86  1  0  0  0
 77 79  1  0  0  0
 77148  1  0  0  0
 77149  1  0  0  0
 78 84  1  0  0  0
 78150  1  0  0  0
 78151  1  0  0  0
 79 80  1  0  0  0
 79152  1  0  0  0
 79153  1  0  0  0
 80 81  1  0  0  0
 80154  1  0  0  0
 80155  1  0  0  0
 81 82  1  0  0  0
 81156  1  0  0  0
 81157  1  0  0  0
 82 83  1  0  0  0
 82158  1  0  0  0
 82159  1  0  0  0
 83160  1  0  0  0
 83161  1  0  0  0
 84162  1  0  0  0
M  ISO  4   1 100  68 101  83 101  84 100
M  END
> <chiral flag>
0

> <version>
0

> <s_m_source_file>
/data/baiqing/PycharmProjects/Reinvent-master-3.2/result/LINK_invent/BTK/process_docking_weight1_custom_sum_contain_oxygen_bond_distance_aromatic_linkinvent_7_9_3/rearranged_h_0022.sdf

> <i_m_source_file_index>
5

> <r_mmod_Potential_Energy-OPLS-2005>
116.784561157227

> <r_mmod_Stretch_Energy-OPLS-2005>
47.9826126098633

> <r_mmod_Bend_Energy-OPLS-2005>
149.103851318359

> <r_mmod_Torsional_Energy-OPLS-2005>
292.294982910156

> <r_mmod_Improper_Torsional_Energy-OPLS-2005>
13.7645978927612

> <r_mmod_Van_der_Waal_Energy-OPLS-2005>
161.975296020508

> <r_mmod_Electrostatic_Energy-OPLS-2005>
-396.483062744141

> <r_mmod_Solvation_Energy-OPLS-2005>
-194.945129394531

> <b_mmod_Minimization_Converged-OPLS-2005>
0

> <r_mmod_RMS_Derivative-OPLS-2005>
12.2695055007935

$$$$
5
                    3D
 Structure written by MMmdl.
159167  0  0  1  0            999 V2000
  -30.6893  -14.5596   20.4991 C   0  0  0  0  0  0
  -30.4114  -12.3415   19.4608 C   0  0  0  0  0  0
  -29.4989  -12.4901   18.2262 C   0  0  0  0  0  0
  -28.0213  -12.3452   18.6362 C   0  0  0  0  0  0
  -27.6503  -13.2208   19.8642 C   0  0  2  0  0  0
  -28.6905  -13.0878   20.9996 C   0  0  0  0  0  0
  -25.2540  -13.8186   20.5693 C   0  0  0  0  0  0
  -24.1805  -13.0438   20.9180 C   0  0  0  0  0  0
  -24.6388  -11.6919   20.8742 C   0  0  0  0  0  0
  -23.9067  -10.4299   21.0409 C   0  0  0  0  0  0
  -24.3620   -9.4221   21.9193 C   0  0  0  0  0  0
  -23.6297   -8.2256   22.0769 C   0  0  0  0  0  0
  -22.4279   -8.0291   21.3552 C   0  0  0  0  0  0
  -21.9910   -9.0264   20.4658 C   0  0  0  0  0  0
  -22.7241  -10.2142   20.3064 C   0  0  0  0  0  0
  -21.6854   -6.0742   22.5284 C   0  0  0  0  0  0
  -21.4015   -6.5644   23.8218 C   0  0  0  0  0  0
  -21.3657   -5.6797   24.9179 C   0  0  0  0  0  0
  -21.6041   -4.3059   24.7229 C   0  0  0  0  0  0
  -21.8816   -3.8150   23.4352 C   0  0  0  0  0  0
  -21.9191   -4.6968   22.3407 C   0  0  0  0  0  0
  -22.7835  -13.5242   21.1834 C   0  0  0  0  0  0
  -22.1662   -4.2154   21.0985 F   0  0  0  0  0  0
  -21.5629   -3.4540   25.7744 F   0  0  0  0  0  0
  -30.0106  -13.3789   20.4298 N   0  0  0  0  0  0
  -26.2973  -12.9382   20.3339 N   0  0  0  0  0  0
  -25.9315  -11.6530   20.5772 N   0  0  0  0  0  0
  -22.0476  -12.8237   22.0401 N   0  0  0  0  0  0
  -25.4231  -15.1903   20.4121 N   0  0  0  0  0  0
  -31.8593  -14.6464   20.1212 O   0  0  0  0  0  0
  -21.6644   -6.8888   21.4245 O   0  0  0  0  0  0
  -22.3533  -14.5560   20.6700 O   0  0  0  0  0  0
  -24.6180  -31.8631   23.2039 C   0  0  0  0  0  0
  -25.9060  -32.4789   23.8353 C   0  0  1  0  0  0
  -27.2354  -27.3762   20.1096 C   0  0  0  0  0  0
  -25.5906  -33.8587   24.2295 N   0  0  0  0  0  0
  -23.4088  -30.4842   21.5446 C   0  0  2  0  0  0
  -24.8570  -28.9411   20.1089 C   0  0  0  0  0  0
  -22.7419  -29.4631   22.4944 C   0  0  0  0  0  0
  -18.0272  -28.1359   22.8503 C   0  0  0  0  0  0
  -24.1494  -36.7299   23.2642 C   0  0  0  0  0  0
  -25.9411  -30.8122   21.3633 C   0  0  0  0  0  0
  -26.0167  -29.4403   20.7120 C   0  0  0  0  0  0
  -27.2039  -28.6643   20.7089 C   0  0  0  0  0  0
  -26.0538  -26.9041   19.4951 C   0  0  0  0  0  0
  -24.8744  -27.6763   19.4942 C   0  0  0  0  0  0
  -23.6197  -29.8131   20.1598 C   0  0  0  0  0  0
  -25.4117  -36.3090   24.0334 C   0  0  1  0  0  0
  -20.5869  -28.3671   23.1294 C   0  0  2  0  0  0
  -20.6771  -26.9408   22.5381 C   0  0  0  0  0  0
  -19.5730  -26.6387   21.5204 C   0  0  0  0  0  0
  -18.1927  -26.7892   22.1659 C   0  0  0  0  0  0
  -19.1525  -28.8830   23.2897 C   0  0  0  0  0  0
  -18.9447  -30.1442   23.8891 C   0  0  0  0  0  0
  -17.6441  -30.6574   24.0541 C   0  0  0  0  0  0
  -25.9038  -34.9457   23.5116 C   0  0  0  0  0  0
  -16.5336  -29.9069   23.6316 C   0  0  0  0  0  0
  -16.7261  -28.6482   23.0348 C   0  0  0  0  0  0
  -26.4486  -31.6566   25.0686 C   0  0  0  0  0  0
  -25.3754  -31.3670   26.1435 C   0  0  0  0  0  0
  -27.0319  -30.3006   24.6072 C   0  0  0  0  0  0
  -27.6054  -32.4289   25.7462 C   0  0  0  0  0  0
  -27.5580  -37.1808   24.8467 C   0  0  0  0  0  0
  -21.4139  -29.3045   22.3695 N   0  0  0  0  0  0
  -26.4297  -37.3780   23.9403 N   0  0  0  0  0  0
  -24.6743  -31.0695   22.0954 N   0  0  0  0  0  0
  -23.4168  -28.8168   23.2996 O   0  0  0  0  0  0
  -28.4048  -26.6271   20.1727 O   0  0  0  0  0  0
  -26.5598  -34.8922   22.4677 O   0  0  0  0  0  0
  -23.5370  -32.1403   23.7423 O   0  0  0  0  0  0
  -30.4274  -19.5311   20.0040 C   0  0  0  0  0  0
  -29.8688  -18.4184   20.6818 C   0  0  0  0  0  0
  -28.5293  -20.0516   21.9826 C   0  0  0  0  0  0
  -29.1804  -21.1605   21.3591 C   0  0  0  0  0  0
  -30.1129  -20.8702   20.3319 C   0  0  0  0  0  0
  -28.8744  -18.6966   21.6582 C   0  0  0  0  0  0
  -28.7052  -23.5930   21.5786 C   0  0  0  0  0  0
  -27.5098  -20.3234   23.0866 C   0  0  0  0  0  0
  -28.8378  -24.7424   22.5576 C   0  0  0  0  0  0
  -30.5127  -17.0346   20.3484 C   0  0  0  0  0  0
  -28.0049  -24.0153   20.2722 C   0  0  0  0  0  0
  -28.5406  -25.3141   19.5551 C   0  0  0  0  0  0
  -29.1262  -22.4393   21.9821 N   0  0  0  0  0  0
  -29.9807  -15.6964   20.7484 N   0  0  0  0  0  0
  -30.9930  -22.1310   19.5391 Cl  0  0  0  0  0  0
  -28.1324  -17.3930   22.5244 Cl  0  0  0  0  0  0
  -31.4591  -12.4160   19.1655 H   0  0  0  0  0  0
  -30.3006  -11.3517   19.9059 H   0  0  0  0  0  0
  -29.7563  -11.7408   17.4759 H   0  0  0  0  0  0
  -29.6586  -13.4626   17.7577 H   0  0  0  0  0  0
  -27.8491  -11.2927   18.8660 H   0  0  0  0  0  0
  -27.3704  -12.5812   17.7944 H   0  0  0  0  0  0
  -27.6690  -14.2553   19.5212 H   0  0  0  0  0  0
  -28.6804  -12.0807   21.4197 H   0  0  0  0  0  0
  -28.4520  -13.7626   21.8239 H   0  0  0  0  0  0
  -25.2764   -9.5695   22.4770 H   0  0  0  0  0  0
  -24.0004   -7.4645   22.7490 H   0  0  0  0  0  0
  -21.0842   -8.8779   19.8968 H   0  0  0  0  0  0
  -22.3700  -10.9679   19.6173 H   0  0  0  0  0  0
  -21.2009   -7.6151   23.9718 H   0  0  0  0  0  0
  -21.1482   -6.0531   25.9081 H   0  0  0  0  0  0
  -22.0593   -2.7613   23.2847 H   0  0  0  0  0  0
  -22.4081  -11.9894   22.4784 H   0  0  0  0  0  0
  -21.1109  -13.1284   22.2623 H   0  0  0  0  0  0
  -24.6583  -15.8429   20.5434 H   0  0  0  0  0  0
  -26.2805  -15.6401   20.1181 H   0  0  0  0  0  0
  -26.7115  -32.5503   23.1095 H   0  0  0  0  0  0
  -25.0083  -33.9745   25.0457 H   0  0  0  0  0  0
  -22.7003  -31.3021   21.4022 H   0  0  0  0  0  0
  -23.3747  -35.9641   23.3325 H   0  0  0  0  0  0
  -24.3579  -36.8894   22.2049 H   0  0  0  0  0  0
  -23.7260  -37.6517   23.6644 H   0  0  0  0  0  0
  -26.0560  -31.5755   20.5926 H   0  0  0  0  0  0
  -26.8285  -30.8707   21.9815 H   0  0  0  0  0  0
  -28.0975  -29.0447   21.1837 H   0  0  0  0  0  0
  -26.0214  -25.9333   19.0249 H   0  0  0  0  0  0
  -23.9820  -27.2872   19.0240 H   0  0  0  0  0  0
  -23.7300  -30.5872   19.3996 H   0  0  0  0  0  0
  -22.7422  -29.2352   19.8631 H   0  0  0  0  0  0
  -25.1299  -36.1954   25.0827 H   0  0  0  0  0  0
  -20.9978  -28.3229   24.1408 H   0  0  0  0  0  0
  -20.5725  -26.2258   23.3561 H   0  0  0  0  0  0
  -21.6623  -26.7474   22.1114 H   0  0  0  0  0  0
  -19.6900  -25.6311   21.1203 H   0  0  0  0  0  0
  -19.6632  -27.3234   20.6759 H   0  0  0  0  0  0
  -17.4170  -26.6597   21.4092 H   0  0  0  0  0  0
  -18.0385  -26.0042   22.9082 H   0  0  0  0  0  0
  -19.7923  -30.7269   24.2242 H   0  0  0  0  0  0
  -17.4992  -31.6263   24.5125 H   0  0  0  0  0  0
  -15.5331  -30.2965   23.7625 H   0  0  0  0  0  0
  -15.8667  -28.0799   22.7052 H   0  0  0  0  0  0
  -24.5877  -30.7089   25.7746 H   0  0  0  0  0  0
  -24.9018  -32.2840   26.4956 H   0  0  0  0  0  0
  -25.8109  -30.8752   27.0148 H   0  0  0  0  0  0
  -26.2864  -29.6761   24.1133 H   0  0  0  0  0  0
  -27.4105  -29.7243   25.4526 H   0  0  0  0  0  0
  -27.8697  -30.4320   23.9218 H   0  0  0  0  0  0
  -27.2648  -33.3544   26.2122 H   0  0  0  0  0  0
  -28.3837  -32.6926   25.0282 H   0  0  0  0  0  0
  -28.0767  -31.8368   26.5322 H   0  0  0  0  0  0
  -28.2613  -38.0090   24.7491 H   0  0  0  0  0  0
  -28.1061  -36.2619   24.6325 H   0  0  0  0  0  0
  -27.2294  -37.1499   25.8872 H   0  0  0  0  0  0
  -20.9295  -29.8749   21.6907 H   0  0  0  0  0  0
  -26.0182  -38.2860   24.1394 H   0  0  0  0  0  0
  -31.1915  -19.3626   19.2588 H   0  0  0  0  0  0
  -27.0090  -21.2824   22.9492 H   0  0  0  0  0  0
  -28.0058  -20.3399   24.0566 H   0  0  0  0  0  0
  -26.7212  -19.5729   23.1127 H   0  0  0  0  0  0
  -27.9258  -25.3399   22.5751 H   0  0  0  0  0  0
  -29.6699  -25.3883   22.2764 H   0  0  0  0  0  0
  -29.0162  -24.3766   23.5694 H   0  0  0  0  0  0
  -31.5289  -17.1063   20.7409 H   0  0  0  0  0  0
  -30.6244  -17.0023   19.2620 H   0  0  0  0  0  0
  -26.9419  -24.1317   20.4825 H   0  0  0  0  0  0
  -28.0752  -23.1845   19.5712 H   0  0  0  0  0  0
  -28.1315  -25.3586   18.5453 H   0  0  0  0  0  0
  -29.6105  -25.1723   19.3985 H   0  0  0  0  0  0
  -29.0192  -15.6263   21.0468 H   0  0  0  0  0  0
  1 25  1  0  0  0
  1 30  2  0  0  0
  1 84  1  0  0  0
  2  3  1  0  0  0
  2 25  1  0  0  0
  2 87  1  0  0  0
  2 88  1  0  0  0
  3  4  1  0  0  0
  3 89  1  0  0  0
  3 90  1  0  0  0
  4  5  1  0  0  0
  4 91  1  0  0  0
  4 92  1  0  0  0
  5  6  1  0  0  0
  5 26  1  0  0  0
  5 93  1  0  0  0
  6 25  1  0  0  0
  6 94  1  0  0  0
  6 95  1  0  0  0
  7  8  2  0  0  0
  7 26  1  0  0  0
  7 29  1  0  0  0
  8  9  1  0  0  0
  8 22  1  0  0  0
  9 10  1  0  0  0
  9 27  2  0  0  0
 10 11  2  0  0  0
 10 15  1  0  0  0
 11 12  1  0  0  0
 11 96  1  0  0  0
 12 13  2  0  0  0
 12 97  1  0  0  0
 13 14  1  0  0  0
 13 31  1  0  0  0
 14 15  2  0  0  0
 14 98  1  0  0  0
 15 99  1  0  0  0
 16 17  2  0  0  0
 16 21  1  0  0  0
 16 31  1  0  0  0
 17 18  1  0  0  0
 17100  1  0  0  0
 18 19  2  0  0  0
 18101  1  0  0  0
 19 20  1  0  0  0
 19 24  1  0  0  0
 20 21  2  0  0  0
 20102  1  0  0  0
 21 23  1  0  0  0
 22 28  1  0  0  0
 22 32  2  0  0  0
 26 27  1  0  0  0
 28103  1  0  0  0
 28104  1  0  0  0
 29105  1  0  0  0
 29106  1  0  0  0
 33 34  1  0  0  0
 33 66  1  0  0  0
 33 70  2  0  0  0
 34 36  1  0  0  0
 34 59  1  0  0  0
 34107  1  0  0  0
 35 44  2  0  0  0
 35 45  1  0  0  0
 35 68  1  0  0  0
 36 56  1  0  0  0
 36108  1  0  0  0
 37 39  1  0  0  0
 37 47  1  0  0  0
 37 66  1  0  0  0
 37109  1  0  0  0
 38 43  2  0  0  0
 38 46  1  0  0  0
 38 47  1  0  0  0
 39 64  1  0  0  0
 39 67  2  0  0  0
 40 52  1  0  0  0
 40 53  2  0  0  0
 40 58  1  0  0  0
 41110  1  0  0  0
 41111  1  0  0  0
 41112  1  0  0  0
 41 48  1  0  0  0
 42 43  1  0  0  0
 42 66  1  0  0  0
 42113  1  0  0  0
 42114  1  0  0  0
 43 44  1  0  0  0
 44115  1  0  0  0
 45 46  2  0  0  0
 45116  1  0  0  0
 46117  1  0  0  0
 47118  1  0  0  0
 47119  1  0  0  0
 48 56  1  0  0  0
 48 65  1  0  0  0
 48120  1  0  0  0
 49 50  1  0  0  0
 49 53  1  0  0  0
 49 64  1  0  0  0
 49121  1  0  0  0
 50 51  1  0  0  0
 50122  1  0  0  0
 50123  1  0  0  0
 51 52  1  0  0  0
 51124  1  0  0  0
 51125  1  0  0  0
 52126  1  0  0  0
 52127  1  0  0  0
 53 54  1  0  0  0
 54 55  2  0  0  0
 54128  1  0  0  0
 55 57  1  0  0  0
 55129  1  0  0  0
 56 69  2  0  0  0
 57 58  2  0  0  0
 57130  1  0  0  0
 58131  1  0  0  0
 59 60  1  0  0  0
 59 61  1  0  0  0
 59 62  1  0  0  0
 60132  1  0  0  0
 60133  1  0  0  0
 60134  1  0  0  0
 61135  1  0  0  0
 61136  1  0  0  0
 61137  1  0  0  0
 62138  1  0  0  0
 62139  1  0  0  0
 62140  1  0  0  0
 63 65  1  0  0  0
 63141  1  0  0  0
 63142  1  0  0  0
 63143  1  0  0  0
 64144  1  0  0  0
 65145  1  0  0  0
 68 82  1  0  0  0
 71 72  2  0  0  0
 71 75  1  0  0  0
 71146  1  0  0  0
 72 76  1  0  0  0
 72 80  1  0  0  0
 73 74  1  0  0  0
 73 76  2  0  0  0
 73 78  1  0  0  0
 74 75  2  0  0  0
 74 83  1  0  0  0
 75 85  1  0  0  0
 76 86  1  0  0  0
 77 79  1  0  0  0
 77 81  1  0  0  0
 77 83  2  0  0  0
 78147  1  0  0  0
 78148  1  0  0  0
 78149  1  0  0  0
 79150  1  0  0  0
 79151  1  0  0  0
 79152  1  0  0  0
 80 84  1  0  0  0
 80153  1  0  0  0
 80154  1  0  0  0
 81 82  1  0  0  0
 81155  1  0  0  0
 81156  1  0  0  0
 82157  1  0  0  0
 82158  1  0  0  0
 84159  1  0  0  0
M  ISO  4   1 100  68 101  82 101  84 100
M  END
> <chiral flag>
0

> <version>
0

> <s_m_source_file>
/data/baiqing/PycharmProjects/Reinvent-master-3.2/result/LINK_invent/BTK/process_docking_weight1_custom_sum_contain_oxygen_bond_distance_aromatic_linkinvent_7_9_3/rearranged_h_0022.sdf

> <i_m_source_file_index>
6

> <r_mmod_Potential_Energy-OPLS-2005>
29.7262878417969

> <r_mmod_Stretch_Energy-OPLS-2005>
58.8661766052246

> <r_mmod_Bend_Energy-OPLS-2005>
185.368453979492

> <r_mmod_Torsional_Energy-OPLS-2005>
225.571807861328

> <r_mmod_Improper_Torsional_Energy-OPLS-2005>
9.7716064453125

> <r_mmod_Van_der_Waal_Energy-OPLS-2005>
147.56103515625

> <r_mmod_Electrostatic_Energy-OPLS-2005>
-429.364379882812

> <r_mmod_Solvation_Energy-OPLS-2005>
-197.263122558594

> <b_mmod_Minimization_Converged-OPLS-2005>
0

> <r_mmod_RMS_Derivative-OPLS-2005>
1.64897894859314

$$$$
6
                    3D
 Structure written by MMmdl.
156164  0  0  1  0            999 V2000
  -30.6269  -14.6271   20.4826 C   0  0  0  0  0  0
  -30.4378  -12.3812   19.4500 C   0  0  0  0  0  0
  -29.5080  -12.5031   18.2221 C   0  0  0  0  0  0
  -28.0303  -12.3448   18.6340 C   0  0  0  0  0  0
  -27.6540  -13.2160   19.8622 C   0  0  2  0  0  0
  -28.6990  -13.0701   20.9911 C   0  0  0  0  0  0
  -25.2564  -13.8168   20.5683 C   0  0  0  0  0  0
  -24.1829  -13.0438   20.9190 C   0  0  0  0  0  0
  -24.6396  -11.6910   20.8735 C   0  0  0  0  0  0
  -23.9062  -10.4294   21.0404 C   0  0  0  0  0  0
  -24.3615   -9.4212   21.9184 C   0  0  0  0  0  0
  -23.6290   -8.2247   22.0755 C   0  0  0  0  0  0
  -22.4270   -8.0283   21.3548 C   0  0  0  0  0  0
  -21.9905   -9.0257   20.4650 C   0  0  0  0  0  0
  -22.7233  -10.2136   20.3057 C   0  0  0  0  0  0
  -21.6853   -6.0734   22.5282 C   0  0  0  0  0  0
  -21.4013   -6.5637   23.8213 C   0  0  0  0  0  0
  -21.3661   -5.6790   24.9176 C   0  0  0  0  0  0
  -21.6043   -4.3052   24.7225 C   0  0  0  0  0  0
  -21.8818   -3.8146   23.4348 C   0  0  0  0  0  0
  -21.9193   -4.6962   22.3404 C   0  0  0  0  0  0
  -22.7852  -13.5240   21.1856 C   0  0  0  0  0  0
  -22.1662   -4.2147   21.0981 F   0  0  0  0  0  0
  -21.5630   -3.4536   25.7740 F   0  0  0  0  0  0
  -30.0164  -13.4031   20.4267 N   0  0  0  0  0  0
  -26.2993  -12.9351   20.3312 N   0  0  0  0  0  0
  -25.9321  -11.6508   20.5743 N   0  0  0  0  0  0
  -22.0490  -12.8233   22.0413 N   0  0  0  0  0  0
  -25.4273  -15.1889   20.4102 N   0  0  0  0  0  0
  -31.8066  -14.7666   20.1536 O   0  0  0  0  0  0
  -21.6640   -6.8878   21.4243 O   0  0  0  0  0  0
  -22.3539  -14.5548   20.6705 O   0  0  0  0  0  0
  -24.6252  -31.8617   23.2041 C   0  0  0  0  0  0
  -25.9104  -32.4792   23.8366 C   0  0  1  0  0  0
  -27.2251  -27.3370   20.1137 C   0  0  0  0  0  0
  -25.5922  -33.8591   24.2294 N   0  0  0  0  0  0
  -23.4173  -30.4864   21.5467 C   0  0  2  0  0  0
  -24.8623  -28.9437   20.1127 C   0  0  0  0  0  0
  -22.7469  -29.4635   22.4945 C   0  0  0  0  0  0
  -18.0286  -28.1388   22.8485 C   0  0  0  0  0  0
  -24.1485  -36.7299   23.2639 C   0  0  0  0  0  0
  -25.9571  -30.7992   21.3708 C   0  0  0  0  0  0
  -26.0316  -29.4282   20.7126 C   0  0  0  0  0  0
  -27.2167  -28.6379   20.7000 C   0  0  0  0  0  0
  -26.0299  -26.8980   19.4981 C   0  0  0  0  0  0
  -24.8626  -27.6830   19.4974 C   0  0  0  0  0  0
  -23.6307  -29.8232   20.1612 C   0  0  0  0  0  0
  -25.4110  -36.3092   24.0332 C   0  0  1  0  0  0
  -20.5885  -28.3688   23.1287 C   0  0  2  0  0  0
  -20.6776  -26.9414   22.5408 C   0  0  0  0  0  0
  -19.5750  -26.6388   21.5212 C   0  0  0  0  0  0
  -18.1931  -26.7931   22.1625 C   0  0  0  0  0  0
  -19.1538  -28.8854   23.2883 C   0  0  0  0  0  0
  -18.9461  -30.1456   23.8903 C   0  0  0  0  0  0
  -17.6461  -30.6589   24.0566 C   0  0  0  0  0  0
  -25.9047  -34.9460   23.5113 C   0  0  0  0  0  0
  -16.5353  -29.9090   23.6328 C   0  0  0  0  0  0
  -16.7274  -28.6508   23.0349 C   0  0  0  0  0  0
  -26.4493  -31.6598   25.0730 C   0  0  0  0  0  0
  -25.3731  -31.3726   26.1460 C   0  0  0  0  0  0
  -27.0335  -30.3028   24.6168 C   0  0  0  0  0  0
  -27.6061  -32.4327   25.7496 C   0  0  0  0  0  0
  -27.5579  -37.1805   24.8467 C   0  0  0  0  0  0
  -21.4185  -29.3044   22.3684 N   0  0  0  0  0  0
  -26.4291  -37.3783   23.9410 N   0  0  0  0  0  0
  -24.6855  -31.0650   22.0978 N   0  0  0  0  0  0
  -23.4202  -28.8174   23.3017 O   0  0  0  0  0  0
  -28.3565  -26.5118   20.1470 O   0  0  0  0  0  0
  -26.5617  -34.8924   22.4680 O   0  0  0  0  0  0
  -23.5420  -32.1405   23.7380 O   0  0  0  0  0  0
  -28.8722  -19.3163   21.2119 C   0  0  0  0  0  0
  -29.4720  -20.0101   20.1338 C   0  0  0  0  0  0
  -30.3260  -19.2330   19.2877 C   0  0  0  0  0  0
  -29.8486  -17.1231   20.5467 C   0  0  0  0  0  0
  -29.0619  -17.9217   21.4147 C   0  0  0  0  0  0
  -30.4692  -17.8095   19.4550 C   0  0  0  0  0  0
  -31.0618  -19.9294   18.1452 C   0  0  0  0  0  0
  -29.0657  -21.5012   19.8096 C   0  0  0  0  0  0
  -29.3386  -22.6420   20.8602 C   0  0  0  0  0  0
  -29.4381  -24.1620   20.3840 C   0  0  0  0  0  0
  -28.1488  -25.0511   20.1949 C   0  0  0  0  0  0
  -29.8107  -15.6775   20.7926 N   0  0  0  0  0  0
  -28.4198  -17.3193   22.4457 F   0  0  0  0  0  0
  -31.2990  -16.9218   18.2183 Cl  0  0  0  0  0  0
  -31.4796  -12.5032   19.1481 H   0  0  0  0  0  0
  -30.3678  -11.3856   19.8908 H   0  0  0  0  0  0
  -29.7699  -11.7524   17.4752 H   0  0  0  0  0  0
  -29.6542  -13.4729   17.7436 H   0  0  0  0  0  0
  -27.8642  -11.2919   18.8639 H   0  0  0  0  0  0
  -27.3770  -12.5773   17.7924 H   0  0  0  0  0  0
  -27.6725  -14.2508   19.5204 H   0  0  0  0  0  0
  -28.7055  -12.0505   21.3788 H   0  0  0  0  0  0
  -28.4490  -13.7076   21.8406 H   0  0  0  0  0  0
  -25.2762   -9.5683   22.4755 H   0  0  0  0  0  0
  -24.0002   -7.4634   22.7466 H   0  0  0  0  0  0
  -21.0839   -8.8774   19.8955 H   0  0  0  0  0  0
  -22.3695  -10.9672   19.6162 H   0  0  0  0  0  0
  -21.2004   -7.6145   23.9714 H   0  0  0  0  0  0
  -21.1484   -6.0522   25.9078 H   0  0  0  0  0  0
  -22.0596   -2.7607   23.2849 H   0  0  0  0  0  0
  -22.4103  -11.9898   22.4812 H   0  0  0  0  0  0
  -21.1106  -13.1257   22.2612 H   0  0  0  0  0  0
  -24.6608  -15.8425   20.5276 H   0  0  0  0  0  0
  -26.2780  -15.6327   20.0898 H   0  0  0  0  0  0
  -26.7175  -32.5467   23.1121 H   0  0  0  0  0  0
  -25.0070  -33.9740   25.0438 H   0  0  0  0  0  0
  -22.7102  -31.3064   21.4060 H   0  0  0  0  0  0
  -23.3748  -35.9632   23.3308 H   0  0  0  0  0  0
  -24.3576  -36.8913   22.2052 H   0  0  0  0  0  0
  -23.7239  -37.6503   23.6655 H   0  0  0  0  0  0
  -26.0857  -31.5639   20.6035 H   0  0  0  0  0  0
  -26.8390  -30.8473   21.9981 H   0  0  0  0  0  0
  -28.1159  -29.0088   21.1718 H   0  0  0  0  0  0
  -25.9688  -25.9377   19.0105 H   0  0  0  0  0  0
  -23.9663  -27.3051   19.0245 H   0  0  0  0  0  0
  -23.7514  -30.6016   19.4067 H   0  0  0  0  0  0
  -22.7502  -29.2544   19.8569 H   0  0  0  0  0  0
  -25.1287  -36.1951   25.0826 H   0  0  0  0  0  0
  -20.9977  -28.3261   24.1408 H   0  0  0  0  0  0
  -20.5681  -26.2299   23.3605 H   0  0  0  0  0  0
  -21.6646  -26.7447   22.1202 H   0  0  0  0  0  0
  -19.6912  -25.6298   21.1243 H   0  0  0  0  0  0
  -19.6688  -27.3197   20.6740 H   0  0  0  0  0  0
  -17.4198  -26.6674   21.4032 H   0  0  0  0  0  0
  -18.0334  -26.0078   22.9026 H   0  0  0  0  0  0
  -19.7937  -30.7270   24.2279 H   0  0  0  0  0  0
  -17.5016  -31.6270   24.5164 H   0  0  0  0  0  0
  -15.5354  -30.2995   23.7648 H   0  0  0  0  0  0
  -15.8674  -28.0830   22.7059 H   0  0  0  0  0  0
  -24.5902  -30.7082   25.7785 H   0  0  0  0  0  0
  -24.8927  -32.2888   26.4904 H   0  0  0  0  0  0
  -25.8059  -30.8889   27.0225 H   0  0  0  0  0  0
  -26.2904  -29.6781   24.1198 H   0  0  0  0  0  0
  -27.4053  -29.7284   25.4663 H   0  0  0  0  0  0
  -27.8764  -30.4331   23.9375 H   0  0  0  0  0  0
  -27.2680  -33.3625   26.2086 H   0  0  0  0  0  0
  -28.3862  -32.6892   25.0315 H   0  0  0  0  0  0
  -28.0740  -31.8444   26.5401 H   0  0  0  0  0  0
  -28.2602  -38.0096   24.7509 H   0  0  0  0  0  0
  -28.1069  -36.2630   24.6297 H   0  0  0  0  0  0
  -27.2300  -37.1461   25.8870 H   0  0  0  0  0  0
  -20.9360  -29.8775   21.6903 H   0  0  0  0  0  0
  -26.0177  -38.2861   24.1407 H   0  0  0  0  0  0
  -28.2096  -19.8477   21.8793 H   0  0  0  0  0  0
  -31.4278  -20.9075   18.4564 H   0  0  0  0  0  0
  -30.4029  -20.0584   17.2865 H   0  0  0  0  0  0
  -31.9495  -19.3914   17.8167 H   0  0  0  0  0  0
  -27.9935  -21.4904   19.6105 H   0  0  0  0  0  0
  -29.4942  -21.8156   18.8608 H   0  0  0  0  0  0
  -30.3123  -22.4109   21.2943 H   0  0  0  0  0  0
  -28.6361  -22.5556   21.6899 H   0  0  0  0  0  0
  -30.0407  -24.2145   19.4765 H   0  0  0  0  0  0
  -30.0351  -24.6727   21.1403 H   0  0  0  0  0  0
  -27.4570  -24.8375   21.0112 H   0  0  0  0  0  0
  -27.6692  -24.7112   19.2777 H   0  0  0  0  0  0
  -28.9577  -15.3862   21.2442 H   0  0  0  0  0  0
  1 25  1  0  0  0
  1 30  2  0  0  0
  1 82  1  0  0  0
  2  3  1  0  0  0
  2 25  1  0  0  0
  2 85  1  0  0  0
  2 86  1  0  0  0
  3  4  1  0  0  0
  3 87  1  0  0  0
  3 88  1  0  0  0
  4  5  1  0  0  0
  4 89  1  0  0  0
  4 90  1  0  0  0
  5  6  1  0  0  0
  5 26  1  0  0  0
  5 91  1  0  0  0
  6 25  1  0  0  0
  6 92  1  0  0  0
  6 93  1  0  0  0
  7  8  2  0  0  0
  7 26  1  0  0  0
  7 29  1  0  0  0
  8  9  1  0  0  0
  8 22  1  0  0  0
  9 10  1  0  0  0
  9 27  2  0  0  0
 10 11  2  0  0  0
 10 15  1  0  0  0
 11 12  1  0  0  0
 11 94  1  0  0  0
 12 13  2  0  0  0
 12 95  1  0  0  0
 13 14  1  0  0  0
 13 31  1  0  0  0
 14 15  2  0  0  0
 14 96  1  0  0  0
 15 97  1  0  0  0
 16 17  2  0  0  0
 16 21  1  0  0  0
 16 31  1  0  0  0
 17 18  1  0  0  0
 17 98  1  0  0  0
 18 19  2  0  0  0
 18 99  1  0  0  0
 19 20  1  0  0  0
 19 24  1  0  0  0
 20 21  2  0  0  0
 20100  1  0  0  0
 21 23  1  0  0  0
 22 28  1  0  0  0
 22 32  2  0  0  0
 26 27  1  0  0  0
 28101  1  0  0  0
 28102  1  0  0  0
 29103  1  0  0  0
 29104  1  0  0  0
 33 34  1  0  0  0
 33 66  1  0  0  0
 33 70  2  0  0  0
 34 36  1  0  0  0
 34 59  1  0  0  0
 34105  1  0  0  0
 35 44  2  0  0  0
 35 45  1  0  0  0
 35 68  1  0  0  0
 36 56  1  0  0  0
 36106  1  0  0  0
 37 39  1  0  0  0
 37 47  1  0  0  0
 37 66  1  0  0  0
 37107  1  0  0  0
 38 43  2  0  0  0
 38 46  1  0  0  0
 38 47  1  0  0  0
 39 64  1  0  0  0
 39 67  2  0  0  0
 40 52  1  0  0  0
 40 53  2  0  0  0
 40 58  1  0  0  0
 41108  1  0  0  0
 41109  1  0  0  0
 41110  1  0  0  0
 41 48  1  0  0  0
 42 43  1  0  0  0
 42 66  1  0  0  0
 42111  1  0  0  0
 42112  1  0  0  0
 43 44  1  0  0  0
 44113  1  0  0  0
 45 46  2  0  0  0
 45114  1  0  0  0
 46115  1  0  0  0
 47116  1  0  0  0
 47117  1  0  0  0
 48 56  1  0  0  0
 48 65  1  0  0  0
 48118  1  0  0  0
 49 50  1  0  0  0
 49 53  1  0  0  0
 49 64  1  0  0  0
 49119  1  0  0  0
 50 51  1  0  0  0
 50120  1  0  0  0
 50121  1  0  0  0
 51 52  1  0  0  0
 51122  1  0  0  0
 51123  1  0  0  0
 52124  1  0  0  0
 52125  1  0  0  0
 53 54  1  0  0  0
 54 55  2  0  0  0
 54126  1  0  0  0
 55 57  1  0  0  0
 55127  1  0  0  0
 56 69  2  0  0  0
 57 58  2  0  0  0
 57128  1  0  0  0
 58129  1  0  0  0
 59 60  1  0  0  0
 59 61  1  0  0  0
 59 62  1  0  0  0
 60130  1  0  0  0
 60131  1  0  0  0
 60132  1  0  0  0
 61133  1  0  0  0
 61134  1  0  0  0
 61135  1  0  0  0
 62136  1  0  0  0
 62137  1  0  0  0
 62138  1  0  0  0
 63 65  1  0  0  0
 63139  1  0  0  0
 63140  1  0  0  0
 63141  1  0  0  0
 64142  1  0  0  0
 65143  1  0  0  0
 68 81  1  0  0  0
 71 72  2  0  0  0
 71 75  1  0  0  0
 71144  1  0  0  0
 72 73  1  0  0  0
 72 78  1  0  0  0
 73 76  2  0  0  0
 73 77  1  0  0  0
 74 75  2  0  0  0
 74 76  1  0  0  0
 74 82  1  0  0  0
 75 83  1  0  0  0
 76 84  1  0  0  0
 77145  1  0  0  0
 77146  1  0  0  0
 77147  1  0  0  0
 78 79  1  0  0  0
 78148  1  0  0  0
 78149  1  0  0  0
 79 80  1  0  0  0
 79150  1  0  0  0
 79151  1  0  0  0
 80 81  1  0  0  0
 80152  1  0  0  0
 80153  1  0  0  0
 81154  1  0  0  0
 81155  1  0  0  0
 82156  1  0  0  0
M  ISO  4   1 100  68 101  81 101  82 100
M  END
> <chiral flag>
0

> <version>
0

> <s_m_source_file>
/data/baiqing/PycharmProjects/Reinvent-master-3.2/result/LINK_invent/BTK/process_docking_weight1_custom_sum_contain_oxygen_bond_distance_aromatic_linkinvent_7_9_3/rearranged_h_0022.sdf

> <i_m_source_file_index>
7

> <r_mmod_Potential_Energy-OPLS-2005>
36.2724456787109

> <r_mmod_Stretch_Energy-OPLS-2005>
75.4924697875977

> <r_mmod_Bend_Energy-OPLS-2005>
143.969482421875

> <r_mmod_Torsional_Energy-OPLS-2005>
237.889129638672

> <r_mmod_Improper_Torsional_Energy-OPLS-2005>
4.69675254821777

> <r_mmod_Van_der_Waal_Energy-OPLS-2005>
152.95964050293

> <r_mmod_Electrostatic_Energy-OPLS-2005>
-421.392486572266

> <r_mmod_Solvation_Energy-OPLS-2005>
-200.32568359375

> <b_mmod_Minimization_Converged-OPLS-2005>
0

> <r_mmod_RMS_Derivative-OPLS-2005>
0.616212546825409

$$$$
7
                    3D
 Structure written by MMmdl.
151159  0  0  1  0            999 V2000
  -30.4254  -15.1879   20.3765 C   0  0  0  0  0  0
  -30.4495  -12.7520   19.5161 C   0  0  0  0  0  0
  -29.5387  -12.5761   18.2751 C   0  0  0  0  0  0
  -28.0817  -12.3078   18.6984 C   0  0  0  0  0  0
  -27.6180  -13.2643   19.8259 C   0  0  2  0  0  0
  -28.6547  -13.3843   20.9619 C   0  0  0  0  0  0
  -25.2414  -13.8204   20.5729 C   0  0  0  0  0  0
  -24.1747  -13.0414   20.9226 C   0  0  0  0  0  0
  -24.6393  -11.6913   20.8739 C   0  0  0  0  0  0
  -23.9087  -10.4282   21.0401 C   0  0  0  0  0  0
  -24.3632   -9.4201   21.9186 C   0  0  0  0  0  0
  -23.6287   -8.2241   22.0765 C   0  0  0  0  0  0
  -22.4266   -8.0281   21.3557 C   0  0  0  0  0  0
  -21.9911   -9.0260   20.4654 C   0  0  0  0  0  0
  -22.7256  -10.2127   20.3051 C   0  0  0  0  0  0
  -21.6847   -6.0733   22.5282 C   0  0  0  0  0  0
  -21.4025   -6.5638   23.8216 C   0  0  0  0  0  0
  -21.3663   -5.6787   24.9177 C   0  0  0  0  0  0
  -21.6041   -4.3049   24.7227 C   0  0  0  0  0  0
  -21.8815   -3.8146   23.4346 C   0  0  0  0  0  0
  -21.9191   -4.6962   22.3406 C   0  0  0  0  0  0
  -22.7772  -13.5183   21.1874 C   0  0  0  0  0  0
  -22.1656   -4.2153   21.0982 F   0  0  0  0  0  0
  -21.5625   -3.4531   25.7742 F   0  0  0  0  0  0
  -29.8982  -13.8738   20.3481 N   0  0  0  0  0  0
  -26.2839  -12.9473   20.3190 N   0  0  0  0  0  0
  -25.9324  -11.6591   20.5677 N   0  0  0  0  0  0
  -22.0410  -12.8195   22.0434 N   0  0  0  0  0  0
  -25.4018  -15.1940   20.4241 N   0  0  0  0  0  0
  -31.6440  -15.2508   20.1610 O   0  0  0  0  0  0
  -21.6630   -6.8878   21.4245 O   0  0  0  0  0  0
  -22.3465  -14.5489   20.6710 O   0  0  0  0  0  0
  -24.6587  -31.8274   23.1743 C   0  0  0  0  0  0
  -25.9294  -32.4603   23.8183 C   0  0  1  0  0  0
  -27.2172  -26.9772   20.1797 C   0  0  0  0  0  0
  -25.5983  -33.8418   24.2097 N   0  0  0  0  0  0
  -23.4708  -30.4417   21.5222 C   0  0  2  0  0  0
  -24.9222  -28.8360   20.1125 C   0  0  0  0  0  0
  -22.7650  -29.4460   22.4790 C   0  0  0  0  0  0
  -18.0320  -28.1409   22.8460 C   0  0  0  0  0  0
  -24.1506  -36.7235   23.2642 C   0  0  0  0  0  0
  -26.0365  -30.6516   21.3949 C   0  0  0  0  0  0
  -26.1045  -29.2458   20.7400 C   0  0  0  0  0  0
  -27.2491  -28.3379   20.7475 C   0  0  0  0  0  0
  -26.0036  -26.7015   19.5128 C   0  0  0  0  0  0
  -24.8939  -27.5832   19.4790 C   0  0  0  0  0  0
  -23.7081  -29.7605   20.1465 C   0  0  0  0  0  0
  -25.4142  -36.2981   24.0296 C   0  0  1  0  0  0
  -20.5942  -28.3752   23.1204 C   0  0  2  0  0  0
  -20.6811  -26.9440   22.5406 C   0  0  0  0  0  0
  -19.5783  -26.6382   21.5220 C   0  0  0  0  0  0
  -18.1960  -26.7943   22.1619 C   0  0  0  0  0  0
  -19.1577  -28.8902   23.2820 C   0  0  0  0  0  0
  -18.9486  -30.1493   23.8854 C   0  0  0  0  0  0
  -17.6476  -30.6597   24.0561 C   0  0  0  0  0  0
  -25.9094  -34.9354   23.5009 C   0  0  0  0  0  0
  -16.5370  -29.9084   23.6340 C   0  0  0  0  0  0
  -16.7301  -28.6510   23.0350 C   0  0  0  0  0  0
  -26.4549  -31.6530   25.0695 C   0  0  0  0  0  0
  -25.3688  -31.3779   26.1365 C   0  0  0  0  0  0
  -27.0423  -30.2897   24.6392 C   0  0  0  0  0  0
  -27.6049  -32.4326   25.7503 C   0  0  0  0  0  0
  -27.5580  -37.1782   24.8457 C   0  0  0  0  0  0
  -21.4323  -29.3046   22.3557 N   0  0  0  0  0  0
  -26.4293  -37.3712   23.9394 N   0  0  0  0  0  0
  -24.7432  -30.9995   22.0846 N   0  0  0  0  0  0
  -23.4219  -28.8021   23.3012 O   0  0  0  0  0  0
  -28.2409  -25.9112   20.2511 O   0  0  0  0  0  0
  -26.5694  -34.8881   22.4599 O   0  0  0  0  0  0
  -23.5675  -32.1207   23.6884 O   0  0  0  0  0  0
  -28.1289  -20.2118   20.1130 C   0  0  0  0  0  0
  -30.5510  -18.9630   20.5665 C   0  0  0  0  0  0
  -29.1622  -21.2081   20.3362 C   0  0  0  0  0  0
  -29.5180  -17.9707   20.3650 C   0  0  0  0  0  0
  -28.2856  -18.7223   20.1195 C   0  0  0  0  0  0
  -30.3870  -20.4361   20.5557 C   0  0  0  0  0  0
  -26.0277  -18.4580   19.3182 C   0  0  0  0  0  0
  -29.1307  -22.9497   20.3948 C   0  0  0  0  0  0
  -28.0102  -24.2987   20.1448 C   0  0  0  0  0  0
  -29.5560  -16.3675   20.4304 N   0  0  0  0  0  0
  -27.2096  -17.8928   19.8766 O   0  0  0  0  0  0
  -31.8275  -21.3406   20.8551 Cl  0  0  0  0  0  0
  -31.4704  -12.9608   19.1946 H   0  0  0  0  0  0
  -30.5044  -11.8287   20.0952 H   0  0  0  0  0  0
  -29.9069  -11.7689   17.6408 H   0  0  0  0  0  0
  -29.5806  -13.4846   17.6711 H   0  0  0  0  0  0
  -28.0227  -11.2756   19.0464 H   0  0  0  0  0  0
  -27.4167  -12.3806   17.8375 H   0  0  0  0  0  0
  -27.5472  -14.2450   19.3543 H   0  0  0  0  0  0
  -28.8002  -12.4306   21.4709 H   0  0  0  0  0  0
  -28.3085  -14.0904   21.7191 H   0  0  0  0  0  0
  -25.2784   -9.5670   22.4757 H   0  0  0  0  0  0
  -23.9999   -7.4627   22.7482 H   0  0  0  0  0  0
  -21.0841   -8.8777   19.8952 H   0  0  0  0  0  0
  -22.3724  -10.9663   19.6149 H   0  0  0  0  0  0
  -21.2030   -7.6150   23.9723 H   0  0  0  0  0  0
  -21.1484   -6.0518   25.9078 H   0  0  0  0  0  0
  -22.0592   -2.7608   23.2841 H   0  0  0  0  0  0
  -22.4019  -11.9881   22.4872 H   0  0  0  0  0  0
  -21.1026  -13.1246   22.2609 H   0  0  0  0  0  0
  -24.6222  -15.8297   20.5492 H   0  0  0  0  0  0
  -26.2412  -15.6610   20.1098 H   0  0  0  0  0  0
  -26.7362  -32.5147   23.0901 H   0  0  0  0  0  0
  -25.0092  -33.9497   25.0221 H   0  0  0  0  0  0
  -22.7805  -31.2716   21.3556 H   0  0  0  0  0  0
  -23.3761  -35.9573   23.3275 H   0  0  0  0  0  0
  -24.3589  -36.8910   22.2063 H   0  0  0  0  0  0
  -23.7278  -37.6425   23.6715 H   0  0  0  0  0  0
  -26.2076  -31.3938   20.6143 H   0  0  0  0  0  0
  -26.9009  -30.7095   22.0448 H   0  0  0  0  0  0
  -28.1472  -28.6508   21.2607 H   0  0  0  0  0  0
  -25.8807  -25.7405   19.0350 H   0  0  0  0  0  0
  -23.9927  -27.2655   18.9733 H   0  0  0  0  0  0
  -23.8647  -30.5299   19.3896 H   0  0  0  0  0  0
  -22.8181  -29.2155   19.8283 H   0  0  0  0  0  0
  -25.1341  -36.1781   25.0789 H   0  0  0  0  0  0
  -21.0019  -28.3359   24.1334 H   0  0  0  0  0  0
  -20.5723  -26.2359   23.3634 H   0  0  0  0  0  0
  -21.6675  -26.7439   22.1200 H   0  0  0  0  0  0
  -19.6950  -25.6281   21.1289 H   0  0  0  0  0  0
  -19.6734  -27.3161   20.6726 H   0  0  0  0  0  0
  -17.4236  -26.6677   21.4021 H   0  0  0  0  0  0
  -18.0352  -26.0098   22.9025 H   0  0  0  0  0  0
  -19.7961  -30.7330   24.2199 H   0  0  0  0  0  0
  -17.5026  -31.6270   24.5175 H   0  0  0  0  0  0
  -15.5369  -30.2972   23.7695 H   0  0  0  0  0  0
  -15.8702  -28.0826   22.7075 H   0  0  0  0  0  0
  -24.5874  -30.7118   25.7689 H   0  0  0  0  0  0
  -24.8868  -32.2979   26.4682 H   0  0  0  0  0  0
  -25.7929  -30.9022   27.0216 H   0  0  0  0  0  0
  -26.3055  -29.6591   24.1403 H   0  0  0  0  0  0
  -27.3965  -29.7248   25.5027 H   0  0  0  0  0  0
  -27.8999  -30.4079   23.9768 H   0  0  0  0  0  0
  -27.2614  -33.3659   26.1980 H   0  0  0  0  0  0
  -28.3919  -32.6838   25.0378 H   0  0  0  0  0  0
  -28.0646  -31.8514   26.5511 H   0  0  0  0  0  0
  -28.2575  -38.0097   24.7492 H   0  0  0  0  0  0
  -28.1095  -36.2622   24.6293 H   0  0  0  0  0  0
  -27.2288  -37.1437   25.8856 H   0  0  0  0  0  0
  -20.9566  -29.8723   21.6680 H   0  0  0  0  0  0
  -26.0139  -38.2774   24.1380 H   0  0  0  0  0  0
  -27.1518  -20.6327   19.9346 H   0  0  0  0  0  0
  -31.5455  -18.5888   20.7604 H   0  0  0  0  0  0
  -25.3456  -17.6581   19.0299 H   0  0  0  0  0  0
  -26.2398  -19.0356   18.4176 H   0  0  0  0  0  0
  -25.5042  -19.0879   20.0376 H   0  0  0  0  0  0
  -29.9628  -23.2076   19.7408 H   0  0  0  0  0  0
  -29.5195  -23.1399   21.3953 H   0  0  0  0  0  0
  -27.1743  -24.1075   20.8186 H   0  0  0  0  0  0
  -27.5979  -24.1451   19.1476 H   0  0  0  0  0  0
  -28.6090  -16.0257   20.4902 H   0  0  0  0  0  0
  1 25  1  0  0  0
  1 30  2  0  0  0
  1 80  1  0  0  0
  2  3  1  0  0  0
  2 25  1  0  0  0
  2 83  1  0  0  0
  2 84  1  0  0  0
  3  4  1  0  0  0
  3 85  1  0  0  0
  3 86  1  0  0  0
  4  5  1  0  0  0
  4 87  1  0  0  0
  4 88  1  0  0  0
  5  6  1  0  0  0
  5 26  1  0  0  0
  5 89  1  0  0  0
  6 25  1  0  0  0
  6 90  1  0  0  0
  6 91  1  0  0  0
  7  8  2  0  0  0
  7 26  1  0  0  0
  7 29  1  0  0  0
  8  9  1  0  0  0
  8 22  1  0  0  0
  9 10  1  0  0  0
  9 27  2  0  0  0
 10 11  2  0  0  0
 10 15  1  0  0  0
 11 12  1  0  0  0
 11 92  1  0  0  0
 12 13  2  0  0  0
 12 93  1  0  0  0
 13 14  1  0  0  0
 13 31  1  0  0  0
 14 15  2  0  0  0
 14 94  1  0  0  0
 15 95  1  0  0  0
 16 17  2  0  0  0
 16 21  1  0  0  0
 16 31  1  0  0  0
 17 18  1  0  0  0
 17 96  1  0  0  0
 18 19  2  0  0  0
 18 97  1  0  0  0
 19 20  1  0  0  0
 19 24  1  0  0  0
 20 21  2  0  0  0
 20 98  1  0  0  0
 21 23  1  0  0  0
 22 28  1  0  0  0
 22 32  2  0  0  0
 26 27  1  0  0  0
 28 99  1  0  0  0
 28100  1  0  0  0
 29101  1  0  0  0
 29102  1  0  0  0
 33 34  1  0  0  0
 33 66  1  0  0  0
 33 70  2  0  0  0
 34 36  1  0  0  0
 34 59  1  0  0  0
 34103  1  0  0  0
 35 44  2  0  0  0
 35 45  1  0  0  0
 35 68  1  0  0  0
 36 56  1  0  0  0
 36104  1  0  0  0
 37 39  1  0  0  0
 37 47  1  0  0  0
 37 66  1  0  0  0
 37105  1  0  0  0
 38 43  2  0  0  0
 38 46  1  0  0  0
 38 47  1  0  0  0
 39 64  1  0  0  0
 39 67  2  0  0  0
 40 52  1  0  0  0
 40 53  2  0  0  0
 40 58  1  0  0  0
 41106  1  0  0  0
 41107  1  0  0  0
 41108  1  0  0  0
 41 48  1  0  0  0
 42 43  1  0  0  0
 42 66  1  0  0  0
 42109  1  0  0  0
 42110  1  0  0  0
 43 44  1  0  0  0
 44111  1  0  0  0
 45 46  2  0  0  0
 45112  1  0  0  0
 46113  1  0  0  0
 47114  1  0  0  0
 47115  1  0  0  0
 48 56  1  0  0  0
 48 65  1  0  0  0
 48116  1  0  0  0
 49 50  1  0  0  0
 49 53  1  0  0  0
 49 64  1  0  0  0
 49117  1  0  0  0
 50 51  1  0  0  0
 50118  1  0  0  0
 50119  1  0  0  0
 51 52  1  0  0  0
 51120  1  0  0  0
 51121  1  0  0  0
 52122  1  0  0  0
 52123  1  0  0  0
 53 54  1  0  0  0
 54 55  2  0  0  0
 54124  1  0  0  0
 55 57  1  0  0  0
 55125  1  0  0  0
 56 69  2  0  0  0
 57 58  2  0  0  0
 57126  1  0  0  0
 58127  1  0  0  0
 59 60  1  0  0  0
 59 61  1  0  0  0
 59 62  1  0  0  0
 60128  1  0  0  0
 60129  1  0  0  0
 60130  1  0  0  0
 61131  1  0  0  0
 61132  1  0  0  0
 61133  1  0  0  0
 62134  1  0  0  0
 62135  1  0  0  0
 62136  1  0  0  0
 63 65  1  0  0  0
 63137  1  0  0  0
 63138  1  0  0  0
 63139  1  0  0  0
 64140  1  0  0  0
 65141  1  0  0  0
 68 79  1  0  0  0
 71 73  2  0  0  0
 71 75  1  0  0  0
 71142  1  0  0  0
 72 74  1  0  0  0
 72 76  2  0  0  0
 72143  1  0  0  0
 73 76  1  0  0  0
 73 78  1  0  0  0
 74 75  2  0  0  0
 74 80  1  0  0  0
 75 81  1  0  0  0
 76 82  1  0  0  0
 77 81  1  0  0  0
 77144  1  0  0  0
 77145  1  0  0  0
 77146  1  0  0  0
 78 79  1  0  0  0
 78147  1  0  0  0
 78148  1  0  0  0
 79149  1  0  0  0
 79150  1  0  0  0
 80151  1  0  0  0
M  ISO  4   1 100  68 101  79 101  80 100
M  END
> <chiral flag>
0

> <version>
0

> <s_m_source_file>
/data/baiqing/PycharmProjects/Reinvent-master-3.2/result/LINK_invent/BTK/process_docking_weight1_custom_sum_contain_oxygen_bond_distance_aromatic_linkinvent_7_9_3/rearranged_h_0022.sdf

> <i_m_source_file_index>
8

> <r_mmod_Potential_Energy-OPLS-2005>
997.195190429688

> <r_mmod_Stretch_Energy-OPLS-2005>
454.552093505859

> <r_mmod_Bend_Energy-OPLS-2005>
421.307006835938

> <r_mmod_Torsional_Energy-OPLS-2005>
215.425628662109

> <r_mmod_Improper_Torsional_Energy-OPLS-2005>
4.60177803039551

> <r_mmod_Van_der_Waal_Energy-OPLS-2005>
129.139831542969

> <r_mmod_Electrostatic_Energy-OPLS-2005>
-405.442687988281

> <r_mmod_Solvation_Energy-OPLS-2005>
-207.713790893555

> <b_mmod_Minimization_Converged-OPLS-2005>
0

> <r_mmod_RMS_Derivative-OPLS-2005>
1.52972137928009

$$$$
8
                    3D
 Structure written by MMmdl.
186194  0  0  1  0            999 V2000
  -30.6981  -14.8082   20.3937 C   0  0  0  0  0  0
  -30.4093  -12.5235   19.4337 C   0  0  0  0  0  0
  -29.4812  -12.4556   18.2099 C   0  0  0  0  0  0
  -28.0282  -12.2387   18.6585 C   0  0  0  0  0  0
  -27.6104  -13.1963   19.8007 C   0  0  2  0  0  0
  -28.6753  -13.3087   20.9147 C   0  0  0  0  0  0
  -25.2335  -13.7650   20.5591 C   0  0  0  0  0  0
  -24.1688  -13.0077   20.9319 C   0  0  0  0  0  0
  -24.6339  -11.6623   20.8869 C   0  0  0  0  0  0
  -23.9015  -10.4086   21.0482 C   0  0  0  0  0  0
  -24.3590   -9.4025   21.9252 C   0  0  0  0  0  0
  -23.6248   -8.2085   22.0775 C   0  0  0  0  0  0
  -22.4216   -8.0196   21.3565 C   0  0  0  0  0  0
  -21.9882   -9.0161   20.4639 C   0  0  0  0  0  0
  -22.7222  -10.2023   20.3080 C   0  0  0  0  0  0
  -21.6802   -6.0676   22.5298 C   0  0  0  0  0  0
  -21.3943   -6.5576   23.8229 C   0  0  0  0  0  0
  -21.3668   -5.6757   24.9208 C   0  0  0  0  0  0
  -21.6074   -4.3022   24.7262 C   0  0  0  0  0  0
  -21.8823   -3.8104   23.4379 C   0  0  0  0  0  0
  -21.9177   -4.6913   22.3424 C   0  0  0  0  0  0
  -22.7762  -13.5020   21.1918 C   0  0  0  0  0  0
  -22.1649   -4.2099   21.1004 F   0  0  0  0  0  0
  -21.5685   -3.4509   25.7773 F   0  0  0  0  0  0
  -29.9362  -13.6652   20.2511 N   0  0  0  0  0  0
  -26.2806  -12.8994   20.3161 N   0  0  0  0  0  0
  -25.9275  -11.6197   20.5838 N   0  0  0  0  0  0
  -22.0356  -12.8106   22.0481 N   0  0  0  0  0  0
  -25.3682  -15.1145   20.3636 N   0  0  0  0  0  0
  -31.9083  -14.6202   20.4719 O   0  0  0  0  0  0
  -21.6579   -6.8810   21.4257 O   0  0  0  0  0  0
  -22.3572  -14.5376   20.6741 O   0  0  0  0  0  0
  -24.6227  -31.8604   23.2028 C   0  0  0  0  0  0
  -25.9091  -32.4785   23.8335 C   0  0  1  0  0  0
  -27.2388  -27.3358   20.1230 C   0  0  0  0  0  0
  -25.5931  -33.8590   24.2275 N   0  0  0  0  0  0
  -23.4157  -30.4814   21.5460 C   0  0  2  0  0  0
  -24.8655  -28.9290   20.1193 C   0  0  0  0  0  0
  -22.7443  -29.4629   22.4962 C   0  0  0  0  0  0
  -18.0274  -28.1392   22.8488 C   0  0  0  0  0  0
  -24.1498  -36.7264   23.2638 C   0  0  0  0  0  0
  -25.9525  -30.7977   21.3691 C   0  0  0  0  0  0
  -26.0315  -29.4230   20.7149 C   0  0  0  0  0  0
  -27.2221  -28.6419   20.7010 C   0  0  0  0  0  0
  -26.0472  -26.8765   19.5245 C   0  0  0  0  0  0
  -24.8737  -27.6580   19.5152 C   0  0  0  0  0  0
  -23.6309  -29.8079   20.1633 C   0  0  0  0  0  0
  -25.4120  -36.3076   24.0331 C   0  0  1  0  0  0
  -20.5872  -28.3672   23.1301 C   0  0  2  0  0  0
  -20.6783  -26.9400   22.5429 C   0  0  0  0  0  0
  -19.5759  -26.6377   21.5236 C   0  0  0  0  0  0
  -18.1928  -26.7929   22.1628 C   0  0  0  0  0  0
  -19.1533  -28.8845   23.2899 C   0  0  0  0  0  0
  -18.9455  -30.1443   23.8911 C   0  0  0  0  0  0
  -17.6464  -30.6593   24.0570 C   0  0  0  0  0  0
  -25.9042  -34.9453   23.5099 C   0  0  0  0  0  0
  -16.5348  -29.9097   23.6339 C   0  0  0  0  0  0
  -16.7267  -28.6520   23.0357 C   0  0  0  0  0  0
  -26.4498  -31.6586   25.0685 C   0  0  0  0  0  0
  -25.3730  -31.3737   26.1406 C   0  0  0  0  0  0
  -27.0369  -30.3028   24.6120 C   0  0  0  0  0  0
  -27.6068  -32.4301   25.7453 C   0  0  0  0  0  0
  -27.5585  -37.1782   24.8463 C   0  0  0  0  0  0
  -21.4158  -29.3037   22.3706 N   0  0  0  0  0  0
  -26.4295  -37.3773   23.9408 N   0  0  0  0  0  0
  -24.6827  -31.0624   22.0969 N   0  0  0  0  0  0
  -23.4186  -28.8140   23.3008 O   0  0  0  0  0  0
  -28.3860  -26.5361   20.0988 O   0  0  0  0  0  0
  -26.5617  -34.8933   22.4657 O   0  0  0  0  0  0
  -23.5399  -32.1384   23.7376 O   0  0  0  0  0  0
  -27.2433  -18.8962   21.6887 C   0  0  0  0  0  0
  -27.8984  -17.1621   19.7326 C   0  0  0  0  0  0
  -28.7466  -18.8548   22.0516 C   0  0  0  0  0  0
  -26.7682  -17.8681   20.5955 C   0  0  2  0  0  0
  -29.2831  -17.1192   20.4032 C   0  0  1  0  0  0
  -25.2846  -17.7506   18.3882 C   0  0  0  0  0  0
  -24.3382  -18.7536   20.4897 C   0  0  0  0  0  0
  -32.6040  -16.6283   18.7515 C   0  0  0  0  0  0
  -30.5482  -16.0704   17.3643 C   0  0  0  0  0  0
  -29.4126  -19.8522   18.4452 C   0  0  0  0  0  0
  -31.3521  -20.1188   20.0853 C   0  0  0  0  0  0
  -29.6551  -22.7409   19.8970 C   0  0  0  0  0  0
  -28.7076  -23.9797   19.5123 C   0  0  0  0  0  0
  -29.1031  -21.3230   20.3980 C   0  0  0  0  0  0
  -28.3145  -25.1258   20.5428 C   0  0  0  0  0  0
  -25.6369  -18.4935   19.7015 C   0  0  0  0  0  0
  -31.0553  -16.6202   18.7049 C   0  0  0  0  0  0
  -29.8296  -19.9177   19.9496 C   0  0  0  0  0  0
  -30.2812  -16.0546   19.8507 N   0  0  0  0  0  0
  -29.4266  -18.6328   20.7630 N   0  3  2  0  0  0
  -31.4390  -12.6453   19.0944 H   0  0  0  0  0  0
  -30.3837  -11.5953   20.0072 H   0  0  0  0  0  0
  -29.7953  -11.6507   17.5446 H   0  0  0  0  0  0
  -29.5458  -13.3752   17.6304 H   0  0  0  0  0  0
  -27.9502  -11.2044   18.9984 H   0  0  0  0  0  0
  -27.3500  -12.3369   17.8093 H   0  0  0  0  0  0
  -27.5391  -14.1532   19.3020 H   0  0  0  0  0  0
  -28.7702  -12.3731   21.4682 H   0  0  0  0  0  0
  -28.3899  -14.0779   21.6348 H   0  0  0  0  0  0
  -25.2736   -9.5493   22.4851 H   0  0  0  0  0  0
  -23.9946   -7.4433   22.7457 H   0  0  0  0  0  0
  -21.0833   -8.8679   19.8906 H   0  0  0  0  0  0
  -22.3711  -10.9602   19.6205 H   0  0  0  0  0  0
  -21.1854   -7.6073   23.9704 H   0  0  0  0  0  0
  -21.1528   -6.0494   25.9119 H   0  0  0  0  0  0
  -22.0600   -2.7560   23.2902 H   0  0  0  0  0  0
  -22.3890  -11.9744   22.4896 H   0  0  0  0  0  0
  -21.0996  -13.1238   22.2630 H   0  0  0  0  0  0
  -24.5683  -15.7311   20.4354 H   0  0  0  0  0  0
  -26.1465  -15.5332   19.8811 H   0  0  0  0  0  0
  -26.7137  -32.5450   23.1072 H   0  0  0  0  0  0
  -25.0145  -33.9739   25.0474 H   0  0  0  0  0  0
  -22.7074  -31.3010   21.4018 H   0  0  0  0  0  0
  -23.3782  -35.9571   23.3289 H   0  0  0  0  0  0
  -24.3587  -36.8900   22.2053 H   0  0  0  0  0  0
  -23.7249  -37.6462   23.6657 H   0  0  0  0  0  0
  -26.0777  -31.5612   20.5992 H   0  0  0  0  0  0
  -26.8343  -30.8513   21.9961 H   0  0  0  0  0  0
  -28.1198  -29.0272   21.1638 H   0  0  0  0  0  0
  -26.0277  -25.9019   19.0586 H   0  0  0  0  0  0
  -23.9763  -27.2708   19.0527 H   0  0  0  0  0  0
  -23.7512  -30.5842   19.4059 H   0  0  0  0  0  0
  -22.7506  -29.2383   19.8582 H   0  0  0  0  0  0
  -25.1321  -36.1910   25.0829 H   0  0  0  0  0  0
  -20.9973  -28.3250   24.1420 H   0  0  0  0  0  0
  -20.5737  -26.2265   23.3622 H   0  0  0  0  0  0
  -21.6642  -26.7477   22.1189 H   0  0  0  0  0  0
  -19.6939  -25.6294   21.1256 H   0  0  0  0  0  0
  -19.6716  -27.3198   20.6776 H   0  0  0  0  0  0
  -17.4223  -26.6688   21.4014 H   0  0  0  0  0  0
  -18.0304  -26.0072   22.9013 H   0  0  0  0  0  0
  -19.7938  -30.7254   24.2297 H   0  0  0  0  0  0
  -17.5026  -31.6284   24.5152 H   0  0  0  0  0  0
  -15.5356  -30.3028   23.7650 H   0  0  0  0  0  0
  -15.8654  -28.0854   22.7076 H   0  0  0  0  0  0
  -24.5887  -30.7131   25.7704 H   0  0  0  0  0  0
  -24.8952  -32.2934   26.4787 H   0  0  0  0  0  0
  -25.8023  -30.8908   27.0195 H   0  0  0  0  0  0
  -26.2962  -29.6734   24.1187 H   0  0  0  0  0  0
  -27.4181  -29.7309   25.4586 H   0  0  0  0  0  0
  -27.8758  -30.4353   23.9285 H   0  0  0  0  0  0
  -27.2707  -33.3613   26.2015 H   0  0  0  0  0  0
  -28.3888  -32.6839   25.0284 H   0  0  0  0  0  0
  -28.0725  -31.8435   26.5379 H   0  0  0  0  0  0
  -28.2591  -38.0094   24.7540 H   0  0  0  0  0  0
  -28.1115  -36.2631   24.6269 H   0  0  0  0  0  0
  -27.2299  -37.1394   25.8868 H   0  0  0  0  0  0
  -20.9310  -29.8740   21.6909 H   0  0  0  0  0  0
  -26.0176  -38.2847   24.1429 H   0  0  0  0  0  0
  -26.9806  -19.9052   21.3779 H   0  0  0  0  0  0
  -26.6552  -18.7566   22.5975 H   0  0  0  0  0  0
  -28.0138  -17.6679   18.7798 H   0  0  0  0  0  0
  -27.5809  -16.1707   19.4527 H   0  0  0  0  0  0
  -28.9589  -18.0598   22.7689 H   0  0  0  0  0  0
  -29.0875  -19.7343   22.5881 H   0  0  0  0  0  0
  -26.3297  -17.1023   21.2256 H   0  0  0  0  0  0
  -29.0844  -16.6007   21.3410 H   0  0  0  0  0  0
  -26.1395  -17.5776   17.7379 H   0  0  0  0  0  0
  -24.5858  -18.3437   17.7971 H   0  0  0  0  0  0
  -24.7990  -16.7923   18.5521 H   0  0  0  0  0  0
  -24.5006  -19.3901   21.3596 H   0  0  0  0  0  0
  -23.8867  -17.8269   20.8451 H   0  0  0  0  0  0
  -23.5975  -19.2579   19.8648 H   0  0  0  0  0  0
  -33.0129  -17.3044   18.0004 H   0  0  0  0  0  0
  -33.0364  -15.6482   18.5406 H   0  0  0  0  0  0
  -32.9749  -16.9692   19.7203 H   0  0  0  0  0  0
  -30.8879  -16.6901   16.5331 H   0  0  0  0  0  0
  -29.4592  -16.0447   17.3257 H   0  0  0  0  0  0
  -30.9228  -15.0613   17.1892 H   0  0  0  0  0  0
  -29.7217  -20.7536   17.9195 H   0  0  0  0  0  0
  -28.3301  -19.8116   18.3234 H   0  0  0  0  0  0
  -29.8284  -19.0638   17.8346 H   0  0  0  0  0  0
  -31.7237  -20.8748   19.3952 H   0  0  0  0  0  0
  -31.9183  -19.2117   19.8860 H   0  0  0  0  0  0
  -31.6093  -20.4413   21.0937 H   0  0  0  0  0  0
  -30.4141  -23.0906   20.5981 H   0  0  0  0  0  0
  -30.2237  -22.5490   18.9897 H   0  0  0  0  0  0
  -27.8117  -23.6117   19.0131 H   0  0  0  0  0  0
  -29.2463  -24.5070   18.7229 H   0  0  0  0  0  0
  -28.0572  -21.2859   20.0932 H   0  0  0  0  0  0
  -29.0720  -21.4365   21.4774 H   0  0  0  0  0  0
  -28.9900  -25.0577   21.3958 H   0  0  0  0  0  0
  -27.3277  -24.9065   20.9517 H   0  0  0  0  0  0
  -26.0056  -19.4660   19.3721 H   0  0  0  0  0  0
  -30.8578  -17.6675   18.7149 H   0  0  0  0  0  0
  -28.5252  -18.7397   20.3178 H   0  0  0  0  0  0
  1 25  1  0  0  0
  1 30  2  0  0  0
  1 89  1  0  0  0
  2  3  1  0  0  0
  2 25  1  0  0  0
  2 91  1  0  0  0
  2 92  1  0  0  0
  3  4  1  0  0  0
  3 93  1  0  0  0
  3 94  1  0  0  0
  4  5  1  0  0  0
  4 95  1  0  0  0
  4 96  1  0  0  0
  5  6  1  0  0  0
  5 26  1  0  0  0
  5 97  1  0  0  0
  6 25  1  0  0  0
  6 98  1  0  0  0
  6 99  1  0  0  0
  7  8  2  0  0  0
  7 26  1  0  0  0
  7 29  1  0  0  0
  8  9  1  0  0  0
  8 22  1  0  0  0
  9 10  1  0  0  0
  9 27  2  0  0  0
 10 11  2  0  0  0
 10 15  1  0  0  0
 11 12  1  0  0  0
 11100  1  0  0  0
 12 13  2  0  0  0
 12101  1  0  0  0
 13 14  1  0  0  0
 13 31  1  0  0  0
 14 15  2  0  0  0
 14102  1  0  0  0
 15103  1  0  0  0
 16 17  2  0  0  0
 16 21  1  0  0  0
 16 31  1  0  0  0
 17 18  1  0  0  0
 17104  1  0  0  0
 18 19  2  0  0  0
 18105  1  0  0  0
 19 20  1  0  0  0
 19 24  1  0  0  0
 20 21  2  0  0  0
 20106  1  0  0  0
 21 23  1  0  0  0
 22 28  1  0  0  0
 22 32  2  0  0  0
 26 27  1  0  0  0
 28107  1  0  0  0
 28108  1  0  0  0
 29109  1  0  0  0
 29110  1  0  0  0
 33 34  1  0  0  0
 33 66  1  0  0  0
 33 70  2  0  0  0
 34 36  1  0  0  0
 34 59  1  0  0  0
 34111  1  0  0  0
 35 44  2  0  0  0
 35 45  1  0  0  0
 35 68  1  0  0  0
 36 56  1  0  0  0
 36112  1  0  0  0
 37 39  1  0  0  0
 37 47  1  0  0  0
 37 66  1  0  0  0
 37113  1  0  0  0
 38 43  2  0  0  0
 38 46  1  0  0  0
 38 47  1  0  0  0
 39 64  1  0  0  0
 39 67  2  0  0  0
 40 52  1  0  0  0
 40 53  2  0  0  0
 40 58  1  0  0  0
 41114  1  0  0  0
 41115  1  0  0  0
 41116  1  0  0  0
 41 48  1  0  0  0
 42 43  1  0  0  0
 42 66  1  0  0  0
 42117  1  0  0  0
 42118  1  0  0  0
 43 44  1  0  0  0
 44119  1  0  0  0
 45 46  2  0  0  0
 45120  1  0  0  0
 46121  1  0  0  0
 47122  1  0  0  0
 47123  1  0  0  0
 48 56  1  0  0  0
 48 65  1  0  0  0
 48124  1  0  0  0
 49 50  1  0  0  0
 49 53  1  0  0  0
 49 64  1  0  0  0
 49125  1  0  0  0
 50 51  1  0  0  0
 50126  1  0  0  0
 50127  1  0  0  0
 51 52  1  0  0  0
 51128  1  0  0  0
 51129  1  0  0  0
 52130  1  0  0  0
 52131  1  0  0  0
 53 54  1  0  0  0
 54 55  2  0  0  0
 54132  1  0  0  0
 55 57  1  0  0  0
 55133  1  0  0  0
 56 69  2  0  0  0
 57 58  2  0  0  0
 57134  1  0  0  0
 58135  1  0  0  0
 59 60  1  0  0  0
 59 61  1  0  0  0
 59 62  1  0  0  0
 60136  1  0  0  0
 60137  1  0  0  0
 60138  1  0  0  0
 61139  1  0  0  0
 61140  1  0  0  0
 61141  1  0  0  0
 62142  1  0  0  0
 62143  1  0  0  0
 62144  1  0  0  0
 63 65  1  0  0  0
 63145  1  0  0  0
 63146  1  0  0  0
 63147  1  0  0  0
 64148  1  0  0  0
 65149  1  0  0  0
 68 85  1  0  0  0
 71 73  1  0  0  0
 71150  1  0  0  0
 71151  1  0  0  0
 71 74  1  0  0  0
 72 74  1  0  0  0
 72 75  1  0  0  0
 72152  1  0  0  0
 72153  1  0  0  0
 73154  1  0  0  0
 73155  1  0  0  0
 73 90  1  0  0  0
 74 86  1  0  0  0
 74156  1  0  0  0
 75 89  1  0  0  0
 75 90  1  0  0  0
 75157  1  0  0  0
 76158  1  0  0  0
 76159  1  0  0  0
 76160  1  0  0  0
 76 86  1  0  0  0
 77 86  1  0  0  0
 77161  1  0  0  0
 77162  1  0  0  0
 77163  1  0  0  0
 78164  1  0  0  0
 78165  1  0  0  0
 78166  1  0  0  0
 78 87  1  0  0  0
 79 87  1  0  0  0
 79167  1  0  0  0
 79168  1  0  0  0
 79169  1  0  0  0
 80170  1  0  0  0
 80171  1  0  0  0
 80172  1  0  0  0
 80 88  1  0  0  0
 81 88  1  0  0  0
 81173  1  0  0  0
 81174  1  0  0  0
 81175  1  0  0  0
 82 83  1  0  0  0
 82 84  1  0  0  0
 82176  1  0  0  0
 82177  1  0  0  0
 83 85  1  0  0  0
 83178  1  0  0  0
 83179  1  0  0  0
 84 88  1  0  0  0
 84180  1  0  0  0
 84181  1  0  0  0
 85182  1  0  0  0
 85183  1  0  0  0
 86184  1  0  0  0
 87 89  1  0  0  0
 87185  1  0  0  0
 88 90  1  0  0  0
 90186  1  0  0  0
M  CHG  1  90   1
M  ISO  4   1 100  68 101  85 101  89 100
M  END
> <chiral flag>
0

> <version>
0

> <s_m_source_file>
/data/baiqing/PycharmProjects/Reinvent-master-3.2/result/LINK_invent/BTK/process_docking_weight1_custom_sum_contain_oxygen_bond_distance_aromatic_linkinvent_7_9_3/rearranged_h_0022.sdf

> <i_m_source_file_index>
9

> <r_mmod_Potential_Energy-OPLS-2005>
772.10888671875

> <r_mmod_Stretch_Energy-OPLS-2005>
153.005035400391

> <r_mmod_Bend_Energy-OPLS-2005>
404.185760498047

> <r_mmod_Torsional_Energy-OPLS-2005>
434.622863769531

> <r_mmod_Improper_Torsional_Energy-OPLS-2005>
25.0791187286377

> <r_mmod_Van_der_Waal_Energy-OPLS-2005>
163.687240600586

> <r_mmod_Electrostatic_Energy-OPLS-2005>
-129.832809448242

> <r_mmod_Solvation_Energy-OPLS-2005>
-398.617126464844

> <b_mmod_Minimization_Converged-OPLS-2005>
0

> <r_mmod_RMS_Derivative-OPLS-2005>
3.73386764526367

$$$$
9
                    3D
 Structure written by MMmdl.
161169  0  0  1  0            999 V2000
  -30.6331  -14.6984   20.4763 C   0  0  0  0  0  0
  -30.4298  -12.4293   19.4614 C   0  0  0  0  0  0
  -29.5036  -12.5015   18.2284 C   0  0  0  0  0  0
  -28.0297  -12.3320   18.6457 C   0  0  0  0  0  0
  -27.6433  -13.2286   19.8523 C   0  0  2  0  0  0
  -28.6903  -13.1454   20.9844 C   0  0  0  0  0  0
  -25.2510  -13.8194   20.5686 C   0  0  0  0  0  0
  -24.1803  -13.0443   20.9202 C   0  0  0  0  0  0
  -24.6397  -11.6921   20.8756 C   0  0  0  0  0  0
  -23.9079  -10.4295   21.0414 C   0  0  0  0  0  0
  -24.3627   -9.4203   21.9188 C   0  0  0  0  0  0
  -23.6293   -8.2240   22.0761 C   0  0  0  0  0  0
  -22.4276   -8.0280   21.3543 C   0  0  0  0  0  0
  -21.9921   -9.0260   20.4651 C   0  0  0  0  0  0
  -22.7255  -10.2135   20.3062 C   0  0  0  0  0  0
  -21.6851   -6.0733   22.5277 C   0  0  0  0  0  0
  -21.4013   -6.5636   23.8208 C   0  0  0  0  0  0
  -21.3658   -5.6791   24.9174 C   0  0  0  0  0  0
  -21.6046   -4.3055   24.7228 C   0  0  0  0  0  0
  -21.8818   -3.8147   23.4348 C   0  0  0  0  0  0
  -21.9191   -4.6962   22.3402 C   0  0  0  0  0  0
  -22.7824  -13.5214   21.1863 C   0  0  0  0  0  0
  -22.1658   -4.2149   21.0977 F   0  0  0  0  0  0
  -21.5630   -3.4542   25.7744 F   0  0  0  0  0  0
  -29.9944  -13.4851   20.4012 N   0  0  0  0  0  0
  -26.2944  -12.9402   20.3302 N   0  0  0  0  0  0
  -25.9328  -11.6547   20.5778 N   0  0  0  0  0  0
  -22.0483  -12.8200   22.0431 N   0  0  0  0  0  0
  -25.4181  -15.1922   20.4085 N   0  0  0  0  0  0
  -31.8208  -14.7986   20.1594 O   0  0  0  0  0  0
  -21.6634   -6.8878   21.4239 O   0  0  0  0  0  0
  -22.3500  -14.5515   20.6713 O   0  0  0  0  0  0
  -24.6286  -31.8567   23.1996 C   0  0  0  0  0  0
  -25.9125  -32.4755   23.8336 C   0  0  1  0  0  0
  -27.2281  -27.3063   20.1246 C   0  0  0  0  0  0
  -25.5937  -33.8558   24.2258 N   0  0  0  0  0  0
  -23.4236  -30.4778   21.5426 C   0  0  2  0  0  0
  -24.8717  -28.9263   20.1141 C   0  0  0  0  0  0
  -22.7494  -29.4603   22.4938 C   0  0  0  0  0  0
  -18.0291  -28.1383   22.8488 C   0  0  0  0  0  0
  -24.1486  -36.7274   23.2641 C   0  0  0  0  0  0
  -25.9655  -30.7832   21.3724 C   0  0  0  0  0  0
  -26.0418  -29.4083   20.7169 C   0  0  0  0  0  0
  -27.2272  -28.6125   20.7064 C   0  0  0  0  0  0
  -26.0378  -26.8721   19.5061 C   0  0  0  0  0  0
  -24.8722  -27.6641   19.4984 C   0  0  0  0  0  0
  -23.6395  -29.8085   20.1604 C   0  0  0  0  0  0
  -25.4113  -36.3056   24.0323 C   0  0  1  0  0  0
  -20.5892  -28.3684   23.1280 C   0  0  2  0  0  0
  -20.6777  -26.9402   22.5405 C   0  0  0  0  0  0
  -19.5747  -26.6373   21.5211 C   0  0  0  0  0  0
  -18.1926  -26.7928   22.1621 C   0  0  0  0  0  0
  -19.1544  -28.8855   23.2877 C   0  0  0  0  0  0
  -18.9468  -30.1461   23.8884 C   0  0  0  0  0  0
  -17.6468  -30.6585   24.0560 C   0  0  0  0  0  0
  -25.9058  -34.9432   23.5088 C   0  0  0  0  0  0
  -16.5363  -29.9076   23.6337 C   0  0  0  0  0  0
  -16.7278  -28.6497   23.0353 C   0  0  0  0  0  0
  -26.4509  -31.6584   25.0718 C   0  0  0  0  0  0
  -25.3743  -31.3704   26.1444 C   0  0  0  0  0  0
  -27.0372  -30.3016   24.6177 C   0  0  0  0  0  0
  -27.6068  -32.4335   25.7482 C   0  0  0  0  0  0
  -27.5569  -37.1778   24.8465 C   0  0  0  0  0  0
  -21.4205  -29.3037   22.3683 N   0  0  0  0  0  0
  -26.4281  -37.3759   23.9419 N   0  0  0  0  0  0
  -24.6913  -31.0565   22.0944 N   0  0  0  0  0  0
  -23.4205  -28.8146   23.3028 O   0  0  0  0  0  0
  -28.3333  -26.4429   20.1133 O   0  0  0  0  0  0
  -26.5626  -34.8906   22.4654 O   0  0  0  0  0  0
  -23.5446  -32.1378   23.7311 O   0  0  0  0  0  0
  -29.0315  -23.7848   18.7767 C   0  0  0  0  0  0
  -28.7322  -23.7954   20.1459 C   0  0  0  0  0  0
  -28.9155  -22.5308   20.8401 C   0  0  0  0  0  0
  -29.4253  -21.3517   20.1517 C   0  0  0  0  0  0
  -29.7071  -21.5465   18.7764 C   0  0  0  0  0  0
  -26.7181  -21.8540   23.9983 C   0  0  0  0  0  0
  -28.5519  -22.4494   22.3204 C   0  0  0  0  0  0
  -29.8769  -19.9833   20.8516 C   0  0  0  0  0  0
  -28.1793  -25.1332   20.7965 C   0  0  0  0  0  0
  -27.1450  -21.8712   22.5257 C   0  0  0  0  0  0
  -29.3852  -18.5028   20.4267 C   0  0  0  0  0  0
  -30.3425  -17.2716   20.8453 C   0  0  0  0  0  0
  -29.4964  -22.7053   18.1171 N   0  0  0  0  0  0
  -29.8756  -15.8278   20.7197 N   0  0  0  0  0  0
  -30.4395  -20.2992   17.8342 Cl  0  0  0  0  0  0
  -31.4704  -12.5478   19.1561 H   0  0  0  0  0  0
  -30.3667  -11.4496   19.9371 H   0  0  0  0  0  0
  -29.7767  -11.7329   17.5042 H   0  0  0  0  0  0
  -29.6331  -13.4599   17.7229 H   0  0  0  0  0  0
  -27.8819  -11.2828   18.9046 H   0  0  0  0  0  0
  -27.3703  -12.5315   17.8002 H   0  0  0  0  0  0
  -27.6426  -14.2528   19.4783 H   0  0  0  0  0  0
  -28.7169  -12.1448   21.4176 H   0  0  0  0  0  0
  -28.4351  -13.8241   21.7998 H   0  0  0  0  0  0
  -25.2777   -9.5662   22.4764 H   0  0  0  0  0  0
  -23.9994   -7.4629   22.7488 H   0  0  0  0  0  0
  -21.0849   -8.8786   19.8955 H   0  0  0  0  0  0
  -22.3721  -10.9678   19.6171 H   0  0  0  0  0  0
  -21.2003   -7.6146   23.9711 H   0  0  0  0  0  0
  -21.1482   -6.0525   25.9074 H   0  0  0  0  0  0
  -22.0601   -2.7610   23.2853 H   0  0  0  0  0  0
  -22.4112  -11.9853   22.4791 H   0  0  0  0  0  0
  -21.1113  -13.1224   22.2678 H   0  0  0  0  0  0
  -24.6461  -15.8424   20.5097 H   0  0  0  0  0  0
  -26.2611  -15.6341   20.0647 H   0  0  0  0  0  0
  -26.7198  -32.5413   23.1088 H   0  0  0  0  0  0
  -25.0110  -33.9709   25.0422 H   0  0  0  0  0  0
  -22.7175  -31.2977   21.3959 H   0  0  0  0  0  0
  -23.3747  -35.9604   23.3294 H   0  0  0  0  0  0
  -24.3579  -36.8909   22.2056 H   0  0  0  0  0  0
  -23.7245  -37.6468   23.6690 H   0  0  0  0  0  0
  -26.1004  -31.5442   20.6029 H   0  0  0  0  0  0
  -26.8446  -30.8314   22.0032 H   0  0  0  0  0  0
  -28.1294  -28.9819   21.1731 H   0  0  0  0  0  0
  -26.0064  -25.9001   19.0338 H   0  0  0  0  0  0
  -23.9766  -27.2897   19.0219 H   0  0  0  0  0  0
  -23.7583  -30.5819   19.4007 H   0  0  0  0  0  0
  -22.7593  -29.2367   19.8607 H   0  0  0  0  0  0
  -25.1291  -36.1888   25.0812 H   0  0  0  0  0  0
  -20.9991  -28.3257   24.1400 H   0  0  0  0  0  0
  -20.5680  -26.2290   23.3604 H   0  0  0  0  0  0
  -21.6643  -26.7420   22.1189 H   0  0  0  0  0  0
  -19.6906  -25.6280   21.1242 H   0  0  0  0  0  0
  -19.6690  -27.3181   20.6736 H   0  0  0  0  0  0
  -17.4195  -26.6694   21.4020 H   0  0  0  0  0  0
  -18.0318  -26.0069   22.9012 H   0  0  0  0  0  0
  -19.7944  -30.7292   24.2236 H   0  0  0  0  0  0
  -17.5014  -31.6264   24.5158 H   0  0  0  0  0  0
  -15.5358  -30.2966   23.7676 H   0  0  0  0  0  0
  -15.8680  -28.0814   22.7065 H   0  0  0  0  0  0
  -24.5934  -30.7040   25.7766 H   0  0  0  0  0  0
  -24.8917  -32.2852   26.4887 H   0  0  0  0  0  0
  -25.8067  -30.8867   27.0210 H   0  0  0  0  0  0
  -26.2947  -29.6734   24.1240 H   0  0  0  0  0  0
  -27.4134  -29.7301   25.4675 H   0  0  0  0  0  0
  -27.8780  -30.4320   23.9363 H   0  0  0  0  0  0
  -27.2693  -33.3656   26.2028 H   0  0  0  0  0  0
  -28.3883  -32.6865   25.0305 H   0  0  0  0  0  0
  -28.0736  -31.8484   26.5415 H   0  0  0  0  0  0
  -28.2563  -38.0094   24.7536 H   0  0  0  0  0  0
  -28.1088  -36.2627   24.6263 H   0  0  0  0  0  0
  -27.2292  -37.1390   25.8867 H   0  0  0  0  0  0
  -20.9404  -29.8757   21.6878 H   0  0  0  0  0  0
  -26.0142  -38.2817   24.1451 H   0  0  0  0  0  0
  -28.8971  -24.6752   18.1802 H   0  0  0  0  0  0
  -25.7107  -21.4511   24.1035 H   0  0  0  0  0  0
  -26.7178  -22.8589   24.4241 H   0  0  0  0  0  0
  -27.3859  -21.2357   24.5983 H   0  0  0  0  0  0
  -28.6020  -23.4309   22.7861 H   0  0  0  0  0  0
  -29.2932  -21.8736   22.8703 H   0  0  0  0  0  0
  -29.7191  -20.0517   21.9241 H   0  0  0  0  0  0
  -30.9632  -19.9819   20.7507 H   0  0  0  0  0  0
  -28.7118  -25.2799   21.7342 H   0  0  0  0  0  0
  -27.1399  -24.9608   21.0776 H   0  0  0  0  0  0
  -26.4265  -22.4612   21.9543 H   0  0  0  0  0  0
  -27.1011  -20.8596   22.1193 H   0  0  0  0  0  0
  -29.2493  -18.4489   19.3478 H   0  0  0  0  0  0
  -28.3903  -18.3447   20.8439 H   0  0  0  0  0  0
  -30.6177  -17.4076   21.8922 H   0  0  0  0  0  0
  -31.2781  -17.3792   20.2935 H   0  0  0  0  0  0
  -28.8975  -15.6582   20.9012 H   0  0  0  0  0  0
  1 25  1  0  0  0
  1 30  2  0  0  0
  1 84  1  0  0  0
  2  3  1  0  0  0
  2 25  1  0  0  0
  2 86  1  0  0  0
  2 87  1  0  0  0
  3  4  1  0  0  0
  3 88  1  0  0  0
  3 89  1  0  0  0
  4  5  1  0  0  0
  4 90  1  0  0  0
  4 91  1  0  0  0
  5  6  1  0  0  0
  5 26  1  0  0  0
  5 92  1  0  0  0
  6 25  1  0  0  0
  6 93  1  0  0  0
  6 94  1  0  0  0
  7  8  2  0  0  0
  7 26  1  0  0  0
  7 29  1  0  0  0
  8  9  1  0  0  0
  8 22  1  0  0  0
  9 10  1  0  0  0
  9 27  2  0  0  0
 10 11  2  0  0  0
 10 15  1  0  0  0
 11 12  1  0  0  0
 11 95  1  0  0  0
 12 13  2  0  0  0
 12 96  1  0  0  0
 13 14  1  0  0  0
 13 31  1  0  0  0
 14 15  2  0  0  0
 14 97  1  0  0  0
 15 98  1  0  0  0
 16 17  2  0  0  0
 16 21  1  0  0  0
 16 31  1  0  0  0
 17 18  1  0  0  0
 17 99  1  0  0  0
 18 19  2  0  0  0
 18100  1  0  0  0
 19 20  1  0  0  0
 19 24  1  0  0  0
 20 21  2  0  0  0
 20101  1  0  0  0
 21 23  1  0  0  0
 22 28  1  0  0  0
 22 32  2  0  0  0
 26 27  1  0  0  0
 28102  1  0  0  0
 28103  1  0  0  0
 29104  1  0  0  0
 29105  1  0  0  0
 33 34  1  0  0  0
 33 66  1  0  0  0
 33 70  2  0  0  0
 34 36  1  0  0  0
 34 59  1  0  0  0
 34106  1  0  0  0
 35 44  2  0  0  0
 35 45  1  0  0  0
 35 68  1  0  0  0
 36 56  1  0  0  0
 36107  1  0  0  0
 37 39  1  0  0  0
 37 47  1  0  0  0
 37 66  1  0  0  0
 37108  1  0  0  0
 38 43  2  0  0  0
 38 46  1  0  0  0
 38 47  1  0  0  0
 39 64  1  0  0  0
 39 67  2  0  0  0
 40 52  1  0  0  0
 40 53  2  0  0  0
 40 58  1  0  0  0
 41109  1  0  0  0
 41110  1  0  0  0
 41111  1  0  0  0
 41 48  1  0  0  0
 42 43  1  0  0  0
 42 66  1  0  0  0
 42112  1  0  0  0
 42113  1  0  0  0
 43 44  1  0  0  0
 44114  1  0  0  0
 45 46  2  0  0  0
 45115  1  0  0  0
 46116  1  0  0  0
 47117  1  0  0  0
 47118  1  0  0  0
 48 56  1  0  0  0
 48 65  1  0  0  0
 48119  1  0  0  0
 49 50  1  0  0  0
 49 53  1  0  0  0
 49 64  1  0  0  0
 49120  1  0  0  0
 50 51  1  0  0  0
 50121  1  0  0  0
 50122  1  0  0  0
 51 52  1  0  0  0
 51123  1  0  0  0
 51124  1  0  0  0
 52125  1  0  0  0
 52126  1  0  0  0
 53 54  1  0  0  0
 54 55  2  0  0  0
 54127  1  0  0  0
 55 57  1  0  0  0
 55128  1  0  0  0
 56 69  2  0  0  0
 57 58  2  0  0  0
 57129  1  0  0  0
 58130  1  0  0  0
 59 60  1  0  0  0
 59 61  1  0  0  0
 59 62  1  0  0  0
 60131  1  0  0  0
 60132  1  0  0  0
 60133  1  0  0  0
 61134  1  0  0  0
 61135  1  0  0  0
 61136  1  0  0  0
 62137  1  0  0  0
 62138  1  0  0  0
 62139  1  0  0  0
 63 65  1  0  0  0
 63140  1  0  0  0
 63141  1  0  0  0
 63142  1  0  0  0
 64143  1  0  0  0
 65144  1  0  0  0
 68 79  1  0  0  0
 71 72  2  0  0  0
 71 83  1  0  0  0
 71145  1  0  0  0
 72 73  1  0  0  0
 72 79  1  0  0  0
 73 74  2  0  0  0
 73 77  1  0  0  0
 74 75  1  0  0  0
 74 78  1  0  0  0
 75 83  2  0  0  0
 75 85  1  0  0  0
 76 80  1  0  0  0
 76146  1  0  0  0
 76147  1  0  0  0
 76148  1  0  0  0
 77 80  1  0  0  0
 77149  1  0  0  0
 77150  1  0  0  0
 78 81  1  0  0  0
 78151  1  0  0  0
 78152  1  0  0  0
 79153  1  0  0  0
 79154  1  0  0  0
 80155  1  0  0  0
 80156  1  0  0  0
 81 82  1  0  0  0
 81157  1  0  0  0
 81158  1  0  0  0
 82 84  1  0  0  0
 82159  1  0  0  0
 82160  1  0  0  0
 84161  1  0  0  0
M  ISO  4   1 100  68 101  79 101  84 100
M  END
> <chiral flag>
0

> <version>
0

> <s_m_source_file>
/data/baiqing/PycharmProjects/Reinvent-master-3.2/result/LINK_invent/BTK/process_docking_weight1_custom_sum_contain_oxygen_bond_distance_aromatic_linkinvent_7_9_3/rearranged_h_0022.sdf

> <i_m_source_file_index>
10

> <r_mmod_Potential_Energy-OPLS-2005>
10.5443096160889

> <r_mmod_Stretch_Energy-OPLS-2005>
107.071983337402

> <r_mmod_Bend_Energy-OPLS-2005>
154.118301391602

> <r_mmod_Torsional_Energy-OPLS-2005>
235.904830932617

> <r_mmod_Improper_Torsional_Energy-OPLS-2005>
5.30284690856934

> <r_mmod_Van_der_Waal_Energy-OPLS-2005>
138.66276550293

> <r_mmod_Electrostatic_Energy-OPLS-2005>
-478.882446289062

> <r_mmod_Solvation_Energy-OPLS-2005>
-215.044189453125

> <b_mmod_Minimization_Converged-OPLS-2005>
0

> <r_mmod_RMS_Derivative-OPLS-2005>
1.29628837108612

$$$$
10
                    3D
 Structure written by MMmdl.
153161  0  0  1  0            999 V2000
  -30.4328  -15.1901   20.3864 C   0  0  0  0  0  0
  -30.4494  -12.7538   19.5250 C   0  0  0  0  0  0
  -29.5411  -12.5714   18.2821 C   0  0  0  0  0  0
  -28.0821  -12.3092   18.7007 C   0  0  0  0  0  0
  -27.6208  -13.2654   19.8299 C   0  0  2  0  0  0
  -28.6557  -13.3849   20.9692 C   0  0  0  0  0  0
  -25.2421  -13.8226   20.5693 C   0  0  0  0  0  0
  -24.1762  -13.0432   20.9220 C   0  0  0  0  0  0
  -24.6404  -11.6924   20.8737 C   0  0  0  0  0  0
  -23.9092  -10.4291   21.0397 C   0  0  0  0  0  0
  -24.3637   -9.4209   21.9179 C   0  0  0  0  0  0
  -23.6302   -8.2244   22.0762 C   0  0  0  0  0  0
  -22.4284   -8.0278   21.3546 C   0  0  0  0  0  0
  -21.9918   -9.0257   20.4655 C   0  0  0  0  0  0
  -22.7255  -10.2133   20.3059 C   0  0  0  0  0  0
  -21.6859   -6.0733   22.5272 C   0  0  0  0  0  0
  -21.4015   -6.5636   23.8203 C   0  0  0  0  0  0
  -21.3663   -5.6790   24.9167 C   0  0  0  0  0  0
  -21.6047   -4.3051   24.7213 C   0  0  0  0  0  0
  -21.8817   -3.8141   23.4333 C   0  0  0  0  0  0
  -21.9192   -4.6960   22.3391 C   0  0  0  0  0  0
  -22.7781  -13.5200   21.1863 C   0  0  0  0  0  0
  -22.1660   -4.2146   21.0970 F   0  0  0  0  0  0
  -21.5636   -3.4537   25.7729 F   0  0  0  0  0  0
  -29.9014  -13.8769   20.3610 N   0  0  0  0  0  0
  -26.2850  -12.9486   20.3199 N   0  0  0  0  0  0
  -25.9343  -11.6602   20.5707 N   0  0  0  0  0  0
  -22.0428  -12.8217   22.0433 N   0  0  0  0  0  0
  -25.4044  -15.1958   20.4109 N   0  0  0  0  0  0
  -31.6441  -15.2485   20.1309 O   0  0  0  0  0  0
  -21.6642   -6.8878   21.4238 O   0  0  0  0  0  0
  -22.3466  -14.5489   20.6680 O   0  0  0  0  0  0
  -24.6575  -31.8293   23.1740 C   0  0  0  0  0  0
  -25.9278  -32.4620   23.8198 C   0  0  1  0  0  0
  -27.2233  -26.9825   20.1770 C   0  0  0  0  0  0
  -25.5966  -33.8434   24.2105 N   0  0  0  0  0  0
  -23.4704  -30.4409   21.5232 C   0  0  2  0  0  0
  -24.9235  -28.8366   20.1134 C   0  0  0  0  0  0
  -22.7644  -29.4462   22.4809 C   0  0  0  0  0  0
  -18.0316  -28.1408   22.8470 C   0  0  0  0  0  0
  -24.1499  -36.7220   23.2645 C   0  0  0  0  0  0
  -26.0358  -30.6538   21.3958 C   0  0  0  0  0  0
  -26.1064  -29.2487   20.7401 C   0  0  0  0  0  0
  -27.2529  -28.3424   20.7449 C   0  0  0  0  0  0
  -26.0093  -26.7055   19.5099 C   0  0  0  0  0  0
  -24.8968  -27.5841   19.4795 C   0  0  0  0  0  0
  -23.7070  -29.7577   20.1487 C   0  0  0  0  0  0
  -25.4137  -36.2985   24.0299 C   0  0  1  0  0  0
  -20.5939  -28.3749   23.1207 C   0  0  2  0  0  0
  -20.6800  -26.9438   22.5409 C   0  0  0  0  0  0
  -19.5774  -26.6381   21.5218 C   0  0  0  0  0  0
  -18.1953  -26.7941   22.1622 C   0  0  0  0  0  0
  -19.1577  -28.8901   23.2826 C   0  0  0  0  0  0
  -18.9481  -30.1492   23.8854 C   0  0  0  0  0  0
  -17.6476  -30.6599   24.0557 C   0  0  0  0  0  0
  -25.9095  -34.9368   23.5023 C   0  0  0  0  0  0
  -16.5369  -29.9084   23.6347 C   0  0  0  0  0  0
  -16.7297  -28.6508   23.0357 C   0  0  0  0  0  0
  -26.4546  -31.6545   25.0706 C   0  0  0  0  0  0
  -25.3685  -31.3775   26.1369 C   0  0  0  0  0  0
  -27.0430  -30.2919   24.6397 C   0  0  0  0  0  0
  -27.6051  -32.4340   25.7502 C   0  0  0  0  0  0
  -27.5575  -37.1767   24.8458 C   0  0  0  0  0  0
  -21.4319  -29.3042   22.3561 N   0  0  0  0  0  0
  -26.4284  -37.3717   23.9404 N   0  0  0  0  0  0
  -24.7422  -30.9999   22.0853 N   0  0  0  0  0  0
  -23.4214  -28.8034   23.3034 O   0  0  0  0  0  0
  -28.2526  -25.9214   20.2369 O   0  0  0  0  0  0
  -26.5704  -34.8889   22.4616 O   0  0  0  0  0  0
  -23.5657  -32.1239   23.6863 O   0  0  0  0  0  0
  -29.0331  -20.2737   19.2438 C   0  0  0  0  0  0
  -29.6447  -18.9186   21.5391 C   0  0  0  0  0  0
  -29.1085  -21.2146   20.3548 C   0  0  0  0  0  0
  -29.2322  -18.7977   19.2701 C   0  0  0  0  0  0
  -29.4404  -20.3906   21.5153 C   0  0  0  0  0  0
  -29.5913  -17.9826   20.4269 C   0  0  0  0  0  0
  -29.0233  -18.0540   17.9642 C   0  0  0  0  0  0
  -29.6282  -21.1130   22.8380 C   0  0  0  0  0  0
  -29.1541  -22.9540   20.2777 C   0  0  0  0  0  0
  -28.0165  -24.3082   20.1884 C   0  0  0  0  0  0
  -29.5861  -16.3811   20.5307 N   0  0  0  0  0  0
  -31.4708  -12.9585   19.2027 H   0  0  0  0  0  0
  -30.5051  -11.8321   20.1060 H   0  0  0  0  0  0
  -29.9096  -11.7553   17.6589 H   0  0  0  0  0  0
  -29.5849  -13.4709   17.6665 H   0  0  0  0  0  0
  -28.0192  -11.2770   19.0484 H   0  0  0  0  0  0
  -27.4186  -12.3820   17.8385 H   0  0  0  0  0  0
  -27.5543  -14.2470   19.3596 H   0  0  0  0  0  0
  -28.8012  -12.4299   21.4763 H   0  0  0  0  0  0
  -28.3080  -14.0872   21.7280 H   0  0  0  0  0  0
  -25.2786   -9.5689   22.4748 H   0  0  0  0  0  0
  -24.0011   -7.4645   22.7492 H   0  0  0  0  0  0
  -21.0841   -8.8776   19.8969 H   0  0  0  0  0  0
  -22.3705  -10.9671   19.6167 H   0  0  0  0  0  0
  -21.2014   -7.6145   23.9706 H   0  0  0  0  0  0
  -21.1490   -6.0519   25.9072 H   0  0  0  0  0  0
  -22.0599   -2.7604   23.2824 H   0  0  0  0  0  0
  -22.4050  -11.9910   22.4882 H   0  0  0  0  0  0
  -21.1040  -13.1255   22.2604 H   0  0  0  0  0  0
  -24.6271  -15.8394   20.5149 H   0  0  0  0  0  0
  -26.2359  -15.6378   20.0433 H   0  0  0  0  0  0
  -26.7343  -32.5181   23.0918 H   0  0  0  0  0  0
  -25.0063  -33.9531   25.0218 H   0  0  0  0  0  0
  -22.7807  -31.2708   21.3556 H   0  0  0  0  0  0
  -23.3772  -35.9537   23.3274 H   0  0  0  0  0  0
  -24.3577  -36.8904   22.2065 H   0  0  0  0  0  0
  -23.7244  -37.6398   23.6720 H   0  0  0  0  0  0
  -26.2088  -31.4002   20.6189 H   0  0  0  0  0  0
  -26.8981  -30.7110   22.0483 H   0  0  0  0  0  0
  -28.1528  -28.6568   21.2549 H   0  0  0  0  0  0
  -25.8896  -25.7488   19.0234 H   0  0  0  0  0  0
  -23.9961  -27.2639   18.9737 H   0  0  0  0  0  0
  -23.8562  -30.5264   19.3904 H   0  0  0  0  0  0
  -22.8188  -29.2073   19.8336 H   0  0  0  0  0  0
  -25.1337  -36.1789   25.0789 H   0  0  0  0  0  0
  -21.0020  -28.3349   24.1332 H   0  0  0  0  0  0
  -20.5698  -26.2358   23.3641 H   0  0  0  0  0  0
  -21.6662  -26.7431   22.1205 H   0  0  0  0  0  0
  -19.6938  -25.6277   21.1283 H   0  0  0  0  0  0
  -19.6720  -27.3160   20.6724 H   0  0  0  0  0  0
  -17.4229  -26.6680   21.4023 H   0  0  0  0  0  0
  -18.0346  -26.0097   22.9031 H   0  0  0  0  0  0
  -19.7956  -30.7322   24.2204 H   0  0  0  0  0  0
  -17.5025  -31.6272   24.5162 H   0  0  0  0  0  0
  -15.5365  -30.2966   23.7699 H   0  0  0  0  0  0
  -15.8694  -28.0811   22.7090 H   0  0  0  0  0  0
  -24.5845  -30.7166   25.7654 H   0  0  0  0  0  0
  -24.8901  -32.2974   26.4738 H   0  0  0  0  0  0
  -25.7913  -30.8951   27.0189 H   0  0  0  0  0  0
  -26.3072  -29.6612   24.1394 H   0  0  0  0  0  0
  -27.3969  -29.7270   25.5031 H   0  0  0  0  0  0
  -27.9018  -30.4114   23.9790 H   0  0  0  0  0  0
  -27.2617  -33.3654   26.2015 H   0  0  0  0  0  0
  -28.3887  -32.6885   25.0354 H   0  0  0  0  0  0
  -28.0693  -31.8520   26.5474 H   0  0  0  0  0  0
  -28.2570  -38.0087   24.7517 H   0  0  0  0  0  0
  -28.1099  -36.2614   24.6271 H   0  0  0  0  0  0
  -27.2295  -37.1388   25.8863 H   0  0  0  0  0  0
  -20.9561  -29.8724   21.6690 H   0  0  0  0  0  0
  -26.0139  -38.2780   24.1413 H   0  0  0  0  0  0
  -28.8227  -20.7154   18.2798 H   0  0  0  0  0  0
  -29.8519  -18.4783   22.5040 H   0  0  0  0  0  0
  -28.8828  -18.7342   17.1234 H   0  0  0  0  0  0
  -28.1408  -17.4171   18.0336 H   0  0  0  0  0  0
  -29.8845  -17.4222   17.7456 H   0  0  0  0  0  0
  -29.5703  -20.4289   23.6856 H   0  0  0  0  0  0
  -28.8614  -21.8746   22.9803 H   0  0  0  0  0  0
  -30.6037  -21.5997   22.8653 H   0  0  0  0  0  0
  -29.8077  -23.1214   19.4213 H   0  0  0  0  0  0
  -29.7892  -23.2226   21.1203 H   0  0  0  0  0  0
  -27.2935  -24.1296   20.9842 H   0  0  0  0  0  0
  -27.4592  -24.1393   19.2672 H   0  0  0  0  0  0
  -28.6565  -16.0555   20.7475 H   0  0  0  0  0  0
  1 25  1  0  0  0
  1 30  2  0  0  0
  1 81  1  0  0  0
  2  3  1  0  0  0
  2 25  1  0  0  0
  2 82  1  0  0  0
  2 83  1  0  0  0
  3  4  1  0  0  0
  3 84  1  0  0  0
  3 85  1  0  0  0
  4  5  1  0  0  0
  4 86  1  0  0  0
  4 87  1  0  0  0
  5  6  1  0  0  0
  5 26  1  0  0  0
  5 88  1  0  0  0
  6 25  1  0  0  0
  6 89  1  0  0  0
  6 90  1  0  0  0
  7  8  2  0  0  0
  7 26  1  0  0  0
  7 29  1  0  0  0
  8  9  1  0  0  0
  8 22  1  0  0  0
  9 10  1  0  0  0
  9 27  2  0  0  0
 10 11  2  0  0  0
 10 15  1  0  0  0
 11 12  1  0  0  0
 11 91  1  0  0  0
 12 13  2  0  0  0
 12 92  1  0  0  0
 13 14  1  0  0  0
 13 31  1  0  0  0
 14 15  2  0  0  0
 14 93  1  0  0  0
 15 94  1  0  0  0
 16 17  2  0  0  0
 16 21  1  0  0  0
 16 31  1  0  0  0
 17 18  1  0  0  0
 17 95  1  0  0  0
 18 19  2  0  0  0
 18 96  1  0  0  0
 19 20  1  0  0  0
 19 24  1  0  0  0
 20 21  2  0  0  0
 20 97  1  0  0  0
 21 23  1  0  0  0
 22 28  1  0  0  0
 22 32  2  0  0  0
 26 27  1  0  0  0
 28 98  1  0  0  0
 28 99  1  0  0  0
 29100  1  0  0  0
 29101  1  0  0  0
 33 34  1  0  0  0
 33 66  1  0  0  0
 33 70  2  0  0  0
 34 36  1  0  0  0
 34 59  1  0  0  0
 34102  1  0  0  0
 35 44  2  0  0  0
 35 45  1  0  0  0
 35 68  1  0  0  0
 36 56  1  0  0  0
 36103  1  0  0  0
 37 39  1  0  0  0
 37 47  1  0  0  0
 37 66  1  0  0  0
 37104  1  0  0  0
 38 43  2  0  0  0
 38 46  1  0  0  0
 38 47  1  0  0  0
 39 64  1  0  0  0
 39 67  2  0  0  0
 40 52  1  0  0  0
 40 53  2  0  0  0
 40 58  1  0  0  0
 41105  1  0  0  0
 41106  1  0  0  0
 41107  1  0  0  0
 41 48  1  0  0  0
 42 43  1  0  0  0
 42 66  1  0  0  0
 42108  1  0  0  0
 42109  1  0  0  0
 43 44  1  0  0  0
 44110  1  0  0  0
 45 46  2  0  0  0
 45111  1  0  0  0
 46112  1  0  0  0
 47113  1  0  0  0
 47114  1  0  0  0
 48 56  1  0  0  0
 48 65  1  0  0  0
 48115  1  0  0  0
 49 50  1  0  0  0
 49 53  1  0  0  0
 49 64  1  0  0  0
 49116  1  0  0  0
 50 51  1  0  0  0
 50117  1  0  0  0
 50118  1  0  0  0
 51 52  1  0  0  0
 51119  1  0  0  0
 51120  1  0  0  0
 52121  1  0  0  0
 52122  1  0  0  0
 53 54  1  0  0  0
 54 55  2  0  0  0
 54123  1  0  0  0
 55 57  1  0  0  0
 55124  1  0  0  0
 56 69  2  0  0  0
 57 58  2  0  0  0
 57125  1  0  0  0
 58126  1  0  0  0
 59 60  1  0  0  0
 59 61  1  0  0  0
 59 62  1  0  0  0
 60127  1  0  0  0
 60128  1  0  0  0
 60129  1  0  0  0
 61130  1  0  0  0
 61131  1  0  0  0
 61132  1  0  0  0
 62133  1  0  0  0
 62134  1  0  0  0
 62135  1  0  0  0
 63 65  1  0  0  0
 63136  1  0  0  0
 63137  1  0  0  0
 63138  1  0  0  0
 64139  1  0  0  0
 65140  1  0  0  0
 68 80  1  0  0  0
 71 73  2  0  0  0
 71 74  1  0  0  0
 71141  1  0  0  0
 72 75  2  0  0  0
 72 76  1  0  0  0
 72142  1  0  0  0
 73 75  1  0  0  0
 73 79  1  0  0  0
 74 76  2  0  0  0
 74 77  1  0  0  0
 75 78  1  0  0  0
 76 81  1  0  0  0
 77143  1  0  0  0
 77144  1  0  0  0
 77145  1  0  0  0
 78146  1  0  0  0
 78147  1  0  0  0
 78148  1  0  0  0
 79 80  1  0  0  0
 79149  1  0  0  0
 79150  1  0  0  0
 80151  1  0  0  0
 80152  1  0  0  0
 81153  1  0  0  0
M  ISO  4   1 100  68 101  80 101  81 100
M  END
> <chiral flag>
0

> <version>
0

> <s_m_source_file>
/data/baiqing/PycharmProjects/Reinvent-master-3.2/result/LINK_invent/BTK/process_docking_weight1_custom_sum_contain_oxygen_bond_distance_aromatic_linkinvent_7_9_3/rearranged_h_0022.sdf

> <i_m_source_file_index>
11

> <r_mmod_Potential_Energy-OPLS-2005>
1022.21630859375

> <r_mmod_Stretch_Energy-OPLS-2005>
453.116027832031

> <r_mmod_Bend_Energy-OPLS-2005>
393.631103515625

> <r_mmod_Torsional_Energy-OPLS-2005>
249.855331420898

> <r_mmod_Improper_Torsional_Energy-OPLS-2005>
8.14629745483398

> <r_mmod_Van_der_Waal_Energy-OPLS-2005>
126.317161560059

> <r_mmod_Electrostatic_Energy-OPLS-2005>
-379.470703125

> <r_mmod_Solvation_Energy-OPLS-2005>
-209.341781616211

> <b_mmod_Minimization_Converged-OPLS-2005>
0

> <r_mmod_RMS_Derivative-OPLS-2005>
1.38970375061035

$$$$
11
                    3D
 Structure written by MMmdl.
189197  0  0  1  0            999 V2000
  -30.7408  -14.4293   20.6318 C   0  0  0  0  0  0
  -30.4184  -12.3103   19.4072 C   0  0  0  0  0  0
  -29.4864  -12.5203   18.1985 C   0  0  0  0  0  0
  -28.0110  -12.3735   18.6146 C   0  0  0  0  0  0
  -27.6619  -13.2078   19.8756 C   0  0  2  0  0  0
  -28.7027  -12.9800   20.9940 C   0  0  0  0  0  0
  -25.2586  -13.8163   20.5680 C   0  0  0  0  0  0
  -24.1837  -13.0439   20.9166 C   0  0  0  0  0  0
  -24.6393  -11.6905   20.8730 C   0  0  0  0  0  0
  -23.9061  -10.4293   21.0401 C   0  0  0  0  0  0
  -24.3613   -9.4211   21.9181 C   0  0  0  0  0  0
  -23.6290   -8.2248   22.0755 C   0  0  0  0  0  0
  -22.4273   -8.0283   21.3544 C   0  0  0  0  0  0
  -21.9909   -9.0256   20.4644 C   0  0  0  0  0  0
  -22.7236  -10.2134   20.3051 C   0  0  0  0  0  0
  -21.6853   -6.0736   22.5280 C   0  0  0  0  0  0
  -21.4012   -6.5641   23.8213 C   0  0  0  0  0  0
  -21.3659   -5.6794   24.9176 C   0  0  0  0  0  0
  -21.6042   -4.3056   24.7225 C   0  0  0  0  0  0
  -21.8821   -3.8147   23.4347 C   0  0  0  0  0  0
  -21.9193   -4.6963   22.3403 C   0  0  0  0  0  0
  -22.7860  -13.5237   21.1835 C   0  0  0  0  0  0
  -22.1663   -4.2151   21.0979 F   0  0  0  0  0  0
  -21.5629   -3.4539   25.7737 F   0  0  0  0  0  0
  -30.0367  -13.2808   20.4450 N   0  0  0  0  0  0
  -26.3026  -12.9339   20.3371 N   0  0  0  0  0  0
  -25.9321  -11.6495   20.5760 N   0  0  0  0  0  0
  -22.0500  -12.8224   22.0385 N   0  0  0  0  0  0
  -25.4317  -15.1883   20.4104 N   0  0  0  0  0  0
  -31.8253  -14.6465   20.0881 O   0  0  0  0  0  0
  -21.6639   -6.8879   21.4241 O   0  0  0  0  0  0
  -22.3551  -14.5551   20.6695 O   0  0  0  0  0  0
  -24.6140  -31.8682   23.2114 C   0  0  0  0  0  0
  -25.9035  -32.4821   23.8407 C   0  0  1  0  0  0
  -27.2338  -27.4310   20.0945 C   0  0  0  0  0  0
  -25.5892  -33.8619   24.2335 N   0  0  0  0  0  0
  -23.4014  -30.4920   21.5519 C   0  0  2  0  0  0
  -24.8463  -28.9577   20.1146 C   0  0  0  0  0  0
  -22.7404  -29.4663   22.4997 C   0  0  0  0  0  0
  -18.0271  -28.1377   22.8495 C   0  0  0  0  0  0
  -24.1482  -36.7320   23.2640 C   0  0  0  0  0  0
  -25.9301  -30.8312   21.3658 C   0  0  0  0  0  0
  -26.0053  -29.4654   20.7130 C   0  0  0  0  0  0
  -27.1985  -28.7085   20.7009 C   0  0  0  0  0  0
  -26.0567  -26.9445   19.4783 C   0  0  0  0  0  0
  -24.8670  -27.6964   19.4958 C   0  0  0  0  0  0
  -23.6086  -29.8246   20.1665 C   0  0  0  0  0  0
  -25.4105  -36.3114   24.0339 C   0  0  1  0  0  0
  -20.5861  -28.3664   23.1323 C   0  0  2  0  0  0
  -20.6760  -26.9401   22.5421 C   0  0  0  0  0  0
  -19.5744  -26.6391   21.5213 C   0  0  0  0  0  0
  -18.1920  -26.7928   22.1619 C   0  0  0  0  0  0
  -19.1519  -28.8836   23.2909 C   0  0  0  0  0  0
  -18.9446  -30.1440   23.8922 C   0  0  0  0  0  0
  -17.6450  -30.6586   24.0566 C   0  0  0  0  0  0
  -25.9029  -34.9473   23.5137 C   0  0  0  0  0  0
  -16.5340  -29.9087   23.6328 C   0  0  0  0  0  0
  -16.7260  -28.6501   23.0352 C   0  0  0  0  0  0
  -26.4468  -31.6598   25.0731 C   0  0  0  0  0  0
  -25.3739  -31.3678   26.1482 C   0  0  0  0  0  0
  -27.0312  -30.3049   24.6103 C   0  0  0  0  0  0
  -27.6049  -32.4317   25.7492 C   0  0  0  0  0  0
  -27.5581  -37.1817   24.8466 C   0  0  0  0  0  0
  -21.4134  -29.3028   22.3728 N   0  0  0  0  0  0
  -26.4296  -37.3796   23.9407 N   0  0  0  0  0  0
  -24.6670  -31.0782   22.1014 N   0  0  0  0  0  0
  -23.4181  -28.8208   23.3039 O   0  0  0  0  0  0
  -28.4194  -26.7216   20.1243 O   0  0  0  0  0  0
  -26.5593  -34.8920   22.4698 O   0  0  0  0  0  0
  -23.5334  -32.1435   23.7509 O   0  0  0  0  0  0
  -29.6120  -22.1852   18.3781 C   0  0  0  0  0  0
  -29.9358  -22.3090   19.7400 C   0  0  0  0  0  0
  -29.8734  -21.1558   20.5773 C   0  0  0  0  0  0
  -29.5641  -19.8736   20.0178 C   0  0  0  0  0  0
  -29.3210  -19.7672   18.6146 C   0  0  0  0  0  0
  -29.3081  -20.9375   17.8181 C   0  0  0  0  0  0
  -30.1549  -21.2785   22.0735 C   0  0  0  0  0  0
  -29.1885  -15.1776   14.7582 C   0  0  0  0  0  0
  -32.1429  -14.8748   16.1493 C   0  0  0  0  0  0
  -32.8287  -16.9175   17.3393 C   0  0  0  0  0  0
  -32.3621  -17.0364   14.8830 C   0  0  0  0  0  0
  -30.4442  -23.6784   20.2087 C   0  0  0  0  0  0
  -29.4972  -18.6195   20.9181 C   0  0  0  0  0  0
  -29.1149  -18.4230   17.9081 C   0  0  0  0  0  0
  -29.3786  -16.5812   15.3506 C   0  0  0  0  0  0
  -29.4090  -24.6156   20.8692 C   0  0  0  0  0  0
  -30.7913  -17.7757   20.9077 C   0  0  0  0  0  0
  -30.8121  -16.5853   21.9010 C   0  0  0  0  0  0
  -28.4098  -25.3000   19.9084 C   0  0  0  0  0  0
  -30.3918  -16.7301   16.5265 C   0  0  1  0  0  0
  -31.8994  -16.3999   16.2107 C   0  0  0  0  0  0
  -30.1657  -15.3561   21.4172 N   0  0  0  0  0  0
  -30.2972  -18.1043   17.0747 N   0  3  0  0  0  0
  -28.9921  -20.8645   16.1180 Cl  0  0  0  0  0  0
  -31.4612  -12.4112   19.1003 H   0  0  0  0  0  0
  -30.3210  -11.2947   19.7941 H   0  0  0  0  0  0
  -29.7259  -11.8090   17.4069 H   0  0  0  0  0  0
  -29.6481  -13.5129   17.7779 H   0  0  0  0  0  0
  -27.8240  -11.3165   18.8064 H   0  0  0  0  0  0
  -27.3573  -12.6516   17.7873 H   0  0  0  0  0  0
  -27.7099  -14.2579   19.5862 H   0  0  0  0  0  0
  -28.6761  -11.9423   21.3298 H   0  0  0  0  0  0
  -28.4560  -13.5728   21.8753 H   0  0  0  0  0  0
  -25.2759   -9.5688   22.4753 H   0  0  0  0  0  0
  -23.9999   -7.4640   22.7477 H   0  0  0  0  0  0
  -21.0841   -8.8772   19.8948 H   0  0  0  0  0  0
  -22.3697  -10.9670   19.6157 H   0  0  0  0  0  0
  -21.2006   -7.6148   23.9716 H   0  0  0  0  0  0
  -21.1477   -6.0523   25.9079 H   0  0  0  0  0  0
  -22.0601   -2.7611   23.2846 H   0  0  0  0  0  0
  -22.4106  -11.9870   22.4755 H   0  0  0  0  0  0
  -21.1117  -13.1250   22.2590 H   0  0  0  0  0  0
  -24.6674  -15.8451   20.5238 H   0  0  0  0  0  0
  -26.2927  -15.6286   20.1141 H   0  0  0  0  0  0
  -26.7099  -32.5536   23.1165 H   0  0  0  0  0  0
  -25.0025  -33.9776   25.0471 H   0  0  0  0  0  0
  -22.6901  -31.3091   21.4143 H   0  0  0  0  0  0
  -23.3738  -35.9659   23.3311 H   0  0  0  0  0  0
  -24.3576  -36.8934   22.2056 H   0  0  0  0  0  0
  -23.7231  -37.6522   23.6653 H   0  0  0  0  0  0
  -26.0429  -31.5971   20.5974 H   0  0  0  0  0  0
  -26.8179  -30.8847   21.9844 H   0  0  0  0  0  0
  -28.0927  -29.0974   21.1682 H   0  0  0  0  0  0
  -26.0374  -25.9923   18.9690 H   0  0  0  0  0  0
  -23.9774  -27.3026   19.0231 H   0  0  0  0  0  0
  -23.7151  -30.5994   19.4063 H   0  0  0  0  0  0
  -22.7326  -29.2433   19.8732 H   0  0  0  0  0  0
  -25.1281  -36.1990   25.0830 H   0  0  0  0  0  0
  -20.9953  -28.3226   24.1446 H   0  0  0  0  0  0
  -20.5661  -26.2268   23.3606 H   0  0  0  0  0  0
  -21.6632  -26.7444   22.1217 H   0  0  0  0  0  0
  -19.6903  -25.6308   21.1225 H   0  0  0  0  0  0
  -19.6687  -27.3210   20.6753 H   0  0  0  0  0  0
  -17.4196  -26.6693   21.4011 H   0  0  0  0  0  0
  -18.0304  -26.0060   22.9001 H   0  0  0  0  0  0
  -19.7922  -30.7246   24.2307 H   0  0  0  0  0  0
  -17.5006  -31.6268   24.5163 H   0  0  0  0  0  0
  -15.5339  -30.2993   23.7643 H   0  0  0  0  0  0
  -15.8661  -28.0822   22.7061 H   0  0  0  0  0  0
  -24.5940  -30.6996   25.7814 H   0  0  0  0  0  0
  -24.8891  -32.2812   26.4934 H   0  0  0  0  0  0
  -25.8109  -30.8854   27.0237 H   0  0  0  0  0  0
  -26.2859  -29.6799   24.1172 H   0  0  0  0  0  0
  -27.4106  -29.7296   25.4561 H   0  0  0  0  0  0
  -27.8681  -30.4383   23.9246 H   0  0  0  0  0  0
  -27.2679  -33.3618   26.2081 H   0  0  0  0  0  0
  -28.3846  -32.6873   25.0302 H   0  0  0  0  0  0
  -28.0727  -31.8432   26.5394 H   0  0  0  0  0  0
  -28.2601  -38.0111   24.7510 H   0  0  0  0  0  0
  -28.1075  -36.2643   24.6297 H   0  0  0  0  0  0
  -27.2302  -37.1477   25.8869 H   0  0  0  0  0  0
  -20.9291  -29.8743   21.6945 H   0  0  0  0  0  0
  -26.0192  -38.2878   24.1396 H   0  0  0  0  0  0
  -29.6462  -23.0515   17.7325 H   0  0  0  0  0  0
  -30.4302  -22.2780   22.3987 H   0  0  0  0  0  0
  -30.9661  -20.6119   22.3672 H   0  0  0  0  0  0
  -29.2659  -21.0140   22.6462 H   0  0  0  0  0  0
  -28.2704  -15.1355   14.1711 H   0  0  0  0  0  0
  -29.1159  -14.4152   15.5338 H   0  0  0  0  0  0
  -29.9953  -14.9133   14.0766 H   0  0  0  0  0  0
  -33.2059  -14.6481   16.0590 H   0  0  0  0  0  0
  -31.6675  -14.3927   15.3007 H   0  0  0  0  0  0
  -31.7915  -14.3755   17.0527 H   0  0  0  0  0  0
  -33.8608  -16.6039   17.1740 H   0  0  0  0  0  0
  -32.5399  -16.5226   18.3137 H   0  0  0  0  0  0
  -32.8601  -18.0052   17.4094 H   0  0  0  0  0  0
  -33.4225  -16.8513   14.7062 H   0  0  0  0  0  0
  -32.2213  -18.1176   14.8760 H   0  0  0  0  0  0
  -31.8278  -16.6282   14.0249 H   0  0  0  0  0  0
  -30.8892  -24.1993   19.3588 H   0  0  0  0  0  0
  -31.2883  -23.5306   20.8821 H   0  0  0  0  0  0
  -28.6383  -18.0049   20.6515 H   0  0  0  0  0  0
  -29.2738  -18.8982   21.9457 H   0  0  0  0  0  0
  -28.2156  -18.4786   17.2945 H   0  0  0  0  0  0
  -28.9372  -17.6056   18.6010 H   0  0  0  0  0  0
  -28.3923  -16.8842   15.7013 H   0  0  0  0  0  0
  -29.6168  -17.2784   14.5465 H   0  0  0  0  0  0
  -29.9712  -25.3998   21.3773 H   0  0  0  0  0  0
  -28.8730  -24.0923   21.6618 H   0  0  0  0  0  0
  -31.6139  -18.4399   21.1772 H   0  0  0  0  0  0
  -31.0209  -17.4255   19.9040 H   0  0  0  0  0  0
  -30.3528  -16.8764   22.8465 H   0  0  0  0  0  0
  -31.8498  -16.3503   22.1476 H   0  0  0  0  0  0
  -27.4380  -24.8411   20.0874 H   0  0  0  0  0  0
  -28.6683  -25.1095   18.8662 H   0  0  0  0  0  0
  -30.0799  -16.0539   17.3250 H   0  0  0  0  0  0
  -29.2698  -15.1154   21.8161 H   0  0  0  0  0  0
  -31.1162  -18.2332   17.6481 H   0  0  0  0  0  0
  -30.3467  -18.7756   16.3229 H   0  0  0  0  0  0
  1 25  1  0  0  0
  1 30  2  0  0  0
  1 92  1  0  0  0
  2  3  1  0  0  0
  2 25  1  0  0  0
  2 95  1  0  0  0
  2 96  1  0  0  0
  3  4  1  0  0  0
  3 97  1  0  0  0
  3 98  1  0  0  0
  4  5  1  0  0  0
  4 99  1  0  0  0
  4100  1  0  0  0
  5  6  1  0  0  0
  5 26  1  0  0  0
  5101  1  0  0  0
  6 25  1  0  0  0
  6102  1  0  0  0
  6103  1  0  0  0
  7  8  2  0  0  0
  7 26  1  0  0  0
  7 29  1  0  0  0
  8  9  1  0  0  0
  8 22  1  0  0  0
  9 10  1  0  0  0
  9 27  2  0  0  0
 10 11  2  0  0  0
 10 15  1  0  0  0
 11 12  1  0  0  0
 11104  1  0  0  0
 12 13  2  0  0  0
 12105  1  0  0  0
 13 14  1  0  0  0
 13 31  1  0  0  0
 14 15  2  0  0  0
 14106  1  0  0  0
 15107  1  0  0  0
 16 17  2  0  0  0
 16 21  1  0  0  0
 16 31  1  0  0  0
 17 18  1  0  0  0
 17108  1  0  0  0
 18 19  2  0  0  0
 18109  1  0  0  0
 19 20  1  0  0  0
 19 24  1  0  0  0
 20 21  2  0  0  0
 20110  1  0  0  0
 21 23  1  0  0  0
 22 28  1  0  0  0
 22 32  2  0  0  0
 26 27  1  0  0  0
 28111  1  0  0  0
 28112  1  0  0  0
 29113  1  0  0  0
 29114  1  0  0  0
 33 34  1  0  0  0
 33 66  1  0  0  0
 33 70  2  0  0  0
 34 36  1  0  0  0
 34 59  1  0  0  0
 34115  1  0  0  0
 35 44  2  0  0  0
 35 45  1  0  0  0
 35 68  1  0  0  0
 36 56  1  0  0  0
 36116  1  0  0  0
 37 39  1  0  0  0
 37 47  1  0  0  0
 37 66  1  0  0  0
 37117  1  0  0  0
 38 43  2  0  0  0
 38 46  1  0  0  0
 38 47  1  0  0  0
 39 64  1  0  0  0
 39 67  2  0  0  0
 40 52  1  0  0  0
 40 53  2  0  0  0
 40 58  1  0  0  0
 41118  1  0  0  0
 41119  1  0  0  0
 41120  1  0  0  0
 41 48  1  0  0  0
 42 43  1  0  0  0
 42 66  1  0  0  0
 42121  1  0  0  0
 42122  1  0  0  0
 43 44  1  0  0  0
 44123  1  0  0  0
 45 46  2  0  0  0
 45124  1  0  0  0
 46125  1  0  0  0
 47126  1  0  0  0
 47127  1  0  0  0
 48 56  1  0  0  0
 48 65  1  0  0  0
 48128  1  0  0  0
 49 50  1  0  0  0
 49 53  1  0  0  0
 49 64  1  0  0  0
 49129  1  0  0  0
 50 51  1  0  0  0
 50130  1  0  0  0
 50131  1  0  0  0
 51 52  1  0  0  0
 51132  1  0  0  0
 51133  1  0  0  0
 52134  1  0  0  0
 52135  1  0  0  0
 53 54  1  0  0  0
 54 55  2  0  0  0
 54136  1  0  0  0
 55 57  1  0  0  0
 55137  1  0  0  0
 56 69  2  0  0  0
 57 58  2  0  0  0
 57138  1  0  0  0
 58139  1  0  0  0
 59 60  1  0  0  0
 59 61  1  0  0  0
 59 62  1  0  0  0
 60140  1  0  0  0
 60141  1  0  0  0
 60142  1  0  0  0
 61143  1  0  0  0
 61144  1  0  0  0
 61145  1  0  0  0
 62146  1  0  0  0
 62147  1  0  0  0
 62148  1  0  0  0
 63 65  1  0  0  0
 63149  1  0  0  0
 63150  1  0  0  0
 63151  1  0  0  0
 64152  1  0  0  0
 65153  1  0  0  0
 68 89  1  0  0  0
 71 72  2  0  0  0
 71 76  1  0  0  0
 71154  1  0  0  0
 72 73  1  0  0  0
 72 82  1  0  0  0
 73 74  2  0  0  0
 73 77  1  0  0  0
 74 75  1  0  0  0
 74 83  1  0  0  0
 75 76  2  0  0  0
 75 84  1  0  0  0
 76 94  1  0  0  0
 77155  1  0  0  0
 77156  1  0  0  0
 77157  1  0  0  0
 78 85  1  0  0  0
 78158  1  0  0  0
 78159  1  0  0  0
 78160  1  0  0  0
 79161  1  0  0  0
 79162  1  0  0  0
 79163  1  0  0  0
 79 91  1  0  0  0
 80 91  1  0  0  0
 80164  1  0  0  0
 80165  1  0  0  0
 80166  1  0  0  0
 81 91  1  0  0  0
 81167  1  0  0  0
 81168  1  0  0  0
 81169  1  0  0  0
 82 86  1  0  0  0
 82170  1  0  0  0
 82171  1  0  0  0
 83 87  1  0  0  0
 83172  1  0  0  0
 83173  1  0  0  0
 84 93  1  0  0  0
 84174  1  0  0  0
 84175  1  0  0  0
 85176  1  0  0  0
 85177  1  0  0  0
 85 90  1  0  0  0
 86 89  1  0  0  0
 86178  1  0  0  0
 86179  1  0  0  0
 87 88  1  0  0  0
 87180  1  0  0  0
 87181  1  0  0  0
 88 92  1  0  0  0
 88182  1  0  0  0
 88183  1  0  0  0
 89184  1  0  0  0
 89185  1  0  0  0
 90 91  1  0  0  0
 90 93  1  0  0  0
 90186  1  0  0  0
 92187  1  0  0  0
 93188  1  0  0  0
 93189  1  0  0  0
M  CHG  1  93   1
M  ISO  4   1 100  68 101  89 101  92 100
M  END
> <chiral flag>
0

> <version>
0

> <s_m_source_file>
/data/baiqing/PycharmProjects/Reinvent-master-3.2/result/LINK_invent/BTK/process_docking_weight1_custom_sum_contain_oxygen_bond_distance_aromatic_linkinvent_7_9_3/rearranged_h_0022.sdf

> <i_m_source_file_index>
12

> <r_mmod_Potential_Energy-OPLS-2005>
-205.32194519043

> <r_mmod_Stretch_Energy-OPLS-2005>
46.934440612793

> <r_mmod_Bend_Energy-OPLS-2005>
125.540428161621

> <r_mmod_Torsional_Energy-OPLS-2005>
244.899658203125

> <r_mmod_Improper_Torsional_Energy-OPLS-2005>
2.37918853759766

> <r_mmod_Van_der_Waal_Energy-OPLS-2005>
151.417282104492

> <r_mmod_Electrostatic_Energy-OPLS-2005>
-383.169128417969

> <r_mmod_Solvation_Energy-OPLS-2005>
-403.873046875

> <b_mmod_Minimization_Converged-OPLS-2005>
0

> <r_mmod_RMS_Derivative-OPLS-2005>
0.709108650684357

$$$$
12
                    3D
 Structure written by MMmdl.
159167  0  0  1  0            999 V2000
  -30.2223  -15.7540   20.3206 C   0  0  0  0  0  0
  -30.4135  -13.1583   19.5992 C   0  0  0  0  0  0
  -29.5692  -12.7541   18.3508 C   0  0  0  0  0  0
  -28.1225  -12.3985   18.7221 C   0  0  0  0  0  0
  -27.5905  -13.3466   19.8192 C   0  0  2  0  0  0
  -28.5862  -13.6791   20.9582 C   0  0  0  0  0  0
  -25.2227  -13.8377   20.5784 C   0  0  0  0  0  0
  -24.1645  -13.0436   20.9272 C   0  0  0  0  0  0
  -24.6410  -11.6971   20.8676 C   0  0  0  0  0  0
  -23.9132  -10.4300   21.0326 C   0  0  0  0  0  0
  -24.3687   -9.4224   21.9089 C   0  0  0  0  0  0
  -23.6346   -8.2261   22.0683 C   0  0  0  0  0  0
  -22.4313   -8.0291   21.3525 C   0  0  0  0  0  0
  -21.9956   -9.0246   20.4596 C   0  0  0  0  0  0
  -22.7288  -10.2125   20.2978 C   0  0  0  0  0  0
  -21.6864   -6.0712   22.5259 C   0  0  0  0  0  0
  -21.4048   -6.5608   23.8211 C   0  0  0  0  0  0
  -21.3683   -5.6755   24.9175 C   0  0  0  0  0  0
  -21.6067   -4.3026   24.7218 C   0  0  0  0  0  0
  -21.8816   -3.8110   23.4331 C   0  0  0  0  0  0
  -21.9223   -4.6933   22.3386 C   0  0  0  0  0  0
  -22.7663  -13.5121   21.1942 C   0  0  0  0  0  0
  -22.1662   -4.2128   21.0954 F   0  0  0  0  0  0
  -21.5676   -3.4485   25.7731 F   0  0  0  0  0  0
  -29.7648  -14.3461   20.3486 N   0  0  0  0  0  0
  -26.2700  -12.9752   20.3153 N   0  0  0  0  0  0
  -25.9368  -11.6799   20.5539 N   0  0  0  0  0  0
  -22.0349  -12.8056   22.0519 N   0  0  0  0  0  0
  -25.3806  -15.2116   20.4318 N   0  0  0  0  0  0
  -31.4245  -15.7016   19.9844 O   0  0  0  0  0  0
  -21.6677   -6.8872   21.4223 O   0  0  0  0  0  0
  -22.3282  -14.5366   20.6754 O   0  0  0  0  0  0
  -24.6852  -31.7934   23.1467 C   0  0  0  0  0  0
  -25.9415  -32.4450   23.8024 C   0  0  1  0  0  0
  -27.1830  -26.5870   20.2387 C   0  0  0  0  0  0
  -25.5991  -33.8298   24.1922 N   0  0  0  0  0  0
  -23.5115  -30.3897   21.5058 C   0  0  2  0  0  0
  -24.9626  -28.7127   20.1039 C   0  0  0  0  0  0
  -22.7735  -29.4270   22.4728 C   0  0  0  0  0  0
  -18.0334  -28.1425   22.8477 C   0  0  0  0  0  0
  -24.1491  -36.7131   23.2658 C   0  0  0  0  0  0
  -26.0920  -30.4837   21.4315 C   0  0  0  0  0  0
  -26.1441  -29.0375   20.7764 C   0  0  0  0  0  0
  -27.2242  -27.9983   20.8205 C   0  0  0  0  0  0
  -25.9912  -26.5049   19.4668 C   0  0  0  0  0  0
  -24.9345  -27.4779   19.4221 C   0  0  0  0  0  0
  -23.7633  -29.6842   20.1364 C   0  0  0  0  0  0
  -25.4156  -36.2919   24.0290 C   0  0  1  0  0  0
  -20.5959  -28.3774   23.1181 C   0  0  2  0  0  0
  -20.6821  -26.9435   22.5449 C   0  0  0  0  0  0
  -19.5796  -26.6374   21.5267 C   0  0  0  0  0  0
  -18.1948  -26.7965   22.1624 C   0  0  0  0  0  0
  -19.1587  -28.8932   23.2806 C   0  0  0  0  0  0
  -18.9493  -30.1516   23.8840 C   0  0  0  0  0  0
  -17.6484  -30.6623   24.0556 C   0  0  0  0  0  0
  -25.9134  -34.9298   23.4974 C   0  0  0  0  0  0
  -16.5373  -29.9074   23.6362 C   0  0  0  0  0  0
  -16.7316  -28.6487   23.0388 C   0  0  0  0  0  0
  -26.4574  -31.6502   25.0657 C   0  0  0  0  0  0
  -25.3619  -31.3798   26.1252 C   0  0  0  0  0  0
  -27.0544  -30.2851   24.6603 C   0  0  0  0  0  0
  -27.6030  -32.4360   25.7475 C   0  0  0  0  0  0
  -27.5577  -37.1741   24.8462 C   0  0  0  0  0  0
  -21.4380  -29.3009   22.3465 N   0  0  0  0  0  0
  -26.4292  -37.3683   23.9394 N   0  0  0  0  0  0
  -24.7880  -30.9231   22.0812 N   0  0  0  0  0  0
  -23.4158  -28.7934   23.3130 O   0  0  0  0  0  0
  -28.0946  -25.3285   20.5115 O   0  0  0  0  0  0
  -26.5775  -34.8882   22.4583 O   0  0  0  0  0  0
  -23.5865  -32.1103   23.6359 O   0  0  0  0  0  0
  -27.3006  -21.2353   19.3550 C   0  0  0  0  0  0
  -27.2509  -19.9001   18.7822 C   0  0  0  0  0  0
  -28.3720  -21.7232   20.1701 C   0  0  0  0  0  0
  -28.1769  -18.8193   19.0554 C   0  0  0  0  0  0
  -29.1496  -20.3473   20.6257 C   0  0  0  0  0  0
  -29.0638  -18.7819   20.1629 C   0  0  0  0  0  0
  -26.1687  -22.2061   19.0241 C   0  0  0  0  0  0
  -26.1436  -19.6208   17.7497 C   0  0  0  0  0  0
  -28.3068  -17.6482   18.0861 C   0  0  0  0  0  0
  -30.1692  -20.5676   21.7228 C   0  0  0  0  0  0
  -29.9881  -23.8517   20.8465 C   0  0  0  0  0  0
  -28.6412  -23.6342   20.1427 C   0  0  2  0  0  0
  -29.4953  -17.1303   20.6366 N   0  0  0  0  0  0
  -31.4129  -13.4211   19.2568 H   0  0  0  0  0  0
  -30.5773  -12.3030   20.2569 H   0  0  0  0  0  0
  -30.0411  -11.9351   17.8091 H   0  0  0  0  0  0
  -29.5546  -13.6078   17.6698 H   0  0  0  0  0  0
  -28.0855  -11.3605   19.0488 H   0  0  0  0  0  0
  -27.4949  -12.4651   17.8327 H   0  0  0  0  0  0
  -27.4486  -14.2868   19.2859 H   0  0  0  0  0  0
  -28.8464  -12.7918   21.5402 H   0  0  0  0  0  0
  -28.1207  -14.3748   21.6598 H   0  0  0  0  0  0
  -25.2841   -9.5705   22.4658 H   0  0  0  0  0  0
  -24.0057   -7.4655   22.7395 H   0  0  0  0  0  0
  -21.0887   -8.8738   19.8917 H   0  0  0  0  0  0
  -22.3699  -10.9645   19.6091 H   0  0  0  0  0  0
  -21.1999   -7.6107   23.9708 H   0  0  0  0  0  0
  -21.1535   -6.0474   25.9082 H   0  0  0  0  0  0
  -22.0582   -2.7551   23.2827 H   0  0  0  0  0  0
  -22.3972  -11.9788   22.5014 H   0  0  0  0  0  0
  -21.0906  -13.0993   22.2619 H   0  0  0  0  0  0
  -24.6231  -15.8716   20.5921 H   0  0  0  0  0  0
  -26.2167  -15.6568   20.0742 H   0  0  0  0  0  0
  -26.7477  -32.4894   23.0697 H   0  0  0  0  0  0
  -25.0048  -33.9350   25.0031 H   0  0  0  0  0  0
  -22.8428  -31.2326   21.3200 H   0  0  0  0  0  0
  -23.3832  -35.9375   23.3268 H   0  0  0  0  0  0
  -24.3542  -36.8839   22.2078 H   0  0  0  0  0  0
  -23.7150  -37.6250   23.6763 H   0  0  0  0  0  0
  -26.3013  -31.2099   20.6459 H   0  0  0  0  0  0
  -26.9411  -30.5512   22.0969 H   0  0  0  0  0  0
  -28.0900  -28.2304   21.4224 H   0  0  0  0  0  0
  -25.7977  -25.5723   18.9532 H   0  0  0  0  0  0
  -24.0426  -27.2269   18.8619 H   0  0  0  0  0  0
  -23.9310  -30.4530   19.3816 H   0  0  0  0  0  0
  -22.8618  -29.1583   19.8185 H   0  0  0  0  0  0
  -25.1377  -36.1712   25.0779 H   0  0  0  0  0  0
  -21.0037  -28.3430   24.1319 H   0  0  0  0  0  0
  -20.5726  -26.2395   23.3704 H   0  0  0  0  0  0
  -21.6666  -26.7421   22.1242 H   0  0  0  0  0  0
  -19.6953  -25.6259   21.1333 H   0  0  0  0  0  0
  -19.6769  -27.3153   20.6765 H   0  0  0  0  0  0
  -17.4261  -26.6770   21.3979 H   0  0  0  0  0  0
  -18.0278  -26.0111   22.8998 H   0  0  0  0  0  0
  -19.7960  -30.7350   24.2184 H   0  0  0  0  0  0
  -17.5025  -31.6297   24.5135 H   0  0  0  0  0  0
  -15.5362  -30.2955   23.7737 H   0  0  0  0  0  0
  -15.8718  -28.0786   22.7167 H   0  0  0  0  0  0
  -24.5868  -30.7099   25.7491 H   0  0  0  0  0  0
  -24.8739  -32.3010   26.4439 H   0  0  0  0  0  0
  -25.7781  -30.9088   27.0160 H   0  0  0  0  0  0
  -26.3294  -29.6437   24.1583 H   0  0  0  0  0  0
  -27.3945  -29.7307   25.5345 H   0  0  0  0  0  0
  -27.9263  -30.3979   24.0165 H   0  0  0  0  0  0
  -27.2599  -33.3753   26.1799 H   0  0  0  0  0  0
  -28.3957  -32.6753   25.0383 H   0  0  0  0  0  0
  -28.0552  -31.8643   26.5571 H   0  0  0  0  0  0
  -28.2576  -38.0060   24.7551 H   0  0  0  0  0  0
  -28.1109  -36.2601   24.6284 H   0  0  0  0  0  0
  -27.2290  -37.1349   25.8859 H   0  0  0  0  0  0
  -20.9678  -29.8563   21.6449 H   0  0  0  0  0  0
  -26.0151  -38.2731   24.1409 H   0  0  0  0  0  0
  -25.1996  -21.7768   19.2918 H   0  0  0  0  0  0
  -26.1487  -22.4398   17.9587 H   0  0  0  0  0  0
  -26.2323  -23.1295   19.5929 H   0  0  0  0  0  0
  -26.4552  -19.9748   16.7651 H   0  0  0  0  0  0
  -25.1833  -20.0744   17.9834 H   0  0  0  0  0  0
  -25.8940  -18.5649   17.6530 H   0  0  0  0  0  0
  -27.9885  -16.7040   18.5207 H   0  0  0  0  0  0
  -29.3628  -17.5585   17.8128 H   0  0  0  0  0  0
  -27.7912  -17.7889   17.1397 H   0  0  0  0  0  0
  -31.1646  -20.7383   21.3079 H   0  0  0  0  0  0
  -30.2247  -19.6975   22.3798 H   0  0  0  0  0  0
  -29.8840  -21.4219   22.3369 H   0  0  0  0  0  0
  -30.7183  -23.0881   20.5881 H   0  0  0  0  0  0
  -29.8624  -23.8539   21.9331 H   0  0  0  0  0  0
  -30.4126  -24.8185   20.5656 H   0  0  0  0  0  0
  -28.8118  -23.7440   19.0725 H   0  0  0  0  0  0
  -28.7498  -16.8217   21.2469 H   0  0  0  0  0  0
  1 25  1  0  0  0
  1 30  2  0  0  0
  1 83  1  0  0  0
  2  3  1  0  0  0
  2 25  1  0  0  0
  2 84  1  0  0  0
  2 85  1  0  0  0
  3  4  1  0  0  0
  3 86  1  0  0  0
  3 87  1  0  0  0
  4  5  1  0  0  0
  4 88  1  0  0  0
  4 89  1  0  0  0
  5  6  1  0  0  0
  5 26  1  0  0  0
  5 90  1  0  0  0
  6 25  1  0  0  0
  6 91  1  0  0  0
  6 92  1  0  0  0
  7  8  2  0  0  0
  7 26  1  0  0  0
  7 29  1  0  0  0
  8  9  1  0  0  0
  8 22  1  0  0  0
  9 10  1  0  0  0
  9 27  2  0  0  0
 10 11  2  0  0  0
 10 15  1  0  0  0
 11 12  1  0  0  0
 11 93  1  0  0  0
 12 13  2  0  0  0
 12 94  1  0  0  0
 13 14  1  0  0  0
 13 31  1  0  0  0
 14 15  2  0  0  0
 14 95  1  0  0  0
 15 96  1  0  0  0
 16 17  2  0  0  0
 16 21  1  0  0  0
 16 31  1  0  0  0
 17 18  1  0  0  0
 17 97  1  0  0  0
 18 19  2  0  0  0
 18 98  1  0  0  0
 19 20  1  0  0  0
 19 24  1  0  0  0
 20 21  2  0  0  0
 20 99  1  0  0  0
 21 23  1  0  0  0
 22 28  1  0  0  0
 22 32  2  0  0  0
 26 27  1  0  0  0
 28100  1  0  0  0
 28101  1  0  0  0
 29102  1  0  0  0
 29103  1  0  0  0
 33 34  1  0  0  0
 33 66  1  0  0  0
 33 70  2  0  0  0
 34 36  1  0  0  0
 34 59  1  0  0  0
 34104  1  0  0  0
 35 44  2  0  0  0
 35 45  1  0  0  0
 35 68  1  0  0  0
 36 56  1  0  0  0
 36105  1  0  0  0
 37 39  1  0  0  0
 37 47  1  0  0  0
 37 66  1  0  0  0
 37106  1  0  0  0
 38 43  2  0  0  0
 38 46  1  0  0  0
 38 47  1  0  0  0
 39 64  1  0  0  0
 39 67  2  0  0  0
 40 52  1  0  0  0
 40 53  2  0  0  0
 40 58  1  0  0  0
 41107  1  0  0  0
 41108  1  0  0  0
 41109  1  0  0  0
 41 48  1  0  0  0
 42 43  1  0  0  0
 42 66  1  0  0  0
 42110  1  0  0  0
 42111  1  0  0  0
 43 44  1  0  0  0
 44112  1  0  0  0
 45 46  2  0  0  0
 45113  1  0  0  0
 46114  1  0  0  0
 47115  1  0  0  0
 47116  1  0  0  0
 48 56  1  0  0  0
 48 65  1  0  0  0
 48117  1  0  0  0
 49 50  1  0  0  0
 49 53  1  0  0  0
 49 64  1  0  0  0
 49118  1  0  0  0
 50 51  1  0  0  0
 50119  1  0  0  0
 50120  1  0  0  0
 51 52  1  0  0  0
 51121  1  0  0  0
 51122  1  0  0  0
 52123  1  0  0  0
 52124  1  0  0  0
 53 54  1  0  0  0
 54 55  2  0  0  0
 54125  1  0  0  0
 55 57  1  0  0  0
 55126  1  0  0  0
 56 69  2  0  0  0
 57 58  2  0  0  0
 57127  1  0  0  0
 58128  1  0  0  0
 59 60  1  0  0  0
 59 61  1  0  0  0
 59 62  1  0  0  0
 60129  1  0  0  0
 60130  1  0  0  0
 60131  1  0  0  0
 61132  1  0  0  0
 61133  1  0  0  0
 61134  1  0  0  0
 62135  1  0  0  0
 62136  1  0  0  0
 62137  1  0  0  0
 63 65  1  0  0  0
 63138  1  0  0  0
 63139  1  0  0  0
 63140  1  0  0  0
 64141  1  0  0  0
 65142  1  0  0  0
 68 82  1  0  0  0
 71 72  2  0  0  0
 71 73  1  0  0  0
 71 77  1  0  0  0
 72 74  1  0  0  0
 72 78  1  0  0  0
 73 75  2  0  0  0
 73 82  1  0  0  0
 74 76  2  0  0  0
 74 79  1  0  0  0
 75 76  1  0  0  0
 75 80  1  0  0  0
 76 83  1  0  0  0
 77143  1  0  0  0
 77144  1  0  0  0
 77145  1  0  0  0
 78146  1  0  0  0
 78147  1  0  0  0
 78148  1  0  0  0
 79149  1  0  0  0
 79150  1  0  0  0
 79151  1  0  0  0
 80152  1  0  0  0
 80153  1  0  0  0
 80154  1  0  0  0
 81155  1  0  0  0
 81156  1  0  0  0
 81157  1  0  0  0
 81 82  1  0  0  0
 82158  1  0  0  0
 83159  1  0  0  0
M  ISO  4   1 100  68 101  82 101  83 100
M  END
> <chiral flag>
0

> <version>
0

> <s_m_source_file>
/data/baiqing/PycharmProjects/Reinvent-master-3.2/result/LINK_invent/BTK/process_docking_weight1_custom_sum_contain_oxygen_bond_distance_aromatic_linkinvent_7_9_3/rearranged_h_0022.sdf

> <i_m_source_file_index>
13

> <r_mmod_Potential_Energy-OPLS-2005>
3151.25756835938

> <r_mmod_Stretch_Energy-OPLS-2005>
1280.46008300781

> <r_mmod_Bend_Energy-OPLS-2005>
879.512390136719

> <r_mmod_Torsional_Energy-OPLS-2005>
332.6748046875

> <r_mmod_Improper_Torsional_Energy-OPLS-2005>
7.89021444320679

> <r_mmod_Van_der_Waal_Energy-OPLS-2005>
140.143951416016

> <r_mmod_Electrostatic_Energy-OPLS-2005>
-415.485260009766

> <r_mmod_Solvation_Energy-OPLS-2005>
-206.651260375977

> <b_mmod_Minimization_Converged-OPLS-2005>
0

> <r_mmod_RMS_Derivative-OPLS-2005>
7.50606632232666

$$$$
13
                    3D
 Structure written by MMmdl.
156164  0  0  1  0            999 V2000
  -30.5214  -15.0183   20.3864 C   0  0  0  0  0  0
  -30.4438  -12.6294   19.4958 C   0  0  0  0  0  0
  -29.5268  -12.4734   18.2594 C   0  0  0  0  0  0
  -28.0546  -12.2905   18.6793 C   0  0  0  0  0  0
  -27.6209  -13.2475   19.8212 C   0  0  2  0  0  0
  -28.6647  -13.3242   20.9504 C   0  0  0  0  0  0
  -25.2460  -13.8218   20.5724 C   0  0  0  0  0  0
  -24.1772  -13.0443   20.9233 C   0  0  0  0  0  0
  -24.6384  -11.6926   20.8764 C   0  0  0  0  0  0
  -23.9074  -10.4295   21.0417 C   0  0  0  0  0  0
  -24.3626   -9.4206   21.9191 C   0  0  0  0  0  0
  -23.6296   -8.2243   22.0757 C   0  0  0  0  0  0
  -22.4278   -8.0284   21.3548 C   0  0  0  0  0  0
  -21.9916   -9.0259   20.4650 C   0  0  0  0  0  0
  -22.7248  -10.2137   20.3062 C   0  0  0  0  0  0
  -21.6853   -6.0738   22.5281 C   0  0  0  0  0  0
  -21.4015   -6.5642   23.8215 C   0  0  0  0  0  0
  -21.3659   -5.6794   24.9177 C   0  0  0  0  0  0
  -21.6043   -4.3056   24.7226 C   0  0  0  0  0  0
  -21.8817   -3.8149   23.4347 C   0  0  0  0  0  0
  -21.9190   -4.6966   22.3403 C   0  0  0  0  0  0
  -22.7793  -13.5217   21.1889 C   0  0  0  0  0  0
  -22.1659   -4.2152   21.0981 F   0  0  0  0  0  0
  -21.5627   -3.4540   25.7739 F   0  0  0  0  0  0
  -29.9199  -13.7553   20.3245 N   0  0  0  0  0  0
  -26.2858  -12.9437   20.3208 N   0  0  0  0  0  0
  -25.9310  -11.6574   20.5737 N   0  0  0  0  0  0
  -22.0442  -12.8204   22.0443 N   0  0  0  0  0  0
  -25.4161  -15.1945   20.4186 N   0  0  0  0  0  0
  -31.7523  -15.0302   20.2586 O   0  0  0  0  0  0
  -21.6639   -6.8883   21.4244 O   0  0  0  0  0  0
  -22.3474  -14.5517   20.6728 O   0  0  0  0  0  0
  -24.6454  -31.8410   23.1839 C   0  0  0  0  0  0
  -25.9212  -32.4680   23.8246 C   0  0  1  0  0  0
  -27.2192  -27.1044   20.1764 C   0  0  0  0  0  0
  -25.5947  -33.8486   24.2164 N   0  0  0  0  0  0
  -23.4509  -30.4565   21.5307 C   0  0  2  0  0  0
  -24.9006  -28.8663   20.1223 C   0  0  0  0  0  0
  -22.7574  -29.4529   22.4860 C   0  0  0  0  0  0
  -18.0305  -28.1395   22.8477 C   0  0  0  0  0  0
  -24.1491  -36.7250   23.2644 C   0  0  0  0  0  0
  -26.0073  -30.7061   21.3849 C   0  0  0  0  0  0
  -26.0791  -29.3095   20.7370 C   0  0  0  0  0  0
  -27.2425  -28.4479   20.7375 C   0  0  0  0  0  0
  -26.0128  -26.7568   19.5373 C   0  0  0  0  0  0
  -24.8807  -27.6037   19.5068 C   0  0  0  0  0  0
  -23.6804  -29.7759   20.1545 C   0  0  0  0  0  0
  -25.4125  -36.3022   24.0312 C   0  0  1  0  0  0
  -20.5918  -28.3722   23.1235 C   0  0  2  0  0  0
  -20.6788  -26.9423   22.5407 C   0  0  0  0  0  0
  -19.5763  -26.6379   21.5214 C   0  0  0  0  0  0
  -18.1944  -26.7933   22.1624 C   0  0  0  0  0  0
  -19.1562  -28.8877   23.2848 C   0  0  0  0  0  0
  -18.9478  -30.1473   23.8874 C   0  0  0  0  0  0
  -17.6474  -30.6591   24.0559 C   0  0  0  0  0  0
  -25.9075  -34.9399   23.5050 C   0  0  0  0  0  0
  -16.5365  -29.9083   23.6335 C   0  0  0  0  0  0
  -16.7289  -28.6502   23.0357 C   0  0  0  0  0  0
  -26.4524  -31.6561   25.0702 C   0  0  0  0  0  0
  -25.3700  -31.3762   26.1392 C   0  0  0  0  0  0
  -27.0396  -30.2955   24.6299 C   0  0  0  0  0  0
  -27.6043  -32.4339   25.7495 C   0  0  0  0  0  0
  -27.5574  -37.1783   24.8465 C   0  0  0  0  0  0
  -21.4264  -29.3044   22.3606 N   0  0  0  0  0  0
  -26.4286  -37.3738   23.9406 N   0  0  0  0  0  0
  -24.7213  -31.0238   22.0884 N   0  0  0  0  0  0
  -23.4202  -28.8090   23.3032 O   0  0  0  0  0  0
  -28.2968  -26.1436   20.1254 O   0  0  0  0  0  0
  -26.5670  -34.8904   22.4634 O   0  0  0  0  0  0
  -23.5567  -32.1298   23.7043 O   0  0  0  0  0  0
  -29.4996  -18.9556   20.1140 C   0  0  0  0  0  0
  -29.1861  -20.2623   20.7703 C   0  0  0  0  0  0
  -29.0454  -18.8847   22.8304 C   0  0  0  0  0  0
  -29.5953  -17.6044   20.7674 C   0  0  0  0  0  0
  -28.9553  -20.1312   22.1532 C   0  0  0  0  0  0
  -29.3623  -17.6610   22.1692 C   0  0  0  0  0  0
  -28.7985  -18.8645   24.3336 C   0  0  0  0  0  0
  -29.5220  -16.3225   18.6348 C   0  0  0  0  0  0
  -29.2921  -21.8252   20.1907 C   0  0  0  0  0  0
  -28.1632  -23.1047   20.2118 C   0  0  0  0  0  0
  -28.3005  -24.7157   20.7734 C   0  0  0  0  0  0
  -29.7774  -16.2222   20.0760 N   0  0  0  0  0  0
  -28.6837  -21.2535   22.8634 F   0  0  0  0  0  0
  -29.4066  -16.2136   23.1236 Cl  0  0  0  0  0  0
  -31.4699  -12.8083   19.1703 H   0  0  0  0  0  0
  -30.4721  -11.7064   20.0769 H   0  0  0  0  0  0
  -29.8477  -11.6156   17.6665 H   0  0  0  0  0  0
  -29.6286  -13.3322   17.5993 H   0  0  0  0  0  0
  -27.9460  -11.2578   19.0124 H   0  0  0  0  0  0
  -27.3956  -12.4003   17.8172 H   0  0  0  0  0  0
  -27.5642  -14.2365   19.3676 H   0  0  0  0  0  0
  -28.7767  -12.3653   21.4584 H   0  0  0  0  0  0
  -28.3485  -14.0444   21.7048 H   0  0  0  0  0  0
  -25.2770   -9.5678   22.4769 H   0  0  0  0  0  0
  -24.0003   -7.4631   22.7475 H   0  0  0  0  0  0
  -21.0848   -8.8784   19.8954 H   0  0  0  0  0  0
  -22.3711  -10.9680   19.6174 H   0  0  0  0  0  0
  -21.2010   -7.6151   23.9720 H   0  0  0  0  0  0
  -21.1483   -6.0525   25.9081 H   0  0  0  0  0  0
  -22.0595   -2.7610   23.2847 H   0  0  0  0  0  0
  -22.4064  -11.9874   22.4840 H   0  0  0  0  0  0
  -21.1058  -13.1226   22.2645 H   0  0  0  0  0  0
  -24.6548  -15.8521   20.5473 H   0  0  0  0  0  0
  -26.2771  -15.6376   20.1244 H   0  0  0  0  0  0
  -26.7280  -32.5281   23.0975 H   0  0  0  0  0  0
  -25.0063  -33.9595   25.0290 H   0  0  0  0  0  0
  -22.7550  -31.2825   21.3701 H   0  0  0  0  0  0
  -23.3755  -35.9580   23.3293 H   0  0  0  0  0  0
  -24.3573  -36.8899   22.2061 H   0  0  0  0  0  0
  -23.7247  -37.6441   23.6695 H   0  0  0  0  0  0
  -26.1617  -31.4540   20.6060 H   0  0  0  0  0  0
  -26.8781  -30.7636   22.0263 H   0  0  0  0  0  0
  -28.1505  -28.7932   21.2117 H   0  0  0  0  0  0
  -25.9400  -25.7887   19.0617 H   0  0  0  0  0  0
  -23.9810  -27.2581   19.0164 H   0  0  0  0  0  0
  -23.8236  -30.5453   19.3948 H   0  0  0  0  0  0
  -22.7941  -29.2201   19.8432 H   0  0  0  0  0  0
  -25.1317  -36.1843   25.0804 H   0  0  0  0  0  0
  -21.0008  -28.3312   24.1357 H   0  0  0  0  0  0
  -20.5679  -26.2335   23.3627 H   0  0  0  0  0  0
  -21.6655  -26.7426   22.1208 H   0  0  0  0  0  0
  -19.6924  -25.6283   21.1260 H   0  0  0  0  0  0
  -19.6700  -27.3174   20.6732 H   0  0  0  0  0  0
  -17.4213  -26.6677   21.4028 H   0  0  0  0  0  0
  -18.0344  -26.0082   22.9027 H   0  0  0  0  0  0
  -19.7953  -30.7296   24.2233 H   0  0  0  0  0  0
  -17.5026  -31.6268   24.5165 H   0  0  0  0  0  0
  -15.5364  -30.2978   23.7670 H   0  0  0  0  0  0
  -15.8690  -28.0811   22.7087 H   0  0  0  0  0  0
  -24.5881  -30.7111   25.7710 H   0  0  0  0  0  0
  -24.8888  -32.2950   26.4755 H   0  0  0  0  0  0
  -25.7974  -30.8974   27.0210 H   0  0  0  0  0  0
  -26.3019  -29.6671   24.1296 H   0  0  0  0  0  0
  -27.3990  -29.7265   25.4883 H   0  0  0  0  0  0
  -27.8931  -30.4188   23.9629 H   0  0  0  0  0  0
  -27.2623  -33.3660   26.2009 H   0  0  0  0  0  0
  -28.3889  -32.6872   25.0353 H   0  0  0  0  0  0
  -28.0672  -31.8510   26.5468 H   0  0  0  0  0  0
  -28.2584  -38.0086   24.7506 H   0  0  0  0  0  0
  -28.1078  -36.2614   24.6300 H   0  0  0  0  0  0
  -27.2291  -37.1438   25.8868 H   0  0  0  0  0  0
  -20.9481  -29.8745   21.6769 H   0  0  0  0  0  0
  -26.0148  -38.2804   24.1407 H   0  0  0  0  0  0
  -29.6991  -19.0027   19.0539 H   0  0  0  0  0  0
  -29.6758  -18.4835   24.8567 H   0  0  0  0  0  0
  -27.9506  -18.2217   24.5713 H   0  0  0  0  0  0
  -28.5821  -19.8521   24.7391 H   0  0  0  0  0  0
  -28.6676  -16.9681   18.4301 H   0  0  0  0  0  0
  -29.2842  -15.3689   18.1717 H   0  0  0  0  0  0
  -30.3927  -16.7335   18.1218 H   0  0  0  0  0  0
  -29.6200  -21.7247   19.1560 H   0  0  0  0  0  0
  -30.1736  -22.2219   20.6954 H   0  0  0  0  0  0
  -27.3485  -22.6984   20.8117 H   0  0  0  0  0  0
  -27.7175  -23.1534   19.2183 H   0  0  0  0  0  0
  -29.2157  -24.7163   21.3654 H   0  0  0  0  0  0
  -27.5239  -24.7991   21.5349 H   0  0  0  0  0  0
  1 25  1  0  0  0
  1 30  2  0  0  0
  1 82  1  0  0  0
  2  3  1  0  0  0
  2 25  1  0  0  0
  2 85  1  0  0  0
  2 86  1  0  0  0
  3  4  1  0  0  0
  3 87  1  0  0  0
  3 88  1  0  0  0
  4  5  1  0  0  0
  4 89  1  0  0  0
  4 90  1  0  0  0
  5  6  1  0  0  0
  5 26  1  0  0  0
  5 91  1  0  0  0
  6 25  1  0  0  0
  6 92  1  0  0  0
  6 93  1  0  0  0
  7  8  2  0  0  0
  7 26  1  0  0  0
  7 29  1  0  0  0
  8  9  1  0  0  0
  8 22  1  0  0  0
  9 10  1  0  0  0
  9 27  2  0  0  0
 10 11  2  0  0  0
 10 15  1  0  0  0
 11 12  1  0  0  0
 11 94  1  0  0  0
 12 13  2  0  0  0
 12 95  1  0  0  0
 13 14  1  0  0  0
 13 31  1  0  0  0
 14 15  2  0  0  0
 14 96  1  0  0  0
 15 97  1  0  0  0
 16 17  2  0  0  0
 16 21  1  0  0  0
 16 31  1  0  0  0
 17 18  1  0  0  0
 17 98  1  0  0  0
 18 19  2  0  0  0
 18 99  1  0  0  0
 19 20  1  0  0  0
 19 24  1  0  0  0
 20 21  2  0  0  0
 20100  1  0  0  0
 21 23  1  0  0  0
 22 28  1  0  0  0
 22 32  2  0  0  0
 26 27  1  0  0  0
 28101  1  0  0  0
 28102  1  0  0  0
 29103  1  0  0  0
 29104  1  0  0  0
 33 34  1  0  0  0
 33 66  1  0  0  0
 33 70  2  0  0  0
 34 36  1  0  0  0
 34 59  1  0  0  0
 34105  1  0  0  0
 35 44  2  0  0  0
 35 45  1  0  0  0
 35 68  1  0  0  0
 36 56  1  0  0  0
 36106  1  0  0  0
 37 39  1  0  0  0
 37 47  1  0  0  0
 37 66  1  0  0  0
 37107  1  0  0  0
 38 43  2  0  0  0
 38 46  1  0  0  0
 38 47  1  0  0  0
 39 64  1  0  0  0
 39 67  2  0  0  0
 40 52  1  0  0  0
 40 53  2  0  0  0
 40 58  1  0  0  0
 41108  1  0  0  0
 41109  1  0  0  0
 41110  1  0  0  0
 41 48  1  0  0  0
 42 43  1  0  0  0
 42 66  1  0  0  0
 42111  1  0  0  0
 42112  1  0  0  0
 43 44  1  0  0  0
 44113  1  0  0  0
 45 46  2  0  0  0
 45114  1  0  0  0
 46115  1  0  0  0
 47116  1  0  0  0
 47117  1  0  0  0
 48 56  1  0  0  0
 48 65  1  0  0  0
 48118  1  0  0  0
 49 50  1  0  0  0
 49 53  1  0  0  0
 49 64  1  0  0  0
 49119  1  0  0  0
 50 51  1  0  0  0
 50120  1  0  0  0
 50121  1  0  0  0
 51 52  1  0  0  0
 51122  1  0  0  0
 51123  1  0  0  0
 52124  1  0  0  0
 52125  1  0  0  0
 53 54  1  0  0  0
 54 55  2  0  0  0
 54126  1  0  0  0
 55 57  1  0  0  0
 55127  1  0  0  0
 56 69  2  0  0  0
 57 58  2  0  0  0
 57128  1  0  0  0
 58129  1  0  0  0
 59 60  1  0  0  0
 59 61  1  0  0  0
 59 62  1  0  0  0
 60130  1  0  0  0
 60131  1  0  0  0
 60132  1  0  0  0
 61133  1  0  0  0
 61134  1  0  0  0
 61135  1  0  0  0
 62136  1  0  0  0
 62137  1  0  0  0
 62138  1  0  0  0
 63 65  1  0  0  0
 63139  1  0  0  0
 63140  1  0  0  0
 63141  1  0  0  0
 64142  1  0  0  0
 65143  1  0  0  0
 68 81  1  0  0  0
 71 72  2  0  0  0
 71 74  1  0  0  0
 71144  1  0  0  0
 72 75  1  0  0  0
 72 79  1  0  0  0
 73 75  2  0  0  0
 73 76  1  0  0  0
 73 77  1  0  0  0
 74 76  2  0  0  0
 74 82  1  0  0  0
 75 83  1  0  0  0
 76 84  1  0  0  0
 77145  1  0  0  0
 77146  1  0  0  0
 77147  1  0  0  0
 78 82  1  0  0  0
 78148  1  0  0  0
 78149  1  0  0  0
 78150  1  0  0  0
 79 80  1  0  0  0
 79151  1  0  0  0
 79152  1  0  0  0
 80 81  1  0  0  0
 80153  1  0  0  0
 80154  1  0  0  0
 81155  1  0  0  0
 81156  1  0  0  0
M  ISO  4   1 100  68 101  81 101  82 100
M  END
> <chiral flag>
0

> <version>
0

> <s_m_source_file>
/data/baiqing/PycharmProjects/Reinvent-master-3.2/result/LINK_invent/BTK/process_docking_weight1_custom_sum_contain_oxygen_bond_distance_aromatic_linkinvent_7_9_3/rearranged_h_0022.sdf

> <i_m_source_file_index>
14

> <r_mmod_Potential_Energy-OPLS-2005>
843.693298339844

> <r_mmod_Stretch_Energy-OPLS-2005>
310.395141601562

> <r_mmod_Bend_Energy-OPLS-2005>
326.226593017578

> <r_mmod_Torsional_Energy-OPLS-2005>
338.622283935547

> <r_mmod_Improper_Torsional_Energy-OPLS-2005>
19.7619686126709

> <r_mmod_Van_der_Waal_Energy-OPLS-2005>
133.860565185547

> <r_mmod_Electrostatic_Energy-OPLS-2005>
-332.643707275391

> <r_mmod_Solvation_Energy-OPLS-2005>
-182.926773071289

> <b_mmod_Minimization_Converged-OPLS-2005>
0

> <r_mmod_RMS_Derivative-OPLS-2005>
0.343854814767838

$$$$
14
                    3D
 Structure written by MMmdl.
146153  0  0  1  0            999 V2000
  -30.1788  -16.0113   20.2740 C   0  0  0  0  0  0
  -30.3968  -13.3564   19.5549 C   0  0  0  0  0  0
  -29.5683  -12.7641   18.3657 C   0  0  0  0  0  0
  -28.1665  -12.3361   18.8125 C   0  0  0  0  0  0
  -27.5853  -13.3592   19.8097 C   0  0  2  0  0  0
  -28.5745  -13.8492   20.9066 C   0  0  0  0  0  0
  -25.2247  -13.8372   20.5854 C   0  0  0  0  0  0
  -24.1684  -13.0434   20.9313 C   0  0  0  0  0  0
  -24.6466  -11.6978   20.8749 C   0  0  0  0  0  0
  -23.9175  -10.4291   21.0366 C   0  0  0  0  0  0
  -24.3690   -9.4205   21.9155 C   0  0  0  0  0  0
  -23.6336   -8.2248   22.0732 C   0  0  0  0  0  0
  -22.4321   -8.0296   21.3537 C   0  0  0  0  0  0
  -21.9979   -9.0265   20.4629 C   0  0  0  0  0  0
  -22.7336  -10.2132   20.3031 C   0  0  0  0  0  0
  -21.6871   -6.0761   22.5284 C   0  0  0  0  0  0
  -21.4023   -6.5645   23.8219 C   0  0  0  0  0  0
  -21.3661   -5.6795   24.9179 C   0  0  0  0  0  0
  -21.6049   -4.3057   24.7219 C   0  0  0  0  0  0
  -21.8810   -3.8162   23.4338 C   0  0  0  0  0  0
  -21.9191   -4.6978   22.3397 C   0  0  0  0  0  0
  -22.7680  -13.5110   21.1941 C   0  0  0  0  0  0
  -22.1658   -4.2169   21.0973 F   0  0  0  0  0  0
  -21.5628   -3.4534   25.7724 F   0  0  0  0  0  0
  -29.6999  -14.5764   20.2382 N   0  0  0  0  0  0
  -26.2767  -12.9808   20.3288 N   0  0  0  0  0  0
  -25.9436  -11.6822   20.5668 N   0  0  0  0  0  0
  -22.0360  -12.8072   22.0505 N   0  0  0  0  0  0
  -25.3751  -15.2118   20.4320 N   0  0  0  0  0  0
  -31.4120  -15.8895   20.0893 O   0  0  0  0  0  0
  -21.6656   -6.8907   21.4253 O   0  0  0  0  0  0
  -22.3313  -14.5373   20.6761 O   0  0  0  0  0  0
  -24.7044  -31.7737   23.1373 C   0  0  0  0  0  0
  -25.9525  -32.4345   23.7982 C   0  0  1  0  0  0
  -27.2399  -26.4520   20.2274 C   0  0  0  0  0  0
  -25.6033  -33.8182   24.1861 N   0  0  0  0  0  0
  -23.5423  -30.3673   21.4929 C   0  0  2  0  0  0
  -25.0103  -28.6670   20.1094 C   0  0  0  0  0  0
  -22.7850  -29.4196   22.4650 C   0  0  0  0  0  0
  -18.0365  -28.1428   22.8448 C   0  0  0  0  0  0
  -24.1500  -36.7092   23.2657 C   0  0  0  0  0  0
  -26.1275  -30.4185   21.4457 C   0  0  0  0  0  0
  -26.1902  -28.9564   20.8017 C   0  0  0  0  0  0
  -27.2671  -27.8805   20.8348 C   0  0  0  0  0  0
  -26.0567  -26.4756   19.4215 C   0  0  0  0  0  0
  -25.0087  -27.4641   19.3803 C   0  0  0  0  0  0
  -23.8100  -29.6481   20.1330 C   0  0  0  0  0  0
  -25.4161  -36.2822   24.0271 C   0  0  1  0  0  0
  -20.6007  -28.3806   23.1096 C   0  0  2  0  0  0
  -20.6813  -26.9442   22.5399 C   0  0  0  0  0  0
  -19.5800  -26.6361   21.5209 C   0  0  0  0  0  0
  -18.1991  -26.7958   22.1610 C   0  0  0  0  0  0
  -19.1637  -28.8945   23.2756 C   0  0  0  0  0  0
  -18.9533  -30.1523   23.8801 C   0  0  0  0  0  0
  -17.6520  -30.6604   24.0548 C   0  0  0  0  0  0
  -25.9145  -34.9210   23.4908 C   0  0  0  0  0  0
  -16.5410  -29.9076   23.6349 C   0  0  0  0  0  0
  -16.7344  -28.6505   23.0356 C   0  0  0  0  0  0
  -26.4661  -31.6462   25.0677 C   0  0  0  0  0  0
  -25.3676  -31.3817   26.1253 C   0  0  0  0  0  0
  -27.0621  -30.2785   24.6701 C   0  0  0  0  0  0
  -27.6091  -32.4351   25.7511 C   0  0  0  0  0  0
  -27.5550  -37.1721   24.8468 C   0  0  0  0  0  0
  -21.4477  -29.3027   22.3396 N   0  0  0  0  0  0
  -26.4266  -37.3608   23.9396 N   0  0  0  0  0  0
  -24.8178  -30.8921   22.0784 N   0  0  0  0  0  0
  -23.4186  -28.7828   23.3104 O   0  0  0  0  0  0
  -28.1477  -25.0999   20.3799 O   0  0  0  0  0  0
  -26.5787  -34.8819   22.4527 O   0  0  0  0  0  0
  -23.6016  -32.0940   23.6183 O   0  0  0  0  0  0
  -28.8595  -23.4568   18.5963 C   0  0  0  0  0  0
  -28.8648  -21.3109   20.5383 C   0  0  0  0  0  0
  -29.3538  -19.3513   19.9462 C   0  0  0  0  0  0
  -26.7193  -22.9317   19.8507 C   0  0  0  0  0  0
  -28.2244  -23.2408   19.9786 C   0  0  2  0  0  0
  -29.4313  -17.4794   20.3415 N   0  0  0  0  0  0
  -26.3847  -21.4086   18.9649 Cl  0  0  0  0  0  0
  -31.3682  -13.6539   19.1593 H   0  0  0  0  0  0
  -30.6331  -12.5789   20.2825 H   0  0  0  0  0  0
  -30.0950  -11.9231   17.9119 H   0  0  0  0  0  0
  -29.4814  -13.5244   17.5889 H   0  0  0  0  0  0
  -28.2451  -11.3633   19.2968 H   0  0  0  0  0  0
  -27.5067  -12.2047   17.9532 H   0  0  0  0  0  0
  -27.3985  -14.2333   19.1832 H   0  0  0  0  0  0
  -28.9075  -13.0352   21.5524 H   0  0  0  0  0  0
  -28.0712  -14.5626   21.5603 H   0  0  0  0  0  0
  -25.2819   -9.5669   22.4754 H   0  0  0  0  0  0
  -24.0030   -7.4636   22.7465 H   0  0  0  0  0  0
  -21.0894   -8.8791   19.8946 H   0  0  0  0  0  0
  -22.3777  -10.9659   19.6144 H   0  0  0  0  0  0
  -21.2024   -7.6153   23.9735 H   0  0  0  0  0  0
  -21.1499   -6.0512   25.9077 H   0  0  0  0  0  0
  -22.0593   -2.7621   23.2818 H   0  0  0  0  0  0
  -22.4018  -11.9751   22.4895 H   0  0  0  0  0  0
  -21.0968  -13.1051   22.2737 H   0  0  0  0  0  0
  -24.6038  -15.8585   20.5568 H   0  0  0  0  0  0
  -26.2122  -15.6575   20.0807 H   0  0  0  0  0  0
  -26.7608  -32.4772   23.0679 H   0  0  0  0  0  0
  -25.0130  -33.9210   24.9983 H   0  0  0  0  0  0
  -22.8839  -31.2153   21.2900 H   0  0  0  0  0  0
  -23.3790  -35.9395   23.3281 H   0  0  0  0  0  0
  -24.3555  -36.8797   22.2076 H   0  0  0  0  0  0
  -23.7245  -37.6246   23.6774 H   0  0  0  0  0  0
  -26.3404  -31.1220   20.6410 H   0  0  0  0  0  0
  -26.9752  -30.5064   22.1096 H   0  0  0  0  0  0
  -28.1304  -28.1126   21.4422 H   0  0  0  0  0  0
  -25.8772  -25.6244   18.7904 H   0  0  0  0  0  0
  -24.1644  -27.2639   18.7356 H   0  0  0  0  0  0
  -23.9957  -30.4045   19.3702 H   0  0  0  0  0  0
  -22.9074  -29.1283   19.8068 H   0  0  0  0  0  0
  -25.1388  -36.1568   25.0767 H   0  0  0  0  0  0
  -21.0108  -28.3440   24.1216 H   0  0  0  0  0  0
  -20.5648  -26.2440   23.3681 H   0  0  0  0  0  0
  -21.6677  -26.7335   22.1246 H   0  0  0  0  0  0
  -19.6953  -25.6243   21.1311 H   0  0  0  0  0  0
  -19.6757  -27.3104   20.6691 H   0  0  0  0  0  0
  -17.4262  -26.6717   21.4007 H   0  0  0  0  0  0
  -18.0368  -26.0108   22.9014 H   0  0  0  0  0  0
  -19.8001  -30.7385   24.2120 H   0  0  0  0  0  0
  -17.5052  -31.6273   24.5171 H   0  0  0  0  0  0
  -15.5400  -30.2945   23.7717 H   0  0  0  0  0  0
  -15.8753  -28.0795   22.7098 H   0  0  0  0  0  0
  -24.5930  -30.7106   25.7532 H   0  0  0  0  0  0
  -24.8795  -32.3034   26.4411 H   0  0  0  0  0  0
  -25.7804  -30.9148   27.0204 H   0  0  0  0  0  0
  -26.3372  -29.6373   24.1691 H   0  0  0  0  0  0
  -27.3974  -29.7267   25.5495 H   0  0  0  0  0  0
  -27.9378  -30.3889   24.0312 H   0  0  0  0  0  0
  -27.2653  -33.3769   26.1802 H   0  0  0  0  0  0
  -28.4059  -32.6723   25.0449 H   0  0  0  0  0  0
  -28.0590  -31.8663   26.5660 H   0  0  0  0  0  0
  -28.2545  -38.0034   24.7485 H   0  0  0  0  0  0
  -28.1068  -36.2550   24.6355 H   0  0  0  0  0  0
  -27.2241  -37.1408   25.8863 H   0  0  0  0  0  0
  -20.9830  -29.8685   21.6431 H   0  0  0  0  0  0
  -26.0076  -38.2645   24.1419 H   0  0  0  0  0  0
  -28.8626  -22.5457   18.0017 H   0  0  0  0  0  0
  -29.8889  -23.8012   18.6920 H   0  0  0  0  0  0
  -28.3214  -24.2162   18.0263 H   0  0  0  0  0  0
  -28.1120  -21.0908   21.2936 H   0  0  0  0  0  0
  -29.7375  -21.5606   21.1418 H   0  0  0  0  0  0
  -30.3355  -19.4976   19.4959 H   0  0  0  0  0  0
  -28.7028  -19.2783   19.0738 H   0  0  0  0  0  0
  -26.1821  -23.6959   19.3144 H   0  0  0  0  0  0
  -26.2725  -22.8633   20.8417 H   0  0  0  0  0  0
  -28.4806  -17.2300   20.5777 H   0  0  0  0  0  0
  1 25  1  0  0  0
  1 30  2  0  0  0
  1 76  1  0  0  0
  2  3  1  0  0  0
  2 25  1  0  0  0
  2 78  1  0  0  0
  2 79  1  0  0  0
  3  4  1  0  0  0
  3 80  1  0  0  0
  3 81  1  0  0  0
  4  5  1  0  0  0
  4 82  1  0  0  0
  4 83  1  0  0  0
  5  6  1  0  0  0
  5 26  1  0  0  0
  5 84  1  0  0  0
  6 25  1  0  0  0
  6 85  1  0  0  0
  6 86  1  0  0  0
  7  8  2  0  0  0
  7 26  1  0  0  0
  7 29  1  0  0  0
  8  9  1  0  0  0
  8 22  1  0  0  0
  9 10  1  0  0  0
  9 27  2  0  0  0
 10 11  2  0  0  0
 10 15  1  0  0  0
 11 12  1  0  0  0
 11 87  1  0  0  0
 12 13  2  0  0  0
 12 88  1  0  0  0
 13 14  1  0  0  0
 13 31  1  0  0  0
 14 15  2  0  0  0
 14 89  1  0  0  0
 15 90  1  0  0  0
 16 17  2  0  0  0
 16 21  1  0  0  0
 16 31  1  0  0  0
 17 18  1  0  0  0
 17 91  1  0  0  0
 18 19  2  0  0  0
 18 92  1  0  0  0
 19 20  1  0  0  0
 19 24  1  0  0  0
 20 21  2  0  0  0
 20 93  1  0  0  0
 21 23  1  0  0  0
 22 28  1  0  0  0
 22 32  2  0  0  0
 26 27  1  0  0  0
 28 94  1  0  0  0
 28 95  1  0  0  0
 29 96  1  0  0  0
 29 97  1  0  0  0
 33 34  1  0  0  0
 33 66  1  0  0  0
 33 70  2  0  0  0
 34 36  1  0  0  0
 34 59  1  0  0  0
 34 98  1  0  0  0
 35 44  2  0  0  0
 35 45  1  0  0  0
 35 68  1  0  0  0
 36 56  1  0  0  0
 36 99  1  0  0  0
 37 39  1  0  0  0
 37 47  1  0  0  0
 37 66  1  0  0  0
 37100  1  0  0  0
 38 43  2  0  0  0
 38 46  1  0  0  0
 38 47  1  0  0  0
 39 64  1  0  0  0
 39 67  2  0  0  0
 40 52  1  0  0  0
 40 53  2  0  0  0
 40 58  1  0  0  0
 41101  1  0  0  0
 41102  1  0  0  0
 41103  1  0  0  0
 41 48  1  0  0  0
 42 43  1  0  0  0
 42 66  1  0  0  0
 42104  1  0  0  0
 42105  1  0  0  0
 43 44  1  0  0  0
 44106  1  0  0  0
 45 46  2  0  0  0
 45107  1  0  0  0
 46108  1  0  0  0
 47109  1  0  0  0
 47110  1  0  0  0
 48 56  1  0  0  0
 48 65  1  0  0  0
 48111  1  0  0  0
 49 50  1  0  0  0
 49 53  1  0  0  0
 49 64  1  0  0  0
 49112  1  0  0  0
 50 51  1  0  0  0
 50113  1  0  0  0
 50114  1  0  0  0
 51 52  1  0  0  0
 51115  1  0  0  0
 51116  1  0  0  0
 52117  1  0  0  0
 52118  1  0  0  0
 53 54  1  0  0  0
 54 55  2  0  0  0
 54119  1  0  0  0
 55 57  1  0  0  0
 55120  1  0  0  0
 56 69  2  0  0  0
 57 58  2  0  0  0
 57121  1  0  0  0
 58122  1  0  0  0
 59 60  1  0  0  0
 59 61  1  0  0  0
 59 62  1  0  0  0
 60123  1  0  0  0
 60124  1  0  0  0
 60125  1  0  0  0
 61126  1  0  0  0
 61127  1  0  0  0
 61128  1  0  0  0
 62129  1  0  0  0
 62130  1  0  0  0
 62131  1  0  0  0
 63 65  1  0  0  0
 63132  1  0  0  0
 63133  1  0  0  0
 63134  1  0  0  0
 64135  1  0  0  0
 65136  1  0  0  0
 68 75  1  0  0  0
 71137  1  0  0  0
 71138  1  0  0  0
 71139  1  0  0  0
 71 75  1  0  0  0
 72 73  1  0  0  0
 72 75  1  0  0  0
 72140  1  0  0  0
 72141  1  0  0  0
 73 76  1  0  0  0
 73142  1  0  0  0
 73143  1  0  0  0
 74 75  1  0  0  0
 74 77  1  0  0  0
 74144  1  0  0  0
 74145  1  0  0  0
 76146  1  0  0  0
M  ISO  4   1 100  68 101  75 101  76 100
M  END
> <chiral flag>
0

> <version>
0

> <s_m_source_file>
/data/baiqing/PycharmProjects/Reinvent-master-3.2/result/LINK_invent/BTK/process_docking_weight1_custom_sum_contain_oxygen_bond_distance_aromatic_linkinvent_7_9_3/rearranged_h_0022.sdf

> <i_m_source_file_index>
15

> <r_mmod_Potential_Energy-OPLS-2005>
4165.89306640625

> <r_mmod_Stretch_Energy-OPLS-2005>
1943.9072265625

> <r_mmod_Bend_Energy-OPLS-2005>
902.594787597656

> <r_mmod_Torsional_Energy-OPLS-2005>
235.429428100586

> <r_mmod_Improper_Torsional_Energy-OPLS-2005>
4.23702907562256

> <r_mmod_Van_der_Waal_Energy-OPLS-2005>
118.376640319824

> <r_mmod_Electrostatic_Energy-OPLS-2005>
-357.413269042969

> <r_mmod_Solvation_Energy-OPLS-2005>
-218.476943969727

> <b_mmod_Minimization_Converged-OPLS-2005>
0

> <r_mmod_RMS_Derivative-OPLS-2005>
4.15741300582886

$$$$
15
                    3D
 Structure written by MMmdl.
150158  0  0  1  0            999 V2000
  -30.2484  -15.7698   20.3184 C   0  0  0  0  0  0
  -30.4155  -13.1829   19.5400 C   0  0  0  0  0  0
  -29.5552  -12.6891   18.3373 C   0  0  0  0  0  0
  -28.1395  -12.3027   18.7878 C   0  0  0  0  0  0
  -27.5909  -13.3207   19.8105 C   0  0  2  0  0  0
  -28.5988  -13.7107   20.9205 C   0  0  0  0  0  0
  -25.2298  -13.8301   20.5810 C   0  0  0  0  0  0
  -24.1704  -13.0433   20.9300 C   0  0  0  0  0  0
  -24.6422  -11.6950   20.8765 C   0  0  0  0  0  0
  -23.9127  -10.4293   21.0392 C   0  0  0  0  0  0
  -24.3657   -9.4206   21.9175 C   0  0  0  0  0  0
  -23.6315   -8.2249   22.0751 C   0  0  0  0  0  0
  -22.4296   -8.0289   21.3543 C   0  0  0  0  0  0
  -21.9944   -9.0264   20.4642 C   0  0  0  0  0  0
  -22.7290  -10.2134   20.3045 C   0  0  0  0  0  0
  -21.6861   -6.0742   22.5278 C   0  0  0  0  0  0
  -21.4020   -6.5642   23.8212 C   0  0  0  0  0  0
  -21.3661   -5.6793   24.9172 C   0  0  0  0  0  0
  -21.6044   -4.3056   24.7222 C   0  0  0  0  0  0
  -21.8819   -3.8149   23.4342 C   0  0  0  0  0  0
  -21.9195   -4.6968   22.3399 C   0  0  0  0  0  0
  -22.7713  -13.5154   21.1931 C   0  0  0  0  0  0
  -22.1662   -4.2152   21.0977 F   0  0  0  0  0  0
  -21.5627   -3.4538   25.7734 F   0  0  0  0  0  0
  -29.7494  -14.3771   20.2545 N   0  0  0  0  0  0
  -26.2762  -12.9655   20.3251 N   0  0  0  0  0  0
  -25.9374  -11.6713   20.5694 N   0  0  0  0  0  0
  -22.0382  -12.8126   22.0482 N   0  0  0  0  0  0
  -25.3865  -15.2044   20.4242 N   0  0  0  0  0  0
  -31.4883  -15.6892   20.1837 O   0  0  0  0  0  0
  -21.6651   -6.8889   21.4241 O   0  0  0  0  0  0
  -22.3384  -14.5450   20.6767 O   0  0  0  0  0  0
  -24.6936  -31.7880   23.1428 C   0  0  0  0  0  0
  -25.9467  -32.4410   23.8013 C   0  0  1  0  0  0
  -27.2302  -26.5989   20.2266 C   0  0  0  0  0  0
  -25.6003  -33.8240   24.1891 N   0  0  0  0  0  0
  -23.5245  -30.3856   21.4988 C   0  0  2  0  0  0
  -24.9833  -28.7043   20.1216 C   0  0  0  0  0  0
  -22.7812  -29.4254   22.4678 C   0  0  0  0  0  0
  -18.0346  -28.1430   22.8452 C   0  0  0  0  0  0
  -24.1491  -36.7124   23.2657 C   0  0  0  0  0  0
  -26.1100  -30.4874   21.4225 C   0  0  0  0  0  0
  -26.1747  -29.0404   20.7750 C   0  0  0  0  0  0
  -27.2787  -28.0195   20.7901 C   0  0  0  0  0  0
  -26.0040  -26.4982   19.5142 C   0  0  0  0  0  0
  -24.9432  -27.4603   19.4666 C   0  0  0  0  0  0
  -23.7848  -29.6729   20.1388 C   0  0  0  0  0  0
  -25.4146  -36.2862   24.0277 C   0  0  1  0  0  0
  -20.5987  -28.3794   23.1123 C   0  0  2  0  0  0
  -20.6808  -26.9443   22.5406 C   0  0  0  0  0  0
  -19.5784  -26.6368   21.5220 C   0  0  0  0  0  0
  -18.1965  -26.7956   22.1618 C   0  0  0  0  0  0
  -19.1615  -28.8938   23.2766 C   0  0  0  0  0  0
  -18.9520  -30.1518   23.8818 C   0  0  0  0  0  0
  -17.6510  -30.6611   24.0548 C   0  0  0  0  0  0
  -25.9135  -34.9256   23.4927 C   0  0  0  0  0  0
  -16.5398  -29.9091   23.6355 C   0  0  0  0  0  0
  -16.7325  -28.6512   23.0374 C   0  0  0  0  0  0
  -26.4612  -31.6489   25.0679 C   0  0  0  0  0  0
  -25.3647  -31.3839   26.1271 C   0  0  0  0  0  0
  -27.0563  -30.2817   24.6654 C   0  0  0  0  0  0
  -27.6040  -32.4375   25.7501 C   0  0  0  0  0  0
  -27.5556  -37.1720   24.8469 C   0  0  0  0  0  0
  -21.4449  -29.3021   22.3428 N   0  0  0  0  0  0
  -26.4262  -37.3636   23.9411 N   0  0  0  0  0  0
  -24.8007  -30.9225   22.0736 N   0  0  0  0  0  0
  -23.4207  -28.7872   23.3069 O   0  0  0  0  0  0
  -28.1818  -25.3338   20.2923 O   0  0  0  0  0  0
  -26.5788  -34.8853   22.4554 O   0  0  0  0  0  0
  -23.5933  -32.1000   23.6317 O   0  0  0  0  0  0
  -30.9069  -19.4362   20.3719 C   0  0  0  0  0  0
  -28.9580  -21.8867   20.2832 C   0  0  0  0  0  0
  -28.6619  -20.2698   20.2819 C   0  0  0  0  0  0
  -30.3851  -21.9704   20.3367 C   0  0  0  0  0  0
  -29.5939  -18.9217   20.3240 C   0  0  0  0  0  0
  -31.2677  -20.8241   20.3814 C   0  0  0  0  0  0
  -27.1860  -19.9379   20.2307 C   0  0  0  0  0  0
  -31.0516  -23.3430   20.3448 C   0  0  0  0  0  0
  -27.9696  -23.5347   20.2045 C   0  0  0  0  0  0
  -29.4682  -17.1603   20.3388 N   0  0  0  0  0  0
  -32.9747  -21.1087   20.4568 Cl  0  0  0  0  0  0
  -31.3967  -13.4679   19.1591 H   0  0  0  0  0  0
  -30.6131  -12.3655   20.2358 H   0  0  0  0  0  0
  -30.0374  -11.8460   17.8407 H   0  0  0  0  0  0
  -29.4912  -13.4867   17.5958 H   0  0  0  0  0  0
  -28.1918  -11.3165   19.2506 H   0  0  0  0  0  0
  -27.4710  -12.2089   17.9311 H   0  0  0  0  0  0
  -27.4348  -14.2234   19.2179 H   0  0  0  0  0  0
  -28.8912  -12.8510   21.5253 H   0  0  0  0  0  0
  -28.1392  -14.4230   21.6073 H   0  0  0  0  0  0
  -25.2795   -9.5680   22.4763 H   0  0  0  0  0  0
  -24.0014   -7.4642   22.7478 H   0  0  0  0  0  0
  -21.0873   -8.8793   19.8949 H   0  0  0  0  0  0
  -22.3747  -10.9676   19.6159 H   0  0  0  0  0  0
  -21.2016   -7.6150   23.9716 H   0  0  0  0  0  0
  -21.1483   -6.0522   25.9075 H   0  0  0  0  0  0
  -22.0595   -2.7610   23.2841 H   0  0  0  0  0  0
  -22.4030  -11.9802   22.4874 H   0  0  0  0  0  0
  -21.0986  -13.1114   22.2682 H   0  0  0  0  0  0
  -24.6100  -15.8481   20.5310 H   0  0  0  0  0  0
  -26.2209  -15.6464   20.0633 H   0  0  0  0  0  0
  -26.7556  -32.4856   23.0727 H   0  0  0  0  0  0
  -25.0058  -33.9262   24.9983 H   0  0  0  0  0  0
  -22.8560  -31.2258   21.2995 H   0  0  0  0  0  0
  -23.3775  -35.9431   23.3267 H   0  0  0  0  0  0
  -24.3553  -36.8843   22.2081 H   0  0  0  0  0  0
  -23.7228  -37.6277   23.6773 H   0  0  0  0  0  0
  -26.3237  -31.2052   20.6295 H   0  0  0  0  0  0
  -26.9570  -30.5598   22.0920 H   0  0  0  0  0  0
  -28.1738  -28.2879   21.3331 H   0  0  0  0  0  0
  -25.8197  -25.5629   19.0050 H   0  0  0  0  0  0
  -24.0470  -27.1929   18.9237 H   0  0  0  0  0  0
  -23.9696  -30.4284   19.3742 H   0  0  0  0  0  0
  -22.8875  -29.1453   19.8112 H   0  0  0  0  0  0
  -25.1361  -36.1608   25.0766 H   0  0  0  0  0  0
  -21.0068  -28.3427   24.1250 H   0  0  0  0  0  0
  -20.5663  -26.2421   23.3677 H   0  0  0  0  0  0
  -21.6667  -26.7369   22.1228 H   0  0  0  0  0  0
  -19.6938  -25.6257   21.1303 H   0  0  0  0  0  0
  -19.6732  -27.3134   20.6715 H   0  0  0  0  0  0
  -17.4236  -26.6704   21.4019 H   0  0  0  0  0  0
  -18.0345  -26.0120   22.9034 H   0  0  0  0  0  0
  -19.7997  -30.7352   24.2154 H   0  0  0  0  0  0
  -17.5062  -31.6284   24.5164 H   0  0  0  0  0  0
  -15.5396  -30.2970   23.7725 H   0  0  0  0  0  0
  -15.8724  -28.0801   22.7143 H   0  0  0  0  0  0
  -24.5865  -30.7157   25.7563 H   0  0  0  0  0  0
  -24.8800  -32.3071   26.4456 H   0  0  0  0  0  0
  -25.7794  -30.9156   27.0206 H   0  0  0  0  0  0
  -26.3304  -29.6395   24.1658 H   0  0  0  0  0  0
  -27.3966  -29.7308   25.5432 H   0  0  0  0  0  0
  -27.9290  -30.3925   24.0218 H   0  0  0  0  0  0
  -27.2571  -33.3763   26.1832 H   0  0  0  0  0  0
  -28.3974  -32.6798   25.0419 H   0  0  0  0  0  0
  -28.0572  -31.8671   26.5618 H   0  0  0  0  0  0
  -28.2542  -38.0043   24.7514 H   0  0  0  0  0  0
  -28.1082  -36.2565   24.6301 H   0  0  0  0  0  0
  -27.2272  -37.1362   25.8871 H   0  0  0  0  0  0
  -20.9775  -29.8662   21.6468 H   0  0  0  0  0  0
  -26.0078  -38.2678   24.1429 H   0  0  0  0  0  0
  -31.7153  -18.7201   20.4093 H   0  0  0  0  0  0
  -26.5793  -20.8287   20.0679 H   0  0  0  0  0  0
  -26.8710  -19.4784   21.1679 H   0  0  0  0  0  0
  -26.9814  -19.2371   19.4209 H   0  0  0  0  0  0
  -30.3709  -24.1805   20.2460 H   0  0  0  0  0  0
  -31.7569  -23.4237   19.5173 H   0  0  0  0  0  0
  -31.6030  -23.4877   21.2744 H   0  0  0  0  0  0
  -27.2017  -23.3658   20.9593 H   0  0  0  0  0  0
  -27.4298  -23.4210   19.2646 H   0  0  0  0  0  0
  -28.4910  -16.9071   20.3689 H   0  0  0  0  0  0
  1 25  1  0  0  0
  1 30  2  0  0  0
  1 80  1  0  0  0
  2  3  1  0  0  0
  2 25  1  0  0  0
  2 82  1  0  0  0
  2 83  1  0  0  0
  3  4  1  0  0  0
  3 84  1  0  0  0
  3 85  1  0  0  0
  4  5  1  0  0  0
  4 86  1  0  0  0
  4 87  1  0  0  0
  5  6  1  0  0  0
  5 26  1  0  0  0
  5 88  1  0  0  0
  6 25  1  0  0  0
  6 89  1  0  0  0
  6 90  1  0  0  0
  7  8  2  0  0  0
  7 26  1  0  0  0
  7 29  1  0  0  0
  8  9  1  0  0  0
  8 22  1  0  0  0
  9 10  1  0  0  0
  9 27  2  0  0  0
 10 11  2  0  0  0
 10 15  1  0  0  0
 11 12  1  0  0  0
 11 91  1  0  0  0
 12 13  2  0  0  0
 12 92  1  0  0  0
 13 14  1  0  0  0
 13 31  1  0  0  0
 14 15  2  0  0  0
 14 93  1  0  0  0
 15 94  1  0  0  0
 16 17  2  0  0  0
 16 21  1  0  0  0
 16 31  1  0  0  0
 17 18  1  0  0  0
 17 95  1  0  0  0
 18 19  2  0  0  0
 18 96  1  0  0  0
 19 20  1  0  0  0
 19 24  1  0  0  0
 20 21  2  0  0  0
 20 97  1  0  0  0
 21 23  1  0  0  0
 22 28  1  0  0  0
 22 32  2  0  0  0
 26 27  1  0  0  0
 28 98  1  0  0  0
 28 99  1  0  0  0
 29100  1  0  0  0
 29101  1  0  0  0
 33 34  1  0  0  0
 33 66  1  0  0  0
 33 70  2  0  0  0
 34 36  1  0  0  0
 34 59  1  0  0  0
 34102  1  0  0  0
 35 44  2  0  0  0
 35 45  1  0  0  0
 35 68  1  0  0  0
 36 56  1  0  0  0
 36103  1  0  0  0
 37 39  1  0  0  0
 37 47  1  0  0  0
 37 66  1  0  0  0
 37104  1  0  0  0
 38 43  2  0  0  0
 38 46  1  0  0  0
 38 47  1  0  0  0
 39 64  1  0  0  0
 39 67  2  0  0  0
 40 52  1  0  0  0
 40 53  2  0  0  0
 40 58  1  0  0  0
 41105  1  0  0  0
 41106  1  0  0  0
 41107  1  0  0  0
 41 48  1  0  0  0
 42 43  1  0  0  0
 42 66  1  0  0  0
 42108  1  0  0  0
 42109  1  0  0  0
 43 44  1  0  0  0
 44110  1  0  0  0
 45 46  2  0  0  0
 45111  1  0  0  0
 46112  1  0  0  0
 47113  1  0  0  0
 47114  1  0  0  0
 48 56  1  0  0  0
 48 65  1  0  0  0
 48115  1  0  0  0
 49 50  1  0  0  0
 49 53  1  0  0  0
 49 64  1  0  0  0
 49116  1  0  0  0
 50 51  1  0  0  0
 50117  1  0  0  0
 50118  1  0  0  0
 51 52  1  0  0  0
 51119  1  0  0  0
 51120  1  0  0  0
 52121  1  0  0  0
 52122  1  0  0  0
 53 54  1  0  0  0
 54 55  2  0  0  0
 54123  1  0  0  0
 55 57  1  0  0  0
 55124  1  0  0  0
 56 69  2  0  0  0
 57 58  2  0  0  0
 57125  1  0  0  0
 58126  1  0  0  0
 59 60  1  0  0  0
 59 61  1  0  0  0
 59 62  1  0  0  0
 60127  1  0  0  0
 60128  1  0  0  0
 60129  1  0  0  0
 61130  1  0  0  0
 61131  1  0  0  0
 61132  1  0  0  0
 62133  1  0  0  0
 62134  1  0  0  0
 62135  1  0  0  0
 63 65  1  0  0  0
 63136  1  0  0  0
 63137  1  0  0  0
 63138  1  0  0  0
 64139  1  0  0  0
 65140  1  0  0  0
 68 79  1  0  0  0
 71 75  2  0  0  0
 71 76  1  0  0  0
 71141  1  0  0  0
 72 73  2  0  0  0
 72 74  1  0  0  0
 72 79  1  0  0  0
 73 75  1  0  0  0
 73 77  1  0  0  0
 74 76  2  0  0  0
 74 78  1  0  0  0
 75 80  1  0  0  0
 76 81  1  0  0  0
 77142  1  0  0  0
 77143  1  0  0  0
 77144  1  0  0  0
 78145  1  0  0  0
 78146  1  0  0  0
 78147  1  0  0  0
 79148  1  0  0  0
 79149  1  0  0  0
 80150  1  0  0  0
M  ISO  4   1 100  68 101  79 101  80 100
M  END
> <chiral flag>
0

> <version>
0

> <s_m_source_file>
/data/baiqing/PycharmProjects/Reinvent-master-3.2/result/LINK_invent/BTK/process_docking_weight1_custom_sum_contain_oxygen_bond_distance_aromatic_linkinvent_7_9_3/rearranged_h_0022.sdf

> <i_m_source_file_index>
16

> <r_mmod_Potential_Energy-OPLS-2005>
2817.22192382812

> <r_mmod_Stretch_Energy-OPLS-2005>
1272.35437011719

> <r_mmod_Bend_Energy-OPLS-2005>
639.191650390625

> <r_mmod_Torsional_Energy-OPLS-2005>
222.855453491211

> <r_mmod_Improper_Torsional_Energy-OPLS-2005>
4.07536315917969

> <r_mmod_Van_der_Waal_Energy-OPLS-2005>
131.220428466797

> <r_mmod_Electrostatic_Energy-OPLS-2005>
-362.911651611328

> <r_mmod_Solvation_Energy-OPLS-2005>
-212.001556396484

> <b_mmod_Minimization_Converged-OPLS-2005>
0

> <r_mmod_RMS_Derivative-OPLS-2005>
0.344936728477478

$$$$
16
                    3D
 Structure written by MMmdl.
193202  0  0  1  0            999 V2000
  -28.7946  -13.9723   19.1190 C   0  0  0  0  0  0
  -30.6544  -12.5966   19.4904 C   0  0  0  0  0  0
  -29.8067  -11.6086   18.7483 C   0  0  0  0  0  0
  -28.7296  -11.3083   19.8532 C   0  0  0  0  0  0
  -28.0720  -12.5052   21.0299 C   0  0  2  0  0  0
  -29.1510  -13.3937   21.3395 C   0  0  0  0  0  0
  -25.6458  -14.1609   20.7329 C   0  0  0  0  0  0
  -24.4400  -13.5785   21.0986 C   0  0  0  0  0  0
  -24.8549  -12.1628   21.0582 C   0  0  0  0  0  0
  -24.1854  -10.1264   20.5340 C   0  0  0  0  0  0
  -24.4564   -8.7928   21.1576 C   0  0  0  0  0  0
  -23.5467   -7.9601   21.8011 C   0  0  0  0  0  0
  -22.3164   -7.8628   21.1954 C   0  0  0  0  0  0
  -22.1492   -8.6275   20.0487 C   0  0  0  0  0  0
  -23.1330   -9.5758   19.6604 C   0  0  0  0  0  0
  -21.5866   -6.0594   22.5480 C   0  0  0  0  0  0
  -21.3474   -6.5494   23.8476 C   0  0  0  0  0  0
  -21.3649   -5.6650   24.9414 C   0  0  0  0  0  0
  -21.6160   -4.2959   24.7334 C   0  0  0  0  0  0
  -21.8966   -3.8147   23.4412 C   0  0  0  0  0  0
  -21.8924   -4.6977   22.3475 C   0  0  0  0  0  0
  -23.0834  -14.3313   21.2323 C   0  0  0  0  0  0
  -22.1421   -4.2297   21.0997 F   0  0  0  0  0  0
  -21.5883   -3.4400   25.7808 F   0  0  0  0  0  0
  -29.6576  -13.5197   20.0431 N   0  0  0  0  0  0
  -26.6454  -13.2109   21.0859 N   0  0  0  0  0  0
  -25.8576  -12.6063   21.7963 N   0  0  0  0  0  0
  -22.1004  -13.9123   22.0528 N   0  0  0  0  0  0
  -25.8735  -15.4163   20.2312 N   0  0  0  0  0  0
  -29.5729  -14.9034   18.7415 O   0  0  0  0  0  0
  -21.4167   -6.8781   21.4677 O   0  0  0  0  0  0
  -22.7303  -15.1682   20.4329 O   0  0  0  0  0  0
  -24.6271  -31.8610   23.2042 C   0  0  0  0  0  0
  -25.9124  -32.4773   23.8354 C   0  0  1  0  0  0
  -27.1192  -27.2535   20.1970 C   0  0  0  0  0  0
  -25.5946  -33.8578   24.2277 N   0  0  0  0  0  0
  -23.4152  -30.4933   21.5473 C   0  0  2  0  0  0
  -24.8450  -28.9564   20.0964 C   0  0  0  0  0  0
  -22.7469  -29.4641   22.4913 C   0  0  0  0  0  0
  -18.0287  -28.1376   22.8489 C   0  0  0  0  0  0
  -24.1487  -36.7287   23.2641 C   0  0  0  0  0  0
  -25.9581  -30.7844   21.3749 C   0  0  0  0  0  0
  -26.0149  -29.4106   20.7176 C   0  0  0  0  0  0
  -27.1660  -28.5712   20.7513 C   0  0  0  0  0  0
  -25.9526  -26.8764   19.5057 C   0  0  0  0  0  0
  -24.8223  -27.7060   19.4646 C   0  0  0  0  0  0
  -23.6230  -29.8458   20.1537 C   0  0  0  0  0  0
  -25.4116  -36.3076   24.0327 C   0  0  1  0  0  0
  -20.5890  -28.3681   23.1277 C   0  0  2  0  0  0
  -20.6778  -26.9403   22.5407 C   0  0  0  0  0  0
  -19.5753  -26.6374   21.5213 C   0  0  0  0  0  0
  -18.1930  -26.7923   22.1623 C   0  0  0  0  0  0
  -19.1541  -28.8847   23.2880 C   0  0  0  0  0  0
  -18.9462  -30.1451   23.8894 C   0  0  0  0  0  0
  -17.6464  -30.6582   24.0558 C   0  0  0  0  0  0
  -25.9055  -34.9448   23.5100 C   0  0  0  0  0  0
  -16.5353  -29.9079   23.6332 C   0  0  0  0  0  0
  -16.7275  -28.6493   23.0358 C   0  0  0  0  0  0
  -26.4507  -31.6587   25.0726 C   0  0  0  0  0  0
  -25.3744  -31.3718   26.1451 C   0  0  0  0  0  0
  -27.0350  -30.3016   24.6174 C   0  0  0  0  0  0
  -27.6053  -32.4333   25.7503 C   0  0  0  0  0  0
  -27.5576  -37.1806   24.8474 C   0  0  0  0  0  0
  -21.4184  -29.3040   22.3669 N   0  0  0  0  0  0
  -26.4294  -37.3772   23.9404 N   0  0  0  0  0  0
  -24.6866  -31.0645   22.0984 N   0  0  0  0  0  0
  -23.4209  -28.8168   23.2972 O   0  0  0  0  0  0
  -28.1400  -26.3207   20.3850 O   0  0  0  0  0  0
  -26.5616  -34.8915   22.4658 O   0  0  0  0  0  0
  -23.5440  -32.1410   23.7384 O   0  0  0  0  0  0
  -25.7593  -15.2183   23.6718 C   0  0  0  0  0  0
  -24.4518  -14.7641   24.0034 C   0  0  0  0  0  0
  -23.8336  -17.2130   23.8731 C   0  0  0  0  0  0
  -25.1621  -17.6452   23.5211 C   0  0  0  0  0  0
  -26.1096  -16.5847   23.4351 C   0  0  0  0  0  0
  -23.5092  -15.8285   24.1556 C   0  0  0  0  0  0
  -25.2358  -10.4805   22.7100 C   0  0  0  0  0  0
  -26.4953  -10.4251   20.9076 C   0  0  0  0  0  0
  -24.0702  -12.0119   18.8875 C   0  0  0  0  0  0
  -23.3000  -11.2429   22.5106 C   0  0  2  0  0  0
  -26.1575  -11.6933   19.1115 C   0  0  2  0  0  0
  -22.5732  -11.8341   20.4919 C   0  0  2  0  0  0
  -22.7296  -18.2568   24.0216 C   0  0  0  0  0  0
  -26.3020  -10.7782   17.8710 C   0  0  0  0  0  0
  -21.0930  -11.2296   20.5399 C   0  0  0  0  0  0
  -22.1745  -11.7509   24.7098 C   0  0  0  0  0  0
  -24.1977  -13.2000   24.3163 C   0  0  0  0  0  0
  -25.6295  -19.1849   23.5184 C   0  0  0  0  0  0
  -26.8444  -22.4118   21.2790 C   0  0  0  0  0  0
  -27.0168  -24.0214   21.4339 C   0  0  0  0  0  0
  -26.1824  -21.5225   22.4633 C   0  0  0  0  0  0
  -27.8575  -24.8463   20.3247 C   0  0  0  0  0  0
  -27.4062  -13.1546   18.6677 N   0  0  0  0  0  0
  -25.9043  -20.0183   22.2612 N   0  3  0  0  0  0
  -23.1081  -12.2713   23.6791 N   0  3  1  0  0  0
  -21.7559  -12.7188   19.8891 F   0  0  0  0  0  0
  -27.7640  -16.9378   23.0826 Cl  0  0  0  0  0  0
  -21.9346  -15.4350   24.7604 Cl  0  0  0  0  0  0
  -31.3591  -13.0951   18.8212 H   0  0  0  0  0  0
  -31.2391  -12.1289   20.2842 H   0  0  0  0  0  0
  -30.3955  -10.7138   18.5429 H   0  0  0  0  0  0
  -29.4259  -11.9126   17.7696 H   0  0  0  0  0  0
  -29.3394  -10.7126   20.5381 H   0  0  0  0  0  0
  -28.2017  -10.4785   19.4225 H   0  0  0  0  0  0
  -28.1011  -11.9951   21.9959 H   0  0  0  0  0  0
  -29.9051  -12.9518   21.9917 H   0  0  0  0  0  0
  -28.8285  -14.3443   21.7690 H   0  0  0  0  0  0
  -25.3957   -8.4684   21.5805 H   0  0  0  0  0  0
  -23.8802   -7.2301   22.5236 H   0  0  0  0  0  0
  -21.2848   -8.4636   19.4235 H   0  0  0  0  0  0
  -22.7659  -10.0509   18.7691 H   0  0  0  0  0  0
  -21.0996   -7.5901   24.0011 H   0  0  0  0  0  0
  -21.1608   -6.0301   25.9387 H   0  0  0  0  0  0
  -22.1017   -2.7669   23.2860 H   0  0  0  0  0  0
  -21.4544  -13.3719   21.4801 H   0  0  0  0  0  0
  -21.5753  -14.6980   22.4270 H   0  0  0  0  0  0
  -25.1195  -16.0434   19.9798 H   0  0  0  0  0  0
  -26.7898  -15.8083   20.0642 H   0  0  0  0  0  0
  -26.7182  -32.5421   23.1083 H   0  0  0  0  0  0
  -25.0106  -33.9717   25.0434 H   0  0  0  0  0  0
  -22.7091  -31.3158   21.4170 H   0  0  0  0  0  0
  -23.3746  -35.9626   23.3316 H   0  0  0  0  0  0
  -24.3572  -36.8898   22.2053 H   0  0  0  0  0  0
  -23.7250  -37.6496   23.6659 H   0  0  0  0  0  0
  -26.0938  -31.5456   20.6047 H   0  0  0  0  0  0
  -26.8400  -30.8277   22.0031 H   0  0  0  0  0  0
  -28.0543  -28.8952   21.2750 H   0  0  0  0  0  0
  -25.8600  -25.9118   19.0329 H   0  0  0  0  0  0
  -23.9267  -27.3619   18.9638 H   0  0  0  0  0  0
  -23.7463  -30.6300   19.4062 H   0  0  0  0  0  0
  -22.7371  -29.2856   19.8478 H   0  0  0  0  0  0
  -25.1300  -36.1925   25.0824 H   0  0  0  0  0  0
  -20.9986  -28.3257   24.1398 H   0  0  0  0  0  0
  -20.5679  -26.2292   23.3607 H   0  0  0  0  0  0
  -21.6645  -26.7435   22.1202 H   0  0  0  0  0  0
  -19.6909  -25.6284   21.1244 H   0  0  0  0  0  0
  -19.6687  -27.3180   20.6742 H   0  0  0  0  0  0
  -17.4202  -26.6673   21.4022 H   0  0  0  0  0  0
  -18.0325  -26.0065   22.9018 H   0  0  0  0  0  0
  -19.7938  -30.7265   24.2261 H   0  0  0  0  0  0
  -17.5017  -31.6264   24.5151 H   0  0  0  0  0  0
  -15.5353  -30.2973   23.7661 H   0  0  0  0  0  0
  -15.8674  -28.0804   22.7083 H   0  0  0  0  0  0
  -24.5912  -30.7075   25.7782 H   0  0  0  0  0  0
  -24.8942  -32.2882   26.4895 H   0  0  0  0  0  0
  -25.8071  -30.8882   27.0217 H   0  0  0  0  0  0
  -26.2919  -29.6765   24.1206 H   0  0  0  0  0  0
  -27.4067  -29.7271   25.4670 H   0  0  0  0  0  0
  -27.8783  -30.4309   23.9382 H   0  0  0  0  0  0
  -27.2643  -33.3625   26.2080 H   0  0  0  0  0  0
  -28.3862  -32.6913   25.0338 H   0  0  0  0  0  0
  -28.0724  -31.8469   26.5423 H   0  0  0  0  0  0
  -28.2610  -38.0085   24.7490 H   0  0  0  0  0  0
  -28.1050  -36.2614   24.6339 H   0  0  0  0  0  0
  -27.2286  -37.1507   25.8875 H   0  0  0  0  0  0
  -20.9344  -29.8782   21.6904 H   0  0  0  0  0  0
  -26.0172  -38.2849   24.1386 H   0  0  0  0  0  0
  -26.5517  -14.4890   23.6077 H   0  0  0  0  0  0
  -25.7988  -10.9884   23.4906 H   0  0  0  0  0  0
  -25.2076   -9.5553   23.2899 H   0  0  0  0  0  0
  -26.5803   -9.4674   20.3925 H   0  0  0  0  0  0
  -27.4409  -10.2069   21.3874 H   0  0  0  0  0  0
  -23.7392  -11.5576   17.9533 H   0  0  0  0  0  0
  -23.9968  -13.0520   18.5660 H   0  0  0  0  0  0
  -22.6630  -10.3980   22.7742 H   0  0  0  0  0  0
  -21.7683  -17.8761   23.6783 H   0  0  0  0  0  0
  -22.9160  -19.1483   23.4256 H   0  0  0  0  0  0
  -22.6242  -18.5547   25.0649 H   0  0  0  0  0  0
  -25.8083   -9.8203   18.0333 H   0  0  0  0  0  0
  -27.3243  -10.5716   17.5652 H   0  0  0  0  0  0
  -25.8333  -11.2391   17.0017 H   0  0  0  0  0  0
  -21.0310  -10.4032   21.2424 H   0  0  0  0  0  0
  -20.6962  -10.8829   19.5795 H   0  0  0  0  0  0
  -20.3150  -11.8592   20.9974 H   0  0  0  0  0  0
  -21.2779  -11.3259   24.2586 H   0  0  0  0  0  0
  -21.8327  -12.5452   25.3741 H   0  0  0  0  0  0
  -22.6485  -10.9799   25.3181 H   0  0  0  0  0  0
  -23.9947  -13.2160   25.3877 H   0  0  0  0  0  0
  -25.1658  -12.7235   24.3001 H   0  0  0  0  0  0
  -26.5491  -19.2180   24.1027 H   0  0  0  0  0  0
  -24.9332  -19.7519   24.1354 H   0  0  0  0  0  0
  -27.8365  -22.0007   21.0873 H   0  0  0  0  0  0
  -26.2800  -22.2315   20.3638 H   0  0  0  0  0  0
  -27.4730  -24.2196   22.4050 H   0  0  0  0  0  0
  -26.0206  -24.4614   21.4916 H   0  0  0  0  0  0
  -25.2370  -21.9844   22.7526 H   0  0  0  0  0  0
  -26.8268  -21.6177   23.3382 H   0  0  0  0  0  0
  -27.4783  -24.5957   19.3353 H   0  0  0  0  0  0
  -28.8506  -24.3965   20.3238 H   0  0  0  0  0  0
  -27.0444  -13.6442   17.8613 H   0  0  0  0  0  0
  -25.1129  -19.9245   21.6454 H   0  0  0  0  0  0
  -26.6938  -19.6041   21.7936 H   0  0  0  0  0  0
  -22.5525  -12.9728   23.1821 H   0  0  0  0  0  0
  1 25  1  0  0  0
  1 30  2  0  0  0
  1 93  1  0  0  0
  2  3  1  0  0  0
  2 25  1  0  0  0
  2 99  1  0  0  0
  2100  1  0  0  0
  3  4  1  0  0  0
  3101  1  0  0  0
  3102  1  0  0  0
  4  5  1  0  0  0
  4103  1  0  0  0
  4104  1  0  0  0
  5  6  1  0  0  0
  5 26  1  0  0  0
  5105  1  0  0  0
  6 25  1  0  0  0
  6106  1  0  0  0
  6107  1  0  0  0
  7  8  2  0  0  0
  7 26  1  0  0  0
  7 29  1  0  0  0
  8  9  1  0  0  0
  8 22  1  0  0  0
  9 10  1  0  0  0
  9 27  2  0  0  0
 10 11  2  0  0  0
 10 15  1  0  0  0
 11 12  1  0  0  0
 11108  1  0  0  0
 12 13  2  0  0  0
 12109  1  0  0  0
 13 14  1  0  0  0
 13 31  1  0  0  0
 14 15  2  0  0  0
 14110  1  0  0  0
 15111  1  0  0  0
 16 17  2  0  0  0
 16 21  1  0  0  0
 16 31  1  0  0  0
 17 18  1  0  0  0
 17112  1  0  0  0
 18 19  2  0  0  0
 18113  1  0  0  0
 19 20  1  0  0  0
 19 24  1  0  0  0
 20 21  2  0  0  0
 20114  1  0  0  0
 21 23  1  0  0  0
 22 28  1  0  0  0
 22 32  2  0  0  0
 26 27  1  0  0  0
 28115  1  0  0  0
 28116  1  0  0  0
 29117  1  0  0  0
 29118  1  0  0  0
 33 34  1  0  0  0
 33 66  1  0  0  0
 33 70  2  0  0  0
 34 36  1  0  0  0
 34 59  1  0  0  0
 34119  1  0  0  0
 35 44  2  0  0  0
 35 45  1  0  0  0
 35 68  1  0  0  0
 36 56  1  0  0  0
 36120  1  0  0  0
 37 39  1  0  0  0
 37 47  1  0  0  0
 37 66  1  0  0  0
 37121  1  0  0  0
 38 43  2  0  0  0
 38 46  1  0  0  0
 38 47  1  0  0  0
 39 64  1  0  0  0
 39 67  2  0  0  0
 40 52  1  0  0  0
 40 53  2  0  0  0
 40 58  1  0  0  0
 41122  1  0  0  0
 41123  1  0  0  0
 41124  1  0  0  0
 41 48  1  0  0  0
 42 43  1  0  0  0
 42 66  1  0  0  0
 42125  1  0  0  0
 42126  1  0  0  0
 43 44  1  0  0  0
 44127  1  0  0  0
 45 46  2  0  0  0
 45128  1  0  0  0
 46129  1  0  0  0
 47130  1  0  0  0
 47131  1  0  0  0
 48 56  1  0  0  0
 48 65  1  0  0  0
 48132  1  0  0  0
 49 50  1  0  0  0
 49 53  1  0  0  0
 49 64  1  0  0  0
 49133  1  0  0  0
 50 51  1  0  0  0
 50134  1  0  0  0
 50135  1  0  0  0
 51 52  1  0  0  0
 51136  1  0  0  0
 51137  1  0  0  0
 52138  1  0  0  0
 52139  1  0  0  0
 53 54  1  0  0  0
 54 55  2  0  0  0
 54140  1  0  0  0
 55 57  1  0  0  0
 55141  1  0  0  0
 56 69  2  0  0  0
 57 58  2  0  0  0
 57142  1  0  0  0
 58143  1  0  0  0
 59 60  1  0  0  0
 59 61  1  0  0  0
 59 62  1  0  0  0
 60144  1  0  0  0
 60145  1  0  0  0
 60146  1  0  0  0
 61147  1  0  0  0
 61148  1  0  0  0
 61149  1  0  0  0
 62150  1  0  0  0
 62151  1  0  0  0
 62152  1  0  0  0
 63 65  1  0  0  0
 63153  1  0  0  0
 63154  1  0  0  0
 63155  1  0  0  0
 64156  1  0  0  0
 65157  1  0  0  0
 68 92  1  0  0  0
 71 72  2  0  0  0
 71 75  1  0  0  0
 71158  1  0  0  0
 72 76  1  0  0  0
 72 87  1  0  0  0
 73 74  1  0  0  0
 73 76  2  0  0  0
 73 83  1  0  0  0
 74 75  2  0  0  0
 74 88  1  0  0  0
 75 97  1  0  0  0
 76 98  1  0  0  0
 77 78  1  0  0  0
 77159  1  0  0  0
 77160  1  0  0  0
 77 80  1  0  0  0
 78 81  1  0  0  0
 78161  1  0  0  0
 78162  1  0  0  0
 79 81  1  0  0  0
 79 82  1  0  0  0
 79163  1  0  0  0
 79164  1  0  0  0
 80 82  1  0  0  0
 80 95  1  0  0  0
 80165  1  0  0  0
 81 84  1  0  0  0
 81 93  1  0  0  0
 82 85  1  0  0  0
 82 96  1  0  0  0
 83166  1  0  0  0
 83167  1  0  0  0
 83168  1  0  0  0
 84169  1  0  0  0
 84170  1  0  0  0
 84171  1  0  0  0
 85172  1  0  0  0
 85173  1  0  0  0
 85174  1  0  0  0
 86175  1  0  0  0
 86176  1  0  0  0
 86177  1  0  0  0
 86 95  1  0  0  0
 87 95  1  0  0  0
 87178  1  0  0  0
 87179  1  0  0  0
 88 94  1  0  0  0
 88180  1  0  0  0
 88181  1  0  0  0
 89 90  1  0  0  0
 89 91  1  0  0  0
 89182  1  0  0  0
 89183  1  0  0  0
 90 92  1  0  0  0
 90184  1  0  0  0
 90185  1  0  0  0
 91 94  1  0  0  0
 91186  1  0  0  0
 91187  1  0  0  0
 92188  1  0  0  0
 92189  1  0  0  0
 93190  1  0  0  0
 94191  1  0  0  0
 94192  1  0  0  0
 95193  1  0  0  0
M  CHG  2  94   1  95   1
M  ISO  4   1 100  68 101  92 101  93 100
M  END
> <chiral flag>
0

> <version>
0

> <s_m_source_file>
/data/baiqing/PycharmProjects/Reinvent-master-3.2/result/LINK_invent/BTK/process_docking_weight1_custom_sum_contain_oxygen_bond_distance_aromatic_linkinvent_7_9_3/rearranged_h_0022.sdf

> <i_m_source_file_index>
17

> <r_mmod_Potential_Energy-OPLS-2005>
11563.427734375

> <r_mmod_Stretch_Energy-OPLS-2005>
4625.3251953125

> <r_mmod_Bend_Energy-OPLS-2005>
1332.015625

> <r_mmod_Torsional_Energy-OPLS-2005>
768.6083984375

> <r_mmod_Improper_Torsional_Energy-OPLS-2005>
34.3325157165527

> <r_mmod_Van_der_Waal_Energy-OPLS-2005>
2676.00952148438

> <r_mmod_Electrostatic_Energy-OPLS-2005>
-182.459182739258

> <r_mmod_Solvation_Energy-OPLS-2005>
-815.719116210938

> <b_mmod_Minimization_Converged-OPLS-2005>
0

> <r_mmod_RMS_Derivative-OPLS-2005>
3.18486976623535

$$$$
17
                    3D
 Structure written by MMmdl.
173181  0  0  1  0            999 V2000
  -30.7693  -14.4559   20.5297 C   0  0  0  0  0  0
  -30.3948  -12.2894   19.4320 C   0  0  0  0  0  0
  -29.4833  -12.4817   18.2053 C   0  0  0  0  0  0
  -28.0062  -12.3586   18.6202 C   0  0  0  0  0  0
  -27.6546  -13.2209   19.8638 C   0  0  2  0  0  0
  -28.7001  -13.0630   20.9919 C   0  0  0  0  0  0
  -25.2565  -13.8195   20.5693 C   0  0  0  0  0  0
  -24.1838  -13.0460   20.9183 C   0  0  0  0  0  0
  -24.6409  -11.6927   20.8751 C   0  0  0  0  0  0
  -23.9086  -10.4304   21.0415 C   0  0  0  0  0  0
  -24.3635   -9.4212   21.9188 C   0  0  0  0  0  0
  -23.6301   -8.2252   22.0755 C   0  0  0  0  0  0
  -22.4284   -8.0294   21.3542 C   0  0  0  0  0  0
  -21.9935   -9.0272   20.4644 C   0  0  0  0  0  0
  -22.7270  -10.2143   20.3055 C   0  0  0  0  0  0
  -21.6853   -6.0752   22.5280 C   0  0  0  0  0  0
  -21.4021   -6.5652   23.8220 C   0  0  0  0  0  0
  -21.3654   -5.6795   24.9176 C   0  0  0  0  0  0
  -21.6035   -4.3059   24.7222 C   0  0  0  0  0  0
  -21.8822   -3.8160   23.4342 C   0  0  0  0  0  0
  -21.9197   -4.6978   22.3400 C   0  0  0  0  0  0
  -22.7854  -13.5236   21.1837 C   0  0  0  0  0  0
  -22.1664   -4.2167   21.0975 F   0  0  0  0  0  0
  -21.5621   -3.4539   25.7734 F   0  0  0  0  0  0
  -30.0287  -13.3201   20.4192 N   0  0  0  0  0  0
  -26.3006  -12.9401   20.3356 N   0  0  0  0  0  0
  -25.9340  -11.6549   20.5789 N   0  0  0  0  0  0
  -22.0500  -12.8219   22.0379 N   0  0  0  0  0  0
  -25.4294  -15.1920   20.4099 N   0  0  0  0  0  0
  -31.9146  -14.5259   20.0826 O   0  0  0  0  0  0
  -21.6643   -6.8897   21.4241 O   0  0  0  0  0  0
  -22.3543  -14.5543   20.6675 O   0  0  0  0  0  0
  -24.6154  -31.8692   23.2149 C   0  0  0  0  0  0
  -25.9045  -32.4839   23.8422 C   0  0  1  0  0  0
  -27.2212  -27.4247   20.0796 C   0  0  0  0  0  0
  -25.5891  -33.8636   24.2340 N   0  0  0  0  0  0
  -23.4022  -30.4973   21.5577 C   0  0  2  0  0  0
  -24.8409  -28.9700   20.1130 C   0  0  0  0  0  0
  -22.7405  -29.4671   22.5018 C   0  0  0  0  0  0
  -18.0270  -28.1366   22.8478 C   0  0  0  0  0  0
  -24.1486  -36.7304   23.2638 C   0  0  0  0  0  0
  -25.9346  -30.8250   21.3768 C   0  0  0  0  0  0
  -26.0053  -29.4634   20.7148 C   0  0  0  0  0  0
  -27.1942  -28.6970   20.6991 C   0  0  0  0  0  0
  -26.0389  -26.9684   19.4450 C   0  0  0  0  0  0
  -24.8533  -27.7206   19.4759 C   0  0  0  0  0  0
  -23.6061  -29.8398   20.1694 C   0  0  0  0  0  0
  -25.4113  -36.3121   24.0334 C   0  0  1  0  0  0
  -20.5851  -28.3648   23.1313 C   0  0  2  0  0  0
  -20.6777  -26.9391   22.5406 C   0  0  0  0  0  0
  -19.5756  -26.6373   21.5206 C   0  0  0  0  0  0
  -18.1928  -26.7911   22.1607 C   0  0  0  0  0  0
  -19.1519  -28.8825   23.2889 C   0  0  0  0  0  0
  -18.9464  -30.1427   23.8899 C   0  0  0  0  0  0
  -17.6467  -30.6580   24.0555 C   0  0  0  0  0  0
  -25.9031  -34.9488   23.5129 C   0  0  0  0  0  0
  -16.5354  -29.9079   23.6352 C   0  0  0  0  0  0
  -16.7261  -28.6495   23.0355 C   0  0  0  0  0  0
  -26.4469  -31.6630   25.0759 C   0  0  0  0  0  0
  -25.3724  -31.3715   26.1493 C   0  0  0  0  0  0
  -27.0325  -30.3083   24.6148 C   0  0  0  0  0  0
  -27.6050  -32.4366   25.7508 C   0  0  0  0  0  0
  -27.5592  -37.1795   24.8458 C   0  0  0  0  0  0
  -21.4134  -29.3014   22.3722 N   0  0  0  0  0  0
  -26.4305  -37.3804   23.9403 N   0  0  0  0  0  0
  -24.6683  -31.0785   22.1058 N   0  0  0  0  0  0
  -23.4172  -28.8221   23.3067 O   0  0  0  0  0  0
  -28.3939  -26.6866   20.1006 O   0  0  0  0  0  0
  -26.5614  -34.8948   22.4711 O   0  0  0  0  0  0
  -23.5347  -32.1461   23.7534 O   0  0  0  0  0  0
  -30.1075  -20.5555   20.6825 C   0  0  0  0  0  0
  -30.4606  -19.2292   20.3587 C   0  0  0  0  0  0
  -30.2392  -18.1777   21.2930 C   0  0  0  0  0  0
  -29.5026  -18.4646   22.4742 C   0  0  0  0  0  0
  -29.4949  -20.8778   21.9074 C   0  0  0  0  0  0
  -29.1160  -19.8065   22.7668 C   0  0  0  0  0  0
  -31.1127  -18.9899   19.0040 C   0  0  0  0  0  0
  -29.1497  -17.3278   23.4345 C   0  0  0  0  0  0
  -29.1651  -23.4736   24.4487 C   0  0  0  0  0  0
  -31.3387  -23.4512   23.1375 C   0  0  0  0  0  0
  -27.0370  -23.1365   21.9461 C   0  0  0  0  0  0
  -30.9575  -16.8242   21.1145 C   0  0  0  0  0  0
  -29.0500  -24.4903   21.0557 C   0  0  0  0  0  0
  -28.3176  -25.2547   19.9287 C   0  0  0  0  0  0
  -30.0408  -22.6935   23.4580 C   0  0  0  0  0  0
  -28.4668  -23.0767   21.3727 C   0  0  1  0  0  0
  -30.1834  -15.5688   21.0150 N   0  0  0  0  0  0
  -29.3254  -22.2466   22.2463 N   0  0  0  0  0  0
  -28.1737  -20.1378   24.1863 Cl  0  0  0  0  0  0
  -31.4433  -12.3311   19.1307 H   0  0  0  0  0  0
  -30.2547  -11.2949   19.8599 H   0  0  0  0  0  0
  -29.7174  -11.7395   17.4400 H   0  0  0  0  0  0
  -29.6623  -13.4587   17.7536 H   0  0  0  0  0  0
  -27.8099  -11.3062   18.8273 H   0  0  0  0  0  0
  -27.3583  -12.6266   17.7844 H   0  0  0  0  0  0
  -27.6839  -14.2602   19.5370 H   0  0  0  0  0  0
  -28.6678  -12.0552   21.4079 H   0  0  0  0  0  0
  -28.4789  -13.7371   21.8198 H   0  0  0  0  0  0
  -25.2787   -9.5679   22.4763 H   0  0  0  0  0  0
  -24.0010   -7.4644   22.7475 H   0  0  0  0  0  0
  -21.0874   -8.8799   19.8944 H   0  0  0  0  0  0
  -22.3748  -10.9684   19.6159 H   0  0  0  0  0  0
  -21.2020   -7.6165   23.9727 H   0  0  0  0  0  0
  -21.1463   -6.0527   25.9076 H   0  0  0  0  0  0
  -22.0605   -2.7624   23.2836 H   0  0  0  0  0  0
  -22.4135  -11.9891   22.4774 H   0  0  0  0  0  0
  -21.1097  -13.1212   22.2550 H   0  0  0  0  0  0
  -24.6661  -15.8498   20.5239 H   0  0  0  0  0  0
  -26.2849  -15.6293   20.0919 H   0  0  0  0  0  0
  -26.7108  -32.5548   23.1183 H   0  0  0  0  0  0
  -25.0031  -33.9783   25.0479 H   0  0  0  0  0  0
  -22.6926  -31.3172   21.4297 H   0  0  0  0  0  0
  -23.3771  -35.9617   23.3324 H   0  0  0  0  0  0
  -24.3558  -36.8906   22.2045 H   0  0  0  0  0  0
  -23.7223  -37.6500   23.6658 H   0  0  0  0  0  0
  -26.0615  -31.5994   20.6186 H   0  0  0  0  0  0
  -26.8164  -30.8612   22.0056 H   0  0  0  0  0  0
  -28.0906  -29.0739   21.1738 H   0  0  0  0  0  0
  -26.0010  -26.0457   18.8888 H   0  0  0  0  0  0
  -23.9617  -27.3427   18.9898 H   0  0  0  0  0  0
  -23.7102  -30.6231   19.4169 H   0  0  0  0  0  0
  -22.7287  -29.2612   19.8759 H   0  0  0  0  0  0
  -25.1298  -36.1992   25.0828 H   0  0  0  0  0  0
  -20.9925  -28.3232   24.1437 H   0  0  0  0  0  0
  -20.5710  -26.2258   23.3583 H   0  0  0  0  0  0
  -21.6655  -26.7472   22.1184 H   0  0  0  0  0  0
  -19.6945  -25.6289   21.1227 H   0  0  0  0  0  0
  -19.6725  -27.3201   20.6755 H   0  0  0  0  0  0
  -17.4204  -26.6653   21.3998 H   0  0  0  0  0  0
  -18.0325  -26.0052   22.9000 H   0  0  0  0  0  0
  -19.7941  -30.7204   24.2289 H   0  0  0  0  0  0
  -17.5045  -31.6277   24.5124 H   0  0  0  0  0  0
  -15.5352  -30.2979   23.7684 H   0  0  0  0  0  0
  -15.8656  -28.0815   22.7080 H   0  0  0  0  0  0
  -24.5912  -30.7055   25.7814 H   0  0  0  0  0  0
  -24.8887  -32.2855   26.4957 H   0  0  0  0  0  0
  -25.8047  -30.8874   27.0254 H   0  0  0  0  0  0
  -26.2876  -29.6819   24.1215 H   0  0  0  0  0  0
  -27.4117  -29.7341   25.4608 H   0  0  0  0  0  0
  -27.8721  -30.4426   23.9315 H   0  0  0  0  0  0
  -27.2675  -33.3675   26.2086 H   0  0  0  0  0  0
  -28.3834  -32.6904   25.0300 H   0  0  0  0  0  0
  -28.0746  -31.8492   26.5399 H   0  0  0  0  0  0
  -28.2592  -38.0110   24.7546 H   0  0  0  0  0  0
  -28.1096  -36.2636   24.6255 H   0  0  0  0  0  0
  -27.2283  -37.1406   25.8850 H   0  0  0  0  0  0
  -20.9307  -29.8704   21.6916 H   0  0  0  0  0  0
  -26.0203  -38.2880   24.1446 H   0  0  0  0  0  0
  -30.3601  -21.3519   19.9967 H   0  0  0  0  0  0
  -30.9820  -19.8483   18.3431 H   0  0  0  0  0  0
  -30.6533  -18.1356   18.5059 H   0  0  0  0  0  0
  -32.1832  -18.8072   19.1028 H   0  0  0  0  0  0
  -29.9967  -16.6616   23.5987 H   0  0  0  0  0  0
  -28.3294  -16.7394   23.0221 H   0  0  0  0  0  0
  -28.8445  -17.6600   24.4255 H   0  0  0  0  0  0
  -29.6930  -23.6275   25.3903 H   0  0  0  0  0  0
  -28.2467  -22.9350   24.6783 H   0  0  0  0  0  0
  -28.8947  -24.4593   24.0754 H   0  0  0  0  0  0
  -31.9641  -23.5253   24.0279 H   0  0  0  0  0  0
  -31.1550  -24.4688   22.7970 H   0  0  0  0  0  0
  -31.9265  -22.9389   22.3764 H   0  0  0  0  0  0
  -26.3203  -23.5451   21.2360 H   0  0  0  0  0  0
  -26.9756  -23.7476   22.8454 H   0  0  0  0  0  0
  -26.6739  -22.1386   22.1927 H   0  0  0  0  0  0
  -31.6330  -16.7161   21.9643 H   0  0  0  0  0  0
  -31.6370  -16.9017   20.2670 H   0  0  0  0  0  0
  -29.0195  -25.1025   21.9544 H   0  0  0  0  0  0
  -30.0998  -24.4062   20.7698 H   0  0  0  0  0  0
  -27.3048  -24.8770   19.9021 H   0  0  0  0  0  0
  -28.7473  -24.9915   18.9622 H   0  0  0  0  0  0
  -30.3632  -21.8015   23.9952 H   0  0  0  0  0  0
  -28.3902  -22.5622   20.4142 H   0  0  0  0  0  0
  -29.2273  -15.5398   21.3325 H   0  0  0  0  0  0
  1 25  1  0  0  0
  1 30  2  0  0  0
  1 87  1  0  0  0
  2  3  1  0  0  0
  2 25  1  0  0  0
  2 90  1  0  0  0
  2 91  1  0  0  0
  3  4  1  0  0  0
  3 92  1  0  0  0
  3 93  1  0  0  0
  4  5  1  0  0  0
  4 94  1  0  0  0
  4 95  1  0  0  0
  5  6  1  0  0  0
  5 26  1  0  0  0
  5 96  1  0  0  0
  6 25  1  0  0  0
  6 97  1  0  0  0
  6 98  1  0  0  0
  7  8  2  0  0  0
  7 26  1  0  0  0
  7 29  1  0  0  0
  8  9  1  0  0  0
  8 22  1  0  0  0
  9 10  1  0  0  0
  9 27  2  0  0  0
 10 11  2  0  0  0
 10 15  1  0  0  0
 11 12  1  0  0  0
 11 99  1  0  0  0
 12 13  2  0  0  0
 12100  1  0  0  0
 13 14  1  0  0  0
 13 31  1  0  0  0
 14 15  2  0  0  0
 14101  1  0  0  0
 15102  1  0  0  0
 16 17  2  0  0  0
 16 21  1  0  0  0
 16 31  1  0  0  0
 17 18  1  0  0  0
 17103  1  0  0  0
 18 19  2  0  0  0
 18104  1  0  0  0
 19 20  1  0  0  0
 19 24  1  0  0  0
 20 21  2  0  0  0
 20105  1  0  0  0
 21 23  1  0  0  0
 22 28  1  0  0  0
 22 32  2  0  0  0
 26 27  1  0  0  0
 28106  1  0  0  0
 28107  1  0  0  0
 29108  1  0  0  0
 29109  1  0  0  0
 33 34  1  0  0  0
 33 66  1  0  0  0
 33 70  2  0  0  0
 34 36  1  0  0  0
 34 59  1  0  0  0
 34110  1  0  0  0
 35 44  2  0  0  0
 35 45  1  0  0  0
 35 68  1  0  0  0
 36 56  1  0  0  0
 36111  1  0  0  0
 37 39  1  0  0  0
 37 47  1  0  0  0
 37 66  1  0  0  0
 37112  1  0  0  0
 38 43  2  0  0  0
 38 46  1  0  0  0
 38 47  1  0  0  0
 39 64  1  0  0  0
 39 67  2  0  0  0
 40 52  1  0  0  0
 40 53  2  0  0  0
 40 58  1  0  0  0
 41113  1  0  0  0
 41114  1  0  0  0
 41115  1  0  0  0
 41 48  1  0  0  0
 42 43  1  0  0  0
 42 66  1  0  0  0
 42116  1  0  0  0
 42117  1  0  0  0
 43 44  1  0  0  0
 44118  1  0  0  0
 45 46  2  0  0  0
 45119  1  0  0  0
 46120  1  0  0  0
 47121  1  0  0  0
 47122  1  0  0  0
 48 56  1  0  0  0
 48 65  1  0  0  0
 48123  1  0  0  0
 49 50  1  0  0  0
 49 53  1  0  0  0
 49 64  1  0  0  0
 49124  1  0  0  0
 50 51  1  0  0  0
 50125  1  0  0  0
 50126  1  0  0  0
 51 52  1  0  0  0
 51127  1  0  0  0
 51128  1  0  0  0
 52129  1  0  0  0
 52130  1  0  0  0
 53 54  1  0  0  0
 54 55  2  0  0  0
 54131  1  0  0  0
 55 57  1  0  0  0
 55132  1  0  0  0
 56 69  2  0  0  0
 57 58  2  0  0  0
 57133  1  0  0  0
 58134  1  0  0  0
 59 60  1  0  0  0
 59 61  1  0  0  0
 59 62  1  0  0  0
 60135  1  0  0  0
 60136  1  0  0  0
 60137  1  0  0  0
 61138  1  0  0  0
 61139  1  0  0  0
 61140  1  0  0  0
 62141  1  0  0  0
 62142  1  0  0  0
 62143  1  0  0  0
 63 65  1  0  0  0
 63144  1  0  0  0
 63145  1  0  0  0
 63146  1  0  0  0
 64147  1  0  0  0
 65148  1  0  0  0
 68 84  1  0  0  0
 71 72  2  0  0  0
 71 75  1  0  0  0
 71149  1  0  0  0
 72 73  1  0  0  0
 72 77  1  0  0  0
 73 74  2  0  0  0
 73 82  1  0  0  0
 74 76  1  0  0  0
 74 78  1  0  0  0
 75 76  2  0  0  0
 75 88  1  0  0  0
 76 89  1  0  0  0
 77150  1  0  0  0
 77151  1  0  0  0
 77152  1  0  0  0
 78153  1  0  0  0
 78154  1  0  0  0
 78155  1  0  0  0
 79156  1  0  0  0
 79157  1  0  0  0
 79158  1  0  0  0
 79 85  1  0  0  0
 80 85  1  0  0  0
 80159  1  0  0  0
 80160  1  0  0  0
 80161  1  0  0  0
 81162  1  0  0  0
 81163  1  0  0  0
 81164  1  0  0  0
 81 86  1  0  0  0
 82 87  1  0  0  0
 82165  1  0  0  0
 82166  1  0  0  0
 83 84  1  0  0  0
 83 86  1  0  0  0
 83167  1  0  0  0
 83168  1  0  0  0
 84169  1  0  0  0
 84170  1  0  0  0
 85 88  1  0  0  0
 85171  1  0  0  0
 86 88  1  0  0  0
 86172  1  0  0  0
 87173  1  0  0  0
M  ISO  4   1 100  68 101  84 101  87 100
M  END
> <chiral flag>
0

> <version>
0

> <s_m_source_file>
/data/baiqing/PycharmProjects/Reinvent-master-3.2/result/LINK_invent/BTK/process_docking_weight1_custom_sum_contain_oxygen_bond_distance_aromatic_linkinvent_7_9_3/rearranged_h_0022.sdf

> <i_m_source_file_index>
18

> <r_mmod_Potential_Energy-OPLS-2005>
27.4736309051514

> <r_mmod_Stretch_Energy-OPLS-2005>
46.3114852905273

> <r_mmod_Bend_Energy-OPLS-2005>
130.253387451172

> <r_mmod_Torsional_Energy-OPLS-2005>
263.474822998047

> <r_mmod_Improper_Torsional_Energy-OPLS-2005>
3.78098368644714

> <r_mmod_Van_der_Waal_Energy-OPLS-2005>
176.708938598633

> <r_mmod_Electrostatic_Energy-OPLS-2005>
-419.73193359375

> <r_mmod_Solvation_Energy-OPLS-2005>
-193.251602172852

> <b_mmod_Minimization_Converged-OPLS-2005>
0

> <r_mmod_RMS_Derivative-OPLS-2005>
2.66818141937256

$$$$
18
                    3D
 Structure written by MMmdl.
168176  0  0  1  0            999 V2000
  -30.7205  -14.4091   20.6053 C   0  0  0  0  0  0
  -30.4180  -12.2777   19.4148 C   0  0  0  0  0  0
  -29.4942  -12.5110   18.2024 C   0  0  0  0  0  0
  -28.0140  -12.3777   18.6102 C   0  0  0  0  0  0
  -27.6650  -13.2025   19.8784 C   0  0  2  0  0  0
  -28.7006  -12.9511   20.9976 C   0  0  0  0  0  0
  -25.2604  -13.8154   20.5668 C   0  0  0  0  0  0
  -24.1846  -13.0436   20.9156 C   0  0  0  0  0  0
  -24.6394  -11.6901   20.8715 C   0  0  0  0  0  0
  -23.9053  -10.4292   21.0394 C   0  0  0  0  0  0
  -24.3610   -9.4210   21.9175 C   0  0  0  0  0  0
  -23.6288   -8.2246   22.0750 C   0  0  0  0  0  0
  -22.4270   -8.0281   21.3543 C   0  0  0  0  0  0
  -21.9900   -9.0250   20.4645 C   0  0  0  0  0  0
  -22.7223  -10.2131   20.3048 C   0  0  0  0  0  0
  -21.6852   -6.0736   22.5280 C   0  0  0  0  0  0
  -21.4016   -6.5642   23.8213 C   0  0  0  0  0  0
  -21.3655   -5.6795   24.9175 C   0  0  0  0  0  0
  -21.6042   -4.3058   24.7227 C   0  0  0  0  0  0
  -21.8817   -3.8148   23.4349 C   0  0  0  0  0  0
  -21.9194   -4.6966   22.3404 C   0  0  0  0  0  0
  -22.7873  -13.5246   21.1825 C   0  0  0  0  0  0
  -22.1660   -4.2155   21.0979 F   0  0  0  0  0  0
  -21.5623   -3.4537   25.7737 F   0  0  0  0  0  0
  -30.0410  -13.2429   20.4581 N   0  0  0  0  0  0
  -26.3037  -12.9321   20.3357 N   0  0  0  0  0  0
  -25.9318  -11.6483   20.5734 N   0  0  0  0  0  0
  -22.0509  -12.8251   22.0394 N   0  0  0  0  0  0
  -25.4335  -15.1871   20.4084 N   0  0  0  0  0  0
  -31.8304  -14.6088   20.1017 O   0  0  0  0  0  0
  -21.6635   -6.8879   21.4243 O   0  0  0  0  0  0
  -22.3564  -14.5555   20.6676 O   0  0  0  0  0  0
  -24.6096  -31.8695   23.2137 C   0  0  0  0  0  0
  -25.8996  -32.4834   23.8425 C   0  0  1  0  0  0
  -27.2419  -27.4777   20.0793 C   0  0  0  0  0  0
  -25.5871  -33.8631   24.2362 N   0  0  0  0  0  0
  -23.3980  -30.4894   21.5538 C   0  0  2  0  0  0
  -24.8468  -28.9565   20.1195 C   0  0  0  0  0  0
  -22.7392  -29.4638   22.5027 C   0  0  0  0  0  0
  -18.0263  -28.1372   22.8485 C   0  0  0  0  0  0
  -24.1498  -36.7348   23.2629 C   0  0  0  0  0  0
  -25.9220  -30.8452   21.3625 C   0  0  0  0  0  0
  -26.0024  -29.4819   20.7113 C   0  0  0  0  0  0
  -27.2063  -28.7473   20.6933 C   0  0  0  0  0  0
  -26.0723  -26.9453   19.5085 C   0  0  0  0  0  0
  -24.8722  -27.6828   19.5218 C   0  0  0  0  0  0
  -23.6050  -29.8168   20.1699 C   0  0  0  0  0  0
  -25.4108  -36.3118   24.0339 C   0  0  1  0  0  0
  -20.5845  -28.3646   23.1329 C   0  0  2  0  0  0
  -20.6750  -26.9384   22.5409 C   0  0  0  0  0  0
  -19.5729  -26.6367   21.5204 C   0  0  0  0  0  0
  -18.1912  -26.7916   22.1618 C   0  0  0  0  0  0
  -19.1510  -28.8834   23.2898 C   0  0  0  0  0  0
  -18.9430  -30.1445   23.8897 C   0  0  0  0  0  0
  -17.6430  -30.6572   24.0558 C   0  0  0  0  0  0
  -25.9022  -34.9473   23.5145 C   0  0  0  0  0  0
  -16.5325  -29.9062   23.6333 C   0  0  0  0  0  0
  -16.7252  -28.6488   23.0347 C   0  0  0  0  0  0
  -26.4432  -31.6597   25.0738 C   0  0  0  0  0  0
  -25.3714  -31.3688   26.1507 C   0  0  0  0  0  0
  -27.0251  -30.3040   24.6086 C   0  0  0  0  0  0
  -27.6039  -32.4301   25.7478 C   0  0  0  0  0  0
  -27.5610  -37.1818   24.8444 C   0  0  0  0  0  0
  -21.4121  -29.3020   22.3758 N   0  0  0  0  0  0
  -26.4299  -37.3801   23.9417 N   0  0  0  0  0  0
  -24.6612  -31.0816   22.1024 N   0  0  0  0  0  0
  -23.4174  -28.8168   23.3056 O   0  0  0  0  0  0
  -28.4001  -26.7475   20.0257 O   0  0  0  0  0  0
  -26.5574  -34.8906   22.4700 O   0  0  0  0  0  0
  -23.5297  -32.1427   23.7554 O   0  0  0  0  0  0
  -31.0684  -19.5133   21.2277 C   0  0  0  0  0  0
  -31.0286  -18.7694   20.0175 C   0  0  0  0  0  0
  -30.6781  -18.8841   22.4460 C   0  0  0  0  0  0
  -30.3797  -16.7547   21.2575 C   0  0  0  0  0  0
  -30.6553  -17.4103   20.0369 C   0  0  0  0  0  0
  -30.3586  -17.4997   22.4553 C   0  0  0  0  0  0
  -31.3881  -19.4003   18.6746 C   0  0  0  0  0  0
  -30.6178  -19.6739   23.7524 C   0  0  0  0  0  0
  -31.5683  -20.9629   21.1992 C   0  0  0  0  0  0
  -30.6444  -25.0832   18.4806 C   0  0  0  0  0  0
  -30.0476  -24.0208   19.4235 C   0  0  0  0  0  0
  -29.6661  -26.1886   18.0354 C   0  0  0  0  0  0
  -31.1048  -22.9885   19.8589 C   0  0  0  0  0  0
  -29.3664  -27.2498   19.1084 C   0  0  0  0  0  0
  -30.0745  -15.3651   21.2891 N   0  0  0  0  0  0
  -30.5456  -21.9019   20.6936 N   0  3  0  0  0  0
  -30.5457  -16.7379   18.8641 F   0  0  0  0  0  0
  -29.9622  -16.6850   23.9346 Cl  0  0  0  0  0  0
  -31.4643  -12.3677   19.1173 H   0  0  0  0  0  0
  -30.3055  -11.2601   19.7920 H   0  0  0  0  0  0
  -29.7287  -11.8017   17.4079 H   0  0  0  0  0  0
  -29.6742  -13.5044   17.7874 H   0  0  0  0  0  0
  -27.8141  -11.3208   18.7900 H   0  0  0  0  0  0
  -27.3682  -12.6706   17.7819 H   0  0  0  0  0  0
  -27.7211  -14.2552   19.6010 H   0  0  0  0  0  0
  -28.6626  -11.9094   21.3195 H   0  0  0  0  0  0
  -28.4592  -13.5320   21.8886 H   0  0  0  0  0  0
  -25.2759   -9.5692   22.4743 H   0  0  0  0  0  0
  -24.0003   -7.4641   22.7468 H   0  0  0  0  0  0
  -21.0833   -8.8773   19.8949 H   0  0  0  0  0  0
  -22.3685  -10.9672   19.6156 H   0  0  0  0  0  0
  -21.2011   -7.6150   23.9724 H   0  0  0  0  0  0
  -21.1472   -6.0518   25.9079 H   0  0  0  0  0  0
  -22.0598   -2.7610   23.2846 H   0  0  0  0  0  0
  -22.4108  -11.9908   22.4788 H   0  0  0  0  0  0
  -21.1128  -13.1292   22.2585 H   0  0  0  0  0  0
  -24.6684  -15.8437   20.5161 H   0  0  0  0  0  0
  -26.2921  -15.6263   20.1012 H   0  0  0  0  0  0
  -26.7069  -32.5554   23.1191 H   0  0  0  0  0  0
  -25.0012  -33.9801   25.0501 H   0  0  0  0  0  0
  -22.6836  -31.3035   21.4144 H   0  0  0  0  0  0
  -23.3740  -35.9696   23.3256 H   0  0  0  0  0  0
  -24.3616  -36.9004   22.2053 H   0  0  0  0  0  0
  -23.7254  -37.6547   23.6660 H   0  0  0  0  0  0
  -26.0267  -31.6097   20.5922 H   0  0  0  0  0  0
  -26.8129  -30.9006   21.9766 H   0  0  0  0  0  0
  -28.1028  -29.1513   21.1401 H   0  0  0  0  0  0
  -26.0951  -25.9688   19.0453 H   0  0  0  0  0  0
  -23.9820  -27.2640   19.0752 H   0  0  0  0  0  0
  -23.7070  -30.5885   19.4065 H   0  0  0  0  0  0
  -22.7324  -29.2286   19.8807 H   0  0  0  0  0  0
  -25.1265  -36.1978   25.0825 H   0  0  0  0  0  0
  -20.9934  -28.3181   24.1449 H   0  0  0  0  0  0
  -20.5649  -26.2232   23.3579 H   0  0  0  0  0  0
  -21.6629  -26.7440   22.1201 H   0  0  0  0  0  0
  -19.6884  -25.6273   21.1243 H   0  0  0  0  0  0
  -19.6681  -27.3179   20.6735 H   0  0  0  0  0  0
  -17.4184  -26.6677   21.4015 H   0  0  0  0  0  0
  -18.0308  -26.0044   22.8996 H   0  0  0  0  0  0
  -19.7891  -30.7269   24.2283 H   0  0  0  0  0  0
  -17.4968  -31.6250   24.5153 H   0  0  0  0  0  0
  -15.5330  -30.2953   23.7678 H   0  0  0  0  0  0
  -15.8644  -28.0811   22.7080 H   0  0  0  0  0  0
  -24.5882  -30.7027   25.7861 H   0  0  0  0  0  0
  -24.8895  -32.2836   26.4980 H   0  0  0  0  0  0
  -25.8098  -30.8849   27.0248 H   0  0  0  0  0  0
  -26.2792  -29.6816   24.1132 H   0  0  0  0  0  0
  -27.4013  -29.7246   25.4529 H   0  0  0  0  0  0
  -27.8624  -30.4364   23.9229 H   0  0  0  0  0  0
  -27.2699  -33.3596   26.2103 H   0  0  0  0  0  0
  -28.3827  -32.6888   25.0287 H   0  0  0  0  0  0
  -28.0722  -31.8378   26.5349 H   0  0  0  0  0  0
  -28.2577  -38.0163   24.7564 H   0  0  0  0  0  0
  -28.1167  -36.2715   24.6169 H   0  0  0  0  0  0
  -27.2349  -37.1331   25.8843 H   0  0  0  0  0  0
  -20.9270  -29.8738   21.6984 H   0  0  0  0  0  0
  -26.0186  -38.2880   24.1402 H   0  0  0  0  0  0
  -30.7145  -20.2216   18.4331 H   0  0  0  0  0  0
  -31.3171  -18.6915   17.8500 H   0  0  0  0  0  0
  -32.4141  -19.7675   18.6767 H   0  0  0  0  0  0
  -30.2809  -20.6975   23.5941 H   0  0  0  0  0  0
  -31.5970  -19.6994   24.2314 H   0  0  0  0  0  0
  -29.9095  -19.2483   24.4626 H   0  0  0  0  0  0
  -32.4639  -20.9999   20.5784 H   0  0  0  0  0  0
  -31.9176  -21.3026   22.1729 H   0  0  0  0  0  0
  -31.0172  -24.5782   17.5876 H   0  0  0  0  0  0
  -31.5190  -25.5414   18.9445 H   0  0  0  0  0  0
  -29.2213  -23.5176   18.9185 H   0  0  0  0  0  0
  -29.6306  -24.4986   20.3094 H   0  0  0  0  0  0
  -28.7389  -25.7605   17.6525 H   0  0  0  0  0  0
  -30.1173  -26.7035   17.1858 H   0  0  0  0  0  0
  -31.9008  -23.4935   20.4095 H   0  0  0  0  0  0
  -31.5687  -22.5486   18.9739 H   0  0  0  0  0  0
  -30.2733  -27.5204   19.6483 H   0  0  0  0  0  0
  -29.0212  -28.1621   18.6163 H   0  0  0  0  0  0
  -29.2788  -15.0856   21.8405 H   0  0  0  0  0  0
  -30.0562  -22.2927   21.4820 H   0  0  0  0  0  0
  -29.8777  -21.3806   20.1503 H   0  0  0  0  0  0
  1 25  1  0  0  0
  1 30  2  0  0  0
  1 85  1  0  0  0
  2  3  1  0  0  0
  2 25  1  0  0  0
  2 89  1  0  0  0
  2 90  1  0  0  0
  3  4  1  0  0  0
  3 91  1  0  0  0
  3 92  1  0  0  0
  4  5  1  0  0  0
  4 93  1  0  0  0
  4 94  1  0  0  0
  5  6  1  0  0  0
  5 26  1  0  0  0
  5 95  1  0  0  0
  6 25  1  0  0  0
  6 96  1  0  0  0
  6 97  1  0  0  0
  7  8  2  0  0  0
  7 26  1  0  0  0
  7 29  1  0  0  0
  8  9  1  0  0  0
  8 22  1  0  0  0
  9 10  1  0  0  0
  9 27  2  0  0  0
 10 11  2  0  0  0
 10 15  1  0  0  0
 11 12  1  0  0  0
 11 98  1  0  0  0
 12 13  2  0  0  0
 12 99  1  0  0  0
 13 14  1  0  0  0
 13 31  1  0  0  0
 14 15  2  0  0  0
 14100  1  0  0  0
 15101  1  0  0  0
 16 17  2  0  0  0
 16 21  1  0  0  0
 16 31  1  0  0  0
 17 18  1  0  0  0
 17102  1  0  0  0
 18 19  2  0  0  0
 18103  1  0  0  0
 19 20  1  0  0  0
 19 24  1  0  0  0
 20 21  2  0  0  0
 20104  1  0  0  0
 21 23  1  0  0  0
 22 28  1  0  0  0
 22 32  2  0  0  0
 26 27  1  0  0  0
 28105  1  0  0  0
 28106  1  0  0  0
 29107  1  0  0  0
 29108  1  0  0  0
 33 34  1  0  0  0
 33 66  1  0  0  0
 33 70  2  0  0  0
 34 36  1  0  0  0
 34 59  1  0  0  0
 34109  1  0  0  0
 35 44  2  0  0  0
 35 45  1  0  0  0
 35 68  1  0  0  0
 36 56  1  0  0  0
 36110  1  0  0  0
 37 39  1  0  0  0
 37 47  1  0  0  0
 37 66  1  0  0  0
 37111  1  0  0  0
 38 43  2  0  0  0
 38 46  1  0  0  0
 38 47  1  0  0  0
 39 64  1  0  0  0
 39 67  2  0  0  0
 40 52  1  0  0  0
 40 53  2  0  0  0
 40 58  1  0  0  0
 41112  1  0  0  0
 41113  1  0  0  0
 41114  1  0  0  0
 41 48  1  0  0  0
 42 43  1  0  0  0
 42 66  1  0  0  0
 42115  1  0  0  0
 42116  1  0  0  0
 43 44  1  0  0  0
 44117  1  0  0  0
 45 46  2  0  0  0
 45118  1  0  0  0
 46119  1  0  0  0
 47120  1  0  0  0
 47121  1  0  0  0
 48 56  1  0  0  0
 48 65  1  0  0  0
 48122  1  0  0  0
 49 50  1  0  0  0
 49 53  1  0  0  0
 49 64  1  0  0  0
 49123  1  0  0  0
 50 51  1  0  0  0
 50124  1  0  0  0
 50125  1  0  0  0
 51 52  1  0  0  0
 51126  1  0  0  0
 51127  1  0  0  0
 52128  1  0  0  0
 52129  1  0  0  0
 53 54  1  0  0  0
 54 55  2  0  0  0
 54130  1  0  0  0
 55 57  1  0  0  0
 55131  1  0  0  0
 56 69  2  0  0  0
 57 58  2  0  0  0
 57132  1  0  0  0
 58133  1  0  0  0
 59 60  1  0  0  0
 59 61  1  0  0  0
 59 62  1  0  0  0
 60134  1  0  0  0
 60135  1  0  0  0
 60136  1  0  0  0
 61137  1  0  0  0
 61138  1  0  0  0
 61139  1  0  0  0
 62140  1  0  0  0
 62141  1  0  0  0
 62142  1  0  0  0
 63 65  1  0  0  0
 63143  1  0  0  0
 63144  1  0  0  0
 63145  1  0  0  0
 64146  1  0  0  0
 65147  1  0  0  0
 68 84  1  0  0  0
 71 72  2  0  0  0
 71 73  1  0  0  0
 71 79  1  0  0  0
 72 75  1  0  0  0
 72 77  1  0  0  0
 73 76  2  0  0  0
 73 78  1  0  0  0
 74 75  2  0  0  0
 74 76  1  0  0  0
 74 85  1  0  0  0
 75 87  1  0  0  0
 76 88  1  0  0  0
 77148  1  0  0  0
 77149  1  0  0  0
 77150  1  0  0  0
 78151  1  0  0  0
 78152  1  0  0  0
 78153  1  0  0  0
 79 86  1  0  0  0
 79154  1  0  0  0
 79155  1  0  0  0
 80 81  1  0  0  0
 80 82  1  0  0  0
 80156  1  0  0  0
 80157  1  0  0  0
 81 83  1  0  0  0
 81158  1  0  0  0
 81159  1  0  0  0
 82 84  1  0  0  0
 82160  1  0  0  0
 82161  1  0  0  0
 83 86  1  0  0  0
 83162  1  0  0  0
 83163  1  0  0  0
 84164  1  0  0  0
 84165  1  0  0  0
 85166  1  0  0  0
 86167  1  0  0  0
 86168  1  0  0  0
M  CHG  1  86   1
M  ISO  4   1 100  68 101  84 101  85 100
M  END
> <chiral flag>
0

> <version>
0

> <s_m_source_file>
/data/baiqing/PycharmProjects/Reinvent-master-3.2/result/LINK_invent/BTK/process_docking_weight1_custom_sum_contain_oxygen_bond_distance_aromatic_linkinvent_7_9_3/rearranged_h_0022.sdf

> <i_m_source_file_index>
19

> <r_mmod_Potential_Energy-OPLS-2005>
-265.847290039062

> <r_mmod_Stretch_Energy-OPLS-2005>
35.3085289001465

> <r_mmod_Bend_Energy-OPLS-2005>
88.3962020874023

> <r_mmod_Torsional_Energy-OPLS-2005>
251.685531616211

> <r_mmod_Improper_Torsional_Energy-OPLS-2005>
2.30800724029541

> <r_mmod_Van_der_Waal_Energy-OPLS-2005>
164.184860229492

> <r_mmod_Electrostatic_Energy-OPLS-2005>
-351.480590820312

> <r_mmod_Solvation_Energy-OPLS-2005>
-464.012359619141

> <b_mmod_Minimization_Converged-OPLS-2005>
0

> <r_mmod_RMS_Derivative-OPLS-2005>
1.67511653900146

$$$$
19
                    3D
 Structure written by MMmdl.
156164  0  0  1  0            999 V2000
  -30.5402  -14.8419   20.4382 C   0  0  0  0  0  0
  -30.4472  -12.5144   19.4787 C   0  0  0  0  0  0
  -29.5208  -12.5288   18.2396 C   0  0  0  0  0  0
  -28.0501  -12.3252   18.6546 C   0  0  0  0  0  0
  -27.6414  -13.2300   19.8476 C   0  0  2  0  0  0
  -28.6854  -13.1772   20.9846 C   0  0  0  0  0  0
  -25.2507  -13.8179   20.5670 C   0  0  0  0  0  0
  -24.1807  -13.0439   20.9216 C   0  0  0  0  0  0
  -24.6408  -11.6915   20.8786 C   0  0  0  0  0  0
  -23.9090  -10.4283   21.0440 C   0  0  0  0  0  0
  -24.3639   -9.4179   21.9203 C   0  0  0  0  0  0
  -23.6300   -8.2229   22.0757 C   0  0  0  0  0  0
  -22.4279   -8.0290   21.3556 C   0  0  0  0  0  0
  -21.9931   -9.0267   20.4658 C   0  0  0  0  0  0
  -22.7270  -10.2139   20.3072 C   0  0  0  0  0  0
  -21.6838   -6.0747   22.5281 C   0  0  0  0  0  0
  -21.4001   -6.5650   23.8214 C   0  0  0  0  0  0
  -21.3654   -5.6809   24.9181 C   0  0  0  0  0  0
  -21.6038   -4.3070   24.7232 C   0  0  0  0  0  0
  -21.8819   -3.8159   23.4355 C   0  0  0  0  0  0
  -21.9179   -4.6974   22.3408 C   0  0  0  0  0  0
  -22.7821  -13.5219   21.1871 C   0  0  0  0  0  0
  -22.1653   -4.2163   21.0987 F   0  0  0  0  0  0
  -21.5630   -3.4554   25.7741 F   0  0  0  0  0  0
  -29.9780  -13.5753   20.4059 N   0  0  0  0  0  0
  -26.2929  -12.9388   20.3242 N   0  0  0  0  0  0
  -25.9320  -11.6544   20.5745 N   0  0  0  0  0  0
  -22.0469  -12.8206   22.0431 N   0  0  0  0  0  0
  -25.4179  -15.1905   20.4042 N   0  0  0  0  0  0
  -31.7241  -14.9812   20.1161 O   0  0  0  0  0  0
  -21.6642   -6.8893   21.4244 O   0  0  0  0  0  0
  -22.3497  -14.5525   20.6702 O   0  0  0  0  0  0
  -24.6390  -31.8495   23.1894 C   0  0  0  0  0  0
  -25.9174  -32.4720   23.8279 C   0  0  1  0  0  0
  -27.2222  -27.1856   20.1276 C   0  0  0  0  0  0
  -25.5925  -33.8526   24.2176 N   0  0  0  0  0  0
  -23.4392  -30.4707   21.5359 C   0  0  2  0  0  0
  -24.8866  -28.9048   20.1127 C   0  0  0  0  0  0
  -22.7515  -29.4594   22.4883 C   0  0  0  0  0  0
  -18.0270  -28.1386   22.8511 C   0  0  0  0  0  0
  -24.1486  -36.7263   23.2645 C   0  0  0  0  0  0
  -25.9928  -30.7389   21.3789 C   0  0  0  0  0  0
  -26.0656  -29.3546   20.7195 C   0  0  0  0  0  0
  -27.2353  -28.5121   20.7087 C   0  0  0  0  0  0
  -26.0102  -26.8256   19.4932 C   0  0  0  0  0  0
  -24.8680  -27.6504   19.4882 C   0  0  0  0  0  0
  -23.6630  -29.8019   20.1552 C   0  0  0  0  0  0
  -25.4120  -36.3034   24.0306 C   0  0  1  0  0  0
  -20.5905  -28.3667   23.1185 C   0  0  2  0  0  0
  -20.6716  -26.9383   22.5318 C   0  0  0  0  0  0
  -19.5650  -26.6386   21.5156 C   0  0  0  0  0  0
  -18.1869  -26.7916   22.1660 C   0  0  0  0  0  0
  -19.1556  -28.8853   23.2840 C   0  0  0  0  0  0
  -18.9517  -30.1476   23.8810 C   0  0  0  0  0  0
  -17.6514  -30.6596   24.0523 C   0  0  0  0  0  0
  -25.9074  -34.9419   23.5045 C   0  0  0  0  0  0
  -16.5385  -29.9095   23.6388 C   0  0  0  0  0  0
  -16.7270  -28.6509   23.0422 C   0  0  0  0  0  0
  -26.4493  -31.6575   25.0704 C   0  0  0  0  0  0
  -25.3664  -31.3786   26.1385 C   0  0  0  0  0  0
  -27.0343  -30.2968   24.6258 C   0  0  0  0  0  0
  -27.6025  -32.4332   25.7499 C   0  0  0  0  0  0
  -27.5571  -37.1785   24.8469 C   0  0  0  0  0  0
  -21.4230  -29.2980   22.3527 N   0  0  0  0  0  0
  -26.4283  -37.3742   23.9406 N   0  0  0  0  0  0
  -24.7113  -31.0393   22.0911 N   0  0  0  0  0  0
  -23.4156  -28.8223   23.3094 O   0  0  0  0  0  0
  -28.2917  -26.2296   20.1792 O   0  0  0  0  0  0
  -26.5684  -34.8917   22.4641 O   0  0  0  0  0  0
  -23.5514  -32.1358   23.7128 O   0  0  0  0  0  0
  -30.1775  -18.4093   21.3506 C   0  0  0  0  0  0
  -29.8623  -19.8277   21.2676 C   0  0  0  0  0  0
  -29.0126  -20.3989   20.2591 C   0  0  0  0  0  0
  -28.5816  -19.4107   19.2961 C   0  0  0  0  0  0
  -29.6752  -17.4162   20.4466 C   0  0  0  0  0  0
  -28.8760  -17.9891   19.4068 C   0  0  0  0  0  0
  -30.3954  -20.7499   22.3482 C   0  0  0  0  0  0
  -27.6969  -19.8615   18.1368 C   0  0  0  0  0  0
  -28.3317  -21.8960   20.3514 C   0  0  0  0  0  0
  -28.9873  -23.4139   20.2497 C   0  0  0  0  0  0
  -27.9862  -24.7273   20.0365 C   0  0  0  0  0  0
  -29.6871  -15.9229   20.6963 N   0  0  0  0  0  0
  -28.1557  -16.8767   18.2871 Cl  0  0  0  0  0  0
  -31.4839  -12.6703   19.1760 H   0  0  0  0  0  0
  -30.4208  -11.5379   19.9664 H   0  0  0  0  0  0
  -29.8226  -11.7552   17.5306 H   0  0  0  0  0  0
  -29.6209  -13.4802   17.7141 H   0  0  0  0  0  0
  -27.9274  -11.2760   18.9288 H   0  0  0  0  0  0
  -27.3879  -12.4993   17.8047 H   0  0  0  0  0  0
  -27.6288  -14.2483   19.4601 H   0  0  0  0  0  0
  -28.7444  -12.1738   21.4117 H   0  0  0  0  0  0
  -28.3964  -13.8379   21.8048 H   0  0  0  0  0  0
  -25.2789   -9.5650   22.4772 H   0  0  0  0  0  0
  -24.0010   -7.4614   22.7455 H   0  0  0  0  0  0
  -21.0871   -8.8789   19.8958 H   0  0  0  0  0  0
  -22.3738  -10.9684   19.6183 H   0  0  0  0  0  0
  -21.1995   -7.6156   23.9726 H   0  0  0  0  0  0
  -21.1476   -6.0537   25.9089 H   0  0  0  0  0  0
  -22.0605   -2.7620   23.2844 H   0  0  0  0  0  0
  -22.4108  -11.9873   22.4808 H   0  0  0  0  0  0
  -21.1068  -13.1185   22.2651 H   0  0  0  0  0  0
  -24.6398  -15.8324   20.5043 H   0  0  0  0  0  0
  -26.2367  -15.6258   20.0000 H   0  0  0  0  0  0
  -26.7269  -32.5337   23.1047 H   0  0  0  0  0  0
  -24.9992  -33.9665   25.0263 H   0  0  0  0  0  0
  -22.7391  -31.2946   21.3813 H   0  0  0  0  0  0
  -23.3734  -35.9605   23.3300 H   0  0  0  0  0  0
  -24.3590  -36.8905   22.2066 H   0  0  0  0  0  0
  -23.7264  -37.6466   23.6690 H   0  0  0  0  0  0
  -26.1417  -31.4947   20.6052 H   0  0  0  0  0  0
  -26.8665  -30.7905   22.0175 H   0  0  0  0  0  0
  -28.1365  -28.8615   21.1934 H   0  0  0  0  0  0
  -25.9010  -25.8710   19.0035 H   0  0  0  0  0  0
  -23.9667  -27.2986   19.0052 H   0  0  0  0  0  0
  -23.7979  -30.5771   19.4005 H   0  0  0  0  0  0
  -22.7775  -29.2443   19.8475 H   0  0  0  0  0  0
  -25.1308  -36.1862   25.0796 H   0  0  0  0  0  0
  -21.0030  -28.3208   24.1288 H   0  0  0  0  0  0
  -20.5653  -26.2277   23.3520 H   0  0  0  0  0  0
  -21.6552  -26.7343   22.1086 H   0  0  0  0  0  0
  -19.6757  -25.6328   21.1104 H   0  0  0  0  0  0
  -19.6544  -27.3195   20.6664 H   0  0  0  0  0  0
  -17.4047  -26.6635   21.4163 H   0  0  0  0  0  0
  -18.0345  -26.0086   22.9093 H   0  0  0  0  0  0
  -19.8022  -30.7325   24.2042 H   0  0  0  0  0  0
  -17.5106  -31.6316   24.5064 H   0  0  0  0  0  0
  -15.5400  -30.3004   23.7789 H   0  0  0  0  0  0
  -15.8631  -28.0823   22.7237 H   0  0  0  0  0  0
  -24.5848  -30.7128   25.7709 H   0  0  0  0  0  0
  -24.8835  -32.2976   26.4713 H   0  0  0  0  0  0
  -25.7920  -30.9033   27.0231 H   0  0  0  0  0  0
  -26.2956  -29.6721   24.1217 H   0  0  0  0  0  0
  -27.3924  -29.7241   25.4828 H   0  0  0  0  0  0
  -27.8875  -30.4217   23.9583 H   0  0  0  0  0  0
  -27.2612  -33.3658   26.2017 H   0  0  0  0  0  0
  -28.3866  -32.6858   25.0343 H   0  0  0  0  0  0
  -28.0639  -31.8489   26.5476 H   0  0  0  0  0  0
  -28.2572  -38.0090   24.7478 H   0  0  0  0  0  0
  -28.1066  -36.2614   24.6304 H   0  0  0  0  0  0
  -27.2296  -37.1450   25.8875 H   0  0  0  0  0  0
  -20.9506  -29.8396   21.6416 H   0  0  0  0  0  0
  -26.0133  -38.2804   24.1393 H   0  0  0  0  0  0
  -30.7575  -18.0623   22.1937 H   0  0  0  0  0  0
  -31.0314  -20.2188   23.0543 H   0  0  0  0  0  0
  -29.5768  -21.1996   22.9092 H   0  0  0  0  0  0
  -30.9852  -21.5546   21.9060 H   0  0  0  0  0  0
  -26.6452  -19.8084   18.4238 H   0  0  0  0  0  0
  -27.8337  -19.2467   17.2493 H   0  0  0  0  0  0
  -27.9310  -20.8791   17.8248 H   0  0  0  0  0  0
  -27.8204  -21.8812   21.3140 H   0  0  0  0  0  0
  -27.4920  -21.9120   19.6623 H   0  0  0  0  0  0
  -29.7087  -23.4176   19.4335 H   0  0  0  0  0  0
  -29.5751  -23.5757   21.1547 H   0  0  0  0  0  0
  -27.1306  -24.5444   20.6871 H   0  0  0  0  0  0
  -27.6115  -24.6009   19.0205 H   0  0  0  0  0  0
  -28.7625  -15.5717   20.8892 H   0  0  0  0  0  0
  1 25  1  0  0  0
  1 30  2  0  0  0
  1 82  1  0  0  0
  2  3  1  0  0  0
  2 25  1  0  0  0
  2 84  1  0  0  0
  2 85  1  0  0  0
  3  4  1  0  0  0
  3 86  1  0  0  0
  3 87  1  0  0  0
  4  5  1  0  0  0
  4 88  1  0  0  0
  4 89  1  0  0  0
  5  6  1  0  0  0
  5 26  1  0  0  0
  5 90  1  0  0  0
  6 25  1  0  0  0
  6 91  1  0  0  0
  6 92  1  0  0  0
  7  8  2  0  0  0
  7 26  1  0  0  0
  7 29  1  0  0  0
  8  9  1  0  0  0
  8 22  1  0  0  0
  9 10  1  0  0  0
  9 27  2  0  0  0
 10 11  2  0  0  0
 10 15  1  0  0  0
 11 12  1  0  0  0
 11 93  1  0  0  0
 12 13  2  0  0  0
 12 94  1  0  0  0
 13 14  1  0  0  0
 13 31  1  0  0  0
 14 15  2  0  0  0
 14 95  1  0  0  0
 15 96  1  0  0  0
 16 17  2  0  0  0
 16 21  1  0  0  0
 16 31  1  0  0  0
 17 18  1  0  0  0
 17 97  1  0  0  0
 18 19  2  0  0  0
 18 98  1  0  0  0
 19 20  1  0  0  0
 19 24  1  0  0  0
 20 21  2  0  0  0
 20 99  1  0  0  0
 21 23  1  0  0  0
 22 28  1  0  0  0
 22 32  2  0  0  0
 26 27  1  0  0  0
 28100  1  0  0  0
 28101  1  0  0  0
 29102  1  0  0  0
 29103  1  0  0  0
 33 34  1  0  0  0
 33 66  1  0  0  0
 33 70  2  0  0  0
 34 36  1  0  0  0
 34 59  1  0  0  0
 34104  1  0  0  0
 35 44  2  0  0  0
 35 45  1  0  0  0
 35 68  1  0  0  0
 36 56  1  0  0  0
 36105  1  0  0  0
 37 39  1  0  0  0
 37 47  1  0  0  0
 37 66  1  0  0  0
 37106  1  0  0  0
 38 43  2  0  0  0
 38 46  1  0  0  0
 38 47  1  0  0  0
 39 64  1  0  0  0
 39 67  2  0  0  0
 40 52  1  0  0  0
 40 53  2  0  0  0
 40 58  1  0  0  0
 41107  1  0  0  0
 41108  1  0  0  0
 41109  1  0  0  0
 41 48  1  0  0  0
 42 43  1  0  0  0
 42 66  1  0  0  0
 42110  1  0  0  0
 42111  1  0  0  0
 43 44  1  0  0  0
 44112  1  0  0  0
 45 46  2  0  0  0
 45113  1  0  0  0
 46114  1  0  0  0
 47115  1  0  0  0
 47116  1  0  0  0
 48 56  1  0  0  0
 48 65  1  0  0  0
 48117  1  0  0  0
 49 50  1  0  0  0
 49 53  1  0  0  0
 49 64  1  0  0  0
 49118  1  0  0  0
 50 51  1  0  0  0
 50119  1  0  0  0
 50120  1  0  0  0
 51 52  1  0  0  0
 51121  1  0  0  0
 51122  1  0  0  0
 52123  1  0  0  0
 52124  1  0  0  0
 53 54  1  0  0  0
 54 55  2  0  0  0
 54125  1  0  0  0
 55 57  1  0  0  0
 55126  1  0  0  0
 56 69  2  0  0  0
 57 58  2  0  0  0
 57127  1  0  0  0
 58128  1  0  0  0
 59 60  1  0  0  0
 59 61  1  0  0  0
 59 62  1  0  0  0
 60129  1  0  0  0
 60130  1  0  0  0
 60131  1  0  0  0
 61132  1  0  0  0
 61133  1  0  0  0
 61134  1  0  0  0
 62135  1  0  0  0
 62136  1  0  0  0
 62137  1  0  0  0
 63 65  1  0  0  0
 63138  1  0  0  0
 63139  1  0  0  0
 63140  1  0  0  0
 64141  1  0  0  0
 65142  1  0  0  0
 68 81  1  0  0  0
 71 72  2  0  0  0
 71 75  1  0  0  0
 71143  1  0  0  0
 72 73  1  0  0  0
 72 77  1  0  0  0
 73 74  2  0  0  0
 73 79  1  0  0  0
 74 76  1  0  0  0
 74 78  1  0  0  0
 75 76  2  0  0  0
 75 82  1  0  0  0
 76 83  1  0  0  0
 77144  1  0  0  0
 77145  1  0  0  0
 77146  1  0  0  0
 78147  1  0  0  0
 78148  1  0  0  0
 78149  1  0  0  0
 79 80  1  0  0  0
 79150  1  0  0  0
 79151  1  0  0  0
 80 81  1  0  0  0
 80152  1  0  0  0
 80153  1  0  0  0
 81154  1  0  0  0
 81155  1  0  0  0
 82156  1  0  0  0
M  ISO  4   1 100  68 101  81 101  82 100
M  END
> <chiral flag>
0

> <version>
0

> <s_m_source_file>
/data/baiqing/PycharmProjects/Reinvent-master-3.2/result/LINK_invent/BTK/process_docking_weight1_custom_sum_contain_oxygen_bond_distance_aromatic_linkinvent_7_9_3/rearranged_h_0022.sdf

> <i_m_source_file_index>
20

> <r_mmod_Potential_Energy-OPLS-2005>
355.494537353516

> <r_mmod_Stretch_Energy-OPLS-2005>
191.926330566406

> <r_mmod_Bend_Energy-OPLS-2005>
229.642791748047

> <r_mmod_Torsional_Energy-OPLS-2005>
254.714202880859

> <r_mmod_Improper_Torsional_Energy-OPLS-2005>
9.07382106781006

> <r_mmod_Van_der_Waal_Energy-OPLS-2005>
137.640350341797

> <r_mmod_Electrostatic_Energy-OPLS-2005>
-402.207550048828

> <r_mmod_Solvation_Energy-OPLS-2005>
-201.464630126953

> <b_mmod_Minimization_Converged-OPLS-2005>
0

> <r_mmod_RMS_Derivative-OPLS-2005>
3.07472133636475

$$$$
20
                    3D
 Structure written by MMmdl.
156164  0  0  1  0            999 V2000
  -30.5856  -14.7445   20.4745 C   0  0  0  0  0  0
  -30.4468  -12.4630   19.4602 C   0  0  0  0  0  0
  -29.5113  -12.4953   18.2304 C   0  0  0  0  0  0
  -28.0400  -12.3092   18.6555 C   0  0  0  0  0  0
  -27.6424  -13.2166   19.8489 C   0  0  2  0  0  0
  -28.6893  -13.1497   20.9813 C   0  0  0  0  0  0
  -25.2534  -13.8164   20.5701 C   0  0  0  0  0  0
  -24.1804  -13.0444   20.9213 C   0  0  0  0  0  0
  -24.6348  -11.6899   20.8752 C   0  0  0  0  0  0
  -23.9018  -10.4303   21.0423 C   0  0  0  0  0  0
  -24.3596   -9.4222   21.9189 C   0  0  0  0  0  0
  -23.6282   -8.2248   22.0740 C   0  0  0  0  0  0
  -22.4268   -8.0279   21.3532 C   0  0  0  0  0  0
  -21.9895   -9.0239   20.4633 C   0  0  0  0  0  0
  -22.7203  -10.2129   20.3054 C   0  0  0  0  0  0
  -21.6849   -6.0728   22.5269 C   0  0  0  0  0  0
  -21.4018   -6.5634   23.8202 C   0  0  0  0  0  0
  -21.3661   -5.6785   24.9160 C   0  0  0  0  0  0
  -21.6035   -4.3047   24.7213 C   0  0  0  0  0  0
  -21.8821   -3.8133   23.4345 C   0  0  0  0  0  0
  -21.9198   -4.6951   22.3401 C   0  0  0  0  0  0
  -22.7833  -13.5242   21.1862 C   0  0  0  0  0  0
  -22.1668   -4.2143   21.0976 F   0  0  0  0  0  0
  -21.5631   -3.4531   25.7734 F   0  0  0  0  0  0
  -29.9851  -13.5125   20.3913 N   0  0  0  0  0  0
  -26.2931  -12.9318   20.3275 N   0  0  0  0  0  0
  -25.9275  -11.6480   20.5769 N   0  0  0  0  0  0
  -22.0463  -12.8228   22.0414 N   0  0  0  0  0  0
  -25.4229  -15.1894   20.4081 N   0  0  0  0  0  0
  -31.7865  -14.8710   20.2154 O   0  0  0  0  0  0
  -21.6630   -6.8880   21.4233 O   0  0  0  0  0  0
  -22.3529  -14.5554   20.6710 O   0  0  0  0  0  0
  -24.6297  -31.8561   23.2020 C   0  0  0  0  0  0
  -25.9134  -32.4747   23.8359 C   0  0  1  0  0  0
  -27.2132  -27.2752   20.1443 C   0  0  0  0  0  0
  -25.5950  -33.8556   24.2291 N   0  0  0  0  0  0
  -23.4291  -30.4768   21.5425 C   0  0  2  0  0  0
  -24.8764  -28.9272   20.1115 C   0  0  0  0  0  0
  -22.7509  -29.4557   22.4897 C   0  0  0  0  0  0
  -18.0294  -28.1361   22.8462 C   0  0  0  0  0  0
  -24.1503  -36.7288   23.2650 C   0  0  0  0  0  0
  -25.9703  -30.7784   21.3759 C   0  0  0  0  0  0
  -26.0447  -29.3986   20.7238 C   0  0  0  0  0  0
  -27.2208  -28.5847   20.7261 C   0  0  0  0  0  0
  -26.0263  -26.8623   19.5060 C   0  0  0  0  0  0
  -24.8688  -27.6678   19.4907 C   0  0  0  0  0  0
  -23.6496  -29.8172   20.1531 C   0  0  0  0  0  0
  -25.4136  -36.3060   24.0335 C   0  0  1  0  0  0
  -20.5906  -28.3676   23.1262 C   0  0  2  0  0  0
  -20.6779  -26.9385   22.5398 C   0  0  0  0  0  0
  -19.5772  -26.6368   21.5188 C   0  0  0  0  0  0
  -18.1946  -26.7903   22.1587 C   0  0  0  0  0  0
  -19.1555  -28.8825   23.2856 C   0  0  0  0  0  0
  -18.9478  -30.1425   23.8872 C   0  0  0  0  0  0
  -17.6464  -30.6554   24.0544 C   0  0  0  0  0  0
  -25.9055  -34.9414   23.5104 C   0  0  0  0  0  0
  -16.5349  -29.9065   23.6293 C   0  0  0  0  0  0
  -16.7271  -28.6477   23.0332 C   0  0  0  0  0  0
  -26.4502  -31.6572   25.0740 C   0  0  0  0  0  0
  -25.3719  -31.3723   26.1469 C   0  0  0  0  0  0
  -27.0393  -30.3021   24.6185 C   0  0  0  0  0  0
  -27.6075  -32.4323   25.7468 C   0  0  0  0  0  0
  -27.5580  -37.1809   24.8468 C   0  0  0  0  0  0
  -21.4210  -29.3025   22.3646 N   0  0  0  0  0  0
  -26.4299  -37.3758   23.9397 N   0  0  0  0  0  0
  -24.6952  -31.0549   22.0976 N   0  0  0  0  0  0
  -23.4193  -28.8052   23.2983 O   0  0  0  0  0  0
  -28.3114  -26.3951   20.1613 O   0  0  0  0  0  0
  -26.5588  -34.8863   22.4656 O   0  0  0  0  0  0
  -23.5438  -32.1357   23.7313 O   0  0  0  0  0  0
  -29.5045  -18.4074   20.2209 C   0  0  0  0  0  0
  -29.5869  -19.7755   20.7118 C   0  0  0  0  0  0
  -30.5097  -18.8290   22.7933 C   0  0  0  0  0  0
  -29.9410  -17.2444   20.9819 C   0  0  0  0  0  0
  -30.1137  -19.9360   22.0083 C   0  0  0  0  0  0
  -30.4223  -17.5004   22.2958 C   0  0  0  0  0  0
  -30.9931  -19.1004   24.2129 C   0  0  0  0  0  0
  -29.2140  -21.0897   19.8836 C   0  0  0  0  0  0
  -28.6380  -23.7022   19.8741 C   0  0  0  0  0  0
  -28.1210  -24.9999   20.6831 C   0  0  0  0  0  0
  -29.7400  -15.8410   20.5450 N   0  0  0  0  0  0
  -28.7057  -22.3453   20.6107 N   0  3  0  0  0  0
  -30.2340  -21.1869   22.5190 F   0  0  0  0  0  0
  -30.8262  -16.1848   23.3543 Cl  0  0  0  0  0  0
  -31.4814  -12.6185   19.1490 H   0  0  0  0  0  0
  -30.4200  -11.4874   19.9476 H   0  0  0  0  0  0
  -29.8003  -11.7174   17.5212 H   0  0  0  0  0  0
  -29.6197  -13.4457   17.7060 H   0  0  0  0  0  0
  -27.9099  -11.2628   18.9359 H   0  0  0  0  0  0
  -27.3735  -12.4855   17.8105 H   0  0  0  0  0  0
  -27.6372  -14.2335   19.4581 H   0  0  0  0  0  0
  -28.7311  -12.1515   21.4214 H   0  0  0  0  0  0
  -28.4231  -13.8335   21.7893 H   0  0  0  0  0  0
  -25.2736   -9.5707   22.4767 H   0  0  0  0  0  0
  -23.9991   -7.4642   22.7457 H   0  0  0  0  0  0
  -21.0827   -8.8737   19.8940 H   0  0  0  0  0  0
  -22.3648  -10.9660   19.6169 H   0  0  0  0  0  0
  -21.2008   -7.6141   23.9704 H   0  0  0  0  0  0
  -21.1486   -6.0515   25.9070 H   0  0  0  0  0  0
  -22.0604   -2.7597   23.2833 H   0  0  0  0  0  0
  -22.4069  -11.9879   22.4800 H   0  0  0  0  0  0
  -21.1083  -13.1241   22.2637 H   0  0  0  0  0  0
  -24.6450  -15.8350   20.4975 H   0  0  0  0  0  0
  -26.2576  -15.6266   20.0398 H   0  0  0  0  0  0
  -26.7197  -32.5425   23.1093 H   0  0  0  0  0  0
  -25.0173  -33.9701   25.0478 H   0  0  0  0  0  0
  -22.7224  -31.2971   21.3986 H   0  0  0  0  0  0
  -23.3726  -35.9642   23.3300 H   0  0  0  0  0  0
  -24.3633  -36.8909   22.2065 H   0  0  0  0  0  0
  -23.7249  -37.6489   23.6673 H   0  0  0  0  0  0
  -26.1076  -31.5367   20.6061 H   0  0  0  0  0  0
  -26.8497  -30.8341   22.0069 H   0  0  0  0  0  0
  -28.1207  -28.9364   21.2099 H   0  0  0  0  0  0
  -25.9831  -25.8977   19.0171 H   0  0  0  0  0  0
  -23.9775  -27.3062   18.9970 H   0  0  0  0  0  0
  -23.7787  -30.5973   19.3994 H   0  0  0  0  0  0
  -22.7662  -29.2565   19.8406 H   0  0  0  0  0  0
  -25.1297  -36.1924   25.0826 H   0  0  0  0  0  0
  -21.0027  -28.3265   24.1381 H   0  0  0  0  0  0
  -20.5717  -26.2275   23.3603 H   0  0  0  0  0  0
  -21.6648  -26.7410   22.1187 H   0  0  0  0  0  0
  -19.6936  -25.6290   21.1233 H   0  0  0  0  0  0
  -19.6720  -27.3156   20.6696 H   0  0  0  0  0  0
  -17.4203  -26.6622   21.3979 H   0  0  0  0  0  0
  -18.0332  -26.0033   22.8976 H   0  0  0  0  0  0
  -19.7953  -30.7232   24.2275 H   0  0  0  0  0  0
  -17.5008  -31.6258   24.5132 H   0  0  0  0  0  0
  -15.5361  -30.2939   23.7665 H   0  0  0  0  0  0
  -15.8654  -28.0812   22.7054 H   0  0  0  0  0  0
  -24.5918  -30.7049   25.7784 H   0  0  0  0  0  0
  -24.8899  -32.2902   26.4846 H   0  0  0  0  0  0
  -25.8059  -30.8930   27.0259 H   0  0  0  0  0  0
  -26.3001  -29.6723   24.1228 H   0  0  0  0  0  0
  -27.4148  -29.7312   25.4675 H   0  0  0  0  0  0
  -27.8802  -30.4366   23.9387 H   0  0  0  0  0  0
  -27.2739  -33.3655   26.2007 H   0  0  0  0  0  0
  -28.3875  -32.6836   25.0281 H   0  0  0  0  0  0
  -28.0726  -31.8471   26.5413 H   0  0  0  0  0  0
  -28.2575  -38.0103   24.7502 H   0  0  0  0  0  0
  -28.1084  -36.2645   24.6305 H   0  0  0  0  0  0
  -27.2318  -37.1457   25.8868 H   0  0  0  0  0  0
  -20.9365  -29.8800   21.6915 H   0  0  0  0  0  0
  -26.0156  -38.2818   24.1403 H   0  0  0  0  0  0
  -29.1054  -18.2489   19.2295 H   0  0  0  0  0  0
  -31.7230  -18.3677   24.5516 H   0  0  0  0  0  0
  -30.1479  -19.0880   24.9012 H   0  0  0  0  0  0
  -31.4735  -20.0755   24.2890 H   0  0  0  0  0  0
  -28.4882  -20.8213   19.1155 H   0  0  0  0  0  0
  -30.1187  -21.3806   19.3456 H   0  0  0  0  0  0
  -29.6339  -23.9235   19.4895 H   0  0  0  0  0  0
  -27.9931  -23.5823   19.0045 H   0  0  0  0  0  0
  -27.0731  -24.8401   20.9394 H   0  0  0  0  0  0
  -28.6292  -24.9922   21.6476 H   0  0  0  0  0  0
  -28.7713  -15.5894   20.4304 H   0  0  0  0  0  0
  -27.7879  -22.1235   20.9634 H   0  0  0  0  0  0
  -29.3022  -22.4498   21.4209 H   0  0  0  0  0  0
  1 25  1  0  0  0
  1 30  2  0  0  0
  1 81  1  0  0  0
  2  3  1  0  0  0
  2 25  1  0  0  0
  2 85  1  0  0  0
  2 86  1  0  0  0
  3  4  1  0  0  0
  3 87  1  0  0  0
  3 88  1  0  0  0
  4  5  1  0  0  0
  4 89  1  0  0  0
  4 90  1  0  0  0
  5  6  1  0  0  0
  5 26  1  0  0  0
  5 91  1  0  0  0
  6 25  1  0  0  0
  6 92  1  0  0  0
  6 93  1  0  0  0
  7  8  2  0  0  0
  7 26  1  0  0  0
  7 29  1  0  0  0
  8  9  1  0  0  0
  8 22  1  0  0  0
  9 10  1  0  0  0
  9 27  2  0  0  0
 10 11  2  0  0  0
 10 15  1  0  0  0
 11 12  1  0  0  0
 11 94  1  0  0  0
 12 13  2  0  0  0
 12 95  1  0  0  0
 13 14  1  0  0  0
 13 31  1  0  0  0
 14 15  2  0  0  0
 14 96  1  0  0  0
 15 97  1  0  0  0
 16 17  2  0  0  0
 16 21  1  0  0  0
 16 31  1  0  0  0
 17 18  1  0  0  0
 17 98  1  0  0  0
 18 19  2  0  0  0
 18 99  1  0  0  0
 19 20  1  0  0  0
 19 24  1  0  0  0
 20 21  2  0  0  0
 20100  1  0  0  0
 21 23  1  0  0  0
 22 28  1  0  0  0
 22 32  2  0  0  0
 26 27  1  0  0  0
 28101  1  0  0  0
 28102  1  0  0  0
 29103  1  0  0  0
 29104  1  0  0  0
 33 34  1  0  0  0
 33 66  1  0  0  0
 33 70  2  0  0  0
 34 36  1  0  0  0
 34 59  1  0  0  0
 34105  1  0  0  0
 35 44  2  0  0  0
 35 45  1  0  0  0
 35 68  1  0  0  0
 36 56  1  0  0  0
 36106  1  0  0  0
 37 39  1  0  0  0
 37 47  1  0  0  0
 37 66  1  0  0  0
 37107  1  0  0  0
 38 43  2  0  0  0
 38 46  1  0  0  0
 38 47  1  0  0  0
 39 64  1  0  0  0
 39 67  2  0  0  0
 40 52  1  0  0  0
 40 53  2  0  0  0
 40 58  1  0  0  0
 41108  1  0  0  0
 41109  1  0  0  0
 41110  1  0  0  0
 41 48  1  0  0  0
 42 43  1  0  0  0
 42 66  1  0  0  0
 42111  1  0  0  0
 42112  1  0  0  0
 43 44  1  0  0  0
 44113  1  0  0  0
 45 46  2  0  0  0
 45114  1  0  0  0
 46115  1  0  0  0
 47116  1  0  0  0
 47117  1  0  0  0
 48 56  1  0  0  0
 48 65  1  0  0  0
 48118  1  0  0  0
 49 50  1  0  0  0
 49 53  1  0  0  0
 49 64  1  0  0  0
 49119  1  0  0  0
 50 51  1  0  0  0
 50120  1  0  0  0
 50121  1  0  0  0
 51 52  1  0  0  0
 51122  1  0  0  0
 51123  1  0  0  0
 52124  1  0  0  0
 52125  1  0  0  0
 53 54  1  0  0  0
 54 55  2  0  0  0
 54126  1  0  0  0
 55 57  1  0  0  0
 55127  1  0  0  0
 56 69  2  0  0  0
 57 58  2  0  0  0
 57128  1  0  0  0
 58129  1  0  0  0
 59 60  1  0  0  0
 59 61  1  0  0  0
 59 62  1  0  0  0
 60130  1  0  0  0
 60131  1  0  0  0
 60132  1  0  0  0
 61133  1  0  0  0
 61134  1  0  0  0
 61135  1  0  0  0
 62136  1  0  0  0
 62137  1  0  0  0
 62138  1  0  0  0
 63 65  1  0  0  0
 63139  1  0  0  0
 63140  1  0  0  0
 63141  1  0  0  0
 64142  1  0  0  0
 65143  1  0  0  0
 68 80  1  0  0  0
 71 72  2  0  0  0
 71 74  1  0  0  0
 71144  1  0  0  0
 72 75  1  0  0  0
 72 78  1  0  0  0
 73 75  2  0  0  0
 73 76  1  0  0  0
 73 77  1  0  0  0
 74 76  2  0  0  0
 74 81  1  0  0  0
 75 83  1  0  0  0
 76 84  1  0  0  0
 77145  1  0  0  0
 77146  1  0  0  0
 77147  1  0  0  0
 78 82  1  0  0  0
 78148  1  0  0  0
 78149  1  0  0  0
 79 80  1  0  0  0
 79 82  1  0  0  0
 79150  1  0  0  0
 79151  1  0  0  0
 80152  1  0  0  0
 80153  1  0  0  0
 81154  1  0  0  0
 82155  1  0  0  0
 82156  1  0  0  0
M  CHG  1  82   1
M  ISO  4   1 100  68 101  80 101  81 100
M  END
> <chiral flag>
0

> <version>
0

> <s_m_source_file>
/data/baiqing/PycharmProjects/Reinvent-master-3.2/result/LINK_invent/BTK/process_docking_weight1_custom_sum_contain_oxygen_bond_distance_aromatic_linkinvent_7_9_3/rearranged_h_0022.sdf

> <i_m_source_file_index>
21

> <r_mmod_Potential_Energy-OPLS-2005>
-53.4766159057617

> <r_mmod_Stretch_Energy-OPLS-2005>
114.85962677002

> <r_mmod_Bend_Energy-OPLS-2005>
148.811416625977

> <r_mmod_Torsional_Energy-OPLS-2005>
253.281127929688

> <r_mmod_Improper_Torsional_Energy-OPLS-2005>
9.10435771942139

> <r_mmod_Van_der_Waal_Energy-OPLS-2005>
142.872344970703

> <r_mmod_Electrostatic_Energy-OPLS-2005>
-345.170288085938

> <r_mmod_Solvation_Energy-OPLS-2005>
-461.234039306641

> <b_mmod_Minimization_Converged-OPLS-2005>
0

> <r_mmod_RMS_Derivative-OPLS-2005>
3.88559103012085

$$$$
21
                    3D
 Structure written by MMmdl.
168176  0  0  1  0            999 V2000
  -30.7807  -14.3308   20.6999 C   0  0  0  0  0  0
  -30.4158  -12.2796   19.3807 C   0  0  0  0  0  0
  -29.4801  -12.5242   18.1849 C   0  0  0  0  0  0
  -28.0051  -12.3813   18.6061 C   0  0  0  0  0  0
  -27.6672  -13.2003   19.8792 C   0  0  2  0  0  0
  -28.7039  -12.9272   20.9894 C   0  0  0  0  0  0
  -25.2603  -13.8163   20.5669 C   0  0  0  0  0  0
  -24.1852  -13.0443   20.9156 C   0  0  0  0  0  0
  -24.6395  -11.6899   20.8730 C   0  0  0  0  0  0
  -23.9058  -10.4289   21.0406 C   0  0  0  0  0  0
  -24.3612   -9.4208   21.9182 C   0  0  0  0  0  0
  -23.6288   -8.2246   22.0755 C   0  0  0  0  0  0
  -22.4273   -8.0287   21.3544 C   0  0  0  0  0  0
  -21.9908   -9.0257   20.4644 C   0  0  0  0  0  0
  -22.7232  -10.2130   20.3051 C   0  0  0  0  0  0
  -21.6851   -6.0735   22.5278 C   0  0  0  0  0  0
  -21.4014   -6.5638   23.8212 C   0  0  0  0  0  0
  -21.3657   -5.6792   24.9177 C   0  0  0  0  0  0
  -21.6047   -4.3057   24.7223 C   0  0  0  0  0  0
  -21.8820   -3.8145   23.4347 C   0  0  0  0  0  0
  -21.9192   -4.6963   22.3406 C   0  0  0  0  0  0
  -22.7870  -13.5237   21.1838 C   0  0  0  0  0  0
  -22.1660   -4.2149   21.0982 F   0  0  0  0  0  0
  -21.5630   -3.4539   25.7733 F   0  0  0  0  0  0
  -30.0495  -13.2151   20.4529 N   0  0  0  0  0  0
  -26.3048  -12.9323   20.3375 N   0  0  0  0  0  0
  -25.9317  -11.6481   20.5750 N   0  0  0  0  0  0
  -22.0512  -12.8229   22.0394 N   0  0  0  0  0  0
  -25.4318  -15.1882   20.4056 N   0  0  0  0  0  0
  -31.7912  -14.6370   20.0579 O   0  0  0  0  0  0
  -21.6640   -6.8882   21.4242 O   0  0  0  0  0  0
  -22.3548  -14.5549   20.6698 O   0  0  0  0  0  0
  -24.6096  -31.8722   23.2103 C   0  0  0  0  0  0
  -25.9032  -32.4845   23.8377 C   0  0  1  0  0  0
  -27.2490  -27.4880   20.0955 C   0  0  0  0  0  0
  -25.5931  -33.8636   24.2326 N   0  0  0  0  0  0
  -23.3924  -30.4927   21.5509 C   0  0  2  0  0  0
  -24.8390  -28.9632   20.1139 C   0  0  0  0  0  0
  -22.7369  -29.4671   22.5011 C   0  0  0  0  0  0
  -18.0269  -28.1346   22.8493 C   0  0  0  0  0  0
  -24.1508  -36.7298   23.2634 C   0  0  0  0  0  0
  -25.9103  -30.8560   21.3506 C   0  0  0  0  0  0
  -25.9921  -29.4912   20.7075 C   0  0  0  0  0  0
  -27.1962  -28.7632   20.7027 C   0  0  0  0  0  0
  -26.0824  -26.9668   19.4987 C   0  0  0  0  0  0
  -24.8759  -27.6934   19.5094 C   0  0  0  0  0  0
  -23.5966  -29.8204   20.1657 C   0  0  0  0  0  0
  -25.4130  -36.3121   24.0338 C   0  0  1  0  0  0
  -20.5841  -28.3633   23.1335 C   0  0  2  0  0  0
  -20.6764  -26.9384   22.5417 C   0  0  0  0  0  0
  -19.5752  -26.6366   21.5215 C   0  0  0  0  0  0
  -18.1921  -26.7901   22.1605 C   0  0  0  0  0  0
  -19.1508  -28.8804   23.2907 C   0  0  0  0  0  0
  -18.9453  -30.1412   23.8909 C   0  0  0  0  0  0
  -17.6461  -30.6567   24.0562 C   0  0  0  0  0  0
  -25.9041  -34.9487   23.5115 C   0  0  0  0  0  0
  -16.5345  -29.9079   23.6317 C   0  0  0  0  0  0
  -16.7263  -28.6495   23.0336 C   0  0  0  0  0  0
  -26.4491  -31.6607   25.0679 C   0  0  0  0  0  0
  -25.3772  -31.3680   26.1432 C   0  0  0  0  0  0
  -27.0324  -30.3079   24.5983 C   0  0  0  0  0  0
  -27.6077  -32.4302   25.7467 C   0  0  0  0  0  0
  -27.5599  -37.1815   24.8471 C   0  0  0  0  0  0
  -21.4102  -29.3014   22.3746 N   0  0  0  0  0  0
  -26.4317  -37.3821   23.9408 N   0  0  0  0  0  0
  -24.6550  -31.0864   22.0973 N   0  0  0  0  0  0
  -23.4181  -28.8233   23.3034 O   0  0  0  0  0  0
  -28.3811  -26.7104   20.0374 O   0  0  0  0  0  0
  -26.5575  -34.8930   22.4666 O   0  0  0  0  0  0
  -23.5319  -32.1459   23.7553 O   0  0  0  0  0  0
  -32.1337  -18.5100   23.3930 C   0  0  0  0  0  0
  -32.3005  -16.2118   22.6407 C   0  0  0  0  0  0
  -32.9026  -17.3454   23.2182 C   0  0  0  0  0  0
  -30.7708  -18.5519   23.0253 C   0  0  0  0  0  0
  -30.1504  -17.3907   22.4892 C   0  0  0  0  0  0
  -30.9371  -16.2293   22.2694 C   0  0  0  0  0  0
  -28.6629  -17.4013   22.1332 C   0  0  0  0  0  0
  -30.0330  -19.8727   23.2100 C   0  0  0  0  0  0
  -30.6837  -21.0074   22.4051 C   0  0  0  0  0  0
  -29.8702  -22.2995   22.4686 C   0  0  0  0  0  0
  -30.5972  -23.4577   21.7784 C   0  0  0  0  0  0
  -29.7322  -24.7169   21.7320 C   0  0  0  0  0  0
  -30.4056  -25.8572   20.9600 C   0  0  0  0  0  0
  -29.4908  -27.0782   20.8476 C   0  0  0  0  0  0
  -34.3671  -17.3232   23.6367 C   0  0  0  0  0  0
  -30.3405  -15.0611   21.7327 N   0  0  0  0  0  0
  -34.5822  -18.1504   24.6613 F   0  0  0  0  0  0
  -34.7408  -16.0986   24.0118 F   0  0  0  0  0  0
  -35.1307  -17.7077   22.6144 F   0  0  0  0  0  0
  -31.4565  -12.3828   19.0703 H   0  0  0  0  0  0
  -30.3176  -11.2523   19.7362 H   0  0  0  0  0  0
  -29.7053  -11.8235   17.3792 H   0  0  0  0  0  0
  -29.6545  -13.5226   17.7803 H   0  0  0  0  0  0
  -27.8100  -11.3235   18.7836 H   0  0  0  0  0  0
  -27.3500  -12.6765   17.7845 H   0  0  0  0  0  0
  -27.7313  -14.2570   19.6150 H   0  0  0  0  0  0
  -28.6595  -11.8803   21.2953 H   0  0  0  0  0  0
  -28.4480  -13.4929   21.8853 H   0  0  0  0  0  0
  -25.2757   -9.5683   22.4755 H   0  0  0  0  0  0
  -23.9993   -7.4639   22.7475 H   0  0  0  0  0  0
  -21.0841   -8.8777   19.8947 H   0  0  0  0  0  0
  -22.3701  -10.9671   19.6160 H   0  0  0  0  0  0
  -21.2009   -7.6144   23.9716 H   0  0  0  0  0  0
  -21.1481   -6.0521   25.9079 H   0  0  0  0  0  0
  -22.0604   -2.7607   23.2847 H   0  0  0  0  0  0
  -22.4114  -11.9876   22.4775 H   0  0  0  0  0  0
  -21.1124  -13.1244   22.2602 H   0  0  0  0  0  0
  -24.6620  -15.8411   20.5053 H   0  0  0  0  0  0
  -26.2851  -15.6266   20.0829 H   0  0  0  0  0  0
  -26.7110  -32.5580   23.1136 H   0  0  0  0  0  0
  -25.0249  -33.9803   25.0588 H   0  0  0  0  0  0
  -22.6780  -31.3073   21.4136 H   0  0  0  0  0  0
  -23.3790  -35.9614   23.3319 H   0  0  0  0  0  0
  -24.3597  -36.8879   22.2047 H   0  0  0  0  0  0
  -23.7228  -37.6493   23.6623 H   0  0  0  0  0  0
  -26.0053  -31.6188   20.5759 H   0  0  0  0  0  0
  -26.8022  -30.9188   21.9609 H   0  0  0  0  0  0
  -28.0703  -29.2027   21.1599 H   0  0  0  0  0  0
  -26.1128  -25.9939   19.0274 H   0  0  0  0  0  0
  -23.9897  -27.2728   19.0519 H   0  0  0  0  0  0
  -23.6931  -30.5928   19.4009 H   0  0  0  0  0  0
  -22.7238  -29.2321   19.8797 H   0  0  0  0  0  0
  -25.1307  -36.2004   25.0828 H   0  0  0  0  0  0
  -20.9935  -28.3200   24.1454 H   0  0  0  0  0  0
  -20.5680  -26.2244   23.3586 H   0  0  0  0  0  0
  -21.6642  -26.7444   22.1214 H   0  0  0  0  0  0
  -19.6928  -25.6303   21.1200 H   0  0  0  0  0  0
  -19.6692  -27.3198   20.6769 H   0  0  0  0  0  0
  -17.4207  -26.6655   21.3990 H   0  0  0  0  0  0
  -18.0310  -26.0012   22.8963 H   0  0  0  0  0  0
  -19.7938  -30.7205   24.2283 H   0  0  0  0  0  0
  -17.5037  -31.6250   24.5170 H   0  0  0  0  0  0
  -15.5355  -30.3000   23.7627 H   0  0  0  0  0  0
  -15.8654  -28.0825   22.7047 H   0  0  0  0  0  0
  -24.5966  -30.6995   25.7772 H   0  0  0  0  0  0
  -24.8929  -32.2827   26.4880 H   0  0  0  0  0  0
  -25.8153  -30.8866   27.0189 H   0  0  0  0  0  0
  -26.2840  -29.6813   24.1123 H   0  0  0  0  0  0
  -27.4254  -29.7328   25.4374 H   0  0  0  0  0  0
  -27.8593  -30.4436   23.9003 H   0  0  0  0  0  0
  -27.2713  -33.3590   26.2103 H   0  0  0  0  0  0
  -28.3901  -32.6896   25.0306 H   0  0  0  0  0  0
  -28.0745  -31.8376   26.5345 H   0  0  0  0  0  0
  -28.2642  -38.0100   24.7549 H   0  0  0  0  0  0
  -28.1071  -36.2637   24.6286 H   0  0  0  0  0  0
  -27.2294  -37.1452   25.8864 H   0  0  0  0  0  0
  -20.9264  -29.8735   21.6965 H   0  0  0  0  0  0
  -26.0206  -38.2894   24.1406 H   0  0  0  0  0  0
  -32.6079  -19.3841   23.8143 H   0  0  0  0  0  0
  -32.8944  -15.3203   22.4969 H   0  0  0  0  0  0
  -28.0696  -17.7747   22.9680 H   0  0  0  0  0  0
  -28.2590  -16.4170   21.8970 H   0  0  0  0  0  0
  -28.4861  -18.0402   21.2676 H   0  0  0  0  0  0
  -30.0387  -20.1273   24.2717 H   0  0  0  0  0  0
  -28.9839  -19.8039   22.9284 H   0  0  0  0  0  0
  -30.7871  -20.7052   21.3615 H   0  0  0  0  0  0
  -31.6931  -21.1962   22.7718 H   0  0  0  0  0  0
  -29.6664  -22.5594   23.5076 H   0  0  0  0  0  0
  -28.9010  -22.1341   21.9949 H   0  0  0  0  0  0
  -30.8690  -23.1605   20.7651 H   0  0  0  0  0  0
  -31.5304  -23.6752   22.2991 H   0  0  0  0  0  0
  -29.5030  -25.0418   22.7486 H   0  0  0  0  0  0
  -28.7759  -24.4732   21.2660 H   0  0  0  0  0  0
  -30.6905  -25.5205   19.9613 H   0  0  0  0  0  0
  -31.3274  -26.1418   21.4693 H   0  0  0  0  0  0
  -30.0218  -27.9127   20.3897 H   0  0  0  0  0  0
  -29.1809  -27.3803   21.8508 H   0  0  0  0  0  0
  -29.4471  -14.7884   22.1119 H   0  0  0  0  0  0
  1 25  1  0  0  0
  1 30  2  0  0  0
  1 86  1  0  0  0
  2  3  1  0  0  0
  2 25  1  0  0  0
  2 90  1  0  0  0
  2 91  1  0  0  0
  3  4  1  0  0  0
  3 92  1  0  0  0
  3 93  1  0  0  0
  4  5  1  0  0  0
  4 94  1  0  0  0
  4 95  1  0  0  0
  5  6  1  0  0  0
  5 26  1  0  0  0
  5 96  1  0  0  0
  6 25  1  0  0  0
  6 97  1  0  0  0
  6 98  1  0  0  0
  7  8  2  0  0  0
  7 26  1  0  0  0
  7 29  1  0  0  0
  8  9  1  0  0  0
  8 22  1  0  0  0
  9 10  1  0  0  0
  9 27  2  0  0  0
 10 11  2  0  0  0
 10 15  1  0  0  0
 11 12  1  0  0  0
 11 99  1  0  0  0
 12 13  2  0  0  0
 12100  1  0  0  0
 13 14  1  0  0  0
 13 31  1  0  0  0
 14 15  2  0  0  0
 14101  1  0  0  0
 15102  1  0  0  0
 16 17  2  0  0  0
 16 21  1  0  0  0
 16 31  1  0  0  0
 17 18  1  0  0  0
 17103  1  0  0  0
 18 19  2  0  0  0
 18104  1  0  0  0
 19 20  1  0  0  0
 19 24  1  0  0  0
 20 21  2  0  0  0
 20105  1  0  0  0
 21 23  1  0  0  0
 22 28  1  0  0  0
 22 32  2  0  0  0
 26 27  1  0  0  0
 28106  1  0  0  0
 28107  1  0  0  0
 29108  1  0  0  0
 29109  1  0  0  0
 33 34  1  0  0  0
 33 66  1  0  0  0
 33 70  2  0  0  0
 34 36  1  0  0  0
 34 59  1  0  0  0
 34110  1  0  0  0
 35 44  2  0  0  0
 35 45  1  0  0  0
 35 68  1  0  0  0
 36 56  1  0  0  0
 36111  1  0  0  0
 37 39  1  0  0  0
 37 47  1  0  0  0
 37 66  1  0  0  0
 37112  1  0  0  0
 38 43  2  0  0  0
 38 46  1  0  0  0
 38 47  1  0  0  0
 39 64  1  0  0  0
 39 67  2  0  0  0
 40 52  1  0  0  0
 40 53  2  0  0  0
 40 58  1  0  0  0
 41113  1  0  0  0
 41114  1  0  0  0
 41115  1  0  0  0
 41 48  1  0  0  0
 42 43  1  0  0  0
 42 66  1  0  0  0
 42116  1  0  0  0
 42117  1  0  0  0
 43 44  1  0  0  0
 44118  1  0  0  0
 45 46  2  0  0  0
 45119  1  0  0  0
 46120  1  0  0  0
 47121  1  0  0  0
 47122  1  0  0  0
 48 56  1  0  0  0
 48 65  1  0  0  0
 48123  1  0  0  0
 49 50  1  0  0  0
 49 53  1  0  0  0
 49 64  1  0  0  0
 49124  1  0  0  0
 50 51  1  0  0  0
 50125  1  0  0  0
 50126  1  0  0  0
 51 52  1  0  0  0
 51127  1  0  0  0
 51128  1  0  0  0
 52129  1  0  0  0
 52130  1  0  0  0
 53 54  1  0  0  0
 54 55  2  0  0  0
 54131  1  0  0  0
 55 57  1  0  0  0
 55132  1  0  0  0
 56 69  2  0  0  0
 57 58  2  0  0  0
 57133  1  0  0  0
 58134  1  0  0  0
 59 60  1  0  0  0
 59 61  1  0  0  0
 59 62  1  0  0  0
 60135  1  0  0  0
 60136  1  0  0  0
 60137  1  0  0  0
 61138  1  0  0  0
 61139  1  0  0  0
 61140  1  0  0  0
 62141  1  0  0  0
 62142  1  0  0  0
 62143  1  0  0  0
 63 65  1  0  0  0
 63144  1  0  0  0
 63145  1  0  0  0
 63146  1  0  0  0
 64147  1  0  0  0
 65148  1  0  0  0
 68 84  1  0  0  0
 71 73  2  0  0  0
 71 74  1  0  0  0
 71149  1  0  0  0
 72 73  1  0  0  0
 72 76  2  0  0  0
 72150  1  0  0  0
 73 85  1  0  0  0
 74 75  2  0  0  0
 74 78  1  0  0  0
 75 76  1  0  0  0
 75 77  1  0  0  0
 76 86  1  0  0  0
 77151  1  0  0  0
 77152  1  0  0  0
 77153  1  0  0  0
 78 79  1  0  0  0
 78154  1  0  0  0
 78155  1  0  0  0
 79 80  1  0  0  0
 79156  1  0  0  0
 79157  1  0  0  0
 80 81  1  0  0  0
 80158  1  0  0  0
 80159  1  0  0  0
 81 82  1  0  0  0
 81160  1  0  0  0
 81161  1  0  0  0
 82 83  1  0  0  0
 82162  1  0  0  0
 82163  1  0  0  0
 83 84  1  0  0  0
 83164  1  0  0  0
 83165  1  0  0  0
 84166  1  0  0  0
 84167  1  0  0  0
 85 87  1  0  0  0
 85 88  1  0  0  0
 85 89  1  0  0  0
 86168  1  0  0  0
M  ISO  4   1 100  68 101  84 101  86 100
M  END
> <chiral flag>
0

> <version>
0

> <s_m_source_file>
/data/baiqing/PycharmProjects/Reinvent-master-3.2/result/LINK_invent/BTK/process_docking_weight1_custom_sum_contain_oxygen_bond_distance_aromatic_linkinvent_7_9_3/rearranged_h_0022.sdf

> <i_m_source_file_index>
22

> <r_mmod_Potential_Energy-OPLS-2005>
-45.5219383239746

> <r_mmod_Stretch_Energy-OPLS-2005>
32.2063102722168

> <r_mmod_Bend_Energy-OPLS-2005>
92.3174743652344

> <r_mmod_Torsional_Energy-OPLS-2005>
213.728698730469

> <r_mmod_Improper_Torsional_Energy-OPLS-2005>
1.89250016212463

> <r_mmod_Van_der_Waal_Energy-OPLS-2005>
166.265853881836

> <r_mmod_Electrostatic_Energy-OPLS-2005>
-366.018951416016

> <r_mmod_Solvation_Energy-OPLS-2005>
-191.74560546875

> <b_mmod_Minimization_Converged-OPLS-2005>
0

> <r_mmod_RMS_Derivative-OPLS-2005>
2.62096405029297

$$$$
22
                    3D
 Structure written by MMmdl.
159167  0  0  1  0            999 V2000
  -30.6311  -14.6651   20.3967 C   0  0  0  0  0  0
  -30.4217  -12.3698   19.4783 C   0  0  0  0  0  0
  -29.4943  -12.3853   18.2438 C   0  0  0  0  0  0
  -28.0108  -12.3002   18.6552 C   0  0  0  0  0  0
  -27.6343  -13.2055   19.8607 C   0  0  2  0  0  0
  -28.6878  -13.1504   20.9859 C   0  0  0  0  0  0
  -25.2466  -13.8066   20.5842 C   0  0  0  0  0  0
  -24.1720  -13.0332   20.9249 C   0  0  0  0  0  0
  -24.6311  -11.6833   20.8809 C   0  0  0  0  0  0
  -23.9000  -10.4226   21.0445 C   0  0  0  0  0  0
  -24.3556   -9.4140   21.9220 C   0  0  0  0  0  0
  -23.6232   -8.2180   22.0768 C   0  0  0  0  0  0
  -22.4226   -8.0233   21.3539 C   0  0  0  0  0  0
  -21.9858   -9.0206   20.4652 C   0  0  0  0  0  0
  -22.7185  -10.2081   20.3079 C   0  0  0  0  0  0
  -21.6810   -6.0711   22.5279 C   0  0  0  0  0  0
  -21.3993   -6.5625   23.8212 C   0  0  0  0  0  0
  -21.3657   -5.6782   24.9175 C   0  0  0  0  0  0
  -21.6042   -4.3047   24.7231 C   0  0  0  0  0  0
  -21.8814   -3.8134   23.4354 C   0  0  0  0  0  0
  -21.9177   -4.6945   22.3407 C   0  0  0  0  0  0
  -22.7762  -13.5159   21.1877 C   0  0  0  0  0  0
  -22.1650   -4.2130   21.0986 F   0  0  0  0  0  0
  -21.5638   -3.4543   25.7751 F   0  0  0  0  0  0
  -29.9860  -13.4561   20.3772 N   0  0  0  0  0  0
  -26.2883  -12.9250   20.3446 N   0  0  0  0  0  0
  -25.9243  -11.6418   20.5905 N   0  0  0  0  0  0
  -22.0388  -12.8165   22.0439 N   0  0  0  0  0  0
  -25.4101  -15.1778   20.4446 N   0  0  0  0  0  0
  -31.8505  -14.7101   20.2132 O   0  0  0  0  0  0
  -21.6582   -6.8837   21.4235 O   0  0  0  0  0  0
  -22.3487  -14.5484   20.6741 O   0  0  0  0  0  0
  -24.6217  -31.8629   23.2067 C   0  0  0  0  0  0
  -25.9077  -32.4791   23.8371 C   0  0  1  0  0  0
  -27.2157  -27.3476   20.1287 C   0  0  0  0  0  0
  -25.5917  -33.8587   24.2301 N   0  0  0  0  0  0
  -23.4121  -30.4893   21.5492 C   0  0  2  0  0  0
  -24.8589  -28.9557   20.1046 C   0  0  0  0  0  0
  -22.7444  -29.4636   22.4956 C   0  0  0  0  0  0
  -18.0282  -28.1391   22.8495 C   0  0  0  0  0  0
  -24.1488  -36.7302   23.2637 C   0  0  0  0  0  0
  -25.9493  -30.8069   21.3698 C   0  0  0  0  0  0
  -26.0243  -29.4363   20.7155 C   0  0  0  0  0  0
  -27.2056  -28.6426   20.7218 C   0  0  0  0  0  0
  -26.0356  -26.9226   19.4736 C   0  0  0  0  0  0
  -24.8658  -27.7039   19.4736 C   0  0  0  0  0  0
  -23.6236  -29.8300   20.1605 C   0  0  0  0  0  0
  -25.4107  -36.3080   24.0328 C   0  0  1  0  0  0
  -20.5881  -28.3684   23.1302 C   0  0  2  0  0  0
  -20.6781  -26.9411   22.5418 C   0  0  0  0  0  0
  -19.5754  -26.6394   21.5225 C   0  0  0  0  0  0
  -18.1932  -26.7937   22.1629 C   0  0  0  0  0  0
  -19.1534  -28.8852   23.2894 C   0  0  0  0  0  0
  -18.9456  -30.1458   23.8905 C   0  0  0  0  0  0
  -17.6459  -30.6594   24.0567 C   0  0  0  0  0  0
  -25.9035  -34.9452   23.5111 C   0  0  0  0  0  0
  -16.5347  -29.9094   23.6334 C   0  0  0  0  0  0
  -16.7269  -28.6511   23.0347 C   0  0  0  0  0  0
  -26.4489  -31.6569   25.0709 C   0  0  0  0  0  0
  -25.3732  -31.3675   26.1444 C   0  0  0  0  0  0
  -27.0332  -30.3003   24.6118 C   0  0  0  0  0  0
  -27.6080  -32.4278   25.7472 C   0  0  0  0  0  0
  -27.5582  -37.1799   24.8466 C   0  0  0  0  0  0
  -21.4166  -29.3034   22.3690 N   0  0  0  0  0  0
  -26.4292  -37.3773   23.9405 N   0  0  0  0  0  0
  -24.6799  -31.0683   22.0997 N   0  0  0  0  0  0
  -23.4192  -28.8160   23.2998 O   0  0  0  0  0  0
  -28.3285  -26.5047   20.2231 O   0  0  0  0  0  0
  -26.5606  -34.8910   22.4679 O   0  0  0  0  0  0
  -23.5390  -32.1420   23.7425 O   0  0  0  0  0  0
  -28.6799  -19.3864   20.3895 C   0  0  0  0  0  0
  -30.6121  -19.1032   21.7640 C   0  0  0  0  0  0
  -29.6766  -19.9884   21.1760 C   0  0  0  0  0  0
  -28.6839  -17.9925   20.1030 C   0  0  0  0  0  0
  -29.7286  -17.1045   20.5630 C   0  0  0  0  0  0
  -30.6414  -17.7043   21.4955 C   0  0  0  0  0  0
  -27.5014  -17.5355   19.2628 C   0  0  0  0  0  0
  -29.8038  -15.7775   18.4865 C   0  0  0  0  0  0
  -29.7890  -21.5293   21.4110 C   0  0  0  0  0  0
  -28.7644  -22.5231   20.7354 C   0  0  0  0  0  0
  -29.0943  -24.0725   20.8416 C   0  0  0  0  0  0
  -28.0880  -25.0554   20.1301 C   0  0  0  0  0  0
  -29.8764  -15.7483   19.9689 N   0  0  0  0  0  0
  -31.8579  -16.8194   22.3488 Cl  0  0  0  0  0  0
  -31.4607  -12.4809   19.1667 H   0  0  0  0  0  0
  -30.3645  -11.4110   19.9955 H   0  0  0  0  0  0
  -29.7396  -11.5424   17.5953 H   0  0  0  0  0  0
  -29.6638  -13.2671   17.6336 H   0  0  0  0  0  0
  -27.8141  -11.2569   18.9061 H   0  0  0  0  0  0
  -27.3692  -12.5283   17.8027 H   0  0  0  0  0  0
  -27.6142  -14.2209   19.4819 H   0  0  0  0  0  0
  -28.7098  -12.1679   21.4614 H   0  0  0  0  0  0
  -28.4507  -13.8747   21.7679 H   0  0  0  0  0  0
  -25.2688   -9.5608   22.4809 H   0  0  0  0  0  0
  -23.9923   -7.4558   22.7478 H   0  0  0  0  0  0
  -21.0799   -8.8725   19.8950 H   0  0  0  0  0  0
  -22.3652  -10.9626   19.6203 H   0  0  0  0  0  0
  -21.1978   -7.6133   23.9707 H   0  0  0  0  0  0
  -21.1496   -6.0525   25.9074 H   0  0  0  0  0  0
  -22.0600   -2.7600   23.2862 H   0  0  0  0  0  0
  -22.3953  -11.9782   22.4764 H   0  0  0  0  0  0
  -21.1039  -13.1251   22.2696 H   0  0  0  0  0  0
  -24.6491  -15.8284   20.6045 H   0  0  0  0  0  0
  -26.2898  -15.6318   20.2418 H   0  0  0  0  0  0
  -26.7141  -32.5485   23.1120 H   0  0  0  0  0  0
  -25.0035  -33.9724   25.0429 H   0  0  0  0  0  0
  -22.7029  -31.3091   21.4111 H   0  0  0  0  0  0
  -23.3736  -35.9654   23.3301 H   0  0  0  0  0  0
  -24.3575  -36.8929   22.2051 H   0  0  0  0  0  0
  -23.7270  -37.6518   23.6656 H   0  0  0  0  0  0
  -26.0662  -31.5685   20.5978 H   0  0  0  0  0  0
  -26.8347  -30.8627   21.9908 H   0  0  0  0  0  0
  -28.0954  -29.0012   21.2192 H   0  0  0  0  0  0
  -25.9895  -25.9686   18.9689 H   0  0  0  0  0  0
  -23.9754  -27.3369   18.9814 H   0  0  0  0  0  0
  -23.7324  -30.6111   19.4073 H   0  0  0  0  0  0
  -22.7436  -29.2580   19.8611 H   0  0  0  0  0  0
  -25.1281  -36.1943   25.0824 H   0  0  0  0  0  0
  -20.9973  -28.3277   24.1433 H   0  0  0  0  0  0
  -20.5728  -26.2280   23.3609 H   0  0  0  0  0  0
  -21.6640  -26.7481   22.1181 H   0  0  0  0  0  0
  -19.6916  -25.6310   21.1245 H   0  0  0  0  0  0
  -19.6704  -27.3218   20.6768 H   0  0  0  0  0  0
  -17.4200  -26.6691   21.4024 H   0  0  0  0  0  0
  -18.0308  -26.0086   22.9027 H   0  0  0  0  0  0
  -19.7927  -30.7275   24.2279 H   0  0  0  0  0  0
  -17.5006  -31.6280   24.5163 H   0  0  0  0  0  0
  -15.5337  -30.2987   23.7676 H   0  0  0  0  0  0
  -15.8667  -28.0845   22.7045 H   0  0  0  0  0  0
  -24.5945  -30.6975   25.7767 H   0  0  0  0  0  0
  -24.8850  -32.2804   26.4850 H   0  0  0  0  0  0
  -25.8058  -30.8882   27.0229 H   0  0  0  0  0  0
  -26.2890  -29.6734   24.1189 H   0  0  0  0  0  0
  -27.4106  -29.7269   25.4593 H   0  0  0  0  0  0
  -27.8712  -30.4295   23.9272 H   0  0  0  0  0  0
  -27.2752  -33.3613   26.2017 H   0  0  0  0  0  0
  -28.3910  -32.6772   25.0297 H   0  0  0  0  0  0
  -28.0707  -31.8396   26.5405 H   0  0  0  0  0  0
  -28.2592  -38.0100   24.7504 H   0  0  0  0  0  0
  -28.1081  -36.2626   24.6302 H   0  0  0  0  0  0
  -27.2280  -37.1469   25.8864 H   0  0  0  0  0  0
  -20.9330  -29.8766   21.6927 H   0  0  0  0  0  0
  -26.0173  -38.2849   24.1413 H   0  0  0  0  0  0
  -27.8987  -20.0051   19.9708 H   0  0  0  0  0  0
  -31.3579  -19.5100   22.4299 H   0  0  0  0  0  0
  -26.5780  -17.9668   19.6530 H   0  0  0  0  0  0
  -27.3696  -16.4609   19.2704 H   0  0  0  0  0  0
  -27.6119  -17.8668   18.2295 H   0  0  0  0  0  0
  -28.8673  -15.3639   18.1171 H   0  0  0  0  0  0
  -30.6075  -15.2262   17.9941 H   0  0  0  0  0  0
  -29.8847  -16.7877   18.0860 H   0  0  0  0  0  0
  -30.7884  -21.8110   21.0781 H   0  0  0  0  0  0
  -29.7888  -21.6963   22.4897 H   0  0  0  0  0  0
  -27.7769  -22.3395   21.1619 H   0  0  0  0  0  0
  -28.6831  -22.2714   19.6795 H   0  0  0  0  0  0
  -30.0926  -24.2496   20.4358 H   0  0  0  0  0  0
  -29.1465  -24.3480   21.8961 H   0  0  0  0  0  0
  -27.1086  -24.8186   20.5476 H   0  0  0  0  0  0
  -28.0446  -24.7957   19.0720 H   0  0  0  0  0  0
  1 25  1  0  0  0
  1 30  2  0  0  0
  1 83  1  0  0  0
  2  3  1  0  0  0
  2 25  1  0  0  0
  2 85  1  0  0  0
  2 86  1  0  0  0
  3  4  1  0  0  0
  3 87  1  0  0  0
  3 88  1  0  0  0
  4  5  1  0  0  0
  4 89  1  0  0  0
  4 90  1  0  0  0
  5  6  1  0  0  0
  5 26  1  0  0  0
  5 91  1  0  0  0
  6 25  1  0  0  0
  6 92  1  0  0  0
  6 93  1  0  0  0
  7  8  2  0  0  0
  7 26  1  0  0  0
  7 29  1  0  0  0
  8  9  1  0  0  0
  8 22  1  0  0  0
  9 10  1  0  0  0
  9 27  2  0  0  0
 10 11  2  0  0  0
 10 15  1  0  0  0
 11 12  1  0  0  0
 11 94  1  0  0  0
 12 13  2  0  0  0
 12 95  1  0  0  0
 13 14  1  0  0  0
 13 31  1  0  0  0
 14 15  2  0  0  0
 14 96  1  0  0  0
 15 97  1  0  0  0
 16 17  2  0  0  0
 16 21  1  0  0  0
 16 31  1  0  0  0
 17 18  1  0  0  0
 17 98  1  0  0  0
 18 19  2  0  0  0
 18 99  1  0  0  0
 19 20  1  0  0  0
 19 24  1  0  0  0
 20 21  2  0  0  0
 20100  1  0  0  0
 21 23  1  0  0  0
 22 28  1  0  0  0
 22 32  2  0  0  0
 26 27  1  0  0  0
 28101  1  0  0  0
 28102  1  0  0  0
 29103  1  0  0  0
 29104  1  0  0  0
 33 34  1  0  0  0
 33 66  1  0  0  0
 33 70  2  0  0  0
 34 36  1  0  0  0
 34 59  1  0  0  0
 34105  1  0  0  0
 35 44  2  0  0  0
 35 45  1  0  0  0
 35 68  1  0  0  0
 36 56  1  0  0  0
 36106  1  0  0  0
 37 39  1  0  0  0
 37 47  1  0  0  0
 37 66  1  0  0  0
 37107  1  0  0  0
 38 43  2  0  0  0
 38 46  1  0  0  0
 38 47  1  0  0  0
 39 64  1  0  0  0
 39 67  2  0  0  0
 40 52  1  0  0  0
 40 53  2  0  0  0
 40 58  1  0  0  0
 41108  1  0  0  0
 41109  1  0  0  0
 41110  1  0  0  0
 41 48  1  0  0  0
 42 43  1  0  0  0
 42 66  1  0  0  0
 42111  1  0  0  0
 42112  1  0  0  0
 43 44  1  0  0  0
 44113  1  0  0  0
 45 46  2  0  0  0
 45114  1  0  0  0
 46115  1  0  0  0
 47116  1  0  0  0
 47117  1  0  0  0
 48 56  1  0  0  0
 48 65  1  0  0  0
 48118  1  0  0  0
 49 50  1  0  0  0
 49 53  1  0  0  0
 49 64  1  0  0  0
 49119  1  0  0  0
 50 51  1  0  0  0
 50120  1  0  0  0
 50121  1  0  0  0
 51 52  1  0  0  0
 51122  1  0  0  0
 51123  1  0  0  0
 52124  1  0  0  0
 52125  1  0  0  0
 53 54  1  0  0  0
 54 55  2  0  0  0
 54126  1  0  0  0
 55 57  1  0  0  0
 55127  1  0  0  0
 56 69  2  0  0  0
 57 58  2  0  0  0
 57128  1  0  0  0
 58129  1  0  0  0
 59 60  1  0  0  0
 59 61  1  0  0  0
 59 62  1  0  0  0
 60130  1  0  0  0
 60131  1  0  0  0
 60132  1  0  0  0
 61133  1  0  0  0
 61134  1  0  0  0
 61135  1  0  0  0
 62136  1  0  0  0
 62137  1  0  0  0
 62138  1  0  0  0
 63 65  1  0  0  0
 63139  1  0  0  0
 63140  1  0  0  0
 63141  1  0  0  0
 64142  1  0  0  0
 65143  1  0  0  0
 68 82  1  0  0  0
 71 73  2  0  0  0
 71 74  1  0  0  0
 71144  1  0  0  0
 72 73  1  0  0  0
 72 76  2  0  0  0
 72145  1  0  0  0
 73 79  1  0  0  0
 74 75  2  0  0  0
 74 77  1  0  0  0
 75 76  1  0  0  0
 75 83  1  0  0  0
 76 84  1  0  0  0
 77146  1  0  0  0
 77147  1  0  0  0
 77148  1  0  0  0
 78 83  1  0  0  0
 78149  1  0  0  0
 78150  1  0  0  0
 78151  1  0  0  0
 79 80  1  0  0  0
 79152  1  0  0  0
 79153  1  0  0  0
 80 81  1  0  0  0
 80154  1  0  0  0
 80155  1  0  0  0
 81 82  1  0  0  0
 81156  1  0  0  0
 81157  1  0  0  0
 82158  1  0  0  0
 82159  1  0  0  0
M  ISO  4   1 100  68 101  82 101  83 100
M  END
> <chiral flag>
0

> <version>
0

> <s_m_source_file>
/data/baiqing/PycharmProjects/Reinvent-master-3.2/result/LINK_invent/BTK/process_docking_weight1_custom_sum_contain_oxygen_bond_distance_aromatic_linkinvent_7_9_3/rearranged_h_0022.sdf

> <i_m_source_file_index>
23

> <r_mmod_Potential_Energy-OPLS-2005>
302.430816650391

> <r_mmod_Stretch_Energy-OPLS-2005>
80.3160247802734

> <r_mmod_Bend_Energy-OPLS-2005>
149.000305175781

> <r_mmod_Torsional_Energy-OPLS-2005>
312.40283203125

> <r_mmod_Improper_Torsional_Energy-OPLS-2005>
26.6356639862061

> <r_mmod_Van_der_Waal_Energy-OPLS-2005>
167.300582885742

> <r_mmod_Electrostatic_Energy-OPLS-2005>
-308.043334960938

> <r_mmod_Solvation_Energy-OPLS-2005>
-186.554290771484

> <b_mmod_Minimization_Converged-OPLS-2005>
0

> <r_mmod_RMS_Derivative-OPLS-2005>
3.02104735374451

$$$$
23
                    3D
 Structure written by MMmdl.
159167  0  0  1  0            999 V2000
  -30.6822  -14.4192   20.6471 C   0  0  0  0  0  0
  -30.4371  -12.3023   19.3961 C   0  0  0  0  0  0
  -29.4920  -12.5276   18.1964 C   0  0  0  0  0  0
  -28.0135  -12.3799   18.6113 C   0  0  0  0  0  0
  -27.6702  -13.1938   19.8854 C   0  0  2  0  0  0
  -28.7059  -12.9002   20.9922 C   0  0  0  0  0  0
  -25.2638  -13.8150   20.5685 C   0  0  0  0  0  0
  -24.1866  -13.0444   20.9176 C   0  0  0  0  0  0
  -24.6400  -11.6905   20.8738 C   0  0  0  0  0  0
  -23.9068  -10.4301   21.0422 C   0  0  0  0  0  0
  -24.3622   -9.4210   21.9194 C   0  0  0  0  0  0
  -23.6296   -8.2243   22.0751 C   0  0  0  0  0  0
  -22.4274   -8.0287   21.3545 C   0  0  0  0  0  0
  -21.9918   -9.0266   20.4649 C   0  0  0  0  0  0
  -22.7248  -10.2146   20.3064 C   0  0  0  0  0  0
  -21.6846   -6.0753   22.5289 C   0  0  0  0  0  0
  -21.4012   -6.5653   23.8226 C   0  0  0  0  0  0
  -21.3649   -5.6799   24.9184 C   0  0  0  0  0  0
  -21.6038   -4.3062   24.7234 C   0  0  0  0  0  0
  -21.8814   -3.8161   23.4353 C   0  0  0  0  0  0
  -21.9190   -4.6983   22.3412 C   0  0  0  0  0  0
  -22.7893  -13.5260   21.1844 C   0  0  0  0  0  0
  -22.1660   -4.2175   21.0989 F   0  0  0  0  0  0
  -21.5614   -3.4539   25.7741 F   0  0  0  0  0  0
  -30.0457  -13.2315   20.4656 N   0  0  0  0  0  0
  -26.3063  -12.9291   20.3395 N   0  0  0  0  0  0
  -25.9319  -11.6461   20.5760 N   0  0  0  0  0  0
  -22.0528  -12.8258   22.0403 N   0  0  0  0  0  0
  -25.4403  -15.1866   20.4117 N   0  0  0  0  0  0
  -31.7466  -14.7173   20.0945 O   0  0  0  0  0  0
  -21.6625   -6.8891   21.4247 O   0  0  0  0  0  0
  -22.3585  -14.5571   20.6700 O   0  0  0  0  0  0
  -24.6117  -31.8696   23.2086 C   0  0  0  0  0  0
  -25.9024  -32.4829   23.8378 C   0  0  1  0  0  0
  -27.2441  -27.4548   20.0825 C   0  0  0  0  0  0
  -25.5891  -33.8622   24.2324 N   0  0  0  0  0  0
  -23.3984  -30.4900   21.5491 C   0  0  2  0  0  0
  -24.8439  -28.9515   20.1163 C   0  0  0  0  0  0
  -22.7385  -29.4667   22.4997 C   0  0  0  0  0  0
  -18.0278  -28.1397   22.8504 C   0  0  0  0  0  0
  -24.1485  -36.7296   23.2638 C   0  0  0  0  0  0
  -25.9230  -30.8376   21.3581 C   0  0  0  0  0  0
  -25.9991  -29.4703   20.7109 C   0  0  0  0  0  0
  -27.1958  -28.7251   20.6960 C   0  0  0  0  0  0
  -26.0658  -26.9353   19.4967 C   0  0  0  0  0  0
  -24.8700  -27.6816   19.5112 C   0  0  0  0  0  0
  -23.6047  -29.8161   20.1650 C   0  0  0  0  0  0
  -25.4108  -36.3111   24.0346 C   0  0  1  0  0  0
  -20.5863  -28.3673   23.1337 C   0  0  2  0  0  0
  -20.6763  -26.9411   22.5431 C   0  0  0  0  0  0
  -19.5737  -26.6406   21.5229 C   0  0  0  0  0  0
  -18.1919  -26.7948   22.1637 C   0  0  0  0  0  0
  -19.1528  -28.8850   23.2920 C   0  0  0  0  0  0
  -18.9459  -30.1458   23.8929 C   0  0  0  0  0  0
  -17.6464  -30.6602   24.0579 C   0  0  0  0  0  0
  -25.9035  -34.9478   23.5123 C   0  0  0  0  0  0
  -16.5352  -29.9109   23.6334 C   0  0  0  0  0  0
  -16.7271  -28.6524   23.0355 C   0  0  0  0  0  0
  -26.4471  -31.6591   25.0689 C   0  0  0  0  0  0
  -25.3746  -31.3678   26.1434 C   0  0  0  0  0  0
  -27.0302  -30.3044   24.6028 C   0  0  0  0  0  0
  -27.6069  -32.4292   25.7445 C   0  0  0  0  0  0
  -27.5578  -37.1804   24.8473 C   0  0  0  0  0  0
  -21.4122  -29.3028   22.3724 N   0  0  0  0  0  0
  -26.4293  -37.3795   23.9416 N   0  0  0  0  0  0
  -24.6624  -31.0806   22.0974 N   0  0  0  0  0  0
  -23.4165  -28.8234   23.3058 O   0  0  0  0  0  0
  -28.4584  -26.8022   20.0817 O   0  0  0  0  0  0
  -26.5607  -34.8927   22.4694 O   0  0  0  0  0  0
  -23.5320  -32.1453   23.7488 O   0  0  0  0  0  0
  -29.6807  -18.8853   20.5849 C   0  0  0  0  0  0
  -29.8902  -19.4975   21.8410 C   0  0  0  0  0  0
  -30.2105  -18.6780   22.9577 C   0  0  0  0  0  0
  -30.0813  -16.6688   21.5416 C   0  0  0  0  0  0
  -29.7607  -17.4868   20.4295 C   0  0  0  0  0  0
  -30.2881  -17.2672   22.8057 C   0  0  0  0  0  0
  -30.4395  -19.3199   24.3252 C   0  0  0  0  0  0
  -29.7850  -21.0200   22.0139 C   0  0  0  0  0  0
  -29.0302  -21.8322   20.9347 C   0  0  0  0  0  0
  -29.0768  -23.3499   21.2548 C   0  0  0  0  0  0
  -28.1654  -24.2935   20.3993 C   0  0  0  0  0  0
  -28.6105  -25.4979   19.5021 C   0  0  0  0  0  0
  -30.0348  -15.2490   21.4768 N   0  0  0  0  0  0
  -29.3557  -16.8194   18.8841 Cl  0  0  0  0  0  0
  -30.5994  -16.2444   24.1734 Cl  0  0  0  0  0  0
  -31.4761  -12.4397   19.0890 H   0  0  0  0  0  0
  -30.3646  -11.2742   19.7530 H   0  0  0  0  0  0
  -29.7272  -11.8236   17.3963 H   0  0  0  0  0  0
  -29.6540  -13.5256   17.7851 H   0  0  0  0  0  0
  -27.8216  -11.3213   18.7882 H   0  0  0  0  0  0
  -27.3574  -12.6753   17.7914 H   0  0  0  0  0  0
  -27.7382  -14.2504   19.6241 H   0  0  0  0  0  0
  -28.6760  -11.8431   21.2584 H   0  0  0  0  0  0
  -28.4472  -13.4206   21.9152 H   0  0  0  0  0  0
  -25.2773   -9.5674   22.4768 H   0  0  0  0  0  0
  -24.0002   -7.4628   22.7462 H   0  0  0  0  0  0
  -21.0844   -8.8798   19.8962 H   0  0  0  0  0  0
  -22.3718  -10.9687   19.6172 H   0  0  0  0  0  0
  -21.2007   -7.6161   23.9744 H   0  0  0  0  0  0
  -21.1467   -6.0526   25.9090 H   0  0  0  0  0  0
  -22.0601   -2.7627   23.2847 H   0  0  0  0  0  0
  -22.4124  -11.9909   22.4788 H   0  0  0  0  0  0
  -21.1154  -13.1301   22.2612 H   0  0  0  0  0  0
  -24.6811  -15.8486   20.5291 H   0  0  0  0  0  0
  -26.3001  -15.6218   20.1008 H   0  0  0  0  0  0
  -26.7086  -32.5558   23.1140 H   0  0  0  0  0  0
  -25.0052  -33.9786   25.0474 H   0  0  0  0  0  0
  -22.6865  -31.3060   21.4086 H   0  0  0  0  0  0
  -23.3755  -35.9620   23.3318 H   0  0  0  0  0  0
  -24.3565  -36.8889   22.2046 H   0  0  0  0  0  0
  -23.7231  -37.6502   23.6637 H   0  0  0  0  0  0
  -26.0315  -31.5998   20.5852 H   0  0  0  0  0  0
  -26.8134  -30.8960   21.9725 H   0  0  0  0  0  0
  -28.0908  -29.1262   21.1517 H   0  0  0  0  0  0
  -26.0533  -25.9653   19.0224 H   0  0  0  0  0  0
  -23.9787  -27.2751   19.0538 H   0  0  0  0  0  0
  -23.7093  -30.5889   19.4025 H   0  0  0  0  0  0
  -22.7305  -29.2322   19.8716 H   0  0  0  0  0  0
  -25.1285  -36.1978   25.0840 H   0  0  0  0  0  0
  -20.9976  -28.3255   24.1451 H   0  0  0  0  0  0
  -20.5693  -26.2275   23.3613 H   0  0  0  0  0  0
  -21.6627  -26.7474   22.1201 H   0  0  0  0  0  0
  -19.6888  -25.6330   21.1227 H   0  0  0  0  0  0
  -19.6675  -27.3243   20.6780 H   0  0  0  0  0  0
  -17.4188  -26.6727   21.4031 H   0  0  0  0  0  0
  -18.0302  -26.0093   22.9032 H   0  0  0  0  0  0
  -19.7938  -30.7272   24.2300 H   0  0  0  0  0  0
  -17.5025  -31.6288   24.5181 H   0  0  0  0  0  0
  -15.5356  -30.3028   23.7638 H   0  0  0  0  0  0
  -15.8668  -28.0855   22.7053 H   0  0  0  0  0  0
  -24.5934  -30.7010   25.7758 H   0  0  0  0  0  0
  -24.8914  -32.2822   26.4884 H   0  0  0  0  0  0
  -25.8104  -30.8845   27.0187 H   0  0  0  0  0  0
  -26.2827  -29.6794   24.1129 H   0  0  0  0  0  0
  -27.4149  -29.7279   25.4451 H   0  0  0  0  0  0
  -27.8620  -30.4373   23.9109 H   0  0  0  0  0  0
  -27.2721  -33.3589   26.2051 H   0  0  0  0  0  0
  -28.3871  -32.6850   25.0264 H   0  0  0  0  0  0
  -28.0746  -31.8392   26.5334 H   0  0  0  0  0  0
  -28.2628  -38.0077   24.7521 H   0  0  0  0  0  0
  -28.1047  -36.2614   24.6313 H   0  0  0  0  0  0
  -27.2291  -37.1473   25.8875 H   0  0  0  0  0  0
  -20.9279  -29.8717   21.6912 H   0  0  0  0  0  0
  -26.0184  -38.2869   24.1423 H   0  0  0  0  0  0
  -29.4255  -19.4757   19.7186 H   0  0  0  0  0  0
  -30.9256  -18.6633   25.0435 H   0  0  0  0  0  0
  -29.4866  -19.6285   24.7539 H   0  0  0  0  0  0
  -31.0771  -20.2004   24.2422 H   0  0  0  0  0  0
  -30.7971  -21.4127   22.1192 H   0  0  0  0  0  0
  -29.2798  -21.2165   22.9596 H   0  0  0  0  0  0
  -27.9937  -21.4974   20.8760 H   0  0  0  0  0  0
  -29.4768  -21.6597   19.9557 H   0  0  0  0  0  0
  -30.1191  -23.6750   21.1888 H   0  0  0  0  0  0
  -28.8112  -23.4460   22.3132 H   0  0  0  0  0  0
  -28.5928  -23.7356   19.5658 H   0  0  0  0  0  0
  -28.5031  -24.9786   21.1763 H   0  0  0  0  0  0
  -29.6805  -25.4183   19.2894 H   0  0  0  0  0  0
  -28.1359  -25.4674   18.5181 H   0  0  0  0  0  0
  -29.3163  -14.8205   22.0379 H   0  0  0  0  0  0
  1 25  1  0  0  0
  1 30  2  0  0  0
  1 83  1  0  0  0
  2  3  1  0  0  0
  2 25  1  0  0  0
  2 86  1  0  0  0
  2 87  1  0  0  0
  3  4  1  0  0  0
  3 88  1  0  0  0
  3 89  1  0  0  0
  4  5  1  0  0  0
  4 90  1  0  0  0
  4 91  1  0  0  0
  5  6  1  0  0  0
  5 26  1  0  0  0
  5 92  1  0  0  0
  6 25  1  0  0  0
  6 93  1  0  0  0
  6 94  1  0  0  0
  7  8  2  0  0  0
  7 26  1  0  0  0
  7 29  1  0  0  0
  8  9  1  0  0  0
  8 22  1  0  0  0
  9 10  1  0  0  0
  9 27  2  0  0  0
 10 11  2  0  0  0
 10 15  1  0  0  0
 11 12  1  0  0  0
 11 95  1  0  0  0
 12 13  2  0  0  0
 12 96  1  0  0  0
 13 14  1  0  0  0
 13 31  1  0  0  0
 14 15  2  0  0  0
 14 97  1  0  0  0
 15 98  1  0  0  0
 16 17  2  0  0  0
 16 21  1  0  0  0
 16 31  1  0  0  0
 17 18  1  0  0  0
 17 99  1  0  0  0
 18 19  2  0  0  0
 18100  1  0  0  0
 19 20  1  0  0  0
 19 24  1  0  0  0
 20 21  2  0  0  0
 20101  1  0  0  0
 21 23  1  0  0  0
 22 28  1  0  0  0
 22 32  2  0  0  0
 26 27  1  0  0  0
 28102  1  0  0  0
 28103  1  0  0  0
 29104  1  0  0  0
 29105  1  0  0  0
 33 34  1  0  0  0
 33 66  1  0  0  0
 33 70  2  0  0  0
 34 36  1  0  0  0
 34 59  1  0  0  0
 34106  1  0  0  0
 35 44  2  0  0  0
 35 45  1  0  0  0
 35 68  1  0  0  0
 36 56  1  0  0  0
 36107  1  0  0  0
 37 39  1  0  0  0
 37 47  1  0  0  0
 37 66  1  0  0  0
 37108  1  0  0  0
 38 43  2  0  0  0
 38 46  1  0  0  0
 38 47  1  0  0  0
 39 64  1  0  0  0
 39 67  2  0  0  0
 40 52  1  0  0  0
 40 53  2  0  0  0
 40 58  1  0  0  0
 41109  1  0  0  0
 41110  1  0  0  0
 41111  1  0  0  0
 41 48  1  0  0  0
 42 43  1  0  0  0
 42 66  1  0  0  0
 42112  1  0  0  0
 42113  1  0  0  0
 43 44  1  0  0  0
 44114  1  0  0  0
 45 46  2  0  0  0
 45115  1  0  0  0
 46116  1  0  0  0
 47117  1  0  0  0
 47118  1  0  0  0
 48 56  1  0  0  0
 48 65  1  0  0  0
 48119  1  0  0  0
 49 50  1  0  0  0
 49 53  1  0  0  0
 49 64  1  0  0  0
 49120  1  0  0  0
 50 51  1  0  0  0
 50121  1  0  0  0
 50122  1  0  0  0
 51 52  1  0  0  0
 51123  1  0  0  0
 51124  1  0  0  0
 52125  1  0  0  0
 52126  1  0  0  0
 53 54  1  0  0  0
 54 55  2  0  0  0
 54127  1  0  0  0
 55 57  1  0  0  0
 55128  1  0  0  0
 56 69  2  0  0  0
 57 58  2  0  0  0
 57129  1  0  0  0
 58130  1  0  0  0
 59 60  1  0  0  0
 59 61  1  0  0  0
 59 62  1  0  0  0
 60131  1  0  0  0
 60132  1  0  0  0
 60133  1  0  0  0
 61134  1  0  0  0
 61135  1  0  0  0
 61136  1  0  0  0
 62137  1  0  0  0
 62138  1  0  0  0
 62139  1  0  0  0
 63 65  1  0  0  0
 63140  1  0  0  0
 63141  1  0  0  0
 63142  1  0  0  0
 64143  1  0  0  0
 65144  1  0  0  0
 68 82  1  0  0  0
 71 72  2  0  0  0
 71 75  1  0  0  0
 71145  1  0  0  0
 72 73  1  0  0  0
 72 78  1  0  0  0
 73 76  2  0  0  0
 73 77  1  0  0  0
 74 75  2  0  0  0
 74 76  1  0  0  0
 74 83  1  0  0  0
 75 84  1  0  0  0
 76 85  1  0  0  0
 77146  1  0  0  0
 77147  1  0  0  0
 77148  1  0  0  0
 78 79  1  0  0  0
 78149  1  0  0  0
 78150  1  0  0  0
 79 80  1  0  0  0
 79151  1  0  0  0
 79152  1  0  0  0
 80 81  1  0  0  0
 80153  1  0  0  0
 80154  1  0  0  0
 81 82  1  0  0  0
 81155  1  0  0  0
 81156  1  0  0  0
 82157  1  0  0  0
 82158  1  0  0  0
 83159  1  0  0  0
M  ISO  4   1 100  68 101  82 101  83 100
M  END
> <chiral flag>
0

> <version>
0

> <s_m_source_file>
/data/baiqing/PycharmProjects/Reinvent-master-3.2/result/LINK_invent/BTK/process_docking_weight1_custom_sum_contain_oxygen_bond_distance_aromatic_linkinvent_7_9_3/rearranged_h_0022.sdf

> <i_m_source_file_index>
24

> <r_mmod_Potential_Energy-OPLS-2005>
181.776885986328

> <r_mmod_Stretch_Energy-OPLS-2005>
39.7897605895996

> <r_mmod_Bend_Energy-OPLS-2005>
335.265319824219

> <r_mmod_Torsional_Energy-OPLS-2005>
227.78840637207

> <r_mmod_Improper_Torsional_Energy-OPLS-2005>
3.18587970733643

> <r_mmod_Van_der_Waal_Energy-OPLS-2005>
180.507675170898

> <r_mmod_Electrostatic_Energy-OPLS-2005>
-418.497039794922

> <r_mmod_Solvation_Energy-OPLS-2005>
-196.290100097656

> <b_mmod_Minimization_Converged-OPLS-2005>
0

> <r_mmod_RMS_Derivative-OPLS-2005>
1.67276871204376

$$$$
24
                    3D
 Structure written by MMmdl.
170178  0  0  1  0            999 V2000
  -30.8737  -14.2025   20.7854 C   0  0  0  0  0  0
  -30.3966  -12.2802   19.3431 C   0  0  0  0  0  0
  -29.4526  -12.5322   18.1615 C   0  0  0  0  0  0
  -27.9866  -12.3851   18.5972 C   0  0  0  0  0  0
  -27.6603  -13.2065   19.8709 C   0  0  2  0  0  0
  -28.7014  -12.9603   20.9844 C   0  0  0  0  0  0
  -25.2571  -13.8180   20.5697 C   0  0  0  0  0  0
  -24.1828  -13.0458   20.9188 C   0  0  0  0  0  0
  -24.6393  -11.6921   20.8750 C   0  0  0  0  0  0
  -23.9060  -10.4310   21.0424 C   0  0  0  0  0  0
  -24.3608   -9.4221   21.9208 C   0  0  0  0  0  0
  -23.6287   -8.2244   22.0767 C   0  0  0  0  0  0
  -22.4278   -8.0287   21.3546 C   0  0  0  0  0  0
  -21.9904   -9.0254   20.4647 C   0  0  0  0  0  0
  -22.7235  -10.2143   20.3070 C   0  0  0  0  0  0
  -21.6842   -6.0741   22.5273 C   0  0  0  0  0  0
  -21.4016   -6.5640   23.8211 C   0  0  0  0  0  0
  -21.3650   -5.6798   24.9170 C   0  0  0  0  0  0
  -21.6039   -4.3055   24.7228 C   0  0  0  0  0  0
  -21.8816   -3.8157   23.4350 C   0  0  0  0  0  0
  -21.9196   -4.6963   22.3406 C   0  0  0  0  0  0
  -22.7850  -13.5244   21.1837 C   0  0  0  0  0  0
  -22.1660   -4.2160   21.0980 F   0  0  0  0  0  0
  -21.5623   -3.4541   25.7736 F   0  0  0  0  0  0
  -30.0495  -13.1912   20.4384 N   0  0  0  0  0  0
  -26.3022  -12.9368   20.3377 N   0  0  0  0  0  0
  -25.9316  -11.6525   20.5752 N   0  0  0  0  0  0
  -22.0463  -12.8250   22.0380 N   0  0  0  0  0  0
  -25.4310  -15.1900   20.4108 N   0  0  0  0  0  0
  -31.7442  -14.6686   20.0440 O   0  0  0  0  0  0
  -21.6636   -6.8879   21.4241 O   0  0  0  0  0  0
  -22.3549  -14.5559   20.6679 O   0  0  0  0  0  0
  -24.6125  -31.8717   23.2153 C   0  0  0  0  0  0
  -25.9041  -32.4844   23.8439 C   0  0  1  0  0  0
  -27.2442  -27.4873   20.0661 C   0  0  0  0  0  0
  -25.5942  -33.8634   24.2397 N   0  0  0  0  0  0
  -23.3979  -30.4944   21.5549 C   0  0  2  0  0  0
  -24.8440  -28.9707   20.1136 C   0  0  0  0  0  0
  -22.7400  -29.4664   22.5034 C   0  0  0  0  0  0
  -18.0275  -28.1368   22.8498 C   0  0  0  0  0  0
  -24.1484  -36.7303   23.2646 C   0  0  0  0  0  0
  -25.9184  -30.8629   21.3504 C   0  0  0  0  0  0
  -26.0025  -29.4990   20.6949 C   0  0  0  0  0  0
  -27.2072  -28.7684   20.6677 C   0  0  0  0  0  0
  -26.0690  -26.9675   19.4899 C   0  0  0  0  0  0
  -24.8676  -27.6975   19.5170 C   0  0  0  0  0  0
  -23.6027  -29.8296   20.1670 C   0  0  0  0  0  0
  -25.4094  -36.3112   24.0367 C   0  0  1  0  0  0
  -20.5865  -28.3634   23.1369 C   0  0  2  0  0  0
  -20.6755  -26.9381   22.5433 C   0  0  0  0  0  0
  -19.5736  -26.6399   21.5217 C   0  0  0  0  0  0
  -18.1905  -26.7919   22.1622 C   0  0  0  0  0  0
  -19.1523  -28.8817   23.2928 C   0  0  0  0  0  0
  -18.9434  -30.1410   23.8956 C   0  0  0  0  0  0
  -17.6430  -30.6558   24.0572 C   0  0  0  0  0  0
  -25.9034  -34.9485   23.5167 C   0  0  0  0  0  0
  -16.5330  -29.9069   23.6311 C   0  0  0  0  0  0
  -16.7270  -28.6493   23.0335 C   0  0  0  0  0  0
  -26.4480  -31.6582   25.0728 C   0  0  0  0  0  0
  -25.3737  -31.3629   26.1459 C   0  0  0  0  0  0
  -27.0336  -30.3070   24.5991 C   0  0  0  0  0  0
  -27.6079  -32.4263   25.7496 C   0  0  0  0  0  0
  -27.5566  -37.1791   24.8469 C   0  0  0  0  0  0
  -21.4140  -29.3002   22.3762 N   0  0  0  0  0  0
  -26.4283  -37.3787   23.9437 N   0  0  0  0  0  0
  -24.6615  -31.0877   22.1012 N   0  0  0  0  0  0
  -23.4179  -28.8228   23.3079 O   0  0  0  0  0  0
  -28.3518  -26.6680   20.0298 O   0  0  0  0  0  0
  -26.5546  -34.8920   22.4687 O   0  0  0  0  0  0
  -23.5342  -32.1478   23.7601 O   0  0  0  0  0  0
  -31.0629  -25.1229   21.8670 C   0  0  0  0  0  0
  -29.7046  -25.4800   21.6975 C   0  0  0  0  0  0
  -28.7024  -24.6295   22.2515 C   0  0  0  0  0  0
  -30.4450  -23.1287   23.1261 C   0  0  0  0  0  0
  -31.4391  -23.9762   22.5797 C   0  0  0  0  0  0
  -29.0822  -23.4563   22.9472 C   0  0  0  0  0  0
  -27.2152  -24.9513   22.1235 C   0  0  0  0  0  0
  -30.5039  -27.5626   20.3498 C   0  0  0  0  0  0
  -32.1606  -18.5519   23.1372 C   0  0  0  0  0  0
  -31.6131  -17.1302   23.2301 C   0  0  0  0  0  0
  -31.1003  -19.5825   23.5104 C   0  0  0  0  0  0
  -32.6263  -16.1064   22.7213 C   0  0  0  0  0  0
  -31.5845  -20.9938   23.1982 C   0  0  0  0  0  0
  -32.1218  -14.6671   22.8758 C   0  0  0  0  0  0
  -29.3459  -26.8205   21.0386 C   0  0  1  0  0  0
  -30.7442  -21.9731   23.8615 N   0  0  0  0  0  0
  -30.9084  -14.3793   22.1121 N   0  0  0  0  0  0
  -33.1325  -23.6908   22.8077 Cl  0  0  0  0  0  0
  -27.8784  -22.3898   23.6083 Cl  0  0  0  0  0  0
  -31.4326  -12.3961   19.0186 H   0  0  0  0  0  0
  -30.3080  -11.2490   19.6907 H   0  0  0  0  0  0
  -29.6703  -11.8301   17.3546 H   0  0  0  0  0  0
  -29.6208  -13.5312   17.7553 H   0  0  0  0  0  0
  -27.7868  -11.3274   18.7702 H   0  0  0  0  0  0
  -27.3268  -12.6864   17.7822 H   0  0  0  0  0  0
  -27.7176  -14.2598   19.5960 H   0  0  0  0  0  0
  -28.6345  -11.9332   21.3495 H   0  0  0  0  0  0
  -28.4739  -13.6049   21.8352 H   0  0  0  0  0  0
  -25.2746   -9.5696   22.4798 H   0  0  0  0  0  0
  -23.9988   -7.4644   22.7493 H   0  0  0  0  0  0
  -21.0841   -8.8788   19.8956 H   0  0  0  0  0  0
  -22.3700  -10.9690   19.6185 H   0  0  0  0  0  0
  -21.2004   -7.6152   23.9721 H   0  0  0  0  0  0
  -21.1468   -6.0521   25.9071 H   0  0  0  0  0  0
  -22.0599   -2.7619   23.2845 H   0  0  0  0  0  0
  -22.4027  -11.9898   22.4781 H   0  0  0  0  0  0
  -21.1090  -13.1308   22.2556 H   0  0  0  0  0  0
  -24.6740  -15.8520   20.5444 H   0  0  0  0  0  0
  -26.2900  -15.6293   20.1072 H   0  0  0  0  0  0
  -26.7115  -32.5616   23.1230 H   0  0  0  0  0  0
  -25.0125  -33.9770   25.0562 H   0  0  0  0  0  0
  -22.6861  -31.3090   21.4156 H   0  0  0  0  0  0
  -23.3760  -35.9617   23.3313 H   0  0  0  0  0  0
  -24.3578  -36.8896   22.2054 H   0  0  0  0  0  0
  -23.7202  -37.6498   23.6651 H   0  0  0  0  0  0
  -26.0027  -31.6384   20.5881 H   0  0  0  0  0  0
  -26.8169  -30.9337   21.9532 H   0  0  0  0  0  0
  -28.0906  -29.2067   21.1050 H   0  0  0  0  0  0
  -26.0845  -25.9817   19.0447 H   0  0  0  0  0  0
  -23.9728  -27.2718   19.0857 H   0  0  0  0  0  0
  -23.7080  -30.6103   19.4124 H   0  0  0  0  0  0
  -22.7277  -29.2495   19.8691 H   0  0  0  0  0  0
  -25.1246  -36.1977   25.0859 H   0  0  0  0  0  0
  -20.9959  -28.3189   24.1494 H   0  0  0  0  0  0
  -20.5699  -26.2232   23.3601 H   0  0  0  0  0  0
  -21.6608  -26.7446   22.1187 H   0  0  0  0  0  0
  -19.6930  -25.6335   21.1182 H   0  0  0  0  0  0
  -19.6689  -27.3258   20.6771 H   0  0  0  0  0  0
  -17.4178  -26.6717   21.4002 H   0  0  0  0  0  0
  -18.0282  -26.0044   22.9010 H   0  0  0  0  0  0
  -19.7904  -30.7195   24.2400 H   0  0  0  0  0  0
  -17.4981  -31.6248   24.5146 H   0  0  0  0  0  0
  -15.5336  -30.2969   23.7601 H   0  0  0  0  0  0
  -15.8680  -28.0815   22.7031 H   0  0  0  0  0  0
  -24.5991  -30.6899   25.7776 H   0  0  0  0  0  0
  -24.8817  -32.2746   26.4859 H   0  0  0  0  0  0
  -25.8079  -30.8850   27.0241 H   0  0  0  0  0  0
  -26.2868  -29.6830   24.1068 H   0  0  0  0  0  0
  -27.4228  -29.7290   25.4379 H   0  0  0  0  0  0
  -27.8636  -30.4484   23.9052 H   0  0  0  0  0  0
  -27.2763  -33.3637   26.1971 H   0  0  0  0  0  0
  -28.3950  -32.6656   25.0333 H   0  0  0  0  0  0
  -28.0651  -31.8399   26.5482 H   0  0  0  0  0  0
  -28.2553  -38.0105   24.7514 H   0  0  0  0  0  0
  -28.1068  -36.2637   24.6279 H   0  0  0  0  0  0
  -27.2287  -37.1391   25.8863 H   0  0  0  0  0  0
  -20.9317  -29.8681   21.6943 H   0  0  0  0  0  0
  -26.0198  -38.2874   24.1433 H   0  0  0  0  0  0
  -31.8607  -25.7375   21.4802 H   0  0  0  0  0  0
  -26.6215  -24.5515   22.9436 H   0  0  0  0  0  0
  -26.8207  -24.5420   21.1917 H   0  0  0  0  0  0
  -27.0221  -26.0175   22.1526 H   0  0  0  0  0  0
  -31.3132  -27.7940   21.0412 H   0  0  0  0  0  0
  -30.1635  -28.5103   19.9345 H   0  0  0  0  0  0
  -30.9069  -26.9783   19.5220 H   0  0  0  0  0  0
  -32.5163  -18.7401   22.1228 H   0  0  0  0  0  0
  -33.0218  -18.6612   23.7997 H   0  0  0  0  0  0
  -30.7006  -17.0557   22.6387 H   0  0  0  0  0  0
  -31.3393  -16.9068   24.2629 H   0  0  0  0  0  0
  -30.8644  -19.4826   24.5711 H   0  0  0  0  0  0
  -30.1743  -19.3895   22.9638 H   0  0  0  0  0  0
  -33.5631  -16.2103   23.2699 H   0  0  0  0  0  0
  -32.8710  -16.3154   21.6783 H   0  0  0  0  0  0
  -31.5790  -21.1420   22.1173 H   0  0  0  0  0  0
  -32.6156  -21.1135   23.5343 H   0  0  0  0  0  0
  -31.9202  -14.4615   23.9285 H   0  0  0  0  0  0
  -32.9041  -13.9658   22.5776 H   0  0  0  0  0  0
  -28.9964  -27.4196   21.8797 H   0  0  0  0  0  0
  -29.8925  -21.5683   24.2410 H   0  0  0  0  0  0
  -30.1597  -13.9367   22.6237 H   0  0  0  0  0  0
  1 25  1  0  0  0
  1 30  2  0  0  0
  1 87  1  0  0  0
  2  3  1  0  0  0
  2 25  1  0  0  0
  2 90  1  0  0  0
  2 91  1  0  0  0
  3  4  1  0  0  0
  3 92  1  0  0  0
  3 93  1  0  0  0
  4  5  1  0  0  0
  4 94  1  0  0  0
  4 95  1  0  0  0
  5  6  1  0  0  0
  5 26  1  0  0  0
  5 96  1  0  0  0
  6 25  1  0  0  0
  6 97  1  0  0  0
  6 98  1  0  0  0
  7  8  2  0  0  0
  7 26  1  0  0  0
  7 29  1  0  0  0
  8  9  1  0  0  0
  8 22  1  0  0  0
  9 10  1  0  0  0
  9 27  2  0  0  0
 10 11  2  0  0  0
 10 15  1  0  0  0
 11 12  1  0  0  0
 11 99  1  0  0  0
 12 13  2  0  0  0
 12100  1  0  0  0
 13 14  1  0  0  0
 13 31  1  0  0  0
 14 15  2  0  0  0
 14101  1  0  0  0
 15102  1  0  0  0
 16 17  2  0  0  0
 16 21  1  0  0  0
 16 31  1  0  0  0
 17 18  1  0  0  0
 17103  1  0  0  0
 18 19  2  0  0  0
 18104  1  0  0  0
 19 20  1  0  0  0
 19 24  1  0  0  0
 20 21  2  0  0  0
 20105  1  0  0  0
 21 23  1  0  0  0
 22 28  1  0  0  0
 22 32  2  0  0  0
 26 27  1  0  0  0
 28106  1  0  0  0
 28107  1  0  0  0
 29108  1  0  0  0
 29109  1  0  0  0
 33 34  1  0  0  0
 33 66  1  0  0  0
 33 70  2  0  0  0
 34 36  1  0  0  0
 34 59  1  0  0  0
 34110  1  0  0  0
 35 44  2  0  0  0
 35 45  1  0  0  0
 35 68  1  0  0  0
 36 56  1  0  0  0
 36111  1  0  0  0
 37 39  1  0  0  0
 37 47  1  0  0  0
 37 66  1  0  0  0
 37112  1  0  0  0
 38 43  2  0  0  0
 38 46  1  0  0  0
 38 47  1  0  0  0
 39 64  1  0  0  0
 39 67  2  0  0  0
 40 52  1  0  0  0
 40 53  2  0  0  0
 40 58  1  0  0  0
 41113  1  0  0  0
 41114  1  0  0  0
 41115  1  0  0  0
 41 48  1  0  0  0
 42 43  1  0  0  0
 42 66  1  0  0  0
 42116  1  0  0  0
 42117  1  0  0  0
 43 44  1  0  0  0
 44118  1  0  0  0
 45 46  2  0  0  0
 45119  1  0  0  0
 46120  1  0  0  0
 47121  1  0  0  0
 47122  1  0  0  0
 48 56  1  0  0  0
 48 65  1  0  0  0
 48123  1  0  0  0
 49 50  1  0  0  0
 49 53  1  0  0  0
 49 64  1  0  0  0
 49124  1  0  0  0
 50 51  1  0  0  0
 50125  1  0  0  0
 50126  1  0  0  0
 51 52  1  0  0  0
 51127  1  0  0  0
 51128  1  0  0  0
 52129  1  0  0  0
 52130  1  0  0  0
 53 54  1  0  0  0
 54 55  2  0  0  0
 54131  1  0  0  0
 55 57  1  0  0  0
 55132  1  0  0  0
 56 69  2  0  0  0
 57 58  2  0  0  0
 57133  1  0  0  0
 58134  1  0  0  0
 59 60  1  0  0  0
 59 61  1  0  0  0
 59 62  1  0  0  0
 60135  1  0  0  0
 60136  1  0  0  0
 60137  1  0  0  0
 61138  1  0  0  0
 61139  1  0  0  0
 61140  1  0  0  0
 62141  1  0  0  0
 62142  1  0  0  0
 62143  1  0  0  0
 63 65  1  0  0  0
 63144  1  0  0  0
 63145  1  0  0  0
 63146  1  0  0  0
 64147  1  0  0  0
 65148  1  0  0  0
 68 85  1  0  0  0
 71 72  2  0  0  0
 71 75  1  0  0  0
 71149  1  0  0  0
 72 73  1  0  0  0
 72 85  1  0  0  0
 73 76  2  0  0  0
 73 77  1  0  0  0
 74 75  2  0  0  0
 74 76  1  0  0  0
 74 86  1  0  0  0
 75 88  1  0  0  0
 76 89  1  0  0  0
 77150  1  0  0  0
 77151  1  0  0  0
 77152  1  0  0  0
 78153  1  0  0  0
 78154  1  0  0  0
 78155  1  0  0  0
 78 85  1  0  0  0
 79 80  1  0  0  0
 79 81  1  0  0  0
 79156  1  0  0  0
 79157  1  0  0  0
 80 82  1  0  0  0
 80158  1  0  0  0
 80159  1  0  0  0
 81 83  1  0  0  0
 81160  1  0  0  0
 81161  1  0  0  0
 82 84  1  0  0  0
 82162  1  0  0  0
 82163  1  0  0  0
 83 86  1  0  0  0
 83164  1  0  0  0
 83165  1  0  0  0
 84 87  1  0  0  0
 84166  1  0  0  0
 84167  1  0  0  0
 85168  1  0  0  0
 86169  1  0  0  0
 87170  1  0  0  0
M  ISO  4   1 100  68 101  85 101  87 100
M  END
> <chiral flag>
0

> <version>
0

> <s_m_source_file>
/data/baiqing/PycharmProjects/Reinvent-master-3.2/result/LINK_invent/BTK/process_docking_weight1_custom_sum_contain_oxygen_bond_distance_aromatic_linkinvent_7_9_3/rearranged_h_0022.sdf

> <i_m_source_file_index>
25

> <r_mmod_Potential_Energy-OPLS-2005>
3.59606170654297

> <r_mmod_Stretch_Energy-OPLS-2005>
33.2226371765137

> <r_mmod_Bend_Energy-OPLS-2005>
100.086845397949

> <r_mmod_Torsional_Energy-OPLS-2005>
235.781860351562

> <r_mmod_Improper_Torsional_Energy-OPLS-2005>
16.0044097900391

> <r_mmod_Van_der_Waal_Energy-OPLS-2005>
172.791427612305

> <r_mmod_Electrostatic_Energy-OPLS-2005>
-366.624847412109

> <r_mmod_Solvation_Energy-OPLS-2005>
-200.176773071289

> <b_mmod_Minimization_Converged-OPLS-2005>
0

> <r_mmod_RMS_Derivative-OPLS-2005>
3.88296484947205

$$$$
25
                    3D
 Structure written by MMmdl.
159167  0  0  1  0            999 V2000
  -30.5948  -14.6639   20.4849 C   0  0  0  0  0  0
  -30.4418  -12.3993   19.4653 C   0  0  0  0  0  0
  -29.5168  -12.4973   18.2317 C   0  0  0  0  0  0
  -28.0340  -12.3472   18.6368 C   0  0  0  0  0  0
  -27.6523  -13.2182   19.8639 C   0  0  2  0  0  0
  -28.6950  -13.0739   20.9945 C   0  0  0  0  0  0
  -25.2536  -13.8165   20.5702 C   0  0  0  0  0  0
  -24.1814  -13.0445   20.9210 C   0  0  0  0  0  0
  -24.6383  -11.6916   20.8735 C   0  0  0  0  0  0
  -23.9060  -10.4297   21.0413 C   0  0  0  0  0  0
  -24.3614   -9.4194   21.9166 C   0  0  0  0  0  0
  -23.6284   -8.2240   22.0740 C   0  0  0  0  0  0
  -22.4246   -8.0285   21.3568 C   0  0  0  0  0  0
  -21.9883   -9.0269   20.4679 C   0  0  0  0  0  0
  -22.7230  -10.2135   20.3075 C   0  0  0  0  0  0
  -21.6853   -6.0715   22.5261 C   0  0  0  0  0  0
  -21.4032   -6.5628   23.8196 C   0  0  0  0  0  0
  -21.3656   -5.6787   24.9160 C   0  0  0  0  0  0
  -21.6036   -4.3046   24.7222 C   0  0  0  0  0  0
  -21.8815   -3.8134   23.4356 C   0  0  0  0  0  0
  -21.9203   -4.6954   22.3395 C   0  0  0  0  0  0
  -22.7841  -13.5239   21.1868 C   0  0  0  0  0  0
  -22.1655   -4.2137   21.0974 F   0  0  0  0  0  0
  -21.5619   -3.4531   25.7735 F   0  0  0  0  0  0
  -30.0118  -13.4246   20.4346 N   0  0  0  0  0  0
  -26.2961  -12.9349   20.3304 N   0  0  0  0  0  0
  -25.9302  -11.6500   20.5741 N   0  0  0  0  0  0
  -22.0523  -12.8234   22.0478 N   0  0  0  0  0  0
  -25.4228  -15.1882   20.4069 N   0  0  0  0  0  0
  -31.7458  -14.8506   20.0807 O   0  0  0  0  0  0
  -21.6638   -6.8872   21.4227 O   0  0  0  0  0  0
  -22.3518  -14.5535   20.6716 O   0  0  0  0  0  0
  -24.6256  -31.8584   23.2004 C   0  0  0  0  0  0
  -25.9104  -32.4760   23.8325 C   0  0  1  0  0  0
  -27.2366  -27.3226   20.1179 C   0  0  0  0  0  0
  -25.5913  -33.8549   24.2249 N   0  0  0  0  0  0
  -23.4187  -30.4781   21.5431 C   0  0  2  0  0  0
  -24.8679  -28.9202   20.1209 C   0  0  0  0  0  0
  -22.7455  -29.4603   22.4946 C   0  0  0  0  0  0
  -18.0299  -28.1400   22.8465 C   0  0  0  0  0  0
  -24.1481  -36.7278   23.2640 C   0  0  0  0  0  0
  -25.9587  -30.7856   21.3733 C   0  0  0  0  0  0
  -26.0360  -29.4116   20.7193 C   0  0  0  0  0  0
  -27.2240  -28.6242   20.7049 C   0  0  0  0  0  0
  -26.0454  -26.8682   19.5157 C   0  0  0  0  0  0
  -24.8728  -27.6517   19.5149 C   0  0  0  0  0  0
  -23.6353  -29.8023   20.1621 C   0  0  0  0  0  0
  -25.4105  -36.3050   24.0319 C   0  0  1  0  0  0
  -20.5881  -28.3687   23.1286 C   0  0  2  0  0  0
  -20.6773  -26.9403   22.5433 C   0  0  0  0  0  0
  -19.5778  -26.6397   21.5201 C   0  0  0  0  0  0
  -18.1941  -26.7950   22.1579 C   0  0  0  0  0  0
  -19.1543  -28.8861   23.2874 C   0  0  0  0  0  0
  -18.9475  -30.1451   23.8917 C   0  0  0  0  0  0
  -17.6476  -30.6581   24.0589 C   0  0  0  0  0  0
  -25.9043  -34.9430   23.5086 C   0  0  0  0  0  0
  -16.5369  -29.9088   23.6336 C   0  0  0  0  0  0
  -16.7280  -28.6514   23.0329 C   0  0  0  0  0  0
  -26.4510  -31.6599   25.0706 C   0  0  0  0  0  0
  -25.3774  -31.3802   26.1476 C   0  0  0  0  0  0
  -27.0349  -30.3008   24.6194 C   0  0  0  0  0  0
  -27.6060  -32.4374   25.7446 C   0  0  0  0  0  0
  -27.5572  -37.1780   24.8445 C   0  0  0  0  0  0
  -21.4169  -29.3030   22.3672 N   0  0  0  0  0  0
  -26.4277  -37.3753   23.9401 N   0  0  0  0  0  0
  -24.6860  -31.0578   22.0957 N   0  0  0  0  0  0
  -23.4177  -28.8174   23.3049 O   0  0  0  0  0  0
  -28.3847  -26.5247   20.0547 O   0  0  0  0  0  0
  -26.5631  -34.8920   22.4658 O   0  0  0  0  0  0
  -23.5419  -32.1394   23.7329 O   0  0  0  0  0  0
  -29.7882  -19.4468   21.5242 C   0  0  0  0  0  0
  -29.1432  -19.9929   20.3811 C   0  0  0  0  0  0
  -28.8968  -19.0693   19.3130 C   0  0  0  0  0  0
  -29.7732  -17.1236   20.6275 C   0  0  0  0  0  0
  -30.0868  -18.0560   21.6515 C   0  0  0  0  0  0
  -29.1939  -17.6641   19.4443 C   0  0  0  0  0  0
  -28.2191  -19.5777   18.0423 C   0  0  0  0  0  0
  -29.3215  -25.2703   21.8147 C   0  0  0  0  0  0
  -28.5381  -21.4644   20.4081 C   0  0  0  0  0  0
  -28.8377  -23.9729   19.6359 C   0  0  0  0  0  0
  -28.3778  -25.1524   20.6138 C   0  0  2  0  0  0
  -29.7751  -15.6807   20.8943 N   0  0  0  0  0  0
  -29.4210  -22.6749   20.2095 N   0  3  0  0  0  0
  -30.7644  -17.4954   23.1403 Cl  0  0  0  0  0  0
  -28.7564  -16.5587   18.1810 Cl  0  0  0  0  0  0
  -31.4863  -12.5196   19.1735 H   0  0  0  0  0  0
  -30.3710  -11.4111   19.9187 H   0  0  0  0  0  0
  -29.7783  -11.7271   17.5031 H   0  0  0  0  0  0
  -29.6700  -13.4523   17.7310 H   0  0  0  0  0  0
  -27.8584  -11.2958   18.8631 H   0  0  0  0  0  0
  -27.3905  -12.5898   17.7906 H   0  0  0  0  0  0
  -27.6656  -14.2521   19.5230 H   0  0  0  0  0  0
  -28.7091  -12.0491   21.3648 H   0  0  0  0  0  0
  -28.4344  -13.6967   21.8521 H   0  0  0  0  0  0
  -25.2759   -9.5636   22.4730 H   0  0  0  0  0  0
  -23.9990   -7.4614   22.7437 H   0  0  0  0  0  0
  -21.0804   -8.8815   19.9004 H   0  0  0  0  0  0
  -22.3690  -10.9675   19.6199 H   0  0  0  0  0  0
  -21.2025   -7.6133   23.9692 H   0  0  0  0  0  0
  -21.1473   -6.0516   25.9056 H   0  0  0  0  0  0
  -22.0599   -2.7604   23.2858 H   0  0  0  0  0  0
  -22.4169  -11.9930   22.4861 H   0  0  0  0  0  0
  -21.1175  -13.1263   22.2776 H   0  0  0  0  0  0
  -24.6534  -15.8378   20.5241 H   0  0  0  0  0  0
  -26.2377  -15.6151   19.9853 H   0  0  0  0  0  0
  -26.7164  -32.5427   23.1064 H   0  0  0  0  0  0
  -25.0075  -33.9702   25.0403 H   0  0  0  0  0  0
  -22.7120  -31.2972   21.3925 H   0  0  0  0  0  0
  -23.3722  -35.9631   23.3325 H   0  0  0  0  0  0
  -24.3574  -36.8887   22.2048 H   0  0  0  0  0  0
  -23.7282  -37.6498   23.6677 H   0  0  0  0  0  0
  -26.0956  -31.5491   20.6072 H   0  0  0  0  0  0
  -26.8355  -30.8330   22.0058 H   0  0  0  0  0  0
  -28.1272  -29.0023   21.1635 H   0  0  0  0  0  0
  -26.0215  -25.8998   19.0339 H   0  0  0  0  0  0
  -23.9758  -27.2655   19.0499 H   0  0  0  0  0  0
  -23.7566  -30.5738   19.4005 H   0  0  0  0  0  0
  -22.7552  -29.2301   19.8601 H   0  0  0  0  0  0
  -25.1295  -36.1879   25.0817 H   0  0  0  0  0  0
  -20.9975  -28.3291   24.1402 H   0  0  0  0  0  0
  -20.5622  -26.2305   23.3637 H   0  0  0  0  0  0
  -21.6657  -26.7408   22.1277 H   0  0  0  0  0  0
  -19.6938  -25.6314   21.1219 H   0  0  0  0  0  0
  -19.6743  -27.3214   20.6739 H   0  0  0  0  0  0
  -17.4224  -26.6713   21.3964 H   0  0  0  0  0  0
  -18.0311  -26.0088   22.8961 H   0  0  0  0  0  0
  -19.7957  -30.7247   24.2296 H   0  0  0  0  0  0
  -17.5041  -31.6249   24.5215 H   0  0  0  0  0  0
  -15.5372  -30.2986   23.7679 H   0  0  0  0  0  0
  -15.8674  -28.0840   22.7026 H   0  0  0  0  0  0
  -24.5829  -30.7284   25.7842 H   0  0  0  0  0  0
  -24.9134  -32.3022   26.4986 H   0  0  0  0  0  0
  -25.8111  -30.8893   27.0196 H   0  0  0  0  0  0
  -26.2920  -29.6735   24.1252 H   0  0  0  0  0  0
  -27.4064  -29.7305   25.4721 H   0  0  0  0  0  0
  -27.8793  -30.4278   23.9413 H   0  0  0  0  0  0
  -27.2604  -33.3584   26.2161 H   0  0  0  0  0  0
  -28.3762  -32.7114   25.0220 H   0  0  0  0  0  0
  -28.0877  -31.8464   26.5249 H   0  0  0  0  0  0
  -28.2609  -38.0051   24.7440 H   0  0  0  0  0  0
  -28.1048  -36.2588   24.6300 H   0  0  0  0  0  0
  -27.2320  -37.1485   25.8860 H   0  0  0  0  0  0
  -20.9355  -29.8717   21.6844 H   0  0  0  0  0  0
  -26.0140  -38.2819   24.1425 H   0  0  0  0  0  0
  -29.9945  -20.0867   22.3707 H   0  0  0  0  0  0
  -28.6450  -20.5314   17.7306 H   0  0  0  0  0  0
  -27.1504  -19.7138   18.2139 H   0  0  0  0  0  0
  -28.3300  -18.9032   17.1944 H   0  0  0  0  0  0
  -29.2886  -24.3813   22.4428 H   0  0  0  0  0  0
  -29.0384  -26.1147   22.4412 H   0  0  0  0  0  0
  -30.3511  -25.4316   21.4936 H   0  0  0  0  0  0
  -28.0418  -21.5884   21.3715 H   0  0  0  0  0  0
  -27.7244  -21.5266   19.6879 H   0  0  0  0  0  0
  -29.6368  -24.3842   19.0175 H   0  0  0  0  0  0
  -28.0372  -23.7337   18.9355 H   0  0  0  0  0  0
  -27.3855  -24.9180   21.0002 H   0  0  0  0  0  0
  -28.9026  -15.3415   21.2704 H   0  0  0  0  0  0
  -30.1252  -22.3810   19.5508 H   0  0  0  0  0  0
  -29.9100  -22.8666   21.0683 H   0  0  0  0  0  0
  1 25  1  0  0  0
  1 30  2  0  0  0
  1 82  1  0  0  0
  2  3  1  0  0  0
  2 25  1  0  0  0
  2 86  1  0  0  0
  2 87  1  0  0  0
  3  4  1  0  0  0
  3 88  1  0  0  0
  3 89  1  0  0  0
  4  5  1  0  0  0
  4 90  1  0  0  0
  4 91  1  0  0  0
  5  6  1  0  0  0
  5 26  1  0  0  0
  5 92  1  0  0  0
  6 25  1  0  0  0
  6 93  1  0  0  0
  6 94  1  0  0  0
  7  8  2  0  0  0
  7 26  1  0  0  0
  7 29  1  0  0  0
  8  9  1  0  0  0
  8 22  1  0  0  0
  9 10  1  0  0  0
  9 27  2  0  0  0
 10 11  2  0  0  0
 10 15  1  0  0  0
 11 12  1  0  0  0
 11 95  1  0  0  0
 12 13  2  0  0  0
 12 96  1  0  0  0
 13 14  1  0  0  0
 13 31  1  0  0  0
 14 15  2  0  0  0
 14 97  1  0  0  0
 15 98  1  0  0  0
 16 17  2  0  0  0
 16 21  1  0  0  0
 16 31  1  0  0  0
 17 18  1  0  0  0
 17 99  1  0  0  0
 18 19  2  0  0  0
 18100  1  0  0  0
 19 20  1  0  0  0
 19 24  1  0  0  0
 20 21  2  0  0  0
 20101  1  0  0  0
 21 23  1  0  0  0
 22 28  1  0  0  0
 22 32  2  0  0  0
 26 27  1  0  0  0
 28102  1  0  0  0
 28103  1  0  0  0
 29104  1  0  0  0
 29105  1  0  0  0
 33 34  1  0  0  0
 33 66  1  0  0  0
 33 70  2  0  0  0
 34 36  1  0  0  0
 34 59  1  0  0  0
 34106  1  0  0  0
 35 44  2  0  0  0
 35 45  1  0  0  0
 35 68  1  0  0  0
 36 56  1  0  0  0
 36107  1  0  0  0
 37 39  1  0  0  0
 37 47  1  0  0  0
 37 66  1  0  0  0
 37108  1  0  0  0
 38 43  2  0  0  0
 38 46  1  0  0  0
 38 47  1  0  0  0
 39 64  1  0  0  0
 39 67  2  0  0  0
 40 52  1  0  0  0
 40 53  2  0  0  0
 40 58  1  0  0  0
 41109  1  0  0  0
 41110  1  0  0  0
 41111  1  0  0  0
 41 48  1  0  0  0
 42 43  1  0  0  0
 42 66  1  0  0  0
 42112  1  0  0  0
 42113  1  0  0  0
 43 44  1  0  0  0
 44114  1  0  0  0
 45 46  2  0  0  0
 45115  1  0  0  0
 46116  1  0  0  0
 47117  1  0  0  0
 47118  1  0  0  0
 48 56  1  0  0  0
 48 65  1  0  0  0
 48119  1  0  0  0
 49 50  1  0  0  0
 49 53  1  0  0  0
 49 64  1  0  0  0
 49120  1  0  0  0
 50 51  1  0  0  0
 50121  1  0  0  0
 50122  1  0  0  0
 51 52  1  0  0  0
 51123  1  0  0  0
 51124  1  0  0  0
 52125  1  0  0  0
 52126  1  0  0  0
 53 54  1  0  0  0
 54 55  2  0  0  0
 54127  1  0  0  0
 55 57  1  0  0  0
 55128  1  0  0  0
 56 69  2  0  0  0
 57 58  2  0  0  0
 57129  1  0  0  0
 58130  1  0  0  0
 59 60  1  0  0  0
 59 61  1  0  0  0
 59 62  1  0  0  0
 60131  1  0  0  0
 60132  1  0  0  0
 60133  1  0  0  0
 61134  1  0  0  0
 61135  1  0  0  0
 61136  1  0  0  0
 62137  1  0  0  0
 62138  1  0  0  0
 62139  1  0  0  0
 63 65  1  0  0  0
 63140  1  0  0  0
 63141  1  0  0  0
 63142  1  0  0  0
 64143  1  0  0  0
 65144  1  0  0  0
 68 81  1  0  0  0
 71 72  2  0  0  0
 71 75  1  0  0  0
 71145  1  0  0  0
 72 73  1  0  0  0
 72 79  1  0  0  0
 73 76  2  0  0  0
 73 77  1  0  0  0
 74 75  2  0  0  0
 74 76  1  0  0  0
 74 82  1  0  0  0
 75 84  1  0  0  0
 76 85  1  0  0  0
 77146  1  0  0  0
 77147  1  0  0  0
 77148  1  0  0  0
 78149  1  0  0  0
 78150  1  0  0  0
 78151  1  0  0  0
 78 81  1  0  0  0
 79 83  1  0  0  0
 79152  1  0  0  0
 79153  1  0  0  0
 80 81  1  0  0  0
 80 83  1  0  0  0
 80154  1  0  0  0
 80155  1  0  0  0
 81156  1  0  0  0
 82157  1  0  0  0
 83158  1  0  0  0
 83159  1  0  0  0
M  CHG  1  83   1
M  ISO  4   1 100  68 101  81 101  82 100
M  END
> <chiral flag>
0

> <version>
0

> <s_m_source_file>
/data/baiqing/PycharmProjects/Reinvent-master-3.2/result/LINK_invent/BTK/process_docking_weight1_custom_sum_contain_oxygen_bond_distance_aromatic_linkinvent_7_9_3/rearranged_h_0022.sdf

> <i_m_source_file_index>
26

> <r_mmod_Potential_Energy-OPLS-2005>
-120.987953186035

> <r_mmod_Stretch_Energy-OPLS-2005>
85.3097534179688

> <r_mmod_Bend_Energy-OPLS-2005>
144.290100097656

> <r_mmod_Torsional_Energy-OPLS-2005>
281.889739990234

> <r_mmod_Improper_Torsional_Energy-OPLS-2005>
7.49986553192139

> <r_mmod_Van_der_Waal_Energy-OPLS-2005>
132.710021972656

> <r_mmod_Electrostatic_Energy-OPLS-2005>
-345.821563720703

> <r_mmod_Solvation_Energy-OPLS-2005>
-476.211791992188

> <b_mmod_Minimization_Converged-OPLS-2005>
0

> <r_mmod_RMS_Derivative-OPLS-2005>
3.96979403495789

$$$$
26
                    3D
 Structure written by MMmdl.
186194  0  0  1  0            999 V2000
  -30.8492  -14.3045   20.7039 C   0  0  0  0  0  0
  -30.3967  -12.2671   19.4025 C   0  0  0  0  0  0
  -29.4748  -12.5173   18.1991 C   0  0  0  0  0  0
  -28.0064  -12.3662   18.6243 C   0  0  0  0  0  0
  -27.6675  -13.2101   19.8801 C   0  0  2  0  0  0
  -28.7062  -13.0031   21.0074 C   0  0  0  0  0  0
  -25.2611  -13.8193   20.5699 C   0  0  0  0  0  0
  -24.1841  -13.0442   20.9189 C   0  0  0  0  0  0
  -24.6415  -11.6934   20.8750 C   0  0  0  0  0  0
  -23.9092  -10.4301   21.0420 C   0  0  0  0  0  0
  -24.3634   -9.4211   21.9196 C   0  0  0  0  0  0
  -23.6300   -8.2248   22.0767 C   0  0  0  0  0  0
  -22.4284   -8.0284   21.3551 C   0  0  0  0  0  0
  -21.9923   -9.0268   20.4659 C   0  0  0  0  0  0
  -22.7265  -10.2151   20.3064 C   0  0  0  0  0  0
  -21.6858   -6.0751   22.5283 C   0  0  0  0  0  0
  -21.4024   -6.5649   23.8220 C   0  0  0  0  0  0
  -21.3648   -5.6796   24.9177 C   0  0  0  0  0  0
  -21.6048   -4.3059   24.7224 C   0  0  0  0  0  0
  -21.8812   -3.8156   23.4340 C   0  0  0  0  0  0
  -21.9193   -4.6981   22.3401 C   0  0  0  0  0  0
  -22.7870  -13.5251   21.1833 C   0  0  0  0  0  0
  -22.1660   -4.2165   21.0981 F   0  0  0  0  0  0
  -21.5621   -3.4534   25.7736 F   0  0  0  0  0  0
  -30.0585  -13.2262   20.4663 N   0  0  0  0  0  0
  -26.3062  -12.9362   20.3428 N   0  0  0  0  0  0
  -25.9344  -11.6523   20.5820 N   0  0  0  0  0  0
  -22.0497  -12.8232   22.0391 N   0  0  0  0  0  0
  -25.4305  -15.1895   20.4107 N   0  0  0  0  0  0
  -31.7840  -14.6248   19.9673 O   0  0  0  0  0  0
  -21.6633   -6.8889   21.4245 O   0  0  0  0  0  0
  -22.3554  -14.5550   20.6698 O   0  0  0  0  0  0
  -24.6032  -31.8736   23.2206 C   0  0  0  0  0  0
  -25.8975  -32.4838   23.8499 C   0  0  1  0  0  0
  -27.2479  -27.4884   20.0922 C   0  0  0  0  0  0
  -25.5903  -33.8660   24.2421 N   0  0  0  0  0  0
  -23.3939  -30.5049   21.5551 C   0  0  2  0  0  0
  -24.8452  -28.9654   20.1270 C   0  0  0  0  0  0
  -22.7375  -29.4723   22.4995 C   0  0  0  0  0  0
  -18.0300  -28.1370   22.8524 C   0  0  0  0  0  0
  -24.1486  -36.7326   23.2624 C   0  0  0  0  0  0
  -25.9225  -30.8371   21.3845 C   0  0  0  0  0  0
  -25.9973  -29.4769   20.7361 C   0  0  0  0  0  0
  -27.1973  -28.7393   20.7341 C   0  0  0  0  0  0
  -26.0850  -26.9773   19.4782 C   0  0  0  0  0  0
  -24.8781  -27.7045   19.5077 C   0  0  0  0  0  0
  -23.6086  -29.8390   20.1682 C   0  0  0  0  0  0
  -25.4113  -36.3150   24.0338 C   0  0  1  0  0  0
  -20.5883  -28.3657   23.1337 C   0  0  2  0  0  0
  -20.6798  -26.9400   22.5424 C   0  0  0  0  0  0
  -19.5752  -26.6384   21.5250 C   0  0  0  0  0  0
  -18.1930  -26.7947   22.1644 C   0  0  0  0  0  0
  -19.1543  -28.8847   23.2940 C   0  0  0  0  0  0
  -18.9453  -30.1479   23.8923 C   0  0  0  0  0  0
  -17.6447  -30.6575   24.0602 C   0  0  0  0  0  0
  -25.9026  -34.9485   23.5174 C   0  0  0  0  0  0
  -16.5350  -29.9067   23.6337 C   0  0  0  0  0  0
  -16.7299  -28.6499   23.0359 C   0  0  0  0  0  0
  -26.4417  -31.6606   25.0796 C   0  0  0  0  0  0
  -25.3633  -31.3575   26.1464 C   0  0  0  0  0  0
  -27.0359  -30.3117   24.6133 C   0  0  0  0  0  0
  -27.5989  -32.4378   25.7522 C   0  0  0  0  0  0
  -27.5580  -37.1830   24.8471 C   0  0  0  0  0  0
  -21.4124  -29.3037   22.3710 N   0  0  0  0  0  0
  -26.4299  -37.3847   23.9413 N   0  0  0  0  0  0
  -24.6576  -31.0858   22.1100 N   0  0  0  0  0  0
  -23.4178  -28.8248   23.3022 O   0  0  0  0  0  0
  -28.4332  -26.8086   19.9905 O   0  0  0  0  0  0
  -26.5559  -34.8926   22.4722 O   0  0  0  0  0  0
  -23.5256  -32.1457   23.7646 O   0  0  0  0  0  0
  -29.1766  -25.8614   25.7253 C   0  0  0  0  0  0
  -28.3245  -24.2144   24.1225 C   0  0  0  0  0  0
  -30.5272  -23.8835   25.2035 C   0  0  0  0  0  0
  -30.3352  -25.0806   25.9213 C   0  0  0  0  0  0
  -29.4924  -23.4371   24.3354 C   0  0  0  0  0  0
  -28.1819  -25.4457   24.8136 C   0  0  0  0  0  0
  -29.0097  -27.1698   26.4752 C   0  0  0  0  0  0
  -26.3835  -21.4382   22.9634 C   0  0  0  0  0  0
  -25.0112  -23.3149   23.9568 C   0  0  0  0  0  0
  -31.0122  -18.9304   23.6262 C   0  0  0  0  0  0
  -30.6221  -18.1447   22.3575 C   0  0  0  0  0  0
  -32.0268  -20.0733   23.3890 C   0  0  0  0  0  0
  -31.7238  -17.2000   21.8495 C   0  0  0  0  0  0
  -32.2031  -20.9659   24.6370 C   0  0  0  0  0  0
  -28.1571  -24.6845   21.0729 C   0  0  0  0  0  0
  -31.6866  -15.7968   22.4899 C   0  0  0  0  0  0
  -26.9862  -24.4833   22.0358 C   0  0  0  0  0  0
  -32.2975  -22.4768   24.3374 C   0  0  0  0  0  0
  -28.8250  -26.0698   21.1390 C   0  0  0  0  0  0
  -26.4194  -22.7278   23.7979 C   0  0  0  0  0  0
  -30.6885  -14.9007   21.8925 N   0  0  0  0  0  0
  -27.3373  -23.7195   23.2372 N   0  0  0  0  0  0
  -31.7274  -23.2212   25.4142 O   0  0  0  0  0  0
  -31.2953  -25.4991   26.7837 F   0  0  0  0  0  0
  -29.6006  -22.2446   23.7009 F   0  0  0  0  0  0
  -26.7906  -26.4581   24.5885 Cl  0  0  0  0  0  0
  -31.4432  -12.3290   19.0962 H   0  0  0  0  0  0
  -30.2606  -11.2504   19.7756 H   0  0  0  0  0  0
  -29.7030  -11.8174   17.3942 H   0  0  0  0  0  0
  -29.6470  -13.5194   17.7979 H   0  0  0  0  0  0
  -27.8292  -11.3096   18.8316 H   0  0  0  0  0  0
  -27.3413  -12.6311   17.8010 H   0  0  0  0  0  0
  -27.7156  -14.2577   19.5793 H   0  0  0  0  0  0
  -28.6435  -11.9913   21.4112 H   0  0  0  0  0  0
  -28.4726  -13.6712   21.8360 H   0  0  0  0  0  0
  -25.2777   -9.5679   22.4773 H   0  0  0  0  0  0
  -24.0008   -7.4637   22.7480 H   0  0  0  0  0  0
  -21.0853   -8.8801   19.8951 H   0  0  0  0  0  0
  -22.3731  -10.9697   19.6167 H   0  0  0  0  0  0
  -21.2021   -7.6155   23.9736 H   0  0  0  0  0  0
  -21.1476   -6.0520   25.9088 H   0  0  0  0  0  0
  -22.0598   -2.7615   23.2836 H   0  0  0  0  0  0
  -22.4099  -11.9889   22.4757 H   0  0  0  0  0  0
  -21.1128  -13.1284   22.2607 H   0  0  0  0  0  0
  -24.6676  -15.8476   20.5316 H   0  0  0  0  0  0
  -26.2916  -15.6313   20.1102 H   0  0  0  0  0  0
  -26.7071  -32.5559   23.1306 H   0  0  0  0  0  0
  -25.0154  -33.9925   25.0621 H   0  0  0  0  0  0
  -22.6795  -31.3226   21.4225 H   0  0  0  0  0  0
  -23.3746  -35.9657   23.3299 H   0  0  0  0  0  0
  -24.3548  -36.8902   22.2027 H   0  0  0  0  0  0
  -23.7225  -37.6534   23.6606 H   0  0  0  0  0  0
  -26.0525  -31.6024   20.6195 H   0  0  0  0  0  0
  -26.8014  -30.8774   22.0171 H   0  0  0  0  0  0
  -28.0855  -29.1377   21.2001 H   0  0  0  0  0  0
  -26.1164  -26.0286   18.9623 H   0  0  0  0  0  0
  -23.9906  -27.3037   19.0373 H   0  0  0  0  0  0
  -23.7441  -30.6211   19.4211 H   0  0  0  0  0  0
  -22.7240  -29.2838   19.8466 H   0  0  0  0  0  0
  -25.1276  -36.2035   25.0824 H   0  0  0  0  0  0
  -21.0083  -28.3223   24.1432 H   0  0  0  0  0  0
  -20.5767  -26.2273   23.3616 H   0  0  0  0  0  0
  -21.6658  -26.7477   22.1189 H   0  0  0  0  0  0
  -19.6882  -25.6309   21.1246 H   0  0  0  0  0  0
  -19.6665  -27.3236   20.6815 H   0  0  0  0  0  0
  -17.4247  -26.6833   21.3988 H   0  0  0  0  0  0
  -18.0230  -26.0051   22.8984 H   0  0  0  0  0  0
  -19.7918  -30.7347   24.2233 H   0  0  0  0  0  0
  -17.4974  -31.6258   24.5196 H   0  0  0  0  0  0
  -15.5345  -30.2973   23.7623 H   0  0  0  0  0  0
  -15.8725  -28.0829   22.7015 H   0  0  0  0  0  0
  -24.6375  -30.6256   25.7870 H   0  0  0  0  0  0
  -24.8127  -32.2551   26.4312 H   0  0  0  0  0  0
  -25.8035  -30.9467   27.0571 H   0  0  0  0  0  0
  -26.3074  -29.6972   24.0853 H   0  0  0  0  0  0
  -27.3845  -29.7173   25.4575 H   0  0  0  0  0  0
  -27.8973  -30.4533   23.9616 H   0  0  0  0  0  0
  -27.2396  -33.2923   26.3270 H   0  0  0  0  0  0
  -28.3080  -32.8181   25.0142 H   0  0  0  0  0  0
  -28.1645  -31.8103   26.4414 H   0  0  0  0  0  0
  -28.2636  -38.0106   24.7595 H   0  0  0  0  0  0
  -28.1059  -36.2655   24.6271 H   0  0  0  0  0  0
  -27.2284  -37.1452   25.8870 H   0  0  0  0  0  0
  -20.9227  -29.8754   21.6953 H   0  0  0  0  0  0
  -26.0168  -38.2904   24.1489 H   0  0  0  0  0  0
  -29.6934  -27.2545   27.3193 H   0  0  0  0  0  0
  -27.9999  -27.2489   26.8752 H   0  0  0  0  0  0
  -29.1745  -28.0017   25.7891 H   0  0  0  0  0  0
  -25.7657  -20.6784   23.4494 H   0  0  0  0  0  0
  -27.3827  -21.0147   22.8347 H   0  0  0  0  0  0
  -25.9519  -21.6065   21.9779 H   0  0  0  0  0  0
  -25.0331  -24.2815   24.4557 H   0  0  0  0  0  0
  -24.3878  -22.6562   24.5558 H   0  0  0  0  0  0
  -24.5206  -23.4480   22.9892 H   0  0  0  0  0  0
  -31.3750  -18.2508   24.3973 H   0  0  0  0  0  0
  -30.0976  -19.3702   24.0258 H   0  0  0  0  0  0
  -30.3476  -18.8487   21.5713 H   0  0  0  0  0  0
  -29.7203  -17.5630   22.5555 H   0  0  0  0  0  0
  -31.6714  -20.6748   22.5534 H   0  0  0  0  0  0
  -32.9979  -19.6763   23.0812 H   0  0  0  0  0  0
  -32.7012  -17.6465   22.0351 H   0  0  0  0  0  0
  -31.6587  -17.1155   20.7647 H   0  0  0  0  0  0
  -33.0911  -20.6556   25.1924 H   0  0  0  0  0  0
  -31.3655  -20.8014   25.3134 H   0  0  0  0  0  0
  -27.7484  -24.5832   20.0693 H   0  0  0  0  0  0
  -28.8987  -23.8886   21.1652 H   0  0  0  0  0  0
  -31.5060  -15.8685   23.5629 H   0  0  0  0  0  0
  -32.6692  -15.3318   22.3873 H   0  0  0  0  0  0
  -26.1863  -23.9623   21.5047 H   0  0  0  0  0  0
  -26.5689  -25.4584   22.2804 H   0  0  0  0  0  0
  -31.8589  -22.7441   23.3751 H   0  0  0  0  0  0
  -33.3434  -22.7685   24.2471 H   0  0  0  0  0  0
  -29.9081  -25.9414   21.0968 H   0  0  0  0  0  0
  -28.6170  -26.6060   22.0669 H   0  0  0  0  0  0
  -26.7776  -22.4448   24.7885 H   0  0  0  0  0  0
  -29.9435  -14.5600   22.4824 H   0  0  0  0  0  0
  1 25  1  0  0  0
  1 30  2  0  0  0
  1 91  1  0  0  0
  2  3  1  0  0  0
  2 25  1  0  0  0
  2 97  1  0  0  0
  2 98  1  0  0  0
  3  4  1  0  0  0
  3 99  1  0  0  0
  3100  1  0  0  0
  4  5  1  0  0  0
  4101  1  0  0  0
  4102  1  0  0  0
  5  6  1  0  0  0
  5 26  1  0  0  0
  5103  1  0  0  0
  6 25  1  0  0  0
  6104  1  0  0  0
  6105  1  0  0  0
  7  8  2  0  0  0
  7 26  1  0  0  0
  7 29  1  0  0  0
  8  9  1  0  0  0
  8 22  1  0  0  0
  9 10  1  0  0  0
  9 27  2  0  0  0
 10 11  2  0  0  0
 10 15  1  0  0  0
 11 12  1  0  0  0
 11106  1  0  0  0
 12 13  2  0  0  0
 12107  1  0  0  0
 13 14  1  0  0  0
 13 31  1  0  0  0
 14 15  2  0  0  0
 14108  1  0  0  0
 15109  1  0  0  0
 16 17  2  0  0  0
 16 21  1  0  0  0
 16 31  1  0  0  0
 17 18  1  0  0  0
 17110  1  0  0  0
 18 19  2  0  0  0
 18111  1  0  0  0
 19 20  1  0  0  0
 19 24  1  0  0  0
 20 21  2  0  0  0
 20112  1  0  0  0
 21 23  1  0  0  0
 22 28  1  0  0  0
 22 32  2  0  0  0
 26 27  1  0  0  0
 28113  1  0  0  0
 28114  1  0  0  0
 29115  1  0  0  0
 29116  1  0  0  0
 33 34  1  0  0  0
 33 66  1  0  0  0
 33 70  2  0  0  0
 34 36  1  0  0  0
 34 59  1  0  0  0
 34117  1  0  0  0
 35 44  2  0  0  0
 35 45  1  0  0  0
 35 68  1  0  0  0
 36 56  1  0  0  0
 36118  1  0  0  0
 37 39  1  0  0  0
 37 47  1  0  0  0
 37 66  1  0  0  0
 37119  1  0  0  0
 38 43  2  0  0  0
 38 46  1  0  0  0
 38 47  1  0  0  0
 39 64  1  0  0  0
 39 67  2  0  0  0
 40 52  1  0  0  0
 40 53  2  0  0  0
 40 58  1  0  0  0
 41120  1  0  0  0
 41121  1  0  0  0
 41122  1  0  0  0
 41 48  1  0  0  0
 42 43  1  0  0  0
 42 66  1  0  0  0
 42123  1  0  0  0
 42124  1  0  0  0
 43 44  1  0  0  0
 44125  1  0  0  0
 45 46  2  0  0  0
 45126  1  0  0  0
 46127  1  0  0  0
 47128  1  0  0  0
 47129  1  0  0  0
 48 56  1  0  0  0
 48 65  1  0  0  0
 48130  1  0  0  0
 49 50  1  0  0  0
 49 53  1  0  0  0
 49 64  1  0  0  0
 49131  1  0  0  0
 50 51  1  0  0  0
 50132  1  0  0  0
 50133  1  0  0  0
 51 52  1  0  0  0
 51134  1  0  0  0
 51135  1  0  0  0
 52136  1  0  0  0
 52137  1  0  0  0
 53 54  1  0  0  0
 54 55  2  0  0  0
 54138  1  0  0  0
 55 57  1  0  0  0
 55139  1  0  0  0
 56 69  2  0  0  0
 57 58  2  0  0  0
 57140  1  0  0  0
 58141  1  0  0  0
 59 60  1  0  0  0
 59 61  1  0  0  0
 59 62  1  0  0  0
 60142  1  0  0  0
 60143  1  0  0  0
 60144  1  0  0  0
 61145  1  0  0  0
 61146  1  0  0  0
 61147  1  0  0  0
 62148  1  0  0  0
 62149  1  0  0  0
 62150  1  0  0  0
 63 65  1  0  0  0
 63151  1  0  0  0
 63152  1  0  0  0
 63153  1  0  0  0
 64154  1  0  0  0
 65155  1  0  0  0
 68 89  1  0  0  0
 71 74  2  0  0  0
 71 76  1  0  0  0
 71 77  1  0  0  0
 72 75  1  0  0  0
 72 76  2  0  0  0
 72 92  1  0  0  0
 73 74  1  0  0  0
 73 75  2  0  0  0
 73 93  1  0  0  0
 74 94  1  0  0  0
 75 95  1  0  0  0
 76 96  1  0  0  0
 77156  1  0  0  0
 77157  1  0  0  0
 77158  1  0  0  0
 78159  1  0  0  0
 78160  1  0  0  0
 78161  1  0  0  0
 78 90  1  0  0  0
 79 90  1  0  0  0
 79162  1  0  0  0
 79163  1  0  0  0
 79164  1  0  0  0
 80 81  1  0  0  0
 80 82  1  0  0  0
 80165  1  0  0  0
 80166  1  0  0  0
 81 83  1  0  0  0
 81167  1  0  0  0
 81168  1  0  0  0
 82 84  1  0  0  0
 82169  1  0  0  0
 82170  1  0  0  0
 83 86  1  0  0  0
 83171  1  0  0  0
 83172  1  0  0  0
 84 88  1  0  0  0
 84173  1  0  0  0
 84174  1  0  0  0
 85 87  1  0  0  0
 85 89  1  0  0  0
 85175  1  0  0  0
 85176  1  0  0  0
 86 91  1  0  0  0
 86177  1  0  0  0
 86178  1  0  0  0
 87 92  1  0  0  0
 87179  1  0  0  0
 87180  1  0  0  0
 88 93  1  0  0  0
 88181  1  0  0  0
 88182  1  0  0  0
 89183  1  0  0  0
 89184  1  0  0  0
 90 92  1  0  0  0
 90185  1  0  0  0
 91186  1  0  0  0
M  ISO  4   1 100  68 101  89 101  91 100
M  END
> <chiral flag>
0

> <version>
0

> <s_m_source_file>
/data/baiqing/PycharmProjects/Reinvent-master-3.2/result/LINK_invent/BTK/process_docking_weight1_custom_sum_contain_oxygen_bond_distance_aromatic_linkinvent_7_9_3/rearranged_h_0022.sdf

> <i_m_source_file_index>
27

> <r_mmod_Potential_Energy-OPLS-2005>
107.33203125

> <r_mmod_Stretch_Energy-OPLS-2005>
37.0572700500488

> <r_mmod_Bend_Energy-OPLS-2005>
114.110763549805

> <r_mmod_Torsional_Energy-OPLS-2005>
323.164001464844

> <r_mmod_Improper_Torsional_Energy-OPLS-2005>
5.40637254714966

> <r_mmod_Van_der_Waal_Energy-OPLS-2005>
147.060760498047

> <r_mmod_Electrostatic_Energy-OPLS-2005>
-330.622528076172

> <r_mmod_Solvation_Energy-OPLS-2005>
-198.086456298828

> <b_mmod_Minimization_Converged-OPLS-2005>
0

> <r_mmod_RMS_Derivative-OPLS-2005>
6.76950931549072

$$$$
27
                    3D
 Structure written by MMmdl.
168176  0  0  1  0            999 V2000
  -30.6947  -14.4424   20.5096 C   0  0  0  0  0  0
  -30.4187  -12.2683   19.4154 C   0  0  0  0  0  0
  -29.4934  -12.4851   18.1992 C   0  0  0  0  0  0
  -28.0132  -12.3565   18.6112 C   0  0  0  0  0  0
  -27.6621  -13.1922   19.8701 C   0  0  2  0  0  0
  -28.7057  -12.9798   20.9930 C   0  0  0  0  0  0
  -25.2604  -13.8142   20.5628 C   0  0  0  0  0  0
  -24.1856  -13.0445   20.9164 C   0  0  0  0  0  0
  -24.6407  -11.6914   20.8753 C   0  0  0  0  0  0
  -23.9096  -10.4313   21.0417 C   0  0  0  0  0  0
  -24.3662   -9.4234   21.9193 C   0  0  0  0  0  0
  -23.6340   -8.2265   22.0757 C   0  0  0  0  0  0
  -22.4317   -8.0304   21.3535 C   0  0  0  0  0  0
  -21.9955   -9.0289   20.4648 C   0  0  0  0  0  0
  -22.7282  -10.2165   20.3068 C   0  0  0  0  0  0
  -21.6868   -6.0773   22.5279 C   0  0  0  0  0  0
  -21.4007   -6.5669   23.8217 C   0  0  0  0  0  0
  -21.3645   -5.6807   24.9162 C   0  0  0  0  0  0
  -21.6041   -4.3070   24.7199 C   0  0  0  0  0  0
  -21.8829   -3.8181   23.4313 C   0  0  0  0  0  0
  -21.9197   -4.7004   22.3384 C   0  0  0  0  0  0
  -22.7892  -13.5264   21.1809 C   0  0  0  0  0  0
  -22.1667   -4.2214   21.0959 F   0  0  0  0  0  0
  -21.5632   -3.4538   25.7693 F   0  0  0  0  0  0
  -30.0378  -13.2589   20.4308 N   0  0  0  0  0  0
  -26.3031  -12.9281   20.3339 N   0  0  0  0  0  0
  -25.9316  -11.6469   20.5774 N   0  0  0  0  0  0
  -22.0489  -12.8295   22.0361 N   0  0  0  0  0  0
  -25.4315  -15.1859   20.4044 N   0  0  0  0  0  0
  -31.8593  -14.5965   20.1291 O   0  0  0  0  0  0
  -21.6651   -6.8914   21.4242 O   0  0  0  0  0  0
  -22.3600  -14.5578   20.6641 O   0  0  0  0  0  0
  -24.6108  -31.8707   23.2134 C   0  0  0  0  0  0
  -25.9024  -32.4836   23.8418 C   0  0  1  0  0  0
  -27.2430  -27.4823   20.0908 C   0  0  0  0  0  0
  -25.5898  -33.8638   24.2352 N   0  0  0  0  0  0
  -23.3983  -30.4956   21.5487 C   0  0  2  0  0  0
  -24.8482  -28.9636   20.1177 C   0  0  0  0  0  0
  -22.7393  -29.4674   22.4949 C   0  0  0  0  0  0
  -18.0273  -28.1392   22.8478 C   0  0  0  0  0  0
  -24.1486  -36.7326   23.2641 C   0  0  0  0  0  0
  -25.9215  -30.8513   21.3585 C   0  0  0  0  0  0
  -26.0027  -29.4851   20.7157 C   0  0  0  0  0  0
  -27.2021  -28.7455   20.7126 C   0  0  0  0  0  0
  -26.0730  -26.9519   19.5085 C   0  0  0  0  0  0
  -24.8732  -27.6909   19.5180 C   0  0  0  0  0  0
  -23.6105  -29.8301   20.1613 C   0  0  0  0  0  0
  -25.4099  -36.3125   24.0345 C   0  0  1  0  0  0
  -20.5865  -28.3673   23.1309 C   0  0  2  0  0  0
  -20.6759  -26.9405   22.5421 C   0  0  0  0  0  0
  -19.5753  -26.6389   21.5210 C   0  0  0  0  0  0
  -18.1921  -26.7945   22.1594 C   0  0  0  0  0  0
  -19.1522  -28.8841   23.2895 C   0  0  0  0  0  0
  -18.9459  -30.1441   23.8910 C   0  0  0  0  0  0
  -17.6465  -30.6589   24.0578 C   0  0  0  0  0  0
  -25.9026  -34.9486   23.5144 C   0  0  0  0  0  0
  -16.5350  -29.9104   23.6325 C   0  0  0  0  0  0
  -16.7264  -28.6527   23.0328 C   0  0  0  0  0  0
  -26.4461  -31.6609   25.0734 C   0  0  0  0  0  0
  -25.3735  -31.3719   26.1494 C   0  0  0  0  0  0
  -27.0304  -30.3071   24.6079 C   0  0  0  0  0  0
  -27.6044  -32.4312   25.7503 C   0  0  0  0  0  0
  -27.5579  -37.1819   24.8454 C   0  0  0  0  0  0
  -21.4118  -29.3038   22.3704 N   0  0  0  0  0  0
  -26.4282  -37.3804   23.9417 N   0  0  0  0  0  0
  -24.6620  -31.0858   22.1000 N   0  0  0  0  0  0
  -23.4185  -28.8202   23.2967 O   0  0  0  0  0  0
  -28.4122  -26.7701   20.0653 O   0  0  0  0  0  0
  -26.5564  -34.8931   22.4685 O   0  0  0  0  0  0
  -23.5312  -32.1427   23.7562 O   0  0  0  0  0  0
  -29.9697  -18.6644   18.8347 C   0  0  0  0  0  0
  -31.1239  -17.5909   21.1536 C   0  0  0  0  0  0
  -30.9076  -19.4301   19.5553 C   0  0  0  0  0  0
  -29.6017  -17.3736   19.2578 C   0  0  0  0  0  0
  -31.4721  -18.8951   20.7418 C   0  0  0  0  0  0
  -30.2085  -16.8178   20.4115 C   0  0  0  0  0  0
  -28.5862  -16.6073   18.4325 C   0  0  0  0  0  0
  -32.4720  -19.6746   21.5797 C   0  0  0  0  0  0
  -30.2319  -22.9547   16.9809 C   0  0  0  0  0  0
  -31.2977  -20.7907   18.9851 C   0  0  0  0  0  0
  -30.0955  -25.6188   18.7800 C   0  0  0  0  0  0
  -29.5637  -24.2037   19.0897 C   0  0  0  0  0  0
  -29.0017  -26.6898   18.7764 C   0  0  0  0  0  0
  -30.4597  -23.0892   18.5051 C   0  0  1  0  0  0
  -29.9209  -15.4934   20.8260 N   0  0  0  0  0  0
  -30.2378  -21.7985   19.1987 N   0  3  0  0  0  0
  -31.4666  -12.3532   19.1223 H   0  0  0  0  0  0
  -30.2952  -11.2573   19.8077 H   0  0  0  0  0  0
  -29.7255  -11.7621   17.4155 H   0  0  0  0  0  0
  -29.6716  -13.4674   17.7631 H   0  0  0  0  0  0
  -27.8190  -11.3005   18.8031 H   0  0  0  0  0  0
  -27.3668  -12.6344   17.7774 H   0  0  0  0  0  0
  -27.7011  -14.2329   19.5664 H   0  0  0  0  0  0
  -28.6674  -11.9508   21.3566 H   0  0  0  0  0  0
  -28.4871  -13.6053   21.8585 H   0  0  0  0  0  0
  -25.2802   -9.5726   22.4761 H   0  0  0  0  0  0
  -24.0056   -7.4673   22.7479 H   0  0  0  0  0  0
  -21.0881   -8.8846   19.8965 H   0  0  0  0  0  0
  -22.3765  -10.9725   19.6199 H   0  0  0  0  0  0
  -21.1991   -7.6177   23.9740 H   0  0  0  0  0  0
  -21.1444   -6.0514   25.9072 H   0  0  0  0  0  0
  -22.0610   -2.7652   23.2773 H   0  0  0  0  0  0
  -22.4100  -11.9991   22.4814 H   0  0  0  0  0  0
  -21.1109  -13.1344   22.2500 H   0  0  0  0  0  0
  -24.6569  -15.8330   20.4955 H   0  0  0  0  0  0
  -26.2813  -15.6288   20.0819 H   0  0  0  0  0  0
  -26.7101  -32.5584   23.1199 H   0  0  0  0  0  0
  -25.0096  -33.9798   25.0534 H   0  0  0  0  0  0
  -22.6864  -31.3123   21.4096 H   0  0  0  0  0  0
  -23.3746  -35.9659   23.3293 H   0  0  0  0  0  0
  -24.3593  -36.8943   22.2055 H   0  0  0  0  0  0
  -23.7233  -37.6534   23.6645 H   0  0  0  0  0  0
  -26.0192  -31.6133   20.5844 H   0  0  0  0  0  0
  -26.8147  -30.9151   21.9680 H   0  0  0  0  0  0
  -28.0965  -29.1471   21.1695 H   0  0  0  0  0  0
  -26.0941  -25.9708   19.0552 H   0  0  0  0  0  0
  -23.9840  -27.2782   19.0631 H   0  0  0  0  0  0
  -23.7302  -30.6085   19.4061 H   0  0  0  0  0  0
  -22.7352  -29.2541   19.8555 H   0  0  0  0  0  0
  -25.1272  -36.1982   25.0838 H   0  0  0  0  0  0
  -20.9972  -28.3251   24.1425 H   0  0  0  0  0  0
  -20.5654  -26.2284   23.3610 H   0  0  0  0  0  0
  -21.6634  -26.7446   22.1223 H   0  0  0  0  0  0
  -19.6915  -25.6301   21.1240 H   0  0  0  0  0  0
  -19.6724  -27.3198   20.6741 H   0  0  0  0  0  0
  -17.4212  -26.6707   21.3975 H   0  0  0  0  0  0
  -18.0306  -26.0081   22.8979 H   0  0  0  0  0  0
  -19.7940  -30.7241   24.2298 H   0  0  0  0  0  0
  -17.5033  -31.6273   24.5178 H   0  0  0  0  0  0
  -15.5355  -30.3014   23.7659 H   0  0  0  0  0  0
  -15.8657  -28.0869   22.7016 H   0  0  0  0  0  0
  -24.5920  -30.7037   25.7853 H   0  0  0  0  0  0
  -24.8911  -32.2884   26.4908 H   0  0  0  0  0  0
  -25.8107  -30.8935   27.0271 H   0  0  0  0  0  0
  -26.2863  -29.6833   24.1125 H   0  0  0  0  0  0
  -27.4100  -29.7290   25.4511 H   0  0  0  0  0  0
  -27.8665  -30.4417   23.9216 H   0  0  0  0  0  0
  -27.2662  -33.3579   26.2146 H   0  0  0  0  0  0
  -28.3837  -32.6920   25.0333 H   0  0  0  0  0  0
  -28.0737  -31.8400   26.5374 H   0  0  0  0  0  0
  -28.2586  -38.0127   24.7511 H   0  0  0  0  0  0
  -28.1082  -36.2661   24.6248 H   0  0  0  0  0  0
  -27.2310  -37.1442   25.8860 H   0  0  0  0  0  0
  -20.9265  -29.8788   21.6958 H   0  0  0  0  0  0
  -26.0175  -38.2879   24.1432 H   0  0  0  0  0  0
  -29.5371  -19.0700   17.9289 H   0  0  0  0  0  0
  -31.5804  -17.1663   22.0380 H   0  0  0  0  0  0
  -28.2575  -17.1812   17.5662 H   0  0  0  0  0  0
  -27.7029  -16.3940   19.0305 H   0  0  0  0  0  0
  -29.0111  -15.6736   18.0663 H   0  0  0  0  0  0
  -32.6584  -19.1737   22.5309 H   0  0  0  0  0  0
  -32.1019  -20.6735   21.8095 H   0  0  0  0  0  0
  -33.4268  -19.7590   21.0605 H   0  0  0  0  0  0
  -30.1928  -23.9224   16.4842 H   0  0  0  0  0  0
  -29.2929  -22.4501   16.7559 H   0  0  0  0  0  0
  -31.0373  -22.3993   16.5016 H   0  0  0  0  0  0
  -31.4652  -20.6538   17.9175 H   0  0  0  0  0  0
  -32.2436  -21.1418   19.3965 H   0  0  0  0  0  0
  -30.5807  -25.6444   17.8060 H   0  0  0  0  0  0
  -30.8711  -25.8799   19.5012 H   0  0  0  0  0  0
  -28.5474  -24.0885   18.7117 H   0  0  0  0  0  0
  -29.4920  -24.1084   20.1743 H   0  0  0  0  0  0
  -28.2678  -26.4638   18.0003 H   0  0  0  0  0  0
  -29.4347  -27.6608   18.5274 H   0  0  0  0  0  0
  -31.4966  -23.3794   18.6800 H   0  0  0  0  0  0
  -28.9633  -15.2779   21.0572 H   0  0  0  0  0  0
  -30.1854  -21.9648   20.1896 H   0  0  0  0  0  0
  -29.3548  -21.4078   18.9131 H   0  0  0  0  0  0
  1 25  1  0  0  0
  1 30  2  0  0  0
  1 85  1  0  0  0
  2  3  1  0  0  0
  2 25  1  0  0  0
  2 87  1  0  0  0
  2 88  1  0  0  0
  3  4  1  0  0  0
  3 89  1  0  0  0
  3 90  1  0  0  0
  4  5  1  0  0  0
  4 91  1  0  0  0
  4 92  1  0  0  0
  5  6  1  0  0  0
  5 26  1  0  0  0
  5 93  1  0  0  0
  6 25  1  0  0  0
  6 94  1  0  0  0
  6 95  1  0  0  0
  7  8  2  0  0  0
  7 26  1  0  0  0
  7 29  1  0  0  0
  8  9  1  0  0  0
  8 22  1  0  0  0
  9 10  1  0  0  0
  9 27  2  0  0  0
 10 11  2  0  0  0
 10 15  1  0  0  0
 11 12  1  0  0  0
 11 96  1  0  0  0
 12 13  2  0  0  0
 12 97  1  0  0  0
 13 14  1  0  0  0
 13 31  1  0  0  0
 14 15  2  0  0  0
 14 98  1  0  0  0
 15 99  1  0  0  0
 16 17  2  0  0  0
 16 21  1  0  0  0
 16 31  1  0  0  0
 17 18  1  0  0  0
 17100  1  0  0  0
 18 19  2  0  0  0
 18101  1  0  0  0
 19 20  1  0  0  0
 19 24  1  0  0  0
 20 21  2  0  0  0
 20102  1  0  0  0
 21 23  1  0  0  0
 22 28  1  0  0  0
 22 32  2  0  0  0
 26 27  1  0  0  0
 28103  1  0  0  0
 28104  1  0  0  0
 29105  1  0  0  0
 29106  1  0  0  0
 33 34  1  0  0  0
 33 66  1  0  0  0
 33 70  2  0  0  0
 34 36  1  0  0  0
 34 59  1  0  0  0
 34107  1  0  0  0
 35 44  2  0  0  0
 35 45  1  0  0  0
 35 68  1  0  0  0
 36 56  1  0  0  0
 36108  1  0  0  0
 37 39  1  0  0  0
 37 47  1  0  0  0
 37 66  1  0  0  0
 37109  1  0  0  0
 38 43  2  0  0  0
 38 46  1  0  0  0
 38 47  1  0  0  0
 39 64  1  0  0  0
 39 67  2  0  0  0
 40 52  1  0  0  0
 40 53  2  0  0  0
 40 58  1  0  0  0
 41110  1  0  0  0
 41111  1  0  0  0
 41112  1  0  0  0
 41 48  1  0  0  0
 42 43  1  0  0  0
 42 66  1  0  0  0
 42113  1  0  0  0
 42114  1  0  0  0
 43 44  1  0  0  0
 44115  1  0  0  0
 45 46  2  0  0  0
 45116  1  0  0  0
 46117  1  0  0  0
 47118  1  0  0  0
 47119  1  0  0  0
 48 56  1  0  0  0
 48 65  1  0  0  0
 48120  1  0  0  0
 49 50  1  0  0  0
 49 53  1  0  0  0
 49 64  1  0  0  0
 49121  1  0  0  0
 50 51  1  0  0  0
 50122  1  0  0  0
 50123  1  0  0  0
 51 52  1  0  0  0
 51124  1  0  0  0
 51125  1  0  0  0
 52126  1  0  0  0
 52127  1  0  0  0
 53 54  1  0  0  0
 54 55  2  0  0  0
 54128  1  0  0  0
 55 57  1  0  0  0
 55129  1  0  0  0
 56 69  2  0  0  0
 57 58  2  0  0  0
 57130  1  0  0  0
 58131  1  0  0  0
 59 60  1  0  0  0
 59 61  1  0  0  0
 59 62  1  0  0  0
 60132  1  0  0  0
 60133  1  0  0  0
 60134  1  0  0  0
 61135  1  0  0  0
 61136  1  0  0  0
 61137  1  0  0  0
 62138  1  0  0  0
 62139  1  0  0  0
 62140  1  0  0  0
 63 65  1  0  0  0
 63141  1  0  0  0
 63142  1  0  0  0
 63143  1  0  0  0
 64144  1  0  0  0
 65145  1  0  0  0
 68 83  1  0  0  0
 71 73  2  0  0  0
 71 74  1  0  0  0
 71146  1  0  0  0
 72 75  2  0  0  0
 72 76  1  0  0  0
 72147  1  0  0  0
 73 75  1  0  0  0
 73 80  1  0  0  0
 74 76  2  0  0  0
 74 77  1  0  0  0
 75 78  1  0  0  0
 76 85  1  0  0  0
 77148  1  0  0  0
 77149  1  0  0  0
 77150  1  0  0  0
 78151  1  0  0  0
 78152  1  0  0  0
 78153  1  0  0  0
 79154  1  0  0  0
 79155  1  0  0  0
 79156  1  0  0  0
 79 84  1  0  0  0
 80 86  1  0  0  0
 80157  1  0  0  0
 80158  1  0  0  0
 81 82  1  0  0  0
 81 83  1  0  0  0
 81159  1  0  0  0
 81160  1  0  0  0
 82 84  1  0  0  0
 82161  1  0  0  0
 82162  1  0  0  0
 83163  1  0  0  0
 83164  1  0  0  0
 84 86  1  0  0  0
 84165  1  0  0  0
 85166  1  0  0  0
 86167  1  0  0  0
 86168  1  0  0  0
M  CHG  1  86   1
M  ISO  4   1 100  68 101  83 101  85 100
M  END
> <chiral flag>
0

> <version>
0

> <s_m_source_file>
/data/baiqing/PycharmProjects/Reinvent-master-3.2/result/LINK_invent/BTK/process_docking_weight1_custom_sum_contain_oxygen_bond_distance_aromatic_linkinvent_7_9_3/rearranged_h_0022.sdf

> <i_m_source_file_index>
28

> <r_mmod_Potential_Energy-OPLS-2005>
-218.323745727539

> <r_mmod_Stretch_Energy-OPLS-2005>
31.9418201446533

> <r_mmod_Bend_Energy-OPLS-2005>
86.5196380615234

> <r_mmod_Torsional_Energy-OPLS-2005>
268.585571289062

> <r_mmod_Improper_Torsional_Energy-OPLS-2005>
6.33587598800659

> <r_mmod_Van_der_Waal_Energy-OPLS-2005>
148.624389648438

> <r_mmod_Electrostatic_Energy-OPLS-2005>
-322.486785888672

> <r_mmod_Solvation_Energy-OPLS-2005>
-450.059539794922

> <b_mmod_Minimization_Converged-OPLS-2005>
0

> <r_mmod_RMS_Derivative-OPLS-2005>
3.26666378974915

$$$$
28
                    3D
 Structure written by MMmdl.
163171  0  0  1  0            999 V2000
  -30.6137  -14.6184   20.5211 C   0  0  0  0  0  0
  -30.4414  -12.3822   19.4483 C   0  0  0  0  0  0
  -29.5076  -12.5130   18.2234 C   0  0  0  0  0  0
  -28.0294  -12.3532   18.6340 C   0  0  0  0  0  0
  -27.6576  -13.2121   19.8722 C   0  0  2  0  0  0
  -28.7009  -13.0357   20.9985 C   0  0  0  0  0  0
  -25.2579  -13.8164   20.5701 C   0  0  0  0  0  0
  -24.1829  -13.0434   20.9175 C   0  0  0  0  0  0
  -24.6392  -11.6903   20.8731 C   0  0  0  0  0  0
  -23.9060  -10.4290   21.0401 C   0  0  0  0  0  0
  -24.3613   -9.4207   21.9182 C   0  0  0  0  0  0
  -23.6289   -8.2241   22.0753 C   0  0  0  0  0  0
  -22.4272   -8.0279   21.3543 C   0  0  0  0  0  0
  -21.9904   -9.0250   20.4645 C   0  0  0  0  0  0
  -22.7231  -10.2130   20.3052 C   0  0  0  0  0  0
  -21.6852   -6.0735   22.5280 C   0  0  0  0  0  0
  -21.4010   -6.5640   23.8212 C   0  0  0  0  0  0
  -21.3657   -5.6792   24.9173 C   0  0  0  0  0  0
  -21.6045   -4.3054   24.7224 C   0  0  0  0  0  0
  -21.8821   -3.8146   23.4346 C   0  0  0  0  0  0
  -21.9193   -4.6963   22.3402 C   0  0  0  0  0  0
  -22.7855  -13.5234   21.1844 C   0  0  0  0  0  0
  -22.1664   -4.2149   21.0980 F   0  0  0  0  0  0
  -21.5628   -3.4539   25.7736 F   0  0  0  0  0  0
  -30.0199  -13.3860   20.4444 N   0  0  0  0  0  0
  -26.3011  -12.9337   20.3366 N   0  0  0  0  0  0
  -25.9324  -11.6494   20.5767 N   0  0  0  0  0  0
  -22.0499  -12.8222   22.0401 N   0  0  0  0  0  0
  -25.4299  -15.1885   20.4149 N   0  0  0  0  0  0
  -31.7552  -14.8146   20.0922 O   0  0  0  0  0  0
  -21.6638   -6.8876   21.4241 O   0  0  0  0  0  0
  -22.3540  -14.5544   20.6704 O   0  0  0  0  0  0
  -24.6241  -31.8602   23.2042 C   0  0  0  0  0  0
  -25.9100  -32.4780   23.8358 C   0  0  1  0  0  0
  -27.2226  -27.3332   20.1235 C   0  0  0  0  0  0
  -25.5923  -33.8581   24.2290 N   0  0  0  0  0  0
  -23.4168  -30.4840   21.5458 C   0  0  2  0  0  0
  -24.8639  -28.9396   20.1118 C   0  0  0  0  0  0
  -22.7463  -29.4620   22.4941 C   0  0  0  0  0  0
  -18.0283  -28.1381   22.8486 C   0  0  0  0  0  0
  -24.1481  -36.7282   23.2640 C   0  0  0  0  0  0
  -25.9558  -30.7962   21.3729 C   0  0  0  0  0  0
  -26.0308  -29.4242   20.7166 C   0  0  0  0  0  0
  -27.2155  -28.6331   20.7107 C   0  0  0  0  0  0
  -26.0395  -26.8995   19.4867 C   0  0  0  0  0  0
  -24.8691  -27.6823   19.4867 C   0  0  0  0  0  0
  -23.6311  -29.8187   20.1605 C   0  0  0  0  0  0
  -25.4107  -36.3079   24.0334 C   0  0  1  0  0  0
  -20.5881  -28.3676   23.1290 C   0  0  2  0  0  0
  -20.6771  -26.9401   22.5414 C   0  0  0  0  0  0
  -19.5751  -26.6381   21.5211 C   0  0  0  0  0  0
  -18.1929  -26.7925   22.1618 C   0  0  0  0  0  0
  -19.1535  -28.8846   23.2885 C   0  0  0  0  0  0
  -18.9465  -30.1450   23.8895 C   0  0  0  0  0  0
  -17.6465  -30.6583   24.0566 C   0  0  0  0  0  0
  -25.9046  -34.9452   23.5109 C   0  0  0  0  0  0
  -16.5355  -29.9083   23.6334 C   0  0  0  0  0  0
  -16.7270  -28.6504   23.0347 C   0  0  0  0  0  0
  -26.4497  -31.6587   25.0722 C   0  0  0  0  0  0
  -25.3743  -31.3724   26.1459 C   0  0  0  0  0  0
  -27.0337  -30.3012   24.6163 C   0  0  0  0  0  0
  -27.6060  -32.4320   25.7488 C   0  0  0  0  0  0
  -27.5578  -37.1790   24.8466 C   0  0  0  0  0  0
  -21.4178  -29.3033   22.3687 N   0  0  0  0  0  0
  -26.4281  -37.3779   23.9423 N   0  0  0  0  0  0
  -24.6843  -31.0630   22.0982 N   0  0  0  0  0  0
  -23.4195  -28.8160   23.3014 O   0  0  0  0  0  0
  -28.3447  -26.4983   20.1476 O   0  0  0  0  0  0
  -26.5611  -34.8919   22.4673 O   0  0  0  0  0  0
  -23.5410  -32.1388   23.7385 O   0  0  0  0  0  0
  -28.7405  -19.2122   21.5268 C   0  0  0  0  0  0
  -30.6951  -17.8473   20.0605 C   0  0  0  0  0  0
  -29.6263  -19.9951   20.7437 C   0  0  0  0  0  0
  -29.8166  -17.0750   20.8656 C   0  0  0  0  0  0
  -28.8155  -17.7834   21.5827 C   0  0  0  0  0  0
  -30.6004  -19.2716   19.9948 C   0  0  0  0  0  0
  -26.2799  -22.5029   18.8928 C   0  0  0  0  0  0
  -26.8557  -17.6467   22.9750 C   0  0  0  0  0  0
  -29.5968  -21.5692   20.8373 C   0  0  0  0  0  0
  -27.1738  -22.0773   20.0669 C   0  0  0  0  0  0
  -28.9549  -23.9885   19.7267 C   0  0  0  0  0  0
  -28.1542  -25.0855   20.5461 C   0  0  0  0  0  0
  -28.6683  -22.4129   19.8696 C   0  0  1  0  0  0
  -29.8124  -15.6200   20.9888 N   0  0  0  0  0  0
  -27.9492  -17.0083   22.3278 O   0  0  0  0  0  0
  -31.7253  -20.1168   18.9920 Cl  0  0  0  0  0  0
  -31.4821  -12.5138   19.1473 H   0  0  0  0  0  0
  -30.3792  -11.3795   19.8743 H   0  0  0  0  0  0
  -29.7680  -11.7685   17.4700 H   0  0  0  0  0  0
  -29.6523  -13.4867   17.7528 H   0  0  0  0  0  0
  -27.8601  -11.2983   18.8534 H   0  0  0  0  0  0
  -27.3755  -12.5968   17.7957 H   0  0  0  0  0  0
  -27.6849  -14.2530   19.5495 H   0  0  0  0  0  0
  -28.7080  -12.0037   21.3524 H   0  0  0  0  0  0
  -28.4434  -13.6393   21.8699 H   0  0  0  0  0  0
  -25.2759   -9.5685   22.4753 H   0  0  0  0  0  0
  -24.0001   -7.4634   22.7470 H   0  0  0  0  0  0
  -21.0837   -8.8766   19.8950 H   0  0  0  0  0  0
  -22.3690  -10.9668   19.6159 H   0  0  0  0  0  0
  -21.1999   -7.6147   23.9715 H   0  0  0  0  0  0
  -21.1477   -6.0522   25.9076 H   0  0  0  0  0  0
  -22.0603   -2.7609   23.2846 H   0  0  0  0  0  0
  -22.4114  -11.9876   22.4775 H   0  0  0  0  0  0
  -21.1121  -13.1251   22.2616 H   0  0  0  0  0  0
  -24.6652  -15.8438   20.5285 H   0  0  0  0  0  0
  -26.2950  -15.6337   20.1366 H   0  0  0  0  0  0
  -26.7164  -32.5455   23.1104 H   0  0  0  0  0  0
  -25.0090  -33.9733   25.0446 H   0  0  0  0  0  0
  -22.7097  -31.3040   21.4036 H   0  0  0  0  0  0
  -23.3755  -35.9602   23.3291 H   0  0  0  0  0  0
  -24.3572  -36.8908   22.2057 H   0  0  0  0  0  0
  -23.7215  -37.6475   23.6663 H   0  0  0  0  0  0
  -26.0850  -31.5609   20.6057 H   0  0  0  0  0  0
  -26.8372  -30.8443   22.0009 H   0  0  0  0  0  0
  -28.1128  -29.0008   21.1884 H   0  0  0  0  0  0
  -26.0105  -25.9424   18.9868 H   0  0  0  0  0  0
  -23.9773  -27.3094   19.0022 H   0  0  0  0  0  0
  -23.7495  -30.5958   19.4042 H   0  0  0  0  0  0
  -22.7514  -29.2479   19.8581 H   0  0  0  0  0  0
  -25.1282  -36.1927   25.0825 H   0  0  0  0  0  0
  -20.9975  -28.3246   24.1410 H   0  0  0  0  0  0
  -20.5665  -26.2286   23.3609 H   0  0  0  0  0  0
  -21.6640  -26.7423   22.1213 H   0  0  0  0  0  0
  -19.6915  -25.6295   21.1235 H   0  0  0  0  0  0
  -19.6697  -27.3199   20.6748 H   0  0  0  0  0  0
  -17.4202  -26.6676   21.4016 H   0  0  0  0  0  0
  -18.0324  -26.0061   22.9007 H   0  0  0  0  0  0
  -19.7944  -30.7269   24.2256 H   0  0  0  0  0  0
  -17.5023  -31.6263   24.5167 H   0  0  0  0  0  0
  -15.5358  -30.2988   23.7662 H   0  0  0  0  0  0
  -15.8666  -28.0830   22.7054 H   0  0  0  0  0  0
  -24.5930  -30.7048   25.7807 H   0  0  0  0  0  0
  -24.8924  -32.2892   26.4869 H   0  0  0  0  0  0
  -25.8087  -30.8931   27.0242 H   0  0  0  0  0  0
  -26.2901  -29.6759   24.1209 H   0  0  0  0  0  0
  -27.4068  -29.7267   25.4652 H   0  0  0  0  0  0
  -27.8752  -30.4301   23.9352 H   0  0  0  0  0  0
  -27.2679  -33.3639   26.2032 H   0  0  0  0  0  0
  -28.3890  -32.6847   25.0325 H   0  0  0  0  0  0
  -28.0699  -31.8463   26.5434 H   0  0  0  0  0  0
  -28.2586  -38.0100   24.7532 H   0  0  0  0  0  0
  -28.1080  -36.2632   24.6256 H   0  0  0  0  0  0
  -27.2302  -37.1391   25.8871 H   0  0  0  0  0  0
  -20.9349  -29.8762   21.6909 H   0  0  0  0  0  0
  -26.0159  -38.2844   24.1460 H   0  0  0  0  0  0
  -28.0054  -19.7445   22.1111 H   0  0  0  0  0  0
  -31.4588  -17.3541   19.4780 H   0  0  0  0  0  0
  -25.2446  -22.2109   19.0715 H   0  0  0  0  0  0
  -26.5967  -22.0275   17.9638 H   0  0  0  0  0  0
  -26.2924  -23.5802   18.7347 H   0  0  0  0  0  0
  -26.2331  -16.8934   23.4581 H   0  0  0  0  0  0
  -26.2264  -18.1831   22.2633 H   0  0  0  0  0  0
  -27.1953  -18.3367   23.7488 H   0  0  0  0  0  0
  -30.6215  -21.9214   20.7185 H   0  0  0  0  0  0
  -29.3435  -21.8311   21.8653 H   0  0  0  0  0  0
  -27.0557  -21.0004   20.1856 H   0  0  0  0  0  0
  -26.8099  -22.5155   20.9969 H   0  0  0  0  0  0
  -30.0217  -24.1639   19.8661 H   0  0  0  0  0  0
  -28.7779  -24.2321   18.6786 H   0  0  0  0  0  0
  -28.4575  -25.0108   21.5908 H   0  0  0  0  0  0
  -27.0992  -24.8214   20.5586 H   0  0  0  0  0  0
  -28.9322  -22.0139   18.8885 H   0  0  0  0  0  0
  -28.9746  -15.2730   21.4318 H   0  0  0  0  0  0
  1 25  1  0  0  0
  1 30  2  0  0  0
  1 84  1  0  0  0
  2  3  1  0  0  0
  2 25  1  0  0  0
  2 87  1  0  0  0
  2 88  1  0  0  0
  3  4  1  0  0  0
  3 89  1  0  0  0
  3 90  1  0  0  0
  4  5  1  0  0  0
  4 91  1  0  0  0
  4 92  1  0  0  0
  5  6  1  0  0  0
  5 26  1  0  0  0
  5 93  1  0  0  0
  6 25  1  0  0  0
  6 94  1  0  0  0
  6 95  1  0  0  0
  7  8  2  0  0  0
  7 26  1  0  0  0
  7 29  1  0  0  0
  8  9  1  0  0  0
  8 22  1  0  0  0
  9 10  1  0  0  0
  9 27  2  0  0  0
 10 11  2  0  0  0
 10 15  1  0  0  0
 11 12  1  0  0  0
 11 96  1  0  0  0
 12 13  2  0  0  0
 12 97  1  0  0  0
 13 14  1  0  0  0
 13 31  1  0  0  0
 14 15  2  0  0  0
 14 98  1  0  0  0
 15 99  1  0  0  0
 16 17  2  0  0  0
 16 21  1  0  0  0
 16 31  1  0  0  0
 17 18  1  0  0  0
 17100  1  0  0  0
 18 19  2  0  0  0
 18101  1  0  0  0
 19 20  1  0  0  0
 19 24  1  0  0  0
 20 21  2  0  0  0
 20102  1  0  0  0
 21 23  1  0  0  0
 22 28  1  0  0  0
 22 32  2  0  0  0
 26 27  1  0  0  0
 28103  1  0  0  0
 28104  1  0  0  0
 29105  1  0  0  0
 29106  1  0  0  0
 33 34  1  0  0  0
 33 66  1  0  0  0
 33 70  2  0  0  0
 34 36  1  0  0  0
 34 59  1  0  0  0
 34107  1  0  0  0
 35 44  2  0  0  0
 35 45  1  0  0  0
 35 68  1  0  0  0
 36 56  1  0  0  0
 36108  1  0  0  0
 37 39  1  0  0  0
 37 47  1  0  0  0
 37 66  1  0  0  0
 37109  1  0  0  0
 38 43  2  0  0  0
 38 46  1  0  0  0
 38 47  1  0  0  0
 39 64  1  0  0  0
 39 67  2  0  0  0
 40 52  1  0  0  0
 40 53  2  0  0  0
 40 58  1  0  0  0
 41110  1  0  0  0
 41111  1  0  0  0
 41112  1  0  0  0
 41 48  1  0  0  0
 42 43  1  0  0  0
 42 66  1  0  0  0
 42113  1  0  0  0
 42114  1  0  0  0
 43 44  1  0  0  0
 44115  1  0  0  0
 45 46  2  0  0  0
 45116  1  0  0  0
 46117  1  0  0  0
 47118  1  0  0  0
 47119  1  0  0  0
 48 56  1  0  0  0
 48 65  1  0  0  0
 48120  1  0  0  0
 49 50  1  0  0  0
 49 53  1  0  0  0
 49 64  1  0  0  0
 49121  1  0  0  0
 50 51  1  0  0  0
 50122  1  0  0  0
 50123  1  0  0  0
 51 52  1  0  0  0
 51124  1  0  0  0
 51125  1  0  0  0
 52126  1  0  0  0
 52127  1  0  0  0
 53 54  1  0  0  0
 54 55  2  0  0  0
 54128  1  0  0  0
 55 57  1  0  0  0
 55129  1  0  0  0
 56 69  2  0  0  0
 57 58  2  0  0  0
 57130  1  0  0  0
 58131  1  0  0  0
 59 60  1  0  0  0
 59 61  1  0  0  0
 59 62  1  0  0  0
 60132  1  0  0  0
 60133  1  0  0  0
 60134  1  0  0  0
 61135  1  0  0  0
 61136  1  0  0  0
 61137  1  0  0  0
 62138  1  0  0  0
 62139  1  0  0  0
 62140  1  0  0  0
 63 65  1  0  0  0
 63141  1  0  0  0
 63142  1  0  0  0
 63143  1  0  0  0
 64144  1  0  0  0
 65145  1  0  0  0
 68 82  1  0  0  0
 71 73  2  0  0  0
 71 75  1  0  0  0
 71146  1  0  0  0
 72 74  1  0  0  0
 72 76  2  0  0  0
 72147  1  0  0  0
 73 76  1  0  0  0
 73 79  1  0  0  0
 74 75  2  0  0  0
 74 84  1  0  0  0
 75 85  1  0  0  0
 76 86  1  0  0  0
 77 80  1  0  0  0
 77148  1  0  0  0
 77149  1  0  0  0
 77150  1  0  0  0
 78 85  1  0  0  0
 78151  1  0  0  0
 78152  1  0  0  0
 78153  1  0  0  0
 79154  1  0  0  0
 79155  1  0  0  0
 79 83  1  0  0  0
 80 83  1  0  0  0
 80156  1  0  0  0
 80157  1  0  0  0
 81 82  1  0  0  0
 81 83  1  0  0  0
 81158  1  0  0  0
 81159  1  0  0  0
 82160  1  0  0  0
 82161  1  0  0  0
 83162  1  0  0  0
 84163  1  0  0  0
M  ISO  4   1 100  68 101  82 101  84 100
M  END
> <chiral flag>
0

> <version>
0

> <s_m_source_file>
/data/baiqing/PycharmProjects/Reinvent-master-3.2/result/LINK_invent/BTK/process_docking_weight1_custom_sum_contain_oxygen_bond_distance_aromatic_linkinvent_7_9_3/rearranged_h_0022.sdf

> <i_m_source_file_index>
29

> <r_mmod_Potential_Energy-OPLS-2005>
55.4905624389648

> <r_mmod_Stretch_Energy-OPLS-2005>
77.4183654785156

> <r_mmod_Bend_Energy-OPLS-2005>
152.801788330078

> <r_mmod_Torsional_Energy-OPLS-2005>
241.197616577148

> <r_mmod_Improper_Torsional_Energy-OPLS-2005>
3.51821732521057

> <r_mmod_Van_der_Waal_Energy-OPLS-2005>
141.182144165039

> <r_mmod_Electrostatic_Energy-OPLS-2005>
-405.906341552734

> <r_mmod_Solvation_Energy-OPLS-2005>
-196.118804931641

> <b_mmod_Minimization_Converged-OPLS-2005>
0

> <r_mmod_RMS_Derivative-OPLS-2005>
0.606861472129822

$$$$
29
                    3D
 Structure written by MMmdl.
150158  0  0  1  0            999 V2000
  -30.3030  -15.5965   20.3294 C   0  0  0  0  0  0
  -30.4331  -13.0498   19.5374 C   0  0  0  0  0  0
  -29.5548  -12.6524   18.3171 C   0  0  0  0  0  0
  -28.1210  -12.3079   18.7528 C   0  0  0  0  0  0
  -27.5999  -13.3061   19.8128 C   0  0  2  0  0  0
  -28.6206  -13.6106   20.9343 C   0  0  0  0  0  0
  -25.2337  -13.8285   20.5783 C   0  0  0  0  0  0
  -24.1727  -13.0435   20.9286 C   0  0  0  0  0  0
  -24.6426  -11.6947   20.8764 C   0  0  0  0  0  0
  -23.9123  -10.4297   21.0407 C   0  0  0  0  0  0
  -24.3650   -9.4208   21.9193 C   0  0  0  0  0  0
  -23.6308   -8.2250   22.0763 C   0  0  0  0  0  0
  -22.4288   -8.0295   21.3550 C   0  0  0  0  0  0
  -21.9936   -9.0275   20.4652 C   0  0  0  0  0  0
  -22.7283  -10.2145   20.3059 C   0  0  0  0  0  0
  -21.6858   -6.0746   22.5279 C   0  0  0  0  0  0
  -21.4020   -6.5647   23.8215 C   0  0  0  0  0  0
  -21.3661   -5.6794   24.9175 C   0  0  0  0  0  0
  -21.6041   -4.3055   24.7225 C   0  0  0  0  0  0
  -21.8816   -3.8151   23.4343 C   0  0  0  0  0  0
  -21.9193   -4.6971   22.3401 C   0  0  0  0  0  0
  -22.7737  -13.5177   21.1907 C   0  0  0  0  0  0
  -22.1661   -4.2160   21.0975 F   0  0  0  0  0  0
  -21.5627   -3.4533   25.7736 F   0  0  0  0  0  0
  -29.8019  -14.2255   20.2852 N   0  0  0  0  0  0
  -26.2789  -12.9615   20.3212 N   0  0  0  0  0  0
  -25.9371  -11.6688   20.5687 N   0  0  0  0  0  0
  -22.0375  -12.8180   22.0457 N   0  0  0  0  0  0
  -25.3909  -15.2028   20.4214 N   0  0  0  0  0  0
  -31.5376  -15.5666   20.1621 O   0  0  0  0  0  0
  -21.6642   -6.8893   21.4243 O   0  0  0  0  0  0
  -22.3426  -14.5471   20.6726 O   0  0  0  0  0  0
  -24.6838  -31.8014   23.1524 C   0  0  0  0  0  0
  -25.9417  -32.4480   23.8077 C   0  0  1  0  0  0
  -27.2289  -26.7112   20.2108 C   0  0  0  0  0  0
  -25.5993  -33.8305   24.1958 N   0  0  0  0  0  0
  -23.5095  -30.4033   21.5071 C   0  0  2  0  0  0
  -24.9676  -28.7466   20.1193 C   0  0  0  0  0  0
  -22.7770  -29.4327   22.4725 C   0  0  0  0  0  0
  -18.0338  -28.1421   22.8454 C   0  0  0  0  0  0
  -24.1494  -36.7164   23.2651 C   0  0  0  0  0  0
  -26.0906  -30.5371   21.4160 C   0  0  0  0  0  0
  -26.1577  -29.1027   20.7651 C   0  0  0  0  0  0
  -27.2747  -28.1136   20.7774 C   0  0  0  0  0  0
  -26.0042  -26.5640   19.5098 C   0  0  0  0  0  0
  -24.9298  -27.5024   19.4678 C   0  0  0  0  0  0
  -23.7631  -29.7004   20.1427 C   0  0  0  0  0  0
  -25.4144  -36.2907   24.0281 C   0  0  1  0  0  0
  -20.5974  -28.3785   23.1142 C   0  0  2  0  0  0
  -20.6807  -26.9445   22.5404 C   0  0  0  0  0  0
  -19.5780  -26.6369   21.5219 C   0  0  0  0  0  0
  -18.1961  -26.7948   22.1619 C   0  0  0  0  0  0
  -19.1604  -28.8928   23.2777 C   0  0  0  0  0  0
  -18.9509  -30.1510   23.8824 C   0  0  0  0  0  0
  -17.6499  -30.6605   24.0547 C   0  0  0  0  0  0
  -25.9126  -34.9295   23.4959 C   0  0  0  0  0  0
  -16.5389  -29.9087   23.6349 C   0  0  0  0  0  0
  -16.7318  -28.6507   23.0371 C   0  0  0  0  0  0
  -26.4590  -31.6516   25.0701 C   0  0  0  0  0  0
  -25.3651  -31.3845   26.1317 C   0  0  0  0  0  0
  -27.0515  -30.2852   24.6603 C   0  0  0  0  0  0
  -27.6038  -32.4375   25.7522 C   0  0  0  0  0  0
  -27.5566  -37.1743   24.8462 C   0  0  0  0  0  0
  -21.4417  -29.3032   22.3468 N   0  0  0  0  0  0
  -26.4274  -37.3664   23.9402 N   0  0  0  0  0  0
  -24.7848  -30.9466   22.0775 N   0  0  0  0  0  0
  -23.4220  -28.7931   23.3068 O   0  0  0  0  0  0
  -28.1879  -25.4899   20.2657 O   0  0  0  0  0  0
  -26.5762  -34.8869   22.4574 O   0  0  0  0  0  0
  -23.5856  -32.1087   23.6473 O   0  0  0  0  0  0
  -29.5100  -19.6971   21.3327 C   0  0  0  0  0  0
  -29.1708  -21.1965   21.3109 C   0  0  0  0  0  0
  -28.6323  -22.0596   20.2152 C   0  0  0  0  0  0
  -28.5479  -20.9976   19.1598 C   0  0  0  0  0  0
  -29.4054  -18.6290   20.2966 C   0  0  0  0  0  0
  -28.8669  -19.4893   19.2069 C   0  0  0  0  0  0
  -29.3606  -21.9182   22.6319 C   0  0  0  0  0  0
  -28.0094  -21.5011   17.8254 C   0  0  0  0  0  0
  -27.8594  -23.7718   20.2179 C   0  0  0  0  0  0
  -29.4780  -16.9094   20.3836 N   0  0  0  0  0  0
  -28.4945  -18.5708   17.7864 Cl  0  0  0  0  0  0
  -31.4286  -13.3130   19.1787 H   0  0  0  0  0  0
  -30.5849  -12.1961   20.2006 H   0  0  0  0  0  0
  -30.0006  -11.8137   17.7812 H   0  0  0  0  0  0
  -29.5288  -13.4853   17.6121 H   0  0  0  0  0  0
  -28.1319  -11.3022   19.1748 H   0  0  0  0  0  0
  -27.4546  -12.2730   17.8901 H   0  0  0  0  0  0
  -27.4698  -14.2377   19.2603 H   0  0  0  0  0  0
  -28.8701  -12.7170   21.5086 H   0  0  0  0  0  0
  -28.1974  -14.3230   21.6440 H   0  0  0  0  0  0
  -25.2794   -9.5685   22.4769 H   0  0  0  0  0  0
  -24.0013   -7.4646   22.7490 H   0  0  0  0  0  0
  -21.0866   -8.8805   19.8960 H   0  0  0  0  0  0
  -22.3750  -10.9686   19.6166 H   0  0  0  0  0  0
  -21.2016   -7.6155   23.9723 H   0  0  0  0  0  0
  -21.1484   -6.0522   25.9079 H   0  0  0  0  0  0
  -22.0591   -2.7613   23.2833 H   0  0  0  0  0  0
  -22.3991  -11.9871   22.4900 H   0  0  0  0  0  0
  -21.0981  -13.1211   22.2606 H   0  0  0  0  0  0
  -24.6120  -15.8434   20.5278 H   0  0  0  0  0  0
  -26.2173  -15.6437   20.0415 H   0  0  0  0  0  0
  -26.7509  -32.4956   23.0800 H   0  0  0  0  0  0
  -25.0049  -33.9356   25.0048 H   0  0  0  0  0  0
  -22.8344  -31.2404   21.3173 H   0  0  0  0  0  0
  -23.3776  -35.9476   23.3272 H   0  0  0  0  0  0
  -24.3558  -36.8870   22.2074 H   0  0  0  0  0  0
  -23.7242  -37.6327   23.6756 H   0  0  0  0  0  0
  -26.2925  -31.2639   20.6282 H   0  0  0  0  0  0
  -26.9408  -30.6045   22.0822 H   0  0  0  0  0  0
  -28.1709  -28.3931   21.3132 H   0  0  0  0  0  0
  -25.8356  -25.6241   19.0045 H   0  0  0  0  0  0
  -24.0320  -27.2206   18.9347 H   0  0  0  0  0  0
  -23.9382  -30.4601   19.3801 H   0  0  0  0  0  0
  -22.8681  -29.1667   19.8181 H   0  0  0  0  0  0
  -25.1357  -36.1675   25.0774 H   0  0  0  0  0  0
  -21.0050  -28.3409   24.1270 H   0  0  0  0  0  0
  -20.5674  -26.2412   23.3669 H   0  0  0  0  0  0
  -21.6668  -26.7394   22.1220 H   0  0  0  0  0  0
  -19.6940  -25.6258   21.1300 H   0  0  0  0  0  0
  -19.6718  -27.3135   20.6714 H   0  0  0  0  0  0
  -17.4235  -26.6693   21.4018 H   0  0  0  0  0  0
  -18.0345  -26.0109   22.9030 H   0  0  0  0  0  0
  -19.7987  -30.7337   24.2170 H   0  0  0  0  0  0
  -17.5053  -31.6279   24.5160 H   0  0  0  0  0  0
  -15.5386  -30.2963   23.7716 H   0  0  0  0  0  0
  -15.8720  -28.0794   22.7137 H   0  0  0  0  0  0
  -24.5849  -30.7182   25.7622 H   0  0  0  0  0  0
  -24.8823  -32.3070   26.4546 H   0  0  0  0  0  0
  -25.7819  -30.9136   27.0229 H   0  0  0  0  0  0
  -26.3232  -29.6473   24.1586 H   0  0  0  0  0  0
  -27.3927  -29.7295   25.5348 H   0  0  0  0  0  0
  -27.9220  -30.3976   24.0139 H   0  0  0  0  0  0
  -27.2578  -33.3741   26.1908 H   0  0  0  0  0  0
  -28.3948  -32.6839   25.0427 H   0  0  0  0  0  0
  -28.0601  -31.8638   26.5599 H   0  0  0  0  0  0
  -28.2556  -38.0064   24.7507 H   0  0  0  0  0  0
  -28.1091  -36.2586   24.6294 H   0  0  0  0  0  0
  -27.2281  -37.1388   25.8865 H   0  0  0  0  0  0
  -20.9735  -29.8686   21.6524 H   0  0  0  0  0  0
  -26.0106  -38.2720   24.1396 H   0  0  0  0  0  0
  -29.8387  -19.3206   22.2904 H   0  0  0  0  0  0
  -29.9530  -21.3324   23.3357 H   0  0  0  0  0  0
  -28.3948  -22.1256   23.0932 H   0  0  0  0  0  0
  -29.8761  -22.8671   22.4788 H   0  0  0  0  0  0
  -28.0609  -22.5843   17.7361 H   0  0  0  0  0  0
  -26.9723  -21.1938   17.6909 H   0  0  0  0  0  0
  -28.5942  -21.1147   16.9910 H   0  0  0  0  0  0
  -27.1982  -23.6787   21.0796 H   0  0  0  0  0  0
  -27.1639  -23.7141   19.3830 H   0  0  0  0  0  0
  -28.5254  -16.5807   20.4337 H   0  0  0  0  0  0
  1 25  1  0  0  0
  1 30  2  0  0  0
  1 80  1  0  0  0
  2  3  1  0  0  0
  2 25  1  0  0  0
  2 82  1  0  0  0
  2 83  1  0  0  0
  3  4  1  0  0  0
  3 84  1  0  0  0
  3 85  1  0  0  0
  4  5  1  0  0  0
  4 86  1  0  0  0
  4 87  1  0  0  0
  5  6  1  0  0  0
  5 26  1  0  0  0
  5 88  1  0  0  0
  6 25  1  0  0  0
  6 89  1  0  0  0
  6 90  1  0  0  0
  7  8  2  0  0  0
  7 26  1  0  0  0
  7 29  1  0  0  0
  8  9  1  0  0  0
  8 22  1  0  0  0
  9 10  1  0  0  0
  9 27  2  0  0  0
 10 11  2  0  0  0
 10 15  1  0  0  0
 11 12  1  0  0  0
 11 91  1  0  0  0
 12 13  2  0  0  0
 12 92  1  0  0  0
 13 14  1  0  0  0
 13 31  1  0  0  0
 14 15  2  0  0  0
 14 93  1  0  0  0
 15 94  1  0  0  0
 16 17  2  0  0  0
 16 21  1  0  0  0
 16 31  1  0  0  0
 17 18  1  0  0  0
 17 95  1  0  0  0
 18 19  2  0  0  0
 18 96  1  0  0  0
 19 20  1  0  0  0
 19 24  1  0  0  0
 20 21  2  0  0  0
 20 97  1  0  0  0
 21 23  1  0  0  0
 22 28  1  0  0  0
 22 32  2  0  0  0
 26 27  1  0  0  0
 28 98  1  0  0  0
 28 99  1  0  0  0
 29100  1  0  0  0
 29101  1  0  0  0
 33 34  1  0  0  0
 33 66  1  0  0  0
 33 70  2  0  0  0
 34 36  1  0  0  0
 34 59  1  0  0  0
 34102  1  0  0  0
 35 44  2  0  0  0
 35 45  1  0  0  0
 35 68  1  0  0  0
 36 56  1  0  0  0
 36103  1  0  0  0
 37 39  1  0  0  0
 37 47  1  0  0  0
 37 66  1  0  0  0
 37104  1  0  0  0
 38 43  2  0  0  0
 38 46  1  0  0  0
 38 47  1  0  0  0
 39 64  1  0  0  0
 39 67  2  0  0  0
 40 52  1  0  0  0
 40 53  2  0  0  0
 40 58  1  0  0  0
 41105  1  0  0  0
 41106  1  0  0  0
 41107  1  0  0  0
 41 48  1  0  0  0
 42 43  1  0  0  0
 42 66  1  0  0  0
 42108  1  0  0  0
 42109  1  0  0  0
 43 44  1  0  0  0
 44110  1  0  0  0
 45 46  2  0  0  0
 45111  1  0  0  0
 46112  1  0  0  0
 47113  1  0  0  0
 47114  1  0  0  0
 48 56  1  0  0  0
 48 65  1  0  0  0
 48115  1  0  0  0
 49 50  1  0  0  0
 49 53  1  0  0  0
 49 64  1  0  0  0
 49116  1  0  0  0
 50 51  1  0  0  0
 50117  1  0  0  0
 50118  1  0  0  0
 51 52  1  0  0  0
 51119  1  0  0  0
 51120  1  0  0  0
 52121  1  0  0  0
 52122  1  0  0  0
 53 54  1  0  0  0
 54 55  2  0  0  0
 54123  1  0  0  0
 55 57  1  0  0  0
 55124  1  0  0  0
 56 69  2  0  0  0
 57 58  2  0  0  0
 57125  1  0  0  0
 58126  1  0  0  0
 59 60  1  0  0  0
 59 61  1  0  0  0
 59 62  1  0  0  0
 60127  1  0  0  0
 60128  1  0  0  0
 60129  1  0  0  0
 61130  1  0  0  0
 61131  1  0  0  0
 61132  1  0  0  0
 62133  1  0  0  0
 62134  1  0  0  0
 62135  1  0  0  0
 63 65  1  0  0  0
 63136  1  0  0  0
 63137  1  0  0  0
 63138  1  0  0  0
 64139  1  0  0  0
 65140  1  0  0  0
 68 79  1  0  0  0
 71 72  2  0  0  0
 71 75  1  0  0  0
 71141  1  0  0  0
 72 73  1  0  0  0
 72 77  1  0  0  0
 73 74  2  0  0  0
 73 79  1  0  0  0
 74 76  1  0  0  0
 74 78  1  0  0  0
 75 76  2  0  0  0
 75 80  1  0  0  0
 76 81  1  0  0  0
 77142  1  0  0  0
 77143  1  0  0  0
 77144  1  0  0  0
 78145  1  0  0  0
 78146  1  0  0  0
 78147  1  0  0  0
 79148  1  0  0  0
 79149  1  0  0  0
 80150  1  0  0  0
M  ISO  4   1 100  68 101  79 101  80 100
M  END
> <chiral flag>
0

> <version>
0

> <s_m_source_file>
/data/baiqing/PycharmProjects/Reinvent-master-3.2/result/LINK_invent/BTK/process_docking_weight1_custom_sum_contain_oxygen_bond_distance_aromatic_linkinvent_7_9_3/rearranged_h_0022.sdf

> <i_m_source_file_index>
30

> <r_mmod_Potential_Energy-OPLS-2005>
2270.41796875

> <r_mmod_Stretch_Energy-OPLS-2005>
928.454040527344

> <r_mmod_Bend_Energy-OPLS-2005>
647.606750488281

> <r_mmod_Torsional_Energy-OPLS-2005>
265.037506103516

> <r_mmod_Improper_Torsional_Energy-OPLS-2005>
10.5070247650146

> <r_mmod_Van_der_Waal_Energy-OPLS-2005>
134.255126953125

> <r_mmod_Electrostatic_Energy-OPLS-2005>
-369.675018310547

> <r_mmod_Solvation_Energy-OPLS-2005>
-208.952545166016

> <b_mmod_Minimization_Converged-OPLS-2005>
0

> <r_mmod_RMS_Derivative-OPLS-2005>
1.01162612438202

$$$$
30
                    3D
 Structure written by MMmdl.
170178  0  0  1  0            999 V2000
  -30.7330  -14.3625   20.6987 C   0  0  0  0  0  0
  -30.4297  -12.2937   19.3775 C   0  0  0  0  0  0
  -29.4868  -12.5322   18.1819 C   0  0  0  0  0  0
  -28.0093  -12.3849   18.5993 C   0  0  0  0  0  0
  -27.6715  -13.1893   19.8826 C   0  0  2  0  0  0
  -28.7099  -12.8869   20.9829 C   0  0  0  0  0  0
  -25.2648  -13.8119   20.5625 C   0  0  0  0  0  0
  -24.1872  -13.0434   20.9142 C   0  0  0  0  0  0
  -24.6402  -11.6892   20.8730 C   0  0  0  0  0  0
  -23.9054  -10.4291   21.0416 C   0  0  0  0  0  0
  -24.3605   -9.4207   21.9199 C   0  0  0  0  0  0
  -23.6287   -8.2236   22.0769 C   0  0  0  0  0  0
  -22.4269   -8.0273   21.3553 C   0  0  0  0  0  0
  -21.9898   -9.0250   20.4656 C   0  0  0  0  0  0
  -22.7224  -10.2131   20.3070 C   0  0  0  0  0  0
  -21.6855   -6.0728   22.5289 C   0  0  0  0  0  0
  -21.4014   -6.5640   23.8215 C   0  0  0  0  0  0
  -21.3660   -5.6796   24.9183 C   0  0  0  0  0  0
  -21.6044   -4.3058   24.7233 C   0  0  0  0  0  0
  -21.8817   -3.8144   23.4357 C   0  0  0  0  0  0
  -21.9190   -4.6959   22.3411 C   0  0  0  0  0  0
  -22.7901  -13.5270   21.1802 C   0  0  0  0  0  0
  -22.1667   -4.2145   21.0992 F   0  0  0  0  0  0
  -21.5618   -3.4540   25.7744 F   0  0  0  0  0  0
  -30.0488  -13.2159   20.4548 N   0  0  0  0  0  0
  -26.3084  -12.9262   20.3381 N   0  0  0  0  0  0
  -25.9325  -11.6442   20.5753 N   0  0  0  0  0  0
  -22.0527  -12.8293   22.0373 N   0  0  0  0  0  0
  -25.4406  -15.1810   20.3985 N   0  0  0  0  0  0
  -31.7611  -14.6900   20.0950 O   0  0  0  0  0  0
  -21.6642   -6.8869   21.4243 O   0  0  0  0  0  0
  -22.3595  -14.5563   20.6619 O   0  0  0  0  0  0
  -24.6114  -31.8709   23.2135 C   0  0  0  0  0  0
  -25.9022  -32.4846   23.8411 C   0  0  1  0  0  0
  -27.2395  -27.4757   20.0795 C   0  0  0  0  0  0
  -25.5893  -33.8643   24.2346 N   0  0  0  0  0  0
  -23.3981  -30.4935   21.5526 C   0  0  2  0  0  0
  -24.8461  -28.9635   20.1192 C   0  0  0  0  0  0
  -22.7387  -29.4672   22.5010 C   0  0  0  0  0  0
  -18.0268  -28.1368   22.8472 C   0  0  0  0  0  0
  -24.1486  -36.7325   23.2630 C   0  0  0  0  0  0
  -25.9230  -30.8454   21.3645 C   0  0  0  0  0  0
  -26.0023  -29.4811   20.7167 C   0  0  0  0  0  0
  -27.2021  -28.7397   20.7026 C   0  0  0  0  0  0
  -26.0721  -26.9676   19.4743 C   0  0  0  0  0  0
  -24.8728  -27.7025   19.5000 C   0  0  0  0  0  0
  -23.6065  -29.8259   20.1674 C   0  0  0  0  0  0
  -25.4105  -36.3127   24.0335 C   0  0  1  0  0  0
  -20.5857  -28.3639   23.1308 C   0  0  2  0  0  0
  -20.6772  -26.9383   22.5374 C   0  0  0  0  0  0
  -19.5742  -26.6360   21.5194 C   0  0  0  0  0  0
  -18.1913  -26.7917   22.1589 C   0  0  0  0  0  0
  -19.1514  -28.8815   23.2904 C   0  0  0  0  0  0
  -18.9447  -30.1420   23.8923 C   0  0  0  0  0  0
  -17.6448  -30.6567   24.0586 C   0  0  0  0  0  0
  -25.9025  -34.9494   23.5139 C   0  0  0  0  0  0
  -16.5343  -29.9078   23.6323 C   0  0  0  0  0  0
  -16.7261  -28.6507   23.0316 C   0  0  0  0  0  0
  -26.4472  -31.6613   25.0719 C   0  0  0  0  0  0
  -25.3746  -31.3711   26.1469 C   0  0  0  0  0  0
  -27.0289  -30.3050   24.6070 C   0  0  0  0  0  0
  -27.6047  -32.4324   25.7481 C   0  0  0  0  0  0
  -27.5585  -37.1817   24.8463 C   0  0  0  0  0  0
  -21.4113  -29.3049   22.3752 N   0  0  0  0  0  0
  -26.4298  -37.3802   23.9410 N   0  0  0  0  0  0
  -24.6619  -31.0832   22.1026 N   0  0  0  0  0  0
  -23.4170  -28.8196   23.3032 O   0  0  0  0  0  0
  -28.4063  -26.7546   20.0414 O   0  0  0  0  0  0
  -26.5580  -34.8927   22.4686 O   0  0  0  0  0  0
  -23.5312  -32.1434   23.7554 O   0  0  0  0  0  0
  -28.7657  -19.7068   21.4037 C   0  0  0  0  0  0
  -29.7910  -18.7455   21.5316 C   0  0  0  0  0  0
  -29.5098  -17.4664   22.0872 C   0  0  0  0  0  0
  -28.1839  -17.1970   22.5467 C   0  0  0  0  0  0
  -27.4449  -19.4092   21.7806 C   0  0  0  0  0  0
  -27.1509  -18.1431   22.3321 C   0  0  0  0  0  0
  -31.1866  -19.1295   21.0578 C   0  0  0  0  0  0
  -27.8249  -15.9190   23.2994 C   0  0  0  0  0  0
  -25.1225  -21.0462   23.5479 C   0  0  0  0  0  0
  -30.6202  -16.4053   22.1823 C   0  0  0  0  0  0
  -27.5729  -23.4976   21.8473 C   0  0  0  0  0  0
  -28.0252  -24.4120   20.6717 C   0  0  0  0  0  0
  -26.1974  -22.7842   22.0476 C   0  0  0  0  0  0
  -28.5314  -25.8132   21.1042 C   0  0  0  0  0  0
  -26.3229  -21.3634   22.6412 C   0  0  2  0  0  0
  -26.4294  -20.3569   21.5869 N   0  0  0  0  0  0
  -30.2013  -15.1027   21.6764 N   0  0  0  0  0  0
  -25.5088  -17.7495   22.7348 Cl  0  0  0  0  0  0
  -31.4703  -12.4198   19.0726 H   0  0  0  0  0  0
  -30.3481  -11.2624   19.7260 H   0  0  0  0  0  0
  -29.7165  -11.8351   17.3746 H   0  0  0  0  0  0
  -29.6552  -13.5314   17.7787 H   0  0  0  0  0  0
  -27.8116  -11.3235   18.7598 H   0  0  0  0  0  0
  -27.3574  -12.6923   17.7817 H   0  0  0  0  0  0
  -27.7413  -14.2477   19.6326 H   0  0  0  0  0  0
  -28.6827  -11.8265   21.2384 H   0  0  0  0  0  0
  -28.4538  -13.3922   21.9114 H   0  0  0  0  0  0
  -25.2737   -9.5687   22.4787 H   0  0  0  0  0  0
  -23.9990   -7.4634   22.7490 H   0  0  0  0  0  0
  -21.0828   -8.8764   19.8966 H   0  0  0  0  0  0
  -22.3678  -10.9676   19.6187 H   0  0  0  0  0  0
  -21.2004   -7.6146   23.9718 H   0  0  0  0  0  0
  -21.1498   -6.0530   25.9088 H   0  0  0  0  0  0
  -22.0595   -2.7607   23.2864 H   0  0  0  0  0  0
  -22.4127  -11.9983   22.4824 H   0  0  0  0  0  0
  -21.1152  -13.1361   22.2553 H   0  0  0  0  0  0
  -24.6940  -15.8456   20.5626 H   0  0  0  0  0  0
  -26.3103  -15.6226   20.1319 H   0  0  0  0  0  0
  -26.7103  -32.5591   23.1191 H   0  0  0  0  0  0
  -25.0094  -33.9823   25.0525 H   0  0  0  0  0  0
  -22.6852  -31.3100   21.4155 H   0  0  0  0  0  0
  -23.3749  -35.9661   23.3308 H   0  0  0  0  0  0
  -24.3568  -36.8912   22.2039 H   0  0  0  0  0  0
  -23.7244  -37.6537   23.6630 H   0  0  0  0  0  0
  -26.0286  -31.6128   20.5965 H   0  0  0  0  0  0
  -26.8134  -30.9009   21.9793 H   0  0  0  0  0  0
  -28.0963  -29.1367   21.1617 H   0  0  0  0  0  0
  -26.0859  -26.0164   18.9654 H   0  0  0  0  0  0
  -23.9859  -27.3020   19.0280 H   0  0  0  0  0  0
  -23.7153  -30.5989   19.4046 H   0  0  0  0  0  0
  -22.7333  -29.2398   19.8751 H   0  0  0  0  0  0
  -25.1289  -36.1991   25.0830 H   0  0  0  0  0  0
  -20.9926  -28.3180   24.1431 H   0  0  0  0  0  0
  -20.5723  -26.2224   23.3535 H   0  0  0  0  0  0
  -21.6636  -26.7430   22.1131 H   0  0  0  0  0  0
  -19.6684  -27.3135   20.6705 H   0  0  0  0  0  0
  -19.6896  -25.6267   21.1224 H   0  0  0  0  0  0
  -18.0249  -26.0042   22.8957 H   0  0  0  0  0  0
  -17.4215  -26.6713   21.3957 H   0  0  0  0  0  0
  -19.7928  -30.7225   24.2282 H   0  0  0  0  0  0
  -17.4990  -31.6235   24.5204 H   0  0  0  0  0  0
  -15.5341  -30.2982   23.7655 H   0  0  0  0  0  0
  -15.8665  -28.0841   22.7008 H   0  0  0  0  0  0
  -24.5908  -30.7067   25.7811 H   0  0  0  0  0  0
  -24.8952  -32.2868   26.4944 H   0  0  0  0  0  0
  -25.8093  -30.8861   27.0212 H   0  0  0  0  0  0
  -26.2823  -29.6816   24.1128 H   0  0  0  0  0  0
  -27.4067  -29.7274   25.4523 H   0  0  0  0  0  0
  -27.8662  -30.4369   23.9204 H   0  0  0  0  0  0
  -27.2665  -33.3602   26.2108 H   0  0  0  0  0  0
  -28.3836  -32.6911   25.0296 H   0  0  0  0  0  0
  -28.0745  -31.8417   26.5356 H   0  0  0  0  0  0
  -28.2617  -38.0105   24.7509 H   0  0  0  0  0  0
  -28.1065  -36.2632   24.6300 H   0  0  0  0  0  0
  -27.2293  -37.1489   25.8862 H   0  0  0  0  0  0
  -20.9262  -29.8787   21.7002 H   0  0  0  0  0  0
  -26.0192  -38.2878   24.1409 H   0  0  0  0  0  0
  -28.9866  -20.6722   20.9717 H   0  0  0  0  0  0
  -31.2305  -20.1712   20.7387 H   0  0  0  0  0  0
  -31.4914  -18.5169   20.2088 H   0  0  0  0  0  0
  -31.9178  -19.0063   21.8572 H   0  0  0  0  0  0
  -27.3098  -15.2226   22.6390 H   0  0  0  0  0  0
  -27.1513  -16.1408   24.1270 H   0  0  0  0  0  0
  -28.6820  -15.4241   23.7531 H   0  0  0  0  0  0
  -24.1899  -20.9914   22.9828 H   0  0  0  0  0  0
  -24.9917  -21.8094   24.3158 H   0  0  0  0  0  0
  -25.2552  -20.1041   24.0779 H   0  0  0  0  0  0
  -30.9038  -16.2930   23.2298 H   0  0  0  0  0  0
  -31.5302  -16.7071   21.6682 H   0  0  0  0  0  0
  -27.6985  -22.7103   21.1032 H   0  0  0  0  0  0
  -26.9256  -24.3607   21.9861 H   0  0  0  0  0  0
  -27.2056  -24.4983   19.9575 H   0  0  0  0  0  0
  -28.8359  -23.9575   20.0956 H   0  0  0  0  0  0
  -25.6200  -22.7602   21.1182 H   0  0  0  0  0  0
  -25.5566  -23.3450   22.7412 H   0  0  0  0  0  0
  -29.5808  -25.7412   21.3902 H   0  0  0  0  0  0
  -28.0187  -26.1889   21.9931 H   0  0  0  0  0  0
  -27.2141  -21.3400   23.2729 H   0  0  0  0  0  0
  -25.5421  -19.8780   21.4675 H   0  0  0  0  0  0
  -29.3751  -14.7162   22.1032 H   0  0  0  0  0  0
  1 25  1  0  0  0
  1 30  2  0  0  0
  1 87  1  0  0  0
  2  3  1  0  0  0
  2 25  1  0  0  0
  2 89  1  0  0  0
  2 90  1  0  0  0
  3  4  1  0  0  0
  3 91  1  0  0  0
  3 92  1  0  0  0
  4  5  1  0  0  0
  4 93  1  0  0  0
  4 94  1  0  0  0
  5  6  1  0  0  0
  5 26  1  0  0  0
  5 95  1  0  0  0
  6 25  1  0  0  0
  6 96  1  0  0  0
  6 97  1  0  0  0
  7  8  2  0  0  0
  7 26  1  0  0  0
  7 29  1  0  0  0
  8  9  1  0  0  0
  8 22  1  0  0  0
  9 10  1  0  0  0
  9 27  2  0  0  0
 10 11  2  0  0  0
 10 15  1  0  0  0
 11 12  1  0  0  0
 11 98  1  0  0  0
 12 13  2  0  0  0
 12 99  1  0  0  0
 13 14  1  0  0  0
 13 31  1  0  0  0
 14 15  2  0  0  0
 14100  1  0  0  0
 15101  1  0  0  0
 16 17  2  0  0  0
 16 21  1  0  0  0
 16 31  1  0  0  0
 17 18  1  0  0  0
 17102  1  0  0  0
 18 19  2  0  0  0
 18103  1  0  0  0
 19 20  1  0  0  0
 19 24  1  0  0  0
 20 21  2  0  0  0
 20104  1  0  0  0
 21 23  1  0  0  0
 22 28  1  0  0  0
 22 32  2  0  0  0
 26 27  1  0  0  0
 28105  1  0  0  0
 28106  1  0  0  0
 29107  1  0  0  0
 29108  1  0  0  0
 33 34  1  0  0  0
 33 66  1  0  0  0
 33 70  2  0  0  0
 34 36  1  0  0  0
 34 59  1  0  0  0
 34109  1  0  0  0
 35 44  2  0  0  0
 35 45  1  0  0  0
 35 68  1  0  0  0
 36 56  1  0  0  0
 36110  1  0  0  0
 37 39  1  0  0  0
 37 47  1  0  0  0
 37 66  1  0  0  0
 37111  1  0  0  0
 38 43  2  0  0  0
 38 46  1  0  0  0
 38 47  1  0  0  0
 39 64  1  0  0  0
 39 67  2  0  0  0
 40 52  1  0  0  0
 40 53  2  0  0  0
 40 58  1  0  0  0
 41112  1  0  0  0
 41113  1  0  0  0
 41114  1  0  0  0
 41 48  1  0  0  0
 42 43  1  0  0  0
 42 66  1  0  0  0
 42115  1  0  0  0
 42116  1  0  0  0
 43 44  1  0  0  0
 44117  1  0  0  0
 45 46  2  0  0  0
 45118  1  0  0  0
 46119  1  0  0  0
 47120  1  0  0  0
 47121  1  0  0  0
 48 56  1  0  0  0
 48 65  1  0  0  0
 48122  1  0  0  0
 49 50  1  0  0  0
 49 53  1  0  0  0
 49 64  1  0  0  0
 49123  1  0  0  0
 50 51  1  0  0  0
 50124  1  0  0  0
 50125  1  0  0  0
 51 52  1  0  0  0
 51126  1  0  0  0
 51127  1  0  0  0
 52128  1  0  0  0
 52129  1  0  0  0
 53 54  1  0  0  0
 54 55  2  0  0  0
 54130  1  0  0  0
 55 57  1  0  0  0
 55131  1  0  0  0
 56 69  2  0  0  0
 57 58  2  0  0  0
 57132  1  0  0  0
 58133  1  0  0  0
 59 60  1  0  0  0
 59 61  1  0  0  0
 59 62  1  0  0  0
 60134  1  0  0  0
 60135  1  0  0  0
 60136  1  0  0  0
 61137  1  0  0  0
 61138  1  0  0  0
 61139  1  0  0  0
 62140  1  0  0  0
 62141  1  0  0  0
 62142  1  0  0  0
 63 65  1  0  0  0
 63143  1  0  0  0
 63144  1  0  0  0
 63145  1  0  0  0
 64146  1  0  0  0
 65147  1  0  0  0
 68 84  1  0  0  0
 71 72  2  0  0  0
 71 75  1  0  0  0
 71148  1  0  0  0
 72 73  1  0  0  0
 72 77  1  0  0  0
 73 74  2  0  0  0
 73 80  1  0  0  0
 74 76  1  0  0  0
 74 78  1  0  0  0
 75 76  2  0  0  0
 75 86  1  0  0  0
 76 88  1  0  0  0
 77149  1  0  0  0
 77150  1  0  0  0
 77151  1  0  0  0
 78152  1  0  0  0
 78153  1  0  0  0
 78154  1  0  0  0
 79155  1  0  0  0
 79156  1  0  0  0
 79157  1  0  0  0
 79 85  1  0  0  0
 80 87  1  0  0  0
 80158  1  0  0  0
 80159  1  0  0  0
 81 82  1  0  0  0
 81 83  1  0  0  0
 81160  1  0  0  0
 81161  1  0  0  0
 82 84  1  0  0  0
 82162  1  0  0  0
 82163  1  0  0  0
 83 85  1  0  0  0
 83164  1  0  0  0
 83165  1  0  0  0
 84166  1  0  0  0
 84167  1  0  0  0
 85 86  1  0  0  0
 85168  1  0  0  0
 86169  1  0  0  0
 87170  1  0  0  0
M  ISO  4   1 100  68 101  84 101  87 100
M  END
> <chiral flag>
0

> <version>
0

> <s_m_source_file>
/data/baiqing/PycharmProjects/Reinvent-master-3.2/result/LINK_invent/BTK/process_docking_weight1_custom_sum_contain_oxygen_bond_distance_aromatic_linkinvent_7_9_3/rearranged_h_0022.sdf

> <i_m_source_file_index>
31

> <r_mmod_Potential_Energy-OPLS-2005>
193.680541992188

> <r_mmod_Stretch_Energy-OPLS-2005>
37.8388366699219

> <r_mmod_Bend_Energy-OPLS-2005>
319.771118164062

> <r_mmod_Torsional_Energy-OPLS-2005>
261.194885253906

> <r_mmod_Improper_Torsional_Energy-OPLS-2005>
7.40885877609253

> <r_mmod_Van_der_Waal_Energy-OPLS-2005>
177.665573120117

> <r_mmod_Electrostatic_Energy-OPLS-2005>
-424.016967773438

> <r_mmod_Solvation_Energy-OPLS-2005>
-193.593826293945

> <b_mmod_Minimization_Converged-OPLS-2005>
0

> <r_mmod_RMS_Derivative-OPLS-2005>
2.04166626930237

$$$$
31
                    3D
 Structure written by MMmdl.
150158  0  0  1  0            999 V2000
  -30.4417  -15.1848   20.3823 C   0  0  0  0  0  0
  -30.4476  -12.7484   19.5232 C   0  0  0  0  0  0
  -29.5368  -12.5721   18.2818 C   0  0  0  0  0  0
  -28.0784  -12.3128   18.7015 C   0  0  0  0  0  0
  -27.6198  -13.2682   19.8318 C   0  0  2  0  0  0
  -28.6569  -13.3876   20.9692 C   0  0  0  0  0  0
  -25.2394  -13.8213   20.5695 C   0  0  0  0  0  0
  -24.1746  -13.0416   20.9230 C   0  0  0  0  0  0
  -24.6406  -11.6918   20.8757 C   0  0  0  0  0  0
  -23.9095  -10.4284   21.0405 C   0  0  0  0  0  0
  -24.3637   -9.4199   21.9185 C   0  0  0  0  0  0
  -23.6302   -8.2239   22.0755 C   0  0  0  0  0  0
  -22.4284   -8.0282   21.3544 C   0  0  0  0  0  0
  -21.9927   -9.0257   20.4645 C   0  0  0  0  0  0
  -22.7264  -10.2130   20.3054 C   0  0  0  0  0  0
  -21.6854   -6.0736   22.5279 C   0  0  0  0  0  0
  -21.4016   -6.5640   23.8213 C   0  0  0  0  0  0
  -21.3660   -5.6792   24.9175 C   0  0  0  0  0  0
  -21.6044   -4.3054   24.7226 C   0  0  0  0  0  0
  -21.8817   -3.8146   23.4346 C   0  0  0  0  0  0
  -21.9193   -4.6963   22.3402 C   0  0  0  0  0  0
  -22.7766  -13.5179   21.1893 C   0  0  0  0  0  0
  -22.1660   -4.2148   21.0977 F   0  0  0  0  0  0
  -21.5629   -3.4537   25.7738 F   0  0  0  0  0  0
  -29.9052  -13.8736   20.3603 N   0  0  0  0  0  0
  -26.2848  -12.9494   20.3232 N   0  0  0  0  0  0
  -25.9348  -11.6605   20.5735 N   0  0  0  0  0  0
  -22.0429  -12.8164   22.0455 N   0  0  0  0  0  0
  -25.3975  -15.1933   20.4081 N   0  0  0  0  0  0
  -31.6511  -15.2349   20.1227 O   0  0  0  0  0  0
  -21.6641   -6.8883   21.4242 O   0  0  0  0  0  0
  -22.3438  -14.5479   20.6737 O   0  0  0  0  0  0
  -24.6579  -31.8274   23.1735 C   0  0  0  0  0  0
  -25.9281  -32.4604   23.8185 C   0  0  1  0  0  0
  -27.2248  -26.9825   20.1783 C   0  0  0  0  0  0
  -25.5969  -33.8419   24.2091 N   0  0  0  0  0  0
  -23.4704  -30.4400   21.5212 C   0  0  2  0  0  0
  -24.9245  -28.8350   20.1111 C   0  0  0  0  0  0
  -22.7641  -29.4457   22.4789 C   0  0  0  0  0  0
  -18.0317  -28.1407   22.8466 C   0  0  0  0  0  0
  -24.1494  -36.7220   23.2646 C   0  0  0  0  0  0
  -26.0356  -30.6530   21.3941 C   0  0  0  0  0  0
  -26.1062  -29.2477   20.7391 C   0  0  0  0  0  0
  -27.2525  -28.3422   20.7470 C   0  0  0  0  0  0
  -26.0140  -26.7051   19.5065 C   0  0  0  0  0  0
  -24.9004  -27.5830   19.4747 C   0  0  0  0  0  0
  -23.7079  -29.7567   20.1464 C   0  0  0  0  0  0
  -25.4130  -36.2974   24.0299 C   0  0  1  0  0  0
  -20.5938  -28.3746   23.1196 C   0  0  2  0  0  0
  -20.6795  -26.9429   22.5403 C   0  0  0  0  0  0
  -19.5771  -26.6376   21.5214 C   0  0  0  0  0  0
  -18.1953  -26.7939   22.1622 C   0  0  0  0  0  0
  -19.1578  -28.8895   23.2821 C   0  0  0  0  0  0
  -18.9491  -30.1486   23.8855 C   0  0  0  0  0  0
  -17.6487  -30.6598   24.0556 C   0  0  0  0  0  0
  -25.9091  -34.9357   23.5013 C   0  0  0  0  0  0
  -16.5375  -29.9088   23.6341 C   0  0  0  0  0  0
  -16.7301  -28.6508   23.0359 C   0  0  0  0  0  0
  -26.4551  -31.6538   25.0697 C   0  0  0  0  0  0
  -25.3698  -31.3780   26.1370 C   0  0  0  0  0  0
  -27.0440  -30.2910   24.6395 C   0  0  0  0  0  0
  -27.6042  -32.4346   25.7506 C   0  0  0  0  0  0
  -27.5566  -37.1767   24.8464 C   0  0  0  0  0  0
  -21.4315  -29.3042   22.3547 N   0  0  0  0  0  0
  -26.4277  -37.3708   23.9404 N   0  0  0  0  0  0
  -24.7421  -30.9994   22.0838 N   0  0  0  0  0  0
  -23.4212  -28.8020   23.3008 O   0  0  0  0  0  0
  -28.2509  -25.9200   20.2588 O   0  0  0  0  0  0
  -26.5698  -34.8887   22.4607 O   0  0  0  0  0  0
  -23.5660  -32.1214   23.6864 O   0  0  0  0  0  0
  -30.2373  -20.4236   19.8366 C   0  0  0  0  0  0
  -29.1166  -21.2097   20.3479 C   0  0  0  0  0  0
  -28.2075  -20.2275   20.9216 C   0  0  0  0  0  0
  -29.5469  -17.9763   20.4522 C   0  0  0  0  0  0
  -30.4505  -18.9545   19.8708 C   0  0  0  0  0  0
  -28.4118  -18.7478   20.9571 C   0  0  0  0  0  0
  -26.9460  -20.7756   21.5700 C   0  0  0  0  0  0
  -29.1166  -22.9488   20.4550 C   0  0  0  0  0  0
  -28.0346  -24.3106   20.1074 C   0  0  0  0  0  0
  -29.5979  -16.3711   20.5458 N   0  0  0  0  0  0
  -31.9062  -18.3750   19.1482 Cl  0  0  0  0  0  0
  -27.1762  -17.7954   21.7071 Cl  0  0  0  0  0  0
  -31.4700  -12.9482   19.1990 H   0  0  0  0  0  0
  -30.4984  -11.8255   20.1028 H   0  0  0  0  0  0
  -29.8999  -11.7564   17.6552 H   0  0  0  0  0  0
  -29.5835  -13.4735   17.6690 H   0  0  0  0  0  0
  -28.0130  -11.2802   19.0458 H   0  0  0  0  0  0
  -27.4138  -12.3912   17.8404 H   0  0  0  0  0  0
  -27.5512  -14.2500   19.3620 H   0  0  0  0  0  0
  -28.8007  -12.4337   21.4781 H   0  0  0  0  0  0
  -28.3119  -14.0935   21.7263 H   0  0  0  0  0  0
  -25.2780   -9.5671   22.4764 H   0  0  0  0  0  0
  -24.0005   -7.4629   22.7477 H   0  0  0  0  0  0
  -21.0858   -8.8780   19.8950 H   0  0  0  0  0  0
  -22.3727  -10.9669   19.6163 H   0  0  0  0  0  0
  -21.2009   -7.6149   23.9717 H   0  0  0  0  0  0
  -21.1485   -6.0522   25.9078 H   0  0  0  0  0  0
  -22.0596   -2.7608   23.2846 H   0  0  0  0  0  0
  -22.4068  -11.9836   22.4843 H   0  0  0  0  0  0
  -21.1044  -13.1171   22.2665 H   0  0  0  0  0  0
  -24.6296  -15.8398   20.5492 H   0  0  0  0  0  0
  -26.2450  -15.6524   20.1053 H   0  0  0  0  0  0
  -26.7349  -32.5161   23.0903 H   0  0  0  0  0  0
  -25.0072  -33.9506   25.0212 H   0  0  0  0  0  0
  -22.7809  -31.2695   21.3523 H   0  0  0  0  0  0
  -23.3757  -35.9551   23.3285 H   0  0  0  0  0  0
  -24.3570  -36.8891   22.2065 H   0  0  0  0  0  0
  -23.7255  -37.6405   23.6719 H   0  0  0  0  0  0
  -26.2076  -31.3971   20.6153 H   0  0  0  0  0  0
  -26.8988  -30.7093   22.0455 H   0  0  0  0  0  0
  -28.1499  -28.6565   21.2610 H   0  0  0  0  0  0
  -25.8987  -25.7453   19.0239 H   0  0  0  0  0  0
  -24.0013  -27.2618   18.9666 H   0  0  0  0  0  0
  -23.8597  -30.5255   19.3876 H   0  0  0  0  0  0
  -22.8192  -29.2074   19.8307 H   0  0  0  0  0  0
  -25.1329  -36.1773   25.0791 H   0  0  0  0  0  0
  -21.0028  -28.3352   24.1320 H   0  0  0  0  0  0
  -20.5674  -26.2363   23.3640 H   0  0  0  0  0  0
  -21.6659  -26.7411   22.1209 H   0  0  0  0  0  0
  -19.6931  -25.6276   21.1271 H   0  0  0  0  0  0
  -19.6711  -27.3164   20.6722 H   0  0  0  0  0  0
  -17.4219  -26.6679   21.4028 H   0  0  0  0  0  0
  -18.0350  -26.0095   22.9029 H   0  0  0  0  0  0
  -19.7967  -30.7311   24.2207 H   0  0  0  0  0  0
  -17.5040  -31.6273   24.5167 H   0  0  0  0  0  0
  -15.5375  -30.2977   23.7690 H   0  0  0  0  0  0
  -15.8700  -28.0815   22.7094 H   0  0  0  0  0  0
  -24.5887  -30.7118   25.7694 H   0  0  0  0  0  0
  -24.8883  -32.2982   26.4690 H   0  0  0  0  0  0
  -25.7949  -30.9025   27.0218 H   0  0  0  0  0  0
  -26.3093  -29.6597   24.1383 H   0  0  0  0  0  0
  -27.3970  -29.7261   25.5034 H   0  0  0  0  0  0
  -27.9036  -30.4100   23.9796 H   0  0  0  0  0  0
  -27.2600  -33.3684   26.1968 H   0  0  0  0  0  0
  -28.3919  -32.6851   25.0388 H   0  0  0  0  0  0
  -28.0637  -31.8554   26.5526 H   0  0  0  0  0  0
  -28.2564  -38.0079   24.7498 H   0  0  0  0  0  0
  -28.1079  -36.2603   24.6304 H   0  0  0  0  0  0
  -27.2281  -37.1425   25.8866 H   0  0  0  0  0  0
  -20.9556  -29.8744   21.6695 H   0  0  0  0  0  0
  -26.0124  -38.2765   24.1415 H   0  0  0  0  0  0
  -31.0412  -20.9943   19.3943 H   0  0  0  0  0  0
  -26.9008  -20.4888   22.6208 H   0  0  0  0  0  0
  -26.0600  -20.3853   21.0682 H   0  0  0  0  0  0
  -26.8943  -21.8621   21.5265 H   0  0  0  0  0  0
  -30.0243  -23.2123   19.9120 H   0  0  0  0  0  0
  -29.3929  -23.1087   21.4969 H   0  0  0  0  0  0
  -27.1248  -24.1110   20.6737 H   0  0  0  0  0  0
  -27.7373  -24.1788   19.0671 H   0  0  0  0  0  0
  -28.6843  -16.0434   20.8188 H   0  0  0  0  0  0
  1 25  1  0  0  0
  1 30  2  0  0  0
  1 80  1  0  0  0
  2  3  1  0  0  0
  2 25  1  0  0  0
  2 83  1  0  0  0
  2 84  1  0  0  0
  3  4  1  0  0  0
  3 85  1  0  0  0
  3 86  1  0  0  0
  4  5  1  0  0  0
  4 87  1  0  0  0
  4 88  1  0  0  0
  5  6  1  0  0  0
  5 26  1  0  0  0
  5 89  1  0  0  0
  6 25  1  0  0  0
  6 90  1  0  0  0
  6 91  1  0  0  0
  7  8  2  0  0  0
  7 26  1  0  0  0
  7 29  1  0  0  0
  8  9  1  0  0  0
  8 22  1  0  0  0
  9 10  1  0  0  0
  9 27  2  0  0  0
 10 11  2  0  0  0
 10 15  1  0  0  0
 11 12  1  0  0  0
 11 92  1  0  0  0
 12 13  2  0  0  0
 12 93  1  0  0  0
 13 14  1  0  0  0
 13 31  1  0  0  0
 14 15  2  0  0  0
 14 94  1  0  0  0
 15 95  1  0  0  0
 16 17  2  0  0  0
 16 21  1  0  0  0
 16 31  1  0  0  0
 17 18  1  0  0  0
 17 96  1  0  0  0
 18 19  2  0  0  0
 18 97  1  0  0  0
 19 20  1  0  0  0
 19 24  1  0  0  0
 20 21  2  0  0  0
 20 98  1  0  0  0
 21 23  1  0  0  0
 22 28  1  0  0  0
 22 32  2  0  0  0
 26 27  1  0  0  0
 28 99  1  0  0  0
 28100  1  0  0  0
 29101  1  0  0  0
 29102  1  0  0  0
 33 34  1  0  0  0
 33 66  1  0  0  0
 33 70  2  0  0  0
 34 36  1  0  0  0
 34 59  1  0  0  0
 34103  1  0  0  0
 35 44  2  0  0  0
 35 45  1  0  0  0
 35 68  1  0  0  0
 36 56  1  0  0  0
 36104  1  0  0  0
 37 39  1  0  0  0
 37 47  1  0  0  0
 37 66  1  0  0  0
 37105  1  0  0  0
 38 43  2  0  0  0
 38 46  1  0  0  0
 38 47  1  0  0  0
 39 64  1  0  0  0
 39 67  2  0  0  0
 40 52  1  0  0  0
 40 53  2  0  0  0
 40 58  1  0  0  0
 41106  1  0  0  0
 41107  1  0  0  0
 41108  1  0  0  0
 41 48  1  0  0  0
 42 43  1  0  0  0
 42 66  1  0  0  0
 42109  1  0  0  0
 42110  1  0  0  0
 43 44  1  0  0  0
 44111  1  0  0  0
 45 46  2  0  0  0
 45112  1  0  0  0
 46113  1  0  0  0
 47114  1  0  0  0
 47115  1  0  0  0
 48 56  1  0  0  0
 48 65  1  0  0  0
 48116  1  0  0  0
 49 50  1  0  0  0
 49 53  1  0  0  0
 49 64  1  0  0  0
 49117  1  0  0  0
 50 51  1  0  0  0
 50118  1  0  0  0
 50119  1  0  0  0
 51 52  1  0  0  0
 51120  1  0  0  0
 51121  1  0  0  0
 52122  1  0  0  0
 52123  1  0  0  0
 53 54  1  0  0  0
 54 55  2  0  0  0
 54124  1  0  0  0
 55 57  1  0  0  0
 55125  1  0  0  0
 56 69  2  0  0  0
 57 58  2  0  0  0
 57126  1  0  0  0
 58127  1  0  0  0
 59 60  1  0  0  0
 59 61  1  0  0  0
 59 62  1  0  0  0
 60128  1  0  0  0
 60129  1  0  0  0
 60130  1  0  0  0
 61131  1  0  0  0
 61132  1  0  0  0
 61133  1  0  0  0
 62134  1  0  0  0
 62135  1  0  0  0
 62136  1  0  0  0
 63 65  1  0  0  0
 63137  1  0  0  0
 63138  1  0  0  0
 63139  1  0  0  0
 64140  1  0  0  0
 65141  1  0  0  0
 68 79  1  0  0  0
 71 72  2  0  0  0
 71 75  1  0  0  0
 71142  1  0  0  0
 72 73  1  0  0  0
 72 78  1  0  0  0
 73 76  2  0  0  0
 73 77  1  0  0  0
 74 75  2  0  0  0
 74 76  1  0  0  0
 74 80  1  0  0  0
 75 81  1  0  0  0
 76 82  1  0  0  0
 77143  1  0  0  0
 77144  1  0  0  0
 77145  1  0  0  0
 78 79  1  0  0  0
 78146  1  0  0  0
 78147  1  0  0  0
 79148  1  0  0  0
 79149  1  0  0  0
 80150  1  0  0  0
M  ISO  4   1 100  68 101  79 101  80 100
M  END
> <chiral flag>
0

> <version>
0

> <s_m_source_file>
/data/baiqing/PycharmProjects/Reinvent-master-3.2/result/LINK_invent/BTK/process_docking_weight1_custom_sum_contain_oxygen_bond_distance_aromatic_linkinvent_7_9_3/rearranged_h_0022.sdf

> <i_m_source_file_index>
32

> <r_mmod_Potential_Energy-OPLS-2005>
981.833312988281

> <r_mmod_Stretch_Energy-OPLS-2005>
456.074340820312

> <r_mmod_Bend_Energy-OPLS-2005>
411.928405761719

> <r_mmod_Torsional_Energy-OPLS-2005>
214.472686767578

> <r_mmod_Improper_Torsional_Energy-OPLS-2005>
4.52982902526855

> <r_mmod_Van_der_Waal_Energy-OPLS-2005>
125.066452026367

> <r_mmod_Electrostatic_Energy-OPLS-2005>
-399.713897705078

> <r_mmod_Solvation_Energy-OPLS-2005>
-208.038208007812

> <b_mmod_Minimization_Converged-OPLS-2005>
0

> <r_mmod_RMS_Derivative-OPLS-2005>
0.692124605178833

$$$$
32
                    3D
 Structure written by MMmdl.
159167  0  0  1  0            999 V2000
  -30.7506  -14.3811   20.6681 C   0  0  0  0  0  0
  -30.4199  -12.2916   19.3957 C   0  0  0  0  0  0
  -29.4862  -12.5235   18.1927 C   0  0  0  0  0  0
  -28.0093  -12.3815   18.6084 C   0  0  0  0  0  0
  -27.6668  -13.2019   19.8798 C   0  0  2  0  0  0
  -28.7046  -12.9391   20.9926 C   0  0  0  0  0  0
  -25.2610  -13.8153   20.5677 C   0  0  0  0  0  0
  -24.1850  -13.0439   20.9163 C   0  0  0  0  0  0
  -24.6393  -11.6903   20.8720 C   0  0  0  0  0  0
  -23.9055  -10.4293   21.0395 C   0  0  0  0  0  0
  -24.3610   -9.4211   21.9175 C   0  0  0  0  0  0
  -23.6289   -8.2245   22.0747 C   0  0  0  0  0  0
  -22.4269   -8.0282   21.3541 C   0  0  0  0  0  0
  -21.9900   -9.0255   20.4644 C   0  0  0  0  0  0
  -22.7226  -10.2135   20.3050 C   0  0  0  0  0  0
  -21.6852   -6.0735   22.5279 C   0  0  0  0  0  0
  -21.4014   -6.5636   23.8213 C   0  0  0  0  0  0
  -21.3660   -5.6787   24.9173 C   0  0  0  0  0  0
  -21.6042   -4.3049   24.7222 C   0  0  0  0  0  0
  -21.8819   -3.8145   23.4341 C   0  0  0  0  0  0
  -21.9194   -4.6964   22.3399 C   0  0  0  0  0  0
  -22.7874  -13.5247   21.1833 C   0  0  0  0  0  0
  -22.1662   -4.2153   21.0976 F   0  0  0  0  0  0
  -21.5627   -3.4533   25.7733 F   0  0  0  0  0  0
  -30.0460  -13.2395   20.4548 N   0  0  0  0  0  0
  -26.3048  -12.9317   20.3377 N   0  0  0  0  0  0
  -25.9319  -11.6478   20.5749 N   0  0  0  0  0  0
  -22.0511  -12.8247   22.0394 N   0  0  0  0  0  0
  -25.4348  -15.1869   20.4106 N   0  0  0  0  0  0
  -31.7989  -14.6518   20.0740 O   0  0  0  0  0  0
  -21.6633   -6.8878   21.4240 O   0  0  0  0  0  0
  -22.3565  -14.5558   20.6686 O   0  0  0  0  0  0
  -24.6133  -31.8700   23.2126 C   0  0  0  0  0  0
  -25.9039  -32.4832   23.8408 C   0  0  1  0  0  0
  -27.2344  -27.4520   20.0837 C   0  0  0  0  0  0
  -25.5907  -33.8630   24.2343 N   0  0  0  0  0  0
  -23.3991  -30.4952   21.5535 C   0  0  2  0  0  0
  -24.8432  -28.9656   20.1155 C   0  0  0  0  0  0
  -22.7400  -29.4670   22.5006 C   0  0  0  0  0  0
  -18.0269  -28.1376   22.8485 C   0  0  0  0  0  0
  -24.1487  -36.7315   23.2632 C   0  0  0  0  0  0
  -25.9273  -30.8406   21.3630 C   0  0  0  0  0  0
  -26.0041  -29.4777   20.7074 C   0  0  0  0  0  0
  -27.2019  -28.7291   20.6866 C   0  0  0  0  0  0
  -26.0496  -26.9515   19.4912 C   0  0  0  0  0  0
  -24.8599  -27.7006   19.5064 C   0  0  0  0  0  0
  -23.6049  -29.8300   20.1672 C   0  0  0  0  0  0
  -25.4102  -36.3115   24.0341 C   0  0  1  0  0  0
  -20.5856  -28.3659   23.1324 C   0  0  2  0  0  0
  -20.6758  -26.9397   22.5424 C   0  0  0  0  0  0
  -19.5746  -26.6384   21.5210 C   0  0  0  0  0  0
  -18.1919  -26.7926   22.1609 C   0  0  0  0  0  0
  -19.1517  -28.8833   23.2902 C   0  0  0  0  0  0
  -18.9447  -30.1440   23.8912 C   0  0  0  0  0  0
  -17.6450  -30.6582   24.0565 C   0  0  0  0  0  0
  -25.9032  -34.9483   23.5136 C   0  0  0  0  0  0
  -16.5342  -29.9084   23.6324 C   0  0  0  0  0  0
  -16.7260  -28.6501   23.0341 C   0  0  0  0  0  0
  -26.4469  -31.6602   25.0728 C   0  0  0  0  0  0
  -25.3745  -31.3725   26.1491 C   0  0  0  0  0  0
  -27.0273  -30.3037   24.6093 C   0  0  0  0  0  0
  -27.6066  -32.4306   25.7470 C   0  0  0  0  0  0
  -27.5591  -37.1795   24.8450 C   0  0  0  0  0  0
  -21.4131  -29.3031   22.3740 N   0  0  0  0  0  0
  -26.4285  -37.3803   23.9423 N   0  0  0  0  0  0
  -24.6650  -31.0819   22.1018 N   0  0  0  0  0  0
  -23.4183  -28.8205   23.3035 O   0  0  0  0  0  0
  -28.4163  -26.7389   20.0895 O   0  0  0  0  0  0
  -26.5586  -34.8929   22.4692 O   0  0  0  0  0  0
  -23.5333  -32.1444   23.7537 O   0  0  0  0  0  0
  -32.0439  -18.6302   23.2705 C   0  0  0  0  0  0
  -31.5838  -18.6932   21.9386 C   0  0  0  0  0  0
  -30.8483  -16.3579   22.1127 C   0  0  0  0  0  0
  -31.9011  -17.4545   24.0281 C   0  0  0  0  0  0
  -30.9750  -17.5530   21.3552 C   0  0  0  0  0  0
  -31.2966  -16.3162   23.4532 C   0  0  0  0  0  0
  -31.7540  -20.0023   21.1749 C   0  0  0  0  0  0
  -30.4816  -20.8683   21.1778 C   0  0  0  0  0  0
  -30.7327  -22.3162   20.7169 C   0  0  0  0  0  0
  -29.4253  -23.1019   20.5231 C   0  0  0  0  0  0
  -29.6235  -24.6191   20.3421 C   0  0  0  0  0  0
  -28.3049  -25.3189   19.9815 C   0  0  0  0  0  0
  -30.2178  -15.2042   21.5783 N   0  0  0  0  0  0
  -32.4704  -17.4331   25.6606 Cl  0  0  0  0  0  0
  -30.3459  -17.6401   19.7415 Cl  0  0  0  0  0  0
  -31.1056  -14.8675   24.3872 Cl  0  0  0  0  0  0
  -31.4628  -12.3956   19.0908 H   0  0  0  0  0  0
  -30.3210  -11.2693   19.7640 H   0  0  0  0  0  0
  -29.7185  -11.8178   17.3938 H   0  0  0  0  0  0
  -29.6580  -13.5197   17.7813 H   0  0  0  0  0  0
  -27.8138  -11.3234   18.7873 H   0  0  0  0  0  0
  -27.3568  -12.6757   17.7855 H   0  0  0  0  0  0
  -27.7261  -14.2565   19.6092 H   0  0  0  0  0  0
  -28.6692  -11.8925   21.2987 H   0  0  0  0  0  0
  -28.4504  -13.5030   21.8900 H   0  0  0  0  0  0
  -25.2759   -9.5689   22.4743 H   0  0  0  0  0  0
  -24.0004   -7.4636   22.7465 H   0  0  0  0  0  0
  -21.0830   -8.8774   19.8952 H   0  0  0  0  0  0
  -22.3684  -10.9673   19.6158 H   0  0  0  0  0  0
  -21.2004   -7.6142   23.9719 H   0  0  0  0  0  0
  -21.1479   -6.0512   25.9078 H   0  0  0  0  0  0
  -22.0595   -2.7608   23.2836 H   0  0  0  0  0  0
  -22.4111  -11.9900   22.4778 H   0  0  0  0  0  0
  -21.1134  -13.1291   22.2601 H   0  0  0  0  0  0
  -24.6726  -15.8466   20.5220 H   0  0  0  0  0  0
  -26.2973  -15.6256   20.1120 H   0  0  0  0  0  0
  -26.7109  -32.5547   23.1173 H   0  0  0  0  0  0
  -25.0086  -33.9796   25.0508 H   0  0  0  0  0  0
  -22.6862  -31.3113   21.4178 H   0  0  0  0  0  0
  -23.3755  -35.9640   23.3283 H   0  0  0  0  0  0
  -24.3594  -36.8938   22.2050 H   0  0  0  0  0  0
  -23.7228  -37.6515   23.6648 H   0  0  0  0  0  0
  -26.0391  -31.6094   20.5972 H   0  0  0  0  0  0
  -26.8158  -30.8912   21.9809 H   0  0  0  0  0  0
  -28.0995  -29.1235   21.1425 H   0  0  0  0  0  0
  -26.0223  -25.9879   19.0046 H   0  0  0  0  0  0
  -23.9671  -27.3002   19.0463 H   0  0  0  0  0  0
  -23.7104  -30.6057   19.4077 H   0  0  0  0  0  0
  -22.7291  -29.2487   19.8733 H   0  0  0  0  0  0
  -25.1271  -36.1978   25.0832 H   0  0  0  0  0  0
  -20.9945  -28.3227   24.1447 H   0  0  0  0  0  0
  -20.5650  -26.2268   23.3609 H   0  0  0  0  0  0
  -21.6635  -26.7441   22.1228 H   0  0  0  0  0  0
  -19.6909  -25.6299   21.1230 H   0  0  0  0  0  0
  -19.6694  -27.3201   20.6746 H   0  0  0  0  0  0
  -17.4198  -26.6686   21.4001 H   0  0  0  0  0  0
  -18.0309  -26.0062   22.8996 H   0  0  0  0  0  0
  -19.7925  -30.7247   24.2292 H   0  0  0  0  0  0
  -17.5010  -31.6263   24.5164 H   0  0  0  0  0  0
  -15.5343  -30.2990   23.7644 H   0  0  0  0  0  0
  -15.8658  -28.0830   22.7045 H   0  0  0  0  0  0
  -24.5929  -30.7043   25.7859 H   0  0  0  0  0  0
  -24.8922  -32.2884   26.4914 H   0  0  0  0  0  0
  -25.8115  -30.8936   27.0262 H   0  0  0  0  0  0
  -26.2799  -29.6822   24.1146 H   0  0  0  0  0  0
  -27.4034  -29.7254   25.4541 H   0  0  0  0  0  0
  -27.8646  -30.4344   23.9234 H   0  0  0  0  0  0
  -27.2708  -33.3594   26.2091 H   0  0  0  0  0  0
  -28.3843  -32.6879   25.0269 H   0  0  0  0  0  0
  -28.0770  -31.8402   26.5344 H   0  0  0  0  0  0
  -28.2581  -38.0120   24.7551 H   0  0  0  0  0  0
  -28.1110  -36.2659   24.6186 H   0  0  0  0  0  0
  -27.2330  -37.1351   25.8856 H   0  0  0  0  0  0
  -20.9288  -29.8758   21.6968 H   0  0  0  0  0  0
  -26.0176  -38.2874   24.1461 H   0  0  0  0  0  0
  -32.5054  -19.4943   23.7265 H   0  0  0  0  0  0
  -32.0729  -19.7988   20.1519 H   0  0  0  0  0  0
  -32.5736  -20.5620   21.6279 H   0  0  0  0  0  0
  -30.0687  -20.8980   22.1874 H   0  0  0  0  0  0
  -29.7219  -20.3984   20.5521 H   0  0  0  0  0  0
  -31.2932  -22.3177   19.7807 H   0  0  0  0  0  0
  -31.3620  -22.8194   21.4527 H   0  0  0  0  0  0
  -28.7726  -22.9370   21.3818 H   0  0  0  0  0  0
  -28.8951  -22.6966   19.6598 H   0  0  0  0  0  0
  -30.3638  -24.8175   19.5662 H   0  0  0  0  0  0
  -30.0203  -25.0406   21.2664 H   0  0  0  0  0  0
  -27.5220  -24.9640   20.6552 H   0  0  0  0  0  0
  -28.0219  -25.0383   18.9659 H   0  0  0  0  0  0
  -29.4299  -14.8392   22.0898 H   0  0  0  0  0  0
  1 25  1  0  0  0
  1 30  2  0  0  0
  1 83  1  0  0  0
  2  3  1  0  0  0
  2 25  1  0  0  0
  2 87  1  0  0  0
  2 88  1  0  0  0
  3  4  1  0  0  0
  3 89  1  0  0  0
  3 90  1  0  0  0
  4  5  1  0  0  0
  4 91  1  0  0  0
  4 92  1  0  0  0
  5  6  1  0  0  0
  5 26  1  0  0  0
  5 93  1  0  0  0
  6 25  1  0  0  0
  6 94  1  0  0  0
  6 95  1  0  0  0
  7  8  2  0  0  0
  7 26  1  0  0  0
  7 29  1  0  0  0
  8  9  1  0  0  0
  8 22  1  0  0  0
  9 10  1  0  0  0
  9 27  2  0  0  0
 10 11  2  0  0  0
 10 15  1  0  0  0
 11 12  1  0  0  0
 11 96  1  0  0  0
 12 13  2  0  0  0
 12 97  1  0  0  0
 13 14  1  0  0  0
 13 31  1  0  0  0
 14 15  2  0  0  0
 14 98  1  0  0  0
 15 99  1  0  0  0
 16 17  2  0  0  0
 16 21  1  0  0  0
 16 31  1  0  0  0
 17 18  1  0  0  0
 17100  1  0  0  0
 18 19  2  0  0  0
 18101  1  0  0  0
 19 20  1  0  0  0
 19 24  1  0  0  0
 20 21  2  0  0  0
 20102  1  0  0  0
 21 23  1  0  0  0
 22 28  1  0  0  0
 22 32  2  0  0  0
 26 27  1  0  0  0
 28103  1  0  0  0
 28104  1  0  0  0
 29105  1  0  0  0
 29106  1  0  0  0
 33 34  1  0  0  0
 33 66  1  0  0  0
 33 70  2  0  0  0
 34 36  1  0  0  0
 34 59  1  0  0  0
 34107  1  0  0  0
 35 44  2  0  0  0
 35 45  1  0  0  0
 35 68  1  0  0  0
 36 56  1  0  0  0
 36108  1  0  0  0
 37 39  1  0  0  0
 37 47  1  0  0  0
 37 66  1  0  0  0
 37109  1  0  0  0
 38 43  2  0  0  0
 38 46  1  0  0  0
 38 47  1  0  0  0
 39 64  1  0  0  0
 39 67  2  0  0  0
 40 52  1  0  0  0
 40 53  2  0  0  0
 40 58  1  0  0  0
 41110  1  0  0  0
 41111  1  0  0  0
 41112  1  0  0  0
 41 48  1  0  0  0
 42 43  1  0  0  0
 42 66  1  0  0  0
 42113  1  0  0  0
 42114  1  0  0  0
 43 44  1  0  0  0
 44115  1  0  0  0
 45 46  2  0  0  0
 45116  1  0  0  0
 46117  1  0  0  0
 47118  1  0  0  0
 47119  1  0  0  0
 48 56  1  0  0  0
 48 65  1  0  0  0
 48120  1  0  0  0
 49 50  1  0  0  0
 49 53  1  0  0  0
 49 64  1  0  0  0
 49121  1  0  0  0
 50 51  1  0  0  0
 50122  1  0  0  0
 50123  1  0  0  0
 51 52  1  0  0  0
 51124  1  0  0  0
 51125  1  0  0  0
 52126  1  0  0  0
 52127  1  0  0  0
 53 54  1  0  0  0
 54 55  2  0  0  0
 54128  1  0  0  0
 55 57  1  0  0  0
 55129  1  0  0  0
 56 69  2  0  0  0
 57 58  2  0  0  0
 57130  1  0  0  0
 58131  1  0  0  0
 59 60  1  0  0  0
 59 61  1  0  0  0
 59 62  1  0  0  0
 60132  1  0  0  0
 60133  1  0  0  0
 60134  1  0  0  0
 61135  1  0  0  0
 61136  1  0  0  0
 61137  1  0  0  0
 62138  1  0  0  0
 62139  1  0  0  0
 62140  1  0  0  0
 63 65  1  0  0  0
 63141  1  0  0  0
 63142  1  0  0  0
 63143  1  0  0  0
 64144  1  0  0  0
 65145  1  0  0  0
 68 82  1  0  0  0
 71 72  2  0  0  0
 71 74  1  0  0  0
 71146  1  0  0  0
 72 75  1  0  0  0
 72 77  1  0  0  0
 73 75  2  0  0  0
 73 76  1  0  0  0
 73 83  1  0  0  0
 74 76  2  0  0  0
 74 84  1  0  0  0
 75 85  1  0  0  0
 76 86  1  0  0  0
 77 78  1  0  0  0
 77147  1  0  0  0
 77148  1  0  0  0
 78 79  1  0  0  0
 78149  1  0  0  0
 78150  1  0  0  0
 79 80  1  0  0  0
 79151  1  0  0  0
 79152  1  0  0  0
 80 81  1  0  0  0
 80153  1  0  0  0
 80154  1  0  0  0
 81 82  1  0  0  0
 81155  1  0  0  0
 81156  1  0  0  0
 82157  1  0  0  0
 82158  1  0  0  0
 83159  1  0  0  0
M  ISO  4   1 100  68 101  82 101  83 100
M  END
> <chiral flag>
0

> <version>
0

> <s_m_source_file>
/data/baiqing/PycharmProjects/Reinvent-master-3.2/result/LINK_invent/BTK/process_docking_weight1_custom_sum_contain_oxygen_bond_distance_aromatic_linkinvent_7_9_3/rearranged_h_0022.sdf

> <i_m_source_file_index>
33

> <r_mmod_Potential_Energy-OPLS-2005>
-77.3084182739258

> <r_mmod_Stretch_Energy-OPLS-2005>
33.5262908935547

> <r_mmod_Bend_Energy-OPLS-2005>
85.7005081176758

> <r_mmod_Torsional_Energy-OPLS-2005>
225.767456054688

> <r_mmod_Improper_Torsional_Energy-OPLS-2005>
2.50487518310547

> <r_mmod_Van_der_Waal_Energy-OPLS-2005>
156.621231079102

> <r_mmod_Electrostatic_Energy-OPLS-2005>
-391.849792480469

> <r_mmod_Solvation_Energy-OPLS-2005>
-197.458786010742

> <b_mmod_Minimization_Converged-OPLS-2005>
0

> <r_mmod_RMS_Derivative-OPLS-2005>
0.503409445285797

$$$$
33
                    3D
 Structure written by MMmdl.
156164  0  0  1  0            999 V2000
  -30.5913  -14.8611   20.4304 C   0  0  0  0  0  0
  -30.4274  -12.5246   19.5093 C   0  0  0  0  0  0
  -29.5160  -12.5066   18.2619 C   0  0  0  0  0  0
  -28.0479  -12.3087   18.6786 C   0  0  0  0  0  0
  -27.6296  -13.2428   19.8456 C   0  0  2  0  0  0
  -28.6696  -13.2552   20.9874 C   0  0  0  0  0  0
  -25.2444  -13.8202   20.5730 C   0  0  0  0  0  0
  -24.1753  -13.0426   20.9244 C   0  0  0  0  0  0
  -24.6358  -11.6908   20.8756 C   0  0  0  0  0  0
  -23.9058  -10.4280   21.0428 C   0  0  0  0  0  0
  -24.3617   -9.4194   21.9202 C   0  0  0  0  0  0
  -23.6285   -8.2234   22.0756 C   0  0  0  0  0  0
  -22.4265   -8.0282   21.3558 C   0  0  0  0  0  0
  -21.9901   -9.0259   20.4672 C   0  0  0  0  0  0
  -22.7230  -10.2137   20.3080 C   0  0  0  0  0  0
  -21.6846   -6.0739   22.5291 C   0  0  0  0  0  0
  -21.4013   -6.5644   23.8226 C   0  0  0  0  0  0
  -21.3659   -5.6801   24.9183 C   0  0  0  0  0  0
  -21.6038   -4.3065   24.7237 C   0  0  0  0  0  0
  -21.8807   -3.8153   23.4356 C   0  0  0  0  0  0
  -21.9183   -4.6965   22.3407 C   0  0  0  0  0  0
  -22.7776  -13.5217   21.1907 C   0  0  0  0  0  0
  -22.1657   -4.2148   21.0984 F   0  0  0  0  0  0
  -21.5621   -3.4551   25.7749 F   0  0  0  0  0  0
  -29.9598  -13.6251   20.3950 N   0  0  0  0  0  0
  -26.2861  -12.9433   20.3271 N   0  0  0  0  0  0
  -25.9290  -11.6562   20.5758 N   0  0  0  0  0  0
  -22.0422  -12.8213   22.0467 N   0  0  0  0  0  0
  -25.4113  -15.1936   20.4152 N   0  0  0  0  0  0
  -31.7888  -14.9067   20.1353 O   0  0  0  0  0  0
  -21.6627   -6.8883   21.4251 O   0  0  0  0  0  0
  -22.3461  -14.5525   20.6755 O   0  0  0  0  0  0
  -24.6367  -31.8492   23.1924 C   0  0  0  0  0  0
  -25.9161  -32.4733   23.8306 C   0  0  1  0  0  0
  -27.2263  -27.1951   20.1505 C   0  0  0  0  0  0
  -25.5936  -33.8537   24.2230 N   0  0  0  0  0  0
  -23.4393  -30.4679   21.5353 C   0  0  2  0  0  0
  -24.8909  -28.9000   20.1142 C   0  0  0  0  0  0
  -22.7549  -29.4569   22.4874 C   0  0  0  0  0  0
  -18.0305  -28.1392   22.8485 C   0  0  0  0  0  0
  -24.1484  -36.7260   23.2639 C   0  0  0  0  0  0
  -25.9901  -30.7422   21.3827 C   0  0  0  0  0  0
  -26.0651  -29.3582   20.7249 C   0  0  0  0  0  0
  -27.2349  -28.5210   20.7249 C   0  0  0  0  0  0
  -26.0265  -26.8178   19.5098 C   0  0  0  0  0  0
  -24.8810  -27.6412   19.4929 C   0  0  0  0  0  0
  -23.6659  -29.7967   20.1543 C   0  0  0  0  0  0
  -25.4114  -36.3054   24.0322 C   0  0  1  0  0  0
  -20.5912  -28.3711   23.1252 C   0  0  2  0  0  0
  -20.6793  -26.9419   22.5412 C   0  0  0  0  0  0
  -19.5768  -26.6384   21.5219 C   0  0  0  0  0  0
  -18.1948  -26.7935   22.1625 C   0  0  0  0  0  0
  -19.1558  -28.8866   23.2867 C   0  0  0  0  0  0
  -18.9477  -30.1460   23.8901 C   0  0  0  0  0  0
  -17.6474  -30.6587   24.0562 C   0  0  0  0  0  0
  -25.9067  -34.9427   23.5079 C   0  0  0  0  0  0
  -16.5366  -29.9089   23.6321 C   0  0  0  0  0  0
  -16.7292  -28.6501   23.0359 C   0  0  0  0  0  0
  -26.4507  -31.6589   25.0721 C   0  0  0  0  0  0
  -25.3707  -31.3755   26.1425 C   0  0  0  0  0  0
  -27.0373  -30.3003   24.6248 C   0  0  0  0  0  0
  -27.6054  -32.4345   25.7492 C   0  0  0  0  0  0
  -27.5575  -37.1783   24.8458 C   0  0  0  0  0  0
  -21.4245  -29.3044   22.3629 N   0  0  0  0  0  0
  -26.4281  -37.3761   23.9411 N   0  0  0  0  0  0
  -24.7077  -31.0409   22.0924 N   0  0  0  0  0  0
  -23.4216  -28.8121   23.3010 O   0  0  0  0  0  0
  -28.3098  -26.2670   20.2183 O   0  0  0  0  0  0
  -26.5653  -34.8910   22.4659 O   0  0  0  0  0  0
  -23.5500  -32.1341   23.7178 O   0  0  0  0  0  0
  -29.7452  -21.2169   21.6089 C   0  0  0  0  0  0
  -29.2072  -22.0254   20.5437 C   0  0  0  0  0  0
  -29.7023  -18.9806   20.4130 C   0  0  0  0  0  0
  -29.9875  -19.7936   21.5549 C   0  0  0  0  0  0
  -28.8268  -21.1915   19.4325 C   0  0  0  0  0  0
  -29.0652  -19.7498   19.3734 C   0  0  0  0  0  0
  -30.4986  -24.0408   19.6741 C   0  0  0  0  0  0
  -29.6513  -24.1495   22.0013 C   0  0  0  0  0  0
  -30.3613  -17.4907   20.1950 C   0  0  0  0  0  0
  -28.1018  -24.7458   20.1184 C   0  0  0  0  0  0
  -29.2945  -23.6829   20.5695 C   0  0  0  0  0  0
  -29.8604  -16.0588   20.5614 N   0  0  0  0  0  0
  -30.7561  -19.0715   22.9231 Cl  0  0  0  0  0  0
  -28.1138  -21.9624   18.0568 Cl  0  0  0  0  0  0
  -28.6305  -18.9100   17.9207 Cl  0  0  0  0  0  0
  -31.4705  -12.6442   19.2149 H   0  0  0  0  0  0
  -30.3773  -11.5690   20.0352 H   0  0  0  0  0  0
  -29.8187  -11.7102   17.5810 H   0  0  0  0  0  0
  -29.6266  -13.4418   17.7099 H   0  0  0  0  0  0
  -27.9387  -11.2686   18.9889 H   0  0  0  0  0  0
  -27.3817  -12.4389   17.8257 H   0  0  0  0  0  0
  -27.5996  -14.2486   19.4257 H   0  0  0  0  0  0
  -28.7280  -12.2801   21.4746 H   0  0  0  0  0  0
  -28.3801  -13.9711   21.7593 H   0  0  0  0  0  0
  -25.2759   -9.5658   22.4778 H   0  0  0  0  0  0
  -24.0005   -7.4600   22.7440 H   0  0  0  0  0  0
  -21.0835   -8.8774   19.8964 H   0  0  0  0  0  0
  -22.3684  -10.9686   19.6198 H   0  0  0  0  0  0
  -21.2023   -7.6154   23.9729 H   0  0  0  0  0  0
  -21.1491   -6.0534   25.9088 H   0  0  0  0  0  0
  -22.0586   -2.7613   23.2857 H   0  0  0  0  0  0
  -22.4054  -11.9887   22.4889 H   0  0  0  0  0  0
  -21.1035  -13.1238   22.2661 H   0  0  0  0  0  0
  -24.6383  -15.8426   20.5136 H   0  0  0  0  0  0
  -26.2527  -15.6355   20.0673 H   0  0  0  0  0  0
  -26.7227  -32.5357   23.1048 H   0  0  0  0  0  0
  -25.0058  -33.9670   25.0358 H   0  0  0  0  0  0
  -22.7379  -31.2900   21.3808 H   0  0  0  0  0  0
  -23.3760  -35.9575   23.3280 H   0  0  0  0  0  0
  -24.3581  -36.8909   22.2060 H   0  0  0  0  0  0
  -23.7216  -37.6440   23.6688 H   0  0  0  0  0  0
  -26.1383  -31.4975   20.6105 H   0  0  0  0  0  0
  -26.8643  -30.7948   22.0199 H   0  0  0  0  0  0
  -28.1324  -28.8658   21.2203 H   0  0  0  0  0  0
  -25.9480  -25.8505   19.0371 H   0  0  0  0  0  0
  -23.9816  -27.2821   19.0124 H   0  0  0  0  0  0
  -23.8054  -30.5708   19.3983 H   0  0  0  0  0  0
  -22.7822  -29.2379   19.8422 H   0  0  0  0  0  0
  -25.1293  -36.1892   25.0813 H   0  0  0  0  0  0
  -21.0008  -28.3296   24.1374 H   0  0  0  0  0  0
  -20.5687  -26.2320   23.3626 H   0  0  0  0  0  0
  -21.6659  -26.7437   22.1208 H   0  0  0  0  0  0
  -19.6931  -25.6294   21.1256 H   0  0  0  0  0  0
  -19.6703  -27.3184   20.6743 H   0  0  0  0  0  0
  -17.4219  -26.6687   21.4029 H   0  0  0  0  0  0
  -18.0340  -26.0079   22.9022 H   0  0  0  0  0  0
  -19.7949  -30.7274   24.2286 H   0  0  0  0  0  0
  -17.5024  -31.6268   24.5164 H   0  0  0  0  0  0
  -15.5368  -30.2995   23.7632 H   0  0  0  0  0  0
  -15.8694  -28.0811   22.7088 H   0  0  0  0  0  0
  -24.5867  -30.7141   25.7725 H   0  0  0  0  0  0
  -24.8925  -32.2936   26.4849 H   0  0  0  0  0  0
  -25.7991  -30.8905   27.0206 H   0  0  0  0  0  0
  -26.2984  -29.6741   24.1241 H   0  0  0  0  0  0
  -27.4011  -29.7282   25.4792 H   0  0  0  0  0  0
  -27.8874  -30.4281   23.9544 H   0  0  0  0  0  0
  -27.2664  -33.3651   26.2056 H   0  0  0  0  0  0
  -28.3867  -32.6906   25.0322 H   0  0  0  0  0  0
  -28.0730  -31.8488   26.5418 H   0  0  0  0  0  0
  -28.2577  -38.0094   24.7524 H   0  0  0  0  0  0
  -28.1090  -36.2628   24.6258 H   0  0  0  0  0  0
  -27.2303  -37.1392   25.8863 H   0  0  0  0  0  0
  -20.9454  -29.8744   21.6798 H   0  0  0  0  0  0
  -26.0149  -38.2822   24.1444 H   0  0  0  0  0  0
  -30.0775  -21.6926   22.5177 H   0  0  0  0  0  0
  -31.3897  -23.4772   19.9532 H   0  0  0  0  0  0
  -30.7520  -25.0998   19.7378 H   0  0  0  0  0  0
  -30.2910  -23.8281   18.6264 H   0  0  0  0  0  0
  -30.6119  -23.7637   22.3445 H   0  0  0  0  0  0
  -28.8848  -23.8523   22.7175 H   0  0  0  0  0  0
  -29.7324  -25.2354   22.0631 H   0  0  0  0  0  0
  -31.3495  -17.5606   20.6482 H   0  0  0  0  0  0
  -30.5914  -17.4316   19.1302 H   0  0  0  0  0  0
  -27.2098  -24.5044   20.6973 H   0  0  0  0  0  0
  -27.8396  -24.5400   19.0821 H   0  0  0  0  0  0
  -28.8804  -15.9652   20.7809 H   0  0  0  0  0  0
  1 25  1  0  0  0
  1 30  2  0  0  0
  1 82  1  0  0  0
  2  3  1  0  0  0
  2 25  1  0  0  0
  2 86  1  0  0  0
  2 87  1  0  0  0
  3  4  1  0  0  0
  3 88  1  0  0  0
  3 89  1  0  0  0
  4  5  1  0  0  0
  4 90  1  0  0  0
  4 91  1  0  0  0
  5  6  1  0  0  0
  5 26  1  0  0  0
  5 92  1  0  0  0
  6 25  1  0  0  0
  6 93  1  0  0  0
  6 94  1  0  0  0
  7  8  2  0  0  0
  7 26  1  0  0  0
  7 29  1  0  0  0
  8  9  1  0  0  0
  8 22  1  0  0  0
  9 10  1  0  0  0
  9 27  2  0  0  0
 10 11  2  0  0  0
 10 15  1  0  0  0
 11 12  1  0  0  0
 11 95  1  0  0  0
 12 13  2  0  0  0
 12 96  1  0  0  0
 13 14  1  0  0  0
 13 31  1  0  0  0
 14 15  2  0  0  0
 14 97  1  0  0  0
 15 98  1  0  0  0
 16 17  2  0  0  0
 16 21  1  0  0  0
 16 31  1  0  0  0
 17 18  1  0  0  0
 17 99  1  0  0  0
 18 19  2  0  0  0
 18100  1  0  0  0
 19 20  1  0  0  0
 19 24  1  0  0  0
 20 21  2  0  0  0
 20101  1  0  0  0
 21 23  1  0  0  0
 22 28  1  0  0  0
 22 32  2  0  0  0
 26 27  1  0  0  0
 28102  1  0  0  0
 28103  1  0  0  0
 29104  1  0  0  0
 29105  1  0  0  0
 33 34  1  0  0  0
 33 66  1  0  0  0
 33 70  2  0  0  0
 34 36  1  0  0  0
 34 59  1  0  0  0
 34106  1  0  0  0
 35 44  2  0  0  0
 35 45  1  0  0  0
 35 68  1  0  0  0
 36 56  1  0  0  0
 36107  1  0  0  0
 37 39  1  0  0  0
 37 47  1  0  0  0
 37 66  1  0  0  0
 37108  1  0  0  0
 38 43  2  0  0  0
 38 46  1  0  0  0
 38 47  1  0  0  0
 39 64  1  0  0  0
 39 67  2  0  0  0
 40 52  1  0  0  0
 40 53  2  0  0  0
 40 58  1  0  0  0
 41109  1  0  0  0
 41110  1  0  0  0
 41111  1  0  0  0
 41 48  1  0  0  0
 42 43  1  0  0  0
 42 66  1  0  0  0
 42112  1  0  0  0
 42113  1  0  0  0
 43 44  1  0  0  0
 44114  1  0  0  0
 45 46  2  0  0  0
 45115  1  0  0  0
 46116  1  0  0  0
 47117  1  0  0  0
 47118  1  0  0  0
 48 56  1  0  0  0
 48 65  1  0  0  0
 48119  1  0  0  0
 49 50  1  0  0  0
 49 53  1  0  0  0
 49 64  1  0  0  0
 49120  1  0  0  0
 50 51  1  0  0  0
 50121  1  0  0  0
 50122  1  0  0  0
 51 52  1  0  0  0
 51123  1  0  0  0
 51124  1  0  0  0
 52125  1  0  0  0
 52126  1  0  0  0
 53 54  1  0  0  0
 54 55  2  0  0  0
 54127  1  0  0  0
 55 57  1  0  0  0
 55128  1  0  0  0
 56 69  2  0  0  0
 57 58  2  0  0  0
 57129  1  0  0  0
 58130  1  0  0  0
 59 60  1  0  0  0
 59 61  1  0  0  0
 59 62  1  0  0  0
 60131  1  0  0  0
 60132  1  0  0  0
 60133  1  0  0  0
 61134  1  0  0  0
 61135  1  0  0  0
 61136  1  0  0  0
 62137  1  0  0  0
 62138  1  0  0  0
 62139  1  0  0  0
 63 65  1  0  0  0
 63140  1  0  0  0
 63141  1  0  0  0
 63142  1  0  0  0
 64143  1  0  0  0
 65144  1  0  0  0
 68 80  1  0  0  0
 71 72  2  0  0  0
 71 74  1  0  0  0
 71145  1  0  0  0
 72 75  1  0  0  0
 72 81  1  0  0  0
 73 74  2  0  0  0
 73 76  1  0  0  0
 73 79  1  0  0  0
 74 83  1  0  0  0
 75 76  2  0  0  0
 75 84  1  0  0  0
 76 85  1  0  0  0
 77146  1  0  0  0
 77147  1  0  0  0
 77148  1  0  0  0
 77 81  1  0  0  0
 78 81  1  0  0  0
 78149  1  0  0  0
 78150  1  0  0  0
 78151  1  0  0  0
 79 82  1  0  0  0
 79152  1  0  0  0
 79153  1  0  0  0
 80 81  1  0  0  0
 80154  1  0  0  0
 80155  1  0  0  0
 82156  1  0  0  0
M  ISO  4   1 100  68 101  80 101  82 100
M  END
> <chiral flag>
0

> <version>
0

> <s_m_source_file>
/data/baiqing/PycharmProjects/Reinvent-master-3.2/result/LINK_invent/BTK/process_docking_weight1_custom_sum_contain_oxygen_bond_distance_aromatic_linkinvent_7_9_3/rearranged_h_0022.sdf

> <i_m_source_file_index>
34

> <r_mmod_Potential_Energy-OPLS-2005>
373.366455078125

> <r_mmod_Stretch_Energy-OPLS-2005>
199.704833984375

> <r_mmod_Bend_Energy-OPLS-2005>
239.728042602539

> <r_mmod_Torsional_Energy-OPLS-2005>
231.782608032227

> <r_mmod_Improper_Torsional_Energy-OPLS-2005>
9.57594776153564

> <r_mmod_Van_der_Waal_Energy-OPLS-2005>
139.23779296875

> <r_mmod_Electrostatic_Energy-OPLS-2005>
-384.351593017578

> <r_mmod_Solvation_Energy-OPLS-2005>
-201.322357177734

> <b_mmod_Minimization_Converged-OPLS-2005>
0

> <r_mmod_RMS_Derivative-OPLS-2005>
2.68450689315796

$$$$
34
                    3D
 Structure written by MMmdl.
160168  0  0  1  0            999 V2000
  -29.8220  -16.6240   20.4575 C   0  0  0  0  0  0
  -30.2696  -13.8714   19.6030 C   0  0  0  0  0  0
  -29.5700  -13.0030   18.4680 C   0  0  0  0  0  0
  -28.2363  -12.4074   18.9165 C   0  0  0  0  0  0
  -27.5554  -13.4286   19.8374 C   0  0  2  0  0  0
  -28.4568  -14.1152   20.9266 C   0  0  0  0  0  0
  -25.2008  -13.8447   20.5894 C   0  0  0  0  0  0
  -24.1557  -13.0421   20.9334 C   0  0  0  0  0  0
  -24.6449  -11.6992   20.8725 C   0  0  0  0  0  0
  -23.9195  -10.4292   21.0336 C   0  0  0  0  0  0
  -24.3705   -9.4215   21.9142 C   0  0  0  0  0  0
  -23.6347   -8.2265   22.0741 C   0  0  0  0  0  0
  -22.4322   -8.0298   21.3540 C   0  0  0  0  0  0
  -21.9978   -9.0269   20.4630 C   0  0  0  0  0  0
  -22.7341  -10.2128   20.3012 C   0  0  0  0  0  0
  -21.6873   -6.0747   22.5284 C   0  0  0  0  0  0
  -21.4029   -6.5645   23.8218 C   0  0  0  0  0  0
  -21.3671   -5.6795   24.9176 C   0  0  0  0  0  0
  -21.6048   -4.3058   24.7225 C   0  0  0  0  0  0
  -21.8813   -3.8151   23.4344 C   0  0  0  0  0  0
  -21.9195   -4.6970   22.3402 C   0  0  0  0  0  0
  -22.7556  -13.5062   21.1962 C   0  0  0  0  0  0
  -22.1660   -4.2151   21.0981 F   0  0  0  0  0  0
  -21.5630   -3.4542   25.7739 F   0  0  0  0  0  0
  -29.4389  -15.0847   20.2714 N   0  0  0  0  0  0
  -26.2615  -13.0022   20.3417 N   0  0  0  0  0  0
  -25.9442  -11.6950   20.5634 N   0  0  0  0  0  0
  -22.0288  -12.8010   22.0528 N   0  0  0  0  0  0
  -25.3385  -15.2228   20.4392 N   0  0  0  0  0  0
  -31.0748  -16.4023   20.3708 O   0  0  0  0  0  0
  -21.6668   -6.8901   21.4250 O   0  0  0  0  0  0
  -22.3190  -14.5352   20.6807 O   0  0  0  0  0  0
  -24.7249  -31.6966   23.2481 C   0  0  0  0  0  0
  -25.9601  -32.4080   23.9070 C   0  0  1  0  0  0
  -27.9485  -26.6122   19.1498 C   0  0  0  0  0  0
  -25.5770  -33.8147   24.1954 N   0  0  0  0  0  0
  -23.4753  -30.0466   21.5168 C   0  0  2  0  0  0
  -24.9925  -27.3883   20.0169 C   0  0  0  0  0  0
  -22.5377  -29.5261   22.6100 C   0  0  0  0  0  0
  -17.9600  -28.1432   22.8474 C   0  0  0  0  0  0
  -24.1471  -36.7172   23.2541 C   0  0  0  0  0  0
  -26.5341  -29.9335   22.4625 C   0  0  0  0  0  0
  -27.0639  -28.3510   21.6171 C   0  0  0  0  0  0
  -28.4734  -27.7222   20.6217 C   0  0  0  0  0  0
  -26.6418  -26.5645   18.2771 C   0  0  0  0  0  0
  -25.1990  -26.9437   18.6266 C   0  0  0  0  0  0
  -23.4326  -28.5797   20.2125 C   0  0  0  0  0  0
  -25.4106  -36.2820   24.0166 C   0  0  1  0  0  0
  -20.4828  -28.3765   23.1424 C   0  0  2  0  0  0
  -20.5829  -26.9385   22.6026 C   0  0  0  0  0  0
  -19.5295  -26.6346   21.5395 C   0  0  0  0  0  0
  -18.1327  -26.8018   22.1468 C   0  0  0  0  0  0
  -19.0738  -28.8917   23.2962 C   0  0  0  0  0  0
  -18.8841  -30.1525   23.8979 C   0  0  0  0  0  0
  -17.5888  -30.6697   24.0614 C   0  0  0  0  0  0
  -25.9090  -34.9113   23.4942 C   0  0  0  0  0  0
  -16.4787  -29.9176   23.6374 C   0  0  0  0  0  0
  -16.6637  -28.6587   23.0363 C   0  0  0  0  0  0
  -26.4855  -31.7441   25.2626 C   0  0  0  0  0  0
  -25.3207  -31.4822   26.2386 C   0  0  0  0  0  0
  -27.2787  -30.4171   25.2254 C   0  0  0  0  0  0
  -27.5402  -32.6837   25.8954 C   0  0  0  0  0  0
  -27.5505  -37.1726   24.8428 C   0  0  0  0  0  0
  -21.2691  -29.2844   22.3196 N   0  0  0  0  0  0
  -26.4220  -37.3610   23.9362 N   0  0  0  0  0  0
  -24.9037  -30.6230   22.4025 N   0  0  0  0  0  0
  -23.0125  -29.1723   23.6846 O   0  0  0  0  0  0
  -26.8477  -25.3814   19.1146 O   0  0  0  0  0  0
  -26.5918  -34.8619   22.4687 O   0  0  0  0  0  0
  -23.6036  -32.1411   23.5379 O   0  0  0  0  0  0
  -25.5926  -29.4326   20.4022 C   0  0  0  0  0  0
  -24.8362  -28.0403   22.0991 C   0  0  0  0  0  0
  -25.4803  -27.1653   23.1074 C   0  0  0  0  0  0
  -26.4730  -26.1911   22.5963 C   0  0  0  0  0  0
  -26.8131  -26.2509   21.0889 C   0  0  0  0  0  0
  -24.9207  -27.0968   24.5333 C   0  0  0  0  0  0
  -27.1258  -25.2279   23.6111 C   0  0  0  0  0  0
  -24.2825  -26.0417   21.6796 C   0  0  0  0  0  0
  -27.7980  -22.5039   20.7070 C   0  0  0  0  0  0
  -28.8357  -20.3728   20.9019 C   0  0  0  0  0  0
  -25.1874  -24.9168   20.1240 C   0  0  0  0  0  0
  -26.7007  -28.5446   19.5564 N   0  0  0  0  0  0
  -27.6607  -24.5008   21.1208 N   0  0  0  0  0  0
  -29.0983  -18.2749   20.5725 N   0  0  0  0  0  0
  -31.1477  -14.3092   19.1309 H   0  0  0  0  0  0
  -30.6924  -13.2226   20.3723 H   0  0  0  0  0  0
  -30.2394  -12.2150   18.1253 H   0  0  0  0  0  0
  -29.3932  -13.6445   17.6040 H   0  0  0  0  0  0
  -28.4228  -11.4835   19.4645 H   0  0  0  0  0  0
  -27.6093  -12.1508   18.0601 H   0  0  0  0  0  0
  -27.3123  -14.2325   19.1404 H   0  0  0  0  0  0
  -28.9201  -13.3842   21.5926 H   0  0  0  0  0  0
  -27.8257  -14.7161   21.5819 H   0  0  0  0  0  0
  -25.2844   -9.5687   22.4721 H   0  0  0  0  0  0
  -24.0043   -7.4663   22.7477 H   0  0  0  0  0  0
  -21.0904   -8.8795   19.8942 H   0  0  0  0  0  0
  -22.3795  -10.9655   19.6111 H   0  0  0  0  0  0
  -21.2026   -7.6154   23.9719 H   0  0  0  0  0  0
  -21.1505   -6.0528   25.9080 H   0  0  0  0  0  0
  -22.0578   -2.7611   23.2848 H   0  0  0  0  0  0
  -22.3998  -11.9728   22.4933 H   0  0  0  0  0  0
  -21.0883  -13.0933   22.2746 H   0  0  0  0  0  0
  -24.5546  -15.8563   20.5539 H   0  0  0  0  0  0
  -26.1853  -15.6884   20.1362 H   0  0  0  0  0  0
  -26.7800  -32.4566   23.1957 H   0  0  0  0  0  0
  -24.9669  -33.9402   24.9895 H   0  0  0  0  0  0
  -22.9820  -30.9161   21.0790 H   0  0  0  0  0  0
  -23.3684  -35.9538   23.3072 H   0  0  0  0  0  0
  -24.3539  -36.8975   22.1976 H   0  0  0  0  0  0
  -23.7231  -37.6334   23.6691 H   0  0  0  0  0  0
  -27.3427  -30.6512   22.3453 H   0  0  0  0  0  0
  -26.5423  -29.4268   23.3797 H   0  0  0  0  0  0
  -29.4672  -28.1429   20.6930 H   0  0  0  0  0  0
  -26.7924  -26.3111   17.2266 H   0  0  0  0  0  0
  -24.4041  -26.9059   17.8923 H   0  0  0  0  0  0
  -23.2185  -29.0062   19.2314 H   0  0  0  0  0  0
  -22.5572  -27.9558   20.3966 H   0  0  0  0  0  0
  -25.1228  -36.1643   25.0629 H   0  0  0  0  0  0
  -20.8532  -28.3472   24.1701 H   0  0  0  0  0  0
  -20.4335  -26.2405   23.4297 H   0  0  0  0  0  0
  -21.5792  -26.7439   22.2401 H   0  0  0  0  0  0
  -19.6510  -25.6233   21.1494 H   0  0  0  0  0  0
  -19.6509  -27.3155   20.6963 H   0  0  0  0  0  0
  -17.3757  -26.6944   21.3659 H   0  0  0  0  0  0
  -17.9439  -26.0103   22.8747 H   0  0  0  0  0  0
  -19.7364  -30.7304   24.2295 H   0  0  0  0  0  0
  -17.4432  -31.6402   24.5181 H   0  0  0  0  0  0
  -15.4788  -30.3081   23.7696 H   0  0  0  0  0  0
  -15.8021  -28.0936   22.7048 H   0  0  0  0  0  0
  -24.7026  -30.6408   25.9190 H   0  0  0  0  0  0
  -24.6613  -32.3463   26.3229 H   0  0  0  0  0  0
  -25.6753  -31.2561   27.2448 H   0  0  0  0  0  0
  -26.6571  -29.5233   25.3034 H   0  0  0  0  0  0
  -27.8547  -30.2900   26.1431 H   0  0  0  0  0  0
  -28.0571  -30.3661   24.4661 H   0  0  0  0  0  0
  -27.1239  -33.6469   26.1901 H   0  0  0  0  0  0
  -28.3613  -32.8845   25.2060 H   0  0  0  0  0  0
  -27.9828  -32.2942   26.8145 H   0  0  0  0  0  0
  -28.2447  -38.0099   24.7532 H   0  0  0  0  0  0
  -28.1077  -36.2613   24.6206 H   0  0  0  0  0  0
  -27.2206  -37.1307   25.8824 H   0  0  0  0  0  0
  -20.8777  -29.5740   21.4335 H   0  0  0  0  0  0
  -26.0018  -38.2635   24.1425 H   0  0  0  0  0  0
  -25.2975  -30.4032   20.0154 H   0  0  0  0  0  0
  -24.0173  -26.4848   24.5468 H   0  0  0  0  0  0
  -24.6535  -28.0742   24.9196 H   0  0  0  0  0  0
  -25.6066  -26.7090   25.2767 H   0  0  0  0  0  0
  -27.2051  -25.6467   24.6075 H   0  0  0  0  0  0
  -28.1766  -25.0318   23.4068 H   0  0  0  0  0  0
  -26.5880  -24.2836   23.6880 H   0  0  0  0  0  0
  -23.2563  -26.0756   21.3372 H   0  0  0  0  0  0
  -24.1236  -25.3752   22.5356 H   0  0  0  0  0  0
  -26.7966  -22.2315   21.0393 H   0  0  0  0  0  0
  -27.6910  -22.5650   19.6245 H   0  0  0  0  0  0
  -28.8074  -20.3124   21.9908 H   0  0  0  0  0  0
  -29.8615  -20.6746   20.6942 H   0  0  0  0  0  0
  -24.4096  -24.7207   19.3814 H   0  0  0  0  0  0
  -25.3046  -23.9053   20.5139 H   0  0  0  0  0  0
  -28.0944  -24.5296   22.0321 H   0  0  0  0  0  0
  -30.0471  -18.5263   20.3270 H   0  0  0  0  0  0
  1 25  1  0  0  0
  1 30  2  0  0  0
  1 84  1  0  0  0
  2  3  1  0  0  0
  2 25  1  0  0  0
  2 85  1  0  0  0
  2 86  1  0  0  0
  3  4  1  0  0  0
  3 87  1  0  0  0
  3 88  1  0  0  0
  4  5  1  0  0  0
  4 89  1  0  0  0
  4 90  1  0  0  0
  5  6  1  0  0  0
  5 26  1  0  0  0
  5 91  1  0  0  0
  6 25  1  0  0  0
  6 92  1  0  0  0
  6 93  1  0  0  0
  7  8  2  0  0  0
  7 26  1  0  0  0
  7 29  1  0  0  0
  8  9  1  0  0  0
  8 22  1  0  0  0
  9 10  1  0  0  0
  9 27  2  0  0  0
 10 11  2  0  0  0
 10 15  1  0  0  0
 11 12  1  0  0  0
 11 94  1  0  0  0
 12 13  2  0  0  0
 12 95  1  0  0  0
 13 14  1  0  0  0
 13 31  1  0  0  0
 14 15  2  0  0  0
 14 96  1  0  0  0
 15 97  1  0  0  0
 16 17  2  0  0  0
 16 21  1  0  0  0
 16 31  1  0  0  0
 17 18  1  0  0  0
 17 98  1  0  0  0
 18 19  2  0  0  0
 18 99  1  0  0  0
 19 20  1  0  0  0
 19 24  1  0  0  0
 20 21  2  0  0  0
 20100  1  0  0  0
 21 23  1  0  0  0
 22 28  1  0  0  0
 22 32  2  0  0  0
 26 27  1  0  0  0
 28101  1  0  0  0
 28102  1  0  0  0
 29103  1  0  0  0
 29104  1  0  0  0
 33 34  1  0  0  0
 33 66  1  0  0  0
 33 70  2  0  0  0
 34 36  1  0  0  0
 34 59  1  0  0  0
 34105  1  0  0  0
 35 44  2  0  0  0
 35 45  1  0  0  0
 35 68  1  0  0  0
 36 56  1  0  0  0
 36106  1  0  0  0
 37 39  1  0  0  0
 37 47  1  0  0  0
 37 66  1  0  0  0
 37107  1  0  0  0
 38 43  2  0  0  0
 38 46  1  0  0  0
 38 47  1  0  0  0
 39 64  1  0  0  0
 39 67  2  0  0  0
 40 52  1  0  0  0
 40 53  2  0  0  0
 40 58  1  0  0  0
 41108  1  0  0  0
 41109  1  0  0  0
 41110  1  0  0  0
 41 48  1  0  0  0
 42 43  1  0  0  0
 42 66  1  0  0  0
 42111  1  0  0  0
 42112  1  0  0  0
 43 44  1  0  0  0
 44113  1  0  0  0
 45 46  2  0  0  0
 45114  1  0  0  0
 46115  1  0  0  0
 47116  1  0  0  0
 47117  1  0  0  0
 48 56  1  0  0  0
 48 65  1  0  0  0
 48118  1  0  0  0
 49 50  1  0  0  0
 49 53  1  0  0  0
 49 64  1  0  0  0
 49119  1  0  0  0
 50 51  1  0  0  0
 50120  1  0  0  0
 50121  1  0  0  0
 51 52  1  0  0  0
 51122  1  0  0  0
 51123  1  0  0  0
 52124  1  0  0  0
 52125  1  0  0  0
 53 54  1  0  0  0
 54 55  2  0  0  0
 54126  1  0  0  0
 55 57  1  0  0  0
 55127  1  0  0  0
 56 69  2  0  0  0
 57 58  2  0  0  0
 57128  1  0  0  0
 58129  1  0  0  0
 59 60  1  0  0  0
 59 61  1  0  0  0
 59 62  1  0  0  0
 60130  1  0  0  0
 60131  1  0  0  0
 60132  1  0  0  0
 61133  1  0  0  0
 61134  1  0  0  0
 61135  1  0  0  0
 62136  1  0  0  0
 62137  1  0  0  0
 62138  1  0  0  0
 63 65  1  0  0  0
 63139  1  0  0  0
 63140  1  0  0  0
 63141  1  0  0  0
 64142  1  0  0  0
 65143  1  0  0  0
 68 81  1  0  0  0
 71 72  2  0  0  0
 71 82  1  0  0  0
 71144  1  0  0  0
 72 73  1  0  0  0
 72 78  1  0  0  0
 73 74  2  0  0  0
 73 76  1  0  0  0
 74 75  1  0  0  0
 74 77  1  0  0  0
 75 82  2  0  0  0
 75 83  1  0  0  0
 76145  1  0  0  0
 76146  1  0  0  0
 76147  1  0  0  0
 77148  1  0  0  0
 77149  1  0  0  0
 77150  1  0  0  0
 78 81  1  0  0  0
 78151  1  0  0  0
 78152  1  0  0  0
 79 80  1  0  0  0
 79 83  1  0  0  0
 79153  1  0  0  0
 79154  1  0  0  0
 80 84  1  0  0  0
 80155  1  0  0  0
 80156  1  0  0  0
 81157  1  0  0  0
 81158  1  0  0  0
 83159  1  0  0  0
 84160  1  0  0  0
M  ISO  4   1 100  68 101  81 101  84 100
M  END
> <chiral flag>
0

> <version>
0

> <s_m_source_file>
/data/baiqing/PycharmProjects/Reinvent-master-3.2/result/LINK_invent/BTK/process_docking_weight1_custom_sum_contain_oxygen_bond_distance_aromatic_linkinvent_7_9_3/rearranged_h_0022.sdf

> <i_m_source_file_index>
35

> <r_mmod_Potential_Energy-OPLS-2005>
29309.748046875

> <r_mmod_Stretch_Energy-OPLS-2005>
16620.048828125

> <r_mmod_Bend_Energy-OPLS-2005>
2304.13818359375

> <r_mmod_Torsional_Energy-OPLS-2005>
658.321228027344

> <r_mmod_Improper_Torsional_Energy-OPLS-2005>
94.3404693603516

> <r_mmod_Van_der_Waal_Energy-OPLS-2005>
6095.31201171875

> <r_mmod_Electrostatic_Energy-OPLS-2005>
-549.147888183594

> <r_mmod_Solvation_Energy-OPLS-2005>
-265.014526367188

> <b_mmod_Minimization_Converged-OPLS-2005>
0

> <r_mmod_RMS_Derivative-OPLS-2005>
12.8073778152466

$$$$
35
                    3D
 Structure written by MMmdl.
161169  0  0  1  0            999 V2000
  -30.5797  -14.6734   20.4842 C   0  0  0  0  0  0
  -30.4466  -12.4078   19.4490 C   0  0  0  0  0  0
  -29.5105  -12.4992   18.2218 C   0  0  0  0  0  0
  -28.0332  -12.3312   18.6373 C   0  0  0  0  0  0
  -27.6502  -13.2064   19.8594 C   0  0  2  0  0  0
  -28.6970  -13.0660   20.9870 C   0  0  0  0  0  0
  -25.2560  -13.8136   20.5657 C   0  0  0  0  0  0
  -24.1829  -13.0429   20.9213 C   0  0  0  0  0  0
  -24.6385  -11.6893   20.8763 C   0  0  0  0  0  0
  -23.9048  -10.4286   21.0426 C   0  0  0  0  0  0
  -24.3612   -9.4197   21.9197 C   0  0  0  0  0  0
  -23.6290   -8.2235   22.0757 C   0  0  0  0  0  0
  -22.4274   -8.0277   21.3537 C   0  0  0  0  0  0
  -21.9903   -9.0256   20.4651 C   0  0  0  0  0  0
  -22.7232  -10.2134   20.3062 C   0  0  0  0  0  0
  -21.6841   -6.0736   22.5283 C   0  0  0  0  0  0
  -21.4015   -6.5638   23.8219 C   0  0  0  0  0  0
  -21.3666   -5.6785   24.9180 C   0  0  0  0  0  0
  -21.6038   -4.3046   24.7227 C   0  0  0  0  0  0
  -21.8822   -3.8140   23.4350 C   0  0  0  0  0  0
  -21.9194   -4.6961   22.3409 C   0  0  0  0  0  0
  -22.7857  -13.5238   21.1892 C   0  0  0  0  0  0
  -22.1659   -4.2152   21.0984 F   0  0  0  0  0  0
  -21.5632   -3.4526   25.7738 F   0  0  0  0  0  0
  -30.0056  -13.4290   20.4200 N   0  0  0  0  0  0
  -26.2968  -12.9291   20.3282 N   0  0  0  0  0  0
  -25.9303  -11.6461   20.5762 N   0  0  0  0  0  0
  -22.0481  -12.8226   22.0445 N   0  0  0  0  0  0
  -25.4251  -15.1846   20.4018 N   0  0  0  0  0  0
  -31.7513  -14.8579   20.1440 O   0  0  0  0  0  0
  -21.6627   -6.8879   21.4242 O   0  0  0  0  0  0
  -22.3552  -14.5546   20.6743 O   0  0  0  0  0  0
  -24.6256  -31.8582   23.1977 C   0  0  0  0  0  0
  -25.9096  -32.4768   23.8326 C   0  0  1  0  0  0
  -27.2326  -27.3070   20.1333 C   0  0  0  0  0  0
  -25.5914  -33.8571   24.2269 N   0  0  0  0  0  0
  -23.4216  -30.4791   21.5403 C   0  0  2  0  0  0
  -24.8681  -28.9176   20.1197 C   0  0  0  0  0  0
  -22.7486  -29.4620   22.4921 C   0  0  0  0  0  0
  -18.0311  -28.1411   22.8508 C   0  0  0  0  0  0
  -24.1487  -36.7252   23.2648 C   0  0  0  0  0  0
  -25.9622  -30.7838   21.3693 C   0  0  0  0  0  0
  -26.0362  -29.4062   20.7194 C   0  0  0  0  0  0
  -27.2219  -28.6152   20.7091 C   0  0  0  0  0  0
  -26.0407  -26.8547   19.5307 C   0  0  0  0  0  0
  -24.8706  -27.6451   19.5194 C   0  0  0  0  0  0
  -23.6400  -29.8060   20.1574 C   0  0  0  0  0  0
  -25.4114  -36.3069   24.0347 C   0  0  1  0  0  0
  -20.5912  -28.3699   23.1297 C   0  0  2  0  0  0
  -20.6801  -26.9425   22.5431 C   0  0  0  0  0  0
  -19.5777  -26.6402   21.5240 C   0  0  0  0  0  0
  -18.1949  -26.7965   22.1630 C   0  0  0  0  0  0
  -19.1567  -28.8873   23.2901 C   0  0  0  0  0  0
  -18.9483  -30.1480   23.8910 C   0  0  0  0  0  0
  -17.6480  -30.6613   24.0590 C   0  0  0  0  0  0
  -25.9054  -34.9448   23.5099 C   0  0  0  0  0  0
  -16.5369  -29.9111   23.6347 C   0  0  0  0  0  0
  -16.7294  -28.6537   23.0356 C   0  0  0  0  0  0
  -26.4499  -31.6581   25.0694 C   0  0  0  0  0  0
  -25.3737  -31.3717   26.1421 C   0  0  0  0  0  0
  -27.0339  -30.3013   24.6118 C   0  0  0  0  0  0
  -27.6067  -32.4311   25.7444 C   0  0  0  0  0  0
  -27.5584  -37.1779   24.8478 C   0  0  0  0  0  0
  -21.4200  -29.3037   22.3664 N   0  0  0  0  0  0
  -26.4287  -37.3769   23.9437 N   0  0  0  0  0  0
  -24.6889  -31.0584   22.0926 N   0  0  0  0  0  0
  -23.4198  -28.8179   23.3030 O   0  0  0  0  0  0
  -28.3836  -26.5127   20.0740 O   0  0  0  0  0  0
  -26.5622  -34.8917   22.4665 O   0  0  0  0  0  0
  -23.5410  -32.1371   23.7294 O   0  0  0  0  0  0
  -30.3666  -19.4048   21.5140 C   0  0  0  0  0  0
  -28.6574  -19.2786   19.8522 C   0  0  0  0  0  0
  -29.3845  -20.1067   20.7465 C   0  0  0  0  0  0
  -29.7557  -17.1604   20.6300 C   0  0  0  0  0  0
  -30.5430  -17.9863   21.4782 C   0  0  0  0  0  0
  -28.8211  -17.8573   19.8047 C   0  0  0  0  0  0
  -28.8961  -21.9978   24.7713 C   0  0  0  0  0  0
  -28.5612  -21.3804   23.4106 C   0  0  0  0  0  0
  -28.2140  -23.8244   19.7942 C   0  0  0  0  0  0
  -29.3567  -22.0508   22.2758 C   0  0  0  0  0  0
  -29.1869  -22.5324   19.8494 C   0  0  0  0  0  0
  -28.4301  -25.1514   20.6650 C   0  0  0  0  0  0
  -29.6964  -15.6945   20.7373 N   0  0  0  0  0  0
  -29.0591  -21.5139   20.9448 N   0  0  0  0  0  0
  -31.6609  -17.2768   22.5914 Cl  0  0  0  0  0  0
  -27.7949  -16.9588   18.7428 Cl  0  0  0  0  0  0
  -31.4861  -12.5473   19.1461 H   0  0  0  0  0  0
  -30.3947  -11.4140   19.8955 H   0  0  0  0  0  0
  -29.7800  -11.7376   17.4873 H   0  0  0  0  0  0
  -29.6445  -13.4629   17.7264 H   0  0  0  0  0  0
  -27.8793  -11.2792   18.8790 H   0  0  0  0  0  0
  -27.3753  -12.5483   17.7955 H   0  0  0  0  0  0
  -27.6649  -14.2376   19.5120 H   0  0  0  0  0  0
  -28.7197  -12.0413   21.3605 H   0  0  0  0  0  0
  -28.4402  -13.6874   21.8467 H   0  0  0  0  0  0
  -25.2765   -9.5671   22.4762 H   0  0  0  0  0  0
  -24.0000   -7.4621   22.7460 H   0  0  0  0  0  0
  -21.0835   -8.8784   19.8949 H   0  0  0  0  0  0
  -22.3710  -10.9675   19.6169 H   0  0  0  0  0  0
  -21.2003   -7.6143   23.9728 H   0  0  0  0  0  0
  -21.1486   -6.0509   25.9085 H   0  0  0  0  0  0
  -22.0596   -2.7604   23.2842 H   0  0  0  0  0  0
  -22.4072  -11.9870   22.4818 H   0  0  0  0  0  0
  -21.1118  -13.1280   22.2683 H   0  0  0  0  0  0
  -24.6429  -15.8240   20.4836 H   0  0  0  0  0  0
  -26.2338  -15.6088   19.9652 H   0  0  0  0  0  0
  -26.7161  -32.5440   23.1072 H   0  0  0  0  0  0
  -25.0130  -33.9720   25.0461 H   0  0  0  0  0  0
  -22.7201  -31.3020   21.3933 H   0  0  0  0  0  0
  -23.3774  -35.9558   23.3305 H   0  0  0  0  0  0
  -24.3597  -36.8852   22.2061 H   0  0  0  0  0  0
  -23.7201  -37.6442   23.6656 H   0  0  0  0  0  0
  -26.1019  -31.5438   20.5987 H   0  0  0  0  0  0
  -26.8404  -30.8306   22.0017 H   0  0  0  0  0  0
  -28.1270  -28.9962   21.1620 H   0  0  0  0  0  0
  -26.0206  -25.8829   19.0575 H   0  0  0  0  0  0
  -23.9753  -27.2656   19.0460 H   0  0  0  0  0  0
  -23.7679  -30.5802   19.3997 H   0  0  0  0  0  0
  -22.7589  -29.2394   19.8520 H   0  0  0  0  0  0
  -25.1299  -36.1915   25.0841 H   0  0  0  0  0  0
  -21.0035  -28.3270   24.1402 H   0  0  0  0  0  0
  -20.5735  -26.2300   23.3624 H   0  0  0  0  0  0
  -21.6663  -26.7480   22.1203 H   0  0  0  0  0  0
  -19.6923  -25.6310   21.1263 H   0  0  0  0  0  0
  -19.6714  -27.3233   20.6786 H   0  0  0  0  0  0
  -17.4235  -26.6761   21.4000 H   0  0  0  0  0  0
  -18.0299  -26.0117   22.9026 H   0  0  0  0  0  0
  -19.7950  -30.7332   24.2241 H   0  0  0  0  0  0
  -17.5026  -31.6286   24.5204 H   0  0  0  0  0  0
  -15.5364  -30.3024   23.7659 H   0  0  0  0  0  0
  -15.8699  -28.0873   22.7023 H   0  0  0  0  0  0
  -24.5927  -30.7048   25.7761 H   0  0  0  0  0  0
  -24.8914  -32.2871   26.4844 H   0  0  0  0  0  0
  -25.8064  -30.8915   27.0200 H   0  0  0  0  0  0
  -26.2881  -29.6748   24.1198 H   0  0  0  0  0  0
  -27.4138  -29.7287   25.4593 H   0  0  0  0  0  0
  -27.8719  -30.4360   23.9275 H   0  0  0  0  0  0
  -27.2710  -33.3645   26.1979 H   0  0  0  0  0  0
  -28.3870  -32.6791   25.0237 H   0  0  0  0  0  0
  -28.0721  -31.8446   26.5374 H   0  0  0  0  0  0
  -28.2604  -38.0084   24.7546 H   0  0  0  0  0  0
  -28.1076  -36.2609   24.6270 H   0  0  0  0  0  0
  -27.2313  -37.1388   25.8887 H   0  0  0  0  0  0
  -20.9367  -29.8710   21.6846 H   0  0  0  0  0  0
  -26.0161  -38.2836   24.1464 H   0  0  0  0  0  0
  -30.9792  -19.9428   22.2196 H   0  0  0  0  0  0
  -27.8924  -19.7240   19.2328 H   0  0  0  0  0  0
  -28.2976  -21.5455   25.5620 H   0  0  0  0  0  0
  -28.6989  -23.0706   24.7802 H   0  0  0  0  0  0
  -29.9471  -21.8499   25.0208 H   0  0  0  0  0  0
  -27.4916  -21.4860   23.2218 H   0  0  0  0  0  0
  -28.7567  -20.3090   23.4595 H   0  0  0  0  0  0
  -27.1839  -23.4885   19.9148 H   0  0  0  0  0  0
  -28.2610  -24.1658   18.7593 H   0  0  0  0  0  0
  -30.4295  -21.9922   22.4675 H   0  0  0  0  0  0
  -29.1314  -23.1167   22.2930 H   0  0  0  0  0  0
  -30.2234  -22.8721   19.8264 H   0  0  0  0  0  0
  -29.0561  -21.9902   18.9112 H   0  0  0  0  0  0
  -29.4293  -25.0827   21.0940 H   0  0  0  0  0  0
  -27.7630  -25.1220   21.5279 H   0  0  0  0  0  0
  -28.7605  -15.3421   20.8544 H   0  0  0  0  0  0
  1 25  1  0  0  0
  1 30  2  0  0  0
  1 83  1  0  0  0
  2  3  1  0  0  0
  2 25  1  0  0  0
  2 87  1  0  0  0
  2 88  1  0  0  0
  3  4  1  0  0  0
  3 89  1  0  0  0
  3 90  1  0  0  0
  4  5  1  0  0  0
  4 91  1  0  0  0
  4 92  1  0  0  0
  5  6  1  0  0  0
  5 26  1  0  0  0
  5 93  1  0  0  0
  6 25  1  0  0  0
  6 94  1  0  0  0
  6 95  1  0  0  0
  7  8  2  0  0  0
  7 26  1  0  0  0
  7 29  1  0  0  0
  8  9  1  0  0  0
  8 22  1  0  0  0
  9 10  1  0  0  0
  9 27  2  0  0  0
 10 11  2  0  0  0
 10 15  1  0  0  0
 11 12  1  0  0  0
 11 96  1  0  0  0
 12 13  2  0  0  0
 12 97  1  0  0  0
 13 14  1  0  0  0
 13 31  1  0  0  0
 14 15  2  0  0  0
 14 98  1  0  0  0
 15 99  1  0  0  0
 16 17  2  0  0  0
 16 21  1  0  0  0
 16 31  1  0  0  0
 17 18  1  0  0  0
 17100  1  0  0  0
 18 19  2  0  0  0
 18101  1  0  0  0
 19 20  1  0  0  0
 19 24  1  0  0  0
 20 21  2  0  0  0
 20102  1  0  0  0
 21 23  1  0  0  0
 22 28  1  0  0  0
 22 32  2  0  0  0
 26 27  1  0  0  0
 28103  1  0  0  0
 28104  1  0  0  0
 29105  1  0  0  0
 29106  1  0  0  0
 33 34  1  0  0  0
 33 66  1  0  0  0
 33 70  2  0  0  0
 34 36  1  0  0  0
 34 59  1  0  0  0
 34107  1  0  0  0
 35 44  2  0  0  0
 35 45  1  0  0  0
 35 68  1  0  0  0
 36 56  1  0  0  0
 36108  1  0  0  0
 37 39  1  0  0  0
 37 47  1  0  0  0
 37 66  1  0  0  0
 37109  1  0  0  0
 38 43  2  0  0  0
 38 46  1  0  0  0
 38 47  1  0  0  0
 39 64  1  0  0  0
 39 67  2  0  0  0
 40 52  1  0  0  0
 40 53  2  0  0  0
 40 58  1  0  0  0
 41110  1  0  0  0
 41111  1  0  0  0
 41112  1  0  0  0
 41 48  1  0  0  0
 42 43  1  0  0  0
 42 66  1  0  0  0
 42113  1  0  0  0
 42114  1  0  0  0
 43 44  1  0  0  0
 44115  1  0  0  0
 45 46  2  0  0  0
 45116  1  0  0  0
 46117  1  0  0  0
 47118  1  0  0  0
 47119  1  0  0  0
 48 56  1  0  0  0
 48 65  1  0  0  0
 48120  1  0  0  0
 49 50  1  0  0  0
 49 53  1  0  0  0
 49 64  1  0  0  0
 49121  1  0  0  0
 50 51  1  0  0  0
 50122  1  0  0  0
 50123  1  0  0  0
 51 52  1  0  0  0
 51124  1  0  0  0
 51125  1  0  0  0
 52126  1  0  0  0
 52127  1  0  0  0
 53 54  1  0  0  0
 54 55  2  0  0  0
 54128  1  0  0  0
 55 57  1  0  0  0
 55129  1  0  0  0
 56 69  2  0  0  0
 57 58  2  0  0  0
 57130  1  0  0  0
 58131  1  0  0  0
 59 60  1  0  0  0
 59 61  1  0  0  0
 59 62  1  0  0  0
 60132  1  0  0  0
 60133  1  0  0  0
 60134  1  0  0  0
 61135  1  0  0  0
 61136  1  0  0  0
 61137  1  0  0  0
 62138  1  0  0  0
 62139  1  0  0  0
 62140  1  0  0  0
 63 65  1  0  0  0
 63141  1  0  0  0
 63142  1  0  0  0
 63143  1  0  0  0
 64144  1  0  0  0
 65145  1  0  0  0
 68 82  1  0  0  0
 71 73  2  0  0  0
 71 75  1  0  0  0
 71146  1  0  0  0
 72 73  1  0  0  0
 72 76  2  0  0  0
 72147  1  0  0  0
 73 84  1  0  0  0
 74 75  2  0  0  0
 74 76  1  0  0  0
 74 83  1  0  0  0
 75 85  1  0  0  0
 76 86  1  0  0  0
 77 78  1  0  0  0
 77148  1  0  0  0
 77149  1  0  0  0
 77150  1  0  0  0
 78 80  1  0  0  0
 78151  1  0  0  0
 78152  1  0  0  0
 79 81  1  0  0  0
 79 82  1  0  0  0
 79153  1  0  0  0
 79154  1  0  0  0
 80 84  1  0  0  0
 80155  1  0  0  0
 80156  1  0  0  0
 81 84  1  0  0  0
 81157  1  0  0  0
 81158  1  0  0  0
 82159  1  0  0  0
 82160  1  0  0  0
 83161  1  0  0  0
M  ISO  4   1 100  68 101  82 101  83 100
M  END
> <chiral flag>
0

> <version>
0

> <s_m_source_file>
/data/baiqing/PycharmProjects/Reinvent-master-3.2/result/LINK_invent/BTK/process_docking_weight1_custom_sum_contain_oxygen_bond_distance_aromatic_linkinvent_7_9_3/rearranged_h_0022.sdf

> <i_m_source_file_index>
36

> <r_mmod_Potential_Energy-OPLS-2005>
92.0041961669922

> <r_mmod_Stretch_Energy-OPLS-2005>
91.9006576538086

> <r_mmod_Bend_Energy-OPLS-2005>
172.175537109375

> <r_mmod_Torsional_Energy-OPLS-2005>
282.060119628906

> <r_mmod_Improper_Torsional_Energy-OPLS-2005>
10.7961978912354

> <r_mmod_Van_der_Waal_Energy-OPLS-2005>
130.373397827148

> <r_mmod_Electrostatic_Energy-OPLS-2005>
-438.938385009766

> <r_mmod_Solvation_Energy-OPLS-2005>
-210.331878662109

> <b_mmod_Minimization_Converged-OPLS-2005>
0

> <r_mmod_RMS_Derivative-OPLS-2005>
2.65096831321716

$$$$
36
                    3D
 Structure written by MMmdl.
152160  0  0  1  0            999 V2000
  -30.5119  -15.0095   20.3929 C   0  0  0  0  0  0
  -30.4298  -12.6259   19.5154 C   0  0  0  0  0  0
  -29.5147  -12.5392   18.2701 C   0  0  0  0  0  0
  -28.0562  -12.3011   18.6923 C   0  0  0  0  0  0
  -27.6211  -13.2529   19.8358 C   0  0  2  0  0  0
  -28.6563  -13.3124   20.9798 C   0  0  0  0  0  0
  -25.2412  -13.8225   20.5677 C   0  0  0  0  0  0
  -24.1746  -13.0432   20.9221 C   0  0  0  0  0  0
  -24.6385  -11.6925   20.8791 C   0  0  0  0  0  0
  -23.9078  -10.4279   21.0438 C   0  0  0  0  0  0
  -24.3621   -9.4183   21.9209 C   0  0  0  0  0  0
  -23.6287   -8.2235   22.0781 C   0  0  0  0  0  0
  -22.4282   -8.0283   21.3558 C   0  0  0  0  0  0
  -21.9910   -9.0256   20.4657 C   0  0  0  0  0  0
  -22.7257  -10.2126   20.3066 C   0  0  0  0  0  0
  -21.6833   -6.0753   22.5289 C   0  0  0  0  0  0
  -21.4008   -6.5652   23.8217 C   0  0  0  0  0  0
  -21.3650   -5.6802   24.9177 C   0  0  0  0  0  0
  -21.6034   -4.3070   24.7226 C   0  0  0  0  0  0
  -21.8812   -3.8156   23.4339 C   0  0  0  0  0  0
  -21.9182   -4.6974   22.3400 C   0  0  0  0  0  0
  -22.7761  -13.5198   21.1876 C   0  0  0  0  0  0
  -22.1653   -4.2151   21.0993 F   0  0  0  0  0  0
  -21.5612   -3.4552   25.7746 F   0  0  0  0  0  0
  -29.9322  -13.7334   20.3898 N   0  0  0  0  0  0
  -26.2835  -12.9471   20.3231 N   0  0  0  0  0  0
  -25.9310  -11.6598   20.5752 N   0  0  0  0  0  0
  -22.0424  -12.8189   22.0453 N   0  0  0  0  0  0
  -25.4097  -15.1957   20.4082 N   0  0  0  0  0  0
  -31.7068  -15.0521   20.0664 O   0  0  0  0  0  0
  -21.6643   -6.8892   21.4263 O   0  0  0  0  0  0
  -22.3435  -14.5509   20.6741 O   0  0  0  0  0  0
  -24.6460  -31.8353   23.1844 C   0  0  0  0  0  0
  -25.9190  -32.4663   23.8263 C   0  0  1  0  0  0
  -27.2193  -27.0986   20.1508 C   0  0  0  0  0  0
  -25.5945  -33.8499   24.2164 N   0  0  0  0  0  0
  -23.4533  -30.4540   21.5261 C   0  0  2  0  0  0
  -24.9024  -28.8682   20.1006 C   0  0  0  0  0  0
  -22.7593  -29.4500   22.4823 C   0  0  0  0  0  0
  -18.0282  -28.1375   22.8467 C   0  0  0  0  0  0
  -24.1484  -36.7262   23.2675 C   0  0  0  0  0  0
  -26.0103  -30.6952   21.3859 C   0  0  0  0  0  0
  -26.0736  -29.3026   20.7283 C   0  0  0  0  0  0
  -27.2260  -28.4302   20.7424 C   0  0  0  0  0  0
  -26.0246  -26.7674   19.4802 C   0  0  0  0  0  0
  -24.8899  -27.6161   19.4639 C   0  0  0  0  0  0
  -23.6806  -29.7764   20.1432 C   0  0  0  0  0  0
  -25.4101  -36.3037   24.0347 C   0  0  1  0  0  0
  -20.5919  -28.3704   23.1228 C   0  0  2  0  0  0
  -20.6767  -26.9403   22.5401 C   0  0  0  0  0  0
  -19.5745  -26.6351   21.5220 C   0  0  0  0  0  0
  -18.1919  -26.7916   22.1586 C   0  0  0  0  0  0
  -19.1558  -28.8844   23.2830 C   0  0  0  0  0  0
  -18.9489  -30.1438   23.8850 C   0  0  0  0  0  0
  -17.6501  -30.6580   24.0562 C   0  0  0  0  0  0
  -25.9050  -34.9395   23.5060 C   0  0  0  0  0  0
  -16.5376  -29.9082   23.6339 C   0  0  0  0  0  0
  -16.7270  -28.6497   23.0343 C   0  0  0  0  0  0
  -26.4486  -31.6595   25.0742 C   0  0  0  0  0  0
  -25.3662  -31.3797   26.1450 C   0  0  0  0  0  0
  -27.0434  -30.3030   24.6338 C   0  0  0  0  0  0
  -27.6009  -32.4375   25.7482 C   0  0  0  0  0  0
  -27.5553  -37.1790   24.8465 C   0  0  0  0  0  0
  -21.4270  -29.3077   22.3641 N   0  0  0  0  0  0
  -26.4244  -37.3765   23.9439 N   0  0  0  0  0  0
  -24.7236  -31.0191   22.0860 N   0  0  0  0  0  0
  -23.4223  -28.8047   23.2988 O   0  0  0  0  0  0
  -28.2812  -26.1246   20.2862 O   0  0  0  0  0  0
  -26.5651  -34.8926   22.4657 O   0  0  0  0  0  0
  -23.5568  -32.1228   23.7040 O   0  0  0  0  0  0
  -29.6423  -20.1029   18.5908 C   0  0  0  0  0  0
  -29.3177  -20.2464   19.9541 C   0  0  0  0  0  0
  -29.3718  -18.9325   20.6783 C   0  0  0  0  0  0
  -30.0419  -18.8578   18.0523 C   0  0  0  0  0  0
  -29.7615  -17.6199   20.0507 C   0  0  0  0  0  0
  -30.5097  -18.7647   16.6121 C   0  0  0  0  0  0
  -29.2107  -21.8250   20.5006 C   0  0  0  0  0  0
  -28.1278  -23.0799   20.1088 C   0  0  0  0  0  0
  -28.4226  -24.7011   19.6395 C   0  0  0  0  0  0
  -30.0901  -17.6922   18.7415 N   0  0  0  0  0  0
  -29.7647  -16.2032   20.6642 N   0  0  0  0  0  0
  -29.0096  -18.9385   22.3688 Cl  0  0  0  0  0  0
  -31.4626  -12.7786   19.1983 H   0  0  0  0  0  0
  -30.4302  -11.6813   20.0598 H   0  0  0  0  0  0
  -29.8468  -11.7411   17.6072 H   0  0  0  0  0  0
  -29.5807  -13.4635   17.6945 H   0  0  0  0  0  0
  -27.9782  -11.2660   19.0323 H   0  0  0  0  0  0
  -27.3829  -12.3896   17.8386 H   0  0  0  0  0  0
  -27.5763  -14.2455   19.3857 H   0  0  0  0  0  0
  -28.7499  -12.3436   21.4738 H   0  0  0  0  0  0
  -28.3358  -14.0203   21.7446 H   0  0  0  0  0  0
  -25.2756   -9.5661   22.4792 H   0  0  0  0  0  0
  -23.9979   -7.4622   22.7502 H   0  0  0  0  0  0
  -21.0832   -8.8765   19.8955 H   0  0  0  0  0  0
  -22.3715  -10.9666   19.6168 H   0  0  0  0  0  0
  -21.2021   -7.6160   23.9726 H   0  0  0  0  0  0
  -21.1461   -6.0543   25.9086 H   0  0  0  0  0  0
  -22.0593   -2.7616   23.2851 H   0  0  0  0  0  0
  -22.4024  -11.9809   22.4769 H   0  0  0  0  0  0
  -21.1054  -13.1224   22.2722 H   0  0  0  0  0  0
  -24.6360  -15.8466   20.4928 H   0  0  0  0  0  0
  -26.2533  -15.6265   20.0547 H   0  0  0  0  0  0
  -26.7247  -32.5239   23.0983 H   0  0  0  0  0  0
  -25.0164  -33.9624   25.0354 H   0  0  0  0  0  0
  -22.7618  -31.2824   21.3603 H   0  0  0  0  0  0
  -23.3783  -35.9557   23.3260 H   0  0  0  0  0  0
  -24.3607  -36.8921   22.2105 H   0  0  0  0  0  0
  -23.7158  -37.6421   23.6727 H   0  0  0  0  0  0
  -26.1685  -31.4440   20.6086 H   0  0  0  0  0  0
  -26.8841  -30.7491   22.0232 H   0  0  0  0  0  0
  -28.1113  -28.7493   21.2688 H   0  0  0  0  0  0
  -25.9296  -25.8022   19.0029 H   0  0  0  0  0  0
  -23.9932  -27.2748   18.9647 H   0  0  0  0  0  0
  -23.8247  -30.5464   19.3852 H   0  0  0  0  0  0
  -22.7933  -29.2212   19.8337 H   0  0  0  0  0  0
  -25.1273  -36.1857   25.0837 H   0  0  0  0  0  0
  -20.9961  -28.3244   24.1350 H   0  0  0  0  0  0
  -20.5648  -26.2334   23.3618 H   0  0  0  0  0  0
  -21.6638  -26.7363   22.1208 H   0  0  0  0  0  0
  -19.6952  -25.6261   21.1234 H   0  0  0  0  0  0
  -19.6684  -27.3177   20.6777 H   0  0  0  0  0  0
  -17.4204  -26.6674   21.3962 H   0  0  0  0  0  0
  -18.0236  -26.0033   22.8940 H   0  0  0  0  0  0
  -19.7997  -30.7246   24.2178 H   0  0  0  0  0  0
  -17.5083  -31.6260   24.5182 H   0  0  0  0  0  0
  -15.5391  -30.3004   23.7728 H   0  0  0  0  0  0
  -15.8631  -28.0852   22.7079 H   0  0  0  0  0  0
  -24.5867  -30.7082   25.7832 H   0  0  0  0  0  0
  -24.8844  -32.3001   26.4780 H   0  0  0  0  0  0
  -25.7966  -30.9084   27.0297 H   0  0  0  0  0  0
  -26.3132  -29.6698   24.1313 H   0  0  0  0  0  0
  -27.4099  -29.7345   25.4900 H   0  0  0  0  0  0
  -27.8947  -30.4378   23.9655 H   0  0  0  0  0  0
  -27.2640  -33.3756   26.1897 H   0  0  0  0  0  0
  -28.3890  -32.6781   25.0337 H   0  0  0  0  0  0
  -28.0601  -31.8599   26.5512 H   0  0  0  0  0  0
  -28.2549  -38.0116   24.7548 H   0  0  0  0  0  0
  -28.1030  -36.2645   24.6170 H   0  0  0  0  0  0
  -27.2304  -37.1284   25.8875 H   0  0  0  0  0  0
  -20.9464  -29.8893   21.6902 H   0  0  0  0  0  0
  -26.0094  -38.2821   24.1474 H   0  0  0  0  0  0
  -29.6634  -20.9804   17.9586 H   0  0  0  0  0  0
  -30.9909  -19.6912   16.2992 H   0  0  0  0  0  0
  -29.6728  -18.5734   15.9398 H   0  0  0  0  0  0
  -31.2426  -17.9661   16.4895 H   0  0  0  0  0  0
  -30.1867  -22.2306   20.2336 H   0  0  0  0  0  0
  -29.2485  -21.7783   21.5853 H   0  0  0  0  0  0
  -27.3394  -23.0907   20.8614 H   0  0  0  0  0  0
  -27.6081  -22.6735   19.2420 H   0  0  0  0  0  0
  -27.9064  -24.8134   18.6842 H   0  0  0  0  0  0
  -29.4690  -24.6825   19.3328 H   0  0  0  0  0  0
  -28.9560  -16.0336   21.2398 H   0  0  0  0  0  0
  1 25  1  0  0  0
  1 30  2  0  0  0
  1 81  1  0  0  0
  2  3  1  0  0  0
  2 25  1  0  0  0
  2 83  1  0  0  0
  2 84  1  0  0  0
  3  4  1  0  0  0
  3 85  1  0  0  0
  3 86  1  0  0  0
  4  5  1  0  0  0
  4 87  1  0  0  0
  4 88  1  0  0  0
  5  6  1  0  0  0
  5 26  1  0  0  0
  5 89  1  0  0  0
  6 25  1  0  0  0
  6 90  1  0  0  0
  6 91  1  0  0  0
  7  8  2  0  0  0
  7 26  1  0  0  0
  7 29  1  0  0  0
  8  9  1  0  0  0
  8 22  1  0  0  0
  9 10  1  0  0  0
  9 27  2  0  0  0
 10 11  2  0  0  0
 10 15  1  0  0  0
 11 12  1  0  0  0
 11 92  1  0  0  0
 12 13  2  0  0  0
 12 93  1  0  0  0
 13 14  1  0  0  0
 13 31  1  0  0  0
 14 15  2  0  0  0
 14 94  1  0  0  0
 15 95  1  0  0  0
 16 17  2  0  0  0
 16 21  1  0  0  0
 16 31  1  0  0  0
 17 18  1  0  0  0
 17 96  1  0  0  0
 18 19  2  0  0  0
 18 97  1  0  0  0
 19 20  1  0  0  0
 19 24  1  0  0  0
 20 21  2  0  0  0
 20 98  1  0  0  0
 21 23  1  0  0  0
 22 28  1  0  0  0
 22 32  2  0  0  0
 26 27  1  0  0  0
 28 99  1  0  0  0
 28100  1  0  0  0
 29101  1  0  0  0
 29102  1  0  0  0
 33 34  1  0  0  0
 33 66  1  0  0  0
 33 70  2  0  0  0
 34 36  1  0  0  0
 34 59  1  0  0  0
 34103  1  0  0  0
 35 44  2  0  0  0
 35 45  1  0  0  0
 35 68  1  0  0  0
 36 56  1  0  0  0
 36104  1  0  0  0
 37 39  1  0  0  0
 37 47  1  0  0  0
 37 66  1  0  0  0
 37105  1  0  0  0
 38 43  2  0  0  0
 38 46  1  0  0  0
 38 47  1  0  0  0
 39 64  1  0  0  0
 39 67  2  0  0  0
 40 52  1  0  0  0
 40 53  2  0  0  0
 40 58  1  0  0  0
 41106  1  0  0  0
 41107  1  0  0  0
 41108  1  0  0  0
 41 48  1  0  0  0
 42 43  1  0  0  0
 42 66  1  0  0  0
 42109  1  0  0  0
 42110  1  0  0  0
 43 44  1  0  0  0
 44111  1  0  0  0
 45 46  2  0  0  0
 45112  1  0  0  0
 46113  1  0  0  0
 47114  1  0  0  0
 47115  1  0  0  0
 48 56  1  0  0  0
 48 65  1  0  0  0
 48116  1  0  0  0
 49 50  1  0  0  0
 49 53  1  0  0  0
 49 64  1  0  0  0
 49117  1  0  0  0
 50 51  1  0  0  0
 50118  1  0  0  0
 50119  1  0  0  0
 51 52  1  0  0  0
 51120  1  0  0  0
 51121  1  0  0  0
 52122  1  0  0  0
 52123  1  0  0  0
 53 54  1  0  0  0
 54 55  2  0  0  0
 54124  1  0  0  0
 55 57  1  0  0  0
 55125  1  0  0  0
 56 69  2  0  0  0
 57 58  2  0  0  0
 57126  1  0  0  0
 58127  1  0  0  0
 59 60  1  0  0  0
 59 61  1  0  0  0
 59 62  1  0  0  0
 60128  1  0  0  0
 60129  1  0  0  0
 60130  1  0  0  0
 61131  1  0  0  0
 61132  1  0  0  0
 61133  1  0  0  0
 62134  1  0  0  0
 62135  1  0  0  0
 62136  1  0  0  0
 63 65  1  0  0  0
 63137  1  0  0  0
 63138  1  0  0  0
 63139  1  0  0  0
 64140  1  0  0  0
 65141  1  0  0  0
 68 79  1  0  0  0
 71 72  2  0  0  0
 71 74  1  0  0  0
 71142  1  0  0  0
 72 73  1  0  0  0
 72 77  1  0  0  0
 73 75  2  0  0  0
 73 82  1  0  0  0
 74 76  1  0  0  0
 74 80  2  0  0  0
 75 80  1  0  0  0
 75 81  1  0  0  0
 76143  1  0  0  0
 76144  1  0  0  0
 76145  1  0  0  0
 77 78  1  0  0  0
 77146  1  0  0  0
 77147  1  0  0  0
 78 79  1  0  0  0
 78148  1  0  0  0
 78149  1  0  0  0
 79150  1  0  0  0
 79151  1  0  0  0
 81152  1  0  0  0
M  ISO  4   1 100  68 101  79 101  81 100
M  END
> <chiral flag>
0

> <version>
0

> <s_m_source_file>
/data/baiqing/PycharmProjects/Reinvent-master-3.2/result/LINK_invent/BTK/process_docking_weight1_custom_sum_contain_oxygen_bond_distance_aromatic_linkinvent_7_9_3/rearranged_h_0022.sdf

> <i_m_source_file_index>
37

> <r_mmod_Potential_Energy-OPLS-2005>
532.549865722656

> <r_mmod_Stretch_Energy-OPLS-2005>
303.111236572266

> <r_mmod_Bend_Energy-OPLS-2005>
336.043365478516

> <r_mmod_Torsional_Energy-OPLS-2005>
243.583068847656

> <r_mmod_Improper_Torsional_Energy-OPLS-2005>
4.93206787109375

> <r_mmod_Van_der_Waal_Energy-OPLS-2005>
125.004058837891

> <r_mmod_Electrostatic_Energy-OPLS-2005>
-489.723785400391

> <r_mmod_Solvation_Energy-OPLS-2005>
-223.306793212891

> <b_mmod_Minimization_Converged-OPLS-2005>
0

> <r_mmod_RMS_Derivative-OPLS-2005>
5.04833698272705

$$$$
37
                    3D
 Structure written by MMmdl.
156164  0  0  1  0            999 V2000
  -30.4118  -15.3310   20.3910 C   0  0  0  0  0  0
  -30.4394  -12.8668   19.5259 C   0  0  0  0  0  0
  -29.5350  -12.5794   18.3007 C   0  0  0  0  0  0
  -28.0939  -12.2782   18.7422 C   0  0  0  0  0  0
  -27.6052  -13.2723   19.8215 C   0  0  2  0  0  0
  -28.6362  -13.4888   20.9511 C   0  0  0  0  0  0
  -25.2347  -13.8255   20.5760 C   0  0  0  0  0  0
  -24.1690  -13.0431   20.9255 C   0  0  0  0  0  0
  -24.6351  -11.6941   20.8769 C   0  0  0  0  0  0
  -23.9065  -10.4285   21.0415 C   0  0  0  0  0  0
  -24.3607   -9.4206   21.9197 C   0  0  0  0  0  0
  -23.6282   -8.2239   22.0766 C   0  0  0  0  0  0
  -22.4279   -8.0261   21.3541 C   0  0  0  0  0  0
  -21.9904   -9.0244   20.4657 C   0  0  0  0  0  0
  -22.7233  -10.2130   20.3068 C   0  0  0  0  0  0
  -21.6856   -6.0711   22.5269 C   0  0  0  0  0  0
  -21.4015   -6.5629   23.8195 C   0  0  0  0  0  0
  -21.3651   -5.6791   24.9157 C   0  0  0  0  0  0
  -21.6046   -4.3048   24.7226 C   0  0  0  0  0  0
  -21.8820   -3.8134   23.4345 C   0  0  0  0  0  0
  -21.9196   -4.6935   22.3398 C   0  0  0  0  0  0
  -22.7710  -13.5174   21.1898 C   0  0  0  0  0  0
  -22.1656   -4.2117   21.0971 F   0  0  0  0  0  0
  -21.5631   -3.4541   25.7742 F   0  0  0  0  0  0
  -29.8544  -14.0180   20.3144 N   0  0  0  0  0  0
  -26.2764  -12.9519   20.3243 N   0  0  0  0  0  0
  -25.9290  -11.6638   20.5768 N   0  0  0  0  0  0
  -22.0391  -12.8165   22.0465 N   0  0  0  0  0  0
  -25.3990  -15.1984   20.4187 N   0  0  0  0  0  0
  -31.6405  -15.3055   20.2092 O   0  0  0  0  0  0
  -21.6646   -6.8856   21.4236 O   0  0  0  0  0  0
  -22.3383  -14.5466   20.6744 O   0  0  0  0  0  0
  -24.6639  -31.8219   23.1673 C   0  0  0  0  0  0
  -25.9306  -32.4574   23.8136 C   0  0  1  0  0  0
  -27.2162  -26.8961   20.1992 C   0  0  0  0  0  0
  -25.5978  -33.8382   24.2055 N   0  0  0  0  0  0
  -23.4793  -30.4262   21.5200 C   0  0  2  0  0  0
  -24.9315  -28.8019   20.1240 C   0  0  0  0  0  0
  -22.7650  -29.4409   22.4820 C   0  0  0  0  0  0
  -18.0301  -28.1348   22.8457 C   0  0  0  0  0  0
  -24.1515  -36.7206   23.2648 C   0  0  0  0  0  0
  -26.0498  -30.6171   21.4036 C   0  0  0  0  0  0
  -26.1193  -29.2018   20.7508 C   0  0  0  0  0  0
  -27.2602  -28.2747   20.7503 C   0  0  0  0  0  0
  -25.9958  -26.6488   19.5366 C   0  0  0  0  0  0
  -24.8959  -27.5450   19.4971 C   0  0  0  0  0  0
  -23.7180  -29.7310   20.1522 C   0  0  0  0  0  0
  -25.4152  -36.2954   24.0296 C   0  0  1  0  0  0
  -20.5926  -28.3693   23.1171 C   0  0  2  0  0  0
  -20.6778  -26.9371   22.5389 C   0  0  0  0  0  0
  -19.5768  -26.6319   21.5180 C   0  0  0  0  0  0
  -18.1943  -26.7879   22.1588 C   0  0  0  0  0  0
  -19.1563  -28.8845   23.2801 C   0  0  0  0  0  0
  -18.9480  -30.1438   23.8833 C   0  0  0  0  0  0
  -17.6486  -30.6553   24.0521 C   0  0  0  0  0  0
  -25.9103  -34.9339   23.4995 C   0  0  0  0  0  0
  -16.5365  -29.9027   23.6354 C   0  0  0  0  0  0
  -16.7290  -28.6452   23.0382 C   0  0  0  0  0  0
  -26.4577  -31.6526   25.0667 C   0  0  0  0  0  0
  -25.3723  -31.3748   26.1337 C   0  0  0  0  0  0
  -27.0494  -30.2894   24.6419 C   0  0  0  0  0  0
  -27.6055  -32.4384   25.7441 C   0  0  0  0  0  0
  -27.5593  -37.1766   24.8462 C   0  0  0  0  0  0
  -21.4322  -29.3007   22.3551 N   0  0  0  0  0  0
  -26.4300  -37.3682   23.9397 N   0  0  0  0  0  0
  -24.7517  -30.9841   22.0823 N   0  0  0  0  0  0
  -23.4193  -28.8004   23.3076 O   0  0  0  0  0  0
  -28.2399  -25.8040   20.1746 O   0  0  0  0  0  0
  -26.5728  -34.8889   22.4597 O   0  0  0  0  0  0
  -23.5712  -32.1244   23.6738 O   0  0  0  0  0  0
  -31.0787  -20.0134   21.8575 C   0  0  0  0  0  0
  -30.3576  -21.1346   21.3744 C   0  0  0  0  0  0
  -30.8410  -18.6481   21.5467 C   0  0  0  0  0  0
  -29.2354  -21.0105   20.5179 C   0  0  0  0  0  0
  -29.0160  -19.4949   20.1861 C   0  0  0  0  0  0
  -29.8127  -18.2314   20.6527 C   0  0  0  0  0  0
  -30.8739  -22.5039   21.7907 C   0  0  0  0  0  0
  -31.7461  -17.6508   22.2509 C   0  0  0  0  0  0
  -27.8519  -19.2043   19.2558 C   0  0  0  0  0  0
  -28.5470  -22.5395   19.9270 C   0  0  0  0  0  0
  -28.1481  -24.1953   20.6060 C   0  0  0  0  0  0
  -29.6319  -16.6168   20.4126 N   0  0  0  0  0  0
  -31.4436  -13.1018   19.1713 H   0  0  0  0  0  0
  -30.5501  -11.9806   20.1514 H   0  0  0  0  0  0
  -29.9345  -11.7489   17.7171 H   0  0  0  0  0  0
  -29.5354  -13.4493   17.6425 H   0  0  0  0  0  0
  -28.0824  -11.2671   19.1525 H   0  0  0  0  0  0
  -27.4208  -12.2702   17.8840 H   0  0  0  0  0  0
  -27.5084  -14.2215   19.2954 H   0  0  0  0  0  0
  -28.8277  -12.5716   21.5113 H   0  0  0  0  0  0
  -28.2578  -14.2178   21.6690 H   0  0  0  0  0  0
  -25.2755   -9.5675   22.4759 H   0  0  0  0  0  0
  -23.9983   -7.4636   22.7494 H   0  0  0  0  0  0
  -21.0826   -8.8744   19.8973 H   0  0  0  0  0  0
  -22.3670  -10.9649   19.6155 H   0  0  0  0  0  0
  -21.2007   -7.6146   23.9669 H   0  0  0  0  0  0
  -21.1477   -6.0541   25.9055 H   0  0  0  0  0  0
  -22.0614   -2.7599   23.2866 H   0  0  0  0  0  0
  -22.4069  -11.9832   22.4819 H   0  0  0  0  0  0
  -21.1007  -13.1158   22.2725 H   0  0  0  0  0  0
  -24.6274  -15.8500   20.5187 H   0  0  0  0  0  0
  -26.2418  -15.6383   20.0777 H   0  0  0  0  0  0
  -26.7340  -32.5126   23.0818 H   0  0  0  0  0  0
  -25.0012  -33.9427   25.0127 H   0  0  0  0  0  0
  -22.7951  -31.2570   21.3417 H   0  0  0  0  0  0
  -23.3796  -35.9525   23.3268 H   0  0  0  0  0  0
  -24.3586  -36.8905   22.2072 H   0  0  0  0  0  0
  -23.7287  -37.6385   23.6734 H   0  0  0  0  0  0
  -26.2402  -31.3620   20.6294 H   0  0  0  0  0  0
  -26.9010  -30.6658   22.0705 H   0  0  0  0  0  0
  -28.1722  -28.5922   21.2355 H   0  0  0  0  0  0
  -25.8785  -25.6882   19.0542 H   0  0  0  0  0  0
  -23.9947  -27.2277   18.9914 H   0  0  0  0  0  0
  -23.8738  -30.4899   19.3858 H   0  0  0  0  0  0
  -22.8293  -29.1783   19.8415 H   0  0  0  0  0  0
  -25.1358  -36.1738   25.0792 H   0  0  0  0  0  0
  -21.0026  -28.3285   24.1281 H   0  0  0  0  0  0
  -20.5622  -26.2287   23.3622 H   0  0  0  0  0  0
  -21.6647  -26.7340   22.1213 H   0  0  0  0  0  0
  -19.6928  -25.6208   21.1245 H   0  0  0  0  0  0
  -19.6700  -27.3096   20.6682 H   0  0  0  0  0  0
  -17.4219  -26.6620   21.3979 H   0  0  0  0  0  0
  -18.0364  -25.9993   22.8963 H   0  0  0  0  0  0
  -19.7972  -30.7242   24.2192 H   0  0  0  0  0  0
  -17.5040  -31.6245   24.5083 H   0  0  0  0  0  0
  -15.5360  -30.2891   23.7736 H   0  0  0  0  0  0
  -15.8692  -28.0725   22.7167 H   0  0  0  0  0  0
  -24.5939  -30.7052   25.7675 H   0  0  0  0  0  0
  -24.8880  -32.2923   26.4672 H   0  0  0  0  0  0
  -25.8014  -30.9021   27.0185 H   0  0  0  0  0  0
  -26.3212  -29.6569   24.1341 H   0  0  0  0  0  0
  -27.3924  -29.7240   25.5094 H   0  0  0  0  0  0
  -27.9173  -30.4085   23.9932 H   0  0  0  0  0  0
  -27.2622  -33.3757   26.1833 H   0  0  0  0  0  0
  -28.3941  -32.6839   25.0314 H   0  0  0  0  0  0
  -28.0622  -31.8645   26.5515 H   0  0  0  0  0  0
  -28.2576  -38.0091   24.7515 H   0  0  0  0  0  0
  -28.1142  -36.2624   24.6305 H   0  0  0  0  0  0
  -27.2288  -37.1391   25.8855 H   0  0  0  0  0  0
  -20.9582  -29.8756   21.6725 H   0  0  0  0  0  0
  -26.0153  -38.2746   24.1420 H   0  0  0  0  0  0
  -31.9052  -20.2258   22.5194 H   0  0  0  0  0  0
  -30.9212  -23.1822   20.9382 H   0  0  0  0  0  0
  -31.8878  -22.4572   22.1947 H   0  0  0  0  0  0
  -30.2391  -22.9281   22.5685 H   0  0  0  0  0  0
  -32.2785  -18.1069   23.0861 H   0  0  0  0  0  0
  -32.5014  -17.2802   21.5596 H   0  0  0  0  0  0
  -31.1788  -16.8174   22.6664 H   0  0  0  0  0  0
  -27.7469  -19.9861   18.5030 H   0  0  0  0  0  0
  -26.9197  -19.1517   19.8197 H   0  0  0  0  0  0
  -27.9850  -18.2584   18.7280 H   0  0  0  0  0  0
  -27.6206  -22.2261   19.4457 H   0  0  0  0  0  0
  -29.2012  -22.7635   19.0842 H   0  0  0  0  0  0
  -28.7493  -24.2364   21.5101 H   0  0  0  0  0  0
  -27.1404  -24.0964   21.0103 H   0  0  0  0  0  0
  -28.6587  -16.3881   20.2771 H   0  0  0  0  0  0
  1 25  1  0  0  0
  1 30  2  0  0  0
  1 82  1  0  0  0
  2  3  1  0  0  0
  2 25  1  0  0  0
  2 83  1  0  0  0
  2 84  1  0  0  0
  3  4  1  0  0  0
  3 85  1  0  0  0
  3 86  1  0  0  0
  4  5  1  0  0  0
  4 87  1  0  0  0
  4 88  1  0  0  0
  5  6  1  0  0  0
  5 26  1  0  0  0
  5 89  1  0  0  0
  6 25  1  0  0  0
  6 90  1  0  0  0
  6 91  1  0  0  0
  7  8  2  0  0  0
  7 26  1  0  0  0
  7 29  1  0  0  0
  8  9  1  0  0  0
  8 22  1  0  0  0
  9 10  1  0  0  0
  9 27  2  0  0  0
 10 11  2  0  0  0
 10 15  1  0  0  0
 11 12  1  0  0  0
 11 92  1  0  0  0
 12 13  2  0  0  0
 12 93  1  0  0  0
 13 14  1  0  0  0
 13 31  1  0  0  0
 14 15  2  0  0  0
 14 94  1  0  0  0
 15 95  1  0  0  0
 16 17  2  0  0  0
 16 21  1  0  0  0
 16 31  1  0  0  0
 17 18  1  0  0  0
 17 96  1  0  0  0
 18 19  2  0  0  0
 18 97  1  0  0  0
 19 20  1  0  0  0
 19 24  1  0  0  0
 20 21  2  0  0  0
 20 98  1  0  0  0
 21 23  1  0  0  0
 22 28  1  0  0  0
 22 32  2  0  0  0
 26 27  1  0  0  0
 28 99  1  0  0  0
 28100  1  0  0  0
 29101  1  0  0  0
 29102  1  0  0  0
 33 34  1  0  0  0
 33 66  1  0  0  0
 33 70  2  0  0  0
 34 36  1  0  0  0
 34 59  1  0  0  0
 34103  1  0  0  0
 35 44  2  0  0  0
 35 45  1  0  0  0
 35 68  1  0  0  0
 36 56  1  0  0  0
 36104  1  0  0  0
 37 39  1  0  0  0
 37 47  1  0  0  0
 37 66  1  0  0  0
 37105  1  0  0  0
 38 43  2  0  0  0
 38 46  1  0  0  0
 38 47  1  0  0  0
 39 64  1  0  0  0
 39 67  2  0  0  0
 40 52  1  0  0  0
 40 53  2  0  0  0
 40 58  1  0  0  0
 41106  1  0  0  0
 41107  1  0  0  0
 41108  1  0  0  0
 41 48  1  0  0  0
 42 43  1  0  0  0
 42 66  1  0  0  0
 42109  1  0  0  0
 42110  1  0  0  0
 43 44  1  0  0  0
 44111  1  0  0  0
 45 46  2  0  0  0
 45112  1  0  0  0
 46113  1  0  0  0
 47114  1  0  0  0
 47115  1  0  0  0
 48 56  1  0  0  0
 48 65  1  0  0  0
 48116  1  0  0  0
 49 50  1  0  0  0
 49 53  1  0  0  0
 49 64  1  0  0  0
 49117  1  0  0  0
 50 51  1  0  0  0
 50118  1  0  0  0
 50119  1  0  0  0
 51 52  1  0  0  0
 51120  1  0  0  0
 51121  1  0  0  0
 52122  1  0  0  0
 52123  1  0  0  0
 53 54  1  0  0  0
 54 55  2  0  0  0
 54124  1  0  0  0
 55 57  1  0  0  0
 55125  1  0  0  0
 56 69  2  0  0  0
 57 58  2  0  0  0
 57126  1  0  0  0
 58127  1  0  0  0
 59 60  1  0  0  0
 59 61  1  0  0  0
 59 62  1  0  0  0
 60128  1  0  0  0
 60129  1  0  0  0
 60130  1  0  0  0
 61131  1  0  0  0
 61132  1  0  0  0
 61133  1  0  0  0
 62134  1  0  0  0
 62135  1  0  0  0
 62136  1  0  0  0
 63 65  1  0  0  0
 63137  1  0  0  0
 63138  1  0  0  0
 63139  1  0  0  0
 64140  1  0  0  0
 65141  1  0  0  0
 68 81  1  0  0  0
 71 72  2  0  0  0
 71 73  1  0  0  0
 71142  1  0  0  0
 72 74  1  0  0  0
 72 77  1  0  0  0
 73 76  2  0  0  0
 73 78  1  0  0  0
 74 75  2  0  0  0
 74 80  1  0  0  0
 75 76  1  0  0  0
 75 79  1  0  0  0
 76 82  1  0  0  0
 77143  1  0  0  0
 77144  1  0  0  0
 77145  1  0  0  0
 78146  1  0  0  0
 78147  1  0  0  0
 78148  1  0  0  0
 79149  1  0  0  0
 79150  1  0  0  0
 79151  1  0  0  0
 80 81  1  0  0  0
 80152  1  0  0  0
 80153  1  0  0  0
 81154  1  0  0  0
 81155  1  0  0  0
 82156  1  0  0  0
M  ISO  4   1 100  68 101  81 101  82 100
M  END
> <chiral flag>
0

> <version>
0

> <s_m_source_file>
/data/baiqing/PycharmProjects/Reinvent-master-3.2/result/LINK_invent/BTK/process_docking_weight1_custom_sum_contain_oxygen_bond_distance_aromatic_linkinvent_7_9_3/rearranged_h_0022.sdf

> <i_m_source_file_index>
38

> <r_mmod_Potential_Energy-OPLS-2005>
1410.84045410156

> <r_mmod_Stretch_Energy-OPLS-2005>
662.118225097656

> <r_mmod_Bend_Energy-OPLS-2005>
461.543365478516

> <r_mmod_Torsional_Energy-OPLS-2005>
248.478775024414

> <r_mmod_Improper_Torsional_Energy-OPLS-2005>
6.97973299026489

> <r_mmod_Van_der_Waal_Energy-OPLS-2005>
132.002334594727

> <r_mmod_Electrostatic_Energy-OPLS-2005>
-405.426818847656

> <r_mmod_Solvation_Energy-OPLS-2005>
-207.328430175781

> <b_mmod_Minimization_Converged-OPLS-2005>
0

> <r_mmod_RMS_Derivative-OPLS-2005>
3.38419032096863

$$$$
38
                    3D
 Structure written by MMmdl.
176184  0  0  1  0            999 V2000
  -30.8555  -14.2282   20.7769 C   0  0  0  0  0  0
  -30.3921  -12.2872   19.3360 C   0  0  0  0  0  0
  -29.4430  -12.5319   18.1549 C   0  0  0  0  0  0
  -27.9778  -12.3844   18.5975 C   0  0  0  0  0  0
  -27.6557  -13.2083   19.8685 C   0  0  2  0  0  0
  -28.6998  -12.9603   20.9770 C   0  0  0  0  0  0
  -25.2542  -13.8178   20.5720 C   0  0  0  0  0  0
  -24.1810  -13.0463   20.9207 C   0  0  0  0  0  0
  -24.6344  -11.6923   20.8760 C   0  0  0  0  0  0
  -23.9019  -10.4307   21.0417 C   0  0  0  0  0  0
  -24.3584   -9.4226   21.9195 C   0  0  0  0  0  0
  -23.6272   -8.2254   22.0764 C   0  0  0  0  0  0
  -22.4264   -8.0277   21.3550 C   0  0  0  0  0  0
  -21.9884   -9.0241   20.4652 C   0  0  0  0  0  0
  -22.7197  -10.2129   20.3056 C   0  0  0  0  0  0
  -21.6848   -6.0730   22.5284 C   0  0  0  0  0  0
  -21.4015   -6.5632   23.8211 C   0  0  0  0  0  0
  -21.3654   -5.6794   24.9182 C   0  0  0  0  0  0
  -21.6040   -4.3055   24.7235 C   0  0  0  0  0  0
  -21.8818   -3.8144   23.4365 C   0  0  0  0  0  0
  -21.9191   -4.6956   22.3410 C   0  0  0  0  0  0
  -22.7819  -13.5245   21.1890 C   0  0  0  0  0  0
  -22.1661   -4.2146   21.0992 F   0  0  0  0  0  0
  -21.5625   -3.4536   25.7751 F   0  0  0  0  0  0
  -30.0489  -13.2011   20.4314 N   0  0  0  0  0  0
  -26.2988  -12.9366   20.3379 N   0  0  0  0  0  0
  -25.9270  -11.6521   20.5781 N   0  0  0  0  0  0
  -22.0431  -12.8234   22.0415 N   0  0  0  0  0  0
  -25.4254  -15.1911   20.4137 N   0  0  0  0  0  0
  -31.7534  -14.6809   20.0563 O   0  0  0  0  0  0
  -21.6637   -6.8872   21.4241 O   0  0  0  0  0  0
  -22.3520  -14.5562   20.6738 O   0  0  0  0  0  0
  -24.6024  -31.8684   23.2121 C   0  0  0  0  0  0
  -25.8936  -32.4832   23.8401 C   0  0  1  0  0  0
  -27.2473  -27.5356   20.0282 C   0  0  0  0  0  0
  -25.5833  -33.8647   24.2307 N   0  0  0  0  0  0
  -23.3923  -30.4870   21.5477 C   0  0  2  0  0  0
  -24.8400  -28.9730   20.0922 C   0  0  0  0  0  0
  -22.7336  -29.4628   22.4976 C   0  0  0  0  0  0
  -18.0245  -28.1427   22.8466 C   0  0  0  0  0  0
  -24.1477  -36.7346   23.2642 C   0  0  0  0  0  0
  -25.9123  -30.8590   21.3559 C   0  0  0  0  0  0
  -25.9927  -29.5172   20.6664 C   0  0  0  0  0  0
  -27.2081  -28.8187   20.6067 C   0  0  0  0  0  0
  -26.0916  -26.9857   19.4470 C   0  0  0  0  0  0
  -24.8823  -27.7074   19.4716 C   0  0  0  0  0  0
  -23.5906  -29.8160   20.1614 C   0  0  0  0  0  0
  -25.4108  -36.3155   24.0332 C   0  0  1  0  0  0
  -20.5824  -28.3659   23.1364 C   0  0  2  0  0  0
  -20.6751  -26.9417   22.5454 C   0  0  0  0  0  0
  -19.5747  -26.6426   21.5232 C   0  0  0  0  0  0
  -18.1904  -26.7966   22.1624 C   0  0  0  0  0  0
  -19.1495  -28.8850   23.2917 C   0  0  0  0  0  0
  -18.9466  -30.1457   23.8930 C   0  0  0  0  0  0
  -17.6490  -30.6630   24.0600 C   0  0  0  0  0  0
  -25.9028  -34.9501   23.5125 C   0  0  0  0  0  0
  -16.5353  -29.9178   23.6357 C   0  0  0  0  0  0
  -16.7244  -28.6609   23.0310 C   0  0  0  0  0  0
  -26.4346  -31.6646   25.0777 C   0  0  0  0  0  0
  -25.3619  -31.3907   26.1558 C   0  0  0  0  0  0
  -27.0207  -30.3059   24.6279 C   0  0  0  0  0  0
  -27.5902  -32.4376   25.7532 C   0  0  0  0  0  0
  -27.5584  -37.1837   24.8438 C   0  0  0  0  0  0
  -21.4073  -29.3042   22.3784 N   0  0  0  0  0  0
  -26.4295  -37.3827   23.9387 N   0  0  0  0  0  0
  -24.6521  -31.0837   22.0952 N   0  0  0  0  0  0
  -23.4156  -28.8089   23.2937 O   0  0  0  0  0  0
  -28.3789  -26.7822   20.1500 O   0  0  0  0  0  0
  -26.5640  -34.8944   22.4723 O   0  0  0  0  0  0
  -23.5249  -32.1394   23.7571 O   0  0  0  0  0  0
  -28.7627  -26.4544   24.8679 C   0  0  0  0  0  0
  -28.3119  -24.5719   26.3389 C   0  0  0  0  0  0
  -28.9252  -25.8222   26.1071 C   0  0  0  0  0  0
  -27.9524  -25.8796   23.8737 C   0  0  0  0  0  0
  -27.4833  -23.9835   25.3510 C   0  0  0  0  0  0
  -27.2658  -24.6707   24.1326 C   0  0  0  0  0  0
  -29.7238  -26.5325   27.1778 C   0  0  0  0  0  0
  -27.7927  -26.6397   22.5798 C   0  0  0  0  0  0
  -28.4864  -17.9383   25.5963 C   0  0  0  0  0  0
  -29.7740  -17.9621   24.7406 C   0  0  0  0  0  0
  -28.2257  -19.2418   26.3804 C   0  0  0  0  0  0
  -30.0040  -16.6557   23.9537 C   0  0  0  0  0  0
  -27.6963  -20.4058   25.5149 C   0  0  0  0  0  0
  -31.4424  -16.5253   23.4037 C   0  0  0  0  0  0
  -27.4681  -21.6897   26.3346 C   0  0  0  0  0  0
  -31.8288  -15.1235   22.8924 C   0  0  0  0  0  0
  -28.3184  -25.9269   21.2993 C   0  0  0  0  0  0
  -26.8373  -22.7493   25.5514 N   0  0  0  0  0  0
  -30.7853  -14.5055   22.0821 N   0  0  0  0  0  0
  -26.1275  -24.0409   22.9851 Cl  0  0  0  0  0  0
  -31.4290  -12.3935   19.0120 H   0  0  0  0  0  0
  -30.2939  -11.2598   19.6877 H   0  0  0  0  0  0
  -29.6521  -11.8239   17.3509 H   0  0  0  0  0  0
  -29.6079  -13.5276   17.7396 H   0  0  0  0  0  0
  -27.7832  -11.3264   18.7801 H   0  0  0  0  0  0
  -27.3096  -12.6777   17.7866 H   0  0  0  0  0  0
  -27.7095  -14.2622   19.5910 H   0  0  0  0  0  0
  -28.6427  -11.9324   21.3350 H   0  0  0  0  0  0
  -28.4625  -13.5967   21.8309 H   0  0  0  0  0  0
  -25.2710   -9.5732   22.4794 H   0  0  0  0  0  0
  -23.9983   -7.4657   22.7492 H   0  0  0  0  0  0
  -21.0812   -8.8745   19.8963 H   0  0  0  0  0  0
  -22.3626  -10.9672   19.6179 H   0  0  0  0  0  0
  -21.2002   -7.6139   23.9723 H   0  0  0  0  0  0
  -21.1473   -6.0520   25.9086 H   0  0  0  0  0  0
  -22.0597   -2.7603   23.2863 H   0  0  0  0  0  0
  -22.3985  -11.9859   22.4799 H   0  0  0  0  0  0
  -21.1057  -13.1308   22.2635 H   0  0  0  0  0  0
  -24.6660  -15.8514   20.5439 H   0  0  0  0  0  0
  -26.2820  -15.6295   20.0991 H   0  0  0  0  0  0
  -26.7020  -32.5554   23.1196 H   0  0  0  0  0  0
  -24.9917  -33.9832   25.0396 H   0  0  0  0  0  0
  -22.6818  -31.3036   21.4058 H   0  0  0  0  0  0
  -23.3779  -35.9656   23.3300 H   0  0  0  0  0  0
  -24.3554  -36.8994   22.2069 H   0  0  0  0  0  0
  -23.7192  -37.6527   23.6653 H   0  0  0  0  0  0
  -26.0555  -31.6492   20.6186 H   0  0  0  0  0  0
  -26.7857  -30.8695   21.9959 H   0  0  0  0  0  0
  -28.0929  -29.2374   21.0629 H   0  0  0  0  0  0
  -26.1384  -26.0050   18.9940 H   0  0  0  0  0  0
  -23.9996  -27.2831   19.0152 H   0  0  0  0  0  0
  -23.6712  -30.5894   19.3958 H   0  0  0  0  0  0
  -22.7249  -29.2168   19.8782 H   0  0  0  0  0  0
  -25.1274  -36.2029   25.0835 H   0  0  0  0  0  0
  -20.9890  -28.3237   24.1498 H   0  0  0  0  0  0
  -20.5674  -26.2274   23.3617 H   0  0  0  0  0  0
  -21.6613  -26.7494   22.1229 H   0  0  0  0  0  0
  -19.6927  -25.6352   21.1255 H   0  0  0  0  0  0
  -19.6736  -27.3239   20.6758 H   0  0  0  0  0  0
  -17.4179  -26.6675   21.4038 H   0  0  0  0  0  0
  -18.0304  -26.0150   22.9066 H   0  0  0  0  0  0
  -19.7954  -30.7235   24.2319 H   0  0  0  0  0  0
  -17.5083  -31.6291   24.5236 H   0  0  0  0  0  0
  -15.5379  -30.3119   23.7701 H   0  0  0  0  0  0
  -15.8611  -28.1011   22.6959 H   0  0  0  0  0  0
  -24.5581  -30.7479   25.7925 H   0  0  0  0  0  0
  -24.9077  -32.3184   26.5057 H   0  0  0  0  0  0
  -25.7910  -30.8970   27.0292 H   0  0  0  0  0  0
  -26.2890  -29.6911   24.1036 H   0  0  0  0  0  0
  -27.3570  -29.7185   25.4836 H   0  0  0  0  0  0
  -27.8845  -30.4344   23.9771 H   0  0  0  0  0  0
  -27.2439  -33.3595   26.2220 H   0  0  0  0  0  0
  -28.3637  -32.7109   25.0340 H   0  0  0  0  0  0
  -28.0651  -31.8489   26.5394 H   0  0  0  0  0  0
  -28.2589  -38.0143   24.7491 H   0  0  0  0  0  0
  -28.1086  -36.2689   24.6215 H   0  0  0  0  0  0
  -27.2307  -37.1407   25.8838 H   0  0  0  0  0  0
  -20.9168  -29.8945   21.7200 H   0  0  0  0  0  0
  -26.0219  -38.2918   24.1415 H   0  0  0  0  0  0
  -29.2386  -27.4112   24.6930 H   0  0  0  0  0  0
  -28.4520  -24.0936   27.2947 H   0  0  0  0  0  0
  -29.0834  -27.2657   27.6696 H   0  0  0  0  0  0
  -30.5665  -27.0689   26.7399 H   0  0  0  0  0  0
  -30.1069  -25.8396   27.9247 H   0  0  0  0  0  0
  -28.3175  -27.5897   22.6880 H   0  0  0  0  0  0
  -26.7327  -26.8891   22.4941 H   0  0  0  0  0  0
  -28.5793  -17.1259   26.3213 H   0  0  0  0  0  0
  -27.6084  -17.6992   24.9922 H   0  0  0  0  0  0
  -30.6206  -18.1319   25.4078 H   0  0  0  0  0  0
  -29.7676  -18.8037   24.0445 H   0  0  0  0  0  0
  -29.1286  -19.5348   26.9194 H   0  0  0  0  0  0
  -27.4793  -19.0330   27.1511 H   0  0  0  0  0  0
  -29.2928  -16.6071   23.1252 H   0  0  0  0  0  0
  -29.7847  -15.8063   24.6019 H   0  0  0  0  0  0
  -26.7604  -20.0974   25.0444 H   0  0  0  0  0  0
  -28.3928  -20.6115   24.6994 H   0  0  0  0  0  0
  -32.1613  -16.7874   24.1815 H   0  0  0  0  0  0
  -31.5902  -17.2501   22.6037 H   0  0  0  0  0  0
  -28.4235  -22.0110   26.7497 H   0  0  0  0  0  0
  -26.8121  -21.4645   27.1767 H   0  0  0  0  0  0
  -32.0234  -14.4531   23.7312 H   0  0  0  0  0  0
  -32.7738  -15.1781   22.3469 H   0  0  0  0  0  0
  -27.6979  -25.0674   21.0520 H   0  0  0  0  0  0
  -29.3236  -25.5452   21.4685 H   0  0  0  0  0  0
  -26.2202  -22.4611   24.7950 H   0  0  0  0  0  0
  -30.0411  -14.0396   22.5823 H   0  0  0  0  0  0
  1 25  1  0  0  0
  1 30  2  0  0  0
  1 89  1  0  0  0
  2  3  1  0  0  0
  2 25  1  0  0  0
  2 91  1  0  0  0
  2 92  1  0  0  0
  3  4  1  0  0  0
  3 93  1  0  0  0
  3 94  1  0  0  0
  4  5  1  0  0  0
  4 95  1  0  0  0
  4 96  1  0  0  0
  5  6  1  0  0  0
  5 26  1  0  0  0
  5 97  1  0  0  0
  6 25  1  0  0  0
  6 98  1  0  0  0
  6 99  1  0  0  0
  7  8  2  0  0  0
  7 26  1  0  0  0
  7 29  1  0  0  0
  8  9  1  0  0  0
  8 22  1  0  0  0
  9 10  1  0  0  0
  9 27  2  0  0  0
 10 11  2  0  0  0
 10 15  1  0  0  0
 11 12  1  0  0  0
 11100  1  0  0  0
 12 13  2  0  0  0
 12101  1  0  0  0
 13 14  1  0  0  0
 13 31  1  0  0  0
 14 15  2  0  0  0
 14102  1  0  0  0
 15103  1  0  0  0
 16 17  2  0  0  0
 16 21  1  0  0  0
 16 31  1  0  0  0
 17 18  1  0  0  0
 17104  1  0  0  0
 18 19  2  0  0  0
 18105  1  0  0  0
 19 20  1  0  0  0
 19 24  1  0  0  0
 20 21  2  0  0  0
 20106  1  0  0  0
 21 23  1  0  0  0
 22 28  1  0  0  0
 22 32  2  0  0  0
 26 27  1  0  0  0
 28107  1  0  0  0
 28108  1  0  0  0
 29109  1  0  0  0
 29110  1  0  0  0
 33 34  1  0  0  0
 33 66  1  0  0  0
 33 70  2  0  0  0
 34 36  1  0  0  0
 34 59  1  0  0  0
 34111  1  0  0  0
 35 44  2  0  0  0
 35 45  1  0  0  0
 35 68  1  0  0  0
 36 56  1  0  0  0
 36112  1  0  0  0
 37 39  1  0  0  0
 37 47  1  0  0  0
 37 66  1  0  0  0
 37113  1  0  0  0
 38 43  2  0  0  0
 38 46  1  0  0  0
 38 47  1  0  0  0
 39 64  1  0  0  0
 39 67  2  0  0  0
 40 52  1  0  0  0
 40 53  2  0  0  0
 40 58  1  0  0  0
 41114  1  0  0  0
 41115  1  0  0  0
 41116  1  0  0  0
 41 48  1  0  0  0
 42 43  1  0  0  0
 42 66  1  0  0  0
 42117  1  0  0  0
 42118  1  0  0  0
 43 44  1  0  0  0
 44119  1  0  0  0
 45 46  2  0  0  0
 45120  1  0  0  0
 46121  1  0  0  0
 47122  1  0  0  0
 47123  1  0  0  0
 48 56  1  0  0  0
 48 65  1  0  0  0
 48124  1  0  0  0
 49 50  1  0  0  0
 49 53  1  0  0  0
 49 64  1  0  0  0
 49125  1  0  0  0
 50 51  1  0  0  0
 50126  1  0  0  0
 50127  1  0  0  0
 51 52  1  0  0  0
 51128  1  0  0  0
 51129  1  0  0  0
 52130  1  0  0  0
 52131  1  0  0  0
 53 54  1  0  0  0
 54 55  2  0  0  0
 54132  1  0  0  0
 55 57  1  0  0  0
 55133  1  0  0  0
 56 69  2  0  0  0
 57 58  2  0  0  0
 57134  1  0  0  0
 58135  1  0  0  0
 59 60  1  0  0  0
 59 61  1  0  0  0
 59 62  1  0  0  0
 60136  1  0  0  0
 60137  1  0  0  0
 60138  1  0  0  0
 61139  1  0  0  0
 61140  1  0  0  0
 61141  1  0  0  0
 62142  1  0  0  0
 62143  1  0  0  0
 62144  1  0  0  0
 63 65  1  0  0  0
 63145  1  0  0  0
 63146  1  0  0  0
 63147  1  0  0  0
 64148  1  0  0  0
 65149  1  0  0  0
 68 87  1  0  0  0
 71 73  2  0  0  0
 71 74  1  0  0  0
 71150  1  0  0  0
 72 73  1  0  0  0
 72 75  2  0  0  0
 72151  1  0  0  0
 73 77  1  0  0  0
 74 76  2  0  0  0
 74 78  1  0  0  0
 75 76  1  0  0  0
 75 88  1  0  0  0
 76 90  1  0  0  0
 77152  1  0  0  0
 77153  1  0  0  0
 77154  1  0  0  0
 78 87  1  0  0  0
 78155  1  0  0  0
 78156  1  0  0  0
 79 80  1  0  0  0
 79 81  1  0  0  0
 79157  1  0  0  0
 79158  1  0  0  0
 80 82  1  0  0  0
 80159  1  0  0  0
 80160  1  0  0  0
 81 83  1  0  0  0
 81161  1  0  0  0
 81162  1  0  0  0
 82 84  1  0  0  0
 82163  1  0  0  0
 82164  1  0  0  0
 83 85  1  0  0  0
 83165  1  0  0  0
 83166  1  0  0  0
 84 86  1  0  0  0
 84167  1  0  0  0
 84168  1  0  0  0
 85 88  1  0  0  0
 85169  1  0  0  0
 85170  1  0  0  0
 86 89  1  0  0  0
 86171  1  0  0  0
 86172  1  0  0  0
 87173  1  0  0  0
 87174  1  0  0  0
 88175  1  0  0  0
 89176  1  0  0  0
M  ISO  4   1 100  68 101  87 101  89 100
M  END
> <chiral flag>
0

> <version>
0

> <s_m_source_file>
/data/baiqing/PycharmProjects/Reinvent-master-3.2/result/LINK_invent/BTK/process_docking_weight1_custom_sum_contain_oxygen_bond_distance_aromatic_linkinvent_7_9_3/rearranged_h_0022.sdf

> <i_m_source_file_index>
39

> <r_mmod_Potential_Energy-OPLS-2005>
-5.79516839981079

> <r_mmod_Stretch_Energy-OPLS-2005>
33.0171432495117

> <r_mmod_Bend_Energy-OPLS-2005>
97.6989517211914

> <r_mmod_Torsional_Energy-OPLS-2005>
242.260284423828

> <r_mmod_Improper_Torsional_Energy-OPLS-2005>
9.73174667358398

> <r_mmod_Van_der_Waal_Energy-OPLS-2005>
158.643936157227

> <r_mmod_Electrostatic_Energy-OPLS-2005>
-362.576141357422

> <r_mmod_Solvation_Energy-OPLS-2005>
-201.321838378906

> <b_mmod_Minimization_Converged-OPLS-2005>
0

> <r_mmod_RMS_Derivative-OPLS-2005>
5.28013515472412

$$$$
39
                    3D
 Structure written by MMmdl.
169177  0  0  1  0            999 V2000
  -30.7514  -14.3358   20.6910 C   0  0  0  0  0  0
  -30.4136  -12.2582   19.3873 C   0  0  0  0  0  0
  -29.4776  -12.5189   18.1921 C   0  0  0  0  0  0
  -28.0002  -12.3806   18.6028 C   0  0  0  0  0  0
  -27.6699  -13.1923   19.8843 C   0  0  2  0  0  0
  -28.7089  -12.8807   20.9835 C   0  0  0  0  0  0
  -25.2521  -13.8091   20.5436 C   0  0  0  0  0  0
  -24.1842  -13.0407   20.9109 C   0  0  0  0  0  0
  -24.6407  -11.6865   20.8755 C   0  0  0  0  0  0
  -23.9091  -10.4259   21.0442 C   0  0  0  0  0  0
  -24.3629   -9.4153   21.9206 C   0  0  0  0  0  0
  -23.6293   -8.2190   22.0751 C   0  0  0  0  0  0
  -22.4267   -8.0264   21.3548 C   0  0  0  0  0  0
  -21.9934   -9.0241   20.4651 C   0  0  0  0  0  0
  -22.7269  -10.2117   20.3078 C   0  0  0  0  0  0
  -21.6826   -6.0738   22.5290 C   0  0  0  0  0  0
  -21.3986   -6.5641   23.8224 C   0  0  0  0  0  0
  -21.3668   -5.6791   24.9195 C   0  0  0  0  0  0
  -21.6047   -4.3056   24.7225 C   0  0  0  0  0  0
  -21.8807   -3.8143   23.4349 C   0  0  0  0  0  0
  -21.9183   -4.6969   22.3408 C   0  0  0  0  0  0
  -22.7874  -13.5213   21.1825 C   0  0  0  0  0  0
  -22.1651   -4.2159   21.0981 F   0  0  0  0  0  0
  -21.5655   -3.4532   25.7736 F   0  0  0  0  0  0
  -30.0577  -13.1875   20.4716 N   0  0  0  0  0  0
  -26.3040  -12.9293   20.3369 N   0  0  0  0  0  0
  -25.9324  -11.6468   20.5812 N   0  0  0  0  0  0
  -22.0555  -12.8207   22.0422 N   0  0  0  0  0  0
  -25.4177  -15.1794   20.3550 N   0  0  0  0  0  0
  -31.7501  -14.6509   20.0361 O   0  0  0  0  0  0
  -21.6609   -6.8886   21.4257 O   0  0  0  0  0  0
  -22.3518  -14.5481   20.6667 O   0  0  0  0  0  0
  -24.6144  -31.8725   23.2156 C   0  0  0  0  0  0
  -25.9043  -32.4854   23.8434 C   0  0  1  0  0  0
  -27.2156  -27.4582   20.0756 C   0  0  0  0  0  0
  -25.5909  -33.8648   24.2356 N   0  0  0  0  0  0
  -23.3958  -30.5058   21.5596 C   0  0  2  0  0  0
  -24.8331  -28.9771   20.1181 C   0  0  0  0  0  0
  -22.7399  -29.4709   22.5006 C   0  0  0  0  0  0
  -18.0315  -28.1403   22.8478 C   0  0  0  0  0  0
  -24.1483  -36.7327   23.2632 C   0  0  0  0  0  0
  -25.9285  -30.8356   21.3741 C   0  0  0  0  0  0
  -25.9950  -29.4715   20.7274 C   0  0  0  0  0  0
  -27.1857  -28.7120   20.7194 C   0  0  0  0  0  0
  -26.0490  -27.0056   19.4155 C   0  0  0  0  0  0
  -24.8525  -27.7372   19.4653 C   0  0  0  0  0  0
  -23.5982  -29.8423   20.1723 C   0  0  0  0  0  0
  -25.4102  -36.3121   24.0331 C   0  0  1  0  0  0
  -20.5884  -28.3704   23.1370 C   0  0  2  0  0  0
  -20.6821  -26.9439   22.5439 C   0  0  0  0  0  0
  -19.5825  -26.6499   21.5161 C   0  0  0  0  0  0
  -18.1948  -26.8018   22.1519 C   0  0  0  0  0  0
  -19.1561  -28.8846   23.2930 C   0  0  0  0  0  0
  -18.9497  -30.1413   23.9027 C   0  0  0  0  0  0
  -17.6506  -30.6568   24.0649 C   0  0  0  0  0  0
  -25.9024  -34.9491   23.5117 C   0  0  0  0  0  0
  -16.5392  -29.9128   23.6318 C   0  0  0  0  0  0
  -16.7288  -28.6528   23.0367 C   0  0  0  0  0  0
  -26.4469  -31.6610   25.0761 C   0  0  0  0  0  0
  -25.3725  -31.3705   26.1506 C   0  0  0  0  0  0
  -27.0297  -30.3068   24.6078 C   0  0  0  0  0  0
  -27.6057  -32.4328   25.7506 C   0  0  0  0  0  0
  -27.5584  -37.1820   24.8466 C   0  0  0  0  0  0
  -21.4093  -29.3197   22.3852 N   0  0  0  0  0  0
  -26.4304  -37.3789   23.9392 N   0  0  0  0  0  0
  -24.6647  -31.0847   22.1068 N   0  0  0  0  0  0
  -23.4219  -28.8110   23.2888 O   0  0  0  0  0  0
  -28.3888  -26.7370   20.0287 O   0  0  0  0  0  0
  -26.5603  -34.8938   22.4685 O   0  0  0  0  0  0
  -23.5350  -32.1474   23.7575 O   0  0  0  0  0  0
  -28.5627  -16.7527   22.0552 C   0  0  0  0  0  0
  -29.8536  -16.3906   21.6057 C   0  0  0  0  0  0
  -28.2923  -17.9664   21.4777 C   0  0  0  0  0  0
  -30.4744  -17.4727   21.0451 C   0  0  0  0  0  0
  -27.6527  -15.9077   22.9169 C   0  0  0  0  0  0
  -31.8841  -17.7092   20.5823 C   0  0  0  0  0  0
  -29.7352  -19.7199   20.2314 C   0  0  0  0  0  0
  -26.9099  -18.5833   21.4018 C   0  0  0  0  0  0
  -26.7323  -20.1058   21.3821 C   0  0  0  0  0  0
  -26.5587  -20.6586   19.9578 C   0  0  0  0  0  0
  -26.4624  -22.1845   19.9048 C   0  0  0  0  0  0
  -27.6509  -22.9760   20.4902 C   0  0  0  0  0  0
  -27.4422  -24.4466   20.1319 C   0  0  0  0  0  0
  -28.4161  -25.4797   20.7179 C   0  0  0  0  0  0
  -29.4873  -18.4463   20.9091 N   0  0  0  0  0  0
  -30.3265  -15.0604   21.7392 N   0  0  0  0  0  0
  -31.4572  -12.3490   19.0840 H   0  0  0  0  0  0
  -30.3077  -11.2277   19.7311 H   0  0  0  0  0  0
  -29.7006  -11.8207   17.3855 H   0  0  0  0  0  0
  -29.6636  -13.5193   17.8001 H   0  0  0  0  0  0
  -27.7963  -11.3220   18.7679 H   0  0  0  0  0  0
  -27.3490  -12.6823   17.7825 H   0  0  0  0  0  0
  -27.7482  -14.2516   19.6350 H   0  0  0  0  0  0
  -28.6583  -11.8189   21.2225 H   0  0  0  0  0  0
  -28.4723  -13.3785   21.9203 H   0  0  0  0  0  0
  -25.2778   -9.5572   22.4811 H   0  0  0  0  0  0
  -23.9988   -7.4528   22.7417 H   0  0  0  0  0  0
  -21.0894   -8.8762   19.8903 H   0  0  0  0  0  0
  -22.3752  -10.9664   19.6183 H   0  0  0  0  0  0
  -21.1939   -7.6140   23.9732 H   0  0  0  0  0  0
  -21.1531   -6.0523   25.9106 H   0  0  0  0  0  0
  -22.0580   -2.7604   23.2833 H   0  0  0  0  0  0
  -22.4194  -11.9871   22.4809 H   0  0  0  0  0  0
  -21.1130  -13.1176   22.2555 H   0  0  0  0  0  0
  -24.6600  -15.8384   20.4933 H   0  0  0  0  0  0
  -26.3005  -15.6207   20.1265 H   0  0  0  0  0  0
  -26.7135  -32.5575   23.1222 H   0  0  0  0  0  0
  -25.0074  -33.9787   25.0516 H   0  0  0  0  0  0
  -22.6839  -31.3246   21.4314 H   0  0  0  0  0  0
  -23.3729  -35.9677   23.3308 H   0  0  0  0  0  0
  -24.3584  -36.8938   22.2045 H   0  0  0  0  0  0
  -23.7268  -37.6543   23.6649 H   0  0  0  0  0  0
  -26.0403  -31.5882   20.5937 H   0  0  0  0  0  0
  -26.8223  -30.8921   21.9832 H   0  0  0  0  0  0
  -28.0813  -29.0795   21.1997 H   0  0  0  0  0  0
  -26.0436  -26.1062   18.8208 H   0  0  0  0  0  0
  -23.9703  -27.3706   18.9584 H   0  0  0  0  0  0
  -23.7015  -30.6146   19.4103 H   0  0  0  0  0  0
  -22.7188  -29.2625   19.8851 H   0  0  0  0  0  0
  -25.1279  -36.1972   25.0832 H   0  0  0  0  0  0
  -20.9949  -28.3238   24.1503 H   0  0  0  0  0  0
  -20.5600  -26.2251   23.3575 H   0  0  0  0  0  0
  -21.6762  -26.7473   22.1383 H   0  0  0  0  0  0
  -19.7021  -25.6482   21.1069 H   0  0  0  0  0  0
  -19.6797  -27.3381   20.6743 H   0  0  0  0  0  0
  -17.4284  -26.6954   21.3847 H   0  0  0  0  0  0
  -18.0194  -26.0051   22.8777 H   0  0  0  0  0  0
  -19.7934  -30.7167   24.2570 H   0  0  0  0  0  0
  -17.5049  -31.6188   24.5370 H   0  0  0  0  0  0
  -15.5440  -30.3142   23.7609 H   0  0  0  0  0  0
  -15.8653  -28.0906   22.7136 H   0  0  0  0  0  0
  -24.5899  -30.7051   25.7845 H   0  0  0  0  0  0
  -24.8922  -32.2863   26.4954 H   0  0  0  0  0  0
  -25.8070  -30.8880   27.0261 H   0  0  0  0  0  0
  -26.2829  -29.6856   24.1126 H   0  0  0  0  0  0
  -27.4105  -29.7267   25.4489 H   0  0  0  0  0  0
  -27.8637  -30.4439   23.9194 H   0  0  0  0  0  0
  -27.2670  -33.3609   26.2098 H   0  0  0  0  0  0
  -28.3821  -32.6906   25.0301 H   0  0  0  0  0  0
  -28.0753  -31.8453   26.5395 H   0  0  0  0  0  0
  -28.2611  -38.0109   24.7495 H   0  0  0  0  0  0
  -28.1067  -36.2641   24.6296 H   0  0  0  0  0  0
  -27.2305  -37.1479   25.8873 H   0  0  0  0  0  0
  -20.9140  -29.9222   21.7424 H   0  0  0  0  0  0
  -26.0184  -38.2867   24.1371 H   0  0  0  0  0  0
  -27.0437  -15.2295   22.3261 H   0  0  0  0  0  0
  -26.9901  -16.5339   23.5104 H   0  0  0  0  0  0
  -28.2372  -15.3066   23.6124 H   0  0  0  0  0  0
  -32.5243  -16.8542   20.7689 H   0  0  0  0  0  0
  -31.9310  -17.9328   19.5170 H   0  0  0  0  0  0
  -32.3430  -18.5405   21.1144 H   0  0  0  0  0  0
  -29.5090  -19.6362   19.1693 H   0  0  0  0  0  0
  -30.7723  -20.0368   20.3428 H   0  0  0  0  0  0
  -29.1672  -20.5296   20.6636 H   0  0  0  0  0  0
  -26.3560  -18.2431   22.2715 H   0  0  0  0  0  0
  -26.3712  -18.1416   20.5625 H   0  0  0  0  0  0
  -27.5158  -20.5900   21.9608 H   0  0  0  0  0  0
  -25.8073  -20.3428   21.9088 H   0  0  0  0  0  0
  -27.3364  -20.2984   19.2892 H   0  0  0  0  0  0
  -25.6351  -20.2553   19.5383 H   0  0  0  0  0  0
  -25.5448  -22.4936   20.4081 H   0  0  0  0  0  0
  -26.3295  -22.4668   18.8593 H   0  0  0  0  0  0
  -27.6969  -22.8560   21.5737 H   0  0  0  0  0  0
  -28.6020  -22.6353   20.0811 H   0  0  0  0  0  0
  -26.4342  -24.6977   20.4574 H   0  0  0  0  0  0
  -27.4757  -24.5184   19.0453 H   0  0  0  0  0  0
  -29.4358  -25.0977   20.6570 H   0  0  0  0  0  0
  -28.2139  -25.6352   21.7757 H   0  0  0  0  0  0
  -29.7324  -14.4987   22.3288 H   0  0  0  0  0  0
  1 25  1  0  0  0
  1 30  2  0  0  0
  1 86  1  0  0  0
  2  3  1  0  0  0
  2 25  1  0  0  0
  2 87  1  0  0  0
  2 88  1  0  0  0
  3  4  1  0  0  0
  3 89  1  0  0  0
  3 90  1  0  0  0
  4  5  1  0  0  0
  4 91  1  0  0  0
  4 92  1  0  0  0
  5  6  1  0  0  0
  5 26  1  0  0  0
  5 93  1  0  0  0
  6 25  1  0  0  0
  6 94  1  0  0  0
  6 95  1  0  0  0
  7  8  2  0  0  0
  7 26  1  0  0  0
  7 29  1  0  0  0
  8  9  1  0  0  0
  8 22  1  0  0  0
  9 10  1  0  0  0
  9 27  2  0  0  0
 10 11  2  0  0  0
 10 15  1  0  0  0
 11 12  1  0  0  0
 11 96  1  0  0  0
 12 13  2  0  0  0
 12 97  1  0  0  0
 13 14  1  0  0  0
 13 31  1  0  0  0
 14 15  2  0  0  0
 14 98  1  0  0  0
 15 99  1  0  0  0
 16 17  2  0  0  0
 16 21  1  0  0  0
 16 31  1  0  0  0
 17 18  1  0  0  0
 17100  1  0  0  0
 18 19  2  0  0  0
 18101  1  0  0  0
 19 20  1  0  0  0
 19 24  1  0  0  0
 20 21  2  0  0  0
 20102  1  0  0  0
 21 23  1  0  0  0
 22 28  1  0  0  0
 22 32  2  0  0  0
 26 27  1  0  0  0
 28103  1  0  0  0
 28104  1  0  0  0
 29105  1  0  0  0
 29106  1  0  0  0
 33 34  1  0  0  0
 33 66  1  0  0  0
 33 70  2  0  0  0
 34 36  1  0  0  0
 34 59  1  0  0  0
 34107  1  0  0  0
 35 44  2  0  0  0
 35 45  1  0  0  0
 35 68  1  0  0  0
 36 56  1  0  0  0
 36108  1  0  0  0
 37 39  1  0  0  0
 37 47  1  0  0  0
 37 66  1  0  0  0
 37109  1  0  0  0
 38 43  2  0  0  0
 38 46  1  0  0  0
 38 47  1  0  0  0
 39 64  1  0  0  0
 39 67  2  0  0  0
 40 52  1  0  0  0
 40 53  2  0  0  0
 40 58  1  0  0  0
 41110  1  0  0  0
 41111  1  0  0  0
 41112  1  0  0  0
 41 48  1  0  0  0
 42 43  1  0  0  0
 42 66  1  0  0  0
 42113  1  0  0  0
 42114  1  0  0  0
 43 44  1  0  0  0
 44115  1  0  0  0
 45 46  2  0  0  0
 45116  1  0  0  0
 46117  1  0  0  0
 47118  1  0  0  0
 47119  1  0  0  0
 48 56  1  0  0  0
 48 65  1  0  0  0
 48120  1  0  0  0
 49 50  1  0  0  0
 49 53  1  0  0  0
 49 64  1  0  0  0
 49121  1  0  0  0
 50 51  1  0  0  0
 50122  1  0  0  0
 50123  1  0  0  0
 51 52  1  0  0  0
 51124  1  0  0  0
 51125  1  0  0  0
 52126  1  0  0  0
 52127  1  0  0  0
 53 54  1  0  0  0
 54 55  2  0  0  0
 54128  1  0  0  0
 55 57  1  0  0  0
 55129  1  0  0  0
 56 69  2  0  0  0
 57 58  2  0  0  0
 57130  1  0  0  0
 58131  1  0  0  0
 59 60  1  0  0  0
 59 61  1  0  0  0
 59 62  1  0  0  0
 60132  1  0  0  0
 60133  1  0  0  0
 60134  1  0  0  0
 61135  1  0  0  0
 61136  1  0  0  0
 61137  1  0  0  0
 62138  1  0  0  0
 62139  1  0  0  0
 62140  1  0  0  0
 63 65  1  0  0  0
 63141  1  0  0  0
 63142  1  0  0  0
 63143  1  0  0  0
 64144  1  0  0  0
 65145  1  0  0  0
 68 84  1  0  0  0
 71 72  1  0  0  0
 71 73  2  0  0  0
 71 75  1  0  0  0
 72 74  2  0  0  0
 72 86  1  0  0  0
 73 78  1  0  0  0
 73 85  1  0  0  0
 74 76  1  0  0  0
 74 85  1  0  0  0
 75146  1  0  0  0
 75147  1  0  0  0
 75148  1  0  0  0
 76149  1  0  0  0
 76150  1  0  0  0
 76151  1  0  0  0
 77 85  1  0  0  0
 77152  1  0  0  0
 77153  1  0  0  0
 77154  1  0  0  0
 78 79  1  0  0  0
 78155  1  0  0  0
 78156  1  0  0  0
 79 80  1  0  0  0
 79157  1  0  0  0
 79158  1  0  0  0
 80 81  1  0  0  0
 80159  1  0  0  0
 80160  1  0  0  0
 81 82  1  0  0  0
 81161  1  0  0  0
 81162  1  0  0  0
 82 83  1  0  0  0
 82163  1  0  0  0
 82164  1  0  0  0
 83 84  1  0  0  0
 83165  1  0  0  0
 83166  1  0  0  0
 84167  1  0  0  0
 84168  1  0  0  0
 86169  1  0  0  0
M  ISO  4   1 100  68 101  84 101  86 100
M  END
> <chiral flag>
0

> <version>
0

> <s_m_source_file>
/data/baiqing/PycharmProjects/Reinvent-master-3.2/result/LINK_invent/BTK/process_docking_weight1_custom_sum_contain_oxygen_bond_distance_aromatic_linkinvent_7_9_3/rearranged_h_0022.sdf

> <i_m_source_file_index>
40

> <r_mmod_Potential_Energy-OPLS-2005>
-12.5615139007568

> <r_mmod_Stretch_Energy-OPLS-2005>
34.117374420166

> <r_mmod_Bend_Energy-OPLS-2005>
134.68798828125

> <r_mmod_Torsional_Energy-OPLS-2005>
278.413238525391

> <r_mmod_Improper_Torsional_Energy-OPLS-2005>
7.27710437774658

> <r_mmod_Van_der_Waal_Energy-OPLS-2005>
140.860641479492

> <r_mmod_Electrostatic_Energy-OPLS-2005>
-425.172332763672

> <r_mmod_Solvation_Energy-OPLS-2005>
-192.927581787109

> <b_mmod_Minimization_Converged-OPLS-2005>
0

> <r_mmod_RMS_Derivative-OPLS-2005>
6.34635543823242

$$$$
40
                    3D
 Structure written by MMmdl.
171179  0  0  1  0            999 V2000
  -30.7142  -14.4372   20.5555 C   0  0  0  0  0  0
  -30.4179  -12.2792   19.4255 C   0  0  0  0  0  0
  -29.4978  -12.5055   18.2082 C   0  0  0  0  0  0
  -28.0168  -12.3711   18.6162 C   0  0  0  0  0  0
  -27.6645  -13.2069   19.8760 C   0  0  2  0  0  0
  -28.7032  -12.9808   20.9992 C   0  0  0  0  0  0
  -25.2604  -13.8167   20.5681 C   0  0  0  0  0  0
  -24.1849  -13.0445   20.9167 C   0  0  0  0  0  0
  -24.6398  -11.6913   20.8721 C   0  0  0  0  0  0
  -23.9061  -10.4300   21.0398 C   0  0  0  0  0  0
  -24.3613   -9.4214   21.9180 C   0  0  0  0  0  0
  -23.6294   -8.2246   22.0750 C   0  0  0  0  0  0
  -22.4276   -8.0282   21.3541 C   0  0  0  0  0  0
  -21.9903   -9.0255   20.4644 C   0  0  0  0  0  0
  -22.7230  -10.2137   20.3049 C   0  0  0  0  0  0
  -21.6855   -6.0735   22.5285 C   0  0  0  0  0  0
  -21.4010   -6.5634   23.8216 C   0  0  0  0  0  0
  -21.3655   -5.6790   24.9176 C   0  0  0  0  0  0
  -21.6046   -4.3051   24.7224 C   0  0  0  0  0  0
  -21.8819   -3.8144   23.4344 C   0  0  0  0  0  0
  -21.9191   -4.6963   22.3405 C   0  0  0  0  0  0
  -22.7872  -13.5247   21.1827 C   0  0  0  0  0  0
  -22.1666   -4.2149   21.0982 F   0  0  0  0  0  0
  -21.5627   -3.4530   25.7732 F   0  0  0  0  0  0
  -30.0430  -13.2617   20.4532 N   0  0  0  0  0  0
  -26.3040  -12.9340   20.3361 N   0  0  0  0  0  0
  -25.9328  -11.6497   20.5756 N   0  0  0  0  0  0
  -22.0500  -12.8249   22.0380 N   0  0  0  0  0  0
  -25.4334  -15.1883   20.4107 N   0  0  0  0  0  0
  -31.8512  -14.5996   20.1046 O   0  0  0  0  0  0
  -21.6642   -6.8880   21.4246 O   0  0  0  0  0  0
  -22.3558  -14.5550   20.6674 O   0  0  0  0  0  0
  -24.6122  -31.8709   23.2118 C   0  0  0  0  0  0
  -25.9030  -32.4834   23.8409 C   0  0  1  0  0  0
  -27.2298  -27.4575   20.0941 C   0  0  0  0  0  0
  -25.5904  -33.8629   24.2347 N   0  0  0  0  0  0
  -23.3984  -30.4959   21.5519 C   0  0  2  0  0  0
  -24.8439  -28.9666   20.1133 C   0  0  0  0  0  0
  -22.7397  -29.4684   22.4994 C   0  0  0  0  0  0
  -18.0273  -28.1385   22.8503 C   0  0  0  0  0  0
  -24.1489  -36.7317   23.2637 C   0  0  0  0  0  0
  -25.9249  -30.8447   21.3601 C   0  0  0  0  0  0
  -26.0034  -29.4811   20.7077 C   0  0  0  0  0  0
  -27.2019  -28.7346   20.6945 C   0  0  0  0  0  0
  -26.0575  -26.9572   19.4854 C   0  0  0  0  0  0
  -24.8650  -27.7030   19.4984 C   0  0  0  0  0  0
  -23.6041  -29.8295   20.1657 C   0  0  0  0  0  0
  -25.4104  -36.3114   24.0344 C   0  0  1  0  0  0
  -20.5863  -28.3668   23.1331 C   0  0  2  0  0  0
  -20.6767  -26.9410   22.5416 C   0  0  0  0  0  0
  -19.5737  -26.6396   21.5223 C   0  0  0  0  0  0
  -18.1920  -26.7929   22.1642 C   0  0  0  0  0  0
  -19.1522  -28.8841   23.2913 C   0  0  0  0  0  0
  -18.9450  -30.1451   23.8914 C   0  0  0  0  0  0
  -17.6453  -30.6589   24.0567 C   0  0  0  0  0  0
  -25.9033  -34.9482   23.5140 C   0  0  0  0  0  0
  -16.5345  -29.9093   23.6328 C   0  0  0  0  0  0
  -16.7262  -28.6513   23.0344 C   0  0  0  0  0  0
  -26.4465  -31.6596   25.0722 C   0  0  0  0  0  0
  -25.3754  -31.3745   26.1505 C   0  0  0  0  0  0
  -27.0241  -30.3021   24.6078 C   0  0  0  0  0  0
  -27.6096  -32.4270   25.7442 C   0  0  0  0  0  0
  -27.5582  -37.1812   24.8465 C   0  0  0  0  0  0
  -21.4129  -29.3039   22.3736 N   0  0  0  0  0  0
  -26.4290  -37.3795   23.9414 N   0  0  0  0  0  0
  -24.6637  -31.0836   22.1007 N   0  0  0  0  0  0
  -23.4185  -28.8230   23.3026 O   0  0  0  0  0  0
  -28.3850  -26.7126   20.1088 O   0  0  0  0  0  0
  -26.5584  -34.8932   22.4695 O   0  0  0  0  0  0
  -23.5322  -32.1449   23.7531 O   0  0  0  0  0  0
  -29.1915  -19.1053   21.0518 C   0  0  0  0  0  0
  -30.7927  -17.3228   19.5957 C   0  0  0  0  0  0
  -29.9300  -19.5832   19.9469 C   0  0  0  0  0  0
  -30.0474  -16.8340   20.6991 C   0  0  0  0  0  0
  -29.2430  -17.7446   21.4224 C   0  0  0  0  0  0
  -30.7368  -18.6785   19.2201 C   0  0  0  0  0  0
  -33.4023  -24.9932   17.8079 C   0  0  0  0  0  0
  -32.7226  -23.8501   15.6703 C   0  0  0  0  0  0
  -29.8236  -21.0464   19.5307 C   0  0  0  0  0  0
  -31.0058  -21.9088   20.0259 C   0  0  0  0  0  0
  -29.5313  -24.6267   20.7191 C   0  0  0  0  0  0
  -29.9532  -24.1676   19.3123 C   0  0  0  0  0  0
  -31.7442  -23.0240   17.8510 C   0  0  0  0  0  0
  -28.2238  -25.4288   20.7181 C   0  0  0  0  0  0
  -32.2636  -24.2606   17.0785 C   0  0  0  0  0  0
  -31.2081  -23.2608   19.2877 C   0  0  2  0  0  0
  -30.0105  -15.4543   21.0772 N   0  0  0  0  0  0
  -28.2912  -17.1974   22.7581 Cl  0  0  0  0  0  0
  -31.6535  -19.1934   17.8467 Cl  0  0  0  0  0  0
  -31.4659  -12.3583   19.1299 H   0  0  0  0  0  0
  -30.2953  -11.2675   19.8149 H   0  0  0  0  0  0
  -29.7355  -11.7916   17.4184 H   0  0  0  0  0  0
  -29.6749  -13.4969   17.7879 H   0  0  0  0  0  0
  -27.8216  -11.3153   18.8069 H   0  0  0  0  0  0
  -27.3691  -12.6522   17.7851 H   0  0  0  0  0  0
  -27.7118  -14.2561   19.5825 H   0  0  0  0  0  0
  -28.6658  -11.9485   21.3491 H   0  0  0  0  0  0
  -28.4697  -13.5908   21.8728 H   0  0  0  0  0  0
  -25.2764   -9.5689   22.4745 H   0  0  0  0  0  0
  -24.0003   -7.4635   22.7463 H   0  0  0  0  0  0
  -21.0829   -8.8768   19.8960 H   0  0  0  0  0  0
  -22.3689  -10.9665   19.6144 H   0  0  0  0  0  0
  -21.2005   -7.6146   23.9717 H   0  0  0  0  0  0
  -21.1477   -6.0519   25.9080 H   0  0  0  0  0  0
  -22.0601   -2.7609   23.2842 H   0  0  0  0  0  0
  -22.4100  -11.9919   22.4789 H   0  0  0  0  0  0
  -21.1116  -13.1290   22.2563 H   0  0  0  0  0  0
  -24.6708  -15.8457   20.5311 H   0  0  0  0  0  0
  -26.2961  -15.6296   20.1208 H   0  0  0  0  0  0
  -26.7109  -32.5554   23.1184 H   0  0  0  0  0  0
  -25.0063  -33.9792   25.0498 H   0  0  0  0  0  0
  -22.6865  -31.3132   21.4163 H   0  0  0  0  0  0
  -23.3769  -35.9630   23.3252 H   0  0  0  0  0  0
  -24.3606  -36.8972   22.2063 H   0  0  0  0  0  0
  -23.7215  -37.6501   23.6674 H   0  0  0  0  0  0
  -26.0319  -31.6116   20.5914 H   0  0  0  0  0  0
  -26.8155  -30.8999   21.9744 H   0  0  0  0  0  0
  -28.0964  -29.1255   21.1592 H   0  0  0  0  0  0
  -26.0596  -25.9954   18.9932 H   0  0  0  0  0  0
  -23.9756  -27.3042   19.0302 H   0  0  0  0  0  0
  -23.7085  -30.6048   19.4059 H   0  0  0  0  0  0
  -22.7287  -29.2470   19.8727 H   0  0  0  0  0  0
  -25.1276  -36.1977   25.0836 H   0  0  0  0  0  0
  -20.9967  -28.3227   24.1447 H   0  0  0  0  0  0
  -20.5708  -26.2271   23.3596 H   0  0  0  0  0  0
  -21.6631  -26.7478   22.1182 H   0  0  0  0  0  0
  -19.6898  -25.6312   21.1241 H   0  0  0  0  0  0
  -19.6672  -27.3217   20.6761 H   0  0  0  0  0  0
  -17.4192  -26.6683   21.4040 H   0  0  0  0  0  0
  -18.0322  -26.0069   22.9037 H   0  0  0  0  0  0
  -19.7925  -30.7267   24.2284 H   0  0  0  0  0  0
  -17.5010  -31.6270   24.5168 H   0  0  0  0  0  0
  -15.5348  -30.3000   23.7642 H   0  0  0  0  0  0
  -15.8663  -28.0844   22.7030 H   0  0  0  0  0  0
  -24.5777  -30.7282   25.7826 H   0  0  0  0  0  0
  -24.9141  -32.2941   26.5112 H   0  0  0  0  0  0
  -25.8083  -30.8728   27.0168 H   0  0  0  0  0  0
  -26.2741  -29.6796   24.1185 H   0  0  0  0  0  0
  -27.4052  -29.7250   25.4514 H   0  0  0  0  0  0
  -27.8576  -30.4307   23.9170 H   0  0  0  0  0  0
  -27.2804  -33.3632   26.1958 H   0  0  0  0  0  0
  -28.3926  -32.6701   25.0246 H   0  0  0  0  0  0
  -28.0719  -31.8396   26.5386 H   0  0  0  0  0  0
  -28.2608  -38.0100   24.7498 H   0  0  0  0  0  0
  -28.1069  -36.2633   24.6297 H   0  0  0  0  0  0
  -27.2308  -37.1463   25.8870 H   0  0  0  0  0  0
  -20.9286  -29.8756   21.6958 H   0  0  0  0  0  0
  -26.0183  -38.2881   24.1399 H   0  0  0  0  0  0
  -28.5626  -19.7806   21.6126 H   0  0  0  0  0  0
  -31.4045  -16.6725   18.9912 H   0  0  0  0  0  0
  -33.8032  -25.8025   17.1965 H   0  0  0  0  0  0
  -34.2257  -24.3177   18.0420 H   0  0  0  0  0  0
  -33.0612  -25.4442   18.7398 H   0  0  0  0  0  0
  -33.0610  -24.7140   15.0972 H   0  0  0  0  0  0
  -31.9111  -23.3861   15.1084 H   0  0  0  0  0  0
  -33.5470  -23.1370   15.7118 H   0  0  0  0  0  0
  -28.8858  -21.4620   19.9010 H   0  0  0  0  0  0
  -29.7418  -21.0820   18.4450 H   0  0  0  0  0  0
  -31.9278  -21.3355   19.9233 H   0  0  0  0  0  0
  -30.9035  -22.0709   21.0990 H   0  0  0  0  0  0
  -30.3257  -25.2105   21.1855 H   0  0  0  0  0  0
  -29.3792  -23.7553   21.3557 H   0  0  0  0  0  0
  -30.1339  -25.0660   18.7239 H   0  0  0  0  0  0
  -29.1216  -23.6605   18.8225 H   0  0  0  0  0  0
  -32.5547  -22.2951   17.8978 H   0  0  0  0  0  0
  -30.9636  -22.5507   17.2549 H   0  0  0  0  0  0
  -27.8950  -25.5726   21.7491 H   0  0  0  0  0  0
  -27.4531  -24.8341   20.2270 H   0  0  0  0  0  0
  -31.4435  -24.9659   16.9435 H   0  0  0  0  0  0
  -31.9938  -23.7775   19.8397 H   0  0  0  0  0  0
  -29.2051  -15.1907   21.6258 H   0  0  0  0  0  0
  1 25  1  0  0  0
  1 30  2  0  0  0
  1 87  1  0  0  0
  2  3  1  0  0  0
  2 25  1  0  0  0
  2 90  1  0  0  0
  2 91  1  0  0  0
  3  4  1  0  0  0
  3 92  1  0  0  0
  3 93  1  0  0  0
  4  5  1  0  0  0
  4 94  1  0  0  0
  4 95  1  0  0  0
  5  6  1  0  0  0
  5 26  1  0  0  0
  5 96  1  0  0  0
  6 25  1  0  0  0
  6 97  1  0  0  0
  6 98  1  0  0  0
  7  8  2  0  0  0
  7 26  1  0  0  0
  7 29  1  0  0  0
  8  9  1  0  0  0
  8 22  1  0  0  0
  9 10  1  0  0  0
  9 27  2  0  0  0
 10 11  2  0  0  0
 10 15  1  0  0  0
 11 12  1  0  0  0
 11 99  1  0  0  0
 12 13  2  0  0  0
 12100  1  0  0  0
 13 14  1  0  0  0
 13 31  1  0  0  0
 14 15  2  0  0  0
 14101  1  0  0  0
 15102  1  0  0  0
 16 17  2  0  0  0
 16 21  1  0  0  0
 16 31  1  0  0  0
 17 18  1  0  0  0
 17103  1  0  0  0
 18 19  2  0  0  0
 18104  1  0  0  0
 19 20  1  0  0  0
 19 24  1  0  0  0
 20 21  2  0  0  0
 20105  1  0  0  0
 21 23  1  0  0  0
 22 28  1  0  0  0
 22 32  2  0  0  0
 26 27  1  0  0  0
 28106  1  0  0  0
 28107  1  0  0  0
 29108  1  0  0  0
 29109  1  0  0  0
 33 34  1  0  0  0
 33 66  1  0  0  0
 33 70  2  0  0  0
 34 36  1  0  0  0
 34 59  1  0  0  0
 34110  1  0  0  0
 35 44  2  0  0  0
 35 45  1  0  0  0
 35 68  1  0  0  0
 36 56  1  0  0  0
 36111  1  0  0  0
 37 39  1  0  0  0
 37 47  1  0  0  0
 37 66  1  0  0  0
 37112  1  0  0  0
 38 43  2  0  0  0
 38 46  1  0  0  0
 38 47  1  0  0  0
 39 64  1  0  0  0
 39 67  2  0  0  0
 40 52  1  0  0  0
 40 53  2  0  0  0
 40 58  1  0  0  0
 41113  1  0  0  0
 41114  1  0  0  0
 41115  1  0  0  0
 41 48  1  0  0  0
 42 43  1  0  0  0
 42 66  1  0  0  0
 42116  1  0  0  0
 42117  1  0  0  0
 43 44  1  0  0  0
 44118  1  0  0  0
 45 46  2  0  0  0
 45119  1  0  0  0
 46120  1  0  0  0
 47121  1  0  0  0
 47122  1  0  0  0
 48 56  1  0  0  0
 48 65  1  0  0  0
 48123  1  0  0  0
 49 50  1  0  0  0
 49 53  1  0  0  0
 49 64  1  0  0  0
 49124  1  0  0  0
 50 51  1  0  0  0
 50125  1  0  0  0
 50126  1  0  0  0
 51 52  1  0  0  0
 51127  1  0  0  0
 51128  1  0  0  0
 52129  1  0  0  0
 52130  1  0  0  0
 53 54  1  0  0  0
 54 55  2  0  0  0
 54131  1  0  0  0
 55 57  1  0  0  0
 55132  1  0  0  0
 56 69  2  0  0  0
 57 58  2  0  0  0
 57133  1  0  0  0
 58134  1  0  0  0
 59 60  1  0  0  0
 59 61  1  0  0  0
 59 62  1  0  0  0
 60135  1  0  0  0
 60136  1  0  0  0
 60137  1  0  0  0
 61138  1  0  0  0
 61139  1  0  0  0
 61140  1  0  0  0
 62141  1  0  0  0
 62142  1  0  0  0
 62143  1  0  0  0
 63 65  1  0  0  0
 63144  1  0  0  0
 63145  1  0  0  0
 63146  1  0  0  0
 64147  1  0  0  0
 65148  1  0  0  0
 68 84  1  0  0  0
 71 73  2  0  0  0
 71 75  1  0  0  0
 71149  1  0  0  0
 72 74  1  0  0  0
 72 76  2  0  0  0
 72150  1  0  0  0
 73 76  1  0  0  0
 73 79  1  0  0  0
 74 75  2  0  0  0
 74 87  1  0  0  0
 75 88  1  0  0  0
 76 89  1  0  0  0
 77151  1  0  0  0
 77152  1  0  0  0
 77153  1  0  0  0
 77 85  1  0  0  0
 78 85  1  0  0  0
 78154  1  0  0  0
 78155  1  0  0  0
 78156  1  0  0  0
 79 80  1  0  0  0
 79157  1  0  0  0
 79158  1  0  0  0
 80159  1  0  0  0
 80160  1  0  0  0
 80 86  1  0  0  0
 81 82  1  0  0  0
 81 84  1  0  0  0
 81161  1  0  0  0
 81162  1  0  0  0
 82 86  1  0  0  0
 82163  1  0  0  0
 82164  1  0  0  0
 83 85  1  0  0  0
 83 86  1  0  0  0
 83165  1  0  0  0
 83166  1  0  0  0
 84167  1  0  0  0
 84168  1  0  0  0
 85169  1  0  0  0
 86170  1  0  0  0
 87171  1  0  0  0
M  ISO  4   1 100  68 101  84 101  87 100
M  END
> <chiral flag>
0

> <version>
0

> <s_m_source_file>
/data/baiqing/PycharmProjects/Reinvent-master-3.2/result/LINK_invent/BTK/process_docking_weight1_custom_sum_contain_oxygen_bond_distance_aromatic_linkinvent_7_9_3/rearranged_h_0022.sdf

> <i_m_source_file_index>
41

> <r_mmod_Potential_Energy-OPLS-2005>
-29.8572216033936

> <r_mmod_Stretch_Energy-OPLS-2005>
35.4074516296387

> <r_mmod_Bend_Energy-OPLS-2005>
97.8725738525391

> <r_mmod_Torsional_Energy-OPLS-2005>
251.603607177734

> <r_mmod_Improper_Torsional_Energy-OPLS-2005>
3.74181771278381

> <r_mmod_Van_der_Waal_Energy-OPLS-2005>
152.924026489258

> <r_mmod_Electrostatic_Energy-OPLS-2005>
-395.770263671875

> <r_mmod_Solvation_Energy-OPLS-2005>
-187.117462158203

> <b_mmod_Minimization_Converged-OPLS-2005>
0

> <r_mmod_RMS_Derivative-OPLS-2005>
1.17724895477295

$$$$
41
                    3D
 Structure written by MMmdl.
177186  0  0  1  0            999 V2000
  -30.7745  -14.3594   20.7104 C   0  0  0  0  0  0
  -30.4169  -12.3008   19.3893 C   0  0  0  0  0  0
  -29.4825  -12.5339   18.1876 C   0  0  0  0  0  0
  -28.0083  -12.3837   18.6066 C   0  0  0  0  0  0
  -27.6657  -13.2038   19.8778 C   0  0  2  0  0  0
  -28.7024  -12.9452   20.9918 C   0  0  0  0  0  0
  -25.2600  -13.8165   20.5675 C   0  0  0  0  0  0
  -24.1855  -13.0447   20.9175 C   0  0  0  0  0  0
  -24.6404  -11.6908   20.8735 C   0  0  0  0  0  0
  -23.9083  -10.4296   21.0403 C   0  0  0  0  0  0
  -24.3624   -9.4213   21.9194 C   0  0  0  0  0  0
  -23.6288   -8.2253   22.0759 C   0  0  0  0  0  0
  -22.4273   -8.0282   21.3541 C   0  0  0  0  0  0
  -21.9923   -9.0266   20.4649 C   0  0  0  0  0  0
  -22.7252  -10.2147   20.3058 C   0  0  0  0  0  0
  -21.6847   -6.0751   22.5282 C   0  0  0  0  0  0
  -21.4016   -6.5653   23.8219 C   0  0  0  0  0  0
  -21.3663   -5.6800   24.9181 C   0  0  0  0  0  0
  -21.6035   -4.3055   24.7231 C   0  0  0  0  0  0
  -21.8823   -3.8158   23.4342 C   0  0  0  0  0  0
  -21.9194   -4.6980   22.3397 C   0  0  0  0  0  0
  -22.7878  -13.5238   21.1837 C   0  0  0  0  0  0
  -22.1659   -4.2165   21.0973 F   0  0  0  0  0  0
  -21.5636   -3.4536   25.7746 F   0  0  0  0  0  0
  -30.0451  -13.2419   20.4566 N   0  0  0  0  0  0
  -26.3039  -12.9334   20.3357 N   0  0  0  0  0  0
  -25.9322  -11.6495   20.5742 N   0  0  0  0  0  0
  -22.0515  -12.8228   22.0389 N   0  0  0  0  0  0
  -25.4339  -15.1884   20.4094 N   0  0  0  0  0  0
  -31.7861  -14.6700   20.0737 O   0  0  0  0  0  0
  -21.6624   -6.8887   21.4240 O   0  0  0  0  0  0
  -22.3570  -14.5551   20.6685 O   0  0  0  0  0  0
  -24.6146  -31.8707   23.2102 C   0  0  0  0  0  0
  -25.9041  -32.4845   23.8405 C   0  0  1  0  0  0
  -27.2417  -27.4703   20.0686 C   0  0  0  0  0  0
  -25.5903  -33.8645   24.2338 N   0  0  0  0  0  0
  -23.4011  -30.4956   21.5490 C   0  0  2  0  0  0
  -24.8462  -28.9688   20.1091 C   0  0  0  0  0  0
  -22.7401  -29.4685   22.4959 C   0  0  0  0  0  0
  -18.0277  -28.1402   22.8535 C   0  0  0  0  0  0
  -24.1483  -36.7302   23.2641 C   0  0  0  0  0  0
  -25.9266  -30.8509   21.3522 C   0  0  0  0  0  0
  -26.0057  -29.4877   20.6983 C   0  0  0  0  0  0
  -27.2033  -28.7414   20.6810 C   0  0  0  0  0  0
  -26.0545  -26.9445   19.5170 C   0  0  0  0  0  0
  -24.8638  -27.6930   19.5201 C   0  0  0  0  0  0
  -23.6069  -29.8305   20.1628 C   0  0  0  0  0  0
  -25.4115  -36.3137   24.0340 C   0  0  1  0  0  0
  -20.5867  -28.3707   23.1325 C   0  0  2  0  0  0
  -20.6764  -26.9439   22.5443 C   0  0  0  0  0  0
  -19.5731  -26.6417   21.5240 C   0  0  0  0  0  0
  -18.1912  -26.7961   22.1652 C   0  0  0  0  0  0
  -19.1526  -28.8866   23.2939 C   0  0  0  0  0  0
  -18.9457  -30.1472   23.8945 C   0  0  0  0  0  0
  -17.6461  -30.6614   24.0599 C   0  0  0  0  0  0
  -25.9051  -34.9496   23.5135 C   0  0  0  0  0  0
  -16.5352  -29.9141   23.6309 C   0  0  0  0  0  0
  -16.7270  -28.6543   23.0364 C   0  0  0  0  0  0
  -26.4474  -31.6619   25.0726 C   0  0  0  0  0  0
  -25.3716  -31.3660   26.1443 C   0  0  0  0  0  0
  -27.0324  -30.3096   24.6045 C   0  0  0  0  0  0
  -27.6061  -32.4311   25.7494 C   0  0  0  0  0  0
  -27.5583  -37.1809   24.8474 C   0  0  0  0  0  0
  -21.4127  -29.3061   22.3700 N   0  0  0  0  0  0
  -26.4298  -37.3831   23.9422 N   0  0  0  0  0  0
  -24.6668  -31.0857   22.0966 N   0  0  0  0  0  0
  -23.4168  -28.8200   23.2989 O   0  0  0  0  0  0
  -28.4206  -26.7566   20.1216 O   0  0  0  0  0  0
  -26.5597  -34.8948   22.4680 O   0  0  0  0  0  0
  -23.5340  -32.1415   23.7523 O   0  0  0  0  0  0
  -29.4907  -20.6231   22.1586 C   0  0  0  0  0  0
  -29.4625  -21.9249   21.6216 C   0  0  0  0  0  0
  -29.4684  -19.5033   21.3045 C   0  0  0  0  0  0
  -29.3898  -20.9997   19.3615 C   0  0  0  0  0  0
  -29.4194  -22.1314   20.2211 C   0  0  0  0  0  0
  -29.4034  -19.6973   19.9096 C   0  0  0  0  0  0
  -30.4176  -25.6925   19.4760 C   0  0  0  0  0  0
  -28.3583  -25.1012   18.2248 C   0  0  0  0  0  0
  -30.2063  -24.4573   20.3775 C   0  0  0  0  0  0
  -28.1368  -23.9003   19.1631 C   0  0  0  0  0  0
  -29.0836  -26.2737   18.9379 C   0  0  0  0  0  0
  -29.3671  -21.1392   17.8440 C   0  0  0  0  0  0
  -30.2748  -29.7871   17.5457 C   0  0  0  0  0  0
  -29.5373  -18.0973   21.8799 C   0  0  0  0  0  0
  -29.3298  -27.4416   17.9416 C   0  0  0  0  0  0
  -30.2843  -28.5431   18.4427 C   0  0  0  0  0  0
  -30.9611  -17.5169   21.8078 C   0  0  0  0  0  0
  -31.1183  -16.1250   22.4522 C   0  0  0  0  0  0
  -29.4199  -23.4362   19.6868 N   0  0  0  0  0  0
  -30.3690  -15.0655   21.7756 N   0  0  0  0  0  0
  -29.3707  -18.6200   19.0868 F   0  0  0  0  0  0
  -31.4577  -12.4112   19.0791 H   0  0  0  0  0  0
  -30.3223  -11.2763   19.7547 H   0  0  0  0  0  0
  -29.7173  -11.8337   17.3846 H   0  0  0  0  0  0
  -29.6483  -13.5334   17.7815 H   0  0  0  0  0  0
  -27.8176  -11.3252   18.7867 H   0  0  0  0  0  0
  -27.3515  -12.6753   17.7868 H   0  0  0  0  0  0
  -27.7257  -14.2583   19.6068 H   0  0  0  0  0  0
  -28.6651  -11.9011   21.3072 H   0  0  0  0  0  0
  -28.4444  -13.5216   21.8793 H   0  0  0  0  0  0
  -25.2767   -9.5697   22.4777 H   0  0  0  0  0  0
  -24.0004   -7.4654   22.7486 H   0  0  0  0  0  0
  -21.0865   -8.8798   19.8950 H   0  0  0  0  0  0
  -22.3714  -10.9697   19.6174 H   0  0  0  0  0  0
  -21.2001   -7.6164   23.9737 H   0  0  0  0  0  0
  -21.1480   -6.0522   25.9094 H   0  0  0  0  0  0
  -22.0599   -2.7625   23.2835 H   0  0  0  0  0  0
  -22.4122  -11.9872   22.4755 H   0  0  0  0  0  0
  -21.1137  -13.1263   22.2596 H   0  0  0  0  0  0
  -24.6716  -15.8480   20.5214 H   0  0  0  0  0  0
  -26.2953  -15.6259   20.1056 H   0  0  0  0  0  0
  -26.7113  -32.5612   23.1182 H   0  0  0  0  0  0
  -25.0096  -33.9835   25.0509 H   0  0  0  0  0  0
  -22.6906  -31.3128   21.4121 H   0  0  0  0  0  0
  -23.3790  -35.9594   23.3307 H   0  0  0  0  0  0
  -24.3561  -36.8929   22.2054 H   0  0  0  0  0  0
  -23.7189  -37.6480   23.6656 H   0  0  0  0  0  0
  -26.0223  -31.6167   20.5816 H   0  0  0  0  0  0
  -26.8210  -30.9143   21.9608 H   0  0  0  0  0  0
  -28.1001  -29.1382   21.1338 H   0  0  0  0  0  0
  -26.0104  -25.9433   19.1240 H   0  0  0  0  0  0
  -23.9649  -27.2747   19.0866 H   0  0  0  0  0  0
  -23.7155  -30.6073   19.4067 H   0  0  0  0  0  0
  -22.7325  -29.2510   19.8631 H   0  0  0  0  0  0
  -25.1265  -36.2012   25.0825 H   0  0  0  0  0  0
  -20.9997  -28.3332   24.1432 H   0  0  0  0  0  0
  -20.5721  -26.2316   23.3645 H   0  0  0  0  0  0
  -21.6632  -26.7501   22.1224 H   0  0  0  0  0  0
  -19.6910  -25.6344   21.1231 H   0  0  0  0  0  0
  -19.6640  -27.3266   20.6801 H   0  0  0  0  0  0
  -17.4184  -26.6759   21.4048 H   0  0  0  0  0  0
  -18.0264  -26.0095   22.9027 H   0  0  0  0  0  0
  -19.7931  -30.7274   24.2336 H   0  0  0  0  0  0
  -17.5021  -31.6279   24.5233 H   0  0  0  0  0  0
  -15.5357  -30.3064   23.7584 H   0  0  0  0  0  0
  -15.8679  -28.0864   22.7053 H   0  0  0  0  0  0
  -24.5957  -30.6936   25.7745 H   0  0  0  0  0  0
  -24.8803  -32.2787   26.4837 H   0  0  0  0  0  0
  -25.8064  -30.8874   27.0234 H   0  0  0  0  0  0
  -26.2883  -29.6857   24.1090 H   0  0  0  0  0  0
  -27.4152  -29.7309   25.4461 H   0  0  0  0  0  0
  -27.8659  -30.4469   23.9150 H   0  0  0  0  0  0
  -27.2715  -33.3628   26.2058 H   0  0  0  0  0  0
  -28.3871  -32.6831   25.0309 H   0  0  0  0  0  0
  -28.0714  -31.8423   26.5415 H   0  0  0  0  0  0
  -28.2592  -38.0119   24.7587 H   0  0  0  0  0  0
  -28.1087  -36.2656   24.6240 H   0  0  0  0  0  0
  -27.2294  -37.1406   25.8874 H   0  0  0  0  0  0
  -20.9283  -29.8782   21.6923 H   0  0  0  0  0  0
  -26.0191  -38.2894   24.1494 H   0  0  0  0  0  0
  -29.5351  -20.4905   23.2305 H   0  0  0  0  0  0
  -29.4700  -22.7614   22.3060 H   0  0  0  0  0  0
  -31.0655  -25.4239   18.6388 H   0  0  0  0  0  0
  -30.9595  -26.4449   20.0507 H   0  0  0  0  0  0
  -27.4339  -25.4143   17.7472 H   0  0  0  0  0  0
  -28.9729  -24.7640   17.3892 H   0  0  0  0  0  0
  -29.6963  -24.7619   21.2934 H   0  0  0  0  0  0
  -31.1747  -24.0476   20.6722 H   0  0  0  0  0  0
  -27.6209  -23.1021   18.6285 H   0  0  0  0  0  0
  -27.4925  -24.1870   19.9957 H   0  0  0  0  0  0
  -29.7654  -22.0952   17.5055 H   0  0  0  0  0  0
  -28.3470  -21.0400   17.4735 H   0  0  0  0  0  0
  -29.9734  -20.3619   17.3802 H   0  0  0  0  0  0
  -30.9668  -30.5432   17.9195 H   0  0  0  0  0  0
  -29.2825  -30.2393   17.5115 H   0  0  0  0  0  0
  -30.5678  -29.5407   16.5242 H   0  0  0  0  0  0
  -28.8395  -17.4567   21.3405 H   0  0  0  0  0  0
  -29.1977  -18.1178   22.9158 H   0  0  0  0  0  0
  -28.3720  -27.8883   17.6688 H   0  0  0  0  0  0
  -29.7325  -27.0400   17.0108 H   0  0  0  0  0  0
  -30.0136  -28.8336   19.4582 H   0  0  0  0  0  0
  -31.3004  -28.1497   18.4927 H   0  0  0  0  0  0
  -31.6388  -18.2016   22.3205 H   0  0  0  0  0  0
  -31.3012  -17.4885   20.7709 H   0  0  0  0  0  0
  -30.7892  -16.1633   23.4913 H   0  0  0  0  0  0
  -32.1753  -15.8538   22.4840 H   0  0  0  0  0  0
  -29.5375  -14.7263   22.2368 H   0  0  0  0  0  0
  1 25  1  0  0  0
  1 30  2  0  0  0
  1 90  1  0  0  0
  2  3  1  0  0  0
  2 25  1  0  0  0
  2 92  1  0  0  0
  2 93  1  0  0  0
  3  4  1  0  0  0
  3 94  1  0  0  0
  3 95  1  0  0  0
  4  5  1  0  0  0
  4 96  1  0  0  0
  4 97  1  0  0  0
  5  6  1  0  0  0
  5 26  1  0  0  0
  5 98  1  0  0  0
  6 25  1  0  0  0
  6 99  1  0  0  0
  6100  1  0  0  0
  7  8  2  0  0  0
  7 26  1  0  0  0
  7 29  1  0  0  0
  8  9  1  0  0  0
  8 22  1  0  0  0
  9 10  1  0  0  0
  9 27  2  0  0  0
 10 11  2  0  0  0
 10 15  1  0  0  0
 11 12  1  0  0  0
 11101  1  0  0  0
 12 13  2  0  0  0
 12102  1  0  0  0
 13 14  1  0  0  0
 13 31  1  0  0  0
 14 15  2  0  0  0
 14103  1  0  0  0
 15104  1  0  0  0
 16 17  2  0  0  0
 16 21  1  0  0  0
 16 31  1  0  0  0
 17 18  1  0  0  0
 17105  1  0  0  0
 18 19  2  0  0  0
 18106  1  0  0  0
 19 20  1  0  0  0
 19 24  1  0  0  0
 20 21  2  0  0  0
 20107  1  0  0  0
 21 23  1  0  0  0
 22 28  1  0  0  0
 22 32  2  0  0  0
 26 27  1  0  0  0
 28108  1  0  0  0
 28109  1  0  0  0
 29110  1  0  0  0
 29111  1  0  0  0
 33 34  1  0  0  0
 33 66  1  0  0  0
 33 70  2  0  0  0
 34 36  1  0  0  0
 34 59  1  0  0  0
 34112  1  0  0  0
 35 44  2  0  0  0
 35 45  1  0  0  0
 35 68  1  0  0  0
 36 56  1  0  0  0
 36113  1  0  0  0
 37 39  1  0  0  0
 37 47  1  0  0  0
 37 66  1  0  0  0
 37114  1  0  0  0
 38 43  2  0  0  0
 38 46  1  0  0  0
 38 47  1  0  0  0
 39 64  1  0  0  0
 39 67  2  0  0  0
 40 52  1  0  0  0
 40 53  2  0  0  0
 40 58  1  0  0  0
 41115  1  0  0  0
 41116  1  0  0  0
 41117  1  0  0  0
 41 48  1  0  0  0
 42 43  1  0  0  0
 42 66  1  0  0  0
 42118  1  0  0  0
 42119  1  0  0  0
 43 44  1  0  0  0
 44120  1  0  0  0
 45 46  2  0  0  0
 45121  1  0  0  0
 46122  1  0  0  0
 47123  1  0  0  0
 47124  1  0  0  0
 48 56  1  0  0  0
 48 65  1  0  0  0
 48125  1  0  0  0
 49 50  1  0  0  0
 49 53  1  0  0  0
 49 64  1  0  0  0
 49126  1  0  0  0
 50 51  1  0  0  0
 50127  1  0  0  0
 50128  1  0  0  0
 51 52  1  0  0  0
 51129  1  0  0  0
 51130  1  0  0  0
 52131  1  0  0  0
 52132  1  0  0  0
 53 54  1  0  0  0
 54 55  2  0  0  0
 54133  1  0  0  0
 55 57  1  0  0  0
 55134  1  0  0  0
 56 69  2  0  0  0
 57 58  2  0  0  0
 57135  1  0  0  0
 58136  1  0  0  0
 59 60  1  0  0  0
 59 61  1  0  0  0
 59 62  1  0  0  0
 60137  1  0  0  0
 60138  1  0  0  0
 60139  1  0  0  0
 61140  1  0  0  0
 61141  1  0  0  0
 61142  1  0  0  0
 62143  1  0  0  0
 62144  1  0  0  0
 62145  1  0  0  0
 63 65  1  0  0  0
 63146  1  0  0  0
 63147  1  0  0  0
 63148  1  0  0  0
 64149  1  0  0  0
 65150  1  0  0  0
 68 81  1  0  0  0
 71 72  2  0  0  0
 71 73  1  0  0  0
 71151  1  0  0  0
 72 75  1  0  0  0
 72152  1  0  0  0
 73 76  2  0  0  0
 73 84  1  0  0  0
 74 75  2  0  0  0
 74 76  1  0  0  0
 74 82  1  0  0  0
 75 89  1  0  0  0
 76 91  1  0  0  0
 77 79  1  0  0  0
 77 81  1  0  0  0
 77153  1  0  0  0
 77154  1  0  0  0
 78 80  1  0  0  0
 78 81  1  0  0  0
 78155  1  0  0  0
 78156  1  0  0  0
 79 89  1  0  0  0
 79157  1  0  0  0
 79158  1  0  0  0
 80 89  1  0  0  0
 80159  1  0  0  0
 80160  1  0  0  0
 81 85  1  0  0  0
 82161  1  0  0  0
 82162  1  0  0  0
 82163  1  0  0  0
 83 86  1  0  0  0
 83164  1  0  0  0
 83165  1  0  0  0
 83166  1  0  0  0
 84 87  1  0  0  0
 84167  1  0  0  0
 84168  1  0  0  0
 85 86  1  0  0  0
 85169  1  0  0  0
 85170  1  0  0  0
 86171  1  0  0  0
 86172  1  0  0  0
 87 88  1  0  0  0
 87173  1  0  0  0
 87174  1  0  0  0
 88 90  1  0  0  0
 88175  1  0  0  0
 88176  1  0  0  0
 90177  1  0  0  0
M  ISO  4   1 100  68 101  81 101  90 100
M  END
> <chiral flag>
0

> <version>
0

> <s_m_source_file>
/data/baiqing/PycharmProjects/Reinvent-master-3.2/result/LINK_invent/BTK/process_docking_weight1_custom_sum_contain_oxygen_bond_distance_aromatic_linkinvent_7_9_3/rearranged_h_0022.sdf

> <i_m_source_file_index>
42

> <r_mmod_Potential_Energy-OPLS-2005>
-14.0009546279907

> <r_mmod_Stretch_Energy-OPLS-2005>
37.3237266540527

> <r_mmod_Bend_Energy-OPLS-2005>
113.257904052734

> <r_mmod_Torsional_Energy-OPLS-2005>
257.091430664062

> <r_mmod_Improper_Torsional_Energy-OPLS-2005>
5.92850208282471

> <r_mmod_Van_der_Waal_Energy-OPLS-2005>
159.063278198242

> <r_mmod_Electrostatic_Energy-OPLS-2005>
-392.544189453125

> <r_mmod_Solvation_Energy-OPLS-2005>
-202.37776184082

> <b_mmod_Minimization_Converged-OPLS-2005>
0

> <r_mmod_RMS_Derivative-OPLS-2005>
2.48566865921021

$$$$
42
                    3D
 Structure written by MMmdl.
174182  0  0  1  0            999 V2000
  -30.7560  -14.4210   20.6062 C   0  0  0  0  0  0
  -30.4108  -12.2932   19.4151 C   0  0  0  0  0  0
  -29.4849  -12.4985   18.2018 C   0  0  0  0  0  0
  -28.0104  -12.3559   18.6216 C   0  0  0  0  0  0
  -27.6602  -13.2077   19.8709 C   0  0  2  0  0  0
  -28.7006  -13.0019   20.9942 C   0  0  0  0  0  0
  -25.2589  -13.8174   20.5699 C   0  0  0  0  0  0
  -24.1839  -13.0455   20.9183 C   0  0  0  0  0  0
  -24.6389  -11.6919   20.8737 C   0  0  0  0  0  0
  -23.9059  -10.4303   21.0402 C   0  0  0  0  0  0
  -24.3617   -9.4218   21.9179 C   0  0  0  0  0  0
  -23.6296   -8.2252   22.0748 C   0  0  0  0  0  0
  -22.4275   -8.0289   21.3541 C   0  0  0  0  0  0
  -21.9913   -9.0262   20.4640 C   0  0  0  0  0  0
  -22.7235  -10.2140   20.3048 C   0  0  0  0  0  0
  -21.6858   -6.0744   22.5283 C   0  0  0  0  0  0
  -21.4013   -6.5645   23.8216 C   0  0  0  0  0  0
  -21.3658   -5.6794   24.9179 C   0  0  0  0  0  0
  -21.6044   -4.3058   24.7225 C   0  0  0  0  0  0
  -21.8821   -3.8153   23.4347 C   0  0  0  0  0  0
  -21.9193   -4.6973   22.3402 C   0  0  0  0  0  0
  -22.7859  -13.5246   21.1852 C   0  0  0  0  0  0
  -22.1664   -4.2162   21.0979 F   0  0  0  0  0  0
  -21.5630   -3.4534   25.7734 F   0  0  0  0  0  0
  -30.0343  -13.2825   20.4372 N   0  0  0  0  0  0
  -26.3019  -12.9346   20.3358 N   0  0  0  0  0  0
  -25.9315  -11.6504   20.5767 N   0  0  0  0  0  0
  -22.0499  -12.8228   22.0397 N   0  0  0  0  0  0
  -25.4326  -15.1894   20.4144 N   0  0  0  0  0  0
  -31.8604  -14.5823   20.0848 O   0  0  0  0  0  0
  -21.6638   -6.8888   21.4243 O   0  0  0  0  0  0
  -22.3552  -14.5559   20.6708 O   0  0  0  0  0  0
  -24.6118  -31.8705   23.2125 C   0  0  0  0  0  0
  -25.9031  -32.4830   23.8415 C   0  0  1  0  0  0
  -27.2365  -27.4561   20.0987 C   0  0  0  0  0  0
  -25.5909  -33.8625   24.2353 N   0  0  0  0  0  0
  -23.3999  -30.4940   21.5490 C   0  0  2  0  0  0
  -24.8492  -28.9587   20.1169 C   0  0  0  0  0  0
  -22.7424  -29.4664   22.4977 C   0  0  0  0  0  0
  -18.0275  -28.1390   22.8485 C   0  0  0  0  0  0
  -24.1480  -36.7317   23.2638 C   0  0  0  0  0  0
  -25.9278  -30.8383   21.3666 C   0  0  0  0  0  0
  -26.0059  -29.4738   20.7170 C   0  0  0  0  0  0
  -27.2039  -28.7269   20.7090 C   0  0  0  0  0  0
  -26.0711  -26.9545   19.4837 C   0  0  0  0  0  0
  -24.8749  -27.6953   19.5001 C   0  0  0  0  0  0
  -23.6111  -29.8241   20.1644 C   0  0  0  0  0  0
  -25.4099  -36.3110   24.0345 C   0  0  1  0  0  0
  -20.5866  -28.3670   23.1310 C   0  0  2  0  0  0
  -20.6763  -26.9406   22.5418 C   0  0  0  0  0  0
  -19.5743  -26.6399   21.5209 C   0  0  0  0  0  0
  -18.1917  -26.7935   22.1612 C   0  0  0  0  0  0
  -19.1523  -28.8849   23.2889 C   0  0  0  0  0  0
  -18.9454  -30.1457   23.8896 C   0  0  0  0  0  0
  -17.6450  -30.6581   24.0579 C   0  0  0  0  0  0
  -25.9036  -34.9478   23.5137 C   0  0  0  0  0  0
  -16.5345  -29.9092   23.6319 C   0  0  0  0  0  0
  -16.7262  -28.6522   23.0317 C   0  0  0  0  0  0
  -26.4472  -31.6607   25.0738 C   0  0  0  0  0  0
  -25.3763  -31.3707   26.1513 C   0  0  0  0  0  0
  -27.0307  -30.3048   24.6112 C   0  0  0  0  0  0
  -27.6052  -32.4338   25.7484 C   0  0  0  0  0  0
  -27.5586  -37.1792   24.8457 C   0  0  0  0  0  0
  -21.4156  -29.3035   22.3724 N   0  0  0  0  0  0
  -26.4282  -37.3803   23.9423 N   0  0  0  0  0  0
  -24.6640  -31.0829   22.1003 N   0  0  0  0  0  0
  -23.4214  -28.8208   23.3000 O   0  0  0  0  0  0
  -28.3991  -26.7280   20.0630 O   0  0  0  0  0  0
  -26.5592  -34.8932   22.4696 O   0  0  0  0  0  0
  -23.5319  -32.1449   23.7532 O   0  0  0  0  0  0
  -29.4008  -20.3696   20.0535 C   0  0  0  0  0  0
  -28.8380  -19.9095   21.2636 C   0  0  0  0  0  0
  -30.4015  -19.6610   19.3459 C   0  0  0  0  0  0
  -29.2810  -18.6678   21.7948 C   0  0  0  0  0  0
  -30.2943  -17.9289   21.1211 C   0  0  0  0  0  0
  -30.8450  -18.4248   19.9041 C   0  0  0  0  0  0
  -28.7072  -18.1327   23.1079 C   0  0  0  0  0  0
  -30.3485  -21.6270   17.6496 C   0  0  0  0  0  0
  -30.6983  -19.3465   16.8195 C   0  0  0  0  0  0
  -32.4995  -20.5432   18.1602 C   0  0  0  0  0  0
  -30.8542  -16.6348   21.7467 C   0  0  0  0  0  0
  -27.7721  -20.7532   21.9939 C   0  0  0  0  0  0
  -27.8235  -24.3868   20.6603 C   0  0  0  0  0  0
  -28.1691  -23.2034   21.5940 C   0  0  0  0  0  0
  -28.5137  -25.7099   21.0618 C   0  0  0  0  0  0
  -30.9831  -20.2650   18.0289 C   0  0  0  0  0  0
  -30.1872  -15.3887   21.3413 N   0  0  0  0  0  0
  -27.3441  -22.0000   21.3159 N   0  3  0  0  0  0
  -32.0940  -17.5032   19.1353 Cl  0  0  0  0  0  0
  -31.4555  -12.3758   19.1085 H   0  0  0  0  0  0
  -30.3030  -11.2851   19.8176 H   0  0  0  0  0  0
  -29.7223  -11.7750   17.4208 H   0  0  0  0  0  0
  -29.6545  -13.4855   17.7687 H   0  0  0  0  0  0
  -27.8292  -11.3009   18.8319 H   0  0  0  0  0  0
  -27.3544  -12.6155   17.7906 H   0  0  0  0  0  0
  -27.7029  -14.2531   19.5641 H   0  0  0  0  0  0
  -28.6700  -11.9744   21.3587 H   0  0  0  0  0  0
  -28.4605  -13.6234   21.8571 H   0  0  0  0  0  0
  -25.2768   -9.5700   22.4750 H   0  0  0  0  0  0
  -24.0016   -7.4642   22.7461 H   0  0  0  0  0  0
  -21.0854   -8.8779   19.8939 H   0  0  0  0  0  0
  -22.3701  -10.9682   19.6158 H   0  0  0  0  0  0
  -21.2003   -7.6151   23.9730 H   0  0  0  0  0  0
  -21.1476   -6.0517   25.9083 H   0  0  0  0  0  0
  -22.0599   -2.7616   23.2837 H   0  0  0  0  0  0
  -22.4112  -11.9880   22.4772 H   0  0  0  0  0  0
  -21.1115  -13.1245   22.2596 H   0  0  0  0  0  0
  -24.6702  -15.8474   20.5323 H   0  0  0  0  0  0
  -26.2923  -15.6297   20.1120 H   0  0  0  0  0  0
  -26.7105  -32.5566   23.1192 H   0  0  0  0  0  0
  -25.0077  -33.9781   25.0506 H   0  0  0  0  0  0
  -22.6849  -31.3073   21.4073 H   0  0  0  0  0  0
  -23.3746  -35.9642   23.3283 H   0  0  0  0  0  0
  -24.3562  -36.8940   22.2050 H   0  0  0  0  0  0
  -23.7234  -37.6519   23.6663 H   0  0  0  0  0  0
  -26.0446  -31.6014   20.5956 H   0  0  0  0  0  0
  -26.8141  -30.8905   21.9884 H   0  0  0  0  0  0
  -28.1015  -29.1164   21.1700 H   0  0  0  0  0  0
  -26.0910  -25.9967   18.9845 H   0  0  0  0  0  0
  -23.9886  -27.2943   19.0278 H   0  0  0  0  0  0
  -23.7260  -30.5970   19.4034 H   0  0  0  0  0  0
  -22.7360  -29.2425   19.8671 H   0  0  0  0  0  0
  -25.1260  -36.1968   25.0836 H   0  0  0  0  0  0
  -20.9945  -28.3245   24.1435 H   0  0  0  0  0  0
  -20.5677  -26.2285   23.3610 H   0  0  0  0  0  0
  -21.6632  -26.7465   22.1201 H   0  0  0  0  0  0
  -19.6911  -25.6324   21.1213 H   0  0  0  0  0  0
  -19.6685  -27.3228   20.6753 H   0  0  0  0  0  0
  -17.4205  -26.6697   21.4002 H   0  0  0  0  0  0
  -18.0300  -26.0082   22.9009 H   0  0  0  0  0  0
  -19.7934  -30.7277   24.2259 H   0  0  0  0  0  0
  -17.5011  -31.6250   24.5206 H   0  0  0  0  0  0
  -15.5345  -30.2990   23.7654 H   0  0  0  0  0  0
  -15.8667  -28.0864   22.6978 H   0  0  0  0  0  0
  -24.5889  -30.7105   25.7865 H   0  0  0  0  0  0
  -24.9031  -32.2867   26.5058 H   0  0  0  0  0  0
  -25.8140  -30.8813   27.0223 H   0  0  0  0  0  0
  -26.2836  -29.6772   24.1244 H   0  0  0  0  0  0
  -27.4146  -29.7321   25.4564 H   0  0  0  0  0  0
  -27.8643  -30.4354   23.9207 H   0  0  0  0  0  0
  -27.2669  -33.3632   26.2077 H   0  0  0  0  0  0
  -28.3844  -32.6904   25.0297 H   0  0  0  0  0  0
  -28.0748  -31.8476   26.5389 H   0  0  0  0  0  0
  -28.2579  -38.0117   24.7545 H   0  0  0  0  0  0
  -28.1107  -36.2649   24.6215 H   0  0  0  0  0  0
  -27.2320  -37.1364   25.8866 H   0  0  0  0  0  0
  -20.9339  -29.8804   21.6972 H   0  0  0  0  0  0
  -26.0167  -38.2877   24.1451 H   0  0  0  0  0  0
  -29.0534  -21.3089   19.6668 H   0  0  0  0  0  0
  -27.7850  -18.6142   23.4227 H   0  0  0  0  0  0
  -29.4287  -18.2581   23.9164 H   0  0  0  0  0  0
  -28.4756  -17.0707   23.0232 H   0  0  0  0  0  0
  -29.2701  -21.5488   17.5032 H   0  0  0  0  0  0
  -30.7506  -22.0055   16.7091 H   0  0  0  0  0  0
  -30.5455  -22.3925   18.4017 H   0  0  0  0  0  0
  -29.6255  -19.2121   16.6765 H   0  0  0  0  0  0
  -31.1341  -18.3557   16.9064 H   0  0  0  0  0  0
  -31.1017  -19.7714   15.8992 H   0  0  0  0  0  0
  -32.7261  -21.0613   19.0930 H   0  0  0  0  0  0
  -32.8617  -21.1717   17.3455 H   0  0  0  0  0  0
  -33.1107  -19.6451   18.1270 H   0  0  0  0  0  0
  -30.8093  -16.6872   22.8329 H   0  0  0  0  0  0
  -31.9288  -16.5837   21.5680 H   0  0  0  0  0  0
  -28.1066  -20.9852   23.0060 H   0  0  0  0  0  0
  -26.8749  -20.1414   22.0950 H   0  0  0  0  0  0
  -26.7453  -24.5401   20.6584 H   0  0  0  0  0  0
  -28.1015  -24.1286   19.6378 H   0  0  0  0  0  0
  -28.0117  -23.4966   22.6323 H   0  0  0  0  0  0
  -29.2291  -22.9608   21.4983 H   0  0  0  0  0  0
  -29.5788  -25.5320   21.2161 H   0  0  0  0  0  0
  -28.1284  -26.0645   22.0203 H   0  0  0  0  0  0
  -29.2663  -15.2093   21.7115 H   0  0  0  0  0  0
  -26.4056  -22.1887   21.6318 H   0  0  0  0  0  0
  -27.2951  -21.8152   20.3280 H   0  0  0  0  0  0
  1 25  1  0  0  0
  1 30  2  0  0  0
  1 87  1  0  0  0
  2  3  1  0  0  0
  2 25  1  0  0  0
  2 90  1  0  0  0
  2 91  1  0  0  0
  3  4  1  0  0  0
  3 92  1  0  0  0
  3 93  1  0  0  0
  4  5  1  0  0  0
  4 94  1  0  0  0
  4 95  1  0  0  0
  5  6  1  0  0  0
  5 26  1  0  0  0
  5 96  1  0  0  0
  6 25  1  0  0  0
  6 97  1  0  0  0
  6 98  1  0  0  0
  7  8  2  0  0  0
  7 26  1  0  0  0
  7 29  1  0  0  0
  8  9  1  0  0  0
  8 22  1  0  0  0
  9 10  1  0  0  0
  9 27  2  0  0  0
 10 11  2  0  0  0
 10 15  1  0  0  0
 11 12  1  0  0  0
 11 99  1  0  0  0
 12 13  2  0  0  0
 12100  1  0  0  0
 13 14  1  0  0  0
 13 31  1  0  0  0
 14 15  2  0  0  0
 14101  1  0  0  0
 15102  1  0  0  0
 16 17  2  0  0  0
 16 21  1  0  0  0
 16 31  1  0  0  0
 17 18  1  0  0  0
 17103  1  0  0  0
 18 19  2  0  0  0
 18104  1  0  0  0
 19 20  1  0  0  0
 19 24  1  0  0  0
 20 21  2  0  0  0
 20105  1  0  0  0
 21 23  1  0  0  0
 22 28  1  0  0  0
 22 32  2  0  0  0
 26 27  1  0  0  0
 28106  1  0  0  0
 28107  1  0  0  0
 29108  1  0  0  0
 29109  1  0  0  0
 33 34  1  0  0  0
 33 66  1  0  0  0
 33 70  2  0  0  0
 34 36  1  0  0  0
 34 59  1  0  0  0
 34110  1  0  0  0
 35 44  2  0  0  0
 35 45  1  0  0  0
 35 68  1  0  0  0
 36 56  1  0  0  0
 36111  1  0  0  0
 37 39  1  0  0  0
 37 47  1  0  0  0
 37 66  1  0  0  0
 37112  1  0  0  0
 38 43  2  0  0  0
 38 46  1  0  0  0
 38 47  1  0  0  0
 39 64  1  0  0  0
 39 67  2  0  0  0
 40 52  1  0  0  0
 40 53  2  0  0  0
 40 58  1  0  0  0
 41113  1  0  0  0
 41114  1  0  0  0
 41115  1  0  0  0
 41 48  1  0  0  0
 42 43  1  0  0  0
 42 66  1  0  0  0
 42116  1  0  0  0
 42117  1  0  0  0
 43 44  1  0  0  0
 44118  1  0  0  0
 45 46  2  0  0  0
 45119  1  0  0  0
 46120  1  0  0  0
 47121  1  0  0  0
 47122  1  0  0  0
 48 56  1  0  0  0
 48 65  1  0  0  0
 48123  1  0  0  0
 49 50  1  0  0  0
 49 53  1  0  0  0
 49 64  1  0  0  0
 49124  1  0  0  0
 50 51  1  0  0  0
 50125  1  0  0  0
 50126  1  0  0  0
 51 52  1  0  0  0
 51127  1  0  0  0
 51128  1  0  0  0
 52129  1  0  0  0
 52130  1  0  0  0
 53 54  1  0  0  0
 54 55  2  0  0  0
 54131  1  0  0  0
 55 57  1  0  0  0
 55132  1  0  0  0
 56 69  2  0  0  0
 57 58  2  0  0  0
 57133  1  0  0  0
 58134  1  0  0  0
 59 60  1  0  0  0
 59 61  1  0  0  0
 59 62  1  0  0  0
 60135  1  0  0  0
 60136  1  0  0  0
 60137  1  0  0  0
 61138  1  0  0  0
 61139  1  0  0  0
 61140  1  0  0  0
 62141  1  0  0  0
 62142  1  0  0  0
 62143  1  0  0  0
 63 65  1  0  0  0
 63144  1  0  0  0
 63145  1  0  0  0
 63146  1  0  0  0
 64147  1  0  0  0
 65148  1  0  0  0
 68 85  1  0  0  0
 71 72  2  0  0  0
 71 73  1  0  0  0
 71149  1  0  0  0
 72 74  1  0  0  0
 72 82  1  0  0  0
 73 76  2  0  0  0
 73 86  1  0  0  0
 74 75  2  0  0  0
 74 77  1  0  0  0
 75 76  1  0  0  0
 75 81  1  0  0  0
 76 89  1  0  0  0
 77150  1  0  0  0
 77151  1  0  0  0
 77152  1  0  0  0
 78153  1  0  0  0
 78154  1  0  0  0
 78155  1  0  0  0
 78 86  1  0  0  0
 79 86  1  0  0  0
 79156  1  0  0  0
 79157  1  0  0  0
 79158  1  0  0  0
 80 86  1  0  0  0
 80159  1  0  0  0
 80160  1  0  0  0
 80161  1  0  0  0
 81 87  1  0  0  0
 81162  1  0  0  0
 81163  1  0  0  0
 82 88  1  0  0  0
 82164  1  0  0  0
 82165  1  0  0  0
 83 84  1  0  0  0
 83 85  1  0  0  0
 83166  1  0  0  0
 83167  1  0  0  0
 84 88  1  0  0  0
 84168  1  0  0  0
 84169  1  0  0  0
 85170  1  0  0  0
 85171  1  0  0  0
 87172  1  0  0  0
 88173  1  0  0  0
 88174  1  0  0  0
M  CHG  1  88   1
M  ISO  4   1 100  68 101  85 101  87 100
M  END
> <chiral flag>
0

> <version>
0

> <s_m_source_file>
/data/baiqing/PycharmProjects/Reinvent-master-3.2/result/LINK_invent/BTK/process_docking_weight1_custom_sum_contain_oxygen_bond_distance_aromatic_linkinvent_7_9_3/rearranged_h_0022.sdf

> <i_m_source_file_index>
43

> <r_mmod_Potential_Energy-OPLS-2005>
-213.362350463867

> <r_mmod_Stretch_Energy-OPLS-2005>
44.6587944030762

> <r_mmod_Bend_Energy-OPLS-2005>
106.490577697754

> <r_mmod_Torsional_Energy-OPLS-2005>
225.637741088867

> <r_mmod_Improper_Torsional_Energy-OPLS-2005>
1.99917709827423

> <r_mmod_Van_der_Waal_Energy-OPLS-2005>
178.958511352539

> <r_mmod_Electrostatic_Energy-OPLS-2005>
-304.970458984375

> <r_mmod_Solvation_Energy-OPLS-2005>
-476.294097900391

> <b_mmod_Minimization_Converged-OPLS-2005>
0

> <r_mmod_RMS_Derivative-OPLS-2005>
2.09374761581421

$$$$
43
                    3D
 Structure written by MMmdl.
159167  0  0  1  0            999 V2000
  -30.5620  -14.8497   20.4583 C   0  0  0  0  0  0
  -30.4327  -12.5300   19.4774 C   0  0  0  0  0  0
  -29.5112  -12.5163   18.2373 C   0  0  0  0  0  0
  -28.0435  -12.3098   18.6571 C   0  0  0  0  0  0
  -27.6285  -13.2341   19.8345 C   0  0  2  0  0  0
  -28.6683  -13.2193   20.9729 C   0  0  0  0  0  0
  -25.2460  -13.8187   20.5665 C   0  0  0  0  0  0
  -24.1776  -13.0431   20.9212 C   0  0  0  0  0  0
  -24.6369  -11.6907   20.8735 C   0  0  0  0  0  0
  -23.9061  -10.4284   21.0388 C   0  0  0  0  0  0
  -24.3620   -9.4202   21.9166 C   0  0  0  0  0  0
  -23.6299   -8.2238   22.0740 C   0  0  0  0  0  0
  -22.4279   -8.0273   21.3540 C   0  0  0  0  0  0
  -21.9906   -9.0240   20.4643 C   0  0  0  0  0  0
  -22.7228  -10.2117   20.3046 C   0  0  0  0  0  0
  -21.6857   -6.0731   22.5279 C   0  0  0  0  0  0
  -21.4020   -6.5633   23.8214 C   0  0  0  0  0  0
  -21.3662   -5.6786   24.9176 C   0  0  0  0  0  0
  -21.6044   -4.3048   24.7224 C   0  0  0  0  0  0
  -21.8825   -3.8141   23.4342 C   0  0  0  0  0  0
  -21.9202   -4.6961   22.3399 C   0  0  0  0  0  0
  -22.7810  -13.5208   21.1885 C   0  0  0  0  0  0
  -22.1663   -4.2149   21.0978 F   0  0  0  0  0  0
  -21.5627   -3.4527   25.7736 F   0  0  0  0  0  0
  -29.9518  -13.6098   20.3798 N   0  0  0  0  0  0
  -26.2858  -12.9384   20.3193 N   0  0  0  0  0  0
  -25.9285  -11.6529   20.5712 N   0  0  0  0  0  0
  -22.0475  -12.8198   22.0442 N   0  0  0  0  0  0
  -25.4148  -15.1920   20.4054 N   0  0  0  0  0  0
  -31.7680  -14.9225   20.1983 O   0  0  0  0  0  0
  -21.6647   -6.8868   21.4236 O   0  0  0  0  0  0
  -22.3485  -14.5503   20.6716 O   0  0  0  0  0  0
  -24.6379  -31.8474   23.1927 C   0  0  0  0  0  0
  -25.9177  -32.4715   23.8287 C   0  0  1  0  0  0
  -27.1939  -27.1717   20.1776 C   0  0  0  0  0  0
  -25.5950  -33.8517   24.2215 N   0  0  0  0  0  0
  -23.4375  -30.4695   21.5354 C   0  0  2  0  0  0
  -24.8833  -28.8993   20.1119 C   0  0  0  0  0  0
  -22.7525  -29.4577   22.4880 C   0  0  0  0  0  0
  -18.0299  -28.1398   22.8475 C   0  0  0  0  0  0
  -24.1488  -36.7268   23.2638 C   0  0  0  0  0  0
  -25.9873  -30.7376   21.3814 C   0  0  0  0  0  0
  -26.0559  -29.3495   20.7320 C   0  0  0  0  0  0
  -27.2168  -28.4995   20.7463 C   0  0  0  0  0  0
  -26.0070  -26.8111   19.5102 C   0  0  0  0  0  0
  -24.8697  -27.6447   19.4825 C   0  0  0  0  0  0
  -23.6600  -29.7992   20.1536 C   0  0  0  0  0  0
  -25.4110  -36.3038   24.0319 C   0  0  1  0  0  0
  -20.5904  -28.3717   23.1253 C   0  0  2  0  0  0
  -20.6790  -26.9432   22.5408 C   0  0  0  0  0  0
  -19.5770  -26.6391   21.5213 C   0  0  0  0  0  0
  -18.1950  -26.7933   22.1618 C   0  0  0  0  0  0
  -19.1548  -28.8874   23.2859 C   0  0  0  0  0  0
  -18.9467  -30.1471   23.8882 C   0  0  0  0  0  0
  -17.6462  -30.6599   24.0562 C   0  0  0  0  0  0
  -25.9062  -34.9412   23.5075 C   0  0  0  0  0  0
  -16.5357  -29.9094   23.6334 C   0  0  0  0  0  0
  -16.7282  -28.6510   23.0364 C   0  0  0  0  0  0
  -26.4522  -31.6558   25.0697 C   0  0  0  0  0  0
  -25.3729  -31.3741   26.1411 C   0  0  0  0  0  0
  -27.0379  -30.2957   24.6241 C   0  0  0  0  0  0
  -27.6078  -32.4301   25.7467 C   0  0  0  0  0  0
  -27.5586  -37.1772   24.8456 C   0  0  0  0  0  0
  -21.4223  -29.3045   22.3621 N   0  0  0  0  0  0
  -26.4272  -37.3755   23.9428 N   0  0  0  0  0  0
  -24.7072  -31.0388   22.0928 N   0  0  0  0  0  0
  -23.4195  -28.8122   23.3006 O   0  0  0  0  0  0
  -28.2612  -26.2270   20.2277 O   0  0  0  0  0  0
  -26.5647  -34.8902   22.4652 O   0  0  0  0  0  0
  -23.5509  -32.1311   23.7192 O   0  0  0  0  0  0
  -29.9795  -19.6574   19.4103 C   0  0  0  0  0  0
  -29.7048  -21.0546   19.2119 C   0  0  0  0  0  0
  -29.5927  -18.9231   20.5639 C   0  0  0  0  0  0
  -29.0029  -21.9195   20.1209 C   0  0  0  0  0  0
  -28.8293  -19.7469   21.4741 C   0  0  0  0  0  0
  -28.5367  -21.1704   21.2615 C   0  0  0  0  0  0
  -31.0062  -25.1278   19.1679 C   0  0  0  0  0  0
  -28.5658  -23.7097   18.3241 C   0  0  0  0  0  0
  -30.2790  -17.4726   20.9060 C   0  0  0  0  0  0
  -30.4473  -24.0012   20.0544 C   0  0  0  0  0  0
  -28.0499  -24.7270   20.5340 C   0  0  0  0  0  0
  -28.9749  -23.5511   19.8096 C   0  0  2  0  0  0
  -29.7953  -16.0173   20.6454 N   0  0  0  0  0  0
  -28.2971  -19.0053   22.9449 Cl  0  0  0  0  0  0
  -27.6361  -22.0177   22.4706 Cl  0  0  0  0  0  0
  -31.4684  -12.6806   19.1676 H   0  0  0  0  0  0
  -30.4081  -11.5660   19.9874 H   0  0  0  0  0  0
  -29.8178  -11.7302   17.5437 H   0  0  0  0  0  0
  -29.6093  -13.4599   17.6981 H   0  0  0  0  0  0
  -27.9334  -11.2657   18.9547 H   0  0  0  0  0  0
  -27.3787  -12.4547   17.8049 H   0  0  0  0  0  0
  -27.6065  -14.2442   19.4247 H   0  0  0  0  0  0
  -28.7361  -12.2301   21.4279 H   0  0  0  0  0  0
  -28.3812  -13.9084   21.7680 H   0  0  0  0  0  0
  -25.2763   -9.5696   22.4736 H   0  0  0  0  0  0
  -24.0031   -7.4634   22.7438 H   0  0  0  0  0  0
  -21.0847   -8.8741   19.8939 H   0  0  0  0  0  0
  -22.3672  -10.9658   19.6160 H   0  0  0  0  0  0
  -21.2006   -7.6141   23.9715 H   0  0  0  0  0  0
  -21.1478   -6.0512   25.9079 H   0  0  0  0  0  0
  -22.0604   -2.7605   23.2844 H   0  0  0  0  0  0
  -22.4119  -11.9893   22.4876 H   0  0  0  0  0  0
  -21.1075  -13.1186   22.2624 H   0  0  0  0  0  0
  -24.6397  -15.8384   20.5020 H   0  0  0  0  0  0
  -26.2496  -15.6303   20.0404 H   0  0  0  0  0  0
  -26.7240  -32.5334   23.1016 H   0  0  0  0  0  0
  -25.0081  -33.9642   25.0353 H   0  0  0  0  0  0
  -22.7355  -31.2919   21.3828 H   0  0  0  0  0  0
  -23.3769  -35.9578   23.3223 H   0  0  0  0  0  0
  -24.3601  -36.8981   22.2077 H   0  0  0  0  0  0
  -23.7202  -37.6426   23.6711 H   0  0  0  0  0  0
  -26.1283  -31.4877   20.6026 H   0  0  0  0  0  0
  -26.8646  -30.7939   22.0143 H   0  0  0  0  0  0
  -28.1104  -28.8338   21.2524 H   0  0  0  0  0  0
  -25.9445  -25.8520   19.0172 H   0  0  0  0  0  0
  -23.9761  -27.2990   18.9805 H   0  0  0  0  0  0
  -23.7945  -30.5708   19.3948 H   0  0  0  0  0  0
  -22.7741  -29.2387   19.8497 H   0  0  0  0  0  0
  -25.1286  -36.1865   25.0807 H   0  0  0  0  0  0
  -20.9998  -28.3310   24.1374 H   0  0  0  0  0  0
  -20.5707  -26.2330   23.3622 H   0  0  0  0  0  0
  -21.6658  -26.7467   22.1196 H   0  0  0  0  0  0
  -19.6944  -25.6300   21.1268 H   0  0  0  0  0  0
  -19.6714  -27.3186   20.6737 H   0  0  0  0  0  0
  -17.4223  -26.6684   21.4028 H   0  0  0  0  0  0
  -18.0344  -26.0074   22.9013 H   0  0  0  0  0  0
  -19.7941  -30.7295   24.2256 H   0  0  0  0  0  0
  -17.5013  -31.6275   24.5173 H   0  0  0  0  0  0
  -15.5357  -30.2996   23.7660 H   0  0  0  0  0  0
  -15.8677  -28.0824   22.7098 H   0  0  0  0  0  0
  -24.5896  -30.7101   25.7735 H   0  0  0  0  0  0
  -24.8935  -32.2928   26.4795 H   0  0  0  0  0  0
  -25.8029  -30.8931   27.0208 H   0  0  0  0  0  0
  -26.2984  -29.6666   24.1277 H   0  0  0  0  0  0
  -27.4046  -29.7257   25.4789 H   0  0  0  0  0  0
  -27.8855  -30.4194   23.9497 H   0  0  0  0  0  0
  -27.2717  -33.3642   26.1965 H   0  0  0  0  0  0
  -28.3935  -32.6793   25.0325 H   0  0  0  0  0  0
  -28.0674  -31.8457   26.5446 H   0  0  0  0  0  0
  -28.2556  -38.0118   24.7570 H   0  0  0  0  0  0
  -28.1134  -36.2659   24.6183 H   0  0  0  0  0  0
  -27.2324  -37.1298   25.8861 H   0  0  0  0  0  0
  -20.9424  -29.8737   21.6789 H   0  0  0  0  0  0
  -26.0142  -38.2812   24.1479 H   0  0  0  0  0  0
  -30.5975  -19.1606   18.6763 H   0  0  0  0  0  0
  -30.1425  -21.4829   18.3235 H   0  0  0  0  0  0
  -30.4103  -26.0375   19.2036 H   0  0  0  0  0  0
  -31.0787  -24.8121   18.1273 H   0  0  0  0  0  0
  -32.0123  -25.3901   19.4933 H   0  0  0  0  0  0
  -29.2577  -23.2480   17.6252 H   0  0  0  0  0  0
  -28.5022  -24.7594   18.0361 H   0  0  0  0  0  0
  -27.5813  -23.2743   18.1476 H   0  0  0  0  0  0
  -30.4977  -17.4982   21.9742 H   0  0  0  0  0  0
  -31.2686  -17.5302   20.4524 H   0  0  0  0  0  0
  -30.5640  -24.2667   21.1059 H   0  0  0  0  0  0
  -31.1299  -23.1633   19.9160 H   0  0  0  0  0  0
  -28.2141  -24.6470   21.6088 H   0  0  0  0  0  0
  -26.9989  -24.4653   20.4089 H   0  0  0  0  0  0
  -28.8050  -15.8628   20.7539 H   0  0  0  0  0  0
  1 25  1  0  0  0
  1 30  2  0  0  0
  1 83  1  0  0  0
  2  3  1  0  0  0
  2 25  1  0  0  0
  2 86  1  0  0  0
  2 87  1  0  0  0
  3  4  1  0  0  0
  3 88  1  0  0  0
  3 89  1  0  0  0
  4  5  1  0  0  0
  4 90  1  0  0  0
  4 91  1  0  0  0
  5  6  1  0  0  0
  5 26  1  0  0  0
  5 92  1  0  0  0
  6 25  1  0  0  0
  6 93  1  0  0  0
  6 94  1  0  0  0
  7  8  2  0  0  0
  7 26  1  0  0  0
  7 29  1  0  0  0
  8  9  1  0  0  0
  8 22  1  0  0  0
  9 10  1  0  0  0
  9 27  2  0  0  0
 10 11  2  0  0  0
 10 15  1  0  0  0
 11 12  1  0  0  0
 11 95  1  0  0  0
 12 13  2  0  0  0
 12 96  1  0  0  0
 13 14  1  0  0  0
 13 31  1  0  0  0
 14 15  2  0  0  0
 14 97  1  0  0  0
 15 98  1  0  0  0
 16 17  2  0  0  0
 16 21  1  0  0  0
 16 31  1  0  0  0
 17 18  1  0  0  0
 17 99  1  0  0  0
 18 19  2  0  0  0
 18100  1  0  0  0
 19 20  1  0  0  0
 19 24  1  0  0  0
 20 21  2  0  0  0
 20101  1  0  0  0
 21 23  1  0  0  0
 22 28  1  0  0  0
 22 32  2  0  0  0
 26 27  1  0  0  0
 28102  1  0  0  0
 28103  1  0  0  0
 29104  1  0  0  0
 29105  1  0  0  0
 33 34  1  0  0  0
 33 66  1  0  0  0
 33 70  2  0  0  0
 34 36  1  0  0  0
 34 59  1  0  0  0
 34106  1  0  0  0
 35 44  2  0  0  0
 35 45  1  0  0  0
 35 68  1  0  0  0
 36 56  1  0  0  0
 36107  1  0  0  0
 37 39  1  0  0  0
 37 47  1  0  0  0
 37 66  1  0  0  0
 37108  1  0  0  0
 38 43  2  0  0  0
 38 46  1  0  0  0
 38 47  1  0  0  0
 39 64  1  0  0  0
 39 67  2  0  0  0
 40 52  1  0  0  0
 40 53  2  0  0  0
 40 58  1  0  0  0
 41109  1  0  0  0
 41110  1  0  0  0
 41111  1  0  0  0
 41 48  1  0  0  0
 42 43  1  0  0  0
 42 66  1  0  0  0
 42112  1  0  0  0
 42113  1  0  0  0
 43 44  1  0  0  0
 44114  1  0  0  0
 45 46  2  0  0  0
 45115  1  0  0  0
 46116  1  0  0  0
 47117  1  0  0  0
 47118  1  0  0  0
 48 56  1  0  0  0
 48 65  1  0  0  0
 48119  1  0  0  0
 49 50  1  0  0  0
 49 53  1  0  0  0
 49 64  1  0  0  0
 49120  1  0  0  0
 50 51  1  0  0  0
 50121  1  0  0  0
 50122  1  0  0  0
 51 52  1  0  0  0
 51123  1  0  0  0
 51124  1  0  0  0
 52125  1  0  0  0
 52126  1  0  0  0
 53 54  1  0  0  0
 54 55  2  0  0  0
 54127  1  0  0  0
 55 57  1  0  0  0
 55128  1  0  0  0
 56 69  2  0  0  0
 57 58  2  0  0  0
 57129  1  0  0  0
 58130  1  0  0  0
 59 60  1  0  0  0
 59 61  1  0  0  0
 59 62  1  0  0  0
 60131  1  0  0  0
 60132  1  0  0  0
 60133  1  0  0  0
 61134  1  0  0  0
 61135  1  0  0  0
 61136  1  0  0  0
 62137  1  0  0  0
 62138  1  0  0  0
 62139  1  0  0  0
 63 65  1  0  0  0
 63140  1  0  0  0
 63141  1  0  0  0
 63142  1  0  0  0
 64143  1  0  0  0
 65144  1  0  0  0
 68 81  1  0  0  0
 71 72  2  0  0  0
 71 73  1  0  0  0
 71145  1  0  0  0
 72 74  1  0  0  0
 72146  1  0  0  0
 73 75  2  0  0  0
 73 79  1  0  0  0
 74 76  2  0  0  0
 74 82  1  0  0  0
 75 76  1  0  0  0
 75 84  1  0  0  0
 76 85  1  0  0  0
 77 80  1  0  0  0
 77147  1  0  0  0
 77148  1  0  0  0
 77149  1  0  0  0
 78150  1  0  0  0
 78151  1  0  0  0
 78152  1  0  0  0
 78 82  1  0  0  0
 79 83  1  0  0  0
 79153  1  0  0  0
 79154  1  0  0  0
 80 82  1  0  0  0
 80155  1  0  0  0
 80156  1  0  0  0
 81 82  1  0  0  0
 81157  1  0  0  0
 81158  1  0  0  0
 83159  1  0  0  0
M  ISO  4   1 100  68 101  81 101  83 100
M  END
> <chiral flag>
0

> <version>
0

> <s_m_source_file>
/data/baiqing/PycharmProjects/Reinvent-master-3.2/result/LINK_invent/BTK/process_docking_weight1_custom_sum_contain_oxygen_bond_distance_aromatic_linkinvent_7_9_3/rearranged_h_0022.sdf

> <i_m_source_file_index>
44

> <r_mmod_Potential_Energy-OPLS-2005>
435.846313476562

> <r_mmod_Stretch_Energy-OPLS-2005>
199.90299987793

> <r_mmod_Bend_Energy-OPLS-2005>
258.707672119141

> <r_mmod_Torsional_Energy-OPLS-2005>
247.926986694336

> <r_mmod_Improper_Torsional_Energy-OPLS-2005>
7.36490154266357

> <r_mmod_Van_der_Waal_Energy-OPLS-2005>
141.732559204102

> <r_mmod_Electrostatic_Energy-OPLS-2005>
-367.979400634766

> <r_mmod_Solvation_Energy-OPLS-2005>
-196.938064575195

> <b_mmod_Minimization_Converged-OPLS-2005>
0

> <r_mmod_RMS_Derivative-OPLS-2005>
2.45231032371521

$$$$
44
                    3D
 Structure written by MMmdl.
163172  0  0  1  0            999 V2000
  -30.7785  -14.4409   20.5151 C   0  0  0  0  0  0
  -30.3933  -12.2772   19.4399 C   0  0  0  0  0  0
  -29.4847  -12.4723   18.2121 C   0  0  0  0  0  0
  -28.0066  -12.3550   18.6230 C   0  0  0  0  0  0
  -27.6546  -13.2193   19.8645 C   0  0  2  0  0  0
  -28.7007  -13.0703   20.9950 C   0  0  0  0  0  0
  -25.2565  -13.8195   20.5697 C   0  0  0  0  0  0
  -24.1827  -13.0453   20.9179 C   0  0  0  0  0  0
  -24.6401  -11.6925   20.8750 C   0  0  0  0  0  0
  -23.9076  -10.4301   21.0404 C   0  0  0  0  0  0
  -24.3624   -9.4217   21.9184 C   0  0  0  0  0  0
  -23.6295   -8.2253   22.0760 C   0  0  0  0  0  0
  -22.4284   -8.0285   21.3539 C   0  0  0  0  0  0
  -21.9920   -9.0261   20.4647 C   0  0  0  0  0  0
  -22.7249  -10.2137   20.3055 C   0  0  0  0  0  0
  -21.6859   -6.0741   22.5276 C   0  0  0  0  0  0
  -21.4016   -6.5650   23.8208 C   0  0  0  0  0  0
  -21.3650   -5.6799   24.9168 C   0  0  0  0  0  0
  -21.6044   -4.3062   24.7219 C   0  0  0  0  0  0
  -21.8821   -3.8154   23.4342 C   0  0  0  0  0  0
  -21.9196   -4.6969   22.3398 C   0  0  0  0  0  0
  -22.7853  -13.5242   21.1822 C   0  0  0  0  0  0
  -22.1668   -4.2159   21.0973 F   0  0  0  0  0  0
  -21.5620   -3.4544   25.7729 F   0  0  0  0  0  0
  -30.0301  -13.3123   20.4206 N   0  0  0  0  0  0
  -26.3003  -12.9386   20.3364 N   0  0  0  0  0  0
  -25.9334  -11.6534   20.5794 N   0  0  0  0  0  0
  -22.0501  -12.8233   22.0378 N   0  0  0  0  0  0
  -25.4287  -15.1909   20.4112 N   0  0  0  0  0  0
  -31.9472  -14.4750   20.1250 O   0  0  0  0  0  0
  -21.6643   -6.8882   21.4237 O   0  0  0  0  0  0
  -22.3547  -14.5543   20.6663 O   0  0  0  0  0  0
  -24.6134  -31.8704   23.2101 C   0  0  0  0  0  0
  -25.9032  -32.4837   23.8391 C   0  0  1  0  0  0
  -27.2255  -27.4289   20.1063 C   0  0  0  0  0  0
  -25.5874  -33.8631   24.2325 N   0  0  0  0  0  0
  -23.4006  -30.4901   21.5556 C   0  0  2  0  0  0
  -24.8448  -28.9622   20.1133 C   0  0  0  0  0  0
  -22.7408  -29.4643   22.5039 C   0  0  0  0  0  0
  -18.0245  -28.1356   22.8481 C   0  0  0  0  0  0
  -24.1494  -36.7314   23.2636 C   0  0  0  0  0  0
  -25.9268  -30.8367   21.3619 C   0  0  0  0  0  0
  -26.0050  -29.4703   20.7126 C   0  0  0  0  0  0
  -27.1964  -28.7109   20.7053 C   0  0  0  0  0  0
  -26.0513  -26.9522   19.4742 C   0  0  0  0  0  0
  -24.8638  -27.7058   19.4880 C   0  0  0  0  0  0
  -23.6074  -29.8253   20.1682 C   0  0  0  0  0  0
  -25.4112  -36.3119   24.0322 C   0  0  1  0  0  0
  -20.5829  -28.3646   23.1315 C   0  0  2  0  0  0
  -20.6747  -26.9383   22.5406 C   0  0  0  0  0  0
  -19.5736  -26.6355   21.5202 C   0  0  0  0  0  0
  -18.1908  -26.7893   22.1603 C   0  0  0  0  0  0
  -19.1490  -28.8814   23.2888 C   0  0  0  0  0  0
  -18.9454  -30.1428   23.8885 C   0  0  0  0  0  0
  -17.6465  -30.6589   24.0536 C   0  0  0  0  0  0
  -25.9022  -34.9487   23.5126 C   0  0  0  0  0  0
  -16.5346  -29.9084   23.6328 C   0  0  0  0  0  0
  -16.7236  -28.6486   23.0356 C   0  0  0  0  0  0
  -26.4458  -31.6593   25.0705 C   0  0  0  0  0  0
  -25.3706  -31.3685   26.1430 C   0  0  0  0  0  0
  -27.0272  -30.3047   24.6024 C   0  0  0  0  0  0
  -27.6026  -32.4321   25.7466 C   0  0  0  0  0  0
  -27.5591  -37.1811   24.8469 C   0  0  0  0  0  0
  -21.4138  -29.3007   22.3761 N   0  0  0  0  0  0
  -26.4297  -37.3797   23.9409 N   0  0  0  0  0  0
  -24.6660  -31.0773   22.1033 N   0  0  0  0  0  0
  -23.4180  -28.8179   23.3067 O   0  0  0  0  0  0
  -28.3993  -26.6990   20.1382 O   0  0  0  0  0  0
  -26.5611  -34.8949   22.4702 O   0  0  0  0  0  0
  -23.5330  -32.1463   23.7500 O   0  0  0  0  0  0
  -29.8560  -19.1001   19.8528 C   0  0  0  0  0  0
  -30.3099  -18.2097   20.8469 C   0  0  0  0  0  0
  -30.0328  -20.9832   21.4091 C   0  0  0  0  0  0
  -29.7275  -20.4753   20.1245 C   0  0  0  0  0  0
  -30.5041  -18.6866   22.1642 C   0  0  0  0  0  0
  -30.3570  -20.0683   22.4471 C   0  0  0  0  0  0
  -27.2148  -24.1825   23.1012 C   0  0  0  0  0  0
  -28.2681  -25.2408   22.7962 C   0  0  0  0  0  0
  -27.9382  -22.8888   22.7325 C   0  0  0  0  0  0
  -28.9565  -24.7152   21.5217 C   0  0  2  0  0  0
  -30.8439  -16.8495   20.4087 C   0  0  0  0  0  0
  -30.1334  -22.5023   21.6158 C   0  0  0  0  0  0
  -28.3138  -25.2623   20.2180 C   0  0  0  0  0  0
  -30.1569  -15.6029   20.7934 N   0  0  0  0  0  0
  -28.8339  -23.2244   21.5967 N   0  3  1  0  0  0
  -29.2588  -21.5361   18.8418 Cl  0  0  0  0  0  0
  -31.0304  -17.5996   23.4061 Cl  0  0  0  0  0  0
  -30.6524  -20.6322   24.0591 Cl  0  0  0  0  0  0
  -31.4419  -12.3173   19.1387 H   0  0  0  0  0  0
  -30.2510  -11.2862   19.8741 H   0  0  0  0  0  0
  -29.7187  -11.7286   17.4487 H   0  0  0  0  0  0
  -29.6699  -13.4481   17.7600 H   0  0  0  0  0  0
  -27.8088  -11.3032   18.8326 H   0  0  0  0  0  0
  -27.3622  -12.6219   17.7859 H   0  0  0  0  0  0
  -27.6818  -14.2569   19.5308 H   0  0  0  0  0  0
  -28.6658  -12.0687   21.4276 H   0  0  0  0  0  0
  -28.4878  -13.7619   21.8124 H   0  0  0  0  0  0
  -25.2769   -9.5693   22.4761 H   0  0  0  0  0  0
  -24.0004   -7.4651   22.7492 H   0  0  0  0  0  0
  -21.0853   -8.8776   19.8955 H   0  0  0  0  0  0
  -22.3708  -10.9671   19.6165 H   0  0  0  0  0  0
  -21.2018   -7.6161   23.9712 H   0  0  0  0  0  0
  -21.1463   -6.0531   25.9068 H   0  0  0  0  0  0
  -22.0610   -2.7622   23.2837 H   0  0  0  0  0  0
  -22.4134  -11.9898   22.4748 H   0  0  0  0  0  0
  -21.1115  -13.1243   22.2574 H   0  0  0  0  0  0
  -24.6641  -15.8470   20.5258 H   0  0  0  0  0  0
  -26.2831  -15.6302   20.0927 H   0  0  0  0  0  0
  -26.7085  -32.5548   23.1142 H   0  0  0  0  0  0
  -25.0009  -33.9798   25.0459 H   0  0  0  0  0  0
  -22.6875  -31.3059   21.4189 H   0  0  0  0  0  0
  -23.3760  -35.9651   23.3309 H   0  0  0  0  0  0
  -24.3579  -36.8921   22.2053 H   0  0  0  0  0  0
  -23.7254  -37.6518   23.6654 H   0  0  0  0  0  0
  -26.0276  -31.6030   20.5923 H   0  0  0  0  0  0
  -26.8186  -30.9002   21.9722 H   0  0  0  0  0  0
  -28.0908  -29.0999   21.1726 H   0  0  0  0  0  0
  -26.0312  -26.0095   18.9473 H   0  0  0  0  0  0
  -23.9741  -27.3205   19.0072 H   0  0  0  0  0  0
  -23.7131  -30.6034   19.4106 H   0  0  0  0  0  0
  -22.7352  -29.2392   19.8743 H   0  0  0  0  0  0
  -25.1298  -36.1970   25.0811 H   0  0  0  0  0  0
  -20.9878  -28.3203   24.1448 H   0  0  0  0  0  0
  -20.5684  -26.2254   23.3596 H   0  0  0  0  0  0
  -21.6620  -26.7456   22.1190 H   0  0  0  0  0  0
  -19.6906  -25.6277   21.1233 H   0  0  0  0  0  0
  -19.6663  -27.3179   20.6745 H   0  0  0  0  0  0
  -17.4184  -26.6633   21.4007 H   0  0  0  0  0  0
  -18.0289  -26.0033   22.8987 H   0  0  0  0  0  0
  -19.7956  -30.7219   24.2253 H   0  0  0  0  0  0
  -17.5049  -31.6274   24.5152 H   0  0  0  0  0  0
  -15.5359  -30.3001   23.7685 H   0  0  0  0  0  0
  -15.8614  -28.0826   22.7081 H   0  0  0  0  0  0
  -24.5906  -30.6992   25.7765 H   0  0  0  0  0  0
  -24.8850  -32.2841   26.4840 H   0  0  0  0  0  0
  -25.8058  -30.8890   27.0210 H   0  0  0  0  0  0
  -26.2778  -29.6813   24.1138 H   0  0  0  0  0  0
  -27.4128  -29.7258   25.4423 H   0  0  0  0  0  0
  -27.8588  -30.4364   23.9093 H   0  0  0  0  0  0
  -27.2629  -33.3633   26.2016 H   0  0  0  0  0  0
  -28.3863  -32.6864   25.0313 H   0  0  0  0  0  0
  -28.0664  -31.8454   26.5401 H   0  0  0  0  0  0
  -28.2605  -38.0122   24.7541 H   0  0  0  0  0  0
  -28.1089  -36.2641   24.6271 H   0  0  0  0  0  0
  -27.2289  -37.1434   25.8870 H   0  0  0  0  0  0
  -20.9336  -29.8701   21.6944 H   0  0  0  0  0  0
  -26.0188  -38.2871   24.1440 H   0  0  0  0  0  0
  -29.7026  -18.7492   18.8418 H   0  0  0  0  0  0
  -26.3398  -24.3248   22.4644 H   0  0  0  0  0  0
  -26.8804  -24.1981   24.1402 H   0  0  0  0  0  0
  -28.9917  -25.2708   23.6137 H   0  0  0  0  0  0
  -27.8541  -26.2439   22.6984 H   0  0  0  0  0  0
  -27.2497  -22.0800   22.4838 H   0  0  0  0  0  0
  -28.5284  -22.5654   23.5917 H   0  0  0  0  0  0
  -30.0041  -25.0218   21.5279 H   0  0  0  0  0  0
  -31.8691  -16.8241   20.7869 H   0  0  0  0  0  0
  -30.9492  -16.8496   19.3215 H   0  0  0  0  0  0
  -30.7595  -22.8934   20.8117 H   0  0  0  0  0  0
  -30.6791  -22.7492   22.5253 H   0  0  0  0  0  0
  -28.8256  -24.8548   19.3450 H   0  0  0  0  0  0
  -27.2973  -24.8757   20.1727 H   0  0  0  0  0  0
  -29.1770  -15.6145   21.0281 H   0  0  0  0  0  0
  -28.3699  -22.9252   20.7503 H   0  0  0  0  0  0
  1 25  1  0  0  0
  1 30  2  0  0  0
  1 84  1  0  0  0
  2  3  1  0  0  0
  2 25  1  0  0  0
  2 89  1  0  0  0
  2 90  1  0  0  0
  3  4  1  0  0  0
  3 91  1  0  0  0
  3 92  1  0  0  0
  4  5  1  0  0  0
  4 93  1  0  0  0
  4 94  1  0  0  0
  5  6  1  0  0  0
  5 26  1  0  0  0
  5 95  1  0  0  0
  6 25  1  0  0  0
  6 96  1  0  0  0
  6 97  1  0  0  0
  7  8  2  0  0  0
  7 26  1  0  0  0
  7 29  1  0  0  0
  8  9  1  0  0  0
  8 22  1  0  0  0
  9 10  1  0  0  0
  9 27  2  0  0  0
 10 11  2  0  0  0
 10 15  1  0  0  0
 11 12  1  0  0  0
 11 98  1  0  0  0
 12 13  2  0  0  0
 12 99  1  0  0  0
 13 14  1  0  0  0
 13 31  1  0  0  0
 14 15  2  0  0  0
 14100  1  0  0  0
 15101  1  0  0  0
 16 17  2  0  0  0
 16 21  1  0  0  0
 16 31  1  0  0  0
 17 18  1  0  0  0
 17102  1  0  0  0
 18 19  2  0  0  0
 18103  1  0  0  0
 19 20  1  0  0  0
 19 24  1  0  0  0
 20 21  2  0  0  0
 20104  1  0  0  0
 21 23  1  0  0  0
 22 28  1  0  0  0
 22 32  2  0  0  0
 26 27  1  0  0  0
 28105  1  0  0  0
 28106  1  0  0  0
 29107  1  0  0  0
 29108  1  0  0  0
 33 34  1  0  0  0
 33 66  1  0  0  0
 33 70  2  0  0  0
 34 36  1  0  0  0
 34 59  1  0  0  0
 34109  1  0  0  0
 35 44  2  0  0  0
 35 45  1  0  0  0
 35 68  1  0  0  0
 36 56  1  0  0  0
 36110  1  0  0  0
 37 39  1  0  0  0
 37 47  1  0  0  0
 37 66  1  0  0  0
 37111  1  0  0  0
 38 43  2  0  0  0
 38 46  1  0  0  0
 38 47  1  0  0  0
 39 64  1  0  0  0
 39 67  2  0  0  0
 40 52  1  0  0  0
 40 53  2  0  0  0
 40 58  1  0  0  0
 41112  1  0  0  0
 41113  1  0  0  0
 41114  1  0  0  0
 41 48  1  0  0  0
 42 43  1  0  0  0
 42 66  1  0  0  0
 42115  1  0  0  0
 42116  1  0  0  0
 43 44  1  0  0  0
 44117  1  0  0  0
 45 46  2  0  0  0
 45118  1  0  0  0
 46119  1  0  0  0
 47120  1  0  0  0
 47121  1  0  0  0
 48 56  1  0  0  0
 48 65  1  0  0  0
 48122  1  0  0  0
 49 50  1  0  0  0
 49 53  1  0  0  0
 49 64  1  0  0  0
 49123  1  0  0  0
 50 51  1  0  0  0
 50124  1  0  0  0
 50125  1  0  0  0
 51 52  1  0  0  0
 51126  1  0  0  0
 51127  1  0  0  0
 52128  1  0  0  0
 52129  1  0  0  0
 53 54  1  0  0  0
 54 55  2  0  0  0
 54130  1  0  0  0
 55 57  1  0  0  0
 55131  1  0  0  0
 56 69  2  0  0  0
 57 58  2  0  0  0
 57132  1  0  0  0
 58133  1  0  0  0
 59 60  1  0  0  0
 59 61  1  0  0  0
 59 62  1  0  0  0
 60134  1  0  0  0
 60135  1  0  0  0
 60136  1  0  0  0
 61137  1  0  0  0
 61138  1  0  0  0
 61139  1  0  0  0
 62140  1  0  0  0
 62141  1  0  0  0
 62142  1  0  0  0
 63 65  1  0  0  0
 63143  1  0  0  0
 63144  1  0  0  0
 63145  1  0  0  0
 64146  1  0  0  0
 65147  1  0  0  0
 68 83  1  0  0  0
 71 72  2  0  0  0
 71 74  1  0  0  0
 71148  1  0  0  0
 72 75  1  0  0  0
 72 81  1  0  0  0
 73 74  2  0  0  0
 73 76  1  0  0  0
 73 82  1  0  0  0
 74 86  1  0  0  0
 75 76  2  0  0  0
 75 87  1  0  0  0
 76 88  1  0  0  0
 77 78  1  0  0  0
 77 79  1  0  0  0
 77149  1  0  0  0
 77150  1  0  0  0
 78 80  1  0  0  0
 78151  1  0  0  0
 78152  1  0  0  0
 79 85  1  0  0  0
 79153  1  0  0  0
 79154  1  0  0  0
 80 83  1  0  0  0
 80 85  1  0  0  0
 80155  1  0  0  0
 81 84  1  0  0  0
 81156  1  0  0  0
 81157  1  0  0  0
 82158  1  0  0  0
 82159  1  0  0  0
 82 85  1  0  0  0
 83160  1  0  0  0
 83161  1  0  0  0
 84162  1  0  0  0
 85163  1  0  0  0
M  CHG  1  85   1
M  ISO  4   1 100  68 101  83 101  84 100
M  END
> <chiral flag>
0

> <version>
0

> <s_m_source_file>
/data/baiqing/PycharmProjects/Reinvent-master-3.2/result/LINK_invent/BTK/process_docking_weight1_custom_sum_contain_oxygen_bond_distance_aromatic_linkinvent_7_9_3/rearranged_h_0022.sdf

> <i_m_source_file_index>
45

> <r_mmod_Potential_Energy-OPLS-2005>
-73.5404586791992

> <r_mmod_Stretch_Energy-OPLS-2005>
38.2116279602051

> <r_mmod_Bend_Energy-OPLS-2005>
132.901306152344

> <r_mmod_Torsional_Energy-OPLS-2005>
284.287109375

> <r_mmod_Improper_Torsional_Energy-OPLS-2005>
8.93277549743652

> <r_mmod_Van_der_Waal_Energy-OPLS-2005>
156.66162109375

> <r_mmod_Electrostatic_Energy-OPLS-2005>
-287.392639160156

> <r_mmod_Solvation_Energy-OPLS-2005>
-429.499328613281

> <b_mmod_Minimization_Converged-OPLS-2005>
0

> <r_mmod_RMS_Derivative-OPLS-2005>
2.78699636459351

$$$$
45
                    3D
 Structure written by MMmdl.
192200  0  0  1  0            999 V2000
  -30.7804  -14.3336   20.6910 C   0  0  0  0  0  0
  -30.4120  -12.2768   19.3832 C   0  0  0  0  0  0
  -29.4718  -12.5030   18.1853 C   0  0  0  0  0  0
  -27.9986  -12.3715   18.6089 C   0  0  0  0  0  0
  -27.6649  -13.1963   19.8787 C   0  0  2  0  0  0
  -28.7029  -12.9326   20.9898 C   0  0  0  0  0  0
  -25.2614  -13.8163   20.5681 C   0  0  0  0  0  0
  -24.1838  -13.0445   20.9178 C   0  0  0  0  0  0
  -24.6385  -11.6918   20.8744 C   0  0  0  0  0  0
  -23.9051  -10.4300   21.0419 C   0  0  0  0  0  0
  -24.3607   -9.4222   21.9202 C   0  0  0  0  0  0
  -23.6290   -8.2260   22.0767 C   0  0  0  0  0  0
  -22.4277   -8.0291   21.3544 C   0  0  0  0  0  0
  -21.9923   -9.0261   20.4638 C   0  0  0  0  0  0
  -22.7244  -10.2146   20.3059 C   0  0  0  0  0  0
  -21.6846   -6.0739   22.5279 C   0  0  0  0  0  0
  -21.4007   -6.5648   23.8210 C   0  0  0  0  0  0
  -21.3649   -5.6801   24.9176 C   0  0  0  0  0  0
  -21.6050   -4.3066   24.7223 C   0  0  0  0  0  0
  -21.8824   -3.8157   23.4345 C   0  0  0  0  0  0
  -21.9195   -4.6969   22.3398 C   0  0  0  0  0  0
  -22.7874  -13.5259   21.1839 C   0  0  0  0  0  0
  -22.1670   -4.2172   21.0966 F   0  0  0  0  0  0
  -21.5627   -3.4540   25.7729 F   0  0  0  0  0  0
  -30.0456  -13.2187   20.4495 N   0  0  0  0  0  0
  -26.3032  -12.9313   20.3399 N   0  0  0  0  0  0
  -25.9306  -11.6480   20.5785 N   0  0  0  0  0  0
  -22.0501  -12.8235   22.0370 N   0  0  0  0  0  0
  -25.4392  -15.1871   20.4080 N   0  0  0  0  0  0
  -31.7921  -14.6351   20.0498 O   0  0  0  0  0  0
  -21.6640   -6.8894   21.4247 O   0  0  0  0  0  0
  -22.3586  -14.5576   20.6705 O   0  0  0  0  0  0
  -24.6075  -31.8752   23.2159 C   0  0  0  0  0  0
  -25.8992  -32.4852   23.8431 C   0  0  1  0  0  0
  -27.2226  -27.4678   20.0769 C   0  0  0  0  0  0
  -25.5851  -33.8645   24.2362 N   0  0  0  0  0  0
  -23.3948  -30.4988   21.5565 C   0  0  2  0  0  0
  -24.8392  -28.9717   20.1167 C   0  0  0  0  0  0
  -22.7385  -29.4690   22.5028 C   0  0  0  0  0  0
  -18.0278  -28.1389   22.8538 C   0  0  0  0  0  0
  -24.1481  -36.7340   23.2639 C   0  0  0  0  0  0
  -25.9199  -30.8409   21.3712 C   0  0  0  0  0  0
  -25.9953  -29.4756   20.7258 C   0  0  0  0  0  0
  -27.1876  -28.7227   20.7181 C   0  0  0  0  0  0
  -26.0459  -26.9623   19.4792 C   0  0  0  0  0  0
  -24.8563  -27.7119   19.4962 C   0  0  0  0  0  0
  -23.6036  -29.8398   20.1670 C   0  0  0  0  0  0
  -25.4105  -36.3132   24.0341 C   0  0  1  0  0  0
  -20.5858  -28.3663   23.1355 C   0  0  2  0  0  0
  -20.6760  -26.9404   22.5435 C   0  0  0  0  0  0
  -19.5724  -26.6406   21.5244 C   0  0  0  0  0  0
  -18.1910  -26.7957   22.1661 C   0  0  0  0  0  0
  -19.1521  -28.8850   23.2945 C   0  0  0  0  0  0
  -18.9446  -30.1464   23.8927 C   0  0  0  0  0  0
  -17.6432  -30.6595   24.0583 C   0  0  0  0  0  0
  -25.9009  -34.9491   23.5153 C   0  0  0  0  0  0
  -16.5339  -29.9104   23.6316 C   0  0  0  0  0  0
  -16.7266  -28.6517   23.0348 C   0  0  0  0  0  0
  -26.4444  -31.6598   25.0737 C   0  0  0  0  0  0
  -25.3694  -31.3635   26.1449 C   0  0  0  0  0  0
  -27.0329  -30.3071   24.6073 C   0  0  0  0  0  0
  -27.5979  -32.4354   25.7532 C   0  0  0  0  0  0
  -27.5582  -37.1832   24.8465 C   0  0  0  0  0  0
  -21.4111  -29.3043   22.3759 N   0  0  0  0  0  0
  -26.4312  -37.3805   23.9387 N   0  0  0  0  0  0
  -24.6586  -31.0855   22.1063 N   0  0  0  0  0  0
  -23.4176  -28.8216   23.3033 O   0  0  0  0  0  0
  -28.4065  -26.7740   20.0396 O   0  0  0  0  0  0
  -26.5585  -34.8936   22.4725 O   0  0  0  0  0  0
  -23.5282  -32.1514   23.7567 O   0  0  0  0  0  0
  -32.1832  -26.6933   19.1262 C   0  0  0  0  0  0
  -32.9054  -25.3515   17.2413 C   0  0  0  0  0  0
  -32.4089  -26.5837   17.7318 C   0  0  0  0  0  0
  -32.9549  -24.3972   19.4944 C   0  0  0  0  0  0
  -32.4501  -25.6201   19.9988 C   0  0  0  0  0  0
  -33.1686  -24.2722   18.1030 C   0  0  0  0  0  0
  -34.7586  -28.0201   16.3569 C   0  0  0  0  0  0
  -32.1701  -29.1380   17.5197 C   0  0  0  0  0  0
  -28.6011  -27.2341   15.3192 C   0  0  0  0  0  0
  -29.8803  -25.3419   16.2205 C   0  0  0  0  0  0
  -33.2777  -23.2291   20.4234 C   0  0  0  0  0  0
  -33.3476  -27.8782   15.7494 C   0  0  0  0  0  0
  -31.6959  -18.6672   21.8825 C   0  0  0  0  0  0
  -30.7645  -17.5071   21.5040 C   0  0  0  0  0  0
  -31.4517  -19.9104   21.0133 C   0  0  0  0  0  0
  -29.1149  -27.3024   17.7678 C   0  0  0  0  0  0
  -31.0915  -16.2178   22.2745 C   0  0  0  0  0  0
  -32.4949  -21.0196   21.2359 C   0  0  0  0  0  0
  -28.7714  -26.1926   18.7869 C   0  0  0  0  0  0
  -32.1697  -27.7735   16.7702 C   0  0  1  0  0  0
  -29.6802  -26.8746   16.3702 C   0  0  0  0  0  0
  -30.3727  -15.0708   21.7300 N   0  0  0  0  0  0
  -32.2391  -22.1817   20.3610 N   0  3  0  0  0  0
  -30.9094  -27.6437   15.9627 N   0  3  0  0  0  0
  -32.1308  -25.8411   21.6847 Cl  0  0  0  0  0  0
  -33.7282  -22.7860   17.4195 Cl  0  0  0  0  0  0
  -31.4513  -12.3848   19.0654 H   0  0  0  0  0  0
  -30.3243  -11.2534   19.7519 H   0  0  0  0  0  0
  -29.6914  -11.7836   17.3956 H   0  0  0  0  0  0
  -29.6456  -13.4915   17.7588 H   0  0  0  0  0  0
  -27.7954  -11.3153   18.7891 H   0  0  0  0  0  0
  -27.3432  -12.6684   17.7898 H   0  0  0  0  0  0
  -27.7290  -14.2497   19.6066 H   0  0  0  0  0  0
  -28.6642  -11.8883   21.3031 H   0  0  0  0  0  0
  -28.4536  -13.5095   21.8801 H   0  0  0  0  0  0
  -25.2750   -9.5708   22.4781 H   0  0  0  0  0  0
  -23.9999   -7.4659   22.7498 H   0  0  0  0  0  0
  -21.0868   -8.8769   19.8928 H   0  0  0  0  0  0
  -22.3708  -10.9684   19.6159 H   0  0  0  0  0  0
  -21.1993   -7.6154   23.9725 H   0  0  0  0  0  0
  -21.1463   -6.0522   25.9080 H   0  0  0  0  0  0
  -22.0611   -2.7623   23.2829 H   0  0  0  0  0  0
  -22.4095  -11.9854   22.4691 H   0  0  0  0  0  0
  -21.1131  -13.1281   22.2597 H   0  0  0  0  0  0
  -24.6835  -15.8530   20.5253 H   0  0  0  0  0  0
  -26.3037  -15.6182   20.1029 H   0  0  0  0  0  0
  -26.7062  -32.5611   23.1191 H   0  0  0  0  0  0
  -24.9895  -33.9815   25.0430 H   0  0  0  0  0  0
  -22.6796  -31.3138   21.4232 H   0  0  0  0  0  0
  -23.3746  -35.9674   23.3309 H   0  0  0  0  0  0
  -24.3514  -36.8974   22.2042 H   0  0  0  0  0  0
  -23.7247  -37.6549   23.6664 H   0  0  0  0  0  0
  -26.0182  -31.6025   20.5976 H   0  0  0  0  0  0
  -26.8123  -30.8997   21.9819 H   0  0  0  0  0  0
  -28.0878  -29.1084   21.1764 H   0  0  0  0  0  0
  -26.0276  -25.9958   19.0009 H   0  0  0  0  0  0
  -23.9670  -27.3212   19.0199 H   0  0  0  0  0  0
  -23.7165  -30.6200   19.4119 H   0  0  0  0  0  0
  -22.7265  -29.2627   19.8715 H   0  0  0  0  0  0
  -25.1282  -36.2000   25.0838 H   0  0  0  0  0  0
  -20.9937  -28.3247   24.1480 H   0  0  0  0  0  0
  -20.5694  -26.2268   23.3616 H   0  0  0  0  0  0
  -21.6629  -26.7476   22.1197 H   0  0  0  0  0  0
  -19.6851  -25.6326   21.1244 H   0  0  0  0  0  0
  -19.6653  -27.3250   20.6797 H   0  0  0  0  0  0
  -17.4173  -26.6762   21.4054 H   0  0  0  0  0  0
  -18.0260  -26.0093   22.9038 H   0  0  0  0  0  0
  -19.7899  -30.7310   24.2294 H   0  0  0  0  0  0
  -17.4976  -31.6259   24.5210 H   0  0  0  0  0  0
  -15.5332  -30.3001   23.7618 H   0  0  0  0  0  0
  -15.8683  -28.0856   22.7010 H   0  0  0  0  0  0
  -24.5881  -30.6997   25.7725 H   0  0  0  0  0  0
  -24.8848  -32.2769   26.4925 H   0  0  0  0  0  0
  -25.8027  -30.8752   27.0187 H   0  0  0  0  0  0
  -26.2909  -29.6805   24.1112 H   0  0  0  0  0  0
  -27.4142  -29.7301   25.4507 H   0  0  0  0  0  0
  -27.8698  -30.4450   23.9219 H   0  0  0  0  0  0
  -27.2548  -33.3656   26.2084 H   0  0  0  0  0  0
  -28.3800  -32.6930   25.0373 H   0  0  0  0  0  0
  -28.0621  -31.8498   26.5482 H   0  0  0  0  0  0
  -28.2583  -38.0140   24.7519 H   0  0  0  0  0  0
  -28.1122  -36.2674   24.6334 H   0  0  0  0  0  0
  -27.2266  -37.1504   25.8858 H   0  0  0  0  0  0
  -20.9240  -29.8839   21.7065 H   0  0  0  0  0  0
  -26.0217  -38.2896   24.1398 H   0  0  0  0  0  0
  -31.7990  -27.5999   19.5662 H   0  0  0  0  0  0
  -33.0740  -25.1999   16.1852 H   0  0  0  0  0  0
  -35.5185  -27.8922   15.5867 H   0  0  0  0  0  0
  -34.9567  -27.2743   17.1274 H   0  0  0  0  0  0
  -34.9104  -29.0058   16.7962 H   0  0  0  0  0  0
  -33.0648  -29.2447   18.1326 H   0  0  0  0  0  0
  -31.3349  -29.3016   18.1918 H   0  0  0  0  0  0
  -32.1659  -29.9789   16.8254 H   0  0  0  0  0  0
  -27.6650  -26.7081   15.5091 H   0  0  0  0  0  0
  -28.9143  -26.9752   14.3050 H   0  0  0  0  0  0
  -28.3627  -28.2987   15.3200 H   0  0  0  0  0  0
  -28.9236  -24.8215   16.1592 H   0  0  0  0  0  0
  -30.4048  -24.8792   17.0491 H   0  0  0  0  0  0
  -30.4267  -25.0938   15.3103 H   0  0  0  0  0  0
  -33.4041  -23.5609   21.4524 H   0  0  0  0  0  0
  -34.2446  -22.8108   20.1409 H   0  0  0  0  0  0
  -33.3566  -27.0151   15.0851 H   0  0  0  0  0  0
  -33.1816  -28.7273   15.0842 H   0  0  0  0  0  0
  -32.7305  -18.3411   21.7605 H   0  0  0  0  0  0
  -31.5698  -18.9175   22.9379 H   0  0  0  0  0  0
  -30.8542  -17.3233   20.4323 H   0  0  0  0  0  0
  -29.7265  -17.7906   21.6821 H   0  0  0  0  0  0
  -30.4502  -20.2965   21.2107 H   0  0  0  0  0  0
  -31.4692  -19.6148   19.9633 H   0  0  0  0  0  0
  -29.7911  -27.9718   18.2766 H   0  0  0  0  0  0
  -28.2267  -27.9186   17.6224 H   0  0  0  0  0  0
  -30.8335  -16.3252   23.3286 H   0  0  0  0  0  0
  -32.1648  -16.0177   22.2445 H   0  0  0  0  0  0
  -33.4942  -20.6297   21.0307 H   0  0  0  0  0  0
  -32.4865  -21.3376   22.2800 H   0  0  0  0  0  0
  -29.6497  -25.5835   18.9942 H   0  0  0  0  0  0
  -28.0171  -25.5069   18.4019 H   0  0  0  0  0  0
  -29.5315  -14.7711   22.2019 H   0  0  0  0  0  0
  -32.1911  -21.8590   19.4071 H   0  0  0  0  0  0
  -31.3487  -22.5858   20.6042 H   0  0  0  0  0  0
  -31.1982  -27.2418   15.0857 H   0  0  0  0  0  0
  -30.6167  -28.5814   15.7374 H   0  0  0  0  0  0
  1 25  1  0  0  0
  1 30  2  0  0  0
  1 92  1  0  0  0
  2  3  1  0  0  0
  2 25  1  0  0  0
  2 97  1  0  0  0
  2 98  1  0  0  0
  3  4  1  0  0  0
  3 99  1  0  0  0
  3100  1  0  0  0
  4  5  1  0  0  0
  4101  1  0  0  0
  4102  1  0  0  0
  5  6  1  0  0  0
  5 26  1  0  0  0
  5103  1  0  0  0
  6 25  1  0  0  0
  6104  1  0  0  0
  6105  1  0  0  0
  7  8  2  0  0  0
  7 26  1  0  0  0
  7 29  1  0  0  0
  8  9  1  0  0  0
  8 22  1  0  0  0
  9 10  1  0  0  0
  9 27  2  0  0  0
 10 11  2  0  0  0
 10 15  1  0  0  0
 11 12  1  0  0  0
 11106  1  0  0  0
 12 13  2  0  0  0
 12107  1  0  0  0
 13 14  1  0  0  0
 13 31  1  0  0  0
 14 15  2  0  0  0
 14108  1  0  0  0
 15109  1  0  0  0
 16 17  2  0  0  0
 16 21  1  0  0  0
 16 31  1  0  0  0
 17 18  1  0  0  0
 17110  1  0  0  0
 18 19  2  0  0  0
 18111  1  0  0  0
 19 20  1  0  0  0
 19 24  1  0  0  0
 20 21  2  0  0  0
 20112  1  0  0  0
 21 23  1  0  0  0
 22 28  1  0  0  0
 22 32  2  0  0  0
 26 27  1  0  0  0
 28113  1  0  0  0
 28114  1  0  0  0
 29115  1  0  0  0
 29116  1  0  0  0
 33 34  1  0  0  0
 33 66  1  0  0  0
 33 70  2  0  0  0
 34 36  1  0  0  0
 34 59  1  0  0  0
 34117  1  0  0  0
 35 44  2  0  0  0
 35 45  1  0  0  0
 35 68  1  0  0  0
 36 56  1  0  0  0
 36118  1  0  0  0
 37 39  1  0  0  0
 37 47  1  0  0  0
 37 66  1  0  0  0
 37119  1  0  0  0
 38 43  2  0  0  0
 38 46  1  0  0  0
 38 47  1  0  0  0
 39 64  1  0  0  0
 39 67  2  0  0  0
 40 52  1  0  0  0
 40 53  2  0  0  0
 40 58  1  0  0  0
 41120  1  0  0  0
 41121  1  0  0  0
 41122  1  0  0  0
 41 48  1  0  0  0
 42 43  1  0  0  0
 42 66  1  0  0  0
 42123  1  0  0  0
 42124  1  0  0  0
 43 44  1  0  0  0
 44125  1  0  0  0
 45 46  2  0  0  0
 45126  1  0  0  0
 46127  1  0  0  0
 47128  1  0  0  0
 47129  1  0  0  0
 48 56  1  0  0  0
 48 65  1  0  0  0
 48130  1  0  0  0
 49 50  1  0  0  0
 49 53  1  0  0  0
 49 64  1  0  0  0
 49131  1  0  0  0
 50 51  1  0  0  0
 50132  1  0  0  0
 50133  1  0  0  0
 51 52  1  0  0  0
 51134  1  0  0  0
 51135  1  0  0  0
 52136  1  0  0  0
 52137  1  0  0  0
 53 54  1  0  0  0
 54 55  2  0  0  0
 54138  1  0  0  0
 55 57  1  0  0  0
 55139  1  0  0  0
 56 69  2  0  0  0
 57 58  2  0  0  0
 57140  1  0  0  0
 58141  1  0  0  0
 59 60  1  0  0  0
 59 61  1  0  0  0
 59 62  1  0  0  0
 60142  1  0  0  0
 60143  1  0  0  0
 60144  1  0  0  0
 61145  1  0  0  0
 61146  1  0  0  0
 61147  1  0  0  0
 62148  1  0  0  0
 62149  1  0  0  0
 62150  1  0  0  0
 63 65  1  0  0  0
 63151  1  0  0  0
 63152  1  0  0  0
 63153  1  0  0  0
 64154  1  0  0  0
 65155  1  0  0  0
 68 89  1  0  0  0
 71 73  2  0  0  0
 71 75  1  0  0  0
 71156  1  0  0  0
 72 73  1  0  0  0
 72 76  2  0  0  0
 72157  1  0  0  0
 73 90  1  0  0  0
 74 75  2  0  0  0
 74 76  1  0  0  0
 74 81  1  0  0  0
 75 95  1  0  0  0
 76 96  1  0  0  0
 77 82  1  0  0  0
 77158  1  0  0  0
 77159  1  0  0  0
 77160  1  0  0  0
 78161  1  0  0  0
 78162  1  0  0  0
 78163  1  0  0  0
 78 90  1  0  0  0
 79164  1  0  0  0
 79165  1  0  0  0
 79166  1  0  0  0
 79 91  1  0  0  0
 80 91  1  0  0  0
 80167  1  0  0  0
 80168  1  0  0  0
 80169  1  0  0  0
 81 93  1  0  0  0
 81170  1  0  0  0
 81171  1  0  0  0
 82 90  1  0  0  0
 82172  1  0  0  0
 82173  1  0  0  0
 83 84  1  0  0  0
 83 85  1  0  0  0
 83174  1  0  0  0
 83175  1  0  0  0
 84 87  1  0  0  0
 84176  1  0  0  0
 84177  1  0  0  0
 85 88  1  0  0  0
 85178  1  0  0  0
 85179  1  0  0  0
 86 89  1  0  0  0
 86 91  1  0  0  0
 86180  1  0  0  0
 86181  1  0  0  0
 87 92  1  0  0  0
 87182  1  0  0  0
 87183  1  0  0  0
 88 93  1  0  0  0
 88184  1  0  0  0
 88185  1  0  0  0
 89186  1  0  0  0
 89187  1  0  0  0
 90 94  1  0  0  0
 91 94  1  0  0  0
 92188  1  0  0  0
 93189  1  0  0  0
 93190  1  0  0  0
 94191  1  0  0  0
 94192  1  0  0  0
M  CHG  2  93   1  94   1
M  ISO  4   1 100  68 101  89 101  92 100
M  END
> <chiral flag>
0

> <version>
0

> <s_m_source_file>
/data/baiqing/PycharmProjects/Reinvent-master-3.2/result/LINK_invent/BTK/process_docking_weight1_custom_sum_contain_oxygen_bond_distance_aromatic_linkinvent_7_9_3/rearranged_h_0022.sdf

> <i_m_source_file_index>
46

> <r_mmod_Potential_Energy-OPLS-2005>
-375.341766357422

> <r_mmod_Stretch_Energy-OPLS-2005>
42.1728019714355

> <r_mmod_Bend_Energy-OPLS-2005>
134.769195556641

> <r_mmod_Torsional_Energy-OPLS-2005>
222.723236083984

> <r_mmod_Improper_Torsional_Energy-OPLS-2005>
1.90898013114929

> <r_mmod_Van_der_Waal_Energy-OPLS-2005>
173.204574584961

> <r_mmod_Electrostatic_Energy-OPLS-2005>
-74.0997848510742

> <r_mmod_Solvation_Energy-OPLS-2005>
-883.365417480469

> <b_mmod_Minimization_Converged-OPLS-2005>
0

> <r_mmod_RMS_Derivative-OPLS-2005>
3.01815915107727

$$$$
46
                    3D
 Structure written by MMmdl.
170178  0  0  1  0            999 V2000
  -29.8155  -14.7030   20.4170 C   0  0  0  0  0  0
  -30.4571  -12.5162   19.3663 C   0  0  0  0  0  0
  -29.4964  -12.4458   18.1538 C   0  0  0  0  0  0
  -28.0734  -12.0085   18.5807 C   0  0  0  0  0  0
  -27.6574  -12.7520   19.8431 C   0  0  2  0  0  0
  -28.7164  -12.6282   20.9549 C   0  0  0  0  0  0
  -25.7025  -13.2336   21.2750 C   0  0  0  0  0  0
  -24.4319  -13.0970   20.9395 C   0  0  0  0  0  0
  -24.5315  -11.6664   20.7587 C   0  0  0  0  0  0
  -23.7461  -10.4684   20.9951 C   0  0  0  0  0  0
  -24.2662   -9.4646   21.8542 C   0  0  0  0  0  0
  -23.5892   -8.2431   22.0246 C   0  0  0  0  0  0
  -22.3767   -8.0265   21.3308 C   0  0  0  0  0  0
  -21.8698   -9.0283   20.4844 C   0  0  0  0  0  0
  -22.5495  -10.2418   20.3094 C   0  0  0  0  0  0
  -21.6880   -6.0718   22.5157 C   0  0  0  0  0  0
  -21.4074   -6.5664   23.8108 C   0  0  0  0  0  0
  -21.3801   -5.6836   24.9061 C   0  0  0  0  0  0
  -21.6116   -4.3078   24.7129 C   0  0  0  0  0  0
  -21.8816   -3.8154   23.4252 C   0  0  0  0  0  0
  -21.9198   -4.6942   22.3313 C   0  0  0  0  0  0
  -23.3474  -14.1971   20.9360 C   0  0  0  0  0  0
  -22.1621   -4.2117   21.0891 F   0  0  0  0  0  0
  -21.5690   -3.4613   25.7665 F   0  0  0  0  0  0
  -29.8015  -13.3443   20.3897 N   0  0  0  0  0  0
  -26.3639  -12.5341   20.3557 N   0  0  0  0  0  0
  -25.7429  -11.3794   20.2945 N   0  0  0  0  0  0
  -23.3819  -16.2596   20.3661 N   0  0  0  0  0  0
  -26.3916  -14.0531   22.1015 N   0  0  0  0  0  0
  -30.9535  -15.1981   20.2121 O   0  0  0  0  0  0
  -21.6515   -6.8675   21.4026 O   0  0  0  0  0  0
  -22.3386  -13.5275   21.1762 O   0  0  0  0  0  0
  -24.6324  -31.8623   23.2072 C   0  0  0  0  0  0
  -25.9184  -32.4770   23.8384 C   0  0  1  0  0  0
  -27.0469  -27.2277   20.1547 C   0  0  0  0  0  0
  -25.6000  -33.8576   24.2303 N   0  0  0  0  0  0
  -23.4170  -30.5027   21.5573 C   0  0  2  0  0  0
  -24.8338  -28.9804   20.0892 C   0  0  0  0  0  0
  -22.7504  -29.4652   22.4910 C   0  0  0  0  0  0
  -18.0280  -28.1388   22.8482 C   0  0  0  0  0  0
  -24.1485  -36.7275   23.2638 C   0  0  0  0  0  0
  -25.9712  -30.7647   21.3928 C   0  0  0  0  0  0
  -26.0130  -29.3966   20.7230 C   0  0  0  0  0  0
  -27.1457  -28.5252   20.7526 C   0  0  0  0  0  0
  -25.8960  -26.9193   19.4212 C   0  0  0  0  0  0
  -24.7803  -27.7548   19.4220 C   0  0  0  0  0  0
  -23.6217  -29.8763   20.1573 C   0  0  0  0  0  0
  -25.4111  -36.3086   24.0334 C   0  0  1  0  0  0
  -20.5898  -28.3696   23.1265 C   0  0  2  0  0  0
  -20.6784  -26.9409   22.5396 C   0  0  0  0  0  0
  -19.5751  -26.6366   21.5218 C   0  0  0  0  0  0
  -18.1929  -26.7923   22.1631 C   0  0  0  0  0  0
  -19.1539  -28.8853   23.2871 C   0  0  0  0  0  0
  -18.9465  -30.1457   23.8879 C   0  0  0  0  0  0
  -17.6469  -30.6590   24.0548 C   0  0  0  0  0  0
  -25.9056  -34.9455   23.5107 C   0  0  0  0  0  0
  -16.5352  -29.9081   23.6347 C   0  0  0  0  0  0
  -16.7270  -28.6501   23.0362 C   0  0  0  0  0  0
  -26.4516  -31.6607   25.0790 C   0  0  0  0  0  0
  -25.3715  -31.3788   26.1493 C   0  0  0  0  0  0
  -27.0373  -30.3019   24.6334 C   0  0  0  0  0  0
  -27.6083  -32.4345   25.7535 C   0  0  0  0  0  0
  -27.5589  -37.1792   24.8466 C   0  0  0  0  0  0
  -21.4214  -29.3049   22.3664 N   0  0  0  0  0  0
  -26.4291  -37.3795   23.9417 N   0  0  0  0  0  0
  -24.6944  -31.0635   22.1054 N   0  0  0  0  0  0
  -23.4234  -28.8145   23.2956 O   0  0  0  0  0  0
  -27.9051  -26.1495   20.3482 O   0  0  0  0  0  0
  -26.5617  -34.8935   22.4667 O   0  0  0  0  0  0
  -23.5498  -32.1460   23.7392 O   0  0  0  0  0  0
  -22.1003  -15.0704   19.0685 C   0  0  0  0  0  0
  -24.1517  -14.9688   18.7854 C   0  0  0  0  0  0
  -25.4298  -15.5341   20.2989 C   0  0  0  0  0  0
  -21.3596  -15.7112   20.9014 C   0  0  0  0  0  0
  -24.5568  -15.9358   22.1578 C   0  0  0  0  0  0
  -24.7190  -14.6032   17.4434 C   0  0  0  0  0  0
  -27.1136  -15.8431   20.0304 C   0  0  0  0  0  0
  -20.7717  -17.1874   20.7168 C   0  0  0  0  0  0
  -21.6000  -18.5387   21.2044 C   0  0  0  0  0  0
  -22.8097  -19.3453   20.4468 C   0  0  0  0  0  0
  -23.6139  -20.5430   21.2035 C   0  0  0  0  0  0
  -24.6376  -21.5158   20.4012 C   0  0  0  0  0  0
  -25.5024  -22.6735   21.1470 C   0  0  0  0  0  0
  -26.4595  -23.6963   20.3076 C   0  0  0  0  0  0
  -27.2368  -24.9547   21.0261 C   0  0  0  0  0  0
  -22.6120  -15.9705   22.3977 N   0  0  0  0  0  0
  -28.5446  -15.3757   20.7235 N   0  0  0  0  0  0
  -25.4884  -16.5654   23.4803 Cl  0  0  0  0  0  0
  -31.4100  -12.9594   19.0844 H   0  0  0  0  0  0
  -30.6737  -11.5213   19.7526 H   0  0  0  0  0  0
  -29.8815  -11.7617   17.3977 H   0  0  0  0  0  0
  -29.4424  -13.4280   17.6864 H   0  0  0  0  0  0
  -28.0871  -10.9383   18.7845 H   0  0  0  0  0  0
  -27.3463  -12.1657   17.7820 H   0  0  0  0  0  0
  -27.5590  -13.6927   19.3505 H   0  0  0  0  0  0
  -28.9652  -11.5807   21.1372 H   0  0  0  0  0  0
  -28.5117  -13.0074   21.9480 H   0  0  0  0  0  0
  -25.2025   -9.6325   22.3663 H   0  0  0  0  0  0
  -24.0012   -7.4918   22.6811 H   0  0  0  0  0  0
  -20.9351   -8.8707   19.9624 H   0  0  0  0  0  0
  -22.1420  -10.9999   19.6563 H   0  0  0  0  0  0
  -21.2060   -7.6192   23.9566 H   0  0  0  0  0  0
  -21.1724   -6.0579   25.8989 H   0  0  0  0  0  0
  -22.0511   -2.7624   23.2700 H   0  0  0  0  0  0
  -24.3286  -16.4810   20.0645 H   0  0  0  0  0  0
  -22.5833  -16.6497   19.8906 H   0  0  0  0  0  0
  -26.0892  -14.3114   23.0313 H   0  0  0  0  0  0
  -27.3727  -14.2337   21.9365 H   0  0  0  0  0  0
  -26.7234  -32.5373   23.1101 H   0  0  0  0  0  0
  -25.0184  -33.9703   25.0469 H   0  0  0  0  0  0
  -22.7127  -31.3282   21.4348 H   0  0  0  0  0  0
  -23.3780  -35.9575   23.3286 H   0  0  0  0  0  0
  -24.3577  -36.8912   22.2057 H   0  0  0  0  0  0
  -23.7192  -37.6457   23.6654 H   0  0  0  0  0  0
  -26.1353  -31.5313   20.6338 H   0  0  0  0  0  0
  -26.8444  -30.7856   22.0335 H   0  0  0  0  0  0
  -28.0273  -28.7963   21.3152 H   0  0  0  0  0  0
  -25.8111  -25.9850   18.8918 H   0  0  0  0  0  0
  -23.8792  -27.4356   18.9195 H   0  0  0  0  0  0
  -23.7589  -30.6697   19.4226 H   0  0  0  0  0  0
  -22.7281  -29.3337   19.8376 H   0  0  0  0  0  0
  -25.1283  -36.1951   25.0831 H   0  0  0  0  0  0
  -20.9976  -28.3264   24.1399 H   0  0  0  0  0  0
  -20.5728  -26.2295   23.3601 H   0  0  0  0  0  0
  -21.6644  -26.7461   22.1159 H   0  0  0  0  0  0
  -19.6910  -25.6273   21.1264 H   0  0  0  0  0  0
  -19.6679  -27.3166   20.6746 H   0  0  0  0  0  0
  -17.4196  -26.6669   21.4036 H   0  0  0  0  0  0
  -18.0323  -26.0070   22.9036 H   0  0  0  0  0  0
  -19.7931  -30.7282   24.2242 H   0  0  0  0  0  0
  -17.5011  -31.6269   24.5145 H   0  0  0  0  0  0
  -15.5346  -30.2973   23.7682 H   0  0  0  0  0  0
  -15.8671  -28.0804   22.7105 H   0  0  0  0  0  0
  -24.5796  -30.7273   25.7779 H   0  0  0  0  0  0
  -24.9014  -32.2983   26.5000 H   0  0  0  0  0  0
  -25.7968  -30.8842   27.0230 H   0  0  0  0  0  0
  -26.2996  -29.6742   24.1330 H   0  0  0  0  0  0
  -27.3996  -29.7326   25.4903 H   0  0  0  0  0  0
  -27.8896  -30.4285   23.9653 H   0  0  0  0  0  0
  -27.2710  -33.3634   26.2144 H   0  0  0  0  0  0
  -28.3860  -32.6930   25.0334 H   0  0  0  0  0  0
  -28.0794  -31.8460   26.5421 H   0  0  0  0  0  0
  -28.2594  -38.0112   24.7580 H   0  0  0  0  0  0
  -28.1115  -36.2655   24.6211 H   0  0  0  0  0  0
  -27.2320  -37.1337   25.8876 H   0  0  0  0  0  0
  -20.9393  -29.8820   21.6904 H   0  0  0  0  0  0
  -26.0183  -38.2873   24.1444 H   0  0  0  0  0  0
  -21.4446  -14.9928   18.2127 H   0  0  0  0  0  0
  -25.1718  -15.4978   17.0268 H   0  0  0  0  0  0
  -23.9389  -14.2580   16.7688 H   0  0  0  0  0  0
  -25.4740  -13.8174   17.5362 H   0  0  0  0  0  0
  -27.1423  -16.9173   20.2435 H   0  0  0  0  0  0
  -27.2646  -15.8066   18.9539 H   0  0  0  0  0  0
  -19.7955  -17.2015   21.1979 H   0  0  0  0  0  0
  -20.5676  -17.3027   19.6541 H   0  0  0  0  0  0
  -21.8702  -18.4163   22.2534 H   0  0  0  0  0  0
  -20.8225  -19.3001   21.2377 H   0  0  0  0  0  0
  -22.4055  -19.7512   19.5170 H   0  0  0  0  0  0
  -23.5869  -18.6578   20.1303 H   0  0  0  0  0  0
  -24.1746  -20.0724   22.0144 H   0  0  0  0  0  0
  -22.8861  -21.1723   21.7158 H   0  0  0  0  0  0
  -24.0524  -21.9937   19.6190 H   0  0  0  0  0  0
  -25.3374  -20.8709   19.8692 H   0  0  0  0  0  0
  -26.1214  -22.1833   21.9004 H   0  0  0  0  0  0
  -24.7963  -23.2775   21.7177 H   0  0  0  0  0  0
  -25.8397  -24.0540   19.4937 H   0  0  0  0  0  0
  -27.2205  -23.0893   19.8118 H   0  0  0  0  0  0
  -28.0303  -24.5056   21.6257 H   0  0  0  0  0  0
  -26.5523  -25.3546   21.7759 H   0  0  0  0  0  0
  -28.8018  -16.1308   21.3408 H   0  0  0  0  0  0
  1 25  1  0  0  0
  1 30  2  0  0  0
  1 87  1  0  0  0
  2  3  1  0  0  0
  2 25  1  0  0  0
  2 89  1  0  0  0
  2 90  1  0  0  0
  3  4  1  0  0  0
  3 91  1  0  0  0
  3 92  1  0  0  0
  4  5  1  0  0  0
  4 93  1  0  0  0
  4 94  1  0  0  0
  5  6  1  0  0  0
  5 26  1  0  0  0
  5 95  1  0  0  0
  6 25  1  0  0  0
  6 96  1  0  0  0
  6 97  1  0  0  0
  7  8  2  0  0  0
  7 26  1  0  0  0
  7 29  1  0  0  0
  8  9  1  0  0  0
  8 22  1  0  0  0
  9 10  1  0  0  0
  9 27  2  0  0  0
 10 11  2  0  0  0
 10 15  1  0  0  0
 11 12  1  0  0  0
 11 98  1  0  0  0
 12 13  2  0  0  0
 12 99  1  0  0  0
 13 14  1  0  0  0
 13 31  1  0  0  0
 14 15  2  0  0  0
 14100  1  0  0  0
 15101  1  0  0  0
 16 17  2  0  0  0
 16 21  1  0  0  0
 16 31  1  0  0  0
 17 18  1  0  0  0
 17102  1  0  0  0
 18 19  2  0  0  0
 18103  1  0  0  0
 19 20  1  0  0  0
 19 24  1  0  0  0
 20 21  2  0  0  0
 20104  1  0  0  0
 21 23  1  0  0  0
 22 28  1  0  0  0
 22 32  2  0  0  0
 26 27  1  0  0  0
 28105  1  0  0  0
 28106  1  0  0  0
 29107  1  0  0  0
 29108  1  0  0  0
 33 34  1  0  0  0
 33 66  1  0  0  0
 33 70  2  0  0  0
 34 36  1  0  0  0
 34 59  1  0  0  0
 34109  1  0  0  0
 35 44  2  0  0  0
 35 45  1  0  0  0
 35 68  1  0  0  0
 36 56  1  0  0  0
 36110  1  0  0  0
 37 39  1  0  0  0
 37 47  1  0  0  0
 37 66  1  0  0  0
 37111  1  0  0  0
 38 43  2  0  0  0
 38 46  1  0  0  0
 38 47  1  0  0  0
 39 64  1  0  0  0
 39 67  2  0  0  0
 40 52  1  0  0  0
 40 53  2  0  0  0
 40 58  1  0  0  0
 41112  1  0  0  0
 41113  1  0  0  0
 41114  1  0  0  0
 41 48  1  0  0  0
 42 43  1  0  0  0
 42 66  1  0  0  0
 42115  1  0  0  0
 42116  1  0  0  0
 43 44  1  0  0  0
 44117  1  0  0  0
 45 46  2  0  0  0
 45118  1  0  0  0
 46119  1  0  0  0
 47120  1  0  0  0
 47121  1  0  0  0
 48 56  1  0  0  0
 48 65  1  0  0  0
 48122  1  0  0  0
 49 50  1  0  0  0
 49 53  1  0  0  0
 49 64  1  0  0  0
 49123  1  0  0  0
 50 51  1  0  0  0
 50124  1  0  0  0
 50125  1  0  0  0
 51 52  1  0  0  0
 51126  1  0  0  0
 51127  1  0  0  0
 52128  1  0  0  0
 52129  1  0  0  0
 53 54  1  0  0  0
 54 55  2  0  0  0
 54130  1  0  0  0
 55 57  1  0  0  0
 55131  1  0  0  0
 56 69  2  0  0  0
 57 58  2  0  0  0
 57132  1  0  0  0
 58133  1  0  0  0
 59 60  1  0  0  0
 59 61  1  0  0  0
 59 62  1  0  0  0
 60134  1  0  0  0
 60135  1  0  0  0
 60136  1  0  0  0
 61137  1  0  0  0
 61138  1  0  0  0
 61139  1  0  0  0
 62140  1  0  0  0
 62141  1  0  0  0
 62142  1  0  0  0
 63 65  1  0  0  0
 63143  1  0  0  0
 63144  1  0  0  0
 63145  1  0  0  0
 64146  1  0  0  0
 65147  1  0  0  0
 68 85  1  0  0  0
 71 72  2  0  0  0
 71 74  1  0  0  0
 71148  1  0  0  0
 72 73  1  0  0  0
 72 76  1  0  0  0
 73 75  2  0  0  0
 73 77  1  0  0  0
 74 78  1  0  0  0
 74 86  2  0  0  0
 75 86  1  0  0  0
 75 88  1  0  0  0
 76149  1  0  0  0
 76150  1  0  0  0
 76151  1  0  0  0
 77 87  1  0  0  0
 77152  1  0  0  0
 77153  1  0  0  0
 78 79  1  0  0  0
 78154  1  0  0  0
 78155  1  0  0  0
 79 80  1  0  0  0
 79156  1  0  0  0
 79157  1  0  0  0
 80 81  1  0  0  0
 80158  1  0  0  0
 80159  1  0  0  0
 81 82  1  0  0  0
 81160  1  0  0  0
 81161  1  0  0  0
 82 83  1  0  0  0
 82162  1  0  0  0
 82163  1  0  0  0
 83 84  1  0  0  0
 83164  1  0  0  0
 83165  1  0  0  0
 84 85  1  0  0  0
 84166  1  0  0  0
 84167  1  0  0  0
 85168  1  0  0  0
 85169  1  0  0  0
 87170  1  0  0  0
M  ISO  4   1 100  68 101  85 101  87 100
M  END
> <chiral flag>
0

> <version>
0

> <s_m_source_file>
/data/baiqing/PycharmProjects/Reinvent-master-3.2/result/LINK_invent/BTK/process_docking_weight1_custom_sum_contain_oxygen_bond_distance_aromatic_linkinvent_7_9_3/rearranged_h_0022.sdf

> <i_m_source_file_index>
47

> <r_mmod_Potential_Energy-OPLS-2005>
13716.7294921875

> <r_mmod_Stretch_Energy-OPLS-2005>
6839.58154296875

> <r_mmod_Bend_Energy-OPLS-2005>
538.791442871094

> <r_mmod_Torsional_Energy-OPLS-2005>
552.578308105469

> <r_mmod_Improper_Torsional_Energy-OPLS-2005>
49.0463638305664

> <r_mmod_Van_der_Waal_Energy-OPLS-2005>
3486.12329101562

> <r_mmod_Electrostatic_Energy-OPLS-2005>
-431.886322021484

> <r_mmod_Solvation_Energy-OPLS-2005>
-218.745040893555

> <b_mmod_Minimization_Converged-OPLS-2005>
0

> <r_mmod_RMS_Derivative-OPLS-2005>
15.3942518234253

$$$$
47
                    3D
 Structure written by MMmdl.
173182  0  0  1  0            999 V2000
  -30.6172  -14.6663   20.2441 C   0  0  0  0  0  0
  -30.4384  -12.3292   19.4633 C   0  0  0  0  0  0
  -29.5298  -12.3512   18.2184 C   0  0  0  0  0  0
  -28.0315  -12.3125   18.6051 C   0  0  0  0  0  0
  -27.6470  -13.2088   19.8230 C   0  0  2  0  0  0
  -28.7087  -13.1562   20.9402 C   0  0  0  0  0  0
  -25.2548  -13.8104   20.5624 C   0  0  0  0  0  0
  -24.1855  -13.0382   20.9270 C   0  0  0  0  0  0
  -24.6489  -11.6879   20.8818 C   0  0  0  0  0  0
  -23.9144  -10.4269   21.0498 C   0  0  0  0  0  0
  -24.3682   -9.4135   21.9242 C   0  0  0  0  0  0
  -23.6305   -8.2205   22.0784 C   0  0  0  0  0  0
  -22.4266   -8.0296   21.3604 C   0  0  0  0  0  0
  -21.9951   -9.0274   20.4681 C   0  0  0  0  0  0
  -22.7342  -10.2131   20.3103 C   0  0  0  0  0  0
  -21.6801   -6.0746   22.5311 C   0  0  0  0  0  0
  -21.3986   -6.5640   23.8249 C   0  0  0  0  0  0
  -21.3667   -5.6814   24.9211 C   0  0  0  0  0  0
  -21.6036   -4.3070   24.7271 C   0  0  0  0  0  0
  -21.8786   -3.8163   23.4382 C   0  0  0  0  0  0
  -21.9183   -4.6977   22.3443 C   0  0  0  0  0  0
  -22.7895  -13.5146   21.1975 C   0  0  0  0  0  0
  -22.1637   -4.2159   21.1014 F   0  0  0  0  0  0
  -21.5659   -3.4553   25.7780 F   0  0  0  0  0  0
  -30.0104  -13.4415   20.3287 N   0  0  0  0  0  0
  -26.3000  -12.9308   20.3193 N   0  0  0  0  0  0
  -25.9392  -11.6483   20.5748 N   0  0  0  0  0  0
  -22.0507  -12.8123   22.0492 N   0  0  0  0  0  0
  -25.3931  -15.1863   20.3953 N   0  0  0  0  0  0
  -31.8342  -14.7583   20.0825 O   0  0  0  0  0  0
  -21.6603   -6.8906   21.4280 O   0  0  0  0  0  0
  -22.3597  -14.5474   20.6803 O   0  0  0  0  0  0
  -24.6264  -31.8564   23.2060 C   0  0  0  0  0  0
  -25.9119  -32.4755   23.8352 C   0  0  1  0  0  0
  -27.2287  -27.3249   20.1066 C   0  0  0  0  0  0
  -25.5912  -33.8558   24.2264 N   0  0  0  0  0  0
  -23.4207  -30.4845   21.5431 C   0  0  2  0  0  0
  -24.8663  -28.9463   20.1090 C   0  0  0  0  0  0
  -22.7476  -29.4626   22.4913 C   0  0  0  0  0  0
  -18.0288  -28.1360   22.8478 C   0  0  0  0  0  0
  -24.1499  -36.7312   23.2644 C   0  0  0  0  0  0
  -25.9626  -30.7902   21.3784 C   0  0  0  0  0  0
  -26.0341  -29.4195   20.7187 C   0  0  0  0  0  0
  -27.2107  -28.6164   20.7168 C   0  0  0  0  0  0
  -26.0413  -26.9187   19.4468 C   0  0  0  0  0  0
  -24.8740  -27.6998   19.4636 C   0  0  0  0  0  0
  -23.6335  -29.8237   20.1577 C   0  0  0  0  0  0
  -25.4116  -36.3058   24.0329 C   0  0  1  0  0  0
  -20.5884  -28.3677   23.1256 C   0  0  2  0  0  0
  -20.6761  -26.9395   22.5380 C   0  0  0  0  0  0
  -19.5752  -26.6366   21.5173 C   0  0  0  0  0  0
  -18.1943  -26.7897   22.1602 C   0  0  0  0  0  0
  -19.1538  -28.8841   23.2857 C   0  0  0  0  0  0
  -18.9457  -30.1436   23.8879 C   0  0  0  0  0  0
  -17.6459  -30.6554   24.0563 C   0  0  0  0  0  0
  -25.9060  -34.9438   23.5094 C   0  0  0  0  0  0
  -16.5353  -29.9056   23.6323 C   0  0  0  0  0  0
  -16.7278  -28.6472   23.0354 C   0  0  0  0  0  0
  -26.4518  -31.6568   25.0721 C   0  0  0  0  0  0
  -25.3773  -31.3694   26.1460 C   0  0  0  0  0  0
  -27.0360  -30.2975   24.6203 C   0  0  0  0  0  0
  -27.6062  -32.4332   25.7492 C   0  0  0  0  0  0
  -27.5573  -37.1810   24.8463 C   0  0  0  0  0  0
  -21.4185  -29.3038   22.3654 N   0  0  0  0  0  0
  -26.4282  -37.3759   23.9418 N   0  0  0  0  0  0
  -24.6875  -31.0589   22.0985 N   0  0  0  0  0  0
  -23.4194  -28.8162   23.2996 O   0  0  0  0  0  0
  -28.3610  -26.4938   20.1877 O   0  0  0  0  0  0
  -26.5618  -34.8897   22.4659 O   0  0  0  0  0  0
  -23.5436  -32.1354   23.7402 O   0  0  0  0  0  0
  -30.2742  -18.1172   19.0447 C   0  0  0  0  0  0
  -30.6340  -18.7507   17.8337 C   0  0  0  0  0  0
  -29.4632  -17.0597   16.5642 C   0  0  0  0  0  0
  -29.8554  -16.7274   18.9962 C   0  0  0  0  0  0
  -30.1865  -18.2554   16.5987 C   0  0  0  0  0  0
  -29.3427  -16.2907   17.7407 C   0  0  0  0  0  0
  -30.0978  -21.6882   19.3017 C   0  0  0  0  0  0
  -30.0053  -23.0585   19.5604 C   0  0  0  0  0  0
  -30.2345  -19.0736   20.2663 C   0  0  0  0  0  0
  -31.4932  -19.9957   17.8612 C   0  0  0  0  0  0
  -29.4506  -20.4669   20.0607 C   0  0  0  0  0  0
  -30.6945  -21.2832   17.9374 C   0  0  0  0  0  0
  -28.7967  -16.6241   15.2710 C   0  0  0  0  0  0
  -30.8963  -24.0103   18.7510 C   0  0  0  0  0  0
  -27.9969  -23.0450   21.2021 C   0  0  0  0  0  0
  -29.9398  -24.5240   21.6487 C   0  0  0  0  0  0
  -28.3095  -25.0882   19.7231 C   0  0  0  0  0  0
  -29.0810  -23.9123   20.5179 C   0  0  0  0  0  0
  -29.7951  -15.7641   20.1017 N   0  0  0  0  0  0
  -30.3826  -18.9686   15.4617 F   0  0  0  0  0  0
  -28.6388  -15.1446   17.6657 F   0  0  0  0  0  0
  -31.4871  -12.3943   19.1675 H   0  0  0  0  0  0
  -30.3473  -11.3773   19.9913 H   0  0  0  0  0  0
  -29.7587  -11.4846   17.5948 H   0  0  0  0  0  0
  -29.7692  -13.2140   17.6004 H   0  0  0  0  0  0
  -27.8118  -11.2727   18.8366 H   0  0  0  0  0  0
  -27.4196  -12.5544   17.7347 H   0  0  0  0  0  0
  -27.6218  -14.2316   19.4673 H   0  0  0  0  0  0
  -28.7168  -12.1824   21.4348 H   0  0  0  0  0  0
  -28.4901  -13.9051   21.7035 H   0  0  0  0  0  0
  -25.2831   -9.5516   22.4845 H   0  0  0  0  0  0
  -23.9977   -7.4529   22.7447 H   0  0  0  0  0  0
  -21.0914   -8.8834   19.8939 H   0  0  0  0  0  0
  -22.3864  -10.9703   19.6218 H   0  0  0  0  0  0
  -21.1910   -7.6149   23.9754 H   0  0  0  0  0  0
  -21.1545   -6.0557   25.9133 H   0  0  0  0  0  0
  -22.0547   -2.7631   23.2899 H   0  0  0  0  0  0
  -22.4108  -11.9740   22.4852 H   0  0  0  0  0  0
  -21.1107  -13.1105   22.2677 H   0  0  0  0  0  0
  -24.5679  -15.7726   20.4518 H   0  0  0  0  0  0
  -26.1709  -15.6505   19.9507 H   0  0  0  0  0  0
  -26.7195  -32.5433   23.1101 H   0  0  0  0  0  0
  -25.0073  -33.9685   25.0415 H   0  0  0  0  0  0
  -22.7140  -31.3062   21.4017 H   0  0  0  0  0  0
  -23.3706  -35.9695   23.3315 H   0  0  0  0  0  0
  -24.3585  -36.8921   22.2054 H   0  0  0  0  0  0
  -23.7301  -37.6545   23.6656 H   0  0  0  0  0  0
  -26.1076  -31.5600   20.6201 H   0  0  0  0  0  0
  -26.8361  -30.8248   22.0182 H   0  0  0  0  0  0
  -28.1065  -28.9766   21.2022 H   0  0  0  0  0  0
  -25.9680  -25.9970   18.8904 H   0  0  0  0  0  0
  -23.9837  -27.3416   18.9629 H   0  0  0  0  0  0
  -23.7525  -30.5998   19.3981 H   0  0  0  0  0  0
  -22.7549  -29.2531   19.8552 H   0  0  0  0  0  0
  -25.1300  -36.1897   25.0811 H   0  0  0  0  0  0
  -20.9996  -28.3234   24.1377 H   0  0  0  0  0  0
  -20.5617  -26.2313   23.3591 H   0  0  0  0  0  0
  -21.6640  -26.7387   22.1222 H   0  0  0  0  0  0
  -19.6913  -25.6278   21.1231 H   0  0  0  0  0  0
  -19.6667  -27.3153   20.6687 H   0  0  0  0  0  0
  -17.4196  -26.6633   21.4018 H   0  0  0  0  0  0
  -18.0344  -26.0019   22.8988 H   0  0  0  0  0  0
  -19.7938  -30.7241   24.2257 H   0  0  0  0  0  0
  -17.5018  -31.6251   24.5142 H   0  0  0  0  0  0
  -15.5362  -30.2965   23.7638 H   0  0  0  0  0  0
  -15.8675  -28.0786   22.7089 H   0  0  0  0  0  0
  -24.5946  -30.7030   25.7806 H   0  0  0  0  0  0
  -24.8983  -32.2858   26.4919 H   0  0  0  0  0  0
  -25.8133  -30.8857   27.0208 H   0  0  0  0  0  0
  -26.2908  -29.6714   24.1263 H   0  0  0  0  0  0
  -27.4058  -29.7256   25.4729 H   0  0  0  0  0  0
  -27.8806  -30.4253   23.9425 H   0  0  0  0  0  0
  -27.2628  -33.3628   26.2061 H   0  0  0  0  0  0
  -28.3861  -32.6904   25.0305 H   0  0  0  0  0  0
  -28.0735  -31.8463   26.5412 H   0  0  0  0  0  0
  -28.2594  -38.0110   24.7455 H   0  0  0  0  0  0
  -28.1048  -36.2611   24.6320 H   0  0  0  0  0  0
  -27.2284  -37.1517   25.8871 H   0  0  0  0  0  0
  -20.9352  -29.8819   21.6913 H   0  0  0  0  0  0
  -26.0143  -38.2835   24.1352 H   0  0  0  0  0  0
  -31.2390  -19.2408   20.6518 H   0  0  0  0  0  0
  -29.7105  -18.5247   21.0465 H   0  0  0  0  0  0
  -32.0587  -20.0118   16.9290 H   0  0  0  0  0  0
  -32.2563  -19.9492   18.6365 H   0  0  0  0  0  0
  -28.4627  -20.2665   19.6417 H   0  0  0  0  0  0
  -29.2779  -20.7993   21.0761 H   0  0  0  0  0  0
  -31.4053  -22.0093   17.5506 H   0  0  0  0  0  0
  -29.8873  -21.2681   17.2012 H   0  0  0  0  0  0
  -29.2875  -17.0341   14.3864 H   0  0  0  0  0  0
  -27.7718  -16.9930   15.2702 H   0  0  0  0  0  0
  -28.7793  -15.5403   15.1765 H   0  0  0  0  0  0
  -30.5965  -24.0593   17.7040 H   0  0  0  0  0  0
  -31.9294  -23.6710   18.8040 H   0  0  0  0  0  0
  -30.9129  -25.0335   19.1218 H   0  0  0  0  0  0
  -28.4022  -22.4393   22.0116 H   0  0  0  0  0  0
  -27.4859  -22.3978   20.4873 H   0  0  0  0  0  0
  -27.2298  -23.6654   21.6686 H   0  0  0  0  0  0
  -30.5288  -23.7621   22.1619 H   0  0  0  0  0  0
  -29.3133  -25.0080   22.3989 H   0  0  0  0  0  0
  -30.6310  -25.2841   21.2913 H   0  0  0  0  0  0
  -27.2890  -24.7333   19.6527 H   0  0  0  0  0  0
  -28.6155  -25.1234   18.6772 H   0  0  0  0  0  0
  -28.8511  -15.4912   20.3157 H   0  0  0  0  0  0
  1 25  1  0  0  0
  1 30  2  0  0  0
  1 89  1  0  0  0
  2  3  1  0  0  0
  2 25  1  0  0  0
  2 92  1  0  0  0
  2 93  1  0  0  0
  3  4  1  0  0  0
  3 94  1  0  0  0
  3 95  1  0  0  0
  4  5  1  0  0  0
  4 96  1  0  0  0
  4 97  1  0  0  0
  5  6  1  0  0  0
  5 26  1  0  0  0
  5 98  1  0  0  0
  6 25  1  0  0  0
  6 99  1  0  0  0
  6100  1  0  0  0
  7  8  2  0  0  0
  7 26  1  0  0  0
  7 29  1  0  0  0
  8  9  1  0  0  0
  8 22  1  0  0  0
  9 10  1  0  0  0
  9 27  2  0  0  0
 10 11  2  0  0  0
 10 15  1  0  0  0
 11 12  1  0  0  0
 11101  1  0  0  0
 12 13  2  0  0  0
 12102  1  0  0  0
 13 14  1  0  0  0
 13 31  1  0  0  0
 14 15  2  0  0  0
 14103  1  0  0  0
 15104  1  0  0  0
 16 17  2  0  0  0
 16 21  1  0  0  0
 16 31  1  0  0  0
 17 18  1  0  0  0
 17105  1  0  0  0
 18 19  2  0  0  0
 18106  1  0  0  0
 19 20  1  0  0  0
 19 24  1  0  0  0
 20 21  2  0  0  0
 20107  1  0  0  0
 21 23  1  0  0  0
 22 28  1  0  0  0
 22 32  2  0  0  0
 26 27  1  0  0  0
 28108  1  0  0  0
 28109  1  0  0  0
 29110  1  0  0  0
 29111  1  0  0  0
 33 34  1  0  0  0
 33 66  1  0  0  0
 33 70  2  0  0  0
 34 36  1  0  0  0
 34 59  1  0  0  0
 34112  1  0  0  0
 35 44  2  0  0  0
 35 45  1  0  0  0
 35 68  1  0  0  0
 36 56  1  0  0  0
 36113  1  0  0  0
 37 39  1  0  0  0
 37 47  1  0  0  0
 37 66  1  0  0  0
 37114  1  0  0  0
 38 43  2  0  0  0
 38 46  1  0  0  0
 38 47  1  0  0  0
 39 64  1  0  0  0
 39 67  2  0  0  0
 40 52  1  0  0  0
 40 53  2  0  0  0
 40 58  1  0  0  0
 41115  1  0  0  0
 41116  1  0  0  0
 41117  1  0  0  0
 41 48  1  0  0  0
 42 43  1  0  0  0
 42 66  1  0  0  0
 42118  1  0  0  0
 42119  1  0  0  0
 43 44  1  0  0  0
 44120  1  0  0  0
 45 46  2  0  0  0
 45121  1  0  0  0
 46122  1  0  0  0
 47123  1  0  0  0
 47124  1  0  0  0
 48 56  1  0  0  0
 48 65  1  0  0  0
 48125  1  0  0  0
 49 50  1  0  0  0
 49 53  1  0  0  0
 49 64  1  0  0  0
 49126  1  0  0  0
 50 51  1  0  0  0
 50127  1  0  0  0
 50128  1  0  0  0
 51 52  1  0  0  0
 51129  1  0  0  0
 51130  1  0  0  0
 52131  1  0  0  0
 52132  1  0  0  0
 53 54  1  0  0  0
 54 55  2  0  0  0
 54133  1  0  0  0
 55 57  1  0  0  0
 55134  1  0  0  0
 56 69  2  0  0  0
 57 58  2  0  0  0
 57135  1  0  0  0
 58136  1  0  0  0
 59 60  1  0  0  0
 59 61  1  0  0  0
 59 62  1  0  0  0
 60137  1  0  0  0
 60138  1  0  0  0
 60139  1  0  0  0
 61140  1  0  0  0
 61141  1  0  0  0
 61142  1  0  0  0
 62143  1  0  0  0
 62144  1  0  0  0
 62145  1  0  0  0
 63 65  1  0  0  0
 63146  1  0  0  0
 63147  1  0  0  0
 63148  1  0  0  0
 64149  1  0  0  0
 65150  1  0  0  0
 68 87  1  0  0  0
 71 72  2  0  0  0
 71 74  1  0  0  0
 71 79  1  0  0  0
 72 75  1  0  0  0
 72 80  1  0  0  0
 73 75  2  0  0  0
 73 76  1  0  0  0
 73 83  1  0  0  0
 74 76  2  0  0  0
 74 89  1  0  0  0
 75 90  1  0  0  0
 76 91  1  0  0  0
 77 78  2  0  0  0
 77 81  1  0  0  0
 77 82  1  0  0  0
 78 84  1  0  0  0
 78 88  1  0  0  0
 79 81  1  0  0  0
 79151  1  0  0  0
 79152  1  0  0  0
 80 82  1  0  0  0
 80153  1  0  0  0
 80154  1  0  0  0
 81155  1  0  0  0
 81156  1  0  0  0
 82157  1  0  0  0
 82158  1  0  0  0
 83159  1  0  0  0
 83160  1  0  0  0
 83161  1  0  0  0
 84162  1  0  0  0
 84163  1  0  0  0
 84164  1  0  0  0
 85165  1  0  0  0
 85166  1  0  0  0
 85167  1  0  0  0
 85 88  1  0  0  0
 86 88  1  0  0  0
 86168  1  0  0  0
 86169  1  0  0  0
 86170  1  0  0  0
 87 88  1  0  0  0
 87171  1  0  0  0
 87172  1  0  0  0
 89173  1  0  0  0
M  ISO  4   1 100  68 101  87 101  89 100
M  END
> <chiral flag>
0

> <version>
0

> <s_m_source_file>
/data/baiqing/PycharmProjects/Reinvent-master-3.2/result/LINK_invent/BTK/process_docking_weight1_custom_sum_contain_oxygen_bond_distance_aromatic_linkinvent_7_9_3/rearranged_h_0022.sdf

> <i_m_source_file_index>
48

> <r_mmod_Potential_Energy-OPLS-2005>
305.620300292969

> <r_mmod_Stretch_Energy-OPLS-2005>
103.726486206055

> <r_mmod_Bend_Energy-OPLS-2005>
198.136947631836

> <r_mmod_Torsional_Energy-OPLS-2005>
362.963043212891

> <r_mmod_Improper_Torsional_Energy-OPLS-2005>
11.9222497940063

> <r_mmod_Van_der_Waal_Energy-OPLS-2005>
185.999038696289

> <r_mmod_Electrostatic_Energy-OPLS-2005>
-444.058654785156

> <r_mmod_Solvation_Energy-OPLS-2005>
-185.732070922852

> <b_mmod_Minimization_Converged-OPLS-2005>
0

> <r_mmod_RMS_Derivative-OPLS-2005>
6.30278444290161

$$$$
48
                    3D
 Structure written by MMmdl.
169177  0  0  1  0            999 V2000
  -30.6971  -14.5183   20.5477 C   0  0  0  0  0  0
  -30.4213  -12.3100   19.4615 C   0  0  0  0  0  0
  -29.5128  -12.4680   18.2258 C   0  0  0  0  0  0
  -28.0298  -12.2861   18.6166 C   0  0  0  0  0  0
  -27.6338  -13.1495   19.8334 C   0  0  2  0  0  0
  -28.6813  -13.0451   20.9768 C   0  0  0  0  0  0
  -25.2555  -13.7916   20.5548 C   0  0  0  0  0  0
  -24.1790  -13.0291   20.9145 C   0  0  0  0  0  0
  -24.6309  -11.6753   20.8722 C   0  0  0  0  0  0
  -23.8951  -10.4187   21.0422 C   0  0  0  0  0  0
  -24.3519   -9.4103   21.9198 C   0  0  0  0  0  0
  -23.6214   -8.2141   22.0740 C   0  0  0  0  0  0
  -22.4211   -8.0171   21.3516 C   0  0  0  0  0  0
  -21.9838   -9.0143   20.4630 C   0  0  0  0  0  0
  -22.7145  -10.2032   20.3056 C   0  0  0  0  0  0
  -21.6828   -6.0671   22.5273 C   0  0  0  0  0  0
  -21.4021   -6.5601   23.8205 C   0  0  0  0  0  0
  -21.3682   -5.6771   24.9173 C   0  0  0  0  0  0
  -21.6027   -4.3027   24.7246 C   0  0  0  0  0  0
  -21.8810   -3.8093   23.4375 C   0  0  0  0  0  0
  -21.9187   -4.6894   22.3409 C   0  0  0  0  0  0
  -22.7852  -13.5150   21.1831 C   0  0  0  0  0  0
  -22.1664   -4.2083   21.0998 F   0  0  0  0  0  0
  -21.5632   -3.4522   25.7760 F   0  0  0  0  0  0
  -30.0110  -13.3409   20.4256 N   0  0  0  0  0  0
  -26.2848  -12.8965   20.3130 N   0  0  0  0  0  0
  -25.9170  -11.6205   20.5657 N   0  0  0  0  0  0
  -22.0565  -12.8149   22.0462 N   0  0  0  0  0  0
  -25.4255  -15.1627   20.3856 N   0  0  0  0  0  0
  -31.8689  -14.6435   20.1928 O   0  0  0  0  0  0
  -21.6603   -6.8769   21.4204 O   0  0  0  0  0  0
  -22.3525  -14.5465   20.6699 O   0  0  0  0  0  0
  -24.6117  -31.8692   23.2088 C   0  0  0  0  0  0
  -25.9049  -32.4807   23.8381 C   0  0  1  0  0  0
  -27.2481  -27.4557   20.1193 C   0  0  0  0  0  0
  -25.5914  -33.8602   24.2331 N   0  0  0  0  0  0
  -23.4027  -30.4880   21.5482 C   0  0  2  0  0  0
  -24.8535  -28.9584   20.1113 C   0  0  0  0  0  0
  -22.7405  -29.4656   22.4962 C   0  0  0  0  0  0
  -18.0321  -28.1372   22.8509 C   0  0  0  0  0  0
  -24.1505  -36.7293   23.2638 C   0  0  0  0  0  0
  -25.9320  -30.8383   21.3704 C   0  0  0  0  0  0
  -26.0123  -29.4825   20.7004 C   0  0  0  0  0  0
  -27.2154  -28.7467   20.6852 C   0  0  0  0  0  0
  -26.0744  -26.9292   19.5385 C   0  0  0  0  0  0
  -24.8817  -27.6797   19.5258 C   0  0  0  0  0  0
  -23.6098  -29.8178   20.1654 C   0  0  0  0  0  0
  -25.4124  -36.3099   24.0340 C   0  0  1  0  0  0
  -20.5885  -28.3735   23.1304 C   0  0  2  0  0  0
  -20.6878  -26.9412   22.5563 C   0  0  0  0  0  0
  -19.5843  -26.6141   21.5446 C   0  0  0  0  0  0
  -18.1981  -26.7830   22.1774 C   0  0  0  0  0  0
  -19.1545  -28.8885   23.2849 C   0  0  0  0  0  0
  -18.9434  -30.1526   23.8753 C   0  0  0  0  0  0
  -17.6427  -30.6645   24.0417 C   0  0  0  0  0  0
  -25.9039  -34.9453   23.5122 C   0  0  0  0  0  0
  -16.5332  -29.9064   23.6296 C   0  0  0  0  0  0
  -16.7297  -28.6456   23.0386 C   0  0  0  0  0  0
  -26.4493  -31.6582   25.0717 C   0  0  0  0  0  0
  -25.3794  -31.3683   26.1493 C   0  0  0  0  0  0
  -27.0360  -30.2994   24.6200 C   0  0  0  0  0  0
  -27.6075  -32.4318   25.7461 C   0  0  0  0  0  0
  -27.5591  -37.1799   24.8464 C   0  0  0  0  0  0
  -21.4158  -29.3049   22.3646 N   0  0  0  0  0  0
  -26.4313  -37.3781   23.9387 N   0  0  0  0  0  0
  -24.6641  -31.0770   22.0990 N   0  0  0  0  0  0
  -23.4168  -28.8217   23.3038 O   0  0  0  0  0  0
  -28.4129  -26.7239   20.1802 O   0  0  0  0  0  0
  -26.5605  -34.8899   22.4700 O   0  0  0  0  0  0
  -23.5300  -32.1461   23.7471 O   0  0  0  0  0  0
  -26.8871  -21.0813   21.4078 C   0  0  0  0  0  0
  -27.5035  -22.0119   22.2635 C   0  0  0  0  0  0
  -25.7421  -21.4612   20.6705 C   0  0  0  0  0  0
  -26.9252  -23.2868   22.3981 C   0  0  0  0  0  0
  -25.2208  -22.7586   20.9189 C   0  0  0  0  0  0
  -26.7932  -24.7530   24.4700 C   0  0  0  0  0  0
  -27.5842  -17.7680   18.8059 C   0  0  0  0  0  0
  -26.8522  -19.1198   18.6876 C   0  0  0  0  0  0
  -28.5444  -17.5761   20.0203 C   0  0  0  0  0  0
  -27.9566  -25.6443   22.3757 C   0  0  0  0  0  0
  -25.5544  -19.2329   19.5216 C   0  0  0  0  0  0
  -28.8429  -16.0743   20.1813 C   0  0  0  0  0  0
  -28.3253  -25.4665   20.8710 C   0  0  0  0  0  0
  -27.6074  -24.3807   23.2141 C   0  0  2  0  0  0
  -25.7808  -23.6318   21.7803 N   0  0  0  0  0  0
  -25.1338  -20.6208   19.7113 N   0  0  0  0  0  0
  -30.0057  -15.6096   20.9505 N   0  0  0  0  0  0
  -23.8104  -23.2972   20.0756 Cl  0  0  0  0  0  0
  -31.4773  -12.3860   19.1974 H   0  0  0  0  0  0
  -30.2940  -11.3125   19.8913 H   0  0  0  0  0  0
  -29.7905  -11.7491   17.4538 H   0  0  0  0  0  0
  -29.6612  -13.4576   17.7902 H   0  0  0  0  0  0
  -27.8663  -11.2360   18.8542 H   0  0  0  0  0  0
  -27.3840  -12.5039   17.7638 H   0  0  0  0  0  0
  -27.5818  -14.1254   19.3819 H   0  0  0  0  0  0
  -28.6795  -12.0329   21.3859 H   0  0  0  0  0  0
  -28.4259  -13.6977   21.8154 H   0  0  0  0  0  0
  -25.2667   -9.5565   22.4778 H   0  0  0  0  0  0
  -23.9915   -7.4524   22.7463 H   0  0  0  0  0  0
  -21.0779   -8.8613   19.8968 H   0  0  0  0  0  0
  -22.3583  -10.9536   19.6148 H   0  0  0  0  0  0
  -21.2053   -7.6124   23.9684 H   0  0  0  0  0  0
  -21.1539   -6.0529   25.9081 H   0  0  0  0  0  0
  -22.0598   -2.7558   23.2895 H   0  0  0  0  0  0
  -22.4196  -11.9704   22.4654 H   0  0  0  0  0  0
  -21.1242  -13.1196   22.2877 H   0  0  0  0  0  0
  -24.6483  -15.8069   20.4516 H   0  0  0  0  0  0
  -26.2647  -15.5861   20.0121 H   0  0  0  0  0  0
  -26.7105  -32.5488   23.1115 H   0  0  0  0  0  0
  -25.0058  -33.9766   25.0466 H   0  0  0  0  0  0
  -22.6932  -31.3069   21.4106 H   0  0  0  0  0  0
  -23.3769  -35.9627   23.3316 H   0  0  0  0  0  0
  -24.3608  -36.8889   22.2055 H   0  0  0  0  0  0
  -23.7270  -37.6500   23.6640 H   0  0  0  0  0  0
  -26.0859  -31.6215   20.6297 H   0  0  0  0  0  0
  -26.8003  -30.8458   22.0183 H   0  0  0  0  0  0
  -28.1101  -29.1523   21.1394 H   0  0  0  0  0  0
  -26.0707  -25.9352   19.1149 H   0  0  0  0  0  0
  -23.9916  -27.2511   19.0872 H   0  0  0  0  0  0
  -23.7068  -30.5944   19.4043 H   0  0  0  0  0  0
  -22.7360  -29.2329   19.8737 H   0  0  0  0  0  0
  -25.1307  -36.1976   25.0837 H   0  0  0  0  0  0
  -20.9956  -28.3433   24.1443 H   0  0  0  0  0  0
  -20.5896  -26.2375   23.3852 H   0  0  0  0  0  0
  -21.6740  -26.7490   22.1323 H   0  0  0  0  0  0
  -19.7055  -25.5956   21.1800 H   0  0  0  0  0  0
  -19.6863  -27.2698   20.6777 H   0  0  0  0  0  0
  -17.4304  -26.6494   21.4132 H   0  0  0  0  0  0
  -18.0326  -26.0070   22.9267 H   0  0  0  0  0  0
  -19.7890  -30.7457   24.1983 H   0  0  0  0  0  0
  -17.4940  -31.6389   24.4848 H   0  0  0  0  0  0
  -15.5305  -30.2919   23.7620 H   0  0  0  0  0  0
  -15.8715  -28.0680   22.7212 H   0  0  0  0  0  0
  -24.5898  -30.7133   25.7791 H   0  0  0  0  0  0
  -24.9094  -32.2842   26.5060 H   0  0  0  0  0  0
  -25.8158  -30.8713   27.0170 H   0  0  0  0  0  0
  -26.2941  -29.6706   24.1251 H   0  0  0  0  0  0
  -27.4064  -29.7282   25.4727 H   0  0  0  0  0  0
  -27.8804  -30.4246   23.9424 H   0  0  0  0  0  0
  -27.2684  -33.3557   26.2148 H   0  0  0  0  0  0
  -28.3802  -32.6996   25.0248 H   0  0  0  0  0  0
  -28.0866  -31.8421   26.5291 H   0  0  0  0  0  0
  -28.2612  -38.0089   24.7501 H   0  0  0  0  0  0
  -28.1089  -36.2621   24.6311 H   0  0  0  0  0  0
  -27.2288  -37.1445   25.8860 H   0  0  0  0  0  0
  -20.9351  -29.8730   21.6819 H   0  0  0  0  0  0
  -26.0205  -38.2860   24.1376 H   0  0  0  0  0  0
  -27.3276  -20.1015   21.2956 H   0  0  0  0  0  0
  -28.4160  -21.7466   22.7771 H   0  0  0  0  0  0
  -26.6492  -23.8883   25.1148 H   0  0  0  0  0  0
  -25.8028  -25.1442   24.2191 H   0  0  0  0  0  0
  -27.3048  -25.5178   25.0547 H   0  0  0  0  0  0
  -26.8609  -16.9503   18.7320 H   0  0  0  0  0  0
  -28.1936  -17.6655   17.9074 H   0  0  0  0  0  0
  -26.5774  -19.2675   17.6386 H   0  0  0  0  0  0
  -27.5482  -19.9247   18.9265 H   0  0  0  0  0  0
  -28.0726  -17.9419   20.9359 H   0  0  0  0  0  0
  -29.4602  -18.1428   19.8497 H   0  0  0  0  0  0
  -27.0910  -26.3030   22.4337 H   0  0  0  0  0  0
  -28.7611  -26.1832   22.8765 H   0  0  0  0  0  0
  -24.7495  -18.6887   19.0197 H   0  0  0  0  0  0
  -25.6587  -18.7464   20.4908 H   0  0  0  0  0  0
  -28.9267  -15.6615   19.1739 H   0  0  0  0  0  0
  -27.9660  -15.6743   20.6772 H   0  0  0  0  0  0
  -27.6366  -24.8114   20.3405 H   0  0  0  0  0  0
  -29.2990  -24.9805   20.7902 H   0  0  0  0  0  0
  -28.5530  -23.9566   23.5659 H   0  0  0  0  0  0
  -24.4572  -21.0429   19.0739 H   0  0  0  0  0  0
  -30.5811  -16.3588   21.3095 H   0  0  0  0  0  0
  1 25  1  0  0  0
  1 30  2  0  0  0
  1 87  1  0  0  0
  2  3  1  0  0  0
  2 25  1  0  0  0
  2 89  1  0  0  0
  2 90  1  0  0  0
  3  4  1  0  0  0
  3 91  1  0  0  0
  3 92  1  0  0  0
  4  5  1  0  0  0
  4 93  1  0  0  0
  4 94  1  0  0  0
  5  6  1  0  0  0
  5 26  1  0  0  0
  5 95  1  0  0  0
  6 25  1  0  0  0
  6 96  1  0  0  0
  6 97  1  0  0  0
  7  8  2  0  0  0
  7 26  1  0  0  0
  7 29  1  0  0  0
  8  9  1  0  0  0
  8 22  1  0  0  0
  9 10  1  0  0  0
  9 27  2  0  0  0
 10 11  2  0  0  0
 10 15  1  0  0  0
 11 12  1  0  0  0
 11 98  1  0  0  0
 12 13  2  0  0  0
 12 99  1  0  0  0
 13 14  1  0  0  0
 13 31  1  0  0  0
 14 15  2  0  0  0
 14100  1  0  0  0
 15101  1  0  0  0
 16 17  2  0  0  0
 16 21  1  0  0  0
 16 31  1  0  0  0
 17 18  1  0  0  0
 17102  1  0  0  0
 18 19  2  0  0  0
 18103  1  0  0  0
 19 20  1  0  0  0
 19 24  1  0  0  0
 20 21  2  0  0  0
 20104  1  0  0  0
 21 23  1  0  0  0
 22 28  1  0  0  0
 22 32  2  0  0  0
 26 27  1  0  0  0
 28105  1  0  0  0
 28106  1  0  0  0
 29107  1  0  0  0
 29108  1  0  0  0
 33 34  1  0  0  0
 33 66  1  0  0  0
 33 70  2  0  0  0
 34 36  1  0  0  0
 34 59  1  0  0  0
 34109  1  0  0  0
 35 44  2  0  0  0
 35 45  1  0  0  0
 35 68  1  0  0  0
 36 56  1  0  0  0
 36110  1  0  0  0
 37 39  1  0  0  0
 37 47  1  0  0  0
 37 66  1  0  0  0
 37111  1  0  0  0
 38 43  2  0  0  0
 38 46  1  0  0  0
 38 47  1  0  0  0
 39 64  1  0  0  0
 39 67  2  0  0  0
 40 52  1  0  0  0
 40 53  2  0  0  0
 40 58  1  0  0  0
 41112  1  0  0  0
 41113  1  0  0  0
 41114  1  0  0  0
 41 48  1  0  0  0
 42 43  1  0  0  0
 42 66  1  0  0  0
 42115  1  0  0  0
 42116  1  0  0  0
 43 44  1  0  0  0
 44117  1  0  0  0
 45 46  2  0  0  0
 45118  1  0  0  0
 46119  1  0  0  0
 47120  1  0  0  0
 47121  1  0  0  0
 48 56  1  0  0  0
 48 65  1  0  0  0
 48122  1  0  0  0
 49 50  1  0  0  0
 49 53  1  0  0  0
 49 64  1  0  0  0
 49123  1  0  0  0
 50 51  1  0  0  0
 50124  1  0  0  0
 50125  1  0  0  0
 51 52  1  0  0  0
 51126  1  0  0  0
 51127  1  0  0  0
 52128  1  0  0  0
 52129  1  0  0  0
 53 54  1  0  0  0
 54 55  2  0  0  0
 54130  1  0  0  0
 55 57  1  0  0  0
 55131  1  0  0  0
 56 69  2  0  0  0
 57 58  2  0  0  0
 57132  1  0  0  0
 58133  1  0  0  0
 59 60  1  0  0  0
 59 61  1  0  0  0
 59 62  1  0  0  0
 60134  1  0  0  0
 60135  1  0  0  0
 60136  1  0  0  0
 61137  1  0  0  0
 61138  1  0  0  0
 61139  1  0  0  0
 62140  1  0  0  0
 62141  1  0  0  0
 62142  1  0  0  0
 63 65  1  0  0  0
 63143  1  0  0  0
 63144  1  0  0  0
 63145  1  0  0  0
 64146  1  0  0  0
 65147  1  0  0  0
 68 83  1  0  0  0
 71 72  2  0  0  0
 71 73  1  0  0  0
 71148  1  0  0  0
 72 74  1  0  0  0
 72149  1  0  0  0
 73 75  2  0  0  0
 73 86  1  0  0  0
 74 84  1  0  0  0
 74 85  2  0  0  0
 75 85  1  0  0  0
 75 88  1  0  0  0
 76150  1  0  0  0
 76151  1  0  0  0
 76152  1  0  0  0
 76 84  1  0  0  0
 77 78  1  0  0  0
 77 79  1  0  0  0
 77153  1  0  0  0
 77154  1  0  0  0
 78 81  1  0  0  0
 78155  1  0  0  0
 78156  1  0  0  0
 79 82  1  0  0  0
 79157  1  0  0  0
 79158  1  0  0  0
 80 83  1  0  0  0
 80 84  1  0  0  0
 80159  1  0  0  0
 80160  1  0  0  0
 81 86  1  0  0  0
 81161  1  0  0  0
 81162  1  0  0  0
 82 87  1  0  0  0
 82163  1  0  0  0
 82164  1  0  0  0
 83165  1  0  0  0
 83166  1  0  0  0
 84167  1  0  0  0
 86168  1  0  0  0
 87169  1  0  0  0
M  ISO  4   1 100  68 101  83 101  87 100
M  END
> <chiral flag>
0

> <version>
0

> <s_m_source_file>
/data/baiqing/PycharmProjects/Reinvent-master-3.2/result/LINK_invent/BTK/process_docking_weight1_custom_sum_contain_oxygen_bond_distance_aromatic_linkinvent_7_9_3/rearranged_h_0022.sdf

> <i_m_source_file_index>
49

> <r_mmod_Potential_Energy-OPLS-2005>
-74.931755065918

> <r_mmod_Stretch_Energy-OPLS-2005>
38.6649742126465

> <r_mmod_Bend_Energy-OPLS-2005>
134.224655151367

> <r_mmod_Torsional_Energy-OPLS-2005>
267.923553466797

> <r_mmod_Improper_Torsional_Energy-OPLS-2005>
6.83543920516968

> <r_mmod_Van_der_Waal_Energy-OPLS-2005>
159.807952880859

> <r_mmod_Electrostatic_Energy-OPLS-2005>
-492.997467041016

> <r_mmod_Solvation_Energy-OPLS-2005>
-213.615127563477

> <b_mmod_Minimization_Converged-OPLS-2005>
0

> <r_mmod_RMS_Derivative-OPLS-2005>
7.28819608688354

$$$$
49
                    3D
 Structure written by MMmdl.
183191  0  0  1  0            999 V2000
  -30.6247  -14.8964   20.4144 C   0  0  0  0  0  0
  -30.4218  -12.5661   19.4743 C   0  0  0  0  0  0
  -29.4941  -12.5116   18.2402 C   0  0  0  0  0  0
  -28.0372  -12.2948   18.6836 C   0  0  0  0  0  0
  -27.6250  -13.2423   19.8384 C   0  0  2  0  0  0
  -28.6758  -13.3183   20.9652 C   0  0  0  0  0  0
  -25.2475  -13.8195   20.5785 C   0  0  0  0  0  0
  -24.1781  -13.0450   20.9273 C   0  0  0  0  0  0
  -24.6392  -11.6914   20.8847 C   0  0  0  0  0  0
  -23.9096  -10.4294   21.0456 C   0  0  0  0  0  0
  -24.3633   -9.4207   21.9234 C   0  0  0  0  0  0
  -23.6306   -8.2243   22.0786 C   0  0  0  0  0  0
  -22.4304   -8.0280   21.3555 C   0  0  0  0  0  0
  -21.9935   -9.0273   20.4677 C   0  0  0  0  0  0
  -22.7268  -10.2156   20.3100 C   0  0  0  0  0  0
  -21.6849   -6.0748   22.5273 C   0  0  0  0  0  0
  -21.3996   -6.5650   23.8209 C   0  0  0  0  0  0
  -21.3677   -5.6814   24.9179 C   0  0  0  0  0  0
  -21.6043   -4.3077   24.7227 C   0  0  0  0  0  0
  -21.8818   -3.8162   23.4352 C   0  0  0  0  0  0
  -21.9187   -4.6974   22.3403 C   0  0  0  0  0  0
  -22.7805  -13.5215   21.1911 C   0  0  0  0  0  0
  -22.1666   -4.2153   21.0999 F   0  0  0  0  0  0
  -21.5648   -3.4564   25.7757 F   0  0  0  0  0  0
  -29.9501  -13.6857   20.3377 N   0  0  0  0  0  0
  -26.2904  -12.9413   20.3353 N   0  0  0  0  0  0
  -25.9333  -11.6562   20.5871 N   0  0  0  0  0  0
  -22.0458  -12.8198   22.0446 N   0  0  0  0  0  0
  -25.4177  -15.1927   20.4173 N   0  0  0  0  0  0
  -31.8390  -14.8684   20.1857 O   0  0  0  0  0  0
  -21.6646   -6.8891   21.4241 O   0  0  0  0  0  0
  -22.3523  -14.5546   20.6764 O   0  0  0  0  0  0
  -24.6398  -31.8519   23.1885 C   0  0  0  0  0  0
  -25.9192  -32.4749   23.8300 C   0  0  1  0  0  0
  -27.2323  -27.2082   20.1370 C   0  0  0  0  0  0
  -25.5892  -33.8545   24.2192 N   0  0  0  0  0  0
  -23.4410  -30.4586   21.5407 C   0  0  2  0  0  0
  -24.8872  -28.8981   20.1082 C   0  0  0  0  0  0
  -22.7548  -29.4514   22.4996 C   0  0  0  0  0  0
  -18.0226  -28.1423   22.8454 C   0  0  0  0  0  0
  -24.1453  -36.7283   23.2605 C   0  0  0  0  0  0
  -25.9848  -30.7478   21.3709 C   0  0  0  0  0  0
  -26.0572  -29.3584   20.7214 C   0  0  0  0  0  0
  -27.2250  -28.5251   20.7294 C   0  0  0  0  0  0
  -26.0387  -26.8199   19.4920 C   0  0  0  0  0  0
  -24.8850  -27.6368   19.4831 C   0  0  0  0  0  0
  -23.6561  -29.7880   20.1588 C   0  0  0  0  0  0
  -25.4069  -36.3084   24.0319 C   0  0  1  0  0  0
  -20.5836  -28.3694   23.1277 C   0  0  2  0  0  0
  -20.6716  -26.9404   22.5435 C   0  0  0  0  0  0
  -19.5692  -26.6383   21.5219 C   0  0  0  0  0  0
  -18.1854  -26.7956   22.1602 C   0  0  0  0  0  0
  -19.1482  -28.8866   23.2835 C   0  0  0  0  0  0
  -18.9423  -30.1460   23.8893 C   0  0  0  0  0  0
  -17.6429  -30.6611   24.0531 C   0  0  0  0  0  0
  -25.9042  -34.9453   23.5048 C   0  0  0  0  0  0
  -16.5314  -29.9117   23.6320 C   0  0  0  0  0  0
  -16.7200  -28.6508   23.0359 C   0  0  0  0  0  0
  -26.4513  -31.6577   25.0724 C   0  0  0  0  0  0
  -25.3707  -31.3685   26.1380 C   0  0  0  0  0  0
  -27.0366  -30.3031   24.6107 C   0  0  0  0  0  0
  -27.5997  -32.4230   25.7700 C   0  0  0  0  0  0
  -27.5562  -37.1745   24.8461 C   0  0  0  0  0  0
  -21.4227  -29.3038   22.3716 N   0  0  0  0  0  0
  -26.4288  -37.3754   23.9397 N   0  0  0  0  0  0
  -24.7095  -31.0411   22.0876 N   0  0  0  0  0  0
  -23.4212  -28.8013   23.3098 O   0  0  0  0  0  0
  -28.3341  -26.3130   20.2597 O   0  0  0  0  0  0
  -26.5683  -34.8923   22.4680 O   0  0  0  0  0  0
  -23.5548  -32.1364   23.7149 O   0  0  0  0  0  0
  -30.7526  -18.7007   21.0591 C   0  0  0  0  0  0
  -28.9629  -18.3533   19.5036 C   0  0  0  0  0  0
  -30.6010  -17.1950   21.5778 C   0  0  0  0  0  0
  -28.8271  -16.8205   20.0159 C   0  0  0  0  0  0
  -29.4741  -19.4716   20.5144 C   0  0  0  0  0  0
  -32.3448  -22.1541   18.2535 C   0  0  0  0  0  0
  -28.7581  -22.0310   24.5743 C   0  0  0  0  0  0
  -31.1842  -22.3454   22.5155 C   0  0  0  0  0  0
  -27.2932  -22.7369   19.0339 C   0  0  0  0  0  0
  -27.0696  -23.6417   21.2875 C   0  0  0  0  0  0
  -31.5103  -20.8650   18.1794 C   0  0  0  0  0  0
  -28.8479  -21.5351   23.1239 C   0  0  0  0  0  0
  -30.0207  -21.0853   18.5233 C   0  0  0  0  0  0
  -28.4881  -24.9443   19.6082 C   0  0  0  0  0  0
  -29.6780  -22.4528   22.1878 C   0  0  2  0  0  0
  -29.3284  -22.3480   20.6590 C   0  0  2  0  0  0
  -28.1116  -23.4129   20.1629 C   0  0  0  0  0  0
  -30.0028  -16.1527   20.6794 N   0  0  0  0  0  0
  -29.7313  -20.9574   19.9861 N   0  3  1  0  0  0
  -31.4561  -12.6905   19.1460 H   0  0  0  0  0  0
  -30.4006  -11.6256   20.0254 H   0  0  0  0  0  0
  -29.8017  -11.7149   17.5621 H   0  0  0  0  0  0
  -29.5663  -13.4433   17.6778 H   0  0  0  0  0  0
  -27.9524  -11.2591   19.0113 H   0  0  0  0  0  0
  -27.3535  -12.4049   17.8393 H   0  0  0  0  0  0
  -27.5682  -14.2261   19.3797 H   0  0  0  0  0  0
  -28.7673  -12.3820   21.5114 H   0  0  0  0  0  0
  -28.3871  -14.0789   21.6927 H   0  0  0  0  0  0
  -25.2756   -9.5675   22.4849 H   0  0  0  0  0  0
  -24.0002   -7.4625   22.7492 H   0  0  0  0  0  0
  -21.0872   -8.8813   19.8969 H   0  0  0  0  0  0
  -22.3724  -10.9726   19.6250 H   0  0  0  0  0  0
  -21.1966   -7.6158   23.9706 H   0  0  0  0  0  0
  -21.1515   -6.0564   25.9096 H   0  0  0  0  0  0
  -22.0573   -2.7619   23.2861 H   0  0  0  0  0  0
  -22.4070  -11.9810   22.4729 H   0  0  0  0  0  0
  -21.1108  -13.1256   22.2729 H   0  0  0  0  0  0
  -24.6496  -15.8457   20.5203 H   0  0  0  0  0  0
  -26.2662  -15.6232   20.0760 H   0  0  0  0  0  0
  -26.7315  -32.5370   23.1096 H   0  0  0  0  0  0
  -24.9907  -33.9697   25.0229 H   0  0  0  0  0  0
  -22.7369  -31.2798   21.3943 H   0  0  0  0  0  0
  -23.3760  -35.9545   23.3302 H   0  0  0  0  0  0
  -24.3553  -36.8912   22.2010 H   0  0  0  0  0  0
  -23.7197  -37.6475   23.6661 H   0  0  0  0  0  0
  -26.1338  -31.5041   20.5963 H   0  0  0  0  0  0
  -26.8597  -30.8011   22.0043 H   0  0  0  0  0  0
  -28.1162  -28.8680   21.2337 H   0  0  0  0  0  0
  -25.9685  -25.8488   19.0278 H   0  0  0  0  0  0
  -23.9859  -27.2726   19.0076 H   0  0  0  0  0  0
  -23.7863  -30.5681   19.4095 H   0  0  0  0  0  0
  -22.7687  -29.2345   19.8460 H   0  0  0  0  0  0
  -25.1234  -36.1935   25.0833 H   0  0  0  0  0  0
  -20.9821  -28.3305   24.1443 H   0  0  0  0  0  0
  -20.5607  -26.2312   23.3643 H   0  0  0  0  0  0
  -21.6576  -26.7444   22.1238 H   0  0  0  0  0  0
  -19.6845  -25.6280   21.1253 H   0  0  0  0  0  0
  -19.6654  -27.3157   20.6703 H   0  0  0  0  0  0
  -17.4119  -26.6674   21.4008 H   0  0  0  0  0  0
  -18.0251  -26.0152   22.9038 H   0  0  0  0  0  0
  -19.7906  -30.7230   24.2335 H   0  0  0  0  0  0
  -17.4976  -31.6271   24.5139 H   0  0  0  0  0  0
  -15.5295  -30.2995   23.7663 H   0  0  0  0  0  0
  -15.8590  -28.0783   22.7166 H   0  0  0  0  0  0
  -24.5713  -30.7245   25.7636 H   0  0  0  0  0  0
  -24.9079  -32.2852   26.5051 H   0  0  0  0  0  0
  -25.7981  -30.8596   27.0033 H   0  0  0  0  0  0
  -26.2904  -29.6942   24.1060 H   0  0  0  0  0  0
  -27.4056  -29.7138   25.4513 H   0  0  0  0  0  0
  -27.8834  -30.4432   23.9360 H   0  0  0  0  0  0
  -27.2718  -33.3634   26.2064 H   0  0  0  0  0  0
  -28.4080  -32.6516   25.0769 H   0  0  0  0  0  0
  -28.0294  -31.8406   26.5866 H   0  0  0  0  0  0
  -28.2609  -38.0014   24.7505 H   0  0  0  0  0  0
  -28.1011  -36.2564   24.6257 H   0  0  0  0  0  0
  -27.2266  -37.1347   25.8849 H   0  0  0  0  0  0
  -20.9473  -29.8790   21.6889 H   0  0  0  0  0  0
  -26.0253  -38.2889   24.1291 H   0  0  0  0  0  0
  -31.5211  -18.6632   20.2873 H   0  0  0  0  0  0
  -31.1999  -19.2775   21.8669 H   0  0  0  0  0  0
  -27.9843  -18.6632   19.1284 H   0  0  0  0  0  0
  -29.6172  -18.3273   18.6296 H   0  0  0  0  0  0
  -29.9952  -17.2031   22.4838 H   0  0  0  0  0  0
  -31.5821  -16.8471   21.9025 H   0  0  0  0  0  0
  -28.4964  -16.2050   19.1797 H   0  0  0  0  0  0
  -28.0172  -16.7895   20.7471 H   0  0  0  0  0  0
  -28.7355  -19.5356   21.3052 H   0  0  0  0  0  0
  -32.2354  -22.6553   19.2166 H   0  0  0  0  0  0
  -32.0301  -22.8571   17.4845 H   0  0  0  0  0  0
  -33.4043  -21.9517   18.0967 H   0  0  0  0  0  0
  -29.7369  -21.9867   25.0493 H   0  0  0  0  0  0
  -28.0814  -21.3996   25.1571 H   0  0  0  0  0  0
  -28.3943  -23.0602   24.6450 H   0  0  0  0  0  0
  -31.8294  -22.7587   21.7376 H   0  0  0  0  0  0
  -31.4773  -21.3164   22.7039 H   0  0  0  0  0  0
  -31.4156  -22.9028   23.4236 H   0  0  0  0  0  0
  -27.8078  -22.7377   18.0739 H   0  0  0  0  0  0
  -26.3549  -23.2672   18.8521 H   0  0  0  0  0  0
  -27.0340  -21.7080   19.2791 H   0  0  0  0  0  0
  -26.2945  -24.3352   20.9671 H   0  0  0  0  0  0
  -27.4813  -24.0862   22.1915 H   0  0  0  0  0  0
  -26.5713  -22.7160   21.5703 H   0  0  0  0  0  0
  -31.9632  -20.1080   18.8139 H   0  0  0  0  0  0
  -31.5910  -20.4659   17.1655 H   0  0  0  0  0  0
  -29.2755  -20.5354   23.1555 H   0  0  0  0  0  0
  -27.8366  -21.4062   22.7468 H   0  0  0  0  0  0
  -29.3677  -20.4457   17.9315 H   0  0  0  0  0  0
  -29.7997  -22.0934   18.1761 H   0  0  0  0  0  0
  -28.0530  -25.0586   18.6166 H   0  0  0  0  0  0
  -29.5484  -24.9167   19.3537 H   0  0  0  0  0  0
  -29.4595  -23.4852   22.4544 H   0  0  0  0  0  0
  -30.1502  -22.9316   20.2469 H   0  0  0  0  0  0
  -30.6850  -21.0115   20.3155 H   0  0  0  0  0  0
  1 25  1  0  0  0
  1 30  2  0  0  0
  1 88  1  0  0  0
  2  3  1  0  0  0
  2 25  1  0  0  0
  2 90  1  0  0  0
  2 91  1  0  0  0
  3  4  1  0  0  0
  3 92  1  0  0  0
  3 93  1  0  0  0
  4  5  1  0  0  0
  4 94  1  0  0  0
  4 95  1  0  0  0
  5  6  1  0  0  0
  5 26  1  0  0  0
  5 96  1  0  0  0
  6 25  1  0  0  0
  6 97  1  0  0  0
  6 98  1  0  0  0
  7  8  2  0  0  0
  7 26  1  0  0  0
  7 29  1  0  0  0
  8  9  1  0  0  0
  8 22  1  0  0  0
  9 10  1  0  0  0
  9 27  2  0  0  0
 10 11  2  0  0  0
 10 15  1  0  0  0
 11 12  1  0  0  0
 11 99  1  0  0  0
 12 13  2  0  0  0
 12100  1  0  0  0
 13 14  1  0  0  0
 13 31  1  0  0  0
 14 15  2  0  0  0
 14101  1  0  0  0
 15102  1  0  0  0
 16 17  2  0  0  0
 16 21  1  0  0  0
 16 31  1  0  0  0
 17 18  1  0  0  0
 17103  1  0  0  0
 18 19  2  0  0  0
 18104  1  0  0  0
 19 20  1  0  0  0
 19 24  1  0  0  0
 20 21  2  0  0  0
 20105  1  0  0  0
 21 23  1  0  0  0
 22 28  1  0  0  0
 22 32  2  0  0  0
 26 27  1  0  0  0
 28106  1  0  0  0
 28107  1  0  0  0
 29108  1  0  0  0
 29109  1  0  0  0
 33 34  1  0  0  0
 33 66  1  0  0  0
 33 70  2  0  0  0
 34 36  1  0  0  0
 34 59  1  0  0  0
 34110  1  0  0  0
 35 44  2  0  0  0
 35 45  1  0  0  0
 35 68  1  0  0  0
 36 56  1  0  0  0
 36111  1  0  0  0
 37 39  1  0  0  0
 37 47  1  0  0  0
 37 66  1  0  0  0
 37112  1  0  0  0
 38 43  2  0  0  0
 38 46  1  0  0  0
 38 47  1  0  0  0
 39 64  1  0  0  0
 39 67  2  0  0  0
 40 52  1  0  0  0
 40 53  2  0  0  0
 40 58  1  0  0  0
 41113  1  0  0  0
 41114  1  0  0  0
 41115  1  0  0  0
 41 48  1  0  0  0
 42 43  1  0  0  0
 42 66  1  0  0  0
 42116  1  0  0  0
 42117  1  0  0  0
 43 44  1  0  0  0
 44118  1  0  0  0
 45 46  2  0  0  0
 45119  1  0  0  0
 46120  1  0  0  0
 47121  1  0  0  0
 47122  1  0  0  0
 48 56  1  0  0  0
 48 65  1  0  0  0
 48123  1  0  0  0
 49 50  1  0  0  0
 49 53  1  0  0  0
 49 64  1  0  0  0
 49124  1  0  0  0
 50 51  1  0  0  0
 50125  1  0  0  0
 50126  1  0  0  0
 51 52  1  0  0  0
 51127  1  0  0  0
 51128  1  0  0  0
 52129  1  0  0  0
 52130  1  0  0  0
 53 54  1  0  0  0
 54 55  2  0  0  0
 54131  1  0  0  0
 55 57  1  0  0  0
 55132  1  0  0  0
 56 69  2  0  0  0
 57 58  2  0  0  0
 57133  1  0  0  0
 58134  1  0  0  0
 59 60  1  0  0  0
 59 61  1  0  0  0
 59 62  1  0  0  0
 60135  1  0  0  0
 60136  1  0  0  0
 60137  1  0  0  0
 61138  1  0  0  0
 61139  1  0  0  0
 61140  1  0  0  0
 62141  1  0  0  0
 62142  1  0  0  0
 62143  1  0  0  0
 63 65  1  0  0  0
 63144  1  0  0  0
 63145  1  0  0  0
 63146  1  0  0  0
 64147  1  0  0  0
 65148  1  0  0  0
 68 84  1  0  0  0
 71 73  1  0  0  0
 71149  1  0  0  0
 71150  1  0  0  0
 71 75  1  0  0  0
 72 74  1  0  0  0
 72 75  1  0  0  0
 72151  1  0  0  0
 72152  1  0  0  0
 73 88  1  0  0  0
 73153  1  0  0  0
 73154  1  0  0  0
 74 88  1  0  0  0
 74155  1  0  0  0
 74156  1  0  0  0
 75 89  1  0  0  0
 75157  1  0  0  0
 76 81  1  0  0  0
 76158  1  0  0  0
 76159  1  0  0  0
 76160  1  0  0  0
 77 82  1  0  0  0
 77161  1  0  0  0
 77162  1  0  0  0
 77163  1  0  0  0
 78164  1  0  0  0
 78165  1  0  0  0
 78166  1  0  0  0
 78 85  1  0  0  0
 79167  1  0  0  0
 79168  1  0  0  0
 79169  1  0  0  0
 79 87  1  0  0  0
 80 87  1  0  0  0
 80170  1  0  0  0
 80171  1  0  0  0
 80172  1  0  0  0
 81 83  1  0  0  0
 81173  1  0  0  0
 81174  1  0  0  0
 82 85  1  0  0  0
 82175  1  0  0  0
 82176  1  0  0  0
 83177  1  0  0  0
 83178  1  0  0  0
 83 89  1  0  0  0
 84 87  1  0  0  0
 84179  1  0  0  0
 84180  1  0  0  0
 85181  1  0  0  0
 85 86  1  0  0  0
 86 87  1  0  0  0
 86 89  1  0  0  0
 86182  1  0  0  0
 89183  1  0  0  0
M  CHG  1  89   1
M  ISO  4   1 100  68 101  84 101  88 100
M  END
> <chiral flag>
0

> <version>
0

> <s_m_source_file>
/data/baiqing/PycharmProjects/Reinvent-master-3.2/result/LINK_invent/BTK/process_docking_weight1_custom_sum_contain_oxygen_bond_distance_aromatic_linkinvent_7_9_3/rearranged_h_0022.sdf

> <i_m_source_file_index>
50

> <r_mmod_Potential_Energy-OPLS-2005>
790.654052734375

> <r_mmod_Stretch_Energy-OPLS-2005>
224.449264526367

> <r_mmod_Bend_Energy-OPLS-2005>
380.257751464844

> <r_mmod_Torsional_Energy-OPLS-2005>
437.303314208984

> <r_mmod_Improper_Torsional_Energy-OPLS-2005>
2.15788388252258

> <r_mmod_Van_der_Waal_Energy-OPLS-2005>
117.822914123535

> <r_mmod_Electrostatic_Energy-OPLS-2005>
-122.615982055664

> <r_mmod_Solvation_Energy-OPLS-2005>
-398.826141357422

> <b_mmod_Minimization_Converged-OPLS-2005>
0

> <r_mmod_RMS_Derivative-OPLS-2005>
7.12786436080933

$$$$
50
                    3D
 Structure written by MMmdl.
157165  0  0  1  0            999 V2000
  -30.5306  -14.8571   20.4365 C   0  0  0  0  0  0
  -30.4526  -12.5260   19.4756 C   0  0  0  0  0  0
  -29.5201  -12.5229   18.2411 C   0  0  0  0  0  0
  -28.0485  -12.3232   18.6579 C   0  0  0  0  0  0
  -27.6394  -13.2326   19.8459 C   0  0  2  0  0  0
  -28.6870  -13.1891   20.9796 C   0  0  0  0  0  0
  -25.2514  -13.8180   20.5721 C   0  0  0  0  0  0
  -24.1805  -13.0424   20.9215 C   0  0  0  0  0  0
  -24.6399  -11.6905   20.8742 C   0  0  0  0  0  0
  -23.9074  -10.4285   21.0404 C   0  0  0  0  0  0
  -24.3622   -9.4202   21.9183 C   0  0  0  0  0  0
  -23.6294   -8.2240   22.0755 C   0  0  0  0  0  0
  -22.4276   -8.0279   21.3545 C   0  0  0  0  0  0
  -21.9913   -9.0254   20.4647 C   0  0  0  0  0  0
  -22.7245  -10.2130   20.3055 C   0  0  0  0  0  0
  -21.6852   -6.0735   22.5279 C   0  0  0  0  0  0
  -21.4014   -6.5639   23.8213 C   0  0  0  0  0  0
  -21.3659   -5.6792   24.9175 C   0  0  0  0  0  0
  -21.6044   -4.3055   24.7225 C   0  0  0  0  0  0
  -21.8819   -3.8147   23.4347 C   0  0  0  0  0  0
  -21.9193   -4.6963   22.3403 C   0  0  0  0  0  0
  -22.7827  -13.5211   21.1874 C   0  0  0  0  0  0
  -22.1662   -4.2149   21.0980 F   0  0  0  0  0  0
  -21.5628   -3.4539   25.7738 F   0  0  0  0  0  0
  -29.9753  -13.5884   20.3945 N   0  0  0  0  0  0
  -26.2933  -12.9389   20.3261 N   0  0  0  0  0  0
  -25.9328  -11.6531   20.5729 N   0  0  0  0  0  0
  -22.0471  -12.8202   22.0428 N   0  0  0  0  0  0
  -25.4169  -15.1911   20.4208 N   0  0  0  0  0  0
  -31.7284  -14.9995   20.1678 O   0  0  0  0  0  0
  -21.6639   -6.8878   21.4241 O   0  0  0  0  0  0
  -22.3513  -14.5519   20.6723 O   0  0  0  0  0  0
  -24.6383  -31.8485   23.1918 C   0  0  0  0  0  0
  -25.9176  -32.4720   23.8292 C   0  0  1  0  0  0
  -27.2231  -27.1915   20.1498 C   0  0  0  0  0  0
  -25.5943  -33.8523   24.2212 N   0  0  0  0  0  0
  -23.4396  -30.4677   21.5365 C   0  0  2  0  0  0
  -24.8897  -28.8993   20.1144 C   0  0  0  0  0  0
  -22.7541  -29.4566   22.4885 C   0  0  0  0  0  0
  -18.0300  -28.1392   22.8479 C   0  0  0  0  0  0
  -24.1491  -36.7268   23.2642 C   0  0  0  0  0  0
  -25.9909  -30.7401   21.3818 C   0  0  0  0  0  0
  -26.0648  -29.3546   20.7270 C   0  0  0  0  0  0
  -27.2361  -28.5170   20.7258 C   0  0  0  0  0  0
  -26.0255  -26.8215   19.5024 C   0  0  0  0  0  0
  -24.8791  -27.6434   19.4878 C   0  0  0  0  0  0
  -23.6636  -29.7955   20.1560 C   0  0  0  0  0  0
  -25.4121  -36.3047   24.0319 C   0  0  1  0  0  0
  -20.5909  -28.3710   23.1250 C   0  0  2  0  0  0
  -20.6785  -26.9420   22.5405 C   0  0  0  0  0  0
  -19.5760  -26.6382   21.5210 C   0  0  0  0  0  0
  -18.1941  -26.7932   22.1621 C   0  0  0  0  0  0
  -19.1555  -28.8869   23.2858 C   0  0  0  0  0  0
  -18.9474  -30.1466   23.8881 C   0  0  0  0  0  0
  -17.6472  -30.6590   24.0559 C   0  0  0  0  0  0
  -25.9066  -34.9421   23.5073 C   0  0  0  0  0  0
  -16.5362  -29.9084   23.6334 C   0  0  0  0  0  0
  -16.7285  -28.6502   23.0355 C   0  0  0  0  0  0
  -26.4516  -31.6571   25.0714 C   0  0  0  0  0  0
  -25.3715  -31.3744   26.1418 C   0  0  0  0  0  0
  -27.0378  -30.2977   24.6257 C   0  0  0  0  0  0
  -27.6052  -32.4330   25.7498 C   0  0  0  0  0  0
  -27.5576  -37.1790   24.8465 C   0  0  0  0  0  0
  -21.4239  -29.3045   22.3631 N   0  0  0  0  0  0
  -26.4289  -37.3754   23.9407 N   0  0  0  0  0  0
  -24.7090  -31.0386   22.0926 N   0  0  0  0  0  0
  -23.4205  -28.8117   23.3021 O   0  0  0  0  0  0
  -28.2981  -26.2494   20.1621 O   0  0  0  0  0  0
  -26.5649  -34.8911   22.4649 O   0  0  0  0  0  0
  -23.5515  -32.1337   23.7170 O   0  0  0  0  0  0
  -28.2513  -19.5142   19.9301 C   0  0  0  0  0  0
  -30.5463  -18.3820   21.0109 C   0  0  0  0  0  0
  -29.1199  -20.4586   20.5648 C   0  0  0  0  0  0
  -29.6194  -17.4419   20.4578 C   0  0  0  0  0  0
  -28.4712  -18.0779   19.8840 C   0  0  0  0  0  0
  -30.3078  -19.8153   21.0701 C   0  0  0  0  0  0
  -27.1732  -21.8775   21.4658 C   0  0  0  0  0  0
  -26.5210  -17.7541   18.5115 C   0  0  0  0  0  0
  -28.7759  -23.3907   20.0969 C   0  0  0  0  0  0
  -28.0622  -24.8049   20.6272 C   0  0  0  0  0  0
  -28.6268  -21.9782   20.9641 C   0  0  2  0  0  0
  -29.6362  -15.9300   20.5593 N   0  0  0  0  0  0
  -27.5580  -17.2096   19.3195 O   0  0  0  0  0  0
  -31.4985  -20.7758   21.8725 Cl  0  0  0  0  0  0
  -31.4852  -12.6948   19.1654 H   0  0  0  0  0  0
  -30.4422  -11.5555   19.9741 H   0  0  0  0  0  0
  -29.8205  -11.7412   17.5422 H   0  0  0  0  0  0
  -29.6213  -13.4677   17.7045 H   0  0  0  0  0  0
  -27.9260  -11.2764   18.9383 H   0  0  0  0  0  0
  -27.3868  -12.4893   17.8069 H   0  0  0  0  0  0
  -27.6196  -14.2473   19.4483 H   0  0  0  0  0  0
  -28.7517  -12.1903   21.4136 H   0  0  0  0  0  0
  -28.4042  -13.8570   21.7951 H   0  0  0  0  0  0
  -25.2767   -9.5678   22.4757 H   0  0  0  0  0  0
  -24.0002   -7.4631   22.7475 H   0  0  0  0  0  0
  -21.0843   -8.8774   19.8954 H   0  0  0  0  0  0
  -22.3705  -10.9670   19.6164 H   0  0  0  0  0  0
  -21.2007   -7.6148   23.9716 H   0  0  0  0  0  0
  -21.1482   -6.0523   25.9077 H   0  0  0  0  0  0
  -22.0599   -2.7609   23.2847 H   0  0  0  0  0  0
  -22.4088  -11.9862   22.4814 H   0  0  0  0  0  0
  -21.1091  -13.1230   22.2637 H   0  0  0  0  0  0
  -24.6424  -15.8321   20.5505 H   0  0  0  0  0  0
  -26.2556  -15.6511   20.0872 H   0  0  0  0  0  0
  -26.7243  -32.5347   23.1028 H   0  0  0  0  0  0
  -25.0072  -33.9645   25.0347 H   0  0  0  0  0  0
  -22.7396  -31.2918   21.3835 H   0  0  0  0  0  0
  -23.3755  -35.9597   23.3296 H   0  0  0  0  0  0
  -24.3577  -36.8905   22.2058 H   0  0  0  0  0  0
  -23.7243  -37.6462   23.6681 H   0  0  0  0  0  0
  -26.1378  -31.4958   20.6090 H   0  0  0  0  0  0
  -26.8647  -30.7920   22.0198 H   0  0  0  0  0  0
  -28.1366  -28.8640   21.2128 H   0  0  0  0  0  0
  -25.9639  -25.8616   19.0097 H   0  0  0  0  0  0
  -23.9827  -27.2908   18.9962 H   0  0  0  0  0  0
  -23.7958  -30.5687   19.3984 H   0  0  0  0  0  0
  -22.7803  -29.2329   19.8484 H   0  0  0  0  0  0
  -25.1308  -36.1882   25.0812 H   0  0  0  0  0  0
  -21.0000  -28.3294   24.1372 H   0  0  0  0  0  0
  -20.5681  -26.2322   23.3617 H   0  0  0  0  0  0
  -21.6651  -26.7431   22.1201 H   0  0  0  0  0  0
  -19.6922  -25.6288   21.1251 H   0  0  0  0  0  0
  -19.6698  -27.3184   20.6734 H   0  0  0  0  0  0
  -17.4210  -26.6677   21.4025 H   0  0  0  0  0  0
  -18.0341  -26.0077   22.9021 H   0  0  0  0  0  0
  -19.7950  -30.7285   24.2244 H   0  0  0  0  0  0
  -17.5027  -31.6268   24.5164 H   0  0  0  0  0  0
  -15.5363  -30.2981   23.7668 H   0  0  0  0  0  0
  -15.8686  -28.0815   22.7080 H   0  0  0  0  0  0
  -24.5898  -30.7088   25.7739 H   0  0  0  0  0  0
  -24.8899  -32.2921   26.4804 H   0  0  0  0  0  0
  -25.8010  -30.8944   27.0220 H   0  0  0  0  0  0
  -26.2985  -29.6704   24.1263 H   0  0  0  0  0  0
  -27.4012  -29.7266   25.4810 H   0  0  0  0  0  0
  -27.8881  -30.4229   23.9549 H   0  0  0  0  0  0
  -27.2646  -33.3642   26.2037 H   0  0  0  0  0  0
  -28.3884  -32.6871   25.0344 H   0  0  0  0  0  0
  -28.0696  -31.8481   26.5448 H   0  0  0  0  0  0
  -28.2590  -38.0091   24.7510 H   0  0  0  0  0  0
  -28.1077  -36.2620   24.6295 H   0  0  0  0  0  0
  -27.2293  -37.1442   25.8868 H   0  0  0  0  0  0
  -20.9443  -29.8758   21.6815 H   0  0  0  0  0  0
  -26.0160  -38.2825   24.1408 H   0  0  0  0  0  0
  -27.3296  -19.9146   19.5393 H   0  0  0  0  0  0
  -31.4430  -17.9997   21.4758 H   0  0  0  0  0  0
  -27.0541  -21.0451   22.1605 H   0  0  0  0  0  0
  -26.4719  -21.7310   20.6444 H   0  0  0  0  0  0
  -26.8645  -22.7724   22.0046 H   0  0  0  0  0  0
  -25.9908  -16.9440   18.0110 H   0  0  0  0  0  0
  -26.9152  -18.4126   17.7360 H   0  0  0  0  0  0
  -25.7921  -18.2985   19.1131 H   0  0  0  0  0  0
  -29.8422  -23.5818   19.9753 H   0  0  0  0  0  0
  -28.4047  -23.2034   19.0894 H   0  0  0  0  0  0
  -28.2856  -24.8532   21.6932 H   0  0  0  0  0  0
  -26.9889  -24.6231   20.5996 H   0  0  0  0  0  0
  -29.1949  -22.1899   21.8697 H   0  0  0  0  0  0
  -28.6974  -15.5661   20.6046 H   0  0  0  0  0  0
  1 25  1  0  0  0
  1 30  2  0  0  0
  1 82  1  0  0  0
  2  3  1  0  0  0
  2 25  1  0  0  0
  2 85  1  0  0  0
  2 86  1  0  0  0
  3  4  1  0  0  0
  3 87  1  0  0  0
  3 88  1  0  0  0
  4  5  1  0  0  0
  4 89  1  0  0  0
  4 90  1  0  0  0
  5  6  1  0  0  0
  5 26  1  0  0  0
  5 91  1  0  0  0
  6 25  1  0  0  0
  6 92  1  0  0  0
  6 93  1  0  0  0
  7  8  2  0  0  0
  7 26  1  0  0  0
  7 29  1  0  0  0
  8  9  1  0  0  0
  8 22  1  0  0  0
  9 10  1  0  0  0
  9 27  2  0  0  0
 10 11  2  0  0  0
 10 15  1  0  0  0
 11 12  1  0  0  0
 11 94  1  0  0  0
 12 13  2  0  0  0
 12 95  1  0  0  0
 13 14  1  0  0  0
 13 31  1  0  0  0
 14 15  2  0  0  0
 14 96  1  0  0  0
 15 97  1  0  0  0
 16 17  2  0  0  0
 16 21  1  0  0  0
 16 31  1  0  0  0
 17 18  1  0  0  0
 17 98  1  0  0  0
 18 19  2  0  0  0
 18 99  1  0  0  0
 19 20  1  0  0  0
 19 24  1  0  0  0
 20 21  2  0  0  0
 20100  1  0  0  0
 21 23  1  0  0  0
 22 28  1  0  0  0
 22 32  2  0  0  0
 26 27  1  0  0  0
 28101  1  0  0  0
 28102  1  0  0  0
 29103  1  0  0  0
 29104  1  0  0  0
 33 34  1  0  0  0
 33 66  1  0  0  0
 33 70  2  0  0  0
 34 36  1  0  0  0
 34 59  1  0  0  0
 34105  1  0  0  0
 35 44  2  0  0  0
 35 45  1  0  0  0
 35 68  1  0  0  0
 36 56  1  0  0  0
 36106  1  0  0  0
 37 39  1  0  0  0
 37 47  1  0  0  0
 37 66  1  0  0  0
 37107  1  0  0  0
 38 43  2  0  0  0
 38 46  1  0  0  0
 38 47  1  0  0  0
 39 64  1  0  0  0
 39 67  2  0  0  0
 40 52  1  0  0  0
 40 53  2  0  0  0
 40 58  1  0  0  0
 41108  1  0  0  0
 41109  1  0  0  0
 41110  1  0  0  0
 41 48  1  0  0  0
 42 43  1  0  0  0
 42 66  1  0  0  0
 42111  1  0  0  0
 42112  1  0  0  0
 43 44  1  0  0  0
 44113  1  0  0  0
 45 46  2  0  0  0
 45114  1  0  0  0
 46115  1  0  0  0
 47116  1  0  0  0
 47117  1  0  0  0
 48 56  1  0  0  0
 48 65  1  0  0  0
 48118  1  0  0  0
 49 50  1  0  0  0
 49 53  1  0  0  0
 49 64  1  0  0  0
 49119  1  0  0  0
 50 51  1  0  0  0
 50120  1  0  0  0
 50121  1  0  0  0
 51 52  1  0  0  0
 51122  1  0  0  0
 51123  1  0  0  0
 52124  1  0  0  0
 52125  1  0  0  0
 53 54  1  0  0  0
 54 55  2  0  0  0
 54126  1  0  0  0
 55 57  1  0  0  0
 55127  1  0  0  0
 56 69  2  0  0  0
 57 58  2  0  0  0
 57128  1  0  0  0
 58129  1  0  0  0
 59 60  1  0  0  0
 59 61  1  0  0  0
 59 62  1  0  0  0
 60130  1  0  0  0
 60131  1  0  0  0
 60132  1  0  0  0
 61133  1  0  0  0
 61134  1  0  0  0
 61135  1  0  0  0
 62136  1  0  0  0
 62137  1  0  0  0
 62138  1  0  0  0
 63 65  1  0  0  0
 63139  1  0  0  0
 63140  1  0  0  0
 63141  1  0  0  0
 64142  1  0  0  0
 65143  1  0  0  0
 68 80  1  0  0  0
 71 73  2  0  0  0
 71 75  1  0  0  0
 71144  1  0  0  0
 72 74  1  0  0  0
 72 76  2  0  0  0
 72145  1  0  0  0
 73 76  1  0  0  0
 73 81  1  0  0  0
 74 75  2  0  0  0
 74 82  1  0  0  0
 75 83  1  0  0  0
 76 84  1  0  0  0
 77146  1  0  0  0
 77147  1  0  0  0
 77148  1  0  0  0
 77 81  1  0  0  0
 78 83  1  0  0  0
 78149  1  0  0  0
 78150  1  0  0  0
 78151  1  0  0  0
 79 80  1  0  0  0
 79 81  1  0  0  0
 79152  1  0  0  0
 79153  1  0  0  0
 80154  1  0  0  0
 80155  1  0  0  0
 81156  1  0  0  0
 82157  1  0  0  0
M  ISO  4   1 100  68 101  80 101  82 100
M  END
> <chiral flag>
0

> <version>
0

> <s_m_source_file>
/data/baiqing/PycharmProjects/Reinvent-master-3.2/result/LINK_invent/BTK/process_docking_weight1_custom_sum_contain_oxygen_bond_distance_aromatic_linkinvent_7_9_3/rearranged_h_0022.sdf

> <i_m_source_file_index>
51

> <r_mmod_Potential_Energy-OPLS-2005>
365.804931640625

> <r_mmod_Stretch_Energy-OPLS-2005>
190.345245361328

> <r_mmod_Bend_Energy-OPLS-2005>
244.986190795898

> <r_mmod_Torsional_Energy-OPLS-2005>
258.714935302734

> <r_mmod_Improper_Torsional_Energy-OPLS-2005>
8.74602603912354

> <r_mmod_Van_der_Waal_Energy-OPLS-2005>
134.603729248047

> <r_mmod_Electrostatic_Energy-OPLS-2005>
-410.728790283203

> <r_mmod_Solvation_Energy-OPLS-2005>
-199.93830871582

> <b_mmod_Minimization_Converged-OPLS-2005>
0

> <r_mmod_RMS_Derivative-OPLS-2005>
0.123244188725948

$$$$
51
                    3D
 Structure written by MMmdl.
168176  0  0  1  0            999 V2000
  -30.7776  -14.3900   20.6724 C   0  0  0  0  0  0
  -30.4160  -12.2949   19.4178 C   0  0  0  0  0  0
  -29.4944  -12.5278   18.2061 C   0  0  0  0  0  0
  -28.0169  -12.3852   18.6151 C   0  0  0  0  0  0
  -27.6689  -13.2098   19.8833 C   0  0  2  0  0  0
  -28.7062  -12.9746   21.0056 C   0  0  0  0  0  0
  -25.2616  -13.8175   20.5685 C   0  0  0  0  0  0
  -24.1857  -13.0451   20.9158 C   0  0  0  0  0  0
  -24.6417  -11.6917   20.8707 C   0  0  0  0  0  0
  -23.9071  -10.4303   21.0378 C   0  0  0  0  0  0
  -24.3623   -9.4226   21.9160 C   0  0  0  0  0  0
  -23.6302   -8.2259   22.0745 C   0  0  0  0  0  0
  -22.4285   -8.0284   21.3540 C   0  0  0  0  0  0
  -21.9912   -9.0259   20.4644 C   0  0  0  0  0  0
  -22.7236  -10.2142   20.3040 C   0  0  0  0  0  0
  -21.6863   -6.0736   22.5277 C   0  0  0  0  0  0
  -21.4018   -6.5641   23.8212 C   0  0  0  0  0  0
  -21.3656   -5.6785   24.9171 C   0  0  0  0  0  0
  -21.6046   -4.3048   24.7219 C   0  0  0  0  0  0
  -21.8818   -3.8148   23.4342 C   0  0  0  0  0  0
  -21.9199   -4.6964   22.3400 C   0  0  0  0  0  0
  -22.7877  -13.5246   21.1821 C   0  0  0  0  0  0
  -22.1667   -4.2153   21.0969 F   0  0  0  0  0  0
  -21.5637   -3.4529   25.7731 F   0  0  0  0  0  0
  -30.0516  -13.2562   20.4711 N   0  0  0  0  0  0
  -26.3068  -12.9351   20.3393 N   0  0  0  0  0  0
  -25.9352  -11.6501   20.5760 N   0  0  0  0  0  0
  -22.0512  -12.8245   22.0375 N   0  0  0  0  0  0
  -25.4345  -15.1894   20.4101 N   0  0  0  0  0  0
  -31.8062  -14.6290   20.0357 O   0  0  0  0  0  0
  -21.6655   -6.8880   21.4240 O   0  0  0  0  0  0
  -22.3558  -14.5544   20.6659 O   0  0  0  0  0  0
  -24.6109  -31.8717   23.2136 C   0  0  0  0  0  0
  -25.9020  -32.4851   23.8418 C   0  0  1  0  0  0
  -27.2380  -27.4733   20.0894 C   0  0  0  0  0  0
  -25.5882  -33.8645   24.2340 N   0  0  0  0  0  0
  -23.3982  -30.4942   21.5528 C   0  0  2  0  0  0
  -24.8468  -28.9655   20.1136 C   0  0  0  0  0  0
  -22.7402  -29.4668   22.5009 C   0  0  0  0  0  0
  -18.0268  -28.1389   22.8491 C   0  0  0  0  0  0
  -24.1481  -36.7320   23.2641 C   0  0  0  0  0  0
  -25.9235  -30.8457   21.3668 C   0  0  0  0  0  0
  -26.0012  -29.4824   20.7161 C   0  0  0  0  0  0
  -27.1996  -28.7397   20.7112 C   0  0  0  0  0  0
  -26.0751  -26.9650   19.4787 C   0  0  0  0  0  0
  -24.8753  -27.7025   19.4952 C   0  0  0  0  0  0
  -23.6076  -29.8281   20.1659 C   0  0  0  0  0  0
  -25.4111  -36.3123   24.0335 C   0  0  1  0  0  0
  -20.5861  -28.3663   23.1339 C   0  0  2  0  0  0
  -20.6761  -26.9402   22.5431 C   0  0  0  0  0  0
  -19.5740  -26.6385   21.5227 C   0  0  0  0  0  0
  -18.1917  -26.7931   22.1631 C   0  0  0  0  0  0
  -19.1514  -28.8838   23.2912 C   0  0  0  0  0  0
  -18.9450  -30.1447   23.8925 C   0  0  0  0  0  0
  -17.6451  -30.6591   24.0568 C   0  0  0  0  0  0
  -25.9037  -34.9492   23.5132 C   0  0  0  0  0  0
  -16.5343  -29.9100   23.6323 C   0  0  0  0  0  0
  -16.7256  -28.6518   23.0334 C   0  0  0  0  0  0
  -26.4462  -31.6620   25.0730 C   0  0  0  0  0  0
  -25.3736  -31.3738   26.1478 C   0  0  0  0  0  0
  -27.0285  -30.3056   24.6101 C   0  0  0  0  0  0
  -27.6020  -32.4353   25.7509 C   0  0  0  0  0  0
  -27.5579  -37.1822   24.8459 C   0  0  0  0  0  0
  -21.4126  -29.3029   22.3749 N   0  0  0  0  0  0
  -26.4296  -37.3809   23.9401 N   0  0  0  0  0  0
  -24.6618  -31.0848   22.1036 N   0  0  0  0  0  0
  -23.4192  -28.8209   23.3032 O   0  0  0  0  0  0
  -28.3813  -26.7170   20.0478 O   0  0  0  0  0  0
  -26.5596  -34.8933   22.4696 O   0  0  0  0  0  0
  -23.5306  -32.1467   23.7533 O   0  0  0  0  0  0
  -31.6463  -17.3065   21.2338 C   0  0  0  0  0  0
  -30.7475  -18.3211   23.7068 C   0  0  0  0  0  0
  -31.6585  -19.0880   22.9216 C   0  0  0  0  0  0
  -30.7881  -16.5104   22.0274 C   0  0  0  0  0  0
  -32.0853  -18.5676   21.6742 C   0  0  0  0  0  0
  -30.3303  -17.0387   23.2564 C   0  0  0  0  0  0
  -30.1991  -18.8291   25.0400 C   0  0  0  0  0  0
  -32.2135  -20.4397   23.3962 C   0  0  0  0  0  0
  -31.6997  -25.4545   23.1529 C   0  0  0  0  0  0
  -30.7879  -26.6894   23.0066 C   0  0  0  0  0  0
  -31.0280  -24.0857   22.9219 C   0  0  0  0  0  0
  -30.2409  -26.9614   21.5920 C   0  0  0  0  0  0
  -31.9402  -22.9074   23.3303 C   0  0  0  0  0  0
  -28.8754  -26.3139   21.3211 C   0  0  0  0  0  0
  -30.3234  -15.2110   21.6365 N   0  0  0  0  0  0
  -31.3607  -21.5840   23.0003 N   0  3  0  0  0  0
  -33.1479  -19.4566   20.6379 Cl  0  0  0  0  0  0
  -29.2408  -16.0894   24.2152 Cl  0  0  0  0  0  0
  -31.4626  -12.3760   19.1186 H   0  0  0  0  0  0
  -30.3009  -11.2780   19.7948 H   0  0  0  0  0  0
  -29.7340  -11.8194   17.4124 H   0  0  0  0  0  0
  -29.6739  -13.5219   17.7931 H   0  0  0  0  0  0
  -27.8197  -11.3279   18.7937 H   0  0  0  0  0  0
  -27.3691  -12.6790   17.7885 H   0  0  0  0  0  0
  -27.7211  -14.2625   19.6041 H   0  0  0  0  0  0
  -28.6677  -11.9381   21.3455 H   0  0  0  0  0  0
  -28.4517  -13.5730   21.8809 H   0  0  0  0  0  0
  -25.2771   -9.5714   22.4733 H   0  0  0  0  0  0
  -24.0024   -7.4651   22.7465 H   0  0  0  0  0  0
  -21.0845   -8.8768   19.8946 H   0  0  0  0  0  0
  -22.3684  -10.9677   19.6151 H   0  0  0  0  0  0
  -21.1997   -7.6146   23.9719 H   0  0  0  0  0  0
  -21.1485   -6.0511   25.9075 H   0  0  0  0  0  0
  -22.0599   -2.7611   23.2840 H   0  0  0  0  0  0
  -22.4122  -11.9936   22.4819 H   0  0  0  0  0  0
  -21.1117  -13.1270   22.2530 H   0  0  0  0  0  0
  -24.6722  -15.8482   20.5258 H   0  0  0  0  0  0
  -26.2971  -15.6304   20.1153 H   0  0  0  0  0  0
  -26.7096  -32.5590   23.1198 H   0  0  0  0  0  0
  -25.0006  -33.9830   25.0457 H   0  0  0  0  0  0
  -22.6850  -31.3093   21.4147 H   0  0  0  0  0  0
  -23.3740  -35.9654   23.3329 H   0  0  0  0  0  0
  -24.3558  -36.8921   22.2046 H   0  0  0  0  0  0
  -23.7245  -37.6538   23.6641 H   0  0  0  0  0  0
  -26.0380  -31.6128   20.5998 H   0  0  0  0  0  0
  -26.8117  -30.8969   21.9861 H   0  0  0  0  0  0
  -28.0897  -29.1417   21.1738 H   0  0  0  0  0  0
  -26.0979  -25.9974   18.9962 H   0  0  0  0  0  0
  -23.9884  -27.3032   19.0235 H   0  0  0  0  0  0
  -23.7169  -30.6041   19.4072 H   0  0  0  0  0  0
  -22.7342  -29.2452   19.8703 H   0  0  0  0  0  0
  -25.1295  -36.1988   25.0831 H   0  0  0  0  0  0
  -20.9947  -28.3216   24.1460 H   0  0  0  0  0  0
  -20.5679  -26.2269   23.3612 H   0  0  0  0  0  0
  -21.6637  -26.7453   22.1217 H   0  0  0  0  0  0
  -19.6900  -25.6299   21.1246 H   0  0  0  0  0  0
  -19.6687  -27.3209   20.6771 H   0  0  0  0  0  0
  -17.4193  -26.6684   21.4021 H   0  0  0  0  0  0
  -18.0296  -26.0080   22.9034 H   0  0  0  0  0  0
  -19.7927  -30.7251   24.2308 H   0  0  0  0  0  0
  -17.5014  -31.6273   24.5164 H   0  0  0  0  0  0
  -15.5352  -30.3016   23.7632 H   0  0  0  0  0  0
  -15.8654  -28.0861   22.7024 H   0  0  0  0  0  0
  -24.5849  -30.7163   25.7803 H   0  0  0  0  0  0
  -24.9002  -32.2909   26.4990 H   0  0  0  0  0  0
  -25.8075  -30.8830   27.0198 H   0  0  0  0  0  0
  -26.2824  -29.6855   24.1110 H   0  0  0  0  0  0
  -27.3994  -29.7262   25.4569 H   0  0  0  0  0  0
  -27.8699  -30.4366   23.9295 H   0  0  0  0  0  0
  -27.2590  -33.3615   26.2141 H   0  0  0  0  0  0
  -28.3800  -32.7014   25.0339 H   0  0  0  0  0  0
  -28.0718  -31.8471   26.5407 H   0  0  0  0  0  0
  -28.2614  -38.0103   24.7493 H   0  0  0  0  0  0
  -28.1066  -36.2639   24.6301 H   0  0  0  0  0  0
  -27.2292  -37.1488   25.8863 H   0  0  0  0  0  0
  -20.9279  -29.8768   21.6995 H   0  0  0  0  0  0
  -26.0185  -38.2891   24.1404 H   0  0  0  0  0  0
  -31.9940  -16.9766   20.2691 H   0  0  0  0  0  0
  -30.4115  -19.8767   25.2440 H   0  0  0  0  0  0
  -30.6052  -18.2376   25.8625 H   0  0  0  0  0  0
  -29.1117  -18.7290   25.0612 H   0  0  0  0  0  0
  -33.2183  -20.5892   23.0011 H   0  0  0  0  0  0
  -32.3613  -20.4326   24.4752 H   0  0  0  0  0  0
  -32.1106  -25.4713   24.1638 H   0  0  0  0  0  0
  -32.5573  -25.5571   22.4863 H   0  0  0  0  0  0
  -31.3808  -27.5593   23.2963 H   0  0  0  0  0  0
  -29.9719  -26.6472   23.7298 H   0  0  0  0  0  0
  -30.7675  -23.9892   21.8683 H   0  0  0  0  0  0
  -30.0957  -24.0366   23.4852 H   0  0  0  0  0  0
  -30.9641  -26.6580   20.8335 H   0  0  0  0  0  0
  -30.1278  -28.0397   21.4768 H   0  0  0  0  0  0
  -32.1356  -22.9541   24.4017 H   0  0  0  0  0  0
  -32.9064  -23.0079   22.8318 H   0  0  0  0  0  0
  -28.1758  -26.5466   22.1281 H   0  0  0  0  0  0
  -28.9637  -25.2297   21.3078 H   0  0  0  0  0  0
  -29.5581  -14.8482   22.1849 H   0  0  0  0  0  0
  -30.4669  -21.4902   23.4519 H   0  0  0  0  0  0
  -31.2110  -21.5385   22.0062 H   0  0  0  0  0  0
  1 25  1  0  0  0
  1 30  2  0  0  0
  1 85  1  0  0  0
  2  3  1  0  0  0
  2 25  1  0  0  0
  2 89  1  0  0  0
  2 90  1  0  0  0
  3  4  1  0  0  0
  3 91  1  0  0  0
  3 92  1  0  0  0
  4  5  1  0  0  0
  4 93  1  0  0  0
  4 94  1  0  0  0
  5  6  1  0  0  0
  5 26  1  0  0  0
  5 95  1  0  0  0
  6 25  1  0  0  0
  6 96  1  0  0  0
  6 97  1  0  0  0
  7  8  2  0  0  0
  7 26  1  0  0  0
  7 29  1  0  0  0
  8  9  1  0  0  0
  8 22  1  0  0  0
  9 10  1  0  0  0
  9 27  2  0  0  0
 10 11  2  0  0  0
 10 15  1  0  0  0
 11 12  1  0  0  0
 11 98  1  0  0  0
 12 13  2  0  0  0
 12 99  1  0  0  0
 13 14  1  0  0  0
 13 31  1  0  0  0
 14 15  2  0  0  0
 14100  1  0  0  0
 15101  1  0  0  0
 16 17  2  0  0  0
 16 21  1  0  0  0
 16 31  1  0  0  0
 17 18  1  0  0  0
 17102  1  0  0  0
 18 19  2  0  0  0
 18103  1  0  0  0
 19 20  1  0  0  0
 19 24  1  0  0  0
 20 21  2  0  0  0
 20104  1  0  0  0
 21 23  1  0  0  0
 22 28  1  0  0  0
 22 32  2  0  0  0
 26 27  1  0  0  0
 28105  1  0  0  0
 28106  1  0  0  0
 29107  1  0  0  0
 29108  1  0  0  0
 33 34  1  0  0  0
 33 66  1  0  0  0
 33 70  2  0  0  0
 34 36  1  0  0  0
 34 59  1  0  0  0
 34109  1  0  0  0
 35 44  2  0  0  0
 35 45  1  0  0  0
 35 68  1  0  0  0
 36 56  1  0  0  0
 36110  1  0  0  0
 37 39  1  0  0  0
 37 47  1  0  0  0
 37 66  1  0  0  0
 37111  1  0  0  0
 38 43  2  0  0  0
 38 46  1  0  0  0
 38 47  1  0  0  0
 39 64  1  0  0  0
 39 67  2  0  0  0
 40 52  1  0  0  0
 40 53  2  0  0  0
 40 58  1  0  0  0
 41112  1  0  0  0
 41113  1  0  0  0
 41114  1  0  0  0
 41 48  1  0  0  0
 42 43  1  0  0  0
 42 66  1  0  0  0
 42115  1  0  0  0
 42116  1  0  0  0
 43 44  1  0  0  0
 44117  1  0  0  0
 45 46  2  0  0  0
 45118  1  0  0  0
 46119  1  0  0  0
 47120  1  0  0  0
 47121  1  0  0  0
 48 56  1  0  0  0
 48 65  1  0  0  0
 48122  1  0  0  0
 49 50  1  0  0  0
 49 53  1  0  0  0
 49 64  1  0  0  0
 49123  1  0  0  0
 50 51  1  0  0  0
 50124  1  0  0  0
 50125  1  0  0  0
 51 52  1  0  0  0
 51126  1  0  0  0
 51127  1  0  0  0
 52128  1  0  0  0
 52129  1  0  0  0
 53 54  1  0  0  0
 54 55  2  0  0  0
 54130  1  0  0  0
 55 57  1  0  0  0
 55131  1  0  0  0
 56 69  2  0  0  0
 57 58  2  0  0  0
 57132  1  0  0  0
 58133  1  0  0  0
 59 60  1  0  0  0
 59 61  1  0  0  0
 59 62  1  0  0  0
 60134  1  0  0  0
 60135  1  0  0  0
 60136  1  0  0  0
 61137  1  0  0  0
 61138  1  0  0  0
 61139  1  0  0  0
 62140  1  0  0  0
 62141  1  0  0  0
 62142  1  0  0  0
 63 65  1  0  0  0
 63143  1  0  0  0
 63144  1  0  0  0
 63145  1  0  0  0
 64146  1  0  0  0
 65147  1  0  0  0
 68 84  1  0  0  0
 71 74  2  0  0  0
 71 75  1  0  0  0
 71148  1  0  0  0
 72 73  1  0  0  0
 72 76  2  0  0  0
 72 77  1  0  0  0
 73 75  2  0  0  0
 73 78  1  0  0  0
 74 76  1  0  0  0
 74 85  1  0  0  0
 75 87  1  0  0  0
 76 88  1  0  0  0
 77149  1  0  0  0
 77150  1  0  0  0
 77151  1  0  0  0
 78 86  1  0  0  0
 78152  1  0  0  0
 78153  1  0  0  0
 79 80  1  0  0  0
 79 81  1  0  0  0
 79154  1  0  0  0
 79155  1  0  0  0
 80 82  1  0  0  0
 80156  1  0  0  0
 80157  1  0  0  0
 81 83  1  0  0  0
 81158  1  0  0  0
 81159  1  0  0  0
 82 84  1  0  0  0
 82160  1  0  0  0
 82161  1  0  0  0
 83 86  1  0  0  0
 83162  1  0  0  0
 83163  1  0  0  0
 84164  1  0  0  0
 84165  1  0  0  0
 85166  1  0  0  0
 86167  1  0  0  0
 86168  1  0  0  0
M  CHG  1  86   1
M  ISO  4   1 100  68 101  84 101  85 100
M  END
> <chiral flag>
0

> <version>
0

> <s_m_source_file>
/data/baiqing/PycharmProjects/Reinvent-master-3.2/result/LINK_invent/BTK/process_docking_weight1_custom_sum_contain_oxygen_bond_distance_aromatic_linkinvent_7_9_3/rearranged_h_0022.sdf

> <i_m_source_file_index>
52

> <r_mmod_Potential_Energy-OPLS-2005>
-251.088394165039

> <r_mmod_Stretch_Energy-OPLS-2005>
37.0574989318848

> <r_mmod_Bend_Energy-OPLS-2005>
99.3135833740234

> <r_mmod_Torsional_Energy-OPLS-2005>
223.177825927734

> <r_mmod_Improper_Torsional_Energy-OPLS-2005>
1.81311643123627

> <r_mmod_Van_der_Waal_Energy-OPLS-2005>
160.418930053711

> <r_mmod_Electrostatic_Energy-OPLS-2005>
-313.839996337891

> <r_mmod_Solvation_Energy-OPLS-2005>
-466.168090820312

> <b_mmod_Minimization_Converged-OPLS-2005>
0

> <r_mmod_RMS_Derivative-OPLS-2005>
2.12846279144287

$$$$
52
                    3D
 Structure written by MMmdl.
170178  0  0  1  0            999 V2000
  -30.6016  -14.7100   20.5028 C   0  0  0  0  0  0
  -30.4373  -12.4422   19.4432 C   0  0  0  0  0  0
  -29.4980  -12.5033   18.2190 C   0  0  0  0  0  0
  -28.0259  -12.3254   18.6435 C   0  0  0  0  0  0
  -27.6417  -13.2175   19.8525 C   0  0  2  0  0  0
  -28.6927  -13.1200   20.9765 C   0  0  0  0  0  0
  -25.2521  -13.8187   20.5703 C   0  0  0  0  0  0
  -24.1793  -13.0446   20.9219 C   0  0  0  0  0  0
  -24.6368  -11.6918   20.8771 C   0  0  0  0  0  0
  -23.9043  -10.4306   21.0430 C   0  0  0  0  0  0
  -24.3608   -9.4215   21.9194 C   0  0  0  0  0  0
  -23.6293   -8.2239   22.0754 C   0  0  0  0  0  0
  -22.4273   -8.0275   21.3542 C   0  0  0  0  0  0
  -21.9910   -9.0250   20.4642 C   0  0  0  0  0  0
  -22.7232  -10.2130   20.3063 C   0  0  0  0  0  0
  -21.6849   -6.0727   22.5275 C   0  0  0  0  0  0
  -21.4013   -6.5636   23.8205 C   0  0  0  0  0  0
  -21.3659   -5.6795   24.9172 C   0  0  0  0  0  0
  -21.6049   -4.3061   24.7227 C   0  0  0  0  0  0
  -21.8817   -3.8142   23.4352 C   0  0  0  0  0  0
  -21.9190   -4.6952   22.3405 C   0  0  0  0  0  0
  -22.7809  -13.5207   21.1899 C   0  0  0  0  0  0
  -22.1654   -4.2147   21.0980 F   0  0  0  0  0  0
  -21.5634   -3.4546   25.7737 F   0  0  0  0  0  0
  -29.9864  -13.4875   20.3836 N   0  0  0  0  0  0
  -26.2922  -12.9358   20.3309 N   0  0  0  0  0  0
  -25.9295  -11.6511   20.5781 N   0  0  0  0  0  0
  -22.0484  -12.8147   22.0446 N   0  0  0  0  0  0
  -25.4274  -15.1903   20.4113 N   0  0  0  0  0  0
  -31.8084  -14.8378   20.2817 O   0  0  0  0  0  0
  -21.6624   -6.8867   21.4237 O   0  0  0  0  0  0
  -22.3478  -14.5530   20.6781 O   0  0  0  0  0  0
  -24.6302  -31.8578   23.2015 C   0  0  0  0  0  0
  -25.9117  -32.4776   23.8353 C   0  0  1  0  0  0
  -27.2183  -27.2742   20.1242 C   0  0  0  0  0  0
  -25.5929  -33.8575   24.2251 N   0  0  0  0  0  0
  -23.4270  -30.4811   21.5446 C   0  0  2  0  0  0
  -24.8767  -28.9360   20.1061 C   0  0  0  0  0  0
  -22.7498  -29.4581   22.4890 C   0  0  0  0  0  0
  -18.0286  -28.1403   22.8442 C   0  0  0  0  0  0
  -24.1490  -36.7286   23.2634 C   0  0  0  0  0  0
  -25.9752  -30.7741   21.3809 C   0  0  0  0  0  0
  -26.0470  -29.4001   20.7175 C   0  0  0  0  0  0
  -27.2228  -28.5808   20.7175 C   0  0  0  0  0  0
  -26.0237  -26.8837   19.4737 C   0  0  0  0  0  0
  -24.8679  -27.6854   19.4728 C   0  0  0  0  0  0
  -23.6452  -29.8213   20.1584 C   0  0  0  0  0  0
  -25.4128  -36.3084   24.0318 C   0  0  1  0  0  0
  -20.5906  -28.3692   23.1268 C   0  0  2  0  0  0
  -20.6781  -26.9405   22.5424 C   0  0  0  0  0  0
  -19.5765  -26.6396   21.5201 C   0  0  0  0  0  0
  -18.1930  -26.7931   22.1610 C   0  0  0  0  0  0
  -19.1556  -28.8858   23.2833 C   0  0  0  0  0  0
  -18.9474  -30.1446   23.8872 C   0  0  0  0  0  0
  -17.6490  -30.6593   24.0553 C   0  0  0  0  0  0
  -25.9071  -34.9456   23.5101 C   0  0  0  0  0  0
  -16.5360  -29.9082   23.6344 C   0  0  0  0  0  0
  -16.7274  -28.6524   23.0327 C   0  0  0  0  0  0
  -26.4482  -31.6583   25.0732 C   0  0  0  0  0  0
  -25.3668  -31.3748   26.1424 C   0  0  0  0  0  0
  -27.0348  -30.3018   24.6201 C   0  0  0  0  0  0
  -27.6051  -32.4327   25.7494 C   0  0  0  0  0  0
  -27.5582  -37.1783   24.8455 C   0  0  0  0  0  0
  -21.4214  -29.3017   22.3625 N   0  0  0  0  0  0
  -26.4297  -37.3775   23.9409 N   0  0  0  0  0  0
  -24.6965  -31.0541   22.0990 N   0  0  0  0  0  0
  -23.4186  -28.8077   23.2971 O   0  0  0  0  0  0
  -28.3084  -26.3753   20.1966 O   0  0  0  0  0  0
  -26.5644  -34.8913   22.4666 O   0  0  0  0  0  0
  -23.5456  -32.1385   23.7328 O   0  0  0  0  0  0
  -30.9703  -21.3014   20.8536 C   0  0  0  0  0  0
  -31.5364  -18.9338   21.1538 C   0  0  0  0  0  0
  -29.5999  -21.0076   20.6967 C   0  0  0  0  0  0
  -30.1833  -18.5383   21.0462 C   0  0  0  0  0  0
  -31.9240  -20.2925   21.1029 C   0  0  0  0  0  0
  -29.2204  -19.6051   20.8167 C   0  0  0  0  0  0
  -32.9636  -20.2425   23.7851 C   0  0  0  0  0  0
  -34.8891  -19.2506   22.5074 C   0  0  0  0  0  0
  -34.7677  -21.7217   22.9540 C   0  0  0  0  0  0
  -33.9800  -21.0618   20.1105 C   0  0  0  0  0  0
  -28.5920  -22.2123   20.4386 C   0  0  0  0  0  0
  -29.8598  -17.0489   21.5049 C   0  0  0  0  0  0
  -29.0735  -23.7588   20.4727 C   0  0  0  0  0  0
  -28.0254  -24.9087   20.0566 C   0  0  0  0  0  0
  -33.9460  -20.4628   22.6077 C   0  0  0  0  0  0
  -29.7704  -15.8029   20.6430 N   0  0  0  0  0  0
  -33.2552  -20.6844   21.3232 N   0  0  0  0  0  0
  -27.5414  -19.2033   20.7530 Cl  0  0  0  0  0  0
  -31.4747  -12.5896   19.1351 H   0  0  0  0  0  0
  -30.3963  -11.4594   19.9138 H   0  0  0  0  0  0
  -29.7732  -11.7395   17.4910 H   0  0  0  0  0  0
  -29.6172  -13.4611   17.7109 H   0  0  0  0  0  0
  -27.8805  -11.2753   18.9022 H   0  0  0  0  0  0
  -27.3631  -12.5250   17.8014 H   0  0  0  0  0  0
  -27.6453  -14.2421   19.4840 H   0  0  0  0  0  0
  -28.7311  -12.1095   21.3878 H   0  0  0  0  0  0
  -28.4370  -13.7771   21.8103 H   0  0  0  0  0  0
  -25.2766   -9.5659   22.4758 H   0  0  0  0  0  0
  -24.0004   -7.4606   22.7449 H   0  0  0  0  0  0
  -21.0864   -8.8767   19.8927 H   0  0  0  0  0  0
  -22.3727  -10.9663   19.6155 H   0  0  0  0  0  0
  -21.2011   -7.6142   23.9712 H   0  0  0  0  0  0
  -21.1485   -6.0523   25.9073 H   0  0  0  0  0  0
  -22.0604   -2.7603   23.2854 H   0  0  0  0  0  0
  -22.4116  -11.9767   22.4728 H   0  0  0  0  0  0
  -21.1115  -13.1145   22.2739 H   0  0  0  0  0  0
  -24.6731  -15.8562   20.5437 H   0  0  0  0  0  0
  -26.2774  -15.6278   20.0822 H   0  0  0  0  0  0
  -26.7174  -32.5410   23.1080 H   0  0  0  0  0  0
  -25.0030  -33.9731   25.0364 H   0  0  0  0  0  0
  -22.7224  -31.3024   21.3994 H   0  0  0  0  0  0
  -23.3776  -35.9591   23.3307 H   0  0  0  0  0  0
  -24.3553  -36.8932   22.2044 H   0  0  0  0  0  0
  -23.7249  -37.6484   23.6670 H   0  0  0  0  0  0
  -26.1107  -31.5397   20.6167 H   0  0  0  0  0  0
  -26.8511  -30.8221   22.0152 H   0  0  0  0  0  0
  -28.1149  -28.9181   21.2261 H   0  0  0  0  0  0
  -25.9417  -25.9358   18.9669 H   0  0  0  0  0  0
  -23.9723  -27.3315   18.9822 H   0  0  0  0  0  0
  -23.7685  -30.6015   19.4080 H   0  0  0  0  0  0
  -22.7616  -29.2568   19.8515 H   0  0  0  0  0  0
  -25.1302  -36.1921   25.0813 H   0  0  0  0  0  0
  -20.9966  -28.3307   24.1415 H   0  0  0  0  0  0
  -20.5757  -26.2252   23.3620 H   0  0  0  0  0  0
  -21.6631  -26.7485   22.1166 H   0  0  0  0  0  0
  -19.6966  -25.6308   21.1245 H   0  0  0  0  0  0
  -19.6769  -27.3189   20.6723 H   0  0  0  0  0  0
  -17.4212  -26.6657   21.3998 H   0  0  0  0  0  0
  -18.0320  -26.0091   22.9038 H   0  0  0  0  0  0
  -19.7967  -30.7225   24.2261 H   0  0  0  0  0  0
  -17.5066  -31.6292   24.5125 H   0  0  0  0  0  0
  -15.5362  -30.2992   23.7720 H   0  0  0  0  0  0
  -15.8659  -28.0869   22.7048 H   0  0  0  0  0  0
  -24.5900  -30.7054   25.7719 H   0  0  0  0  0  0
  -24.8774  -32.2908   26.4769 H   0  0  0  0  0  0
  -25.7944  -30.8994   27.0268 H   0  0  0  0  0  0
  -26.2930  -29.6751   24.1260 H   0  0  0  0  0  0
  -27.4052  -29.7300   25.4715 H   0  0  0  0  0  0
  -27.8790  -30.4303   23.9426 H   0  0  0  0  0  0
  -27.2740  -33.3682   26.2003 H   0  0  0  0  0  0
  -28.3909  -32.6807   25.0348 H   0  0  0  0  0  0
  -28.0647  -31.8496   26.5465 H   0  0  0  0  0  0
  -28.2567  -38.0102   24.7527 H   0  0  0  0  0  0
  -28.1120  -36.2638   24.6276 H   0  0  0  0  0  0
  -27.2279  -37.1409   25.8845 H   0  0  0  0  0  0
  -20.9381  -29.8775   21.6867 H   0  0  0  0  0  0
  -26.0197  -38.2860   24.1447 H   0  0  0  0  0  0
  -31.3051  -22.3267   20.8173 H   0  0  0  0  0  0
  -32.2843  -18.1855   21.3729 H   0  0  0  0  0  0
  -33.5050  -20.1484   24.7280 H   0  0  0  0  0  0
  -32.3752  -19.3298   23.6861 H   0  0  0  0  0  0
  -32.2693  -21.0761   23.9034 H   0  0  0  0  0  0
  -35.4645  -19.1225   23.4237 H   0  0  0  0  0  0
  -35.6095  -19.3477   21.6960 H   0  0  0  0  0  0
  -34.3414  -18.3235   22.3419 H   0  0  0  0  0  0
  -35.2774  -21.6116   23.9121 H   0  0  0  0  0  0
  -34.1360  -22.6079   23.0302 H   0  0  0  0  0  0
  -35.5344  -21.9350   22.2099 H   0  0  0  0  0  0
  -33.5814  -20.5458   19.2339 H   0  0  0  0  0  0
  -35.0424  -20.8245   20.1760 H   0  0  0  0  0  0
  -33.8937  -22.1358   19.9414 H   0  0  0  0  0  0
  -27.7813  -22.1107   21.1612 H   0  0  0  0  0  0
  -28.1307  -22.0244   19.4669 H   0  0  0  0  0  0
  -28.9018  -17.0955   22.0251 H   0  0  0  0  0  0
  -30.5649  -16.8119   22.3028 H   0  0  0  0  0  0
  -29.9332  -23.8623   19.8128 H   0  0  0  0  0  0
  -29.4395  -23.9864   21.4734 H   0  0  0  0  0  0
  -27.1065  -24.6952   20.6041 H   0  0  0  0  0  0
  -27.7929  -24.7360   19.0042 H   0  0  0  0  0  0
  -28.8129  -15.5463   20.4614 H   0  0  0  0  0  0
  1 25  1  0  0  0
  1 30  2  0  0  0
  1 86  1  0  0  0
  2  3  1  0  0  0
  2 25  1  0  0  0
  2 89  1  0  0  0
  2 90  1  0  0  0
  3  4  1  0  0  0
  3 91  1  0  0  0
  3 92  1  0  0  0
  4  5  1  0  0  0
  4 93  1  0  0  0
  4 94  1  0  0  0
  5  6  1  0  0  0
  5 26  1  0  0  0
  5 95  1  0  0  0
  6 25  1  0  0  0
  6 96  1  0  0  0
  6 97  1  0  0  0
  7  8  2  0  0  0
  7 26  1  0  0  0
  7 29  1  0  0  0
  8  9  1  0  0  0
  8 22  1  0  0  0
  9 10  1  0  0  0
  9 27  2  0  0  0
 10 11  2  0  0  0
 10 15  1  0  0  0
 11 12  1  0  0  0
 11 98  1  0  0  0
 12 13  2  0  0  0
 12 99  1  0  0  0
 13 14  1  0  0  0
 13 31  1  0  0  0
 14 15  2  0  0  0
 14100  1  0  0  0
 15101  1  0  0  0
 16 17  2  0  0  0
 16 21  1  0  0  0
 16 31  1  0  0  0
 17 18  1  0  0  0
 17102  1  0  0  0
 18 19  2  0  0  0
 18103  1  0  0  0
 19 20  1  0  0  0
 19 24  1  0  0  0
 20 21  2  0  0  0
 20104  1  0  0  0
 21 23  1  0  0  0
 22 28  1  0  0  0
 22 32  2  0  0  0
 26 27  1  0  0  0
 28105  1  0  0  0
 28106  1  0  0  0
 29107  1  0  0  0
 29108  1  0  0  0
 33 34  1  0  0  0
 33 66  1  0  0  0
 33 70  2  0  0  0
 34 36  1  0  0  0
 34 59  1  0  0  0
 34109  1  0  0  0
 35 44  2  0  0  0
 35 45  1  0  0  0
 35 68  1  0  0  0
 36 56  1  0  0  0
 36110  1  0  0  0
 37 39  1  0  0  0
 37 47  1  0  0  0
 37 66  1  0  0  0
 37111  1  0  0  0
 38 43  2  0  0  0
 38 46  1  0  0  0
 38 47  1  0  0  0
 39 64  1  0  0  0
 39 67  2  0  0  0
 40 52  1  0  0  0
 40 53  2  0  0  0
 40 58  1  0  0  0
 41112  1  0  0  0
 41113  1  0  0  0
 41114  1  0  0  0
 41 48  1  0  0  0
 42 43  1  0  0  0
 42 66  1  0  0  0
 42115  1  0  0  0
 42116  1  0  0  0
 43 44  1  0  0  0
 44117  1  0  0  0
 45 46  2  0  0  0
 45118  1  0  0  0
 46119  1  0  0  0
 47120  1  0  0  0
 47121  1  0  0  0
 48 56  1  0  0  0
 48 65  1  0  0  0
 48122  1  0  0  0
 49 50  1  0  0  0
 49 53  1  0  0  0
 49 64  1  0  0  0
 49123  1  0  0  0
 50 51  1  0  0  0
 50124  1  0  0  0
 50125  1  0  0  0
 51 52  1  0  0  0
 51126  1  0  0  0
 51127  1  0  0  0
 52128  1  0  0  0
 52129  1  0  0  0
 53 54  1  0  0  0
 54 55  2  0  0  0
 54130  1  0  0  0
 55 57  1  0  0  0
 55131  1  0  0  0
 56 69  2  0  0  0
 57 58  2  0  0  0
 57132  1  0  0  0
 58133  1  0  0  0
 59 60  1  0  0  0
 59 61  1  0  0  0
 59 62  1  0  0  0
 60134  1  0  0  0
 60135  1  0  0  0
 60136  1  0  0  0
 61137  1  0  0  0
 61138  1  0  0  0
 61139  1  0  0  0
 62140  1  0  0  0
 62141  1  0  0  0
 62142  1  0  0  0
 63 65  1  0  0  0
 63143  1  0  0  0
 63144  1  0  0  0
 63145  1  0  0  0
 64146  1  0  0  0
 65147  1  0  0  0
 68 84  1  0  0  0
 71 73  2  0  0  0
 71 75  1  0  0  0
 71148  1  0  0  0
 72 74  1  0  0  0
 72 75  2  0  0  0
 72149  1  0  0  0
 73 76  1  0  0  0
 73 81  1  0  0  0
 74 76  2  0  0  0
 74 82  1  0  0  0
 75 87  1  0  0  0
 76 88  1  0  0  0
 77150  1  0  0  0
 77151  1  0  0  0
 77152  1  0  0  0
 77 85  1  0  0  0
 78 85  1  0  0  0
 78153  1  0  0  0
 78154  1  0  0  0
 78155  1  0  0  0
 79 85  1  0  0  0
 79156  1  0  0  0
 79157  1  0  0  0
 79158  1  0  0  0
 80 87  1  0  0  0
 80159  1  0  0  0
 80160  1  0  0  0
 80161  1  0  0  0
 81 83  1  0  0  0
 81162  1  0  0  0
 81163  1  0  0  0
 82 86  1  0  0  0
 82164  1  0  0  0
 82165  1  0  0  0
 83 84  1  0  0  0
 83166  1  0  0  0
 83167  1  0  0  0
 84168  1  0  0  0
 84169  1  0  0  0
 85 87  1  0  0  0
 86170  1  0  0  0
M  ISO  4   1 100  68 101  84 101  86 100
M  END
> <chiral flag>
0

> <version>
0

> <s_m_source_file>
/data/baiqing/PycharmProjects/Reinvent-master-3.2/result/LINK_invent/BTK/process_docking_weight1_custom_sum_contain_oxygen_bond_distance_aromatic_linkinvent_7_9_3/rearranged_h_0022.sdf

> <i_m_source_file_index>
53

> <r_mmod_Potential_Energy-OPLS-2005>
123.693420410156

> <r_mmod_Stretch_Energy-OPLS-2005>
114.130668640137

> <r_mmod_Bend_Energy-OPLS-2005>
193.262557983398

> <r_mmod_Torsional_Energy-OPLS-2005>
266.207611083984

> <r_mmod_Improper_Torsional_Energy-OPLS-2005>
9.59681606292725

> <r_mmod_Van_der_Waal_Energy-OPLS-2005>
142.707855224609

> <r_mmod_Electrostatic_Energy-OPLS-2005>
-474.117340087891

> <r_mmod_Solvation_Energy-OPLS-2005>
-208.043579101562

> <b_mmod_Minimization_Converged-OPLS-2005>
0

> <r_mmod_RMS_Derivative-OPLS-2005>
4.1044979095459

$$$$
53
                    3D
 Structure written by MMmdl.
159167  0  0  1  0            999 V2000
  -30.5127  -14.9614   20.4189 C   0  0  0  0  0  0
  -30.4480  -12.6045   19.4729 C   0  0  0  0  0  0
  -29.5198  -12.5255   18.2400 C   0  0  0  0  0  0
  -28.0548  -12.3077   18.6668 C   0  0  0  0  0  0
  -27.6284  -13.2403   19.8299 C   0  0  2  0  0  0
  -28.6748  -13.2817   20.9597 C   0  0  0  0  0  0
  -25.2491  -13.8198   20.5717 C   0  0  0  0  0  0
  -24.1815  -13.0441   20.9250 C   0  0  0  0  0  0
  -24.6415  -11.6917   20.8757 C   0  0  0  0  0  0
  -23.9106  -10.4292   21.0406 C   0  0  0  0  0  0
  -24.3656   -9.4207   21.9177 C   0  0  0  0  0  0
  -23.6315   -8.2254   22.0758 C   0  0  0  0  0  0
  -22.4292   -8.0293   21.3546 C   0  0  0  0  0  0
  -21.9933   -9.0281   20.4650 C   0  0  0  0  0  0
  -22.7281  -10.2153   20.3050 C   0  0  0  0  0  0
  -21.6847   -6.0758   22.5285 C   0  0  0  0  0  0
  -21.3997   -6.5657   23.8221 C   0  0  0  0  0  0
  -21.3647   -5.6805   24.9178 C   0  0  0  0  0  0
  -21.6039   -4.3068   24.7219 C   0  0  0  0  0  0
  -21.8810   -3.8170   23.4333 C   0  0  0  0  0  0
  -21.9196   -4.6988   22.3398 C   0  0  0  0  0  0
  -22.7832  -13.5224   21.1872 C   0  0  0  0  0  0
  -22.1668   -4.2175   21.0970 F   0  0  0  0  0  0
  -21.5630   -3.4550   25.7728 F   0  0  0  0  0  0
  -29.9376  -13.6980   20.3410 N   0  0  0  0  0  0
  -26.2900  -12.9409   20.3237 N   0  0  0  0  0  0
  -25.9337  -11.6550   20.5729 N   0  0  0  0  0  0
  -22.0467  -12.8219   22.0409 N   0  0  0  0  0  0
  -25.4130  -15.1936   20.4118 N   0  0  0  0  0  0
  -31.7364  -15.0347   20.2547 O   0  0  0  0  0  0
  -21.6635   -6.8904   21.4246 O   0  0  0  0  0  0
  -22.3537  -14.5539   20.6697 O   0  0  0  0  0  0
  -24.6475  -31.8441   23.1871 C   0  0  0  0  0  0
  -25.9227  -32.4700   23.8273 C   0  0  1  0  0  0
  -27.2049  -27.1197   20.1508 C   0  0  0  0  0  0
  -25.5956  -33.8499   24.2189 N   0  0  0  0  0  0
  -23.4494  -30.4676   21.5332 C   0  0  2  0  0  0
  -24.8929  -28.8940   20.1063 C   0  0  0  0  0  0
  -22.7588  -29.4590   22.4857 C   0  0  0  0  0  0
  -18.0352  -28.1406   22.8479 C   0  0  0  0  0  0
  -24.1492  -36.7260   23.2642 C   0  0  0  0  0  0
  -26.0070  -30.7131   21.3878 C   0  0  0  0  0  0
  -26.0724  -29.3232   20.7278 C   0  0  0  0  0  0
  -27.2294  -28.4529   20.7323 C   0  0  0  0  0  0
  -26.0018  -26.7990   19.4838 C   0  0  0  0  0  0
  -24.8730  -27.6459   19.4674 C   0  0  0  0  0  0
  -23.6714  -29.7987   20.1512 C   0  0  0  0  0  0
  -25.4125  -36.3042   24.0319 C   0  0  1  0  0  0
  -20.5961  -28.3753   23.1248 C   0  0  2  0  0  0
  -20.6854  -26.9460   22.5430 C   0  0  0  0  0  0
  -19.5833  -26.6406   21.5234 C   0  0  0  0  0  0
  -18.2010  -26.7944   22.1634 C   0  0  0  0  0  0
  -19.1598  -28.8898   23.2857 C   0  0  0  0  0  0
  -18.9506  -30.1495   23.8880 C   0  0  0  0  0  0
  -17.6506  -30.6598   24.0578 C   0  0  0  0  0  0
  -25.9072  -34.9421   23.5063 C   0  0  0  0  0  0
  -16.5410  -29.9085   23.6352 C   0  0  0  0  0  0
  -16.7333  -28.6514   23.0355 C   0  0  0  0  0  0
  -26.4524  -31.6575   25.0731 C   0  0  0  0  0  0
  -25.3689  -31.3755   26.1409 C   0  0  0  0  0  0
  -27.0384  -30.2969   24.6328 C   0  0  0  0  0  0
  -27.6058  -32.4350   25.7510 C   0  0  0  0  0  0
  -27.5592  -37.1793   24.8471 C   0  0  0  0  0  0
  -21.4286  -29.3092   22.3612 N   0  0  0  0  0  0
  -26.4294  -37.3760   23.9413 N   0  0  0  0  0  0
  -24.7210  -31.0307   22.0897 N   0  0  0  0  0  0
  -23.4230  -28.8141   23.3016 O   0  0  0  0  0  0
  -28.2420  -26.1141   20.2352 O   0  0  0  0  0  0
  -26.5682  -34.8917   22.4660 O   0  0  0  0  0  0
  -23.5595  -32.1306   23.7111 O   0  0  0  0  0  0
  -29.9145  -18.9957   22.8768 C   0  0  0  0  0  0
  -29.5026  -20.1761   22.2194 C   0  0  0  0  0  0
  -30.0067  -17.7310   22.2611 C   0  0  0  0  0  0
  -29.1768  -20.1922   20.8359 C   0  0  0  0  0  0
  -29.2967  -18.8343   20.2026 C   0  0  0  0  0  0
  -29.7227  -17.5651   20.8828 C   0  0  0  0  0  0
  -29.3583  -21.4025   23.0985 C   0  0  0  0  0  0
  -30.3297  -16.5470   23.1631 C   0  0  0  0  0  0
  -28.9355  -18.7359   18.7319 C   0  0  0  0  0  0
  -28.5557  -21.5941   20.1607 C   0  0  0  0  0  0
  -28.8858  -23.2438   20.4874 C   0  0  0  0  0  0
  -27.9628  -24.5875   20.0103 C   0  0  0  0  0  0
  -29.6806  -16.1213   20.3542 N   0  0  0  0  0  0
  -31.4758  -12.7880   19.1536 H   0  0  0  0  0  0
  -30.4620  -11.6555   20.0085 H   0  0  0  0  0  0
  -29.8429  -11.7236   17.5749 H   0  0  0  0  0  0
  -29.5979  -13.4481   17.6634 H   0  0  0  0  0  0
  -27.9603  -11.2672   18.9781 H   0  0  0  0  0  0
  -27.3900  -12.4355   17.8111 H   0  0  0  0  0  0
  -27.5842  -14.2367   19.3921 H   0  0  0  0  0  0
  -28.7721  -12.3157   21.4566 H   0  0  0  0  0  0
  -28.3739  -13.9993   21.7250 H   0  0  0  0  0  0
  -25.2808   -9.5685   22.4753 H   0  0  0  0  0  0
  -24.0010   -7.4652   22.7495 H   0  0  0  0  0  0
  -21.0859   -8.8818   19.8974 H   0  0  0  0  0  0
  -22.3745  -10.9695   19.6160 H   0  0  0  0  0  0
  -21.1962   -7.6160   23.9727 H   0  0  0  0  0  0
  -21.1477   -6.0532   25.9086 H   0  0  0  0  0  0
  -22.0590   -2.7629   23.2824 H   0  0  0  0  0  0
  -22.4105  -11.9905   22.4822 H   0  0  0  0  0  0
  -21.1093  -13.1243   22.2612 H   0  0  0  0  0  0
  -24.6344  -15.8354   20.5132 H   0  0  0  0  0  0
  -26.2583  -15.6493   20.0969 H   0  0  0  0  0  0
  -26.7324  -32.5284   23.1033 H   0  0  0  0  0  0
  -25.0056  -33.9601   25.0305 H   0  0  0  0  0  0
  -22.7546  -31.2955   21.3828 H   0  0  0  0  0  0
  -23.3766  -35.9585   23.3291 H   0  0  0  0  0  0
  -24.3562  -36.8899   22.2057 H   0  0  0  0  0  0
  -23.7229  -37.6448   23.6676 H   0  0  0  0  0  0
  -26.1698  -31.4646   20.6141 H   0  0  0  0  0  0
  -26.8771  -30.7571   22.0311 H   0  0  0  0  0  0
  -28.1259  -28.7777   21.2435 H   0  0  0  0  0  0
  -25.8928  -25.8459   18.9889 H   0  0  0  0  0  0
  -23.9734  -27.3090   18.9671 H   0  0  0  0  0  0
  -23.8064  -30.5729   19.3936 H   0  0  0  0  0  0
  -22.7828  -29.2432   19.8458 H   0  0  0  0  0  0
  -25.1315  -36.1880   25.0814 H   0  0  0  0  0  0
  -21.0080  -28.3343   24.1369 H   0  0  0  0  0  0
  -20.5788  -26.2374   23.3658 H   0  0  0  0  0  0
  -21.6726  -26.7490   22.1212 H   0  0  0  0  0  0
  -19.7013  -25.6319   21.1278 H   0  0  0  0  0  0
  -19.6763  -27.3222   20.6771 H   0  0  0  0  0  0
  -17.4289  -26.6687   21.4026 H   0  0  0  0  0  0
  -18.0399  -26.0087   22.9028 H   0  0  0  0  0  0
  -19.7968  -30.7347   24.2226 H   0  0  0  0  0  0
  -17.5047  -31.6284   24.5170 H   0  0  0  0  0  0
  -15.5393  -30.2974   23.7702 H   0  0  0  0  0  0
  -15.8752  -28.0829   22.7042 H   0  0  0  0  0  0
  -24.5887  -30.7093   25.7710 H   0  0  0  0  0  0
  -24.8846  -32.2924   26.4780 H   0  0  0  0  0  0
  -25.7944  -30.8953   27.0227 H   0  0  0  0  0  0
  -26.3001  -29.6704   24.1314 H   0  0  0  0  0  0
  -27.3961  -29.7268   25.4911 H   0  0  0  0  0  0
  -27.8933  -30.4205   23.9677 H   0  0  0  0  0  0
  -27.2656  -33.3675   26.2035 H   0  0  0  0  0  0
  -28.3886  -32.6877   25.0341 H   0  0  0  0  0  0
  -28.0725  -31.8507   26.5458 H   0  0  0  0  0  0
  -28.2614  -38.0092   24.7525 H   0  0  0  0  0  0
  -28.1083  -36.2618   24.6289 H   0  0  0  0  0  0
  -27.2305  -37.1448   25.8874 H   0  0  0  0  0  0
  -20.9493  -29.8771   21.6765 H   0  0  0  0  0  0
  -26.0167  -38.2841   24.1375 H   0  0  0  0  0  0
  -30.1166  -19.0495   23.9383 H   0  0  0  0  0  0
  -30.1414  -22.1266   22.8724 H   0  0  0  0  0  0
  -29.4463  -21.1556   24.1562 H   0  0  0  0  0  0
  -28.3714  -21.8511   22.9775 H   0  0  0  0  0  0
  -30.3522  -16.8273   24.2170 H   0  0  0  0  0  0
  -31.3043  -16.1285   22.9164 H   0  0  0  0  0  0
  -29.5698  -15.7712   23.0597 H   0  0  0  0  0  0
  -28.9781  -17.7104   18.3669 H   0  0  0  0  0  0
  -29.6310  -19.3290   18.1394 H   0  0  0  0  0  0
  -27.9301  -19.1112   18.5530 H   0  0  0  0  0  0
  -27.4847  -21.4834   20.3324 H   0  0  0  0  0  0
  -28.6732  -21.4758   19.0828 H   0  0  0  0  0  0
  -29.9031  -23.4179   20.1363 H   0  0  0  0  0  0
  -28.9458  -23.3828   21.5603 H   0  0  0  0  0  0
  -26.9799  -24.4180   20.4508 H   0  0  0  0  0  0
  -27.8059  -24.4770   18.9364 H   0  0  0  0  0  0
  -28.7542  -15.8659   20.0543 H   0  0  0  0  0  0
  1 25  1  0  0  0
  1 30  2  0  0  0
  1 83  1  0  0  0
  2  3  1  0  0  0
  2 25  1  0  0  0
  2 84  1  0  0  0
  2 85  1  0  0  0
  3  4  1  0  0  0
  3 86  1  0  0  0
  3 87  1  0  0  0
  4  5  1  0  0  0
  4 88  1  0  0  0
  4 89  1  0  0  0
  5  6  1  0  0  0
  5 26  1  0  0  0
  5 90  1  0  0  0
  6 25  1  0  0  0
  6 91  1  0  0  0
  6 92  1  0  0  0
  7  8  2  0  0  0
  7 26  1  0  0  0
  7 29  1  0  0  0
  8  9  1  0  0  0
  8 22  1  0  0  0
  9 10  1  0  0  0
  9 27  2  0  0  0
 10 11  2  0  0  0
 10 15  1  0  0  0
 11 12  1  0  0  0
 11 93  1  0  0  0
 12 13  2  0  0  0
 12 94  1  0  0  0
 13 14  1  0  0  0
 13 31  1  0  0  0
 14 15  2  0  0  0
 14 95  1  0  0  0
 15 96  1  0  0  0
 16 17  2  0  0  0
 16 21  1  0  0  0
 16 31  1  0  0  0
 17 18  1  0  0  0
 17 97  1  0  0  0
 18 19  2  0  0  0
 18 98  1  0  0  0
 19 20  1  0  0  0
 19 24  1  0  0  0
 20 21  2  0  0  0
 20 99  1  0  0  0
 21 23  1  0  0  0
 22 28  1  0  0  0
 22 32  2  0  0  0
 26 27  1  0  0  0
 28100  1  0  0  0
 28101  1  0  0  0
 29102  1  0  0  0
 29103  1  0  0  0
 33 34  1  0  0  0
 33 66  1  0  0  0
 33 70  2  0  0  0
 34 36  1  0  0  0
 34 59  1  0  0  0
 34104  1  0  0  0
 35 44  2  0  0  0
 35 45  1  0  0  0
 35 68  1  0  0  0
 36 56  1  0  0  0
 36105  1  0  0  0
 37 39  1  0  0  0
 37 47  1  0  0  0
 37 66  1  0  0  0
 37106  1  0  0  0
 38 43  2  0  0  0
 38 46  1  0  0  0
 38 47  1  0  0  0
 39 64  1  0  0  0
 39 67  2  0  0  0
 40 52  1  0  0  0
 40 53  2  0  0  0
 40 58  1  0  0  0
 41107  1  0  0  0
 41108  1  0  0  0
 41109  1  0  0  0
 41 48  1  0  0  0
 42 43  1  0  0  0
 42 66  1  0  0  0
 42110  1  0  0  0
 42111  1  0  0  0
 43 44  1  0  0  0
 44112  1  0  0  0
 45 46  2  0  0  0
 45113  1  0  0  0
 46114  1  0  0  0
 47115  1  0  0  0
 47116  1  0  0  0
 48 56  1  0  0  0
 48 65  1  0  0  0
 48117  1  0  0  0
 49 50  1  0  0  0
 49 53  1  0  0  0
 49 64  1  0  0  0
 49118  1  0  0  0
 50 51  1  0  0  0
 50119  1  0  0  0
 50120  1  0  0  0
 51 52  1  0  0  0
 51121  1  0  0  0
 51122  1  0  0  0
 52123  1  0  0  0
 52124  1  0  0  0
 53 54  1  0  0  0
 54 55  2  0  0  0
 54125  1  0  0  0
 55 57  1  0  0  0
 55126  1  0  0  0
 56 69  2  0  0  0
 57 58  2  0  0  0
 57127  1  0  0  0
 58128  1  0  0  0
 59 60  1  0  0  0
 59 61  1  0  0  0
 59 62  1  0  0  0
 60129  1  0  0  0
 60130  1  0  0  0
 60131  1  0  0  0
 61132  1  0  0  0
 61133  1  0  0  0
 61134  1  0  0  0
 62135  1  0  0  0
 62136  1  0  0  0
 62137  1  0  0  0
 63 65  1  0  0  0
 63138  1  0  0  0
 63139  1  0  0  0
 63140  1  0  0  0
 64141  1  0  0  0
 65142  1  0  0  0
 68 82  1  0  0  0
 71 72  2  0  0  0
 71 73  1  0  0  0
 71143  1  0  0  0
 72 74  1  0  0  0
 72 77  1  0  0  0
 73 76  2  0  0  0
 73 78  1  0  0  0
 74 75  2  0  0  0
 74 80  1  0  0  0
 75 76  1  0  0  0
 75 79  1  0  0  0
 76 83  1  0  0  0
 77144  1  0  0  0
 77145  1  0  0  0
 77146  1  0  0  0
 78147  1  0  0  0
 78148  1  0  0  0
 78149  1  0  0  0
 79150  1  0  0  0
 79151  1  0  0  0
 79152  1  0  0  0
 80 81  1  0  0  0
 80153  1  0  0  0
 80154  1  0  0  0
 81 82  1  0  0  0
 81155  1  0  0  0
 81156  1  0  0  0
 82157  1  0  0  0
 82158  1  0  0  0
 83159  1  0  0  0
M  ISO  4   1 100  68 101  82 101  83 100
M  END
> <chiral flag>
0

> <version>
0

> <s_m_source_file>
/data/baiqing/PycharmProjects/Reinvent-master-3.2/result/LINK_invent/BTK/process_docking_weight1_custom_sum_contain_oxygen_bond_distance_aromatic_linkinvent_7_9_3/rearranged_h_0022.sdf

> <i_m_source_file_index>
54

> <r_mmod_Potential_Energy-OPLS-2005>
542.251281738281

> <r_mmod_Stretch_Energy-OPLS-2005>
290.978942871094

> <r_mmod_Bend_Energy-OPLS-2005>
264.46826171875

> <r_mmod_Torsional_Energy-OPLS-2005>
245.300933837891

> <r_mmod_Improper_Torsional_Energy-OPLS-2005>
10.7977094650269

> <r_mmod_Van_der_Waal_Energy-OPLS-2005>
140.580093383789

> <r_mmod_Electrostatic_Energy-OPLS-2005>
-416.374816894531

> <r_mmod_Solvation_Energy-OPLS-2005>
-205.678802490234

> <b_mmod_Minimization_Converged-OPLS-2005>
0

> <r_mmod_RMS_Derivative-OPLS-2005>
3.59428715705872

$$$$
54
                    3D
 Structure written by MMmdl.
195202  0  0  1  0            999 V2000
  -31.0455  -14.0355   20.8043 C   0  0  0  0  0  0
  -30.4082  -12.3388   19.2232 C   0  0  0  0  0  0
  -29.3783  -12.6101   18.1250 C   0  0  0  0  0  0
  -27.9796  -12.3327   18.6526 C   0  0  0  0  0  0
  -27.6790  -13.1797   19.9075 C   0  0  2  0  0  0
  -28.7600  -12.9493   20.9952 C   0  0  0  0  0  0
  -25.2710  -13.8162   20.5799 C   0  0  0  0  0  0
  -24.1861  -13.0535   20.9171 C   0  0  0  0  0  0
  -24.6259  -11.6944   20.8706 C   0  0  0  0  0  0
  -23.8886  -10.4310   21.0287 C   0  0  0  0  0  0
  -24.3523   -9.4225   21.9043 C   0  0  0  0  0  0
  -23.6275   -8.2216   22.0615 C   0  0  0  0  0  0
  -22.4213   -8.0237   21.3437 C   0  0  0  0  0  0
  -21.9715   -9.0242   20.4597 C   0  0  0  0  0  0
  -22.6974  -10.2145   20.3011 C   0  0  0  0  0  0
  -21.6859   -6.0682   22.5264 C   0  0  0  0  0  0
  -21.3968   -6.5604   23.8154 C   0  0  0  0  0  0
  -21.3674   -5.6773   24.9155 C   0  0  0  0  0  0
  -21.6076   -4.3049   24.7231 C   0  0  0  0  0  0
  -21.8840   -3.8114   23.4365 C   0  0  0  0  0  0
  -21.9181   -4.6921   22.3386 C   0  0  0  0  0  0
  -22.7927  -13.5367   21.1996 C   0  0  0  0  0  0
  -22.1711   -4.2115   21.0981 F   0  0  0  0  0  0
  -21.5648   -3.4510   25.7743 F   0  0  0  0  0  0
  -30.1124  -13.1383   20.4192 N   0  0  0  0  0  0
  -26.3135  -12.9271   20.3700 N   0  0  0  0  0  0
  -25.9212  -11.6460   20.5885 N   0  0  0  0  0  0
  -22.0557  -12.8260   22.0472 N   0  0  0  0  0  0
  -25.4700  -15.1853   20.4062 N   0  0  0  0  0  0
  -31.5465  -14.8339   20.0117 O   0  0  0  0  0  0
  -21.6650   -6.8824   21.4186 O   0  0  0  0  0  0
  -22.3672  -14.5761   20.6947 O   0  0  0  0  0  0
  -24.6099  -31.8687   23.2138 C   0  0  0  0  0  0
  -25.9011  -32.4834   23.8409 C   0  0  1  0  0  0
  -27.2432  -27.4843   20.0840 C   0  0  0  0  0  0
  -25.5874  -33.8632   24.2337 N   0  0  0  0  0  0
  -23.3997  -30.4918   21.5503 C   0  0  2  0  0  0
  -24.8490  -28.9608   20.1209 C   0  0  0  0  0  0
  -22.7394  -29.4653   22.4999 C   0  0  0  0  0  0
  -18.0268  -28.1373   22.8493 C   0  0  0  0  0  0
  -24.1482  -36.7312   23.2636 C   0  0  0  0  0  0
  -25.9228  -30.8486   21.3648 C   0  0  0  0  0  0
  -26.0044  -29.4840   20.7183 C   0  0  0  0  0  0
  -27.2061  -28.7469   20.7085 C   0  0  0  0  0  0
  -26.0763  -26.9573   19.4966 C   0  0  0  0  0  0
  -24.8760  -27.6924   19.5122 C   0  0  0  0  0  0
  -23.6098  -29.8219   20.1671 C   0  0  0  0  0  0
  -25.4101  -36.3117   24.0337 C   0  0  1  0  0  0
  -20.5862  -28.3654   23.1322 C   0  0  2  0  0  0
  -20.6755  -26.9391   22.5414 C   0  0  0  0  0  0
  -19.5726  -26.6387   21.5210 C   0  0  0  0  0  0
  -18.1917  -26.7926   22.1624 C   0  0  0  0  0  0
  -19.1524  -28.8831   23.2901 C   0  0  0  0  0  0
  -18.9444  -30.1448   23.8914 C   0  0  0  0  0  0
  -17.6446  -30.6579   24.0580 C   0  0  0  0  0  0
  -25.9036  -34.9488   23.5139 C   0  0  0  0  0  0
  -16.5339  -29.9097   23.6312 C   0  0  0  0  0  0
  -16.7262  -28.6505   23.0339 C   0  0  0  0  0  0
  -26.4468  -31.6622   25.0727 C   0  0  0  0  0  0
  -25.3747  -31.3717   26.1488 C   0  0  0  0  0  0
  -27.0314  -30.3071   24.6092 C   0  0  0  0  0  0
  -27.6057  -32.4340   25.7468 C   0  0  0  0  0  0
  -27.5584  -37.1804   24.8456 C   0  0  0  0  0  0
  -21.4121  -29.3025   22.3732 N   0  0  0  0  0  0
  -26.4288  -37.3789   23.9420 N   0  0  0  0  0  0
  -24.6616  -31.0840   22.1004 N   0  0  0  0  0  0
  -23.4181  -28.8192   23.3019 O   0  0  0  0  0  0
  -28.4108  -26.7745   20.0242 O   0  0  0  0  0  0
  -26.5591  -34.8917   22.4694 O   0  0  0  0  0  0
  -23.5308  -32.1433   23.7551 O   0  0  0  0  0  0
  -35.1689  -13.0224   19.1121 C   0  0  0  0  0  0
  -32.3641  -15.3715   25.0361 C   0  0  0  0  0  0
  -31.2733  -12.2336   23.9497 C   0  0  0  0  0  0
  -35.0083  -12.5834   20.5813 C   0  0  0  0  0  0
  -32.0543  -15.7604   23.5812 C   0  0  0  0  0  0
  -33.7639  -11.6981   20.8460 C   0  0  0  0  0  0
  -29.6119  -22.0299   17.3962 C   0  0  0  0  0  0
  -30.3488  -23.2537   17.9764 C   0  0  0  0  0  0
  -30.5562  -21.0599   16.6670 C   0  0  0  0  0  0
  -29.3818  -24.3458   18.4668 C   0  0  0  0  0  0
  -31.2695  -20.0688   17.5949 C   0  0  0  0  0  0
  -34.1910  -15.9610   18.0667 C   0  0  0  0  0  0
  -30.0534  -25.7244   18.5959 C   0  0  0  0  0  0
  -33.2499  -11.7293   22.3121 C   0  0  0  0  0  0
  -32.2860  -19.1735   16.8629 C   0  0  0  0  0  0
  -33.8037  -17.0722   17.0848 C   0  0  0  0  0  0
  -32.6340  -14.7608   22.5483 C   0  0  0  0  0  0
  -35.4116  -15.0976   17.7333 C   0  0  0  0  0  0
  -29.0470  -26.8680   18.7539 C   0  0  0  0  0  0
  -31.8386  -12.3766   22.5253 C   0  0  2  0  0  0
  -32.7895  -18.0287   17.7569 C   0  0  0  0  0  0
  -35.6564  -14.2563   18.9053 N   0  0  0  0  0  0
  -31.6671  -13.7728   22.0002 N   0  0  0  0  0  0
  -34.8176  -12.2825   18.1921 O   0  0  0  0  0  0
  -31.7271  -17.3143   18.1392 F   0  0  0  0  0  0
  -33.3567  -18.5769   18.8337 F   0  0  0  0  0  0
  -31.3975  -12.5590   18.8154 H   0  0  0  0  0  0
  -30.4246  -11.2819   19.4917 H   0  0  0  0  0  0
  -29.5752  -12.0103   17.2313 H   0  0  0  0  0  0
  -29.4300  -13.6557   17.8238 H   0  0  0  0  0  0
  -27.9052  -11.2684   18.8921 H   0  0  0  0  0  0
  -27.2234  -12.5190   17.8873 H   0  0  0  0  0  0
  -27.7422  -14.2264   19.6133 H   0  0  0  0  0  0
  -28.6988  -11.9334   21.3835 H   0  0  0  0  0  0
  -28.5898  -13.6043   21.8505 H   0  0  0  0  0  0
  -25.2650   -9.5872   22.4627 H   0  0  0  0  0  0
  -24.0074   -7.4649   22.7290 H   0  0  0  0  0  0
  -21.0524   -8.8715   19.9082 H   0  0  0  0  0  0
  -22.3187  -10.9729   19.6268 H   0  0  0  0  0  0
  -21.1916   -7.6107   23.9635 H   0  0  0  0  0  0
  -21.1514   -6.0512   25.9027 H   0  0  0  0  0  0
  -22.0586   -2.7574   23.2875 H   0  0  0  0  0  0
  -22.3979  -11.9709   22.4650 H   0  0  0  0  0  0
  -21.1310  -13.1434   22.2924 H   0  0  0  0  0  0
  -24.7442  -15.8882   20.4678 H   0  0  0  0  0  0
  -26.3629  -15.5702   20.1246 H   0  0  0  0  0  0
  -26.7097  -32.5577   23.1198 H   0  0  0  0  0  0
  -25.0029  -33.9802   25.0489 H   0  0  0  0  0  0
  -22.6858  -31.3061   21.4095 H   0  0  0  0  0  0
  -23.3742  -35.9651   23.3313 H   0  0  0  0  0  0
  -24.3582  -36.8909   22.2053 H   0  0  0  0  0  0
  -23.7253  -37.6517   23.6646 H   0  0  0  0  0  0
  -26.0348  -31.6128   20.5972 H   0  0  0  0  0  0
  -26.8106  -30.9006   21.9842 H   0  0  0  0  0  0
  -28.1061  -29.1513   21.1540 H   0  0  0  0  0  0
  -26.1125  -25.9881   19.0188 H   0  0  0  0  0  0
  -23.9917  -27.2785   19.0466 H   0  0  0  0  0  0
  -23.7209  -30.5944   19.4039 H   0  0  0  0  0  0
  -22.7370  -29.2377   19.8692 H   0  0  0  0  0  0
  -25.1286  -36.1970   25.0827 H   0  0  0  0  0  0
  -20.9954  -28.3218   24.1442 H   0  0  0  0  0  0
  -20.5642  -26.2263   23.3601 H   0  0  0  0  0  0
  -21.6633  -26.7427   22.1220 H   0  0  0  0  0  0
  -19.6892  -25.6304   21.1229 H   0  0  0  0  0  0
  -19.6677  -27.3207   20.6749 H   0  0  0  0  0  0
  -17.4182  -26.6670   21.4036 H   0  0  0  0  0  0
  -18.0316  -26.0078   22.9016 H   0  0  0  0  0  0
  -19.7926  -30.7261   24.2301 H   0  0  0  0  0  0
  -17.5001  -31.6267   24.5170 H   0  0  0  0  0  0
  -15.5343  -30.3002   23.7637 H   0  0  0  0  0  0
  -15.8657  -28.0845   22.7034 H   0  0  0  0  0  0
  -24.5873  -30.7127   25.7806 H   0  0  0  0  0  0
  -24.9003  -32.2883   26.4999 H   0  0  0  0  0  0
  -25.8097  -30.8808   27.0206 H   0  0  0  0  0  0
  -26.2859  -29.6807   24.1168 H   0  0  0  0  0  0
  -27.4133  -29.7320   25.4542 H   0  0  0  0  0  0
  -27.8669  -30.4408   23.9215 H   0  0  0  0  0  0
  -27.2676  -33.3607   26.2111 H   0  0  0  0  0  0
  -28.3812  -32.6955   25.0259 H   0  0  0  0  0  0
  -28.0789  -31.8432   26.5322 H   0  0  0  0  0  0
  -28.2589  -38.0106   24.7524 H   0  0  0  0  0  0
  -28.1087  -36.2650   24.6255 H   0  0  0  0  0  0
  -27.2306  -37.1419   25.8850 H   0  0  0  0  0  0
  -20.9282  -29.8767   21.6984 H   0  0  0  0  0  0
  -26.0177  -38.2858   24.1423 H   0  0  0  0  0  0
  -32.2644  -16.2203   25.7157 H   0  0  0  0  0  0
  -33.3936  -15.0131   25.1333 H   0  0  0  0  0  0
  -31.6914  -14.6004   25.4116 H   0  0  0  0  0  0
  -30.9170  -11.2134   24.1108 H   0  0  0  0  0  0
  -30.4106  -12.8811   24.1050 H   0  0  0  0  0  0
  -32.0079  -12.4476   24.7254 H   0  0  0  0  0  0
  -34.9226  -13.4773   21.1956 H   0  0  0  0  0  0
  -35.9050  -12.0718   20.9280 H   0  0  0  0  0  0
  -32.5009  -16.7456   23.4232 H   0  0  0  0  0  0
  -30.9835  -15.9220   23.4445 H   0  0  0  0  0  0
  -33.9973  -10.6731   20.5559 H   0  0  0  0  0  0
  -32.9556  -11.9763   20.1841 H   0  0  0  0  0  0
  -28.8773  -22.3808   16.6671 H   0  0  0  0  0  0
  -29.0426  -21.5178   18.1728 H   0  0  0  0  0  0
  -30.9993  -23.6694   17.2056 H   0  0  0  0  0  0
  -31.0069  -22.9427   18.7923 H   0  0  0  0  0  0
  -31.2789  -21.6300   16.0823 H   0  0  0  0  0  0
  -29.9751  -20.4844   15.9455 H   0  0  0  0  0  0
  -28.9418  -24.0514   19.4221 H   0  0  0  0  0  0
  -28.5499  -24.4330   17.7641 H   0  0  0  0  0  0
  -30.5089  -19.4500   18.0674 H   0  0  0  0  0  0
  -31.7693  -20.5878   18.4141 H   0  0  0  0  0  0
  -33.3405  -15.2972   18.1943 H   0  0  0  0  0  0
  -34.3604  -16.4263   19.0379 H   0  0  0  0  0  0
  -30.6283  -25.9259   17.6893 H   0  0  0  0  0  0
  -30.7673  -25.7294   19.4213 H   0  0  0  0  0  0
  -34.0086  -12.1406   22.9808 H   0  0  0  0  0  0
  -33.1743  -10.6965   22.6523 H   0  0  0  0  0  0
  -33.1207  -19.7972   16.5460 H   0  0  0  0  0  0
  -31.8511  -18.7583   15.9537 H   0  0  0  0  0  0
  -33.3786  -16.6287   16.1816 H   0  0  0  0  0  0
  -34.6902  -17.6253   16.7759 H   0  0  0  0  0  0
  -33.1009  -15.3463   21.7493 H   0  0  0  0  0  0
  -33.4800  -14.2311   22.9888 H   0  0  0  0  0  0
  -36.2813  -15.7274   17.5261 H   0  0  0  0  0  0
  -35.2369  -14.4939   16.8429 H   0  0  0  0  0  0
  -28.3279  -26.8457   17.9308 H   0  0  0  0  0  0
  -29.5604  -27.8275   18.6896 H   0  0  0  0  0  0
  -31.1935  -11.6852   21.9793 H   0  0  0  0  0  0
  -35.9670  -14.7606   19.7223 H   0  0  0  0  0  0
  1 25  1  0  0  0
  1 30  2  0  0  0
  1 93  1  0  0  0
  2  3  1  0  0  0
  2 25  1  0  0  0
  2 97  1  0  0  0
  2 98  1  0  0  0
  3  4  1  0  0  0
  3 99  1  0  0  0
  3100  1  0  0  0
  4  5  1  0  0  0
  4101  1  0  0  0
  4102  1  0  0  0
  5  6  1  0  0  0
  5 26  1  0  0  0
  5103  1  0  0  0
  6 25  1  0  0  0
  6104  1  0  0  0
  6105  1  0  0  0
  7  8  2  0  0  0
  7 26  1  0  0  0
  7 29  1  0  0  0
  8  9  1  0  0  0
  8 22  1  0  0  0
  9 10  1  0  0  0
  9 27  2  0  0  0
 10 11  2  0  0  0
 10 15  1  0  0  0
 11 12  1  0  0  0
 11106  1  0  0  0
 12 13  2  0  0  0
 12107  1  0  0  0
 13 14  1  0  0  0
 13 31  1  0  0  0
 14 15  2  0  0  0
 14108  1  0  0  0
 15109  1  0  0  0
 16 17  2  0  0  0
 16 21  1  0  0  0
 16 31  1  0  0  0
 17 18  1  0  0  0
 17110  1  0  0  0
 18 19  2  0  0  0
 18111  1  0  0  0
 19 20  1  0  0  0
 19 24  1  0  0  0
 20 21  2  0  0  0
 20112  1  0  0  0
 21 23  1  0  0  0
 22 28  1  0  0  0
 22 32  2  0  0  0
 26 27  1  0  0  0
 28113  1  0  0  0
 28114  1  0  0  0
 29115  1  0  0  0
 29116  1  0  0  0
 33 34  1  0  0  0
 33 66  1  0  0  0
 33 70  2  0  0  0
 34 36  1  0  0  0
 34 59  1  0  0  0
 34117  1  0  0  0
 35 44  2  0  0  0
 35 45  1  0  0  0
 35 68  1  0  0  0
 36 56  1  0  0  0
 36118  1  0  0  0
 37 39  1  0  0  0
 37 47  1  0  0  0
 37 66  1  0  0  0
 37119  1  0  0  0
 38 43  2  0  0  0
 38 46  1  0  0  0
 38 47  1  0  0  0
 39 64  1  0  0  0
 39 67  2  0  0  0
 40 52  1  0  0  0
 40 53  2  0  0  0
 40 58  1  0  0  0
 41120  1  0  0  0
 41121  1  0  0  0
 41122  1  0  0  0
 41 48  1  0  0  0
 42 43  1  0  0  0
 42 66  1  0  0  0
 42123  1  0  0  0
 42124  1  0  0  0
 43 44  1  0  0  0
 44125  1  0  0  0
 45 46  2  0  0  0
 45126  1  0  0  0
 46127  1  0  0  0
 47128  1  0  0  0
 47129  1  0  0  0
 48 56  1  0  0  0
 48 65  1  0  0  0
 48130  1  0  0  0
 49 50  1  0  0  0
 49 53  1  0  0  0
 49 64  1  0  0  0
 49131  1  0  0  0
 50 51  1  0  0  0
 50132  1  0  0  0
 50133  1  0  0  0
 51 52  1  0  0  0
 51134  1  0  0  0
 51135  1  0  0  0
 52136  1  0  0  0
 52137  1  0  0  0
 53 54  1  0  0  0
 54 55  2  0  0  0
 54138  1  0  0  0
 55 57  1  0  0  0
 55139  1  0  0  0
 56 69  2  0  0  0
 57 58  2  0  0  0
 57140  1  0  0  0
 58141  1  0  0  0
 59 60  1  0  0  0
 59 61  1  0  0  0
 59 62  1  0  0  0
 60142  1  0  0  0
 60143  1  0  0  0
 60144  1  0  0  0
 61145  1  0  0  0
 61146  1  0  0  0
 61147  1  0  0  0
 62148  1  0  0  0
 62149  1  0  0  0
 62150  1  0  0  0
 63 65  1  0  0  0
 63151  1  0  0  0
 63152  1  0  0  0
 63153  1  0  0  0
 64154  1  0  0  0
 65155  1  0  0  0
 68 89  1  0  0  0
 71 74  1  0  0  0
 71 92  1  0  0  0
 71 94  2  0  0  0
 72 75  1  0  0  0
 72156  1  0  0  0
 72157  1  0  0  0
 72158  1  0  0  0
 73159  1  0  0  0
 73160  1  0  0  0
 73161  1  0  0  0
 73 90  1  0  0  0
 74 76  1  0  0  0
 74162  1  0  0  0
 74163  1  0  0  0
 75 87  1  0  0  0
 75164  1  0  0  0
 75165  1  0  0  0
 76 84  1  0  0  0
 76166  1  0  0  0
 76167  1  0  0  0
 77 78  1  0  0  0
 77 79  1  0  0  0
 77168  1  0  0  0
 77169  1  0  0  0
 78 80  1  0  0  0
 78170  1  0  0  0
 78171  1  0  0  0
 79 81  1  0  0  0
 79172  1  0  0  0
 79173  1  0  0  0
 80 83  1  0  0  0
 80174  1  0  0  0
 80175  1  0  0  0
 81 85  1  0  0  0
 81176  1  0  0  0
 81177  1  0  0  0
 82 86  1  0  0  0
 82 88  1  0  0  0
 82178  1  0  0  0
 82179  1  0  0  0
 83 89  1  0  0  0
 83180  1  0  0  0
 83181  1  0  0  0
 84 90  1  0  0  0
 84182  1  0  0  0
 84183  1  0  0  0
 85 91  1  0  0  0
 85184  1  0  0  0
 85185  1  0  0  0
 86 91  1  0  0  0
 86186  1  0  0  0
 86187  1  0  0  0
 87 93  1  0  0  0
 87188  1  0  0  0
 87189  1  0  0  0
 88 92  1  0  0  0
 88190  1  0  0  0
 88191  1  0  0  0
 89192  1  0  0  0
 89193  1  0  0  0
 90 93  1  0  0  0
 90194  1  0  0  0
 91 95  1  0  0  0
 91 96  1  0  0  0
 92195  1  0  0  0
M  ISO  4   1 100  68 101  89 101  93 100
M  END
> <chiral flag>
0

> <version>
0

> <s_m_source_file>
/data/baiqing/PycharmProjects/Reinvent-master-3.2/result/LINK_invent/BTK/process_docking_weight1_custom_sum_contain_oxygen_bond_distance_aromatic_linkinvent_7_9_3/rearranged_h_0022.sdf

> <i_m_source_file_index>
55

> <r_mmod_Potential_Energy-OPLS-2005>
236.1484375

> <r_mmod_Stretch_Energy-OPLS-2005>
43.1865730285645

> <r_mmod_Bend_Energy-OPLS-2005>
118.254211425781

> <r_mmod_Torsional_Energy-OPLS-2005>
400.324493408203

> <r_mmod_Improper_Torsional_Energy-OPLS-2005>
11.3254060745239

> <r_mmod_Van_der_Waal_Energy-OPLS-2005>
127.85230255127

> <r_mmod_Electrostatic_Energy-OPLS-2005>
-311.056335449219

> <r_mmod_Solvation_Energy-OPLS-2005>
-197.243316650391

> <b_mmod_Minimization_Converged-OPLS-2005>
0

> <r_mmod_RMS_Derivative-OPLS-2005>
9.21930980682373

$$$$
55
                    3D
 Structure written by MMmdl.
198207  0  0  1  0            999 V2000
  -30.7604  -14.3091   20.7408 C   0  0  0  0  0  0
  -30.4336  -12.2827   19.3728 C   0  0  0  0  0  0
  -29.4893  -12.5609   18.1877 C   0  0  0  0  0  0
  -28.0146  -12.3930   18.6032 C   0  0  0  0  0  0
  -27.6760  -13.1918   19.8884 C   0  0  2  0  0  0
  -28.7087  -12.8729   20.9904 C   0  0  0  0  0  0
  -25.2618  -13.8155   20.5597 C   0  0  0  0  0  0
  -24.1867  -13.0452   20.9152 C   0  0  0  0  0  0
  -24.6413  -11.6921   20.8726 C   0  0  0  0  0  0
  -23.9084  -10.4312   21.0430 C   0  0  0  0  0  0
  -24.3634   -9.4219   21.9196 C   0  0  0  0  0  0
  -23.6310   -8.2253   22.0749 C   0  0  0  0  0  0
  -22.4276   -8.0316   21.3561 C   0  0  0  0  0  0
  -21.9930   -9.0284   20.4641 C   0  0  0  0  0  0
  -22.7277  -10.2148   20.3065 C   0  0  0  0  0  0
  -21.6851   -6.0760   22.5317 C   0  0  0  0  0  0
  -21.4015   -6.5655   23.8259 C   0  0  0  0  0  0
  -21.3649   -5.6789   24.9208 C   0  0  0  0  0  0
  -21.6048   -4.3065   24.7231 C   0  0  0  0  0  0
  -21.8823   -3.8169   23.4350 C   0  0  0  0  0  0
  -21.9178   -4.6989   22.3407 C   0  0  0  0  0  0
  -22.7894  -13.5258   21.1836 C   0  0  0  0  0  0
  -22.1648   -4.2185   21.0971 F   0  0  0  0  0  0
  -21.5622   -3.4549   25.7743 F   0  0  0  0  0  0
  -30.0669  -13.1736   20.4797 N   0  0  0  0  0  0
  -26.3079  -12.9306   20.3388 N   0  0  0  0  0  0
  -25.9330  -11.6483   20.5753 N   0  0  0  0  0  0
  -22.0523  -12.8228   22.0361 N   0  0  0  0  0  0
  -25.4267  -15.1849   20.3842 N   0  0  0  0  0  0
  -31.7257  -14.7032   20.0779 O   0  0  0  0  0  0
  -21.6634   -6.8917   21.4280 O   0  0  0  0  0  0
  -22.3581  -14.5572   20.6724 O   0  0  0  0  0  0
  -24.6111  -31.8698   23.2145 C   0  0  0  0  0  0
  -25.9033  -32.4831   23.8423 C   0  0  1  0  0  0
  -27.2271  -27.4847   20.0724 C   0  0  0  0  0  0
  -25.5916  -33.8641   24.2361 N   0  0  0  0  0  0
  -23.3946  -30.4950   21.5542 C   0  0  2  0  0  0
  -24.8403  -28.9683   20.1140 C   0  0  0  0  0  0
  -22.7372  -29.4667   22.5022 C   0  0  0  0  0  0
  -18.0265  -28.1389   22.8503 C   0  0  0  0  0  0
  -24.1490  -36.7313   23.2638 C   0  0  0  0  0  0
  -25.9193  -30.8518   21.3587 C   0  0  0  0  0  0
  -25.9978  -29.4885   20.7089 C   0  0  0  0  0  0
  -27.1977  -28.7492   20.6925 C   0  0  0  0  0  0
  -26.0644  -26.9739   19.4635 C   0  0  0  0  0  0
  -24.8649  -27.7071   19.4923 C   0  0  0  0  0  0
  -23.5975  -29.8254   20.1689 C   0  0  0  0  0  0
  -25.4110  -36.3121   24.0346 C   0  0  1  0  0  0
  -20.5842  -28.3663   23.1339 C   0  0  2  0  0  0
  -20.6756  -26.9411   22.5423 C   0  0  0  0  0  0
  -19.5732  -26.6398   21.5227 C   0  0  0  0  0  0
  -18.1900  -26.7945   22.1617 C   0  0  0  0  0  0
  -19.1514  -28.8847   23.2918 C   0  0  0  0  0  0
  -18.9439  -30.1464   23.8918 C   0  0  0  0  0  0
  -17.6444  -30.6600   24.0569 C   0  0  0  0  0  0
  -25.9038  -34.9484   23.5142 C   0  0  0  0  0  0
  -16.5339  -29.9096   23.6339 C   0  0  0  0  0  0
  -16.7256  -28.6518   23.0361 C   0  0  0  0  0  0
  -26.4473  -31.6599   25.0739 C   0  0  0  0  0  0
  -25.3748  -31.3656   26.1482 C   0  0  0  0  0  0
  -27.0346  -30.3067   24.6090 C   0  0  0  0  0  0
  -27.6030  -32.4319   25.7531 C   0  0  0  0  0  0
  -27.5588  -37.1811   24.8461 C   0  0  0  0  0  0
  -21.4104  -29.3045   22.3759 N   0  0  0  0  0  0
  -26.4293  -37.3815   23.9427 N   0  0  0  0  0  0
  -24.6604  -31.0844   22.1019 N   0  0  0  0  0  0
  -23.4165  -28.8209   23.3053 O   0  0  0  0  0  0
  -28.3719  -26.7371   20.0687 O   0  0  0  0  0  0
  -26.5565  -34.8921   22.4684 O   0  0  0  0  0  0
  -23.5319  -32.1433   23.7584 O   0  0  0  0  0  0
  -29.3685  -21.3292   23.5260 C   0  0  0  0  0  0
  -30.2008  -22.4411   23.5946 C   0  0  0  0  0  0
  -29.1006  -23.3065   21.5706 C   0  0  0  0  0  0
  -30.1032  -23.4451   22.6004 C   0  0  0  0  0  0
  -28.2184  -22.1440   21.4898 C   0  0  0  0  0  0
  -28.4346  -21.1347   22.5022 C   0  0  0  0  0  0
  -29.1349  -18.0722   23.6489 C   0  0  0  0  0  0
  -29.2794  -18.5834   21.2098 C   0  0  0  0  0  0
  -29.5117  -16.6059   23.3887 C   0  0  0  0  0  0
  -29.6659  -17.1401   20.8890 C   0  0  0  0  0  0
  -28.3696  -18.6352   22.4392 C   0  0  2  0  0  0
  -30.3137  -16.3928   22.0794 C   0  0  2  0  0  0
  -31.1490  -22.4824   24.7829 C   0  0  0  0  0  0
  -32.4946  -24.3167   22.1621 C   0  0  0  0  0  0
  -31.0225  -25.4823   23.9514 C   0  0  0  0  0  0
  -26.1541  -23.2732   20.3945 C   0  0  0  0  0  0
  -25.9349  -20.9801   20.7465 C   0  0  0  0  0  0
  -29.1641  -21.5249   18.8095 C   0  0  0  0  0  0
  -27.1761  -22.6709   17.7930 C   0  0  0  0  0  0
  -27.0783  -20.3085   18.3029 C   0  0  0  0  0  0
  -29.0391  -24.4529   20.5506 C   0  0  0  0  0  0
  -28.3625  -25.7392   21.0836 C   0  0  0  0  0  0
  -31.0764  -24.6599   22.6475 C   0  0  0  0  0  0
  -27.0660  -22.0028   20.3739 C   0  0  0  0  0  0
  -27.6176  -21.6518   18.8837 C   0  0  0  0  0  0
  -27.7192  -19.9348   22.6363 N   0  0  0  0  0  0
  -30.2856  -14.9633   21.8045 N   0  0  0  0  0  0
  -31.4745  -12.4133   19.0692 H   0  0  0  0  0  0
  -30.3419  -11.2445   19.6944 H   0  0  0  0  0  0
  -29.7258  -11.9000   17.3527 H   0  0  0  0  0  0
  -29.6515  -13.5808   17.8308 H   0  0  0  0  0  0
  -27.8316  -11.3296   18.7648 H   0  0  0  0  0  0
  -27.3601  -12.6972   17.7866 H   0  0  0  0  0  0
  -27.7493  -14.2528   19.6510 H   0  0  0  0  0  0
  -28.6591  -11.8159   21.2578 H   0  0  0  0  0  0
  -28.4368  -13.3994   21.9048 H   0  0  0  0  0  0
  -25.2785   -9.5672   22.4773 H   0  0  0  0  0  0
  -24.0050   -7.4624   22.7428 H   0  0  0  0  0  0
  -21.0887   -8.8817   19.8889 H   0  0  0  0  0  0
  -22.3791  -10.9701   19.6167 H   0  0  0  0  0  0
  -21.2012   -7.6168   23.9790 H   0  0  0  0  0  0
  -21.1466   -6.0503   25.9118 H   0  0  0  0  0  0
  -22.0588   -2.7629   23.2857 H   0  0  0  0  0  0
  -22.4187  -11.9913   22.4769 H   0  0  0  0  0  0
  -21.1147  -13.1263   22.2610 H   0  0  0  0  0  0
  -24.6371  -15.8212   20.4161 H   0  0  0  0  0  0
  -26.2578  -15.6062   19.9890 H   0  0  0  0  0  0
  -26.7125  -32.5568   23.1211 H   0  0  0  0  0  0
  -25.0120  -33.9809   25.0544 H   0  0  0  0  0  0
  -22.6829  -31.3108   21.4175 H   0  0  0  0  0  0
  -23.3756  -35.9633   23.3266 H   0  0  0  0  0  0
  -24.3583  -36.8967   22.2058 H   0  0  0  0  0  0
  -23.7223  -37.6502   23.6669 H   0  0  0  0  0  0
  -26.0164  -31.6195   20.5891 H   0  0  0  0  0  0
  -26.8128  -30.9114   21.9688 H   0  0  0  0  0  0
  -28.0935  -29.1398   21.1552 H   0  0  0  0  0  0
  -26.0861  -26.0203   18.9596 H   0  0  0  0  0  0
  -23.9763  -27.3033   19.0284 H   0  0  0  0  0  0
  -23.6923  -30.5974   19.4051 H   0  0  0  0  0  0
  -22.7247  -29.2362   19.8813 H   0  0  0  0  0  0
  -25.1287  -36.1981   25.0834 H   0  0  0  0  0  0
  -20.9942  -28.3243   24.1454 H   0  0  0  0  0  0
  -20.5695  -26.2281   23.3610 H   0  0  0  0  0  0
  -21.6621  -26.7468   22.1211 H   0  0  0  0  0  0
  -19.6884  -25.6311   21.1259 H   0  0  0  0  0  0
  -19.6672  -27.3210   20.6760 H   0  0  0  0  0  0
  -17.4186  -26.6750   21.3991 H   0  0  0  0  0  0
  -18.0242  -26.0077   22.8993 H   0  0  0  0  0  0
  -19.7916  -30.7297   24.2273 H   0  0  0  0  0  0
  -17.4996  -31.6272   24.5179 H   0  0  0  0  0  0
  -15.5346  -30.3005   23.7659 H   0  0  0  0  0  0
  -15.8656  -28.0857   22.7051 H   0  0  0  0  0  0
  -24.5970  -30.6952   25.7807 H   0  0  0  0  0  0
  -24.8877  -32.2796   26.4895 H   0  0  0  0  0  0
  -25.8134  -30.8867   27.0247 H   0  0  0  0  0  0
  -26.2918  -29.6805   24.1140 H   0  0  0  0  0  0
  -27.4151  -29.7313   25.4537 H   0  0  0  0  0  0
  -27.8711  -30.4421   23.9228 H   0  0  0  0  0  0
  -27.2626  -33.3584   26.2152 H   0  0  0  0  0  0
  -28.3834  -32.6927   25.0378 H   0  0  0  0  0  0
  -28.0699  -31.8417   26.5425 H   0  0  0  0  0  0
  -28.2568  -38.0144   24.7567 H   0  0  0  0  0  0
  -28.1125  -36.2679   24.6218 H   0  0  0  0  0  0
  -27.2304  -37.1391   25.8860 H   0  0  0  0  0  0
  -20.9267  -29.8776   21.6984 H   0  0  0  0  0  0
  -26.0166  -38.2880   24.1449 H   0  0  0  0  0  0
  -29.4317  -20.6072   24.3234 H   0  0  0  0  0  0
  -30.0539  -18.6279   23.8289 H   0  0  0  0  0  0
  -28.5322  -18.1429   24.5558 H   0  0  0  0  0  0
  -28.7600  -18.9894   20.3509 H   0  0  0  0  0  0
  -30.1738  -19.1892   21.3586 H   0  0  0  0  0  0
  -28.5835  -16.0313   23.3492 H   0  0  0  0  0  0
  -30.0703  -16.2108   24.2385 H   0  0  0  0  0  0
  -30.3344  -17.1316   20.0278 H   0  0  0  0  0  0
  -28.7623  -16.6144   20.5751 H   0  0  0  0  0  0
  -27.5349  -17.9553   22.2543 H   0  0  0  0  0  0
  -31.3420  -16.7333   22.2151 H   0  0  0  0  0  0
  -31.3140  -21.4839   25.1871 H   0  0  0  0  0  0
  -30.7100  -23.0793   25.5815 H   0  0  0  0  0  0
  -32.1301  -22.8734   24.5419 H   0  0  0  0  0  0
  -32.4694  -24.0063   21.1167 H   0  0  0  0  0  0
  -32.9717  -23.5131   22.7151 H   0  0  0  0  0  0
  -33.1463  -25.1881   22.2217 H   0  0  0  0  0  0
  -29.9908  -25.6425   24.2650 H   0  0  0  0  0  0
  -31.4614  -26.4680   23.7978 H   0  0  0  0  0  0
  -31.5645  -25.0394   24.7811 H   0  0  0  0  0  0
  -25.8608  -23.5265   21.4143 H   0  0  0  0  0  0
  -25.2299  -23.1446   19.8273 H   0  0  0  0  0  0
  -26.5711  -24.1636   19.9606 H   0  0  0  0  0  0
  -25.5207  -21.1778   21.7382 H   0  0  0  0  0  0
  -26.2330  -19.9359   20.7066 H   0  0  0  0  0  0
  -25.0849  -21.0286   20.0627 H   0  0  0  0  0  0
  -29.4879  -21.1228   17.8486 H   0  0  0  0  0  0
  -29.5665  -20.8640   19.5721 H   0  0  0  0  0  0
  -29.6835  -22.4724   18.9116 H   0  0  0  0  0  0
  -27.5482  -22.3808   16.8093 H   0  0  0  0  0  0
  -27.5339  -23.6857   17.9379 H   0  0  0  0  0  0
  -26.0892  -22.7216   17.7068 H   0  0  0  0  0  0
  -27.5064  -20.0960   17.3222 H   0  0  0  0  0  0
  -25.9998  -20.3277   18.1505 H   0  0  0  0  0  0
  -27.3043  -19.4403   18.9128 H   0  0  0  0  0  0
  -28.5650  -24.1452   19.6394 H   0  0  0  0  0  0
  -30.0400  -24.6624   20.1749 H   0  0  0  0  0  0
  -28.8604  -26.1561   21.9570 H   0  0  0  0  0  0
  -27.3576  -25.5172   21.4438 H   0  0  0  0  0  0
  -30.7995  -25.4187   21.9334 H   0  0  0  0  0  0
  -26.8361  -19.9794   22.1379 H   0  0  0  0  0  0
  -29.6124  -14.4348   22.3360 H   0  0  0  0  0  0
  1 25  1  0  0  0
  1 30  2  0  0  0
  1 97  1  0  0  0
  2  3  1  0  0  0
  2 25  1  0  0  0
  2 98  1  0  0  0
  2 99  1  0  0  0
  3  4  1  0  0  0
  3100  1  0  0  0
  3101  1  0  0  0
  4  5  1  0  0  0
  4102  1  0  0  0
  4103  1  0  0  0
  5  6  1  0  0  0
  5 26  1  0  0  0
  5104  1  0  0  0
  6 25  1  0  0  0
  6105  1  0  0  0
  6106  1  0  0  0
  7  8  2  0  0  0
  7 26  1  0  0  0
  7 29  1  0  0  0
  8  9  1  0  0  0
  8 22  1  0  0  0
  9 10  1  0  0  0
  9 27  2  0  0  0
 10 11  2  0  0  0
 10 15  1  0  0  0
 11 12  1  0  0  0
 11107  1  0  0  0
 12 13  2  0  0  0
 12108  1  0  0  0
 13 14  1  0  0  0
 13 31  1  0  0  0
 14 15  2  0  0  0
 14109  1  0  0  0
 15110  1  0  0  0
 16 17  2  0  0  0
 16 21  1  0  0  0
 16 31  1  0  0  0
 17 18  1  0  0  0
 17111  1  0  0  0
 18 19  2  0  0  0
 18112  1  0  0  0
 19 20  1  0  0  0
 19 24  1  0  0  0
 20 21  2  0  0  0
 20113  1  0  0  0
 21 23  1  0  0  0
 22 28  1  0  0  0
 22 32  2  0  0  0
 26 27  1  0  0  0
 28114  1  0  0  0
 28115  1  0  0  0
 29116  1  0  0  0
 29117  1  0  0  0
 33 34  1  0  0  0
 33 66  1  0  0  0
 33 70  2  0  0  0
 34 36  1  0  0  0
 34 59  1  0  0  0
 34118  1  0  0  0
 35 44  2  0  0  0
 35 45  1  0  0  0
 35 68  1  0  0  0
 36 56  1  0  0  0
 36119  1  0  0  0
 37 39  1  0  0  0
 37 47  1  0  0  0
 37 66  1  0  0  0
 37120  1  0  0  0
 38 43  2  0  0  0
 38 46  1  0  0  0
 38 47  1  0  0  0
 39 64  1  0  0  0
 39 67  2  0  0  0
 40 52  1  0  0  0
 40 53  2  0  0  0
 40 58  1  0  0  0
 41121  1  0  0  0
 41122  1  0  0  0
 41123  1  0  0  0
 41 48  1  0  0  0
 42 43  1  0  0  0
 42 66  1  0  0  0
 42124  1  0  0  0
 42125  1  0  0  0
 43 44  1  0  0  0
 44126  1  0  0  0
 45 46  2  0  0  0
 45127  1  0  0  0
 46128  1  0  0  0
 47129  1  0  0  0
 47130  1  0  0  0
 48 56  1  0  0  0
 48 65  1  0  0  0
 48131  1  0  0  0
 49 50  1  0  0  0
 49 53  1  0  0  0
 49 64  1  0  0  0
 49132  1  0  0  0
 50 51  1  0  0  0
 50133  1  0  0  0
 50134  1  0  0  0
 51 52  1  0  0  0
 51135  1  0  0  0
 51136  1  0  0  0
 52137  1  0  0  0
 52138  1  0  0  0
 53 54  1  0  0  0
 54 55  2  0  0  0
 54139  1  0  0  0
 55 57  1  0  0  0
 55140  1  0  0  0
 56 69  2  0  0  0
 57 58  2  0  0  0
 57141  1  0  0  0
 58142  1  0  0  0
 59 60  1  0  0  0
 59 61  1  0  0  0
 59 62  1  0  0  0
 60143  1  0  0  0
 60144  1  0  0  0
 60145  1  0  0  0
 61146  1  0  0  0
 61147  1  0  0  0
 61148  1  0  0  0
 62149  1  0  0  0
 62150  1  0  0  0
 62151  1  0  0  0
 63 65  1  0  0  0
 63152  1  0  0  0
 63153  1  0  0  0
 63154  1  0  0  0
 64155  1  0  0  0
 65156  1  0  0  0
 68 92  1  0  0  0
 71 72  2  0  0  0
 71 76  1  0  0  0
 71157  1  0  0  0
 72 74  1  0  0  0
 72 83  1  0  0  0
 73 74  2  0  0  0
 73 75  1  0  0  0
 73 91  1  0  0  0
 74 93  1  0  0  0
 75 76  2  0  0  0
 75 94  1  0  0  0
 76 96  1  0  0  0
 77 79  1  0  0  0
 77 81  1  0  0  0
 77158  1  0  0  0
 77159  1  0  0  0
 78 80  1  0  0  0
 78 81  1  0  0  0
 78160  1  0  0  0
 78161  1  0  0  0
 79 82  1  0  0  0
 79162  1  0  0  0
 79163  1  0  0  0
 80 82  1  0  0  0
 80164  1  0  0  0
 80165  1  0  0  0
 81 96  1  0  0  0
 81166  1  0  0  0
 82 97  1  0  0  0
 82167  1  0  0  0
 83168  1  0  0  0
 83169  1  0  0  0
 83170  1  0  0  0
 84171  1  0  0  0
 84172  1  0  0  0
 84173  1  0  0  0
 84 93  1  0  0  0
 85 93  1  0  0  0
 85174  1  0  0  0
 85175  1  0  0  0
 85176  1  0  0  0
 86177  1  0  0  0
 86178  1  0  0  0
 86179  1  0  0  0
 86 94  1  0  0  0
 87 94  1  0  0  0
 87180  1  0  0  0
 87181  1  0  0  0
 87182  1  0  0  0
 88183  1  0  0  0
 88184  1  0  0  0
 88185  1  0  0  0
 88 95  1  0  0  0
 89 95  1  0  0  0
 89186  1  0  0  0
 89187  1  0  0  0
 89188  1  0  0  0
 90 95  1  0  0  0
 90189  1  0  0  0
 90190  1  0  0  0
 90191  1  0  0  0
 91 92  1  0  0  0
 91192  1  0  0  0
 91193  1  0  0  0
 92194  1  0  0  0
 92195  1  0  0  0
 93196  1  0  0  0
 94 95  1  0  0  0
 96197  1  0  0  0
 97198  1  0  0  0
M  ISO  4   1 100  68 101  92 101  97 100
M  END
> <chiral flag>
0

> <version>
0

> <s_m_source_file>
/data/baiqing/PycharmProjects/Reinvent-master-3.2/result/LINK_invent/BTK/process_docking_weight1_custom_sum_contain_oxygen_bond_distance_aromatic_linkinvent_7_9_3/rearranged_h_0022.sdf

> <i_m_source_file_index>
56

> <r_mmod_Potential_Energy-OPLS-2005>
130.703201293945

> <r_mmod_Stretch_Energy-OPLS-2005>
82.6089553833008

> <r_mmod_Bend_Energy-OPLS-2005>
183.982559204102

> <r_mmod_Torsional_Energy-OPLS-2005>
283.08935546875

> <r_mmod_Improper_Torsional_Energy-OPLS-2005>
7.99335432052612

> <r_mmod_Van_der_Waal_Energy-OPLS-2005>
231.916534423828

> <r_mmod_Electrostatic_Energy-OPLS-2005>
-481.419952392578

> <r_mmod_Solvation_Energy-OPLS-2005>
-186.43049621582

> <b_mmod_Minimization_Converged-OPLS-2005>
0

> <r_mmod_RMS_Derivative-OPLS-2005>
3.45302367210388

$$$$
56
                    3D
 Structure written by MMmdl.
181190  0  0  1  0            999 V2000
  -30.4557  -15.2995   20.3728 C   0  0  0  0  0  0
  -30.4226  -12.8238   19.5529 C   0  0  0  0  0  0
  -29.5364  -12.5998   18.3031 C   0  0  0  0  0  0
  -28.0823  -12.3288   18.7146 C   0  0  0  0  0  0
  -27.6135  -13.2899   19.8368 C   0  0  2  0  0  0
  -28.6384  -13.4815   20.9768 C   0  0  0  0  0  0
  -25.2400  -13.8293   20.5768 C   0  0  0  0  0  0
  -24.1742  -13.0476   20.9242 C   0  0  0  0  0  0
  -24.6403  -11.6974   20.8742 C   0  0  0  0  0  0
  -23.9098  -10.4315   21.0381 C   0  0  0  0  0  0
  -24.3655   -9.4234   21.9175 C   0  0  0  0  0  0
  -23.6322   -8.2274   22.0765 C   0  0  0  0  0  0
  -22.4301   -8.0294   21.3547 C   0  0  0  0  0  0
  -21.9929   -9.0262   20.4636 C   0  0  0  0  0  0
  -22.7258  -10.2142   20.3033 C   0  0  0  0  0  0
  -21.6869   -6.0725   22.5268 C   0  0  0  0  0  0
  -21.4016   -6.5632   23.8188 C   0  0  0  0  0  0
  -21.3690   -5.6787   24.9170 C   0  0  0  0  0  0
  -21.6048   -4.3044   24.7222 C   0  0  0  0  0  0
  -21.8828   -3.8136   23.4346 C   0  0  0  0  0  0
  -21.9207   -4.6956   22.3393 C   0  0  0  0  0  0
  -22.7773  -13.5209   21.1904 C   0  0  0  0  0  0
  -22.1693   -4.2139   21.0978 F   0  0  0  0  0  0
  -21.5643   -3.4535   25.7750 F   0  0  0  0  0  0
  -29.8741  -13.9895   20.3579 N   0  0  0  0  0  0
  -26.2828  -12.9594   20.3277 N   0  0  0  0  0  0
  -25.9343  -11.6683   20.5714 N   0  0  0  0  0  0
  -22.0471  -12.8158   22.0457 N   0  0  0  0  0  0
  -25.4078  -15.2029   20.4256 N   0  0  0  0  0  0
  -31.6369  -15.2461   19.9967 O   0  0  0  0  0  0
  -21.6675   -6.8882   21.4225 O   0  0  0  0  0  0
  -22.3460  -14.5519   20.6767 O   0  0  0  0  0  0
  -24.6627  -31.8234   23.1707 C   0  0  0  0  0  0
  -25.9297  -32.4595   23.8189 C   0  0  1  0  0  0
  -27.2084  -26.9230   20.1901 C   0  0  0  0  0  0
  -25.5956  -33.8408   24.2087 N   0  0  0  0  0  0
  -23.4778  -30.4347   21.5190 C   0  0  2  0  0  0
  -24.9293  -28.8177   20.1189 C   0  0  0  0  0  0
  -22.7668  -29.4437   22.4773 C   0  0  0  0  0  0
  -18.0309  -28.1401   22.8467 C   0  0  0  0  0  0
  -24.1485  -36.7204   23.2654 C   0  0  0  0  0  0
  -26.0473  -30.6327   21.3962 C   0  0  0  0  0  0
  -26.1157  -29.2193   20.7460 C   0  0  0  0  0  0
  -27.2548  -28.2934   20.7528 C   0  0  0  0  0  0
  -25.9944  -26.6767   19.5150 C   0  0  0  0  0  0
  -24.8931  -27.5667   19.4849 C   0  0  0  0  0  0
  -23.7183  -29.7474   20.1475 C   0  0  0  0  0  0
  -25.4125  -36.2966   24.0305 C   0  0  1  0  0  0
  -20.5939  -28.3745   23.1174 C   0  0  2  0  0  0
  -20.6763  -26.9418   22.5395 C   0  0  0  0  0  0
  -19.5735  -26.6367   21.5204 C   0  0  0  0  0  0
  -18.1925  -26.7933   22.1624 C   0  0  0  0  0  0
  -19.1577  -28.8890   23.2814 C   0  0  0  0  0  0
  -18.9494  -30.1472   23.8861 C   0  0  0  0  0  0
  -17.6492  -30.6593   24.0545 C   0  0  0  0  0  0
  -25.9091  -34.9352   23.5020 C   0  0  0  0  0  0
  -16.5378  -29.9080   23.6337 C   0  0  0  0  0  0
  -16.7294  -28.6491   23.0375 C   0  0  0  0  0  0
  -26.4548  -31.6542   25.0721 C   0  0  0  0  0  0
  -25.3690  -31.3784   26.1395 C   0  0  0  0  0  0
  -27.0441  -30.2908   24.6444 C   0  0  0  0  0  0
  -27.6036  -32.4356   25.7539 C   0  0  0  0  0  0
  -27.5559  -37.1761   24.8468 C   0  0  0  0  0  0
  -21.4335  -29.3053   22.3547 N   0  0  0  0  0  0
  -26.4262  -37.3705   23.9420 N   0  0  0  0  0  0
  -24.7511  -30.9915   22.0825 N   0  0  0  0  0  0
  -23.4221  -28.8005   23.3009 O   0  0  0  0  0  0
  -28.2124  -25.8206   20.2116 O   0  0  0  0  0  0
  -26.5713  -34.8884   22.4624 O   0  0  0  0  0  0
  -23.5697  -32.1196   23.6800 O   0  0  0  0  0  0
  -31.2226  -18.5813   20.8070 C   0  0  0  0  0  0
  -31.9168  -19.5709   20.0558 C   0  0  0  0  0  0
  -29.9200  -19.8379   18.6924 C   0  0  0  0  0  0
  -31.3527  -19.9636   18.7848 C   0  0  0  0  0  0
  -29.2220  -19.4155   19.8385 C   0  0  0  0  0  0
  -29.9687  -18.1665   20.3943 C   0  0  0  0  0  0
  -30.4550  -16.7733   22.1686 C   0  0  0  0  0  0
  -31.6412  -17.7904   22.0290 C   0  0  1  0  0  0
  -33.1972  -20.1551   20.6223 C   0  0  0  0  0  0
  -29.0411  -20.3183   17.5427 C   0  0  0  0  0  0
  -35.4666  -17.1376   22.7192 C   0  0  0  0  0  0
  -33.7171  -20.0730   17.6599 C   0  0  0  0  0  0
  -32.1906  -22.0558   17.5643 C   0  0  0  0  0  0
  -31.7711  -19.9588   16.2308 C   0  0  0  0  0  0
  -28.6333  -20.9177   20.5224 C   0  0  0  0  0  0
  -33.0388  -17.1325   21.9180 C   0  0  0  0  0  0
  -34.0462  -17.6529   22.9602 C   0  0  0  0  0  0
  -28.7925  -22.6555   20.0100 C   0  0  0  0  0  0
  -27.9461  -24.2007   20.4218 C   0  0  0  0  0  0
  -32.2291  -20.5135   17.6036 C   0  0  0  0  0  0
  -29.8486  -16.6052   20.8227 N   0  0  0  0  0  0
  -31.4525  -12.9895   19.2347 H   0  0  0  0  0  0
  -30.4667  -11.9173   20.1595 H   0  0  0  0  0  0
  -29.9163  -11.7702   17.7048 H   0  0  0  0  0  0
  -29.5852  -13.4852   17.6652 H   0  0  0  0  0  0
  -28.0244  -11.2981   19.0655 H   0  0  0  0  0  0
  -27.4182  -12.3984   17.8522 H   0  0  0  0  0  0
  -27.5254  -14.2603   19.3458 H   0  0  0  0  0  0
  -28.8043  -12.5540   21.5275 H   0  0  0  0  0  0
  -28.2644  -14.2052   21.7030 H   0  0  0  0  0  0
  -25.2805   -9.5738   22.4743 H   0  0  0  0  0  0
  -24.0060   -7.4662   22.7478 H   0  0  0  0  0  0
  -21.0879   -8.8742   19.8918 H   0  0  0  0  0  0
  -22.3699  -10.9681   19.6134 H   0  0  0  0  0  0
  -21.1986   -7.6136   23.9683 H   0  0  0  0  0  0
  -21.1523   -6.0529   25.9068 H   0  0  0  0  0  0
  -22.0581   -2.7597   23.2837 H   0  0  0  0  0  0
  -22.4146  -11.9811   22.4774 H   0  0  0  0  0  0
  -21.1050  -13.1095   22.2653 H   0  0  0  0  0  0
  -24.6516  -15.8662   20.5490 H   0  0  0  0  0  0
  -26.2707  -15.6420   20.1274 H   0  0  0  0  0  0
  -26.7388  -32.5142   23.0934 H   0  0  0  0  0  0
  -25.0019  -33.9503   25.0177 H   0  0  0  0  0  0
  -22.7903  -31.2646   21.3433 H   0  0  0  0  0  0
  -23.3753  -35.9525   23.3272 H   0  0  0  0  0  0
  -24.3568  -36.8889   22.2079 H   0  0  0  0  0  0
  -23.7228  -37.6374   23.6736 H   0  0  0  0  0  0
  -26.2187  -31.3719   20.6120 H   0  0  0  0  0  0
  -26.9106  -30.7001   22.0468 H   0  0  0  0  0  0
  -28.1567  -28.6006   21.2620 H   0  0  0  0  0  0
  -25.8672  -25.7242   19.0210 H   0  0  0  0  0  0
  -23.9903  -27.2507   18.9801 H   0  0  0  0  0  0
  -23.8783  -30.5109   19.3853 H   0  0  0  0  0  0
  -22.8268  -29.2014   19.8308 H   0  0  0  0  0  0
  -25.1324  -36.1759   25.0791 H   0  0  0  0  0  0
  -21.0030  -28.3341   24.1300 H   0  0  0  0  0  0
  -20.5589  -26.2384   23.3657 H   0  0  0  0  0  0
  -21.6630  -26.7344   22.1244 H   0  0  0  0  0  0
  -19.6892  -25.6269   21.1260 H   0  0  0  0  0  0
  -19.6657  -27.3157   20.6719 H   0  0  0  0  0  0
  -17.4186  -26.6672   21.4038 H   0  0  0  0  0  0
  -18.0312  -26.0092   22.9035 H   0  0  0  0  0  0
  -19.7970  -30.7276   24.2238 H   0  0  0  0  0  0
  -17.5044  -31.6274   24.5143 H   0  0  0  0  0  0
  -15.5376  -30.2973   23.7674 H   0  0  0  0  0  0
  -15.8690  -28.0784   22.7139 H   0  0  0  0  0  0
  -24.5906  -30.7081   25.7733 H   0  0  0  0  0  0
  -24.8851  -32.2978   26.4702 H   0  0  0  0  0  0
  -25.7967  -30.9065   27.0251 H   0  0  0  0  0  0
  -26.3114  -29.6597   24.1408 H   0  0  0  0  0  0
  -27.3912  -29.7267   25.5109 H   0  0  0  0  0  0
  -27.9071  -30.4080   23.9891 H   0  0  0  0  0  0
  -27.2591  -33.3695   26.1992 H   0  0  0  0  0  0
  -28.3929  -32.6849   25.0437 H   0  0  0  0  0  0
  -28.0605  -31.8562   26.5573 H   0  0  0  0  0  0
  -28.2550  -38.0078   24.7512 H   0  0  0  0  0  0
  -28.1071  -36.2604   24.6284 H   0  0  0  0  0  0
  -27.2280  -37.1395   25.8869 H   0  0  0  0  0  0
  -20.9590  -29.8810   21.6732 H   0  0  0  0  0  0
  -26.0095  -38.2752   24.1440 H   0  0  0  0  0  0
  -29.6788  -17.2372   22.7825 H   0  0  0  0  0  0
  -30.7294  -15.8674   22.7176 H   0  0  0  0  0  0
  -31.6271  -18.4623   22.8891 H   0  0  0  0  0  0
  -33.1138  -20.2492   21.7027 H   0  0  0  0  0  0
  -33.3657  -21.1677   20.2603 H   0  0  0  0  0  0
  -34.0619  -19.5335   20.3963 H   0  0  0  0  0  0
  -29.3516  -21.2766   17.1361 H   0  0  0  0  0  0
  -28.0064  -20.4405   17.8682 H   0  0  0  0  0  0
  -29.0182  -19.5725   16.7492 H   0  0  0  0  0  0
  -36.1487  -17.5104   23.4828 H   0  0  0  0  0  0
  -35.8432  -17.4678   21.7520 H   0  0  0  0  0  0
  -35.5062  -16.0487   22.7388 H   0  0  0  0  0  0
  -34.3071  -20.5962   18.4048 H   0  0  0  0  0  0
  -34.2405  -20.2940   16.7290 H   0  0  0  0  0  0
  -33.8164  -18.9992   17.8206 H   0  0  0  0  0  0
  -32.6036  -22.4996   18.4694 H   0  0  0  0  0  0
  -31.1815  -22.4461   17.4544 H   0  0  0  0  0  0
  -32.7667  -22.4377   16.7195 H   0  0  0  0  0  0
  -31.6387  -18.8763   16.2708 H   0  0  0  0  0  0
  -32.4928  -20.1674   15.4402 H   0  0  0  0  0  0
  -30.8583  -20.4079   15.8541 H   0  0  0  0  0  0
  -28.9450  -20.8859   21.5671 H   0  0  0  0  0  0
  -27.5563  -20.7510   20.5671 H   0  0  0  0  0  0
  -33.4312  -17.2585   20.9070 H   0  0  0  0  0  0
  -32.9548  -16.0553   22.0590 H   0  0  0  0  0  0
  -34.0754  -18.7411   22.9552 H   0  0  0  0  0  0
  -33.7163  -17.3656   23.9602 H   0  0  0  0  0  0
  -28.6876  -22.6249   18.9285 H   0  0  0  0  0  0
  -29.8507  -22.8718   20.1547 H   0  0  0  0  0  0
  -27.8496  -24.1457   21.5070 H   0  0  0  0  0  0
  -26.9244  -24.0481   20.0764 H   0  0  0  0  0  0
  1 25  1  0  0  0
  1 30  2  0  0  0
  1 91  1  0  0  0
  2  3  1  0  0  0
  2 25  1  0  0  0
  2 92  1  0  0  0
  2 93  1  0  0  0
  3  4  1  0  0  0
  3 94  1  0  0  0
  3 95  1  0  0  0
  4  5  1  0  0  0
  4 96  1  0  0  0
  4 97  1  0  0  0
  5  6  1  0  0  0
  5 26  1  0  0  0
  5 98  1  0  0  0
  6 25  1  0  0  0
  6 99  1  0  0  0
  6100  1  0  0  0
  7  8  2  0  0  0
  7 26  1  0  0  0
  7 29  1  0  0  0
  8  9  1  0  0  0
  8 22  1  0  0  0
  9 10  1  0  0  0
  9 27  2  0  0  0
 10 11  2  0  0  0
 10 15  1  0  0  0
 11 12  1  0  0  0
 11101  1  0  0  0
 12 13  2  0  0  0
 12102  1  0  0  0
 13 14  1  0  0  0
 13 31  1  0  0  0
 14 15  2  0  0  0
 14103  1  0  0  0
 15104  1  0  0  0
 16 17  2  0  0  0
 16 21  1  0  0  0
 16 31  1  0  0  0
 17 18  1  0  0  0
 17105  1  0  0  0
 18 19  2  0  0  0
 18106  1  0  0  0
 19 20  1  0  0  0
 19 24  1  0  0  0
 20 21  2  0  0  0
 20107  1  0  0  0
 21 23  1  0  0  0
 22 28  1  0  0  0
 22 32  2  0  0  0
 26 27  1  0  0  0
 28108  1  0  0  0
 28109  1  0  0  0
 29110  1  0  0  0
 29111  1  0  0  0
 33 34  1  0  0  0
 33 66  1  0  0  0
 33 70  2  0  0  0
 34 36  1  0  0  0
 34 59  1  0  0  0
 34112  1  0  0  0
 35 44  2  0  0  0
 35 45  1  0  0  0
 35 68  1  0  0  0
 36 56  1  0  0  0
 36113  1  0  0  0
 37 39  1  0  0  0
 37 47  1  0  0  0
 37 66  1  0  0  0
 37114  1  0  0  0
 38 43  2  0  0  0
 38 46  1  0  0  0
 38 47  1  0  0  0
 39 64  1  0  0  0
 39 67  2  0  0  0
 40 52  1  0  0  0
 40 53  2  0  0  0
 40 58  1  0  0  0
 41115  1  0  0  0
 41116  1  0  0  0
 41117  1  0  0  0
 41 48  1  0  0  0
 42 43  1  0  0  0
 42 66  1  0  0  0
 42118  1  0  0  0
 42119  1  0  0  0
 43 44  1  0  0  0
 44120  1  0  0  0
 45 46  2  0  0  0
 45121  1  0  0  0
 46122  1  0  0  0
 47123  1  0  0  0
 47124  1  0  0  0
 48 56  1  0  0  0
 48 65  1  0  0  0
 48125  1  0  0  0
 49 50  1  0  0  0
 49 53  1  0  0  0
 49 64  1  0  0  0
 49126  1  0  0  0
 50 51  1  0  0  0
 50127  1  0  0  0
 50128  1  0  0  0
 51 52  1  0  0  0
 51129  1  0  0  0
 51130  1  0  0  0
 52131  1  0  0  0
 52132  1  0  0  0
 53 54  1  0  0  0
 54 55  2  0  0  0
 54133  1  0  0  0
 55 57  1  0  0  0
 55134  1  0  0  0
 56 69  2  0  0  0
 57 58  2  0  0  0
 57135  1  0  0  0
 58136  1  0  0  0
 59 60  1  0  0  0
 59 61  1  0  0  0
 59 62  1  0  0  0
 60137  1  0  0  0
 60138  1  0  0  0
 60139  1  0  0  0
 61140  1  0  0  0
 61141  1  0  0  0
 61142  1  0  0  0
 62143  1  0  0  0
 62144  1  0  0  0
 62145  1  0  0  0
 63 65  1  0  0  0
 63146  1  0  0  0
 63147  1  0  0  0
 63148  1  0  0  0
 64149  1  0  0  0
 65150  1  0  0  0
 68 89  1  0  0  0
 71 72  2  0  0  0
 71 76  1  0  0  0
 71 78  1  0  0  0
 72 74  1  0  0  0
 72 79  1  0  0  0
 73 74  2  0  0  0
 73 75  1  0  0  0
 73 80  1  0  0  0
 74 90  1  0  0  0
 75 76  2  0  0  0
 75 85  1  0  0  0
 76 91  1  0  0  0
 77 78  1  0  0  0
 77 91  1  0  0  0
 77151  1  0  0  0
 77152  1  0  0  0
 78 86  1  0  0  0
 78153  1  0  0  0
 79154  1  0  0  0
 79155  1  0  0  0
 79156  1  0  0  0
 80157  1  0  0  0
 80158  1  0  0  0
 80159  1  0  0  0
 81 87  1  0  0  0
 81160  1  0  0  0
 81161  1  0  0  0
 81162  1  0  0  0
 82163  1  0  0  0
 82164  1  0  0  0
 82165  1  0  0  0
 82 90  1  0  0  0
 83 90  1  0  0  0
 83166  1  0  0  0
 83167  1  0  0  0
 83168  1  0  0  0
 84 90  1  0  0  0
 84169  1  0  0  0
 84170  1  0  0  0
 84171  1  0  0  0
 85 88  1  0  0  0
 85172  1  0  0  0
 85173  1  0  0  0
 86 87  1  0  0  0
 86174  1  0  0  0
 86175  1  0  0  0
 87176  1  0  0  0
 87177  1  0  0  0
 88 89  1  0  0  0
 88178  1  0  0  0
 88179  1  0  0  0
 89180  1  0  0  0
 89181  1  0  0  0
M  ISO  4   1 100  68 101  89 101  91 100
M  END
> <chiral flag>
0

> <version>
0

> <s_m_source_file>
/data/baiqing/PycharmProjects/Reinvent-master-3.2/result/LINK_invent/BTK/process_docking_weight1_custom_sum_contain_oxygen_bond_distance_aromatic_linkinvent_7_9_3/rearranged_h_0022.sdf

> <i_m_source_file_index>
57

> <r_mmod_Potential_Energy-OPLS-2005>
2036.67846679688

> <r_mmod_Stretch_Energy-OPLS-2005>
659.853698730469

> <r_mmod_Bend_Energy-OPLS-2005>
667.551574707031

> <r_mmod_Torsional_Energy-OPLS-2005>
582.406860351562

> <r_mmod_Improper_Torsional_Energy-OPLS-2005>
29.4657745361328

> <r_mmod_Van_der_Waal_Energy-OPLS-2005>
157.905670166016

> <r_mmod_Electrostatic_Energy-OPLS-2005>
-353.246032714844

> <r_mmod_Solvation_Energy-OPLS-2005>
-178.038192749023

> <b_mmod_Minimization_Converged-OPLS-2005>
0

> <r_mmod_RMS_Derivative-OPLS-2005>
3.37319779396057

$$$$
57
                    3D
 Structure written by MMmdl.
192200  0  0  1  0            999 V2000
  -30.7527  -14.3998   20.6343 C   0  0  0  0  0  0
  -30.4214  -12.2916   19.4045 C   0  0  0  0  0  0
  -29.4887  -12.4984   18.1963 C   0  0  0  0  0  0
  -28.0121  -12.3617   18.6158 C   0  0  0  0  0  0
  -27.6667  -13.2014   19.8728 C   0  0  2  0  0  0
  -28.7039  -12.9675   20.9917 C   0  0  0  0  0  0
  -25.2646  -13.8209   20.5745 C   0  0  0  0  0  0
  -24.1888  -13.0484   20.9201 C   0  0  0  0  0  0
  -24.6393  -11.6937   20.8716 C   0  0  0  0  0  0
  -23.9033  -10.4322   21.0385 C   0  0  0  0  0  0
  -24.3589   -9.4241   21.9170 C   0  0  0  0  0  0
  -23.6285   -8.2252   22.0736 C   0  0  0  0  0  0
  -22.4269   -8.0293   21.3543 C   0  0  0  0  0  0
  -21.9886   -9.0247   20.4623 C   0  0  0  0  0  0
  -22.7188  -10.2146   20.3042 C   0  0  0  0  0  0
  -21.6848   -6.0746   22.5286 C   0  0  0  0  0  0
  -21.3995   -6.5637   23.8227 C   0  0  0  0  0  0
  -21.3658   -5.6793   24.9180 C   0  0  0  0  0  0
  -21.6061   -4.3058   24.7227 C   0  0  0  0  0  0
  -21.8825   -3.8151   23.4334 C   0  0  0  0  0  0
  -21.9191   -4.6960   22.3401 C   0  0  0  0  0  0
  -22.7907  -13.5299   21.1857 C   0  0  0  0  0  0
  -22.1679   -4.2163   21.0969 F   0  0  0  0  0  0
  -21.5605   -3.4539   25.7731 F   0  0  0  0  0  0
  -30.0412  -13.2589   20.4440 N   0  0  0  0  0  0
  -26.3061  -12.9355   20.3350 N   0  0  0  0  0  0
  -25.9318  -11.6518   20.5719 N   0  0  0  0  0  0
  -22.0526  -12.8309   22.0387 N   0  0  0  0  0  0
  -25.4400  -15.1942   20.4215 N   0  0  0  0  0  0
  -31.8346  -14.6211   20.0850 O   0  0  0  0  0  0
  -21.6619   -6.8895   21.4263 O   0  0  0  0  0  0
  -22.3598  -14.5604   20.6680 O   0  0  0  0  0  0
  -24.6053  -31.8716   23.2104 C   0  0  0  0  0  0
  -25.8963  -32.4848   23.8408 C   0  0  1  0  0  0
  -27.2753  -27.4972   20.1219 C   0  0  0  0  0  0
  -25.5839  -33.8643   24.2349 N   0  0  0  0  0  0
  -23.3926  -30.4881   21.5479 C   0  0  2  0  0  0
  -24.8445  -28.9536   20.1164 C   0  0  0  0  0  0
  -22.7370  -29.4654   22.5019 C   0  0  0  0  0  0
  -18.0269  -28.1381   22.8513 C   0  0  0  0  0  0
  -24.1481  -36.7328   23.2644 C   0  0  0  0  0  0
  -25.9044  -30.8680   21.3393 C   0  0  0  0  0  0
  -25.9901  -29.5001   20.7012 C   0  0  0  0  0  0
  -27.1986  -28.7900   20.6932 C   0  0  0  0  0  0
  -26.1166  -26.9621   19.5149 C   0  0  0  0  0  0
  -24.9007  -27.6810   19.5146 C   0  0  0  0  0  0
  -23.5963  -29.8050   20.1660 C   0  0  0  0  0  0
  -25.4098  -36.3132   24.0356 C   0  0  1  0  0  0
  -20.5852  -28.3642   23.1360 C   0  0  2  0  0  0
  -20.6750  -26.9379   22.5447 C   0  0  0  0  0  0
  -19.5731  -26.6389   21.5235 C   0  0  0  0  0  0
  -18.1908  -26.7938   22.1637 C   0  0  0  0  0  0
  -19.1515  -28.8835   23.2938 C   0  0  0  0  0  0
  -18.9435  -30.1448   23.8940 C   0  0  0  0  0  0
  -17.6433  -30.6585   24.0583 C   0  0  0  0  0  0
  -25.9012  -34.9491   23.5158 C   0  0  0  0  0  0
  -16.5329  -29.9091   23.6330 C   0  0  0  0  0  0
  -16.7256  -28.6511   23.0349 C   0  0  0  0  0  0
  -26.4423  -31.6610   25.0703 C   0  0  0  0  0  0
  -25.3724  -31.3695   26.1484 C   0  0  0  0  0  0
  -27.0237  -30.3083   24.5977 C   0  0  0  0  0  0
  -27.6032  -32.4315   25.7441 C   0  0  0  0  0  0
  -27.5585  -37.1818   24.8468 C   0  0  0  0  0  0
  -21.4104  -29.3015   22.3770 N   0  0  0  0  0  0
  -26.4297  -37.3799   23.9413 N   0  0  0  0  0  0
  -24.6528  -31.0892   22.0940 N   0  0  0  0  0  0
  -23.4177  -28.8222   23.3049 O   0  0  0  0  0  0
  -28.4374  -26.7520   20.1285 O   0  0  0  0  0  0
  -26.5569  -34.8933   22.4715 O   0  0  0  0  0  0
  -23.5274  -32.1405   23.7562 O   0  0  0  0  0  0
  -31.8751  -22.3327   17.4995 C   0  0  0  0  0  0
  -29.7617  -23.6669   18.1156 C   0  0  0  0  0  0
  -30.8120  -21.2453   17.2803 C   0  0  0  0  0  0
  -29.2023  -22.3929   18.7946 C   0  0  0  0  0  0
  -31.3021  -23.7391   17.8635 C   0  0  1  0  0  0
  -30.4077  -24.1752   22.6174 C   0  0  0  0  0  0
  -28.7495  -19.1770   17.4290 C   0  0  0  0  0  0
  -33.2348  -24.7677   21.2353 C   0  0  0  0  0  0
  -32.1756  -22.5974   20.8543 C   0  0  0  0  0  0
  -32.1499  -24.4140   19.0136 C   0  0  0  0  0  0
  -29.1043  -18.0955   20.5652 C   0  0  0  0  0  0
  -29.7310  -17.7007   21.9167 C   0  0  0  0  0  0
  -30.0058  -18.9782   19.6806 C   0  0  0  0  0  0
  -30.6306  -26.2486   21.1828 C   0  0  0  0  0  0
  -30.7776  -16.5747   21.8500 C   0  0  0  0  0  0
  -29.2298  -26.8646   21.3217 C   0  0  0  0  0  0
  -30.6939  -24.7001   21.1926 C   0  0  1  0  0  0
  -29.2077  -19.8903   18.7186 C   0  0  1  0  0  0
  -31.4819  -24.6466   16.6013 C   0  0  0  0  0  0
  -32.0110  -24.1065   20.5541 C   0  0  0  0  0  0
  -30.1863  -15.3034   21.4457 N   0  0  0  0  0  0
  -29.9669  -21.1530   18.4910 N   0  3  1  0  0  0
  -30.8959  -24.0991   15.5336 F   0  0  0  0  0  0
  -30.9342  -25.8479   16.7954 F   0  0  0  0  0  0
  -32.7724  -24.8213   16.3104 F   0  0  0  0  0  0
  -31.4635  -12.3976   19.0983 H   0  0  0  0  0  0
  -30.3296  -11.2752   19.7899 H   0  0  0  0  0  0
  -29.7239  -11.7689   17.4191 H   0  0  0  0  0  0
  -29.6612  -13.4830   17.7609 H   0  0  0  0  0  0
  -27.8221  -11.3045   18.8098 H   0  0  0  0  0  0
  -27.3564  -12.6381   17.7885 H   0  0  0  0  0  0
  -27.7238  -14.2498   19.5798 H   0  0  0  0  0  0
  -28.6734  -11.9328   21.3357 H   0  0  0  0  0  0
  -28.4545  -13.5676   21.8662 H   0  0  0  0  0  0
  -25.2729   -9.5752   22.4732 H   0  0  0  0  0  0
  -24.0019   -7.4671   22.7460 H   0  0  0  0  0  0
  -21.0813   -8.8762   19.8933 H   0  0  0  0  0  0
  -22.3652  -10.9670   19.6133 H   0  0  0  0  0  0
  -21.1994   -7.6153   23.9743 H   0  0  0  0  0  0
  -21.1461   -6.0503   25.9095 H   0  0  0  0  0  0
  -22.0602   -2.7606   23.2829 H   0  0  0  0  0  0
  -22.4077  -11.9919   22.4736 H   0  0  0  0  0  0
  -21.1120  -13.1303   22.2491 H   0  0  0  0  0  0
  -24.6873  -15.8543   20.5858 H   0  0  0  0  0  0
  -26.2975  -15.6470   20.1281 H   0  0  0  0  0  0
  -26.7044  -32.5607   23.1206 H   0  0  0  0  0  0
  -25.0015  -33.9813   25.0513 H   0  0  0  0  0  0
  -22.6778  -31.3012   21.4069 H   0  0  0  0  0  0
  -23.3734  -35.9672   23.3326 H   0  0  0  0  0  0
  -24.3583  -36.8910   22.2055 H   0  0  0  0  0  0
  -23.7240  -37.6549   23.6627 H   0  0  0  0  0  0
  -25.9867  -31.6267   20.5600 H   0  0  0  0  0  0
  -26.8039  -30.9472   21.9386 H   0  0  0  0  0  0
  -28.0599  -29.2843   21.1139 H   0  0  0  0  0  0
  -26.1576  -25.9859   19.0526 H   0  0  0  0  0  0
  -24.0204  -27.2533   19.0547 H   0  0  0  0  0  0
  -23.6854  -30.5720   19.3954 H   0  0  0  0  0  0
  -22.7286  -29.2045   19.8874 H   0  0  0  0  0  0
  -25.1274  -36.2020   25.0850 H   0  0  0  0  0  0
  -20.9964  -28.3198   24.1473 H   0  0  0  0  0  0
  -20.5666  -26.2231   23.3622 H   0  0  0  0  0  0
  -21.6617  -26.7435   22.1227 H   0  0  0  0  0  0
  -19.6877  -25.6313   21.1239 H   0  0  0  0  0  0
  -19.6685  -27.3228   20.6791 H   0  0  0  0  0  0
  -17.4190  -26.6724   21.4014 H   0  0  0  0  0  0
  -18.0271  -26.0071   22.9021 H   0  0  0  0  0  0
  -19.7905  -30.7266   24.2308 H   0  0  0  0  0  0
  -17.4983  -31.6268   24.5180 H   0  0  0  0  0  0
  -15.5330  -30.3004   23.7620 H   0  0  0  0  0  0
  -15.8660  -28.0849   22.7017 H   0  0  0  0  0  0
  -24.5883  -30.7043   25.7838 H   0  0  0  0  0  0
  -24.8915  -32.2838   26.4971 H   0  0  0  0  0  0
  -25.8108  -30.8851   27.0216 H   0  0  0  0  0  0
  -26.2736  -29.6874   24.1058 H   0  0  0  0  0  0
  -27.4090  -29.7282   25.4372 H   0  0  0  0  0  0
  -27.8528  -30.4463   23.9034 H   0  0  0  0  0  0
  -27.2670  -33.3600   26.2072 H   0  0  0  0  0  0
  -28.3791  -32.6904   25.0222 H   0  0  0  0  0  0
  -28.0747  -31.8402   26.5300 H   0  0  0  0  0  0
  -28.2631  -38.0087   24.7490 H   0  0  0  0  0  0
  -28.1047  -36.2623   24.6318 H   0  0  0  0  0  0
  -27.2306  -37.1512   25.8871 H   0  0  0  0  0  0
  -20.9242  -29.8708   21.6986 H   0  0  0  0  0  0
  -26.0201  -38.2891   24.1382 H   0  0  0  0  0  0
  -32.4907  -22.3937   16.6017 H   0  0  0  0  0  0
  -32.5636  -21.9826   18.2636 H   0  0  0  0  0  0
  -29.3978  -24.5773   18.5920 H   0  0  0  0  0  0
  -29.2576  -23.6977   17.1505 H   0  0  0  0  0  0
  -31.3206  -20.2962   17.1044 H   0  0  0  0  0  0
  -30.2014  -21.4535   16.3995 H   0  0  0  0  0  0
  -28.1660  -22.2842   18.4723 H   0  0  0  0  0  0
  -29.1595  -22.4903   19.8783 H   0  0  0  0  0  0
  -29.5117  -24.6236   23.0441 H   0  0  0  0  0  0
  -31.2254  -24.3869   23.3045 H   0  0  0  0  0  0
  -30.2268  -23.1013   22.6238 H   0  0  0  0  0  0
  -28.0891  -18.3421   17.6688 H   0  0  0  0  0  0
  -29.5835  -18.7708   16.8584 H   0  0  0  0  0  0
  -28.1935  -19.8524   16.7764 H   0  0  0  0  0  0
  -34.1732  -24.3513   20.8667 H   0  0  0  0  0  0
  -33.2364  -24.6148   22.3140 H   0  0  0  0  0  0
  -33.2838  -25.8413   21.0586 H   0  0  0  0  0  0
  -33.0824  -22.1890   20.4053 H   0  0  0  0  0  0
  -31.3322  -22.0036   20.5235 H   0  0  0  0  0  0
  -32.2812  -22.4108   21.9244 H   0  0  0  0  0  0
  -32.0628  -25.4893   18.8867 H   0  0  0  0  0  0
  -33.1951  -24.2410   18.7470 H   0  0  0  0  0  0
  -28.2012  -18.6579   20.8015 H   0  0  0  0  0  0
  -28.7675  -17.2151   20.0164 H   0  0  0  0  0  0
  -28.9298  -17.4038   22.5935 H   0  0  0  0  0  0
  -30.1797  -18.5780   22.3855 H   0  0  0  0  0  0
  -30.7241  -18.3635   19.1359 H   0  0  0  0  0  0
  -30.6041  -19.6110   20.3374 H   0  0  0  0  0  0
  -31.2361  -26.6199   22.0128 H   0  0  0  0  0  0
  -31.0778  -26.6801   20.2912 H   0  0  0  0  0  0
  -31.6003  -16.8672   21.1950 H   0  0  0  0  0  0
  -31.2012  -16.4266   22.8443 H   0  0  0  0  0  0
  -29.4250  -27.8977   21.5943 H   0  0  0  0  0  0
  -28.6764  -26.4394   22.1586 H   0  0  0  0  0  0
  -29.8425  -24.3650   20.6225 H   0  0  0  0  0  0
  -28.2968  -20.1768   19.2442 H   0  0  0  0  0  0
  -29.2830  -15.0723   21.8331 H   0  0  0  0  0  0
  -30.6442  -21.1245   19.2379 H   0  0  0  0  0  0
  1 25  1  0  0  0
  1 30  2  0  0  0
  1 91  1  0  0  0
  2  3  1  0  0  0
  2 25  1  0  0  0
  2 96  1  0  0  0
  2 97  1  0  0  0
  3  4  1  0  0  0
  3 98  1  0  0  0
  3 99  1  0  0  0
  4  5  1  0  0  0
  4100  1  0  0  0
  4101  1  0  0  0
  5  6  1  0  0  0
  5 26  1  0  0  0
  5102  1  0  0  0
  6 25  1  0  0  0
  6103  1  0  0  0
  6104  1  0  0  0
  7  8  2  0  0  0
  7 26  1  0  0  0
  7 29  1  0  0  0
  8  9  1  0  0  0
  8 22  1  0  0  0
  9 10  1  0  0  0
  9 27  2  0  0  0
 10 11  2  0  0  0
 10 15  1  0  0  0
 11 12  1  0  0  0
 11105  1  0  0  0
 12 13  2  0  0  0
 12106  1  0  0  0
 13 14  1  0  0  0
 13 31  1  0  0  0
 14 15  2  0  0  0
 14107  1  0  0  0
 15108  1  0  0  0
 16 17  2  0  0  0
 16 21  1  0  0  0
 16 31  1  0  0  0
 17 18  1  0  0  0
 17109  1  0  0  0
 18 19  2  0  0  0
 18110  1  0  0  0
 19 20  1  0  0  0
 19 24  1  0  0  0
 20 21  2  0  0  0
 20111  1  0  0  0
 21 23  1  0  0  0
 22 28  1  0  0  0
 22 32  2  0  0  0
 26 27  1  0  0  0
 28112  1  0  0  0
 28113  1  0  0  0
 29114  1  0  0  0
 29115  1  0  0  0
 33 34  1  0  0  0
 33 66  1  0  0  0
 33 70  2  0  0  0
 34 36  1  0  0  0
 34 59  1  0  0  0
 34116  1  0  0  0
 35 44  2  0  0  0
 35 45  1  0  0  0
 35 68  1  0  0  0
 36 56  1  0  0  0
 36117  1  0  0  0
 37 39  1  0  0  0
 37 47  1  0  0  0
 37 66  1  0  0  0
 37118  1  0  0  0
 38 43  2  0  0  0
 38 46  1  0  0  0
 38 47  1  0  0  0
 39 64  1  0  0  0
 39 67  2  0  0  0
 40 52  1  0  0  0
 40 53  2  0  0  0
 40 58  1  0  0  0
 41119  1  0  0  0
 41120  1  0  0  0
 41121  1  0  0  0
 41 48  1  0  0  0
 42 43  1  0  0  0
 42 66  1  0  0  0
 42122  1  0  0  0
 42123  1  0  0  0
 43 44  1  0  0  0
 44124  1  0  0  0
 45 46  2  0  0  0
 45125  1  0  0  0
 46126  1  0  0  0
 47127  1  0  0  0
 47128  1  0  0  0
 48 56  1  0  0  0
 48 65  1  0  0  0
 48129  1  0  0  0
 49 50  1  0  0  0
 49 53  1  0  0  0
 49 64  1  0  0  0
 49130  1  0  0  0
 50 51  1  0  0  0
 50131  1  0  0  0
 50132  1  0  0  0
 51 52  1  0  0  0
 51133  1  0  0  0
 51134  1  0  0  0
 52135  1  0  0  0
 52136  1  0  0  0
 53 54  1  0  0  0
 54 55  2  0  0  0
 54137  1  0  0  0
 55 57  1  0  0  0
 55138  1  0  0  0
 56 69  2  0  0  0
 57 58  2  0  0  0
 57139  1  0  0  0
 58140  1  0  0  0
 59 60  1  0  0  0
 59 61  1  0  0  0
 59 62  1  0  0  0
 60141  1  0  0  0
 60142  1  0  0  0
 60143  1  0  0  0
 61144  1  0  0  0
 61145  1  0  0  0
 61146  1  0  0  0
 62147  1  0  0  0
 62148  1  0  0  0
 62149  1  0  0  0
 63 65  1  0  0  0
 63150  1  0  0  0
 63151  1  0  0  0
 63152  1  0  0  0
 64153  1  0  0  0
 65154  1  0  0  0
 68 86  1  0  0  0
 71 73  1  0  0  0
 71 75  1  0  0  0
 71155  1  0  0  0
 71156  1  0  0  0
 72 74  1  0  0  0
 72 75  1  0  0  0
 72157  1  0  0  0
 72158  1  0  0  0
 73159  1  0  0  0
 73160  1  0  0  0
 73 92  1  0  0  0
 74 92  1  0  0  0
 74161  1  0  0  0
 74162  1  0  0  0
 75 80  1  0  0  0
 75 89  1  0  0  0
 76163  1  0  0  0
 76164  1  0  0  0
 76165  1  0  0  0
 76 87  1  0  0  0
 77166  1  0  0  0
 77167  1  0  0  0
 77168  1  0  0  0
 77 88  1  0  0  0
 78169  1  0  0  0
 78170  1  0  0  0
 78171  1  0  0  0
 78 90  1  0  0  0
 79 90  1  0  0  0
 79172  1  0  0  0
 79173  1  0  0  0
 79174  1  0  0  0
 80 90  1  0  0  0
 80175  1  0  0  0
 80176  1  0  0  0
 81 82  1  0  0  0
 81 83  1  0  0  0
 81177  1  0  0  0
 81178  1  0  0  0
 82 85  1  0  0  0
 82179  1  0  0  0
 82180  1  0  0  0
 83 88  1  0  0  0
 83181  1  0  0  0
 83182  1  0  0  0
 84 86  1  0  0  0
 84 87  1  0  0  0
 84183  1  0  0  0
 84184  1  0  0  0
 85 91  1  0  0  0
 85185  1  0  0  0
 85186  1  0  0  0
 86187  1  0  0  0
 86188  1  0  0  0
 87 90  1  0  0  0
 87189  1  0  0  0
 88 92  1  0  0  0
 88190  1  0  0  0
 89 93  1  0  0  0
 89 94  1  0  0  0
 89 95  1  0  0  0
 91191  1  0  0  0
 92192  1  0  0  0
M  CHG  1  92   1
M  ISO  4   1 100  68 101  86 101  91 100
M  END
> <chiral flag>
0

> <version>
0

> <s_m_source_file>
/data/baiqing/PycharmProjects/Reinvent-master-3.2/result/LINK_invent/BTK/process_docking_weight1_custom_sum_contain_oxygen_bond_distance_aromatic_linkinvent_7_9_3/rearranged_h_0022.sdf

> <i_m_source_file_index>
58

> <r_mmod_Potential_Energy-OPLS-2005>
22.0417594909668

> <r_mmod_Stretch_Energy-OPLS-2005>
47.4615745544434

> <r_mmod_Bend_Energy-OPLS-2005>
160.569488525391

> <r_mmod_Torsional_Energy-OPLS-2005>
338.383270263672

> <r_mmod_Improper_Torsional_Energy-OPLS-2005>
1.63890385627747

> <r_mmod_Van_der_Waal_Energy-OPLS-2005>
170.111282348633

> <r_mmod_Electrostatic_Energy-OPLS-2005>
-292.549133300781

> <r_mmod_Solvation_Energy-OPLS-2005>
-412.005493164062

> <b_mmod_Minimization_Converged-OPLS-2005>
0

> <r_mmod_RMS_Derivative-OPLS-2005>
3.90118741989136

$$$$
58
                    3D
 Structure written by MMmdl.
159167  0  0  1  0            999 V2000
  -30.5612  -14.8700   20.4526 C   0  0  0  0  0  0
  -30.4469  -12.5355   19.5001 C   0  0  0  0  0  0
  -29.5320  -12.5391   18.2529 C   0  0  0  0  0  0
  -28.0550  -12.3400   18.6517 C   0  0  0  0  0  0
  -27.6377  -13.2421   19.8443 C   0  0  2  0  0  0
  -28.6803  -13.2126   20.9858 C   0  0  0  0  0  0
  -25.2398  -13.8072   20.5575 C   0  0  0  0  0  0
  -24.1755  -13.0331   20.9221 C   0  0  0  0  0  0
  -24.6408  -11.6842   20.8742 C   0  0  0  0  0  0
  -23.9090  -10.4239   21.0398 C   0  0  0  0  0  0
  -24.3629   -9.4161   21.9175 C   0  0  0  0  0  0
  -23.6301   -8.2206   22.0752 C   0  0  0  0  0  0
  -22.4264   -8.0268   21.3554 C   0  0  0  0  0  0
  -21.9913   -9.0234   20.4643 C   0  0  0  0  0  0
  -22.7254  -10.2100   20.3050 C   0  0  0  0  0  0
  -21.6843   -6.0730   22.5288 C   0  0  0  0  0  0
  -21.3995   -6.5625   23.8226 C   0  0  0  0  0  0
  -21.3651   -5.6775   24.9191 C   0  0  0  0  0  0
  -21.6068   -4.3044   24.7225 C   0  0  0  0  0  0
  -21.8810   -3.8138   23.4338 C   0  0  0  0  0  0
  -21.9170   -4.6959   22.3400 C   0  0  0  0  0  0
  -22.7785  -13.5149   21.1861 C   0  0  0  0  0  0
  -22.1648   -4.2153   21.0974 F   0  0  0  0  0  0
  -21.5638   -3.4524   25.7726 F   0  0  0  0  0  0
  -29.9761  -13.6097   20.4155 N   0  0  0  0  0  0
  -26.2905  -12.9371   20.3202 N   0  0  0  0  0  0
  -25.9356  -11.6511   20.5728 N   0  0  0  0  0  0
  -22.0415  -12.8200   22.0445 N   0  0  0  0  0  0
  -25.3848  -15.1744   20.3755 N   0  0  0  0  0  0
  -31.7411  -14.9578   20.1047 O   0  0  0  0  0  0
  -21.6619   -6.8872   21.4252 O   0  0  0  0  0  0
  -22.3497  -14.5455   20.6674 O   0  0  0  0  0  0
  -24.6387  -31.8509   23.1920 C   0  0  0  0  0  0
  -25.9194  -32.4721   23.8294 C   0  0  1  0  0  0
  -27.2298  -27.2007   20.1240 C   0  0  0  0  0  0
  -25.5972  -33.8523   24.2217 N   0  0  0  0  0  0
  -23.4379  -30.4712   21.5375 C   0  0  2  0  0  0
  -24.8871  -28.9090   20.1070 C   0  0  0  0  0  0
  -22.7540  -29.4592   22.4899 C   0  0  0  0  0  0
  -18.0299  -28.1383   22.8497 C   0  0  0  0  0  0
  -24.1498  -36.7268   23.2638 C   0  0  0  0  0  0
  -25.9900  -30.7389   21.3864 C   0  0  0  0  0  0
  -26.0602  -29.3557   20.7271 C   0  0  0  0  0  0
  -27.2275  -28.5150   20.7276 C   0  0  0  0  0  0
  -26.0357  -26.8531   19.4486 C   0  0  0  0  0  0
  -24.8851  -27.6674   19.4559 C   0  0  0  0  0  0
  -23.6597  -29.8023   20.1545 C   0  0  0  0  0  0
  -25.4118  -36.3045   24.0325 C   0  0  1  0  0  0
  -20.5914  -28.3724   23.1254 C   0  0  2  0  0  0
  -20.6789  -26.9442   22.5410 C   0  0  0  0  0  0
  -19.5752  -26.6385   21.5224 C   0  0  0  0  0  0
  -18.1933  -26.7929   22.1634 C   0  0  0  0  0  0
  -19.1561  -28.8865   23.2872 C   0  0  0  0  0  0
  -18.9472  -30.1455   23.8901 C   0  0  0  0  0  0
  -17.6474  -30.6593   24.0546 C   0  0  0  0  0  0
  -25.9075  -34.9421   23.5073 C   0  0  0  0  0  0
  -16.5361  -29.9079   23.6326 C   0  0  0  0  0  0
  -16.7289  -28.6487   23.0371 C   0  0  0  0  0  0
  -26.4517  -31.6561   25.0714 C   0  0  0  0  0  0
  -25.3711  -31.3726   26.1413 C   0  0  0  0  0  0
  -27.0375  -30.2958   24.6272 C   0  0  0  0  0  0
  -27.6065  -32.4308   25.7489 C   0  0  0  0  0  0
  -27.5581  -37.1781   24.8460 C   0  0  0  0  0  0
  -21.4245  -29.3054   22.3625 N   0  0  0  0  0  0
  -26.4281  -37.3759   23.9417 N   0  0  0  0  0  0
  -24.7079  -31.0417   22.0918 N   0  0  0  0  0  0
  -23.4206  -28.8153   23.3049 O   0  0  0  0  0  0
  -28.3130  -26.2663   20.2104 O   0  0  0  0  0  0
  -26.5653  -34.8917   22.4646 O   0  0  0  0  0  0
  -23.5532  -32.1368   23.7175 O   0  0  0  0  0  0
  -28.2462  -19.5970   20.6983 C   0  0  0  0  0  0
  -29.2139  -20.5121   20.2045 C   0  0  0  0  0  0
  -28.4677  -18.1901   20.9037 C   0  0  0  0  0  0
  -30.4879  -19.8752   19.9941 C   0  0  0  0  0  0
  -30.7295  -18.4423   20.2067 C   0  0  0  0  0  0
  -29.6989  -17.5051   20.6049 C   0  0  0  0  0  0
  -27.2745  -17.4425   21.4668 C   0  0  0  0  0  0
  -31.6296  -20.7540   19.4959 C   0  0  0  0  0  0
  -32.1409  -17.9033   20.0233 C   0  0  0  0  0  0
  -28.7618  -22.0016   19.7011 C   0  0  0  0  0  0
  -28.9552  -23.4795   20.4140 C   0  0  0  0  0  0
  -28.1922  -24.8015   19.7702 C   0  0  0  0  0  0
  -29.7467  -15.9815   20.7577 N   0  0  0  0  0  0
  -31.4866  -12.6771   19.2021 H   0  0  0  0  0  0
  -30.4170  -11.5678   20.0025 H   0  0  0  0  0  0
  -29.8459  -11.7666   17.5500 H   0  0  0  0  0  0
  -29.6385  -13.4899   17.7274 H   0  0  0  0  0  0
  -27.9187  -11.2893   18.9139 H   0  0  0  0  0  0
  -27.4067  -12.5232   17.7949 H   0  0  0  0  0  0
  -27.6119  -14.2583   19.4507 H   0  0  0  0  0  0
  -28.7435  -12.2160   21.4257 H   0  0  0  0  0  0
  -28.3863  -13.8805   21.7956 H   0  0  0  0  0  0
  -25.2771   -9.5635   22.4751 H   0  0  0  0  0  0
  -23.9999   -7.4588   22.7461 H   0  0  0  0  0  0
  -21.0845   -8.8766   19.8946 H   0  0  0  0  0  0
  -22.3727  -10.9643   19.6158 H   0  0  0  0  0  0
  -21.1993   -7.6127   23.9746 H   0  0  0  0  0  0
  -21.1484   -6.0491   25.9100 H   0  0  0  0  0  0
  -22.0592   -2.7595   23.2830 H   0  0  0  0  0  0
  -22.4007  -11.9886   22.4906 H   0  0  0  0  0  0
  -21.1023  -13.1272   22.2561 H   0  0  0  0  0  0
  -24.6011  -15.8081   20.4879 H   0  0  0  0  0  0
  -26.2038  -15.6148   19.9805 H   0  0  0  0  0  0
  -26.7262  -32.5345   23.1032 H   0  0  0  0  0  0
  -25.0093  -33.9632   25.0347 H   0  0  0  0  0  0
  -22.7389  -31.2963   21.3873 H   0  0  0  0  0  0
  -23.3774  -35.9589   23.3259 H   0  0  0  0  0  0
  -24.3610  -36.8934   22.2069 H   0  0  0  0  0  0
  -23.7234  -37.6445   23.6691 H   0  0  0  0  0  0
  -26.1464  -31.4955   20.6162 H   0  0  0  0  0  0
  -26.8602  -30.7823   22.0294 H   0  0  0  0  0  0
  -28.1191  -28.8549   21.2357 H   0  0  0  0  0  0
  -25.9496  -25.9264   18.9044 H   0  0  0  0  0  0
  -23.9945  -27.3239   18.9462 H   0  0  0  0  0  0
  -23.7899  -30.5774   19.3990 H   0  0  0  0  0  0
  -22.7749  -29.2429   19.8467 H   0  0  0  0  0  0
  -25.1298  -36.1869   25.0819 H   0  0  0  0  0  0
  -21.0014  -28.3316   24.1367 H   0  0  0  0  0  0
  -20.5701  -26.2354   23.3627 H   0  0  0  0  0  0
  -21.6647  -26.7457   22.1187 H   0  0  0  0  0  0
  -19.6911  -25.6285   21.1263 H   0  0  0  0  0  0
  -19.6661  -27.3183   20.6736 H   0  0  0  0  0  0
  -17.4207  -26.6706   21.4020 H   0  0  0  0  0  0
  -18.0310  -26.0055   22.9014 H   0  0  0  0  0  0
  -19.7947  -30.7261   24.2296 H   0  0  0  0  0  0
  -17.5022  -31.6277   24.5132 H   0  0  0  0  0  0
  -15.5356  -30.2974   23.7636 H   0  0  0  0  0  0
  -15.8692  -28.0776   22.7115 H   0  0  0  0  0  0
  -24.5891  -30.7077   25.7717 H   0  0  0  0  0  0
  -24.8895  -32.2901   26.4811 H   0  0  0  0  0  0
  -25.8003  -30.8901   27.0207 H   0  0  0  0  0  0
  -26.2972  -29.6683   24.1291 H   0  0  0  0  0  0
  -27.4007  -29.7250   25.4834 H   0  0  0  0  0  0
  -27.8887  -30.4194   23.9566 H   0  0  0  0  0  0
  -27.2666  -33.3617   26.2039 H   0  0  0  0  0  0
  -28.3880  -32.6849   25.0313 H   0  0  0  0  0  0
  -28.0733  -31.8449   26.5421 H   0  0  0  0  0  0
  -28.2557  -38.0116   24.7549 H   0  0  0  0  0  0
  -28.1111  -36.2649   24.6213 H   0  0  0  0  0  0
  -27.2320  -37.1345   25.8865 H   0  0  0  0  0  0
  -20.9455  -29.8764   21.6796 H   0  0  0  0  0  0
  -26.0151  -38.2830   24.1419 H   0  0  0  0  0  0
  -27.2539  -19.9825   20.8934 H   0  0  0  0  0  0
  -26.9629  -17.8903   22.4107 H   0  0  0  0  0  0
  -27.4563  -16.3882   21.6661 H   0  0  0  0  0  0
  -26.4410  -17.5337   20.7706 H   0  0  0  0  0  0
  -31.3244  -21.7706   19.2608 H   0  0  0  0  0  0
  -32.0601  -20.3363   18.5857 H   0  0  0  0  0  0
  -32.4067  -20.8306   20.2580 H   0  0  0  0  0  0
  -32.9148  -18.6644   20.0619 H   0  0  0  0  0  0
  -32.2317  -17.3809   19.0715 H   0  0  0  0  0  0
  -32.3838  -17.2239   20.8374 H   0  0  0  0  0  0
  -27.6895  -21.9140   19.5209 H   0  0  0  0  0  0
  -29.1643  -22.0985   18.6925 H   0  0  0  0  0  0
  -30.0223  -23.6950   20.4609 H   0  0  0  0  0  0
  -28.6365  -23.3990   21.4526 H   0  0  0  0  0  0
  -27.1461  -24.5119   19.8045 H   0  0  0  0  0  0
  -28.4578  -24.8161   18.7115 H   0  0  0  0  0  0
  -28.8581  -15.6279   21.0746 H   0  0  0  0  0  0
  1 25  1  0  0  0
  1 30  2  0  0  0
  1 83  1  0  0  0
  2  3  1  0  0  0
  2 25  1  0  0  0
  2 84  1  0  0  0
  2 85  1  0  0  0
  3  4  1  0  0  0
  3 86  1  0  0  0
  3 87  1  0  0  0
  4  5  1  0  0  0
  4 88  1  0  0  0
  4 89  1  0  0  0
  5  6  1  0  0  0
  5 26  1  0  0  0
  5 90  1  0  0  0
  6 25  1  0  0  0
  6 91  1  0  0  0
  6 92  1  0  0  0
  7  8  2  0  0  0
  7 26  1  0  0  0
  7 29  1  0  0  0
  8  9  1  0  0  0
  8 22  1  0  0  0
  9 10  1  0  0  0
  9 27  2  0  0  0
 10 11  2  0  0  0
 10 15  1  0  0  0
 11 12  1  0  0  0
 11 93  1  0  0  0
 12 13  2  0  0  0
 12 94  1  0  0  0
 13 14  1  0  0  0
 13 31  1  0  0  0
 14 15  2  0  0  0
 14 95  1  0  0  0
 15 96  1  0  0  0
 16 17  2  0  0  0
 16 21  1  0  0  0
 16 31  1  0  0  0
 17 18  1  0  0  0
 17 97  1  0  0  0
 18 19  2  0  0  0
 18 98  1  0  0  0
 19 20  1  0  0  0
 19 24  1  0  0  0
 20 21  2  0  0  0
 20 99  1  0  0  0
 21 23  1  0  0  0
 22 28  1  0  0  0
 22 32  2  0  0  0
 26 27  1  0  0  0
 28100  1  0  0  0
 28101  1  0  0  0
 29102  1  0  0  0
 29103  1  0  0  0
 33 34  1  0  0  0
 33 66  1  0  0  0
 33 70  2  0  0  0
 34 36  1  0  0  0
 34 59  1  0  0  0
 34104  1  0  0  0
 35 44  2  0  0  0
 35 45  1  0  0  0
 35 68  1  0  0  0
 36 56  1  0  0  0
 36105  1  0  0  0
 37 39  1  0  0  0
 37 47  1  0  0  0
 37 66  1  0  0  0
 37106  1  0  0  0
 38 43  2  0  0  0
 38 46  1  0  0  0
 38 47  1  0  0  0
 39 64  1  0  0  0
 39 67  2  0  0  0
 40 52  1  0  0  0
 40 53  2  0  0  0
 40 58  1  0  0  0
 41107  1  0  0  0
 41108  1  0  0  0
 41109  1  0  0  0
 41 48  1  0  0  0
 42 43  1  0  0  0
 42 66  1  0  0  0
 42110  1  0  0  0
 42111  1  0  0  0
 43 44  1  0  0  0
 44112  1  0  0  0
 45 46  2  0  0  0
 45113  1  0  0  0
 46114  1  0  0  0
 47115  1  0  0  0
 47116  1  0  0  0
 48 56  1  0  0  0
 48 65  1  0  0  0
 48117  1  0  0  0
 49 50  1  0  0  0
 49 53  1  0  0  0
 49 64  1  0  0  0
 49118  1  0  0  0
 50 51  1  0  0  0
 50119  1  0  0  0
 50120  1  0  0  0
 51 52  1  0  0  0
 51121  1  0  0  0
 51122  1  0  0  0
 52123  1  0  0  0
 52124  1  0  0  0
 53 54  1  0  0  0
 54 55  2  0  0  0
 54125  1  0  0  0
 55 57  1  0  0  0
 55126  1  0  0  0
 56 69  2  0  0  0
 57 58  2  0  0  0
 57127  1  0  0  0
 58128  1  0  0  0
 59 60  1  0  0  0
 59 61  1  0  0  0
 59 62  1  0  0  0
 60129  1  0  0  0
 60130  1  0  0  0
 60131  1  0  0  0
 61132  1  0  0  0
 61133  1  0  0  0
 61134  1  0  0  0
 62135  1  0  0  0
 62136  1  0  0  0
 62137  1  0  0  0
 63 65  1  0  0  0
 63138  1  0  0  0
 63139  1  0  0  0
 63140  1  0  0  0
 64141  1  0  0  0
 65142  1  0  0  0
 68 82  1  0  0  0
 71 72  2  0  0  0
 71 73  1  0  0  0
 71143  1  0  0  0
 72 74  1  0  0  0
 72 80  1  0  0  0
 73 76  2  0  0  0
 73 77  1  0  0  0
 74 75  2  0  0  0
 74 78  1  0  0  0
 75 76  1  0  0  0
 75 79  1  0  0  0
 76 83  1  0  0  0
 77144  1  0  0  0
 77145  1  0  0  0
 77146  1  0  0  0
 78147  1  0  0  0
 78148  1  0  0  0
 78149  1  0  0  0
 79150  1  0  0  0
 79151  1  0  0  0
 79152  1  0  0  0
 80 81  1  0  0  0
 80153  1  0  0  0
 80154  1  0  0  0
 81 82  1  0  0  0
 81155  1  0  0  0
 81156  1  0  0  0
 82157  1  0  0  0
 82158  1  0  0  0
 83159  1  0  0  0
M  ISO  4   1 100  68 101  82 101  83 100
M  END
> <chiral flag>
0

> <version>
0

> <s_m_source_file>
/data/baiqing/PycharmProjects/Reinvent-master-3.2/result/LINK_invent/BTK/process_docking_weight1_custom_sum_contain_oxygen_bond_distance_aromatic_linkinvent_7_9_3/rearranged_h_0022.sdf

> <i_m_source_file_index>
59

> <r_mmod_Potential_Energy-OPLS-2005>
338.038513183594

> <r_mmod_Stretch_Energy-OPLS-2005>
192.209854125977

> <r_mmod_Bend_Energy-OPLS-2005>
258.488220214844

> <r_mmod_Torsional_Energy-OPLS-2005>
216.917236328125

> <r_mmod_Improper_Torsional_Energy-OPLS-2005>
5.10122060775757

> <r_mmod_Van_der_Waal_Energy-OPLS-2005>
151.11491394043

> <r_mmod_Electrostatic_Energy-OPLS-2005>
-423.357177734375

> <r_mmod_Solvation_Energy-OPLS-2005>
-199.585693359375

> <b_mmod_Minimization_Converged-OPLS-2005>
0

> <r_mmod_RMS_Derivative-OPLS-2005>
3.15562129020691

$$$$
59
                    3D
 Structure written by MMmdl.
161169  0  0  1  0            999 V2000
  -29.3072  -16.5228   20.1995 C   0  0  0  0  0  0
  -30.1775  -13.8365   19.5103 C   0  0  0  0  0  0
  -29.5169  -12.9103   18.4121 C   0  0  0  0  0  0
  -28.2085  -12.2871   18.9103 C   0  0  0  0  0  0
  -27.5013  -13.3312   19.7870 C   0  0  2  0  0  0
  -28.3690  -13.9828   20.8792 C   0  0  0  0  0  0
  -25.1920  -13.8191   20.5755 C   0  0  0  0  0  0
  -24.1428  -13.0345   20.9366 C   0  0  0  0  0  0
  -24.6205  -11.6876   20.8833 C   0  0  0  0  0  0
  -23.8982  -10.4250   21.0443 C   0  0  0  0  0  0
  -24.3562   -9.4201   21.9228 C   0  0  0  0  0  0
  -23.6259   -8.2223   22.0783 C   0  0  0  0  0  0
  -22.4242   -8.0252   21.3570 C   0  0  0  0  0  0
  -21.9866   -9.0205   20.4665 C   0  0  0  0  0  0
  -22.7170  -10.2091   20.3082 C   0  0  0  0  0  0
  -21.6830   -6.0725   22.5291 C   0  0  0  0  0  0
  -21.3991   -6.5639   23.8220 C   0  0  0  0  0  0
  -21.3644   -5.6796   24.9184 C   0  0  0  0  0  0
  -21.6035   -4.3058   24.7236 C   0  0  0  0  0  0
  -21.8829   -3.8152   23.4358 C   0  0  0  0  0  0
  -21.9198   -4.6963   22.3414 C   0  0  0  0  0  0
  -22.7490  -13.5135   21.1933 C   0  0  0  0  0  0
  -22.1682   -4.2150   21.0991 F   0  0  0  0  0  0
  -21.5625   -3.4546   25.7750 F   0  0  0  0  0  0
  -29.2177  -14.9584   20.1448 N   0  0  0  0  0  0
  -26.2230  -12.9489   20.3082 N   0  0  0  0  0  0
  -25.9103  -11.6574   20.5632 N   0  0  0  0  0  0
  -22.0115  -12.8188   22.0495 N   0  0  0  0  0  0
  -25.3599  -15.1911   20.4125 N   0  0  0  0  0  0
  -30.5894  -16.5100   20.1320 O   0  0  0  0  0  0
  -21.6624   -6.8846   21.4244 O   0  0  0  0  0  0
  -22.3261  -14.5463   20.6741 O   0  0  0  0  0  0
  -24.4337  -31.5774   22.8514 C   0  0  0  0  0  0
  -25.7329  -32.3236   23.5349 C   0  0  1  0  0  0
  -28.2871  -27.9216   19.5672 C   0  0  0  0  0  0
  -25.3961  -33.7350   23.9245 N   0  0  0  0  0  0
  -23.4416  -29.1441   21.9159 C   0  0  2  0  0  0
  -26.2311  -27.3233   20.7053 C   0  0  0  0  0  0
  -22.5459  -29.2132   22.9835 C   0  0  0  0  0  0
  -17.9460  -28.1183   22.8548 C   0  0  0  0  0  0
  -24.1304  -36.6918   23.2679 C   0  0  0  0  0  0
  -25.3593  -30.4165   20.4410 C   0  0  0  0  0  0
  -26.2573  -28.8870   20.0018 C   0  0  0  0  0  0
  -27.5739  -29.0992   19.7308 C   0  0  0  0  0  0
  -27.5242  -26.9671   18.8818 C   0  0  0  0  0  0
  -26.7519  -26.4504   19.8298 C   0  0  0  0  0  0
  -24.3540  -27.1704   22.3335 C   0  0  0  0  0  0
  -25.4035  -36.2382   24.0040 C   0  0  1  0  0  0
  -20.4310  -28.2847   23.2764 C   0  0  2  0  0  0
  -20.5677  -26.9029   22.5854 C   0  0  0  0  0  0
  -19.5174  -26.6660   21.5098 C   0  0  0  0  0  0
  -18.1313  -26.7883   22.1358 C   0  0  0  0  0  0
  -19.0453  -28.8442   23.3513 C   0  0  0  0  0  0
  -18.8653  -30.1119   23.9426 C   0  0  0  0  0  0
  -17.5777  -30.6544   24.0593 C   0  0  0  0  0  0
  -25.8924  -34.8808   23.4184 C   0  0  0  0  0  0
  -16.4716  -29.9189   23.5964 C   0  0  0  0  0  0
  -16.6565  -28.6584   22.9994 C   0  0  0  0  0  0
  -26.3367  -31.7164   24.9201 C   0  0  0  0  0  0
  -25.2704  -31.3829   25.9911 C   0  0  0  0  0  0
  -27.0594  -30.4353   24.6449 C   0  0  0  0  0  0
  -27.3968  -32.6071   25.6335 C   0  0  0  0  0  0
  -27.5418  -37.1285   24.8429 C   0  0  0  0  0  0
  -21.2732  -29.2465   22.6439 N   0  0  0  0  0  0
  -26.4051  -37.3377   23.9505 N   0  0  0  0  0  0
  -24.3068  -30.6196   21.7285 N   0  0  0  0  0  0
  -23.0256  -28.9102   24.0557 O   0  0  0  0  0  0
  -28.8304  -27.3882   20.7325 O   0  0  0  0  0  0
  -26.6717  -34.8802   22.4637 O   0  0  0  0  0  0
  -23.4206  -31.9297   23.4791 O   0  0  0  0  0  0
  -24.9669  -24.3719   21.1155 C   0  0  0  0  0  0
  -24.9854  -24.4121   19.0868 C   0  0  0  0  0  0
  -26.3358  -21.8268   20.1184 C   0  0  0  0  0  0
  -24.4527  -25.5390   20.1255 C   0  0  0  0  0  0
  -25.7926  -22.9482   19.0985 C   0  0  0  0  0  0
  -25.7127  -22.8910   21.1342 C   0  0  0  0  0  0
  -24.8339  -24.8939   17.6520 C   0  0  0  0  0  0
  -23.4801  -28.0271   19.0257 C   0  0  0  0  0  0
  -27.6372  -19.9988   20.0867 C   0  0  0  0  0  0
  -27.1632  -28.0361   22.8592 C   0  0  0  0  0  0
  -25.7310  -28.7956   22.2334 C   0  0  0  0  0  0
  -28.5780  -28.1061   22.0305 C   0  0  0  0  0  0
  -28.1996  -17.9452   20.1961 N   0  0  0  0  0  0
  -24.1396  -27.4591   20.2033 N   0  0  0  0  0  0
  -26.1762  -22.6158   17.8398 F   0  0  0  0  0  0
  -25.9304  -22.3498   22.7656 Cl  0  0  0  0  0  0
  -31.0286  -14.3338   19.0391 H   0  0  0  0  0  0
  -30.6447  -13.2286   20.2867 H   0  0  0  0  0  0
  -30.2072  -12.1330   18.0879 H   0  0  0  0  0  0
  -29.2937  -13.5206   17.5355 H   0  0  0  0  0  0
  -28.4327  -11.4005   19.5116 H   0  0  0  0  0  0
  -27.5800  -11.9685   18.0761 H   0  0  0  0  0  0
  -27.2662  -14.1202   19.0656 H   0  0  0  0  0  0
  -28.9040  -13.2526   21.4865 H   0  0  0  0  0  0
  -27.7749  -14.5638   21.5863 H   0  0  0  0  0  0
  -25.2662   -9.5722   22.4869 H   0  0  0  0  0  0
  -23.9964   -7.4627   22.7528 H   0  0  0  0  0  0
  -21.0786   -8.8703   19.8989 H   0  0  0  0  0  0
  -22.3575  -10.9646   19.6241 H   0  0  0  0  0  0
  -21.1972   -7.6149   23.9707 H   0  0  0  0  0  0
  -21.1446   -6.0540   25.9075 H   0  0  0  0  0  0
  -22.0618   -2.7617   23.2851 H   0  0  0  0  0  0
  -22.3633  -11.9841   22.4943 H   0  0  0  0  0  0
  -21.0756  -13.1325   22.2657 H   0  0  0  0  0  0
  -24.5901  -15.8428   20.5152 H   0  0  0  0  0  0
  -26.1730  -15.5874   19.9656 H   0  0  0  0  0  0
  -26.5096  -32.3494   22.7704 H   0  0  0  0  0  0
  -24.6803  -33.8209   24.6304 H   0  0  0  0  0  0
  -22.7942  -29.1873   21.0472 H   0  0  0  0  0  0
  -23.3781  -35.9005   23.2683 H   0  0  0  0  0  0
  -24.3351  -36.9426   22.2258 H   0  0  0  0  0  0
  -23.6717  -37.5632   23.7383 H   0  0  0  0  0  0
  -24.8101  -30.7112   19.5455 H   0  0  0  0  0  0
  -26.1019  -31.2122   20.5218 H   0  0  0  0  0  0
  -28.0236  -30.0725   19.6198 H   0  0  0  0  0  0
  -28.0475  -26.2324   18.2928 H   0  0  0  0  0  0
  -26.9092  -25.4111   20.0675 H   0  0  0  0  0  0
  -23.6051  -26.3858   22.2562 H   0  0  0  0  0  0
  -24.6826  -26.9850   23.3589 H   0  0  0  0  0  0
  -25.1271  -36.0737   25.0476 H   0  0  0  0  0  0
  -20.7120  -28.1513   24.3258 H   0  0  0  0  0  0
  -20.4491  -26.1334   23.3524 H   0  0  0  0  0  0
  -21.5492  -26.7388   22.1527 H   0  0  0  0  0  0
  -19.6506  -25.6869   21.0494 H   0  0  0  0  0  0
  -19.6389  -27.3934   20.7050 H   0  0  0  0  0  0
  -17.3836  -26.6901   21.3539 H   0  0  0  0  0  0
  -17.9588  -25.9634   22.8288 H   0  0  0  0  0  0
  -19.7120  -30.6694   24.3208 H   0  0  0  0  0  0
  -17.4333  -31.6271   24.5091 H   0  0  0  0  0  0
  -15.4738  -30.3260   23.6929 H   0  0  0  0  0  0
  -15.7968  -28.1247   22.6178 H   0  0  0  0  0  0
  -24.5912  -30.5975   25.6465 H   0  0  0  0  0  0
  -24.6569  -32.2548   26.2207 H   0  0  0  0  0  0
  -25.7278  -31.0318   26.9201 H   0  0  0  0  0  0
  -26.2992  -29.6700   24.6721 H   0  0  0  0  0  0
  -27.7792  -30.1382   25.4077 H   0  0  0  0  0  0
  -27.5908  -30.4937   23.6953 H   0  0  0  0  0  0
  -26.8968  -33.4618   26.0940 H   0  0  0  0  0  0
  -28.1517  -32.9904   24.9497 H   0  0  0  0  0  0
  -27.9127  -32.0893   26.4462 H   0  0  0  0  0  0
  -28.2255  -37.9785   24.7988 H   0  0  0  0  0  0
  -28.1074  -36.2381   24.5638 H   0  0  0  0  0  0
  -27.2214  -37.0197   25.8819 H   0  0  0  0  0  0
  -21.0199  -29.5376   21.7101 H   0  0  0  0  0  0
  -25.9779  -38.2297   24.1864 H   0  0  0  0  0  0
  -24.8243  -24.6594   22.1459 H   0  0  0  0  0  0
  -24.1931  -25.7704   17.5750 H   0  0  0  0  0  0
  -24.3785  -24.1116   17.0440 H   0  0  0  0  0  0
  -25.8103  -25.1373   17.2244 H   0  0  0  0  0  0
  -22.4368  -27.6978   18.9780 H   0  0  0  0  0  0
  -23.9748  -27.7115   18.1105 H   0  0  0  0  0  0
  -23.4809  -29.1174   19.0068 H   0  0  0  0  0  0
  -28.4056  -20.3926   20.7521 H   0  0  0  0  0  0
  -28.0571  -20.1931   19.0981 H   0  0  0  0  0  0
  -26.9423  -26.9811   23.0272 H   0  0  0  0  0  0
  -27.4334  -28.2589   23.8759 H   0  0  0  0  0  0
  -26.3816  -29.6687   22.1457 H   0  0  0  0  0  0
  -25.2609  -29.0039   23.1897 H   0  0  0  0  0  0
  -29.3417  -27.6779   22.6800 H   0  0  0  0  0  0
  -28.8680  -29.1566   21.9260 H   0  0  0  0  0  0
  -27.3066  -17.4808   20.2833 H   0  0  0  0  0  0
  1 25  1  0  0  0
  1 30  2  0  0  0
  1 83  1  0  0  0
  2  3  1  0  0  0
  2 25  1  0  0  0
  2 87  1  0  0  0
  2 88  1  0  0  0
  3  4  1  0  0  0
  3 89  1  0  0  0
  3 90  1  0  0  0
  4  5  1  0  0  0
  4 91  1  0  0  0
  4 92  1  0  0  0
  5  6  1  0  0  0
  5 26  1  0  0  0
  5 93  1  0  0  0
  6 25  1  0  0  0
  6 94  1  0  0  0
  6 95  1  0  0  0
  7  8  2  0  0  0
  7 26  1  0  0  0
  7 29  1  0  0  0
  8  9  1  0  0  0
  8 22  1  0  0  0
  9 10  1  0  0  0
  9 27  2  0  0  0
 10 11  2  0  0  0
 10 15  1  0  0  0
 11 12  1  0  0  0
 11 96  1  0  0  0
 12 13  2  0  0  0
 12 97  1  0  0  0
 13 14  1  0  0  0
 13 31  1  0  0  0
 14 15  2  0  0  0
 14 98  1  0  0  0
 15 99  1  0  0  0
 16 17  2  0  0  0
 16 21  1  0  0  0
 16 31  1  0  0  0
 17 18  1  0  0  0
 17100  1  0  0  0
 18 19  2  0  0  0
 18101  1  0  0  0
 19 20  1  0  0  0
 19 24  1  0  0  0
 20 21  2  0  0  0
 20102  1  0  0  0
 21 23  1  0  0  0
 22 28  1  0  0  0
 22 32  2  0  0  0
 26 27  1  0  0  0
 28103  1  0  0  0
 28104  1  0  0  0
 29105  1  0  0  0
 29106  1  0  0  0
 33 34  1  0  0  0
 33 66  1  0  0  0
 33 70  2  0  0  0
 34 36  1  0  0  0
 34 59  1  0  0  0
 34107  1  0  0  0
 35 44  2  0  0  0
 35 45  1  0  0  0
 35 68  1  0  0  0
 36 56  1  0  0  0
 36108  1  0  0  0
 37 39  1  0  0  0
 37 47  1  0  0  0
 37 66  1  0  0  0
 37109  1  0  0  0
 38 43  2  0  0  0
 38 46  1  0  0  0
 38 47  1  0  0  0
 39 64  1  0  0  0
 39 67  2  0  0  0
 40 52  1  0  0  0
 40 53  2  0  0  0
 40 58  1  0  0  0
 41110  1  0  0  0
 41111  1  0  0  0
 41112  1  0  0  0
 41 48  1  0  0  0
 42 43  1  0  0  0
 42 66  1  0  0  0
 42113  1  0  0  0
 42114  1  0  0  0
 43 44  1  0  0  0
 44115  1  0  0  0
 45 46  2  0  0  0
 45116  1  0  0  0
 46117  1  0  0  0
 47118  1  0  0  0
 47119  1  0  0  0
 48 56  1  0  0  0
 48 65  1  0  0  0
 48120  1  0  0  0
 49 50  1  0  0  0
 49 53  1  0  0  0
 49 64  1  0  0  0
 49121  1  0  0  0
 50 51  1  0  0  0
 50122  1  0  0  0
 50123  1  0  0  0
 51 52  1  0  0  0
 51124  1  0  0  0
 51125  1  0  0  0
 52126  1  0  0  0
 52127  1  0  0  0
 53 54  1  0  0  0
 54 55  2  0  0  0
 54128  1  0  0  0
 55 57  1  0  0  0
 55129  1  0  0  0
 56 69  2  0  0  0
 57 58  2  0  0  0
 57130  1  0  0  0
 58131  1  0  0  0
 59 60  1  0  0  0
 59 61  1  0  0  0
 59 62  1  0  0  0
 60132  1  0  0  0
 60133  1  0  0  0
 60134  1  0  0  0
 61135  1  0  0  0
 61136  1  0  0  0
 61137  1  0  0  0
 62138  1  0  0  0
 62139  1  0  0  0
 62140  1  0  0  0
 63 65  1  0  0  0
 63141  1  0  0  0
 63142  1  0  0  0
 63143  1  0  0  0
 64144  1  0  0  0
 65145  1  0  0  0
 68 82  1  0  0  0
 71 74  2  0  0  0
 71 76  1  0  0  0
 71146  1  0  0  0
 72 74  1  0  0  0
 72 75  2  0  0  0
 72 77  1  0  0  0
 73 75  1  0  0  0
 73 76  2  0  0  0
 73 79  1  0  0  0
 74 84  1  0  0  0
 75 85  1  0  0  0
 76 86  1  0  0  0
 77147  1  0  0  0
 77148  1  0  0  0
 77149  1  0  0  0
 78 84  1  0  0  0
 78150  1  0  0  0
 78151  1  0  0  0
 78152  1  0  0  0
 79 83  1  0  0  0
 79153  1  0  0  0
 79154  1  0  0  0
 80 81  1  0  0  0
 80 82  1  0  0  0
 80155  1  0  0  0
 80156  1  0  0  0
 81 84  1  0  0  0
 81157  1  0  0  0
 81158  1  0  0  0
 82159  1  0  0  0
 82160  1  0  0  0
 83161  1  0  0  0
M  ISO  4   1 100  68 101  82 101  83 100
M  END
> <chiral flag>
0

> <version>
0

> <s_m_source_file>
/data/baiqing/PycharmProjects/Reinvent-master-3.2/result/LINK_invent/BTK/process_docking_weight1_custom_sum_contain_oxygen_bond_distance_aromatic_linkinvent_7_9_3/rearranged_h_0022.sdf

> <i_m_source_file_index>
60

> <r_mmod_Potential_Energy-OPLS-2005>
19386.111328125

> <r_mmod_Stretch_Energy-OPLS-2005>
9134.8349609375

> <r_mmod_Bend_Energy-OPLS-2005>
1718.60766601562

> <r_mmod_Torsional_Energy-OPLS-2005>
623.046752929688

> <r_mmod_Improper_Torsional_Energy-OPLS-2005>
85.8217468261719

> <r_mmod_Van_der_Waal_Energy-OPLS-2005>
2874.65209960938

> <r_mmod_Electrostatic_Energy-OPLS-2005>
-370.736480712891

> <r_mmod_Solvation_Energy-OPLS-2005>
-223.784820556641

> <b_mmod_Minimization_Converged-OPLS-2005>
0

> <r_mmod_RMS_Derivative-OPLS-2005>
19.8397693634033

$$$$
60
                    3D
 Structure written by MMmdl.
175184  0  0  1  0            999 V2000
  -30.6694  -14.4711   20.5729 C   0  0  0  0  0  0
  -30.4394  -12.3038   19.4152 C   0  0  0  0  0  0
  -29.5007  -12.5079   18.2046 C   0  0  0  0  0  0
  -28.0217  -12.3612   18.6189 C   0  0  0  0  0  0
  -27.6679  -13.1922   19.8801 C   0  0  2  0  0  0
  -28.7111  -12.9443   20.9960 C   0  0  0  0  0  0
  -25.2637  -13.8102   20.5679 C   0  0  0  0  0  0
  -24.1862  -13.0416   20.9178 C   0  0  0  0  0  0
  -24.6373  -11.6874   20.8712 C   0  0  0  0  0  0
  -23.9015  -10.4278   21.0384 C   0  0  0  0  0  0
  -24.3579   -9.4198   21.9170 C   0  0  0  0  0  0
  -23.6278   -8.2220   22.0724 C   0  0  0  0  0  0
  -22.4262   -8.0250   21.3513 C   0  0  0  0  0  0
  -21.9887   -9.0219   20.4621 C   0  0  0  0  0  0
  -22.7189  -10.2117   20.3033 C   0  0  0  0  0  0
  -21.6836   -6.0726   22.5288 C   0  0  0  0  0  0
  -21.4000   -6.5631   23.8222 C   0  0  0  0  0  0
  -21.3660   -5.6778   24.9193 C   0  0  0  0  0  0
  -21.6052   -4.3037   24.7231 C   0  0  0  0  0  0
  -21.8819   -3.8134   23.4341 C   0  0  0  0  0  0
  -21.9191   -4.6959   22.3409 C   0  0  0  0  0  0
  -22.7897  -13.5253   21.1853 C   0  0  0  0  0  0
  -22.1661   -4.2152   21.0981 F   0  0  0  0  0  0
  -21.5639   -3.4521   25.7737 F   0  0  0  0  0  0
  -30.0426  -13.2684   20.4503 N   0  0  0  0  0  0
  -26.3052  -12.9245   20.3375 N   0  0  0  0  0  0
  -25.9296  -11.6420   20.5749 N   0  0  0  0  0  0
  -22.0497  -12.8249   22.0399 N   0  0  0  0  0  0
  -25.4416  -15.1816   20.4081 N   0  0  0  0  0  0
  -31.7965  -14.6993   20.1282 O   0  0  0  0  0  0
  -21.6602   -6.8866   21.4250 O   0  0  0  0  0  0
  -22.3617  -14.5589   20.6730 O   0  0  0  0  0  0
  -24.6111  -31.8701   23.2120 C   0  0  0  0  0  0
  -25.9019  -32.4827   23.8394 C   0  0  1  0  0  0
  -27.2424  -27.4639   20.0833 C   0  0  0  0  0  0
  -25.5895  -33.8626   24.2322 N   0  0  0  0  0  0
  -23.3969  -30.4957   21.5510 C   0  0  2  0  0  0
  -24.8458  -28.9667   20.1118 C   0  0  0  0  0  0
  -22.7389  -29.4676   22.4992 C   0  0  0  0  0  0
  -18.0263  -28.1387   22.8483 C   0  0  0  0  0  0
  -24.1480  -36.7312   23.2635 C   0  0  0  0  0  0
  -25.9244  -30.8424   21.3633 C   0  0  0  0  0  0
  -26.0018  -29.4777   20.7154 C   0  0  0  0  0  0
  -27.1962  -28.7257   20.7155 C   0  0  0  0  0  0
  -26.0649  -26.9585   19.4896 C   0  0  0  0  0  0
  -24.8701  -27.7027   19.5006 C   0  0  0  0  0  0
  -23.6049  -29.8289   20.1642 C   0  0  0  0  0  0
  -25.4098  -36.3108   24.0341 C   0  0  1  0  0  0
  -20.5854  -28.3664   23.1333 C   0  0  2  0  0  0
  -20.6756  -26.9401   22.5437 C   0  0  0  0  0  0
  -19.5749  -26.6397   21.5214 C   0  0  0  0  0  0
  -18.1917  -26.7935   22.1611 C   0  0  0  0  0  0
  -19.1516  -28.8835   23.2908 C   0  0  0  0  0  0
  -18.9452  -30.1448   23.8919 C   0  0  0  0  0  0
  -17.6457  -30.6593   24.0574 C   0  0  0  0  0  0
  -25.9033  -34.9480   23.5126 C   0  0  0  0  0  0
  -16.5344  -29.9102   23.6332 C   0  0  0  0  0  0
  -16.7254  -28.6529   23.0335 C   0  0  0  0  0  0
  -26.4461  -31.6600   25.0712 C   0  0  0  0  0  0
  -25.3750  -31.3730   26.1488 C   0  0  0  0  0  0
  -27.0249  -30.3027   24.6070 C   0  0  0  0  0  0
  -27.6055  -32.4308   25.7457 C   0  0  0  0  0  0
  -27.5584  -37.1793   24.8453 C   0  0  0  0  0  0
  -21.4124  -29.3027   22.3725 N   0  0  0  0  0  0
  -26.4273  -37.3800   23.9435 N   0  0  0  0  0  0
  -24.6621  -31.0831   22.1008 N   0  0  0  0  0  0
  -23.4178  -28.8229   23.3022 O   0  0  0  0  0  0
  -28.4093  -26.7341   20.1264 O   0  0  0  0  0  0
  -26.5599  -34.8936   22.4688 O   0  0  0  0  0  0
  -23.5315  -32.1442   23.7543 O   0  0  0  0  0  0
  -31.4314  -23.4408   19.9883 C   0  0  0  0  0  0
  -30.7550  -24.6753   19.8851 C   0  0  0  0  0  0
  -30.9403  -22.2894   19.3424 C   0  0  0  0  0  0
  -29.5541  -24.7760   19.1289 C   0  0  0  0  0  0
  -29.0199  -23.5957   18.5329 C   0  0  0  0  0  0
  -29.7257  -22.3684   18.6257 C   0  0  0  0  0  0
  -30.3752  -17.4906   19.5748 C   0  0  0  0  0  0
  -30.6023  -17.5502   22.1995 C   0  0  0  0  0  0
  -31.5169  -18.5330   19.5678 C   0  0  0  0  0  0
  -31.2473  -19.9891   21.5541 C   0  0  0  0  0  0
  -30.2989  -19.0642   22.3559 C   0  0  2  0  0  0
  -29.9435  -16.9186   20.9552 C   0  0  2  0  0  0
  -31.3606  -25.8821   20.5893 C   0  0  0  0  0  0
  -27.6982  -23.6277   17.7713 C   0  0  0  0  0  0
  -30.3324  -19.4576   23.8424 C   0  0  0  0  0  0
  -31.7597  -20.9958   19.3524 C   0  0  0  0  0  0
  -28.8913  -26.1505   18.9170 C   0  0  0  0  0  0
  -29.8622  -15.4467   21.0306 N   0  0  0  0  0  0
  -31.1013  -19.8712   20.0797 N   0  3  1  0  0  0
  -29.1239  -20.9414   17.8459 Cl  0  0  0  0  0  0
  -31.4826  -12.4222   19.1134 H   0  0  0  0  0  0
  -30.3536  -11.2853   19.7971 H   0  0  0  0  0  0
  -29.7416  -11.7909   17.4183 H   0  0  0  0  0  0
  -29.6639  -13.4978   17.7749 H   0  0  0  0  0  0
  -27.8372  -11.3044   18.8145 H   0  0  0  0  0  0
  -27.3669  -12.6360   17.7912 H   0  0  0  0  0  0
  -27.7199  -14.2415   19.5906 H   0  0  0  0  0  0
  -28.6889  -11.8982   21.3061 H   0  0  0  0  0  0
  -28.4701  -13.5107   21.8962 H   0  0  0  0  0  0
  -25.2710   -9.5704   22.4752 H   0  0  0  0  0  0
  -23.9996   -7.4610   22.7425 H   0  0  0  0  0  0
  -21.0813   -8.8730   19.8933 H   0  0  0  0  0  0
  -22.3624  -10.9648   19.6146 H   0  0  0  0  0  0
  -21.1979   -7.6140   23.9729 H   0  0  0  0  0  0
  -21.1493   -6.0503   25.9099 H   0  0  0  0  0  0
  -22.0603   -2.7600   23.2811 H   0  0  0  0  0  0
  -22.4055  -11.9894   22.4794 H   0  0  0  0  0  0
  -21.1125  -13.1313   22.2582 H   0  0  0  0  0  0
  -24.6765  -15.8372   20.5117 H   0  0  0  0  0  0
  -26.2971  -15.6150   20.0820 H   0  0  0  0  0  0
  -26.7087  -32.5555   23.1162 H   0  0  0  0  0  0
  -25.0037  -33.9781   25.0458 H   0  0  0  0  0  0
  -22.6830  -31.3114   21.4140 H   0  0  0  0  0  0
  -23.3746  -35.9642   23.3282 H   0  0  0  0  0  0
  -24.3576  -36.8941   22.2057 H   0  0  0  0  0  0
  -23.7226  -37.6512   23.6652 H   0  0  0  0  0  0
  -26.0306  -31.6070   20.5924 H   0  0  0  0  0  0
  -26.8154  -30.8991   21.9767 H   0  0  0  0  0  0
  -28.0854  -29.1142   21.1920 H   0  0  0  0  0  0
  -26.0479  -25.9844   19.0330 H   0  0  0  0  0  0
  -23.9791  -27.2960   19.0416 H   0  0  0  0  0  0
  -23.7069  -30.6035   19.4032 H   0  0  0  0  0  0
  -22.7311  -29.2438   19.8709 H   0  0  0  0  0  0
  -25.1266  -36.1963   25.0828 H   0  0  0  0  0  0
  -20.9950  -28.3242   24.1456 H   0  0  0  0  0  0
  -20.5654  -26.2275   23.3623 H   0  0  0  0  0  0
  -21.6631  -26.7445   22.1245 H   0  0  0  0  0  0
  -19.6916  -25.6314   21.1229 H   0  0  0  0  0  0
  -19.6714  -27.3218   20.6755 H   0  0  0  0  0  0
  -17.4206  -26.6700   21.3988 H   0  0  0  0  0  0
  -18.0299  -26.0068   22.8997 H   0  0  0  0  0  0
  -19.7935  -30.7241   24.2301 H   0  0  0  0  0  0
  -17.5024  -31.6269   24.5192 H   0  0  0  0  0  0
  -15.5341  -30.3014   23.7655 H   0  0  0  0  0  0
  -15.8657  -28.0863   22.7019 H   0  0  0  0  0  0
  -24.5910  -30.7070   25.7866 H   0  0  0  0  0  0
  -24.8955  -32.2899   26.4928 H   0  0  0  0  0  0
  -25.8134  -30.8929   27.0246 H   0  0  0  0  0  0
  -26.2756  -29.6818   24.1146 H   0  0  0  0  0  0
  -27.4022  -29.7240   25.4510 H   0  0  0  0  0  0
  -27.8601  -30.4305   23.9180 H   0  0  0  0  0  0
  -27.2680  -33.3606   26.2047 H   0  0  0  0  0  0
  -28.3855  -32.6872   25.0276 H   0  0  0  0  0  0
  -28.0727  -31.8422   26.5362 H   0  0  0  0  0  0
  -28.2581  -38.0109   24.7534 H   0  0  0  0  0  0
  -28.1087  -36.2643   24.6198 H   0  0  0  0  0  0
  -27.2321  -37.1380   25.8858 H   0  0  0  0  0  0
  -20.9282  -29.8721   21.6927 H   0  0  0  0  0  0
  -26.0155  -38.2868   24.1482 H   0  0  0  0  0  0
  -32.3602  -23.3881   20.5413 H   0  0  0  0  0  0
  -30.6694  -16.6843   18.9050 H   0  0  0  0  0  0
  -29.5011  -17.9238   19.0845 H   0  0  0  0  0  0
  -30.2010  -17.0277   23.0708 H   0  0  0  0  0  0
  -31.6765  -17.3603   22.2268 H   0  0  0  0  0  0
  -31.8371  -18.6220   18.5292 H   0  0  0  0  0  0
  -32.3936  -18.1615   20.0982 H   0  0  0  0  0  0
  -32.2852  -19.8140   21.8455 H   0  0  0  0  0  0
  -31.0313  -21.0215   21.8367 H   0  0  0  0  0  0
  -29.2778  -19.2551   22.0186 H   0  0  0  0  0  0
  -28.8890  -17.1865   21.0394 H   0  0  0  0  0  0
  -32.2436  -25.6020   21.1650 H   0  0  0  0  0  0
  -30.6503  -26.3213   21.2899 H   0  0  0  0  0  0
  -31.6657  -26.6462   19.8744 H   0  0  0  0  0  0
  -26.9858  -24.2914   18.2464 H   0  0  0  0  0  0
  -27.1960  -22.6625   17.7540 H   0  0  0  0  0  0
  -27.8505  -23.9501   16.7414 H   0  0  0  0  0  0
  -31.3281  -19.3202   24.2666 H   0  0  0  0  0  0
  -29.6364  -18.8571   24.4289 H   0  0  0  0  0  0
  -30.0504  -20.5019   23.9833 H   0  0  0  0  0  0
  -32.7564  -21.1730   19.7578 H   0  0  0  0  0  0
  -31.9185  -20.7440   18.3031 H   0  0  0  0  0  0
  -28.1505  -26.1394   18.1205 H   0  0  0  0  0  0
  -29.6560  -26.8291   18.5377 H   0  0  0  0  0  0
  -28.9788  -15.0952   21.3688 H   0  0  0  0  0  0
  -30.1250  -19.9811   19.8498 H   0  0  0  0  0  0
  1 25  1  0  0  0
  1 30  2  0  0  0
  1 88  1  0  0  0
  2  3  1  0  0  0
  2 25  1  0  0  0
  2 91  1  0  0  0
  2 92  1  0  0  0
  3  4  1  0  0  0
  3 93  1  0  0  0
  3 94  1  0  0  0
  4  5  1  0  0  0
  4 95  1  0  0  0
  4 96  1  0  0  0
  5  6  1  0  0  0
  5 26  1  0  0  0
  5 97  1  0  0  0
  6 25  1  0  0  0
  6 98  1  0  0  0
  6 99  1  0  0  0
  7  8  2  0  0  0
  7 26  1  0  0  0
  7 29  1  0  0  0
  8  9  1  0  0  0
  8 22  1  0  0  0
  9 10  1  0  0  0
  9 27  2  0  0  0
 10 11  2  0  0  0
 10 15  1  0  0  0
 11 12  1  0  0  0
 11100  1  0  0  0
 12 13  2  0  0  0
 12101  1  0  0  0
 13 14  1  0  0  0
 13 31  1  0  0  0
 14 15  2  0  0  0
 14102  1  0  0  0
 15103  1  0  0  0
 16 17  2  0  0  0
 16 21  1  0  0  0
 16 31  1  0  0  0
 17 18  1  0  0  0
 17104  1  0  0  0
 18 19  2  0  0  0
 18105  1  0  0  0
 19 20  1  0  0  0
 19 24  1  0  0  0
 20 21  2  0  0  0
 20106  1  0  0  0
 21 23  1  0  0  0
 22 28  1  0  0  0
 22 32  2  0  0  0
 26 27  1  0  0  0
 28107  1  0  0  0
 28108  1  0  0  0
 29109  1  0  0  0
 29110  1  0  0  0
 33 34  1  0  0  0
 33 66  1  0  0  0
 33 70  2  0  0  0
 34 36  1  0  0  0
 34 59  1  0  0  0
 34111  1  0  0  0
 35 44  2  0  0  0
 35 45  1  0  0  0
 35 68  1  0  0  0
 36 56  1  0  0  0
 36112  1  0  0  0
 37 39  1  0  0  0
 37 47  1  0  0  0
 37 66  1  0  0  0
 37113  1  0  0  0
 38 43  2  0  0  0
 38 46  1  0  0  0
 38 47  1  0  0  0
 39 64  1  0  0  0
 39 67  2  0  0  0
 40 52  1  0  0  0
 40 53  2  0  0  0
 40 58  1  0  0  0
 41114  1  0  0  0
 41115  1  0  0  0
 41116  1  0  0  0
 41 48  1  0  0  0
 42 43  1  0  0  0
 42 66  1  0  0  0
 42117  1  0  0  0
 42118  1  0  0  0
 43 44  1  0  0  0
 44119  1  0  0  0
 45 46  2  0  0  0
 45120  1  0  0  0
 46121  1  0  0  0
 47122  1  0  0  0
 47123  1  0  0  0
 48 56  1  0  0  0
 48 65  1  0  0  0
 48124  1  0  0  0
 49 50  1  0  0  0
 49 53  1  0  0  0
 49 64  1  0  0  0
 49125  1  0  0  0
 50 51  1  0  0  0
 50126  1  0  0  0
 50127  1  0  0  0
 51 52  1  0  0  0
 51128  1  0  0  0
 51129  1  0  0  0
 52130  1  0  0  0
 52131  1  0  0  0
 53 54  1  0  0  0
 54 55  2  0  0  0
 54132  1  0  0  0
 55 57  1  0  0  0
 55133  1  0  0  0
 56 69  2  0  0  0
 57 58  2  0  0  0
 57134  1  0  0  0
 58135  1  0  0  0
 59 60  1  0  0  0
 59 61  1  0  0  0
 59 62  1  0  0  0
 60136  1  0  0  0
 60137  1  0  0  0
 60138  1  0  0  0
 61139  1  0  0  0
 61140  1  0  0  0
 61141  1  0  0  0
 62142  1  0  0  0
 62143  1  0  0  0
 62144  1  0  0  0
 63 65  1  0  0  0
 63145  1  0  0  0
 63146  1  0  0  0
 63147  1  0  0  0
 64148  1  0  0  0
 65149  1  0  0  0
 68 87  1  0  0  0
 71 72  2  0  0  0
 71 73  1  0  0  0
 71150  1  0  0  0
 72 74  1  0  0  0
 72 83  1  0  0  0
 73 76  2  0  0  0
 73 86  1  0  0  0
 74 75  2  0  0  0
 74 87  1  0  0  0
 75 76  1  0  0  0
 75 84  1  0  0  0
 76 90  1  0  0  0
 77 79  1  0  0  0
 77 82  1  0  0  0
 77151  1  0  0  0
 77152  1  0  0  0
 78 81  1  0  0  0
 78 82  1  0  0  0
 78153  1  0  0  0
 78154  1  0  0  0
 79 89  1  0  0  0
 79155  1  0  0  0
 79156  1  0  0  0
 80 81  1  0  0  0
 80 89  1  0  0  0
 80157  1  0  0  0
 80158  1  0  0  0
 81 85  1  0  0  0
 81159  1  0  0  0
 82 88  1  0  0  0
 82160  1  0  0  0
 83161  1  0  0  0
 83162  1  0  0  0
 83163  1  0  0  0
 84164  1  0  0  0
 84165  1  0  0  0
 84166  1  0  0  0
 85167  1  0  0  0
 85168  1  0  0  0
 85169  1  0  0  0
 86170  1  0  0  0
 86171  1  0  0  0
 86 89  1  0  0  0
 87172  1  0  0  0
 87173  1  0  0  0
 88174  1  0  0  0
 89175  1  0  0  0
M  CHG  1  89   1
M  ISO  4   1 100  68 101  87 101  88 100
M  END
> <chiral flag>
0

> <version>
0

> <s_m_source_file>
/data/baiqing/PycharmProjects/Reinvent-master-3.2/result/LINK_invent/BTK/process_docking_weight1_custom_sum_contain_oxygen_bond_distance_aromatic_linkinvent_7_9_3/rearranged_h_0022.sdf

> <i_m_source_file_index>
61

> <r_mmod_Potential_Energy-OPLS-2005>
-79.0984115600586

> <r_mmod_Stretch_Energy-OPLS-2005>
41.5080070495605

> <r_mmod_Bend_Energy-OPLS-2005>
122.498443603516

> <r_mmod_Torsional_Energy-OPLS-2005>
270.196929931641

> <r_mmod_Improper_Torsional_Energy-OPLS-2005>
5.42906951904297

> <r_mmod_Van_der_Waal_Energy-OPLS-2005>
165.715255737305

> <r_mmod_Electrostatic_Energy-OPLS-2005>
-287.841918945312

> <r_mmod_Solvation_Energy-OPLS-2005>
-408.99755859375

> <b_mmod_Minimization_Converged-OPLS-2005>
0

> <r_mmod_RMS_Derivative-OPLS-2005>
2.62447094917297

$$$$
61
                    3D
 Structure written by MMmdl.
162170  0  0  1  0            999 V2000
  -30.7474  -14.3805   20.6852 C   0  0  0  0  0  0
  -30.4225  -12.2977   19.3937 C   0  0  0  0  0  0
  -29.4865  -12.5323   18.1925 C   0  0  0  0  0  0
  -28.0096  -12.3841   18.6076 C   0  0  0  0  0  0
  -27.6667  -13.2008   19.8809 C   0  0  2  0  0  0
  -28.7038  -12.9298   20.9921 C   0  0  0  0  0  0
  -25.2601  -13.8149   20.5673 C   0  0  0  0  0  0
  -24.1843  -13.0434   20.9157 C   0  0  0  0  0  0
  -24.6386  -11.6899   20.8715 C   0  0  0  0  0  0
  -23.9049  -10.4289   21.0390 C   0  0  0  0  0  0
  -24.3602   -9.4210   21.9176 C   0  0  0  0  0  0
  -23.6280   -8.2245   22.0751 C   0  0  0  0  0  0
  -22.4265   -8.0279   21.3540 C   0  0  0  0  0  0
  -21.9897   -9.0249   20.4641 C   0  0  0  0  0  0
  -22.7223  -10.2127   20.3042 C   0  0  0  0  0  0
  -21.6854   -6.0729   22.5275 C   0  0  0  0  0  0
  -21.4017   -6.5633   23.8207 C   0  0  0  0  0  0
  -21.3658   -5.6786   24.9168 C   0  0  0  0  0  0
  -21.6043   -4.3046   24.7218 C   0  0  0  0  0  0
  -21.8823   -3.8137   23.4339 C   0  0  0  0  0  0
  -21.9197   -4.6957   22.3397 C   0  0  0  0  0  0
  -22.7867  -13.5240   21.1835 C   0  0  0  0  0  0
  -22.1664   -4.2143   21.0974 F   0  0  0  0  0  0
  -21.5626   -3.4531   25.7731 F   0  0  0  0  0  0
  -30.0471  -13.2373   20.4597 N   0  0  0  0  0  0
  -26.3039  -12.9312   20.3375 N   0  0  0  0  0  0
  -25.9311  -11.6475   20.5747 N   0  0  0  0  0  0
  -22.0503  -12.8225   22.0381 N   0  0  0  0  0  0
  -25.4338  -15.1863   20.4099 N   0  0  0  0  0  0
  -31.7770  -14.6777   20.0710 O   0  0  0  0  0  0
  -21.6637   -6.8870   21.4234 O   0  0  0  0  0  0
  -22.3557  -14.5559   20.6705 O   0  0  0  0  0  0
  -24.6141  -31.8699   23.2111 C   0  0  0  0  0  0
  -25.9041  -32.4830   23.8398 C   0  0  1  0  0  0
  -27.2330  -27.4485   20.0829 C   0  0  0  0  0  0
  -25.5914  -33.8627   24.2339 N   0  0  0  0  0  0
  -23.3994  -30.4952   21.5531 C   0  0  2  0  0  0
  -24.8426  -28.9652   20.1153 C   0  0  0  0  0  0
  -22.7402  -29.4673   22.5005 C   0  0  0  0  0  0
  -18.0270  -28.1376   22.8494 C   0  0  0  0  0  0
  -24.1484  -36.7301   23.2637 C   0  0  0  0  0  0
  -25.9274  -30.8413   21.3590 C   0  0  0  0  0  0
  -26.0044  -29.4772   20.7053 C   0  0  0  0  0  0
  -27.2022  -28.7273   20.6840 C   0  0  0  0  0  0
  -26.0461  -26.9501   19.4919 C   0  0  0  0  0  0
  -24.8576  -27.7001   19.5071 C   0  0  0  0  0  0
  -23.6042  -29.8293   20.1670 C   0  0  0  0  0  0
  -25.4105  -36.3111   24.0342 C   0  0  1  0  0  0
  -20.5860  -28.3660   23.1325 C   0  0  2  0  0  0
  -20.6756  -26.9401   22.5416 C   0  0  0  0  0  0
  -19.5740  -26.6389   21.5208 C   0  0  0  0  0  0
  -18.1916  -26.7932   22.1610 C   0  0  0  0  0  0
  -19.1518  -28.8833   23.2907 C   0  0  0  0  0  0
  -18.9447  -30.1439   23.8915 C   0  0  0  0  0  0
  -17.6453  -30.6584   24.0566 C   0  0  0  0  0  0
  -25.9038  -34.9480   23.5134 C   0  0  0  0  0  0
  -16.5342  -29.9089   23.6329 C   0  0  0  0  0  0
  -16.7260  -28.6503   23.0350 C   0  0  0  0  0  0
  -26.4471  -31.6596   25.0715 C   0  0  0  0  0  0
  -25.3741  -31.3682   26.1462 C   0  0  0  0  0  0
  -27.0303  -30.3052   24.6051 C   0  0  0  0  0  0
  -27.6050  -32.4304   25.7488 C   0  0  0  0  0  0
  -27.5578  -37.1807   24.8461 C   0  0  0  0  0  0
  -21.4132  -29.3034   22.3739 N   0  0  0  0  0  0
  -26.4284  -37.3801   23.9418 N   0  0  0  0  0  0
  -24.6658  -31.0819   22.1001 N   0  0  0  0  0  0
  -23.4186  -28.8212   23.3034 O   0  0  0  0  0  0
  -28.4136  -26.7309   20.0873 O   0  0  0  0  0  0
  -26.5588  -34.8933   22.4687 O   0  0  0  0  0  0
  -23.5339  -32.1436   23.7525 O   0  0  0  0  0  0
  -31.7852  -18.7105   23.3428 C   0  0  0  0  0  0
  -31.4905  -18.6714   21.9644 C   0  0  0  0  0  0
  -31.5795  -17.5761   24.1539 C   0  0  0  0  0  0
  -30.8045  -16.3300   22.1952 C   0  0  0  0  0  0
  -30.9985  -17.4774   21.3881 C   0  0  0  0  0  0
  -31.0774  -16.3869   23.5804 C   0  0  0  0  0  0
  -31.8896  -17.6486   25.6384 C   0  0  0  0  0  0
  -31.6895  -19.9306   21.1314 C   0  0  0  0  0  0
  -30.4314  -20.8180   21.0962 C   0  0  0  0  0  0
  -30.7011  -22.2593   20.6193 C   0  0  0  0  0  0
  -29.4039  -23.0764   20.4812 C   0  0  0  0  0  0
  -29.6189  -24.5917   20.2914 C   0  0  0  0  0  0
  -28.2952  -25.3097   19.9828 C   0  0  0  0  0  0
  -30.2505  -15.1366   21.6699 N   0  0  0  0  0  0
  -30.6692  -17.4513   20.0728 F   0  0  0  0  0  0
  -30.7909  -14.9948   24.5732 Cl  0  0  0  0  0  0
  -31.4649  -12.4086   19.0896 H   0  0  0  0  0  0
  -30.3290  -11.2728   19.7560 H   0  0  0  0  0  0
  -29.7214  -11.8325   17.3893 H   0  0  0  0  0  0
  -29.6543  -13.5312   17.7867 H   0  0  0  0  0  0
  -27.8160  -11.3252   18.7828 H   0  0  0  0  0  0
  -27.3569  -12.6797   17.7854 H   0  0  0  0  0  0
  -27.7281  -14.2568   19.6162 H   0  0  0  0  0  0
  -28.6698  -11.8799   21.2879 H   0  0  0  0  0  0
  -28.4414  -13.4839   21.8936 H   0  0  0  0  0  0
  -25.2747   -9.5691   22.4748 H   0  0  0  0  0  0
  -23.9993   -7.4636   22.7471 H   0  0  0  0  0  0
  -21.0831   -8.8757   19.8943 H   0  0  0  0  0  0
  -22.3681  -10.9657   19.6139 H   0  0  0  0  0  0
  -21.2009   -7.6143   23.9708 H   0  0  0  0  0  0
  -21.1476   -6.0513   25.9072 H   0  0  0  0  0  0
  -22.0603   -2.7601   23.2836 H   0  0  0  0  0  0
  -22.4107  -11.9861   22.4730 H   0  0  0  0  0  0
  -21.1123  -13.1255   22.2598 H   0  0  0  0  0  0
  -24.6711  -15.8457   20.5208 H   0  0  0  0  0  0
  -26.2977  -15.6257   20.1157 H   0  0  0  0  0  0
  -26.7112  -32.5548   23.1167 H   0  0  0  0  0  0
  -25.0110  -33.9793   25.0513 H   0  0  0  0  0  0
  -22.6881  -31.3126   21.4172 H   0  0  0  0  0  0
  -23.3763  -35.9614   23.3290 H   0  0  0  0  0  0
  -24.3588  -36.8920   22.2052 H   0  0  0  0  0  0
  -23.7208  -37.6495   23.6648 H   0  0  0  0  0  0
  -26.0345  -31.6086   20.5907 H   0  0  0  0  0  0
  -26.8173  -30.8953   21.9740 H   0  0  0  0  0  0
  -28.1001  -29.1222   21.1382 H   0  0  0  0  0  0
  -26.0136  -25.9870   19.0055 H   0  0  0  0  0  0
  -23.9641  -27.3004   19.0473 H   0  0  0  0  0  0
  -23.7075  -30.6036   19.4061 H   0  0  0  0  0  0
  -22.7285  -29.2463   19.8751 H   0  0  0  0  0  0
  -25.1278  -36.1973   25.0835 H   0  0  0  0  0  0
  -20.9955  -28.3211   24.1444 H   0  0  0  0  0  0
  -20.5656  -26.2268   23.3596 H   0  0  0  0  0  0
  -21.6629  -26.7444   22.1211 H   0  0  0  0  0  0
  -19.6904  -25.6306   21.1222 H   0  0  0  0  0  0
  -19.6690  -27.3211   20.6749 H   0  0  0  0  0  0
  -17.4199  -26.6705   21.3995 H   0  0  0  0  0  0
  -18.0300  -26.0055   22.8984 H   0  0  0  0  0  0
  -19.7926  -30.7246   24.2289 H   0  0  0  0  0  0
  -17.5015  -31.6267   24.5162 H   0  0  0  0  0  0
  -15.5345  -30.2996   23.7649 H   0  0  0  0  0  0
  -15.8659  -28.0830   22.7056 H   0  0  0  0  0  0
  -24.5951  -30.6983   25.7807 H   0  0  0  0  0  0
  -24.8884  -32.2822   26.4888 H   0  0  0  0  0  0
  -25.8109  -30.8889   27.0232 H   0  0  0  0  0  0
  -26.2834  -29.6823   24.1113 H   0  0  0  0  0  0
  -27.4115  -29.7271   25.4479 H   0  0  0  0  0  0
  -27.8649  -30.4401   23.9167 H   0  0  0  0  0  0
  -27.2679  -33.3614   26.2057 H   0  0  0  0  0  0
  -28.3874  -32.6834   25.0323 H   0  0  0  0  0  0
  -28.0693  -31.8421   26.5413 H   0  0  0  0  0  0
  -28.2583  -38.0118   24.7536 H   0  0  0  0  0  0
  -28.1084  -36.2654   24.6242 H   0  0  0  0  0  0
  -27.2306  -37.1400   25.8865 H   0  0  0  0  0  0
  -20.9284  -29.8775   21.6985 H   0  0  0  0  0  0
  -26.0173  -38.2875   24.1432 H   0  0  0  0  0  0
  -32.1576  -19.6258   23.7822 H   0  0  0  0  0  0
  -32.3083  -18.6162   25.9150 H   0  0  0  0  0  0
  -32.6125  -16.8807   25.9151 H   0  0  0  0  0  0
  -30.9836  -17.4942   26.2251 H   0  0  0  0  0  0
  -31.9908  -19.6617   20.1181 H   0  0  0  0  0  0
  -32.5257  -20.4904   21.5527 H   0  0  0  0  0  0
  -30.0049  -20.8698   22.0992 H   0  0  0  0  0  0
  -29.6747  -20.3432   20.4699 H   0  0  0  0  0  0
  -31.2238  -22.2450   19.6617 H   0  0  0  0  0  0
  -31.3707  -22.7494   21.3279 H   0  0  0  0  0  0
  -28.7874  -22.9260   21.3690 H   0  0  0  0  0  0
  -28.8263  -22.6806   19.6445 H   0  0  0  0  0  0
  -30.3306  -24.7794   19.4865 H   0  0  0  0  0  0
  -30.0577  -25.0073   21.1991 H   0  0  0  0  0  0
  -27.5333  -24.9621   20.6839 H   0  0  0  0  0  0
  -27.9750  -25.0287   18.9785 H   0  0  0  0  0  0
  -29.5144  -14.7129   22.2117 H   0  0  0  0  0  0
  1 25  1  0  0  0
  1 30  2  0  0  0
  1 84  1  0  0  0
  2  3  1  0  0  0
  2 25  1  0  0  0
  2 87  1  0  0  0
  2 88  1  0  0  0
  3  4  1  0  0  0
  3 89  1  0  0  0
  3 90  1  0  0  0
  4  5  1  0  0  0
  4 91  1  0  0  0
  4 92  1  0  0  0
  5  6  1  0  0  0
  5 26  1  0  0  0
  5 93  1  0  0  0
  6 25  1  0  0  0
  6 94  1  0  0  0
  6 95  1  0  0  0
  7  8  2  0  0  0
  7 26  1  0  0  0
  7 29  1  0  0  0
  8  9  1  0  0  0
  8 22  1  0  0  0
  9 10  1  0  0  0
  9 27  2  0  0  0
 10 11  2  0  0  0
 10 15  1  0  0  0
 11 12  1  0  0  0
 11 96  1  0  0  0
 12 13  2  0  0  0
 12 97  1  0  0  0
 13 14  1  0  0  0
 13 31  1  0  0  0
 14 15  2  0  0  0
 14 98  1  0  0  0
 15 99  1  0  0  0
 16 17  2  0  0  0
 16 21  1  0  0  0
 16 31  1  0  0  0
 17 18  1  0  0  0
 17100  1  0  0  0
 18 19  2  0  0  0
 18101  1  0  0  0
 19 20  1  0  0  0
 19 24  1  0  0  0
 20 21  2  0  0  0
 20102  1  0  0  0
 21 23  1  0  0  0
 22 28  1  0  0  0
 22 32  2  0  0  0
 26 27  1  0  0  0
 28103  1  0  0  0
 28104  1  0  0  0
 29105  1  0  0  0
 29106  1  0  0  0
 33 34  1  0  0  0
 33 66  1  0  0  0
 33 70  2  0  0  0
 34 36  1  0  0  0
 34 59  1  0  0  0
 34107  1  0  0  0
 35 44  2  0  0  0
 35 45  1  0  0  0
 35 68  1  0  0  0
 36 56  1  0  0  0
 36108  1  0  0  0
 37 39  1  0  0  0
 37 47  1  0  0  0
 37 66  1  0  0  0
 37109  1  0  0  0
 38 43  2  0  0  0
 38 46  1  0  0  0
 38 47  1  0  0  0
 39 64  1  0  0  0
 39 67  2  0  0  0
 40 52  1  0  0  0
 40 53  2  0  0  0
 40 58  1  0  0  0
 41110  1  0  0  0
 41111  1  0  0  0
 41112  1  0  0  0
 41 48  1  0  0  0
 42 43  1  0  0  0
 42 66  1  0  0  0
 42113  1  0  0  0
 42114  1  0  0  0
 43 44  1  0  0  0
 44115  1  0  0  0
 45 46  2  0  0  0
 45116  1  0  0  0
 46117  1  0  0  0
 47118  1  0  0  0
 47119  1  0  0  0
 48 56  1  0  0  0
 48 65  1  0  0  0
 48120  1  0  0  0
 49 50  1  0  0  0
 49 53  1  0  0  0
 49 64  1  0  0  0
 49121  1  0  0  0
 50 51  1  0  0  0
 50122  1  0  0  0
 50123  1  0  0  0
 51 52  1  0  0  0
 51124  1  0  0  0
 51125  1  0  0  0
 52126  1  0  0  0
 52127  1  0  0  0
 53 54  1  0  0  0
 54 55  2  0  0  0
 54128  1  0  0  0
 55 57  1  0  0  0
 55129  1  0  0  0
 56 69  2  0  0  0
 57 58  2  0  0  0
 57130  1  0  0  0
 58131  1  0  0  0
 59 60  1  0  0  0
 59 61  1  0  0  0
 59 62  1  0  0  0
 60132  1  0  0  0
 60133  1  0  0  0
 60134  1  0  0  0
 61135  1  0  0  0
 61136  1  0  0  0
 61137  1  0  0  0
 62138  1  0  0  0
 62139  1  0  0  0
 62140  1  0  0  0
 63 65  1  0  0  0
 63141  1  0  0  0
 63142  1  0  0  0
 63143  1  0  0  0
 64144  1  0  0  0
 65145  1  0  0  0
 68 83  1  0  0  0
 71 72  2  0  0  0
 71 73  1  0  0  0
 71146  1  0  0  0
 72 75  1  0  0  0
 72 78  1  0  0  0
 73 76  2  0  0  0
 73 77  1  0  0  0
 74 75  2  0  0  0
 74 76  1  0  0  0
 74 84  1  0  0  0
 75 85  1  0  0  0
 76 86  1  0  0  0
 77147  1  0  0  0
 77148  1  0  0  0
 77149  1  0  0  0
 78 79  1  0  0  0
 78150  1  0  0  0
 78151  1  0  0  0
 79 80  1  0  0  0
 79152  1  0  0  0
 79153  1  0  0  0
 80 81  1  0  0  0
 80154  1  0  0  0
 80155  1  0  0  0
 81 82  1  0  0  0
 81156  1  0  0  0
 81157  1  0  0  0
 82 83  1  0  0  0
 82158  1  0  0  0
 82159  1  0  0  0
 83160  1  0  0  0
 83161  1  0  0  0
 84162  1  0  0  0
M  ISO  4   1 100  68 101  83 101  84 100
M  END
> <chiral flag>
0

> <version>
0

> <s_m_source_file>
/data/baiqing/PycharmProjects/Reinvent-master-3.2/result/LINK_invent/BTK/process_docking_weight1_custom_sum_contain_oxygen_bond_distance_aromatic_linkinvent_7_9_3/rearranged_h_0022.sdf

> <i_m_source_file_index>
62

> <r_mmod_Potential_Energy-OPLS-2005>
-97.2324523925781

> <r_mmod_Stretch_Energy-OPLS-2005>
33.4716644287109

> <r_mmod_Bend_Energy-OPLS-2005>
86.9826202392578

> <r_mmod_Torsional_Energy-OPLS-2005>
220.487762451172

> <r_mmod_Improper_Torsional_Energy-OPLS-2005>
2.5045006275177

> <r_mmod_Van_der_Waal_Energy-OPLS-2005>
158.353790283203

> <r_mmod_Electrostatic_Energy-OPLS-2005>
-415.186340332031

> <r_mmod_Solvation_Energy-OPLS-2005>
-191.754760742188

> <b_mmod_Minimization_Converged-OPLS-2005>
0

> <r_mmod_RMS_Derivative-OPLS-2005>
0.79288923740387

$$$$
62
                    3D
 Structure written by MMmdl.
183191  0  0  1  0            999 V2000
  -30.7553  -14.3638   20.6580 C   0  0  0  0  0  0
  -30.4087  -12.2734   19.3937 C   0  0  0  0  0  0
  -29.4824  -12.5253   18.1907 C   0  0  0  0  0  0
  -28.0059  -12.3848   18.6076 C   0  0  0  0  0  0
  -27.6660  -13.2040   19.8815 C   0  0  2  0  0  0
  -28.7066  -12.9531   20.9961 C   0  0  0  0  0  0
  -25.2599  -13.8154   20.5688 C   0  0  0  0  0  0
  -24.1847  -13.0442   20.9167 C   0  0  0  0  0  0
  -24.6395  -11.6902   20.8719 C   0  0  0  0  0  0
  -23.9054  -10.4296   21.0396 C   0  0  0  0  0  0
  -24.3610   -9.4212   21.9174 C   0  0  0  0  0  0
  -23.6291   -8.2245   22.0749 C   0  0  0  0  0  0
  -22.4266   -8.0283   21.3547 C   0  0  0  0  0  0
  -21.9904   -9.0249   20.4642 C   0  0  0  0  0  0
  -22.7227  -10.2131   20.3049 C   0  0  0  0  0  0
  -21.6854   -6.0731   22.5279 C   0  0  0  0  0  0
  -21.4015   -6.5637   23.8212 C   0  0  0  0  0  0
  -21.3665   -5.6791   24.9176 C   0  0  0  0  0  0
  -21.6044   -4.3053   24.7225 C   0  0  0  0  0  0
  -21.8819   -3.8144   23.4349 C   0  0  0  0  0  0
  -21.9193   -4.6960   22.3404 C   0  0  0  0  0  0
  -22.7867  -13.5235   21.1835 C   0  0  0  0  0  0
  -22.1660   -4.2146   21.0982 F   0  0  0  0  0  0
  -21.5631   -3.4540   25.7740 F   0  0  0  0  0  0
  -30.0439  -13.2285   20.4483 N   0  0  0  0  0  0
  -26.3048  -12.9333   20.3404 N   0  0  0  0  0  0
  -25.9324  -11.6486   20.5764 N   0  0  0  0  0  0
  -22.0510  -12.8232   22.0396 N   0  0  0  0  0  0
  -25.4324  -15.1883   20.4104 N   0  0  0  0  0  0
  -31.8007  -14.6044   20.0442 O   0  0  0  0  0  0
  -21.6641   -6.8874   21.4239 O   0  0  0  0  0  0
  -22.3556  -14.5552   20.6699 O   0  0  0  0  0  0
  -24.6137  -31.8705   23.2119 C   0  0  0  0  0  0
  -25.9053  -32.4828   23.8415 C   0  0  1  0  0  0
  -27.2454  -27.4750   20.0939 C   0  0  0  0  0  0
  -25.5921  -33.8628   24.2345 N   0  0  0  0  0  0
  -23.3974  -30.4963   21.5508 C   0  0  2  0  0  0
  -24.8448  -28.9665   20.1129 C   0  0  0  0  0  0
  -22.7404  -29.4678   22.4985 C   0  0  0  0  0  0
  -18.0290  -28.1377   22.8478 C   0  0  0  0  0  0
  -24.1452  -36.7330   23.2640 C   0  0  0  0  0  0
  -25.9210  -30.8501   21.3592 C   0  0  0  0  0  0
  -25.9993  -29.4859   20.7105 C   0  0  0  0  0  0
  -27.2006  -28.7497   20.7033 C   0  0  0  0  0  0
  -26.0793  -26.9692   19.4824 C   0  0  0  0  0  0
  -24.8766  -27.7032   19.4948 C   0  0  0  0  0  0
  -23.6035  -29.8278   20.1637 C   0  0  0  0  0  0
  -25.4069  -36.3118   24.0342 C   0  0  1  0  0  0
  -20.5874  -28.3660   23.1313 C   0  0  2  0  0  0
  -20.6767  -26.9389   22.5429 C   0  0  0  0  0  0
  -19.5742  -26.6375   21.5222 C   0  0  0  0  0  0
  -18.1921  -26.7918   22.1631 C   0  0  0  0  0  0
  -19.1539  -28.8835   23.2885 C   0  0  0  0  0  0
  -18.9462  -30.1430   23.8898 C   0  0  0  0  0  0
  -17.6457  -30.6564   24.0576 C   0  0  0  0  0  0
  -25.9004  -34.9485   23.5119 C   0  0  0  0  0  0
  -16.5352  -29.9071   23.6323 C   0  0  0  0  0  0
  -16.7276  -28.6501   23.0319 C   0  0  0  0  0  0
  -26.4493  -31.6583   25.0737 C   0  0  0  0  0  0
  -25.3761  -31.3535   26.1440 C   0  0  0  0  0  0
  -27.0473  -30.3082   24.6096 C   0  0  0  0  0  0
  -27.5936  -32.4387   25.7618 C   0  0  0  0  0  0
  -27.5540  -37.1819   24.8463 C   0  0  0  0  0  0
  -21.4138  -29.3031   22.3723 N   0  0  0  0  0  0
  -26.4243  -37.3814   23.9430 N   0  0  0  0  0  0
  -24.6621  -31.0858   22.0994 N   0  0  0  0  0  0
  -23.4201  -28.8218   23.3006 O   0  0  0  0  0  0
  -28.3792  -26.6969   20.0448 O   0  0  0  0  0  0
  -26.5539  -34.8937   22.4661 O   0  0  0  0  0  0
  -23.5347  -32.1463   23.7528 O   0  0  0  0  0  0
  -29.0913  -24.1864   26.5880 C   0  0  0  0  0  0
  -29.7137  -26.2495   25.4649 C   0  0  0  0  0  0
  -28.7251  -25.3102   25.8198 C   0  0  0  0  0  0
  -31.4431  -24.8891   26.5530 C   0  0  0  0  0  0
  -30.4310  -23.9820   26.9690 C   0  0  0  0  0  0
  -31.0602  -26.0344   25.8131 C   0  0  0  0  0  0
  -27.2776  -25.5086   25.3947 C   0  0  0  0  0  0
  -30.2464  -15.4041   21.6698 C   0  0  0  0  0  0
  -31.2138  -16.5951   21.8223 C   0  0  0  0  0  0
  -30.7562  -17.6630   22.8240 C   0  0  0  0  0  0
  -31.8231  -18.7593   22.9679 C   0  0  0  0  0  0
  -31.4914  -19.8031   24.0412 C   0  0  0  0  0  0
  -32.6620  -20.7708   24.2768 C   0  0  0  0  0  0
  -32.3831  -21.7688   25.4079 C   0  0  0  0  0  0
  -33.6235  -22.5914   25.7973 C   0  0  0  0  0  0
  -28.7137  -25.5720   22.2176 C   0  0  0  0  0  0
  -33.4579  -23.4467   27.0698 C   0  0  0  0  0  0
  -27.3844  -25.9290   22.9176 C   0  0  0  0  0  0
  -29.2029  -26.6338   21.2117 C   0  0  0  0  0  0
  -32.8143  -24.7355   26.8374 N   0  0  0  0  0  0
  -27.0186  -25.0148   24.0251 N   0  3  0  0  0  0
  -30.7151  -22.9019   27.7346 F   0  0  0  0  0  0
  -32.2408  -27.1950   25.3087 Cl  0  0  0  0  0  0
  -31.4544  -12.3538   19.0927 H   0  0  0  0  0  0
  -30.2856  -11.2530   19.7602 H   0  0  0  0  0  0
  -29.7121  -11.8295   17.3826 H   0  0  0  0  0  0
  -29.6596  -13.5265   17.7937 H   0  0  0  0  0  0
  -27.8083  -11.3267   18.7828 H   0  0  0  0  0  0
  -27.3536  -12.6835   17.7861 H   0  0  0  0  0  0
  -27.7235  -14.2581   19.6095 H   0  0  0  0  0  0
  -28.6622  -11.9161   21.3321 H   0  0  0  0  0  0
  -28.4681  -13.5514   21.8745 H   0  0  0  0  0  0
  -25.2758   -9.5693   22.4745 H   0  0  0  0  0  0
  -24.0002   -7.4641   22.7476 H   0  0  0  0  0  0
  -21.0833   -8.8762   19.8955 H   0  0  0  0  0  0
  -22.3679  -10.9664   19.6159 H   0  0  0  0  0  0
  -21.2007   -7.6146   23.9714 H   0  0  0  0  0  0
  -21.1487   -6.0523   25.9079 H   0  0  0  0  0  0
  -22.0594   -2.7607   23.2850 H   0  0  0  0  0  0
  -22.4116  -11.9880   22.4768 H   0  0  0  0  0  0
  -21.1134  -13.1264   22.2614 H   0  0  0  0  0  0
  -24.6674  -15.8450   20.5196 H   0  0  0  0  0  0
  -26.2946  -15.6291   20.1146 H   0  0  0  0  0  0
  -26.7135  -32.5577   23.1197 H   0  0  0  0  0  0
  -25.0234  -33.9795   25.0600 H   0  0  0  0  0  0
  -22.6868  -31.3139   21.4115 H   0  0  0  0  0  0
  -23.3701  -35.9679   23.3336 H   0  0  0  0  0  0
  -24.3528  -36.8926   22.2046 H   0  0  0  0  0  0
  -23.7228  -37.6550   23.6640 H   0  0  0  0  0  0
  -26.0354  -31.6170   20.5911 H   0  0  0  0  0  0
  -26.8074  -30.9030   21.9790 H   0  0  0  0  0  0
  -28.0848  -29.1856   21.1440 H   0  0  0  0  0  0
  -26.1030  -26.0038   18.9968 H   0  0  0  0  0  0
  -23.9902  -27.3013   19.0218 H   0  0  0  0  0  0
  -23.7044  -30.6029   19.4022 H   0  0  0  0  0  0
  -22.7290  -29.2444   19.8710 H   0  0  0  0  0  0
  -25.1238  -36.1967   25.0836 H   0  0  0  0  0  0
  -20.9977  -28.3231   24.1425 H   0  0  0  0  0  0
  -20.5675  -26.2262   23.3619 H   0  0  0  0  0  0
  -21.6631  -26.7424   22.1214 H   0  0  0  0  0  0
  -19.6894  -25.6289   21.1225 H   0  0  0  0  0  0
  -19.6675  -27.3214   20.6768 H   0  0  0  0  0  0
  -17.4194  -26.6679   21.4026 H   0  0  0  0  0  0
  -18.0294  -26.0058   22.9025 H   0  0  0  0  0  0
  -19.7939  -30.7248   24.2253 H   0  0  0  0  0  0
  -17.5021  -31.6242   24.5184 H   0  0  0  0  0  0
  -15.5348  -30.2978   23.7630 H   0  0  0  0  0  0
  -15.8687  -28.0842   22.6989 H   0  0  0  0  0  0
  -24.5856  -30.7050   25.7640 H   0  0  0  0  0  0
  -24.9068  -32.2651   26.5136 H   0  0  0  0  0  0
  -25.8088  -30.8419   27.0046 H   0  0  0  0  0  0
  -26.3043  -29.6686   24.1333 H   0  0  0  0  0  0
  -27.4530  -29.7458   25.4515 H   0  0  0  0  0  0
  -27.8710  -30.4487   23.9097 H   0  0  0  0  0  0
  -27.2429  -33.3699   26.2071 H   0  0  0  0  0  0
  -28.3868  -32.6944   25.0589 H   0  0  0  0  0  0
  -28.0470  -31.8627   26.5690 H   0  0  0  0  0  0
  -28.2579  -38.0095   24.7476 H   0  0  0  0  0  0
  -28.1008  -36.2627   24.6303 H   0  0  0  0  0  0
  -27.2274  -37.1508   25.8874 H   0  0  0  0  0  0
  -20.9278  -29.8739   21.6947 H   0  0  0  0  0  0
  -26.0129  -38.2870   24.1511 H   0  0  0  0  0  0
  -28.3456  -23.4692   26.9021 H   0  0  0  0  0  0
  -29.4547  -27.1328   24.8998 H   0  0  0  0  0  0
  -26.9900  -26.5558   25.4975 H   0  0  0  0  0  0
  -26.6292  -24.9548   26.0760 H   0  0  0  0  0  0
  -29.2692  -15.7610   21.3431 H   0  0  0  0  0  0
  -30.1129  -14.9213   22.6382 H   0  0  0  0  0  0
  -31.3667  -17.0664   20.8495 H   0  0  0  0  0  0
  -32.1888  -16.2168   22.1348 H   0  0  0  0  0  0
  -30.5695  -17.1989   23.7940 H   0  0  0  0  0  0
  -29.8102  -18.1007   22.4999 H   0  0  0  0  0  0
  -31.9715  -19.2579   22.0084 H   0  0  0  0  0  0
  -32.7751  -18.2871   23.2163 H   0  0  0  0  0  0
  -31.2578  -19.2915   24.9764 H   0  0  0  0  0  0
  -30.5950  -20.3573   23.7574 H   0  0  0  0  0  0
  -32.8870  -21.3116   23.3564 H   0  0  0  0  0  0
  -33.5557  -20.1938   24.5199 H   0  0  0  0  0  0
  -32.0293  -21.2240   26.2845 H   0  0  0  0  0  0
  -31.5726  -22.4279   25.1007 H   0  0  0  0  0  0
  -33.9539  -23.2083   24.9606 H   0  0  0  0  0  0
  -34.4389  -21.8907   25.9831 H   0  0  0  0  0  0
  -28.6220  -24.6106   21.7130 H   0  0  0  0  0  0
  -29.5030  -25.4394   22.9544 H   0  0  0  0  0  0
  -34.4585  -23.6808   27.4383 H   0  0  0  0  0  0
  -32.9872  -22.8879   27.8780 H   0  0  0  0  0  0
  -26.5849  -25.8605   22.1823 H   0  0  0  0  0  0
  -27.3894  -26.9645   23.2584 H   0  0  0  0  0  0
  -30.1961  -26.3399   20.8732 H   0  0  0  0  0  0
  -29.3483  -27.5942   21.7047 H   0  0  0  0  0  0
  -33.4013  -25.4592   26.4315 H   0  0  0  0  0  0
  -26.0199  -24.8900   23.9713 H   0  0  0  0  0  0
  -27.4298  -24.1053   23.8996 H   0  0  0  0  0  0
  1 25  1  0  0  0
  1 30  2  0  0  0
  1 78  1  0  0  0
  2  3  1  0  0  0
  2 25  1  0  0  0
  2 94  1  0  0  0
  2 95  1  0  0  0
  3  4  1  0  0  0
  3 96  1  0  0  0
  3 97  1  0  0  0
  4  5  1  0  0  0
  4 98  1  0  0  0
  4 99  1  0  0  0
  5  6  1  0  0  0
  5 26  1  0  0  0
  5100  1  0  0  0
  6 25  1  0  0  0
  6101  1  0  0  0
  6102  1  0  0  0
  7  8  2  0  0  0
  7 26  1  0  0  0
  7 29  1  0  0  0
  8  9  1  0  0  0
  8 22  1  0  0  0
  9 10  1  0  0  0
  9 27  2  0  0  0
 10 11  2  0  0  0
 10 15  1  0  0  0
 11 12  1  0  0  0
 11103  1  0  0  0
 12 13  2  0  0  0
 12104  1  0  0  0
 13 14  1  0  0  0
 13 31  1  0  0  0
 14 15  2  0  0  0
 14105  1  0  0  0
 15106  1  0  0  0
 16 17  2  0  0  0
 16 21  1  0  0  0
 16 31  1  0  0  0
 17 18  1  0  0  0
 17107  1  0  0  0
 18 19  2  0  0  0
 18108  1  0  0  0
 19 20  1  0  0  0
 19 24  1  0  0  0
 20 21  2  0  0  0
 20109  1  0  0  0
 21 23  1  0  0  0
 22 28  1  0  0  0
 22 32  2  0  0  0
 26 27  1  0  0  0
 28110  1  0  0  0
 28111  1  0  0  0
 29112  1  0  0  0
 29113  1  0  0  0
 33 34  1  0  0  0
 33 66  1  0  0  0
 33 70  2  0  0  0
 34 36  1  0  0  0
 34 59  1  0  0  0
 34114  1  0  0  0
 35 44  2  0  0  0
 35 45  1  0  0  0
 35 68  1  0  0  0
 36 56  1  0  0  0
 36115  1  0  0  0
 37 39  1  0  0  0
 37 47  1  0  0  0
 37 66  1  0  0  0
 37116  1  0  0  0
 38 43  2  0  0  0
 38 46  1  0  0  0
 38 47  1  0  0  0
 39 64  1  0  0  0
 39 67  2  0  0  0
 40 52  1  0  0  0
 40 53  2  0  0  0
 40 58  1  0  0  0
 41117  1  0  0  0
 41118  1  0  0  0
 41119  1  0  0  0
 41 48  1  0  0  0
 42 43  1  0  0  0
 42 66  1  0  0  0
 42120  1  0  0  0
 42121  1  0  0  0
 43 44  1  0  0  0
 44122  1  0  0  0
 45 46  2  0  0  0
 45123  1  0  0  0
 46124  1  0  0  0
 47125  1  0  0  0
 47126  1  0  0  0
 48 56  1  0  0  0
 48 65  1  0  0  0
 48127  1  0  0  0
 49 50  1  0  0  0
 49 53  1  0  0  0
 49 64  1  0  0  0
 49128  1  0  0  0
 50 51  1  0  0  0
 50129  1  0  0  0
 50130  1  0  0  0
 51 52  1  0  0  0
 51131  1  0  0  0
 51132  1  0  0  0
 52133  1  0  0  0
 52134  1  0  0  0
 53 54  1  0  0  0
 54 55  2  0  0  0
 54135  1  0  0  0
 55 57  1  0  0  0
 55136  1  0  0  0
 56 69  2  0  0  0
 57 58  2  0  0  0
 57137  1  0  0  0
 58138  1  0  0  0
 59 60  1  0  0  0
 59 61  1  0  0  0
 59 62  1  0  0  0
 60139  1  0  0  0
 60140  1  0  0  0
 60141  1  0  0  0
 61142  1  0  0  0
 61143  1  0  0  0
 61144  1  0  0  0
 62145  1  0  0  0
 62146  1  0  0  0
 62147  1  0  0  0
 63 65  1  0  0  0
 63148  1  0  0  0
 63149  1  0  0  0
 63150  1  0  0  0
 64151  1  0  0  0
 65152  1  0  0  0
 68 89  1  0  0  0
 71 73  2  0  0  0
 71 75  1  0  0  0
 71153  1  0  0  0
 72 73  1  0  0  0
 72 76  2  0  0  0
 72154  1  0  0  0
 73 77  1  0  0  0
 74 75  2  0  0  0
 74 76  1  0  0  0
 74 90  1  0  0  0
 75 92  1  0  0  0
 76 93  1  0  0  0
 77 91  1  0  0  0
 77155  1  0  0  0
 77156  1  0  0  0
 78 79  1  0  0  0
 78157  1  0  0  0
 78158  1  0  0  0
 79 80  1  0  0  0
 79159  1  0  0  0
 79160  1  0  0  0
 80 81  1  0  0  0
 80161  1  0  0  0
 80162  1  0  0  0
 81 82  1  0  0  0
 81163  1  0  0  0
 81164  1  0  0  0
 82 83  1  0  0  0
 82165  1  0  0  0
 82166  1  0  0  0
 83 84  1  0  0  0
 83167  1  0  0  0
 83168  1  0  0  0
 84 85  1  0  0  0
 84169  1  0  0  0
 84170  1  0  0  0
 85 87  1  0  0  0
 85171  1  0  0  0
 85172  1  0  0  0
 86 88  1  0  0  0
 86 89  1  0  0  0
 86173  1  0  0  0
 86174  1  0  0  0
 87 90  1  0  0  0
 87175  1  0  0  0
 87176  1  0  0  0
 88 91  1  0  0  0
 88177  1  0  0  0
 88178  1  0  0  0
 89179  1  0  0  0
 89180  1  0  0  0
 90181  1  0  0  0
 91182  1  0  0  0
 91183  1  0  0  0
M  CHG  1  91   1
M  ISO  4   1 100  68 101  78 100  89 101
M  END
> <chiral flag>
0

> <version>
0

> <s_m_source_file>
/data/baiqing/PycharmProjects/Reinvent-master-3.2/result/LINK_invent/BTK/process_docking_weight1_custom_sum_contain_oxygen_bond_distance_aromatic_linkinvent_7_9_3/rearranged_h_0022.sdf

> <i_m_source_file_index>
63

> <r_mmod_Potential_Energy-OPLS-2005>
-212.28352355957

> <r_mmod_Stretch_Energy-OPLS-2005>
33.5104942321777

> <r_mmod_Bend_Energy-OPLS-2005>
115.349792480469

> <r_mmod_Torsional_Energy-OPLS-2005>
177.860290527344

> <r_mmod_Improper_Torsional_Energy-OPLS-2005>
3.6925745010376

> <r_mmod_Van_der_Waal_Energy-OPLS-2005>
144.932174682617

> <r_mmod_Electrostatic_Energy-OPLS-2005>
-234.750930786133

> <r_mmod_Solvation_Energy-OPLS-2005>
-459.354736328125

> <b_mmod_Minimization_Converged-OPLS-2005>
0

> <r_mmod_RMS_Derivative-OPLS-2005>
2.38729214668274

$$$$
63
                    3D
 Structure written by MMmdl.
168176  0  0  1  0            999 V2000
  -30.5141  -14.8643   20.4525 C   0  0  0  0  0  0
  -30.4532  -12.5316   19.4870 C   0  0  0  0  0  0
  -29.5242  -12.5282   18.2496 C   0  0  0  0  0  0
  -28.0514  -12.3274   18.6611 C   0  0  0  0  0  0
  -27.6417  -13.2316   19.8526 C   0  0  2  0  0  0
  -28.6842  -13.1724   20.9889 C   0  0  0  0  0  0
  -25.2485  -13.8170   20.5650 C   0  0  0  0  0  0
  -24.1791  -13.0420   20.9212 C   0  0  0  0  0  0
  -24.6395  -11.6909   20.8765 C   0  0  0  0  0  0
  -23.9068  -10.4280   21.0417 C   0  0  0  0  0  0
  -24.3616   -9.4189   21.9187 C   0  0  0  0  0  0
  -23.6287   -8.2227   22.0751 C   0  0  0  0  0  0
  -22.4268   -8.0271   21.3538 C   0  0  0  0  0  0
  -21.9909   -9.0246   20.4636 C   0  0  0  0  0  0
  -22.7244  -10.2127   20.3054 C   0  0  0  0  0  0
  -21.6850   -6.0725   22.5278 C   0  0  0  0  0  0
  -21.4013   -6.5630   23.8211 C   0  0  0  0  0  0
  -21.3660   -5.6784   24.9172 C   0  0  0  0  0  0
  -21.6052   -4.3047   24.7226 C   0  0  0  0  0  0
  -21.8819   -3.8138   23.4344 C   0  0  0  0  0  0
  -21.9188   -4.6955   22.3400 C   0  0  0  0  0  0
  -22.7815  -13.5208   21.1873 C   0  0  0  0  0  0
  -22.1658   -4.2139   21.0976 F   0  0  0  0  0  0
  -21.5632   -3.4534   25.7740 F   0  0  0  0  0  0
  -29.9736  -13.5868   20.4158 N   0  0  0  0  0  0
  -26.2929  -12.9387   20.3266 N   0  0  0  0  0  0
  -25.9326  -11.6533   20.5745 N   0  0  0  0  0  0
  -22.0458  -12.8202   22.0435 N   0  0  0  0  0  0
  -25.4131  -15.1881   20.3986 N   0  0  0  0  0  0
  -31.6908  -15.0206   20.1054 O   0  0  0  0  0  0
  -21.6632   -6.8868   21.4238 O   0  0  0  0  0  0
  -22.3501  -14.5511   20.6717 O   0  0  0  0  0  0
  -24.6387  -31.8474   23.1894 C   0  0  0  0  0  0
  -25.9187  -32.4696   23.8273 C   0  0  1  0  0  0
  -27.2244  -27.1853   20.1633 C   0  0  0  0  0  0
  -25.5966  -33.8506   24.2203 N   0  0  0  0  0  0
  -23.4402  -30.4643   21.5340 C   0  0  2  0  0  0
  -24.8911  -28.8904   20.1156 C   0  0  0  0  0  0
  -22.7543  -29.4562   22.4885 C   0  0  0  0  0  0
  -18.0307  -28.1392   22.8436 C   0  0  0  0  0  0
  -24.1499  -36.7272   23.2637 C   0  0  0  0  0  0
  -25.9889  -30.7384   21.3781 C   0  0  0  0  0  0
  -26.0629  -29.3503   20.7289 C   0  0  0  0  0  0
  -27.2336  -28.5124   20.7323 C   0  0  0  0  0  0
  -26.0314  -26.8055   19.5176 C   0  0  0  0  0  0
  -24.8837  -27.6284   19.4965 C   0  0  0  0  0  0
  -23.6661  -29.7887   20.1547 C   0  0  0  0  0  0
  -25.4120  -36.3031   24.0325 C   0  0  1  0  0  0
  -20.5909  -28.3719   23.1248 C   0  0  2  0  0  0
  -20.6809  -26.9431   22.5409 C   0  0  0  0  0  0
  -19.5790  -26.6376   21.5211 C   0  0  0  0  0  0
  -18.1957  -26.7915   22.1602 C   0  0  0  0  0  0
  -19.1560  -28.8867   23.2824 C   0  0  0  0  0  0
  -18.9480  -30.1456   23.8854 C   0  0  0  0  0  0
  -17.6484  -30.6584   24.0553 C   0  0  0  0  0  0
  -25.9070  -34.9411   23.5063 C   0  0  0  0  0  0
  -16.5374  -29.9086   23.6327 C   0  0  0  0  0  0
  -16.7297  -28.6521   23.0310 C   0  0  0  0  0  0
  -26.4528  -31.6525   25.0682 C   0  0  0  0  0  0
  -25.3723  -31.3714   26.1375 C   0  0  0  0  0  0
  -27.0384  -30.2931   24.6201 C   0  0  0  0  0  0
  -27.6062  -32.4263   25.7472 C   0  0  0  0  0  0
  -27.5581  -37.1778   24.8454 C   0  0  0  0  0  0
  -21.4242  -29.3057   22.3630 N   0  0  0  0  0  0
  -26.4274  -37.3747   23.9418 N   0  0  0  0  0  0
  -24.7083  -31.0367   22.0907 N   0  0  0  0  0  0
  -23.4205  -28.8120   23.3023 O   0  0  0  0  0  0
  -28.3221  -26.2702   20.1492 O   0  0  0  0  0  0
  -26.5645  -34.8915   22.4630 O   0  0  0  0  0  0
  -23.5519  -32.1349   23.7143 O   0  0  0  0  0  0
  -30.3816  -18.3171   19.9064 C   0  0  0  0  0  0
  -30.2363  -19.7630   19.8646 C   0  0  0  0  0  0
  -29.2601  -20.5031   20.6349 C   0  0  0  0  0  0
  -28.4042  -19.6220   21.3949 C   0  0  0  0  0  0
  -28.5518  -18.1654   21.4131 C   0  0  0  0  0  0
  -29.5733  -17.4433   20.6938 C   0  0  0  0  0  0
  -27.5814  -17.3472   22.2711 C   0  0  0  0  0  0
  -30.5007  -20.9802   17.6547 C   0  0  0  0  0  0
  -25.9946  -20.4537   21.4262 C   0  0  0  0  0  0
  -27.2341  -24.7746   21.8748 C   0  0  0  0  0  0
  -31.1915  -20.5047   18.9390 C   0  0  0  0  0  0
  -27.2820  -20.2521   22.2338 C   0  0  0  0  0  0
  -29.2990  -22.1418   20.8545 C   0  0  0  0  0  0
  -28.5117  -23.3794   20.0698 C   0  0  0  0  0  0
  -28.3290  -24.8702   20.7963 C   0  0  1  0  0  0
  -29.6409  -15.9246   20.7550 N   0  0  0  0  0  0
  -31.4861  -12.7027   19.1804 H   0  0  0  0  0  0
  -30.4445  -11.5586   19.9803 H   0  0  0  0  0  0
  -29.8277  -11.7469   17.5516 H   0  0  0  0  0  0
  -29.6256  -13.4735   17.7136 H   0  0  0  0  0  0
  -27.9321  -11.2806   18.9418 H   0  0  0  0  0  0
  -27.3908  -12.4932   17.8092 H   0  0  0  0  0  0
  -27.6293  -14.2501   19.4646 H   0  0  0  0  0  0
  -28.7501  -12.1634   21.3988 H   0  0  0  0  0  0
  -28.3950  -13.8156   21.8203 H   0  0  0  0  0  0
  -25.2756   -9.5669   22.4762 H   0  0  0  0  0  0
  -23.9993   -7.4619   22.7481 H   0  0  0  0  0  0
  -21.0836   -8.8770   19.8942 H   0  0  0  0  0  0
  -22.3702  -10.9667   19.6162 H   0  0  0  0  0  0
  -21.2007   -7.6139   23.9711 H   0  0  0  0  0  0
  -21.1488   -6.0514   25.9075 H   0  0  0  0  0  0
  -22.0598   -2.7601   23.2850 H   0  0  0  0  0  0
  -22.4067  -11.9867   22.4829 H   0  0  0  0  0  0
  -21.1077  -13.1234   22.2640 H   0  0  0  0  0  0
  -24.6271  -15.8242   20.4693 H   0  0  0  0  0  0
  -26.2312  -15.6203   19.9901 H   0  0  0  0  0  0
  -26.7255  -32.5334   23.1019 H   0  0  0  0  0  0
  -25.0109  -33.9621   25.0342 H   0  0  0  0  0  0
  -22.7384  -31.2864   21.3780 H   0  0  0  0  0  0
  -23.3760  -35.9602   23.3252 H   0  0  0  0  0  0
  -24.3610  -36.8948   22.2062 H   0  0  0  0  0  0
  -23.7260  -37.6461   23.6700 H   0  0  0  0  0  0
  -26.1233  -31.4879   20.5970 H   0  0  0  0  0  0
  -26.8686  -30.8012   22.0078 H   0  0  0  0  0  0
  -28.1344  -28.8647   21.2133 H   0  0  0  0  0  0
  -25.9797  -25.8382   19.0374 H   0  0  0  0  0  0
  -23.9897  -27.2696   19.0057 H   0  0  0  0  0  0
  -23.8044  -30.5624   19.3988 H   0  0  0  0  0  0
  -22.7825  -29.2297   19.8397 H   0  0  0  0  0  0
  -25.1289  -36.1862   25.0817 H   0  0  0  0  0  0
  -20.9972  -28.3315   24.1383 H   0  0  0  0  0  0
  -20.5744  -26.2324   23.3626 H   0  0  0  0  0  0
  -21.6676  -26.7476   22.1185 H   0  0  0  0  0  0
  -19.6977  -25.6278   21.1264 H   0  0  0  0  0  0
  -19.6741  -27.3173   20.6721 H   0  0  0  0  0  0
  -17.4235  -26.6652   21.3994 H   0  0  0  0  0  0
  -18.0357  -26.0067   22.9011 H   0  0  0  0  0  0
  -19.7964  -30.7267   24.2221 H   0  0  0  0  0  0
  -17.5049  -31.6260   24.5162 H   0  0  0  0  0  0
  -15.5376  -30.2979   23.7672 H   0  0  0  0  0  0
  -15.8694  -28.0858   22.6998 H   0  0  0  0  0  0
  -24.5961  -30.6980   25.7720 H   0  0  0  0  0  0
  -24.8840  -32.2888   26.4667 H   0  0  0  0  0  0
  -25.8009  -30.9010   27.0236 H   0  0  0  0  0  0
  -26.2980  -29.6644   24.1238 H   0  0  0  0  0  0
  -27.4066  -29.7213   25.4730 H   0  0  0  0  0  0
  -27.8852  -30.4170   23.9448 H   0  0  0  0  0  0
  -27.2685  -33.3608   26.1968 H   0  0  0  0  0  0
  -28.3937  -32.6741   25.0340 H   0  0  0  0  0  0
  -28.0664  -31.8434   26.5463 H   0  0  0  0  0  0
  -28.2529  -38.0130   24.7529 H   0  0  0  0  0  0
  -28.1139  -36.2655   24.6221 H   0  0  0  0  0  0
  -27.2313  -37.1356   25.8857 H   0  0  0  0  0  0
  -20.9468  -29.8763   21.6792 H   0  0  0  0  0  0
  -26.0140  -38.2811   24.1441 H   0  0  0  0  0  0
  -31.1481  -17.8594   19.2966 H   0  0  0  0  0  0
  -26.5489  -17.6257   22.0645 H   0  0  0  0  0  0
  -27.7802  -17.5170   23.3296 H   0  0  0  0  0  0
  -27.6308  -16.2722   22.1184 H   0  0  0  0  0  0
  -31.2060  -21.4900   16.9974 H   0  0  0  0  0  0
  -29.6920  -21.6749   17.8715 H   0  0  0  0  0  0
  -30.0769  -20.1423   17.0999 H   0  0  0  0  0  0
  -25.1973  -20.8413   22.0603 H   0  0  0  0  0  0
  -25.6433  -19.5160   20.9940 H   0  0  0  0  0  0
  -26.1466  -21.1599   20.6106 H   0  0  0  0  0  0
  -27.3614  -23.8863   22.4943 H   0  0  0  0  0  0
  -26.2404  -24.7133   21.4297 H   0  0  0  0  0  0
  -27.2576  -25.6365   22.5423 H   0  0  0  0  0  0
  -32.0202  -19.8480   18.6688 H   0  0  0  0  0  0
  -31.6588  -21.3418   19.4538 H   0  0  0  0  0  0
  -27.5768  -21.2001   22.6723 H   0  0  0  0  0  0
  -27.0651  -19.6540   23.1160 H   0  0  0  0  0  0
  -30.3510  -22.4149   20.7980 H   0  0  0  0  0  0
  -29.1238  -22.3134   21.9120 H   0  0  0  0  0  0
  -27.5187  -23.0280   19.7930 H   0  0  0  0  0  0
  -29.0224  -23.5340   19.1211 H   0  0  0  0  0  0
  -29.2585  -24.9549   21.3601 H   0  0  0  0  0  0
  -28.7780  -15.5356   21.0991 H   0  0  0  0  0  0
  1 25  1  0  0  0
  1 30  2  0  0  0
  1 86  1  0  0  0
  2  3  1  0  0  0
  2 25  1  0  0  0
  2 87  1  0  0  0
  2 88  1  0  0  0
  3  4  1  0  0  0
  3 89  1  0  0  0
  3 90  1  0  0  0
  4  5  1  0  0  0
  4 91  1  0  0  0
  4 92  1  0  0  0
  5  6  1  0  0  0
  5 26  1  0  0  0
  5 93  1  0  0  0
  6 25  1  0  0  0
  6 94  1  0  0  0
  6 95  1  0  0  0
  7  8  2  0  0  0
  7 26  1  0  0  0
  7 29  1  0  0  0
  8  9  1  0  0  0
  8 22  1  0  0  0
  9 10  1  0  0  0
  9 27  2  0  0  0
 10 11  2  0  0  0
 10 15  1  0  0  0
 11 12  1  0  0  0
 11 96  1  0  0  0
 12 13  2  0  0  0
 12 97  1  0  0  0
 13 14  1  0  0  0
 13 31  1  0  0  0
 14 15  2  0  0  0
 14 98  1  0  0  0
 15 99  1  0  0  0
 16 17  2  0  0  0
 16 21  1  0  0  0
 16 31  1  0  0  0
 17 18  1  0  0  0
 17100  1  0  0  0
 18 19  2  0  0  0
 18101  1  0  0  0
 19 20  1  0  0  0
 19 24  1  0  0  0
 20 21  2  0  0  0
 20102  1  0  0  0
 21 23  1  0  0  0
 22 28  1  0  0  0
 22 32  2  0  0  0
 26 27  1  0  0  0
 28103  1  0  0  0
 28104  1  0  0  0
 29105  1  0  0  0
 29106  1  0  0  0
 33 34  1  0  0  0
 33 66  1  0  0  0
 33 70  2  0  0  0
 34 36  1  0  0  0
 34 59  1  0  0  0
 34107  1  0  0  0
 35 44  2  0  0  0
 35 45  1  0  0  0
 35 68  1  0  0  0
 36 56  1  0  0  0
 36108  1  0  0  0
 37 39  1  0  0  0
 37 47  1  0  0  0
 37 66  1  0  0  0
 37109  1  0  0  0
 38 43  2  0  0  0
 38 46  1  0  0  0
 38 47  1  0  0  0
 39 64  1  0  0  0
 39 67  2  0  0  0
 40 52  1  0  0  0
 40 53  2  0  0  0
 40 58  1  0  0  0
 41110  1  0  0  0
 41111  1  0  0  0
 41112  1  0  0  0
 41 48  1  0  0  0
 42 43  1  0  0  0
 42 66  1  0  0  0
 42113  1  0  0  0
 42114  1  0  0  0
 43 44  1  0  0  0
 44115  1  0  0  0
 45 46  2  0  0  0
 45116  1  0  0  0
 46117  1  0  0  0
 47118  1  0  0  0
 47119  1  0  0  0
 48 56  1  0  0  0
 48 65  1  0  0  0
 48120  1  0  0  0
 49 50  1  0  0  0
 49 53  1  0  0  0
 49 64  1  0  0  0
 49121  1  0  0  0
 50 51  1  0  0  0
 50122  1  0  0  0
 50123  1  0  0  0
 51 52  1  0  0  0
 51124  1  0  0  0
 51125  1  0  0  0
 52126  1  0  0  0
 52127  1  0  0  0
 53 54  1  0  0  0
 54 55  2  0  0  0
 54128  1  0  0  0
 55 57  1  0  0  0
 55129  1  0  0  0
 56 69  2  0  0  0
 57 58  2  0  0  0
 57130  1  0  0  0
 58131  1  0  0  0
 59 60  1  0  0  0
 59 61  1  0  0  0
 59 62  1  0  0  0
 60132  1  0  0  0
 60133  1  0  0  0
 60134  1  0  0  0
 61135  1  0  0  0
 61136  1  0  0  0
 61137  1  0  0  0
 62138  1  0  0  0
 62139  1  0  0  0
 62140  1  0  0  0
 63 65  1  0  0  0
 63141  1  0  0  0
 63142  1  0  0  0
 63143  1  0  0  0
 64144  1  0  0  0
 65145  1  0  0  0
 68 85  1  0  0  0
 71 72  2  0  0  0
 71 76  1  0  0  0
 71146  1  0  0  0
 72 73  1  0  0  0
 72 81  1  0  0  0
 73 74  2  0  0  0
 73 83  1  0  0  0
 74 75  1  0  0  0
 74 82  1  0  0  0
 75 76  2  0  0  0
 75 77  1  0  0  0
 76 86  1  0  0  0
 77147  1  0  0  0
 77148  1  0  0  0
 77149  1  0  0  0
 78 81  1  0  0  0
 78150  1  0  0  0
 78151  1  0  0  0
 78152  1  0  0  0
 79 82  1  0  0  0
 79153  1  0  0  0
 79154  1  0  0  0
 79155  1  0  0  0
 80156  1  0  0  0
 80157  1  0  0  0
 80158  1  0  0  0
 80 85  1  0  0  0
 81159  1  0  0  0
 81160  1  0  0  0
 82161  1  0  0  0
 82162  1  0  0  0
 83 84  1  0  0  0
 83163  1  0  0  0
 83164  1  0  0  0
 84 85  1  0  0  0
 84165  1  0  0  0
 84166  1  0  0  0
 85167  1  0  0  0
 86168  1  0  0  0
M  ISO  4   1 100  68 101  85 101  86 100
M  END
> <chiral flag>
0

> <version>
0

> <s_m_source_file>
/data/baiqing/PycharmProjects/Reinvent-master-3.2/result/LINK_invent/BTK/process_docking_weight1_custom_sum_contain_oxygen_bond_distance_aromatic_linkinvent_7_9_3/rearranged_h_0022.sdf

> <i_m_source_file_index>
64

> <r_mmod_Potential_Energy-OPLS-2005>
377.998107910156

> <r_mmod_Stretch_Energy-OPLS-2005>
205.296920776367

> <r_mmod_Bend_Energy-OPLS-2005>
264.365417480469

> <r_mmod_Torsional_Energy-OPLS-2005>
250.614471435547

> <r_mmod_Improper_Torsional_Energy-OPLS-2005>
5.4555983543396

> <r_mmod_Van_der_Waal_Energy-OPLS-2005>
133.409729003906

> <r_mmod_Electrostatic_Energy-OPLS-2005>
-425.270263671875

> <r_mmod_Solvation_Energy-OPLS-2005>
-195.13786315918

> <b_mmod_Minimization_Converged-OPLS-2005>
0

> <r_mmod_RMS_Derivative-OPLS-2005>
2.20648622512817

$$$$
64
                    3D
 Structure written by MMmdl.
153161  0  0  1  0            999 V2000
  -30.4812  -15.0238   20.3909 C   0  0  0  0  0  0
  -30.4419  -12.6296   19.5223 C   0  0  0  0  0  0
  -29.5337  -12.5369   18.2729 C   0  0  0  0  0  0
  -28.0650  -12.3171   18.6805 C   0  0  0  0  0  0
  -27.6274  -13.2509   19.8383 C   0  0  2  0  0  0
  -28.6633  -13.2958   20.9818 C   0  0  0  0  0  0
  -25.2464  -13.8220   20.5729 C   0  0  0  0  0  0
  -24.1770  -13.0456   20.9230 C   0  0  0  0  0  0
  -24.6364  -11.6934   20.8754 C   0  0  0  0  0  0
  -23.9036  -10.4301   21.0405 C   0  0  0  0  0  0
  -24.3593   -9.4226   21.9180 C   0  0  0  0  0  0
  -23.6267   -8.2260   22.0768 C   0  0  0  0  0  0
  -22.4256   -8.0292   21.3547 C   0  0  0  0  0  0
  -21.9889   -9.0256   20.4653 C   0  0  0  0  0  0
  -22.7209  -10.2137   20.3061 C   0  0  0  0  0  0
  -21.6866   -6.0723   22.5262 C   0  0  0  0  0  0
  -21.4015   -6.5616   23.8196 C   0  0  0  0  0  0
  -21.3665   -5.6777   24.9155 C   0  0  0  0  0  0
  -21.6057   -4.3039   24.7218 C   0  0  0  0  0  0
  -21.8810   -3.8132   23.4332 C   0  0  0  0  0  0
  -21.9189   -4.6946   22.3389 C   0  0  0  0  0  0
  -22.7796  -13.5260   21.1834 C   0  0  0  0  0  0
  -22.1662   -4.2136   21.0964 F   0  0  0  0  0  0
  -21.5633   -3.4520   25.7725 F   0  0  0  0  0  0
  -29.9338  -13.7339   20.3925 N   0  0  0  0  0  0
  -26.2871  -12.9434   20.3215 N   0  0  0  0  0  0
  -25.9301  -11.6568   20.5723 N   0  0  0  0  0  0
  -22.0406  -12.8315   22.0404 N   0  0  0  0  0  0
  -25.4169  -15.1951   20.4164 N   0  0  0  0  0  0
  -31.6716  -15.1035   20.0661 O   0  0  0  0  0  0
  -21.6641   -6.8876   21.4232 O   0  0  0  0  0  0
  -22.3481  -14.5526   20.6616 O   0  0  0  0  0  0
  -24.6515  -31.8440   23.1830 C   0  0  0  0  0  0
  -25.9256  -32.4693   23.8270 C   0  0  1  0  0  0
  -27.2201  -27.0775   20.1624 C   0  0  0  0  0  0
  -25.5997  -33.8499   24.2201 N   0  0  0  0  0  0
  -23.4613  -30.4633   21.5297 C   0  0  2  0  0  0
  -24.9126  -28.8764   20.1104 C   0  0  0  0  0  0
  -22.7635  -29.4689   22.4887 C   0  0  0  0  0  0
  -18.0121  -28.1535   22.8269 C   0  0  0  0  0  0
  -24.1485  -36.7245   23.2642 C   0  0  0  0  0  0
  -26.0205  -30.6949   21.3932 C   0  0  0  0  0  0
  -26.0908  -29.2990   20.7385 C   0  0  0  0  0  0
  -27.2429  -28.4168   20.7452 C   0  0  0  0  0  0
  -26.0166  -26.7734   19.4896 C   0  0  0  0  0  0
  -24.8943  -27.6318   19.4646 C   0  0  0  0  0  0
  -23.6911  -29.7837   20.1538 C   0  0  0  0  0  0
  -25.4133  -36.3036   24.0320 C   0  0  1  0  0  0
  -20.6000  -28.3798   23.1030 C   0  0  2  0  0  0
  -20.7770  -26.9748   22.4598 C   0  0  0  0  0  0
  -19.5456  -26.4178   21.7142 C   0  0  0  0  0  0
  -18.1069  -26.8601   22.0308 C   0  0  0  0  0  0
  -19.1521  -28.8781   23.2737 C   0  0  0  0  0  0
  -18.9527  -30.1305   23.8988 C   0  0  0  0  0  0
  -17.6588  -30.6560   24.0787 C   0  0  0  0  0  0
  -25.9085  -34.9395   23.5063 C   0  0  0  0  0  0
  -16.5387  -29.9208   23.6558 C   0  0  0  0  0  0
  -16.7198  -28.6715   23.0418 C   0  0  0  0  0  0
  -26.4541  -31.6563   25.0721 C   0  0  0  0  0  0
  -25.3709  -31.3765   26.1407 C   0  0  0  0  0  0
  -27.0417  -30.2964   24.6320 C   0  0  0  0  0  0
  -27.6080  -32.4314   25.7518 C   0  0  0  0  0  0
  -27.5580  -37.1817   24.8486 C   0  0  0  0  0  0
  -21.4280  -29.3497   22.3828 N   0  0  0  0  0  0
  -26.4310  -37.3743   23.9375 N   0  0  0  0  0  0
  -24.7327  -31.0249   22.0885 N   0  0  0  0  0  0
  -23.4285  -28.8057   23.2887 O   0  0  0  0  0  0
  -28.2551  -26.0539   20.2393 O   0  0  0  0  0  0
  -26.5640  -34.8897   22.4628 O   0  0  0  0  0  0
  -23.5609  -32.1325   23.7018 O   0  0  0  0  0  0
  -29.0384  -18.7050   20.9644 C   0  0  0  0  0  0
  -29.1388  -19.9859   20.2025 C   0  0  0  0  0  0
  -29.6714  -17.6032   20.3211 C   0  0  0  0  0  0
  -29.8005  -16.6817   17.2256 C   0  0  0  0  0  0
  -28.3582  -21.4795   20.2695 C   0  0  0  0  0  0
  -28.9242  -23.0978   20.3318 C   0  0  0  0  0  0
  -30.7422  -17.6431   17.9758 C   0  0  0  0  0  0
  -27.9546  -24.5048   20.0970 C   0  0  0  0  0  0
  -29.8182  -19.6001   19.1039 N   0  0  0  0  0  0
  -30.1169  -18.2342   19.1534 N   0  0  0  0  0  0
  -29.6676  -16.1812   20.6358 N   0  0  0  0  0  0
  -28.1489  -18.5548   22.4357 Cl  0  0  0  0  0  0
  -31.4749  -12.7955   19.2111 H   0  0  0  0  0  0
  -30.4471  -11.6846   20.0671 H   0  0  0  0  0  0
  -29.8676  -11.7281   17.6213 H   0  0  0  0  0  0
  -29.6150  -13.4520   17.6866 H   0  0  0  0  0  0
  -27.9601  -11.2761   18.9863 H   0  0  0  0  0  0
  -27.4112  -12.4511   17.8179 H   0  0  0  0  0  0
  -27.5841  -14.2506   19.4055 H   0  0  0  0  0  0
  -28.7664  -12.3212   21.4622 H   0  0  0  0  0  0
  -28.3394  -13.9847   21.7634 H   0  0  0  0  0  0
  -25.2725   -9.5723   22.4766 H   0  0  0  0  0  0
  -23.9976   -7.4664   22.7516 H   0  0  0  0  0  0
  -21.0812   -8.8761   19.8974 H   0  0  0  0  0  0
  -22.3641  -10.9669   19.6188 H   0  0  0  0  0  0
  -21.2015   -7.6131   23.9685 H   0  0  0  0  0  0
  -21.1505   -6.0513   25.9057 H   0  0  0  0  0  0
  -22.0593   -2.7599   23.2819 H   0  0  0  0  0  0
  -22.3969  -11.9982   22.4853 H   0  0  0  0  0  0
  -21.1019  -13.1422   22.2511 H   0  0  0  0  0  0
  -24.6460  -15.8474   20.5151 H   0  0  0  0  0  0
  -26.2610  -15.6307   20.0677 H   0  0  0  0  0  0
  -26.7362  -32.5265   23.1029 H   0  0  0  0  0  0
  -25.0186  -33.9610   25.0390 H   0  0  0  0  0  0
  -22.7708  -31.2909   21.3693 H   0  0  0  0  0  0
  -23.3737  -35.9596   23.3345 H   0  0  0  0  0  0
  -24.3546  -36.8822   22.2047 H   0  0  0  0  0  0
  -23.7258  -37.6469   23.6642 H   0  0  0  0  0  0
  -26.1819  -31.4436   20.6160 H   0  0  0  0  0  0
  -26.8877  -30.7533   22.0364 H   0  0  0  0  0  0
  -28.1378  -28.7249   21.2622 H   0  0  0  0  0  0
  -25.9085  -25.8207   18.9910 H   0  0  0  0  0  0
  -24.0016  -27.3027   18.9527 H   0  0  0  0  0  0
  -23.8310  -30.5528   19.3941 H   0  0  0  0  0  0
  -22.8072  -29.2245   19.8432 H   0  0  0  0  0  0
  -25.1320  -36.1898   25.0822 H   0  0  0  0  0  0
  -20.9925  -28.3133   24.1193 H   0  0  0  0  0  0
  -21.1644  -26.2925   23.2283 H   0  0  0  0  0  0
  -21.6101  -26.9860   21.7524 H   0  0  0  0  0  0
  -19.3852  -26.0232   22.7179 H   0  0  0  0  0  0
  -19.6040  -27.3435   21.1359 H   0  0  0  0  0  0
  -17.5777  -27.0264   21.0887 H   0  0  0  0  0  0
  -17.4968  -26.0942   22.5258 H   0  0  0  0  0  0
  -19.8056  -30.7013   24.2402 H   0  0  0  0  0  0
  -17.5263  -31.6205   24.5508 H   0  0  0  0  0  0
  -15.5426  -30.3179   23.7973 H   0  0  0  0  0  0
  -15.8523  -28.1217   22.7000 H   0  0  0  0  0  0
  -24.5911  -30.7092   25.7696 H   0  0  0  0  0  0
  -24.8868  -32.2950   26.4756 H   0  0  0  0  0  0
  -25.7965  -30.8985   27.0244 H   0  0  0  0  0  0
  -26.3053  -29.6685   24.1295 H   0  0  0  0  0  0
  -27.3992  -29.7260   25.4900 H   0  0  0  0  0  0
  -27.8963  -30.4173   23.9660 H   0  0  0  0  0  0
  -27.2715  -33.3654   26.2028 H   0  0  0  0  0  0
  -28.3939  -32.6822   25.0377 H   0  0  0  0  0  0
  -28.0701  -31.8479   26.5491 H   0  0  0  0  0  0
  -28.2653  -38.0057   24.7446 H   0  0  0  0  0  0
  -28.1010  -36.2587   24.6425 H   0  0  0  0  0  0
  -27.2267  -37.1595   25.8883 H   0  0  0  0  0  0
  -20.9454  -29.9449   21.7230 H   0  0  0  0  0  0
  -26.0178  -38.2820   24.1327 H   0  0  0  0  0  0
  -30.1537  -16.5097   16.2081 H   0  0  0  0  0  0
  -28.7849  -17.0699   17.1491 H   0  0  0  0  0  0
  -29.7498  -15.7123   17.7170 H   0  0  0  0  0  0
  -27.6455  -21.4062   21.0921 H   0  0  0  0  0  0
  -27.7011  -21.4836   19.4015 H   0  0  0  0  0  0
  -29.7392  -23.1631   19.6131 H   0  0  0  0  0  0
  -29.4130  -23.2102   21.2999 H   0  0  0  0  0  0
  -31.0301  -18.4515   17.3001 H   0  0  0  0  0  0
  -31.6623  -17.1370   18.2675 H   0  0  0  0  0  0
  -27.0832  -24.3434   20.7314 H   0  0  0  0  0  0
  -27.5815  -24.4050   19.0785 H   0  0  0  0  0  0
  -28.8115  -15.9147   21.0954 H   0  0  0  0  0  0
  1 25  1  0  0  0
  1 30  2  0  0  0
  1 81  1  0  0  0
  2  3  1  0  0  0
  2 25  1  0  0  0
  2 83  1  0  0  0
  2 84  1  0  0  0
  3  4  1  0  0  0
  3 85  1  0  0  0
  3 86  1  0  0  0
  4  5  1  0  0  0
  4 87  1  0  0  0
  4 88  1  0  0  0
  5  6  1  0  0  0
  5 26  1  0  0  0
  5 89  1  0  0  0
  6 25  1  0  0  0
  6 90  1  0  0  0
  6 91  1  0  0  0
  7  8  2  0  0  0
  7 26  1  0  0  0
  7 29  1  0  0  0
  8  9  1  0  0  0
  8 22  1  0  0  0
  9 10  1  0  0  0
  9 27  2  0  0  0
 10 11  2  0  0  0
 10 15  1  0  0  0
 11 12  1  0  0  0
 11 92  1  0  0  0
 12 13  2  0  0  0
 12 93  1  0  0  0
 13 14  1  0  0  0
 13 31  1  0  0  0
 14 15  2  0  0  0
 14 94  1  0  0  0
 15 95  1  0  0  0
 16 17  2  0  0  0
 16 21  1  0  0  0
 16 31  1  0  0  0
 17 18  1  0  0  0
 17 96  1  0  0  0
 18 19  2  0  0  0
 18 97  1  0  0  0
 19 20  1  0  0  0
 19 24  1  0  0  0
 20 21  2  0  0  0
 20 98  1  0  0  0
 21 23  1  0  0  0
 22 28  1  0  0  0
 22 32  2  0  0  0
 26 27  1  0  0  0
 28 99  1  0  0  0
 28100  1  0  0  0
 29101  1  0  0  0
 29102  1  0  0  0
 33 34  1  0  0  0
 33 66  1  0  0  0
 33 70  2  0  0  0
 34 36  1  0  0  0
 34 59  1  0  0  0
 34103  1  0  0  0
 35 44  2  0  0  0
 35 45  1  0  0  0
 35 68  1  0  0  0
 36 56  1  0  0  0
 36104  1  0  0  0
 37 39  1  0  0  0
 37 47  1  0  0  0
 37 66  1  0  0  0
 37105  1  0  0  0
 38 43  2  0  0  0
 38 46  1  0  0  0
 38 47  1  0  0  0
 39 64  1  0  0  0
 39 67  2  0  0  0
 40 52  1  0  0  0
 40 53  2  0  0  0
 40 58  1  0  0  0
 41106  1  0  0  0
 41107  1  0  0  0
 41108  1  0  0  0
 41 48  1  0  0  0
 42 43  1  0  0  0
 42 66  1  0  0  0
 42109  1  0  0  0
 42110  1  0  0  0
 43 44  1  0  0  0
 44111  1  0  0  0
 45 46  2  0  0  0
 45112  1  0  0  0
 46113  1  0  0  0
 47114  1  0  0  0
 47115  1  0  0  0
 48 56  1  0  0  0
 48 65  1  0  0  0
 48116  1  0  0  0
 49 50  1  0  0  0
 49 53  1  0  0  0
 49 64  1  0  0  0
 49117  1  0  0  0
 50 51  1  0  0  0
 50118  1  0  0  0
 50119  1  0  0  0
 51 52  1  0  0  0
 51120  1  0  0  0
 51121  1  0  0  0
 52122  1  0  0  0
 52123  1  0  0  0
 53 54  1  0  0  0
 54 55  2  0  0  0
 54124  1  0  0  0
 55 57  1  0  0  0
 55125  1  0  0  0
 56 69  2  0  0  0
 57 58  2  0  0  0
 57126  1  0  0  0
 58127  1  0  0  0
 59 60  1  0  0  0
 59 61  1  0  0  0
 59 62  1  0  0  0
 60128  1  0  0  0
 60129  1  0  0  0
 60130  1  0  0  0
 61131  1  0  0  0
 61132  1  0  0  0
 61133  1  0  0  0
 62134  1  0  0  0
 62135  1  0  0  0
 62136  1  0  0  0
 63 65  1  0  0  0
 63137  1  0  0  0
 63138  1  0  0  0
 63139  1  0  0  0
 64140  1  0  0  0
 65141  1  0  0  0
 68 78  1  0  0  0
 71 72  1  0  0  0
 71 73  2  0  0  0
 71 82  1  0  0  0
 72 75  1  0  0  0
 72 79  2  0  0  0
 73 80  1  0  0  0
 73 81  1  0  0  0
 74 77  1  0  0  0
 74142  1  0  0  0
 74143  1  0  0  0
 74144  1  0  0  0
 75 76  1  0  0  0
 75145  1  0  0  0
 75146  1  0  0  0
 76 78  1  0  0  0
 76147  1  0  0  0
 76148  1  0  0  0
 77 80  1  0  0  0
 77149  1  0  0  0
 77150  1  0  0  0
 78151  1  0  0  0
 78152  1  0  0  0
 79 80  1  0  0  0
 81153  1  0  0  0
M  ISO  4   1 100  68 101  78 101  81 100
M  END
> <chiral flag>
0

> <version>
0

> <s_m_source_file>
/data/baiqing/PycharmProjects/Reinvent-master-3.2/result/LINK_invent/BTK/process_docking_weight1_custom_sum_contain_oxygen_bond_distance_aromatic_linkinvent_7_9_3/rearranged_h_0022.sdf

> <i_m_source_file_index>
65

> <r_mmod_Potential_Energy-OPLS-2005>
853.962707519531

> <r_mmod_Stretch_Energy-OPLS-2005>
310.784393310547

> <r_mmod_Bend_Energy-OPLS-2005>
555.621032714844

> <r_mmod_Torsional_Energy-OPLS-2005>
240.435012817383

> <r_mmod_Improper_Torsional_Energy-OPLS-2005>
6.79579877853394

> <r_mmod_Van_der_Waal_Energy-OPLS-2005>
123.502433776855

> <r_mmod_Electrostatic_Energy-OPLS-2005>
-435.1083984375

> <r_mmod_Solvation_Energy-OPLS-2005>
-213.768630981445

> <b_mmod_Minimization_Converged-OPLS-2005>
0

> <r_mmod_RMS_Derivative-OPLS-2005>
4.20540237426758

$$$$
65
                    3D
 Structure written by MMmdl.
161169  0  0  1  0            999 V2000
  -30.7317  -14.4640   20.7167 C   0  0  0  0  0  0
  -30.4233  -12.3527   19.4508 C   0  0  0  0  0  0
  -29.5023  -12.5462   18.2334 C   0  0  0  0  0  0
  -28.0319  -12.3512   18.6413 C   0  0  0  0  0  0
  -27.6600  -13.2044   19.8823 C   0  0  2  0  0  0
  -28.6845  -13.0149   21.0228 C   0  0  0  0  0  0
  -25.2595  -13.8161   20.5651 C   0  0  0  0  0  0
  -24.1847  -13.0413   20.9134 C   0  0  0  0  0  0
  -24.6397  -11.6887   20.8725 C   0  0  0  0  0  0
  -23.9065  -10.4283   21.0406 C   0  0  0  0  0  0
  -24.3607   -9.4199   21.9184 C   0  0  0  0  0  0
  -23.6291   -8.2219   22.0734 C   0  0  0  0  0  0
  -22.4281   -8.0277   21.3519 C   0  0  0  0  0  0
  -21.9911   -9.0241   20.4615 C   0  0  0  0  0  0
  -22.7233  -10.2124   20.3046 C   0  0  0  0  0  0
  -21.6857   -6.0753   22.5284 C   0  0  0  0  0  0
  -21.4027   -6.5655   23.8222 C   0  0  0  0  0  0
  -21.3658   -5.6801   24.9175 C   0  0  0  0  0  0
  -21.6043   -4.3061   24.7219 C   0  0  0  0  0  0
  -21.8822   -3.8156   23.4343 C   0  0  0  0  0  0
  -21.9183   -4.6978   22.3404 C   0  0  0  0  0  0
  -22.7886  -13.5201   21.1811 C   0  0  0  0  0  0
  -22.1649   -4.2153   21.0985 F   0  0  0  0  0  0
  -21.5622   -3.4542   25.7737 F   0  0  0  0  0  0
  -30.0255  -13.3183   20.4945 N   0  0  0  0  0  0
  -26.3003  -12.9300   20.3340 N   0  0  0  0  0  0
  -25.9324  -11.6469   20.5754 N   0  0  0  0  0  0
  -22.0566  -12.8178   22.0392 N   0  0  0  0  0  0
  -25.4300  -15.1878   20.4153 N   0  0  0  0  0  0
  -31.7732  -14.7169   20.1071 O   0  0  0  0  0  0
  -21.6629   -6.8896   21.4249 O   0  0  0  0  0  0
  -22.3550  -14.5485   20.6672 O   0  0  0  0  0  0
  -24.6213  -31.8641   23.2086 C   0  0  0  0  0  0
  -25.9101  -32.4783   23.8391 C   0  0  1  0  0  0
  -27.2305  -27.3746   20.1227 C   0  0  0  0  0  0
  -25.6019  -33.8600   24.2342 N   0  0  0  0  0  0
  -23.4131  -30.4909   21.5480 C   0  0  2  0  0  0
  -24.8608  -28.9574   20.1035 C   0  0  0  0  0  0
  -22.7442  -29.4681   22.4935 C   0  0  0  0  0  0
  -18.0252  -28.1329   22.8522 C   0  0  0  0  0  0
  -24.1490  -36.7292   23.2625 C   0  0  0  0  0  0
  -25.9464  -30.8049   21.3821 C   0  0  0  0  0  0
  -26.0176  -29.4405   20.7234 C   0  0  0  0  0  0
  -27.2015  -28.6622   20.7216 C   0  0  0  0  0  0
  -26.0598  -26.9402   19.4541 C   0  0  0  0  0  0
  -24.8856  -27.7132   19.4528 C   0  0  0  0  0  0
  -23.6279  -29.8315   20.1576 C   0  0  0  0  0  0
  -25.4122  -36.3100   24.0332 C   0  0  1  0  0  0
  -20.5850  -28.3756   23.1246 C   0  0  2  0  0  0
  -20.6797  -26.9470   22.5431 C   0  0  0  0  0  0
  -19.5734  -26.6317   21.5321 C   0  0  0  0  0  0
  -18.1952  -26.7825   22.1768 C   0  0  0  0  0  0
  -19.1485  -28.8871   23.2840 C   0  0  0  0  0  0
  -18.9363  -30.1515   23.8768 C   0  0  0  0  0  0
  -17.6346  -30.6585   24.0427 C   0  0  0  0  0  0
  -25.9084  -34.9455   23.5121 C   0  0  0  0  0  0
  -16.5248  -29.9040   23.6196 C   0  0  0  0  0  0
  -16.7220  -28.6423   23.0326 C   0  0  0  0  0  0
  -26.4510  -31.6572   25.0720 C   0  0  0  0  0  0
  -25.3763  -31.3730   26.1461 C   0  0  0  0  0  0
  -27.0350  -30.2989   24.6166 C   0  0  0  0  0  0
  -27.6101  -32.4314   25.7458 C   0  0  0  0  0  0
  -27.5584  -37.1809   24.8462 C   0  0  0  0  0  0
  -21.4145  -29.3095   22.3662 N   0  0  0  0  0  0
  -26.4286  -37.3786   23.9421 N   0  0  0  0  0  0
  -24.6778  -31.0683   22.1033 N   0  0  0  0  0  0
  -23.4189  -28.8191   23.2982 O   0  0  0  0  0  0
  -28.3770  -26.5862   20.2140 O   0  0  0  0  0  0
  -26.5556  -34.8893   22.4628 O   0  0  0  0  0  0
  -23.5385  -32.1421   23.7420 O   0  0  0  0  0  0
  -29.1393  -18.1217   22.1448 C   0  0  0  0  0  0
  -30.5238  -17.8442   22.2127 C   0  0  0  0  0  0
  -31.4142  -18.9638   22.2788 C   0  0  0  0  0  0
  -29.5151  -20.5631   22.1496 C   0  0  0  0  0  0
  -28.6409  -19.4466   22.1396 C   0  0  0  0  0  0
  -30.9053  -20.2967   22.2423 C   0  0  0  0  0  0
  -32.9319  -18.8043   22.3820 C   0  0  0  0  0  0
  -28.1254  -22.1728   19.8484 C   0  0  0  0  0  0
  -31.0167  -16.3749   22.3393 C   0  0  0  0  0  0
  -29.0357  -24.2635   21.1338 C   0  0  0  0  0  0
  -28.2692  -25.1350   20.0698 C   0  0  0  0  0  0
  -29.1162  -22.6925   20.9019 C   0  0  1  0  0  0
  -28.9904  -21.8891   22.1387 N   0  0  0  0  0  0
  -30.2570  -15.2885   21.6816 N   0  0  0  0  0  0
  -26.9280  -19.6882   22.1569 Cl  0  0  0  0  0  0
  -31.9972  -21.6389   22.3743 Cl  0  0  0  0  0  0
  -31.4659  -12.4715   19.1500 H   0  0  0  0  0  0
  -30.3361  -11.3346   19.8371 H   0  0  0  0  0  0
  -29.7770  -11.8566   17.4331 H   0  0  0  0  0  0
  -29.6340  -13.5551   17.8381 H   0  0  0  0  0  0
  -27.8782  -11.2929   18.8570 H   0  0  0  0  0  0
  -27.3715  -12.5915   17.8072 H   0  0  0  0  0  0
  -27.7075  -14.2488   19.5710 H   0  0  0  0  0  0
  -28.6657  -11.9914   21.4000 H   0  0  0  0  0  0
  -28.4040  -13.6448   21.8674 H   0  0  0  0  0  0
  -25.2759   -9.5672   22.4727 H   0  0  0  0  0  0
  -24.0011   -7.4628   22.7472 H   0  0  0  0  0  0
  -21.0824   -8.8771   19.8947 H   0  0  0  0  0  0
  -22.3694  -10.9661   19.6152 H   0  0  0  0  0  0
  -21.2044   -7.6171   23.9717 H   0  0  0  0  0  0
  -21.1481   -6.0539   25.9070 H   0  0  0  0  0  0
  -22.0593   -2.7611   23.2843 H   0  0  0  0  0  0
  -22.4178  -11.9821   22.4780 H   0  0  0  0  0  0
  -21.1199  -13.1190   22.2626 H   0  0  0  0  0  0
  -24.6574  -15.8339   20.5377 H   0  0  0  0  0  0
  -26.2921  -15.6453   20.1447 H   0  0  0  0  0  0
  -26.7167  -32.5446   23.1154 H   0  0  0  0  0  0
  -25.0287  -33.9762   25.0570 H   0  0  0  0  0  0
  -22.7070  -31.3119   21.4121 H   0  0  0  0  0  0
  -23.3739  -35.9634   23.3291 H   0  0  0  0  0  0
  -24.3546  -36.8880   22.2025 H   0  0  0  0  0  0
  -23.7220  -37.6500   23.6607 H   0  0  0  0  0  0
  -26.0708  -31.5709   20.6154 H   0  0  0  0  0  0
  -26.8297  -30.8407   22.0096 H   0  0  0  0  0  0
  -28.0861  -29.0357   21.2160 H   0  0  0  0  0  0
  -26.0303  -26.0023   18.9196 H   0  0  0  0  0  0
  -24.0115  -27.3473   18.9326 H   0  0  0  0  0  0
  -23.7470  -30.6124   19.4063 H   0  0  0  0  0  0
  -22.7483  -29.2660   19.8490 H   0  0  0  0  0  0
  -25.1280  -36.1968   25.0812 H   0  0  0  0  0  0
  -20.9894  -28.3391   24.1388 H   0  0  0  0  0  0
  -20.5801  -26.2418   23.3677 H   0  0  0  0  0  0
  -21.6657  -26.7566   22.1181 H   0  0  0  0  0  0
  -19.6887  -25.6197   21.1464 H   0  0  0  0  0  0
  -19.6576  -27.3020   20.6782 H   0  0  0  0  0  0
  -17.4192  -26.6371   21.4225 H   0  0  0  0  0  0
  -18.0447  -26.0033   22.9254 H   0  0  0  0  0  0
  -19.7815  -30.7444   24.2002 H   0  0  0  0  0  0
  -17.4855  -31.6283   24.4980 H   0  0  0  0  0  0
  -15.5240  -30.2934   23.7449 H   0  0  0  0  0  0
  -15.8646  -28.0685   22.7052 H   0  0  0  0  0  0
  -24.5954  -30.7057   25.7798 H   0  0  0  0  0  0
  -24.8937  -32.2896   26.4845 H   0  0  0  0  0  0
  -25.8084  -30.8929   27.0247 H   0  0  0  0  0  0
  -26.2908  -29.6727   24.1219 H   0  0  0  0  0  0
  -27.4076  -29.7242   25.4659 H   0  0  0  0  0  0
  -27.8770  -30.4250   23.9360 H   0  0  0  0  0  0
  -27.2740  -33.3627   26.2014 H   0  0  0  0  0  0
  -28.3880  -32.6853   25.0257 H   0  0  0  0  0  0
  -28.0793  -31.8456   26.5355 H   0  0  0  0  0  0
  -28.2623  -38.0090   24.7508 H   0  0  0  0  0  0
  -28.1081  -36.2623   24.6334 H   0  0  0  0  0  0
  -27.2295  -37.1505   25.8861 H   0  0  0  0  0  0
  -20.9312  -29.8883   21.6918 H   0  0  0  0  0  0
  -26.0181  -38.2858   24.1441 H   0  0  0  0  0  0
  -28.4296  -17.3088   22.1404 H   0  0  0  0  0  0
  -33.3881  -19.1122   21.4398 H   0  0  0  0  0  0
  -33.2906  -17.8047   22.6039 H   0  0  0  0  0  0
  -33.3360  -19.4397   23.1732 H   0  0  0  0  0  0
  -28.3722  -22.5539   18.8585 H   0  0  0  0  0  0
  -27.0934  -22.4438   20.0730 H   0  0  0  0  0  0
  -28.1651  -21.0889   19.7623 H   0  0  0  0  0  0
  -31.0176  -16.1352   23.4061 H   0  0  0  0  0  0
  -32.0540  -16.2889   22.0271 H   0  0  0  0  0  0
  -28.5905  -24.4712   22.1077 H   0  0  0  0  0  0
  -30.0588  -24.6376   21.2033 H   0  0  0  0  0  0
  -27.2348  -24.8032   20.1330 H   0  0  0  0  0  0
  -28.6212  -24.8903   19.0656 H   0  0  0  0  0  0
  -30.1092  -22.4939   20.4954 H   0  0  0  0  0  0
  -28.0239  -21.8649   22.4526 H   0  0  0  0  0  0
  -29.4209  -14.9703   22.1511 H   0  0  0  0  0  0
  1 25  1  0  0  0
  1 30  2  0  0  0
  1 84  1  0  0  0
  2  3  1  0  0  0
  2 25  1  0  0  0
  2 87  1  0  0  0
  2 88  1  0  0  0
  3  4  1  0  0  0
  3 89  1  0  0  0
  3 90  1  0  0  0
  4  5  1  0  0  0
  4 91  1  0  0  0
  4 92  1  0  0  0
  5  6  1  0  0  0
  5 26  1  0  0  0
  5 93  1  0  0  0
  6 25  1  0  0  0
  6 94  1  0  0  0
  6 95  1  0  0  0
  7  8  2  0  0  0
  7 26  1  0  0  0
  7 29  1  0  0  0
  8  9  1  0  0  0
  8 22  1  0  0  0
  9 10  1  0  0  0
  9 27  2  0  0  0
 10 11  2  0  0  0
 10 15  1  0  0  0
 11 12  1  0  0  0
 11 96  1  0  0  0
 12 13  2  0  0  0
 12 97  1  0  0  0
 13 14  1  0  0  0
 13 31  1  0  0  0
 14 15  2  0  0  0
 14 98  1  0  0  0
 15 99  1  0  0  0
 16 17  2  0  0  0
 16 21  1  0  0  0
 16 31  1  0  0  0
 17 18  1  0  0  0
 17100  1  0  0  0
 18 19  2  0  0  0
 18101  1  0  0  0
 19 20  1  0  0  0
 19 24  1  0  0  0
 20 21  2  0  0  0
 20102  1  0  0  0
 21 23  1  0  0  0
 22 28  1  0  0  0
 22 32  2  0  0  0
 26 27  1  0  0  0
 28103  1  0  0  0
 28104  1  0  0  0
 29105  1  0  0  0
 29106  1  0  0  0
 33 34  1  0  0  0
 33 66  1  0  0  0
 33 70  2  0  0  0
 34 36  1  0  0  0
 34 59  1  0  0  0
 34107  1  0  0  0
 35 44  2  0  0  0
 35 45  1  0  0  0
 35 68  1  0  0  0
 36 56  1  0  0  0
 36108  1  0  0  0
 37 39  1  0  0  0
 37 47  1  0  0  0
 37 66  1  0  0  0
 37109  1  0  0  0
 38 43  2  0  0  0
 38 46  1  0  0  0
 38 47  1  0  0  0
 39 64  1  0  0  0
 39 67  2  0  0  0
 40 52  1  0  0  0
 40 53  2  0  0  0
 40 58  1  0  0  0
 41110  1  0  0  0
 41111  1  0  0  0
 41112  1  0  0  0
 41 48  1  0  0  0
 42 43  1  0  0  0
 42 66  1  0  0  0
 42113  1  0  0  0
 42114  1  0  0  0
 43 44  1  0  0  0
 44115  1  0  0  0
 45 46  2  0  0  0
 45116  1  0  0  0
 46117  1  0  0  0
 47118  1  0  0  0
 47119  1  0  0  0
 48 56  1  0  0  0
 48 65  1  0  0  0
 48120  1  0  0  0
 49 50  1  0  0  0
 49 53  1  0  0  0
 49 64  1  0  0  0
 49121  1  0  0  0
 50 51  1  0  0  0
 50122  1  0  0  0
 50123  1  0  0  0
 51 52  1  0  0  0
 51124  1  0  0  0
 51125  1  0  0  0
 52126  1  0  0  0
 52127  1  0  0  0
 53 54  1  0  0  0
 54 55  2  0  0  0
 54128  1  0  0  0
 55 57  1  0  0  0
 55129  1  0  0  0
 56 69  2  0  0  0
 57 58  2  0  0  0
 57130  1  0  0  0
 58131  1  0  0  0
 59 60  1  0  0  0
 59 61  1  0  0  0
 59 62  1  0  0  0
 60132  1  0  0  0
 60133  1  0  0  0
 60134  1  0  0  0
 61135  1  0  0  0
 61136  1  0  0  0
 61137  1  0  0  0
 62138  1  0  0  0
 62139  1  0  0  0
 62140  1  0  0  0
 63 65  1  0  0  0
 63141  1  0  0  0
 63142  1  0  0  0
 63143  1  0  0  0
 64144  1  0  0  0
 65145  1  0  0  0
 68 81  1  0  0  0
 71 72  2  0  0  0
 71 75  1  0  0  0
 71146  1  0  0  0
 72 73  1  0  0  0
 72 79  1  0  0  0
 73 76  2  0  0  0
 73 77  1  0  0  0
 74 75  2  0  0  0
 74 76  1  0  0  0
 74 83  1  0  0  0
 75 85  1  0  0  0
 76 86  1  0  0  0
 77147  1  0  0  0
 77148  1  0  0  0
 77149  1  0  0  0
 78150  1  0  0  0
 78151  1  0  0  0
 78152  1  0  0  0
 78 82  1  0  0  0
 79 84  1  0  0  0
 79153  1  0  0  0
 79154  1  0  0  0
 80 81  1  0  0  0
 80 82  1  0  0  0
 80155  1  0  0  0
 80156  1  0  0  0
 81157  1  0  0  0
 81158  1  0  0  0
 82 83  1  0  0  0
 82159  1  0  0  0
 83160  1  0  0  0
 84161  1  0  0  0
M  ISO  4   1 100  68 101  81 101  84 100
M  END
> <chiral flag>
0

> <version>
0

> <s_m_source_file>
/data/baiqing/PycharmProjects/Reinvent-master-3.2/result/LINK_invent/BTK/process_docking_weight1_custom_sum_contain_oxygen_bond_distance_aromatic_linkinvent_7_9_3/rearranged_h_0022.sdf

> <i_m_source_file_index>
66

> <r_mmod_Potential_Energy-OPLS-2005>
7.58595132827759

> <r_mmod_Stretch_Energy-OPLS-2005>
57.029670715332

> <r_mmod_Bend_Energy-OPLS-2005>
121.157920837402

> <r_mmod_Torsional_Energy-OPLS-2005>
221.458557128906

> <r_mmod_Improper_Torsional_Energy-OPLS-2005>
8.17232799530029

> <r_mmod_Van_der_Waal_Energy-OPLS-2005>
164.889068603516

> <r_mmod_Electrostatic_Energy-OPLS-2005>
-376.573394775391

> <r_mmod_Solvation_Energy-OPLS-2005>
-211.629516601562

> <b_mmod_Minimization_Converged-OPLS-2005>
0

> <r_mmod_RMS_Derivative-OPLS-2005>
6.2446460723877

$$$$
66
                    3D
 Structure written by MMmdl.
182190  0  0  1  0            999 V2000
  -30.7292  -14.4129   20.6258 C   0  0  0  0  0  0
  -30.4349  -12.3037   19.3794 C   0  0  0  0  0  0
  -29.4877  -12.5156   18.1818 C   0  0  0  0  0  0
  -28.0169  -12.3587   18.6049 C   0  0  0  0  0  0
  -27.6677  -13.1783   19.8702 C   0  0  2  0  0  0
  -28.7084  -12.8907   20.9731 C   0  0  0  0  0  0
  -25.2702  -13.8004   20.5579 C   0  0  0  0  0  0
  -24.1906  -13.0402   20.9095 C   0  0  0  0  0  0
  -24.6396  -11.6849   20.8760 C   0  0  0  0  0  0
  -23.9076  -10.4275   21.0485 C   0  0  0  0  0  0
  -24.3658   -9.4186   21.9259 C   0  0  0  0  0  0
  -23.6304   -8.2241   22.0802 C   0  0  0  0  0  0
  -22.4298   -8.0317   21.3575 C   0  0  0  0  0  0
  -21.9926   -9.0309   20.4704 C   0  0  0  0  0  0
  -22.7266  -10.2164   20.3117 C   0  0  0  0  0  0
  -21.6854   -6.0797   22.5253 C   0  0  0  0  0  0
  -21.3995   -6.5688   23.8195 C   0  0  0  0  0  0
  -21.3658   -5.6837   24.9154 C   0  0  0  0  0  0
  -21.6013   -4.3085   24.7197 C   0  0  0  0  0  0
  -21.8835   -3.8200   23.4304 C   0  0  0  0  0  0
  -21.9201   -4.7020   22.3375 C   0  0  0  0  0  0
  -22.7959  -13.5305   21.1718 C   0  0  0  0  0  0
  -22.1711   -4.2220   21.0958 F   0  0  0  0  0  0
  -21.5606   -3.4568   25.7695 F   0  0  0  0  0  0
  -30.0397  -13.2502   20.4415 N   0  0  0  0  0  0
  -26.3093  -12.9118   20.3308 N   0  0  0  0  0  0
  -25.9292  -11.6344   20.5763 N   0  0  0  0  0  0
  -22.0617  -12.8378   22.0281 N   0  0  0  0  0  0
  -25.4433  -15.1732   20.3935 N   0  0  0  0  0  0
  -31.7931  -14.6633   20.0498 O   0  0  0  0  0  0
  -21.6636   -6.8946   21.4234 O   0  0  0  0  0  0
  -22.3708  -14.5654   20.6532 O   0  0  0  0  0  0
  -24.6175  -31.8691   23.2052 C   0  0  0  0  0  0
  -25.9038  -32.4855   23.8399 C   0  0  1  0  0  0
  -27.2948  -27.5431   20.0013 C   0  0  0  0  0  0
  -25.5814  -33.8647   24.2281 N   0  0  0  0  0  0
  -23.3968  -30.4894   21.5542 C   0  0  2  0  0  0
  -24.8430  -28.9536   20.1038 C   0  0  0  0  0  0
  -22.7437  -29.4664   22.5079 C   0  0  0  0  0  0
  -18.0275  -28.1374   22.8410 C   0  0  0  0  0  0
  -24.1450  -36.7419   23.2633 C   0  0  0  0  0  0
  -25.9107  -30.8744   21.3242 C   0  0  0  0  0  0
  -26.0005  -29.5152   20.6606 C   0  0  0  0  0  0
  -27.2247  -28.8280   20.5810 C   0  0  0  0  0  0
  -26.1185  -26.9594   19.4810 C   0  0  0  0  0  0
  -24.8963  -27.6717   19.5110 C   0  0  0  0  0  0
  -23.5910  -29.8038   20.1737 C   0  0  0  0  0  0
  -25.4063  -36.3166   24.0314 C   0  0  1  0  0  0
  -20.5856  -28.3621   23.1277 C   0  0  2  0  0  0
  -20.6769  -26.9371   22.5333 C   0  0  0  0  0  0
  -19.5691  -26.6189   21.5211 C   0  0  0  0  0  0
  -18.1925  -26.7845   22.1708 C   0  0  0  0  0  0
  -19.1515  -28.8829   23.2816 C   0  0  0  0  0  0
  -18.9475  -30.1487   23.8748 C   0  0  0  0  0  0
  -17.6482  -30.6579   24.0471 C   0  0  0  0  0  0
  -25.9018  -34.9523   23.5132 C   0  0  0  0  0  0
  -16.5356  -29.9057   23.6280 C   0  0  0  0  0  0
  -16.7249  -28.6500   23.0226 C   0  0  0  0  0  0
  -26.4462  -31.6616   25.0733 C   0  0  0  0  0  0
  -25.3768  -31.3729   26.1534 C   0  0  0  0  0  0
  -27.0278  -30.3026   24.6101 C   0  0  0  0  0  0
  -27.6073  -32.4356   25.7415 C   0  0  0  0  0  0
  -27.5557  -37.1850   24.8425 C   0  0  0  0  0  0
  -21.4152  -29.3051   22.3801 N   0  0  0  0  0  0
  -26.4257  -37.3834   23.9407 N   0  0  0  0  0  0
  -24.6642  -31.0858   22.0916 N   0  0  0  0  0  0
  -23.4249  -28.8174   23.3024 O   0  0  0  0  0  0
  -28.5370  -26.9450   19.9997 O   0  0  0  0  0  0
  -26.5669  -34.8958   22.4749 O   0  0  0  0  0  0
  -23.5385  -32.1378   23.7512 O   0  0  0  0  0  0
  -27.4173  -25.7440   22.4123 C   0  0  0  0  0  0
  -28.2365  -23.2308   23.2320 C   0  0  0  0  0  0
  -26.7188  -25.1240   23.4519 C   0  0  0  0  0  0
  -28.3882  -25.0594   21.6439 C   0  0  0  0  0  0
  -27.0832  -23.8051   23.8105 C   0  0  0  0  0  0
  -28.9076  -23.8175   22.1312 C   0  0  0  0  0  0
  -25.5885  -25.8960   24.1121 C   0  0  0  0  0  0
  -30.2382  -21.7614   21.8047 C   0  0  0  0  0  0
  -31.2584  -23.9727   21.7068 C   0  0  0  0  0  0
  -26.2402  -22.9959   24.7952 C   0  0  0  0  0  0
  -28.7230  -25.5451   20.2249 C   0  0  0  0  0  0
  -25.1222  -22.1967   24.0835 C   0  0  0  0  0  0
  -25.6702  -20.9659   23.3485 C   0  0  0  0  0  0
  -25.3669  -20.9973   21.8449 C   0  0  0  0  0  0
  -25.8092  -19.7426   21.0734 C   0  0  0  0  0  0
  -27.3004  -19.3198   21.2468 C   0  0  0  0  0  0
  -27.4967  -17.8057   21.0903 C   0  0  0  0  0  0
  -28.9570  -17.3339   21.2970 C   0  0  0  0  0  0
  -29.0306  -15.8895   21.8060 C   0  0  0  0  0  0
  -30.3384  -15.2488   21.6005 N   0  0  0  0  0  0
  -30.0384  -23.1884   21.5386 N   0  0  0  0  0  0
  -31.4674  -12.4153   19.0449 H   0  0  0  0  0  0
  -30.3806  -11.2728   19.7371 H   0  0  0  0  0  0
  -29.7248  -11.7899   17.3992 H   0  0  0  0  0  0
  -29.6339  -13.5002   17.7397 H   0  0  0  0  0  0
  -27.8631  -11.2967   18.8016 H   0  0  0  0  0  0
  -27.3463  -12.6292   17.7870 H   0  0  0  0  0  0
  -27.7230  -14.2282   19.5817 H   0  0  0  0  0  0
  -28.6911  -11.8242   21.2008 H   0  0  0  0  0  0
  -28.4551  -13.3629   21.9177 H   0  0  0  0  0  0
  -25.2820   -9.5684   22.4838 H   0  0  0  0  0  0
  -24.0026   -7.4648   22.7482 H   0  0  0  0  0  0
  -21.0896   -8.8930   19.8972 H   0  0  0  0  0  0
  -22.3824  -10.9797   19.6278 H   0  0  0  0  0  0
  -21.1998   -7.6215   23.9716 H   0  0  0  0  0  0
  -21.1450   -6.0569   25.9070 H   0  0  0  0  0  0
  -22.0600   -2.7669   23.2761 H   0  0  0  0  0  0
  -22.4314  -12.0044   22.4629 H   0  0  0  0  0  0
  -21.1259  -13.1461   22.2520 H   0  0  0  0  0  0
  -24.6733  -15.8259   20.4841 H   0  0  0  0  0  0
  -26.2974  -15.5968   20.0567 H   0  0  0  0  0  0
  -26.7187  -32.5581   23.1271 H   0  0  0  0  0  0
  -24.9812  -33.9783   25.0323 H   0  0  0  0  0  0
  -22.6799  -31.3055   21.4178 H   0  0  0  0  0  0
  -23.3664  -35.9810   23.3330 H   0  0  0  0  0  0
  -24.3509  -36.9048   22.2037 H   0  0  0  0  0  0
  -23.7270  -37.6647   23.6675 H   0  0  0  0  0  0
  -25.9959  -31.6501   20.5598 H   0  0  0  0  0  0
  -26.8153  -30.9485   21.9195 H   0  0  0  0  0  0
  -28.1294  -29.2924   20.9554 H   0  0  0  0  0  0
  -26.1543  -25.9800   19.0266 H   0  0  0  0  0  0
  -24.0100  -27.2314   19.0747 H   0  0  0  0  0  0
  -23.6568  -30.5745   19.4112 H   0  0  0  0  0  0
  -22.7179  -29.2095   19.9034 H   0  0  0  0  0  0
  -25.1229  -36.2083   25.0804 H   0  0  0  0  0  0
  -20.9905  -28.3114   24.1411 H   0  0  0  0  0  0
  -20.5702  -26.2263   23.3551 H   0  0  0  0  0  0
  -21.6630  -26.7352   22.1152 H   0  0  0  0  0  0
  -19.6787  -25.5975   21.1498 H   0  0  0  0  0  0
  -19.6659  -27.2827   20.6610 H   0  0  0  0  0  0
  -17.4084  -26.6328   21.4280 H   0  0  0  0  0  0
  -18.0447  -26.0155   22.9289 H   0  0  0  0  0  0
  -19.7967  -30.7339   24.2002 H   0  0  0  0  0  0
  -17.5036  -31.6256   24.5115 H   0  0  0  0  0  0
  -15.5359  -30.2942   23.7688 H   0  0  0  0  0  0
  -15.8665  -28.0839   22.6844 H   0  0  0  0  0  0
  -24.5928  -30.7116   25.7849 H   0  0  0  0  0  0
  -24.8980  -32.2857   26.5084 H   0  0  0  0  0  0
  -25.8138  -30.8840   27.0265 H   0  0  0  0  0  0
  -26.2926  -29.6812   24.0959 H   0  0  0  0  0  0
  -27.3866  -29.7167   25.4584 H   0  0  0  0  0  0
  -27.8797  -30.4356   23.9425 H   0  0  0  0  0  0
  -27.2790  -33.3713   26.1957 H   0  0  0  0  0  0
  -28.3803  -32.6854   25.0138 H   0  0  0  0  0  0
  -28.0862  -31.8555   26.5322 H   0  0  0  0  0  0
  -28.2590  -38.0128   24.7468 H   0  0  0  0  0  0
  -28.1041  -36.2674   24.6270 H   0  0  0  0  0  0
  -27.2273  -37.1534   25.8818 H   0  0  0  0  0  0
  -20.9283  -29.9110   21.7374 H   0  0  0  0  0  0
  -26.0189  -38.2929   24.1429 H   0  0  0  0  0  0
  -27.0825  -26.7442   22.1986 H   0  0  0  0  0  0
  -28.5765  -22.2826   23.6245 H   0  0  0  0  0  0
  -25.5721  -26.9454   23.7909 H   0  0  0  0  0  0
  -25.7204  -25.8820   25.1938 H   0  0  0  0  0  0
  -24.6192  -25.4770   23.8401 H   0  0  0  0  0  0
  -30.9502  -21.3032   21.1079 H   0  0  0  0  0  0
  -29.3022  -21.2052   21.7710 H   0  0  0  0  0  0
  -30.6433  -21.6284   22.8106 H   0  0  0  0  0  0
  -31.0965  -25.0490   21.6710 H   0  0  0  0  0  0
  -31.9887  -23.7210   20.9342 H   0  0  0  0  0  0
  -31.6939  -23.7599   22.6851 H   0  0  0  0  0  0
  -25.8052  -23.6321   25.5565 H   0  0  0  0  0  0
  -26.8775  -22.3116   25.3590 H   0  0  0  0  0  0
  -28.1665  -24.9191   19.5227 H   0  0  0  0  0  0
  -29.7710  -25.3617   19.9791 H   0  0  0  0  0  0
  -24.5400  -22.8252   23.4056 H   0  0  0  0  0  0
  -24.4152  -21.8528   24.8404 H   0  0  0  0  0  0
  -25.2917  -20.0597   23.8211 H   0  0  0  0  0  0
  -26.7441  -20.9635   23.4695 H   0  0  0  0  0  0
  -25.8085  -21.8835   21.3888 H   0  0  0  0  0  0
  -24.2903  -21.1105   21.7206 H   0  0  0  0  0  0
  -25.6031  -19.9289   20.0193 H   0  0  0  0  0  0
  -25.1137  -18.9379   21.3324 H   0  0  0  0  0  0
  -27.6699  -19.5445   22.2481 H   0  0  0  0  0  0
  -27.9589  -19.8684   20.5637 H   0  0  0  0  0  0
  -26.8330  -17.3176   21.8060 H   0  0  0  0  0  0
  -27.1522  -17.4689   20.1123 H   0  0  0  0  0  0
  -29.4994  -17.4376   20.3552 H   0  0  0  0  0  0
  -29.4693  -17.9665   22.0259 H   0  0  0  0  0  0
  -28.2249  -15.3616   21.3232 H   0  0  0  0  0  0
  -28.7873  -15.8894   22.8677 H   0  0  0  0  0  0
  -31.1097  -15.8702   21.7948 H   0  0  0  0  0  0
  1 25  1  0  0  0
  1 30  2  0  0  0
  1 90  1  0  0  0
  2  3  1  0  0  0
  2 25  1  0  0  0
  2 92  1  0  0  0
  2 93  1  0  0  0
  3  4  1  0  0  0
  3 94  1  0  0  0
  3 95  1  0  0  0
  4  5  1  0  0  0
  4 96  1  0  0  0
  4 97  1  0  0  0
  5  6  1  0  0  0
  5 26  1  0  0  0
  5 98  1  0  0  0
  6 25  1  0  0  0
  6 99  1  0  0  0
  6100  1  0  0  0
  7  8  2  0  0  0
  7 26  1  0  0  0
  7 29  1  0  0  0
  8  9  1  0  0  0
  8 22  1  0  0  0
  9 10  1  0  0  0
  9 27  2  0  0  0
 10 11  2  0  0  0
 10 15  1  0  0  0
 11 12  1  0  0  0
 11101  1  0  0  0
 12 13  2  0  0  0
 12102  1  0  0  0
 13 14  1  0  0  0
 13 31  1  0  0  0
 14 15  2  0  0  0
 14103  1  0  0  0
 15104  1  0  0  0
 16 17  2  0  0  0
 16 21  1  0  0  0
 16 31  1  0  0  0
 17 18  1  0  0  0
 17105  1  0  0  0
 18 19  2  0  0  0
 18106  1  0  0  0
 19 20  1  0  0  0
 19 24  1  0  0  0
 20 21  2  0  0  0
 20107  1  0  0  0
 21 23  1  0  0  0
 22 28  1  0  0  0
 22 32  2  0  0  0
 26 27  1  0  0  0
 28108  1  0  0  0
 28109  1  0  0  0
 29110  1  0  0  0
 29111  1  0  0  0
 33 34  1  0  0  0
 33 66  1  0  0  0
 33 70  2  0  0  0
 34 36  1  0  0  0
 34 59  1  0  0  0
 34112  1  0  0  0
 35 44  2  0  0  0
 35 45  1  0  0  0
 35 68  1  0  0  0
 36 56  1  0  0  0
 36113  1  0  0  0
 37 39  1  0  0  0
 37 47  1  0  0  0
 37 66  1  0  0  0
 37114  1  0  0  0
 38 43  2  0  0  0
 38 46  1  0  0  0
 38 47  1  0  0  0
 39 64  1  0  0  0
 39 67  2  0  0  0
 40 52  1  0  0  0
 40 53  2  0  0  0
 40 58  1  0  0  0
 41115  1  0  0  0
 41116  1  0  0  0
 41117  1  0  0  0
 41 48  1  0  0  0
 42 43  1  0  0  0
 42 66  1  0  0  0
 42118  1  0  0  0
 42119  1  0  0  0
 43 44  1  0  0  0
 44120  1  0  0  0
 45 46  2  0  0  0
 45121  1  0  0  0
 46122  1  0  0  0
 47123  1  0  0  0
 47124  1  0  0  0
 48 56  1  0  0  0
 48 65  1  0  0  0
 48125  1  0  0  0
 49 50  1  0  0  0
 49 53  1  0  0  0
 49 64  1  0  0  0
 49126  1  0  0  0
 50 51  1  0  0  0
 50127  1  0  0  0
 50128  1  0  0  0
 51 52  1  0  0  0
 51129  1  0  0  0
 51130  1  0  0  0
 52131  1  0  0  0
 52132  1  0  0  0
 53 54  1  0  0  0
 54 55  2  0  0  0
 54133  1  0  0  0
 55 57  1  0  0  0
 55134  1  0  0  0
 56 69  2  0  0  0
 57 58  2  0  0  0
 57135  1  0  0  0
 58136  1  0  0  0
 59 60  1  0  0  0
 59 61  1  0  0  0
 59 62  1  0  0  0
 60137  1  0  0  0
 60138  1  0  0  0
 60139  1  0  0  0
 61140  1  0  0  0
 61141  1  0  0  0
 61142  1  0  0  0
 62143  1  0  0  0
 62144  1  0  0  0
 62145  1  0  0  0
 63 65  1  0  0  0
 63146  1  0  0  0
 63147  1  0  0  0
 63148  1  0  0  0
 64149  1  0  0  0
 65150  1  0  0  0
 68 81  1  0  0  0
 71 73  2  0  0  0
 71 74  1  0  0  0
 71151  1  0  0  0
 72 75  2  0  0  0
 72 76  1  0  0  0
 72152  1  0  0  0
 73 75  1  0  0  0
 73 77  1  0  0  0
 74 76  2  0  0  0
 74 81  1  0  0  0
 75 80  1  0  0  0
 76 91  1  0  0  0
 77153  1  0  0  0
 77154  1  0  0  0
 77155  1  0  0  0
 78 91  1  0  0  0
 78156  1  0  0  0
 78157  1  0  0  0
 78158  1  0  0  0
 79 91  1  0  0  0
 79159  1  0  0  0
 79160  1  0  0  0
 79161  1  0  0  0
 80 82  1  0  0  0
 80162  1  0  0  0
 80163  1  0  0  0
 81164  1  0  0  0
 81165  1  0  0  0
 82 83  1  0  0  0
 82166  1  0  0  0
 82167  1  0  0  0
 83 84  1  0  0  0
 83168  1  0  0  0
 83169  1  0  0  0
 84 85  1  0  0  0
 84170  1  0  0  0
 84171  1  0  0  0
 85 86  1  0  0  0
 85172  1  0  0  0
 85173  1  0  0  0
 86 87  1  0  0  0
 86174  1  0  0  0
 86175  1  0  0  0
 87 88  1  0  0  0
 87176  1  0  0  0
 87177  1  0  0  0
 88 89  1  0  0  0
 88178  1  0  0  0
 88179  1  0  0  0
 89 90  1  0  0  0
 89180  1  0  0  0
 89181  1  0  0  0
 90182  1  0  0  0
M  ISO  4   1 100  68 101  81 101  90 100
M  END
> <chiral flag>
0

> <version>
0

> <s_m_source_file>
/data/baiqing/PycharmProjects/Reinvent-master-3.2/result/LINK_invent/BTK/process_docking_weight1_custom_sum_contain_oxygen_bond_distance_aromatic_linkinvent_7_9_3/rearranged_h_0022.sdf

> <i_m_source_file_index>
67

> <r_mmod_Potential_Energy-OPLS-2005>
137.441787719727

> <r_mmod_Stretch_Energy-OPLS-2005>
42.2857704162598

> <r_mmod_Bend_Energy-OPLS-2005>
151.453704833984

> <r_mmod_Torsional_Energy-OPLS-2005>
307.409271240234

> <r_mmod_Improper_Torsional_Energy-OPLS-2005>
12.5923681259155

> <r_mmod_Van_der_Waal_Energy-OPLS-2005>
162.467102050781

> <r_mmod_Electrostatic_Energy-OPLS-2005>
-354.371551513672

> <r_mmod_Solvation_Energy-OPLS-2005>
-203.301483154297

> <b_mmod_Minimization_Converged-OPLS-2005>
0

> <r_mmod_RMS_Derivative-OPLS-2005>
12.4053220748901

$$$$
67
                    3D
 Structure written by MMmdl.
159167  0  0  1  0            999 V2000
  -30.7055  -14.4310   20.6137 C   0  0  0  0  0  0
  -30.4290  -12.2971   19.4039 C   0  0  0  0  0  0
  -29.4918  -12.5153   18.1976 C   0  0  0  0  0  0
  -28.0121  -12.3794   18.6112 C   0  0  0  0  0  0
  -27.6674  -13.2003   19.8824 C   0  0  2  0  0  0
  -28.7085  -12.9344   20.9926 C   0  0  0  0  0  0
  -25.2608  -13.8145   20.5656 C   0  0  0  0  0  0
  -24.1848  -13.0436   20.9156 C   0  0  0  0  0  0
  -24.6392  -11.6900   20.8728 C   0  0  0  0  0  0
  -23.9055  -10.4290   21.0402 C   0  0  0  0  0  0
  -24.3608   -9.4209   21.9183 C   0  0  0  0  0  0
  -23.6286   -8.2246   22.0754 C   0  0  0  0  0  0
  -22.4272   -8.0278   21.3544 C   0  0  0  0  0  0
  -21.9902   -9.0251   20.4649 C   0  0  0  0  0  0
  -22.7227  -10.2133   20.3054 C   0  0  0  0  0  0
  -21.6849   -6.0734   22.5276 C   0  0  0  0  0  0
  -21.4013   -6.5640   23.8210 C   0  0  0  0  0  0
  -21.3660   -5.6793   24.9172 C   0  0  0  0  0  0
  -21.6041   -4.3053   24.7223 C   0  0  0  0  0  0
  -21.8821   -3.8146   23.4345 C   0  0  0  0  0  0
  -21.9195   -4.6962   22.3401 C   0  0  0  0  0  0
  -22.7875  -13.5244   21.1829 C   0  0  0  0  0  0
  -22.1662   -4.2148   21.0978 F   0  0  0  0  0  0
  -21.5631   -3.4537   25.7738 F   0  0  0  0  0  0
  -30.0456  -13.2523   20.4537 N   0  0  0  0  0  0
  -26.3053  -12.9306   20.3398 N   0  0  0  0  0  0
  -25.9318  -11.6468   20.5774 N   0  0  0  0  0  0
  -22.0514  -12.8237   22.0387 N   0  0  0  0  0  0
  -25.4333  -15.1851   20.4028 N   0  0  0  0  0  0
  -31.7942  -14.6663   20.0810 O   0  0  0  0  0  0
  -21.6638   -6.8876   21.4237 O   0  0  0  0  0  0
  -22.3557  -14.5552   20.6685 O   0  0  0  0  0  0
  -24.6122  -31.8686   23.2106 C   0  0  0  0  0  0
  -25.9011  -32.4833   23.8402 C   0  0  1  0  0  0
  -27.2388  -27.4565   20.0952 C   0  0  0  0  0  0
  -25.5871  -33.8630   24.2337 N   0  0  0  0  0  0
  -23.4007  -30.4907   21.5499 C   0  0  2  0  0  0
  -24.8487  -28.9536   20.1199 C   0  0  0  0  0  0
  -22.7402  -29.4655   22.4993 C   0  0  0  0  0  0
  -18.0268  -28.1375   22.8505 C   0  0  0  0  0  0
  -24.1482  -36.7314   23.2639 C   0  0  0  0  0  0
  -25.9262  -30.8409   21.3602 C   0  0  0  0  0  0
  -26.0060  -29.4733   20.7146 C   0  0  0  0  0  0
  -27.2067  -28.7304   20.7018 C   0  0  0  0  0  0
  -26.0690  -26.9396   19.5038 C   0  0  0  0  0  0
  -24.8723  -27.6835   19.5145 C   0  0  0  0  0  0
  -23.6098  -29.8194   20.1658 C   0  0  0  0  0  0
  -25.4104  -36.3121   24.0346 C   0  0  1  0  0  0
  -20.5860  -28.3652   23.1329 C   0  0  2  0  0  0
  -20.6759  -26.9386   22.5424 C   0  0  0  0  0  0
  -19.5739  -26.6385   21.5216 C   0  0  0  0  0  0
  -18.1917  -26.7928   22.1627 C   0  0  0  0  0  0
  -19.1520  -28.8830   23.2916 C   0  0  0  0  0  0
  -18.9452  -30.1441   23.8918 C   0  0  0  0  0  0
  -17.6456  -30.6589   24.0569 C   0  0  0  0  0  0
  -25.9021  -34.9481   23.5140 C   0  0  0  0  0  0
  -16.5344  -29.9096   23.6327 C   0  0  0  0  0  0
  -16.7258  -28.6509   23.0350 C   0  0  0  0  0  0
  -26.4448  -31.6609   25.0722 C   0  0  0  0  0  0
  -25.3722  -31.3714   26.1480 C   0  0  0  0  0  0
  -27.0278  -30.3065   24.6068 C   0  0  0  0  0  0
  -27.6036  -32.4314   25.7475 C   0  0  0  0  0  0
  -27.5582  -37.1811   24.8468 C   0  0  0  0  0  0
  -21.4129  -29.3027   22.3740 N   0  0  0  0  0  0
  -26.4295  -37.3802   23.9415 N   0  0  0  0  0  0
  -24.6644  -31.0809   22.0994 N   0  0  0  0  0  0
  -23.4185  -28.8187   23.3019 O   0  0  0  0  0  0
  -28.4041  -26.7339   20.0330 O   0  0  0  0  0  0
  -26.5591  -34.8932   22.4709 O   0  0  0  0  0  0
  -23.5315  -32.1414   23.7521 O   0  0  0  0  0  0
  -31.1671  -17.5229   20.8455 C   0  0  0  0  0  0
  -29.0975  -18.8374   22.2498 C   0  0  0  0  0  0
  -30.1708  -19.6000   21.7069 C   0  0  0  0  0  0
  -30.1315  -16.7541   21.4249 C   0  0  0  0  0  0
  -31.1904  -18.9253   20.9866 C   0  0  0  0  0  0
  -29.0975  -17.4232   22.1192 C   0  0  0  0  0  0
  -27.9584  -19.5113   23.0132 C   0  0  0  0  0  0
  -30.2868  -21.1091   21.9775 C   0  0  0  0  0  0
  -28.8476  -24.3552   20.4481 C   0  0  0  0  0  0
  -29.3505  -23.3527   21.5131 C   0  0  0  0  0  0
  -28.5623  -25.7481   21.0533 C   0  0  0  0  0  0
  -30.0449  -15.3285   21.3629 N   0  0  0  0  0  0
  -29.5735  -21.9734   21.0045 N   0  3  0  0  0  0
  -32.5067  -19.7907   20.2736 Cl  0  0  0  0  0  0
  -27.8329  -16.4756   22.8360 Cl  0  0  0  0  0  0
  -31.4708  -12.4097   19.0985 H   0  0  0  0  0  0
  -30.3398  -11.2768   19.7791 H   0  0  0  0  0  0
  -29.7245  -11.7997   17.4077 H   0  0  0  0  0  0
  -29.6631  -13.5054   17.7726 H   0  0  0  0  0  0
  -27.8124  -11.3220   18.7879 H   0  0  0  0  0  0
  -27.3632  -12.6761   17.7860 H   0  0  0  0  0  0
  -27.7252  -14.2551   19.6122 H   0  0  0  0  0  0
  -28.6806  -11.8837   21.2859 H   0  0  0  0  0  0
  -28.4603  -13.4850   21.9005 H   0  0  0  0  0  0
  -25.2753   -9.5687   22.4754 H   0  0  0  0  0  0
  -23.9996   -7.4637   22.7470 H   0  0  0  0  0  0
  -21.0834   -8.8765   19.8952 H   0  0  0  0  0  0
  -22.3682  -10.9670   19.6161 H   0  0  0  0  0  0
  -21.2000   -7.6147   23.9710 H   0  0  0  0  0  0
  -21.1481   -6.0525   25.9076 H   0  0  0  0  0  0
  -22.0600   -2.7608   23.2844 H   0  0  0  0  0  0
  -22.4123  -11.9895   22.4771 H   0  0  0  0  0  0
  -21.1132  -13.1269   22.2589 H   0  0  0  0  0  0
  -24.6788  -15.8480   20.5402 H   0  0  0  0  0  0
  -26.3047  -15.6258   20.1385 H   0  0  0  0  0  0
  -26.7084  -32.5553   23.1169 H   0  0  0  0  0  0
  -25.0028  -33.9798   25.0489 H   0  0  0  0  0  0
  -22.6887  -31.3066   21.4096 H   0  0  0  0  0  0
  -23.3745  -35.9645   23.3314 H   0  0  0  0  0  0
  -24.3578  -36.8912   22.2050 H   0  0  0  0  0  0
  -23.7236  -37.6527   23.6638 H   0  0  0  0  0  0
  -26.0324  -31.6045   20.5884 H   0  0  0  0  0  0
  -26.8165  -30.9001   21.9739 H   0  0  0  0  0  0
  -28.1056  -29.1322   21.1487 H   0  0  0  0  0  0
  -26.0892  -25.9687   19.0279 H   0  0  0  0  0  0
  -23.9822  -27.2791   19.0522 H   0  0  0  0  0  0
  -23.7167  -30.5922   19.4037 H   0  0  0  0  0  0
  -22.7357  -29.2358   19.8716 H   0  0  0  0  0  0
  -25.1282  -36.1983   25.0839 H   0  0  0  0  0  0
  -20.9952  -28.3200   24.1447 H   0  0  0  0  0  0
  -20.5652  -26.2252   23.3605 H   0  0  0  0  0  0
  -21.6631  -26.7427   22.1213 H   0  0  0  0  0  0
  -19.6894  -25.6299   21.1228 H   0  0  0  0  0  0
  -19.6683  -27.3217   20.6762 H   0  0  0  0  0  0
  -17.4187  -26.6681   21.4022 H   0  0  0  0  0  0
  -18.0310  -26.0071   22.9021 H   0  0  0  0  0  0
  -19.7928  -30.7255   24.2291 H   0  0  0  0  0  0
  -17.5014  -31.6271   24.5167 H   0  0  0  0  0  0
  -15.5346  -30.3008   23.7644 H   0  0  0  0  0  0
  -15.8656  -28.0843   22.7047 H   0  0  0  0  0  0
  -24.5882  -30.7074   25.7821 H   0  0  0  0  0  0
  -24.8923  -32.2871   26.4941 H   0  0  0  0  0  0
  -25.8075  -30.8872   27.0230 H   0  0  0  0  0  0
  -26.2818  -29.6837   24.1117 H   0  0  0  0  0  0
  -27.4073  -29.7284   25.4502 H   0  0  0  0  0  0
  -27.8632  -30.4416   23.9198 H   0  0  0  0  0  0
  -27.2674  -33.3605   26.2086 H   0  0  0  0  0  0
  -28.3823  -32.6884   25.0281 H   0  0  0  0  0  0
  -28.0725  -31.8414   26.5358 H   0  0  0  0  0  0
  -28.2606  -38.0100   24.7517 H   0  0  0  0  0  0
  -28.1069  -36.2638   24.6287 H   0  0  0  0  0  0
  -27.2303  -37.1455   25.8871 H   0  0  0  0  0  0
  -20.9275  -29.8764   21.6982 H   0  0  0  0  0  0
  -26.0184  -38.2879   24.1422 H   0  0  0  0  0  0
  -31.9747  -17.0599   20.3002 H   0  0  0  0  0  0
  -28.1736  -19.5188   24.0821 H   0  0  0  0  0  0
  -27.0111  -18.9944   22.8625 H   0  0  0  0  0  0
  -27.7808  -20.5360   22.6940 H   0  0  0  0  0  0
  -31.3336  -21.4109   22.0191 H   0  0  0  0  0  0
  -29.9188  -21.3091   22.9841 H   0  0  0  0  0  0
  -27.9444  -23.9807   19.9657 H   0  0  0  0  0  0
  -29.6007  -24.4532   19.6651 H   0  0  0  0  0  0
  -28.6383  -23.3099   22.3386 H   0  0  0  0  0  0
  -30.2860  -23.7300   21.9299 H   0  0  0  0  0  0
  -29.4032  -26.0610   21.6727 H   0  0  0  0  0  0
  -27.6968  -25.6961   21.7181 H   0  0  0  0  0  0
  -29.2222  -14.9528   21.8119 H   0  0  0  0  0  0
  -28.6843  -21.5567   20.7818 H   0  0  0  0  0  0
  -30.1150  -22.0100   20.1563 H   0  0  0  0  0  0
  1 25  1  0  0  0
  1 30  2  0  0  0
  1 82  1  0  0  0
  2  3  1  0  0  0
  2 25  1  0  0  0
  2 86  1  0  0  0
  2 87  1  0  0  0
  3  4  1  0  0  0
  3 88  1  0  0  0
  3 89  1  0  0  0
  4  5  1  0  0  0
  4 90  1  0  0  0
  4 91  1  0  0  0
  5  6  1  0  0  0
  5 26  1  0  0  0
  5 92  1  0  0  0
  6 25  1  0  0  0
  6 93  1  0  0  0
  6 94  1  0  0  0
  7  8  2  0  0  0
  7 26  1  0  0  0
  7 29  1  0  0  0
  8  9  1  0  0  0
  8 22  1  0  0  0
  9 10  1  0  0  0
  9 27  2  0  0  0
 10 11  2  0  0  0
 10 15  1  0  0  0
 11 12  1  0  0  0
 11 95  1  0  0  0
 12 13  2  0  0  0
 12 96  1  0  0  0
 13 14  1  0  0  0
 13 31  1  0  0  0
 14 15  2  0  0  0
 14 97  1  0  0  0
 15 98  1  0  0  0
 16 17  2  0  0  0
 16 21  1  0  0  0
 16 31  1  0  0  0
 17 18  1  0  0  0
 17 99  1  0  0  0
 18 19  2  0  0  0
 18100  1  0  0  0
 19 20  1  0  0  0
 19 24  1  0  0  0
 20 21  2  0  0  0
 20101  1  0  0  0
 21 23  1  0  0  0
 22 28  1  0  0  0
 22 32  2  0  0  0
 26 27  1  0  0  0
 28102  1  0  0  0
 28103  1  0  0  0
 29104  1  0  0  0
 29105  1  0  0  0
 33 34  1  0  0  0
 33 66  1  0  0  0
 33 70  2  0  0  0
 34 36  1  0  0  0
 34 59  1  0  0  0
 34106  1  0  0  0
 35 44  2  0  0  0
 35 45  1  0  0  0
 35 68  1  0  0  0
 36 56  1  0  0  0
 36107  1  0  0  0
 37 39  1  0  0  0
 37 47  1  0  0  0
 37 66  1  0  0  0
 37108  1  0  0  0
 38 43  2  0  0  0
 38 46  1  0  0  0
 38 47  1  0  0  0
 39 64  1  0  0  0
 39 67  2  0  0  0
 40 52  1  0  0  0
 40 53  2  0  0  0
 40 58  1  0  0  0
 41109  1  0  0  0
 41110  1  0  0  0
 41111  1  0  0  0
 41 48  1  0  0  0
 42 43  1  0  0  0
 42 66  1  0  0  0
 42112  1  0  0  0
 42113  1  0  0  0
 43 44  1  0  0  0
 44114  1  0  0  0
 45 46  2  0  0  0
 45115  1  0  0  0
 46116  1  0  0  0
 47117  1  0  0  0
 47118  1  0  0  0
 48 56  1  0  0  0
 48 65  1  0  0  0
 48119  1  0  0  0
 49 50  1  0  0  0
 49 53  1  0  0  0
 49 64  1  0  0  0
 49120  1  0  0  0
 50 51  1  0  0  0
 50121  1  0  0  0
 50122  1  0  0  0
 51 52  1  0  0  0
 51123  1  0  0  0
 51124  1  0  0  0
 52125  1  0  0  0
 52126  1  0  0  0
 53 54  1  0  0  0
 54 55  2  0  0  0
 54127  1  0  0  0
 55 57  1  0  0  0
 55128  1  0  0  0
 56 69  2  0  0  0
 57 58  2  0  0  0
 57129  1  0  0  0
 58130  1  0  0  0
 59 60  1  0  0  0
 59 61  1  0  0  0
 59 62  1  0  0  0
 60131  1  0  0  0
 60132  1  0  0  0
 60133  1  0  0  0
 61134  1  0  0  0
 61135  1  0  0  0
 61136  1  0  0  0
 62137  1  0  0  0
 62138  1  0  0  0
 62139  1  0  0  0
 63 65  1  0  0  0
 63140  1  0  0  0
 63141  1  0  0  0
 63142  1  0  0  0
 64143  1  0  0  0
 65144  1  0  0  0
 68 81  1  0  0  0
 71 74  2  0  0  0
 71 75  1  0  0  0
 71145  1  0  0  0
 72 73  1  0  0  0
 72 76  2  0  0  0
 72 77  1  0  0  0
 73 75  2  0  0  0
 73 78  1  0  0  0
 74 76  1  0  0  0
 74 82  1  0  0  0
 75 84  1  0  0  0
 76 85  1  0  0  0
 77146  1  0  0  0
 77147  1  0  0  0
 77148  1  0  0  0
 78 83  1  0  0  0
 78149  1  0  0  0
 78150  1  0  0  0
 79 80  1  0  0  0
 79 81  1  0  0  0
 79151  1  0  0  0
 79152  1  0  0  0
 80 83  1  0  0  0
 80153  1  0  0  0
 80154  1  0  0  0
 81155  1  0  0  0
 81156  1  0  0  0
 82157  1  0  0  0
 83158  1  0  0  0
 83159  1  0  0  0
M  CHG  1  83   1
M  ISO  4   1 100  68 101  81 101  82 100
M  END
> <chiral flag>
0

> <version>
0

> <s_m_source_file>
/data/baiqing/PycharmProjects/Reinvent-master-3.2/result/LINK_invent/BTK/process_docking_weight1_custom_sum_contain_oxygen_bond_distance_aromatic_linkinvent_7_9_3/rearranged_h_0022.sdf

> <i_m_source_file_index>
68

> <r_mmod_Potential_Energy-OPLS-2005>
-272.373596191406

> <r_mmod_Stretch_Energy-OPLS-2005>
37.0193786621094

> <r_mmod_Bend_Energy-OPLS-2005>
98.6776123046875

> <r_mmod_Torsional_Energy-OPLS-2005>
226.415420532227

> <r_mmod_Improper_Torsional_Energy-OPLS-2005>
2.816570520401

> <r_mmod_Van_der_Waal_Energy-OPLS-2005>
155.486343383789

> <r_mmod_Electrostatic_Energy-OPLS-2005>
-324.558074951172

> <r_mmod_Solvation_Energy-OPLS-2005>
-476.187713623047

> <b_mmod_Minimization_Converged-OPLS-2005>
0

> <r_mmod_RMS_Derivative-OPLS-2005>
1.04553914070129

$$$$
68
                    3D
 Structure written by MMmdl.
191199  0  0  1  0            999 V2000
  -30.8482  -14.2633   20.7792 C   0  0  0  0  0  0
  -30.4063  -12.2914   19.3734 C   0  0  0  0  0  0
  -29.4695  -12.5424   18.1821 C   0  0  0  0  0  0
  -28.0021  -12.3814   18.6099 C   0  0  0  0  0  0
  -27.6641  -13.2072   19.8765 C   0  0  2  0  0  0
  -28.7021  -12.9697   20.9956 C   0  0  0  0  0  0
  -25.2594  -13.8173   20.5676 C   0  0  0  0  0  0
  -24.1839  -13.0446   20.9171 C   0  0  0  0  0  0
  -24.6385  -11.6912   20.8721 C   0  0  0  0  0  0
  -23.9055  -10.4296   21.0401 C   0  0  0  0  0  0
  -24.3612   -9.4216   21.9180 C   0  0  0  0  0  0
  -23.6289   -8.2250   22.0754 C   0  0  0  0  0  0
  -22.4269   -8.0285   21.3545 C   0  0  0  0  0  0
  -21.9907   -9.0252   20.4644 C   0  0  0  0  0  0
  -22.7234  -10.2135   20.3048 C   0  0  0  0  0  0
  -21.6853   -6.0740   22.5276 C   0  0  0  0  0  0
  -21.4014   -6.5635   23.8215 C   0  0  0  0  0  0
  -21.3662   -5.6797   24.9172 C   0  0  0  0  0  0
  -21.6039   -4.3053   24.7228 C   0  0  0  0  0  0
  -21.8821   -3.8147   23.4344 C   0  0  0  0  0  0
  -21.9191   -4.6965   22.3404 C   0  0  0  0  0  0
  -22.7859  -13.5246   21.1846 C   0  0  0  0  0  0
  -22.1662   -4.2146   21.0976 F   0  0  0  0  0  0
  -21.5631   -3.4535   25.7739 F   0  0  0  0  0  0
  -30.0539  -13.2134   20.4608 N   0  0  0  0  0  0
  -26.3036  -12.9345   20.3387 N   0  0  0  0  0  0
  -25.9312  -11.6499   20.5760 N   0  0  0  0  0  0
  -22.0491  -12.8223   22.0386 N   0  0  0  0  0  0
  -25.4305  -15.1895   20.4089 N   0  0  0  0  0  0
  -31.7561  -14.6811   20.0541 O   0  0  0  0  0  0
  -21.6636   -6.8875   21.4238 O   0  0  0  0  0  0
  -22.3541  -14.5556   20.6706 O   0  0  0  0  0  0
  -24.6128  -31.8683   23.2100 C   0  0  0  0  0  0
  -25.9015  -32.4835   23.8415 C   0  0  1  0  0  0
  -27.2418  -27.4406   20.0856 C   0  0  0  0  0  0
  -25.5883  -33.8633   24.2355 N   0  0  0  0  0  0
  -23.4008  -30.4925   21.5495 C   0  0  2  0  0  0
  -24.8482  -28.9608   20.1132 C   0  0  0  0  0  0
  -22.7398  -29.4644   22.4955 C   0  0  0  0  0  0
  -18.0277  -28.1342   22.8471 C   0  0  0  0  0  0
  -24.1475  -36.7334   23.2635 C   0  0  0  0  0  0
  -25.9259  -30.8415   21.3507 C   0  0  0  0  0  0
  -26.0079  -29.4703   20.7101 C   0  0  0  0  0  0
  -27.2049  -28.7179   20.6923 C   0  0  0  0  0  0
  -26.0620  -26.9543   19.4722 C   0  0  0  0  0  0
  -24.8712  -27.7037   19.4896 C   0  0  0  0  0  0
  -23.6100  -29.8278   20.1629 C   0  0  0  0  0  0
  -25.4091  -36.3128   24.0349 C   0  0  1  0  0  0
  -20.5866  -28.3631   23.1306 C   0  0  2  0  0  0
  -20.6777  -26.9357   22.5402 C   0  0  0  0  0  0
  -19.5767  -26.6351   21.5186 C   0  0  0  0  0  0
  -18.1942  -26.7896   22.1584 C   0  0  0  0  0  0
  -19.1520  -28.8795   23.2903 C   0  0  0  0  0  0
  -18.9450  -30.1403   23.8923 C   0  0  0  0  0  0
  -17.6460  -30.6560   24.0548 C   0  0  0  0  0  0
  -25.8989  -34.9486   23.5142 C   0  0  0  0  0  0
  -16.5351  -29.9058   23.6299 C   0  0  0  0  0  0
  -16.7265  -28.6471   23.0321 C   0  0  0  0  0  0
  -26.4481  -31.6585   25.0700 C   0  0  0  0  0  0
  -25.3788  -31.3637   26.1476 C   0  0  0  0  0  0
  -27.0286  -30.3073   24.5937 C   0  0  0  0  0  0
  -27.6068  -32.4296   25.7460 C   0  0  0  0  0  0
  -27.5573  -37.1828   24.8462 C   0  0  0  0  0  0
  -21.4111  -29.3022   22.3731 N   0  0  0  0  0  0
  -26.4295  -37.3799   23.9403 N   0  0  0  0  0  0
  -24.6668  -31.0799   22.0978 N   0  0  0  0  0  0
  -23.4187  -28.8136   23.2942 O   0  0  0  0  0  0
  -28.4371  -26.7480   20.0647 O   0  0  0  0  0  0
  -26.5531  -34.8926   22.4692 O   0  0  0  0  0  0
  -23.5321  -32.1414   23.7518 O   0  0  0  0  0  0
  -29.9478  -21.5660   21.3947 C   0  0  0  0  0  0
  -29.7664  -21.9565   22.7352 C   0  0  0  0  0  0
  -31.8084  -23.3021   22.6058 C   0  0  0  0  0  0
  -31.0316  -22.0629   20.6395 C   0  0  0  0  0  0
  -30.6963  -22.8314   23.3354 C   0  0  0  0  0  0
  -31.9785  -22.9154   21.2565 C   0  0  0  0  0  0
  -32.8209  -24.2168   23.2771 C   0  0  0  0  0  0
  -32.9007  -20.4063   18.0077 C   0  0  0  0  0  0
  -30.8052  -19.2537   18.8413 C   0  0  0  0  0  0
  -31.4096  -23.2972   17.3801 C   0  0  0  0  0  0
  -28.5851  -21.4095   23.5212 C   0  0  0  0  0  0
  -28.7488  -19.9223   23.8891 C   0  0  0  0  0  0
  -30.0029  -19.6277   24.7341 C   0  0  0  0  0  0
  -30.2408  -18.1355   25.0220 C   0  0  0  0  0  0
  -30.5573  -17.3117   23.7595 C   0  0  0  0  0  0
  -31.2907  -15.9995   24.0764 C   0  0  0  0  0  0
  -29.5573  -24.7173   19.2595 C   0  0  0  0  0  0
  -29.2448  -23.2946   18.7251 C   0  0  0  0  0  0
  -31.8157  -15.2877   22.8191 C   0  0  0  0  0  0
  -28.4174  -25.3128   20.1088 C   0  0  0  0  0  0
  -31.8172  -20.3814   19.0931 C   0  0  0  0  0  0
  -30.4558  -22.4438   18.2367 C   0  0  2  0  0  0
  -30.7510  -14.6316   22.0635 N   0  0  0  0  0  0
  -31.1618  -21.6840   19.2914 N   0  0  0  0  0  0
  -30.5306  -23.2051   24.6277 F   0  0  0  0  0  0
  -33.3436  -23.4933   20.3571 Cl  0  0  0  0  0  0
  -31.4467  -12.3972   19.0617 H   0  0  0  0  0  0
  -30.3063  -11.2632   19.7268 H   0  0  0  0  0  0
  -29.7007  -11.8517   17.3698 H   0  0  0  0  0  0
  -29.6328  -13.5484   17.7883 H   0  0  0  0  0  0
  -27.8205  -11.3229   18.7962 H   0  0  0  0  0  0
  -27.3394  -12.6632   17.7907 H   0  0  0  0  0  0
  -27.7186  -14.2596   19.5967 H   0  0  0  0  0  0
  -28.6432  -11.9435   21.3619 H   0  0  0  0  0  0
  -28.4574  -13.6067   21.8465 H   0  0  0  0  0  0
  -25.2753   -9.5696   22.4759 H   0  0  0  0  0  0
  -23.9998   -7.4643   22.7473 H   0  0  0  0  0  0
  -21.0841   -8.8767   19.8949 H   0  0  0  0  0  0
  -22.3689  -10.9669   19.6155 H   0  0  0  0  0  0
  -21.2007   -7.6144   23.9717 H   0  0  0  0  0  0
  -21.1483   -6.0518   25.9077 H   0  0  0  0  0  0
  -22.0598   -2.7604   23.2844 H   0  0  0  0  0  0
  -22.4091  -11.9861   22.4753 H   0  0  0  0  0  0
  -21.1108  -13.1248   22.2598 H   0  0  0  0  0  0
  -24.6694  -15.8491   20.5242 H   0  0  0  0  0  0
  -26.2943  -15.6262   20.1113 H   0  0  0  0  0  0
  -26.7065  -32.5600   23.1167 H   0  0  0  0  0  0
  -25.0210  -33.9835   25.0616 H   0  0  0  0  0  0
  -22.6890  -31.3091   21.4086 H   0  0  0  0  0  0
  -23.3740  -35.9660   23.3299 H   0  0  0  0  0  0
  -24.3574  -36.8949   22.2044 H   0  0  0  0  0  0
  -23.7232  -37.6545   23.6647 H   0  0  0  0  0  0
  -26.0033  -31.5927   20.5648 H   0  0  0  0  0  0
  -26.8278  -30.9292   21.9444 H   0  0  0  0  0  0
  -28.1060  -29.1137   21.1406 H   0  0  0  0  0  0
  -26.0439  -26.0185   18.9352 H   0  0  0  0  0  0
  -23.9868  -27.3138   19.0027 H   0  0  0  0  0  0
  -23.7182  -30.6075   19.4073 H   0  0  0  0  0  0
  -22.7370  -29.2469   19.8614 H   0  0  0  0  0  0
  -25.1253  -36.2013   25.0846 H   0  0  0  0  0  0
  -20.9974  -28.3191   24.1416 H   0  0  0  0  0  0
  -20.5645  -26.2222   23.3584 H   0  0  0  0  0  0
  -21.6660  -26.7373   22.1214 H   0  0  0  0  0  0
  -19.6925  -25.6257   21.1223 H   0  0  0  0  0  0
  -19.6745  -27.3158   20.6726 H   0  0  0  0  0  0
  -17.4215  -26.6644   21.3980 H   0  0  0  0  0  0
  -18.0335  -26.0010   22.8947 H   0  0  0  0  0  0
  -19.7922  -30.7209   24.2312 H   0  0  0  0  0  0
  -17.5003  -31.6244   24.5136 H   0  0  0  0  0  0
  -15.5346  -30.2975   23.7603 H   0  0  0  0  0  0
  -15.8664  -28.0823   22.6994 H   0  0  0  0  0  0
  -24.6042  -30.6864   25.7874 H   0  0  0  0  0  0
  -24.8875  -32.2733   26.4918 H   0  0  0  0  0  0
  -25.8210  -30.8894   27.0243 H   0  0  0  0  0  0
  -26.2748  -29.6867   24.1071 H   0  0  0  0  0  0
  -27.4231  -29.7270   25.4289 H   0  0  0  0  0  0
  -27.8507  -30.4471   23.8913 H   0  0  0  0  0  0
  -27.2716  -33.3648   26.1967 H   0  0  0  0  0  0
  -28.3911  -32.6764   25.0280 H   0  0  0  0  0  0
  -28.0660  -31.8429   26.5425 H   0  0  0  0  0  0
  -28.2572  -38.0136   24.7516 H   0  0  0  0  0  0
  -28.1078  -36.2670   24.6270 H   0  0  0  0  0  0
  -27.2299  -37.1475   25.8867 H   0  0  0  0  0  0
  -20.9215  -29.8846   21.7080 H   0  0  0  0  0  0
  -26.0189  -38.2879   24.1423 H   0  0  0  0  0  0
  -29.2325  -20.8974   20.9397 H   0  0  0  0  0  0
  -32.6920  -24.2469   24.3578 H   0  0  0  0  0  0
  -32.7209  -25.2320   22.8949 H   0  0  0  0  0  0
  -33.8366  -23.8737   23.0809 H   0  0  0  0  0  0
  -33.4845  -19.4854   18.0310 H   0  0  0  0  0  0
  -33.5956  -21.2336   18.1530 H   0  0  0  0  0  0
  -32.4724  -20.4871   17.0088 H   0  0  0  0  0  0
  -31.3129  -18.2891   18.7960 H   0  0  0  0  0  0
  -30.2763  -19.3855   17.8978 H   0  0  0  0  0  0
  -30.0639  -19.1822   19.6369 H   0  0  0  0  0  0
  -30.8576  -23.8009   16.5862 H   0  0  0  0  0  0
  -32.1851  -22.7134   16.8904 H   0  0  0  0  0  0
  -31.9044  -24.0703   17.9682 H   0  0  0  0  0  0
  -27.6817  -21.5405   22.9239 H   0  0  0  0  0  0
  -28.4254  -22.0033   24.4217 H   0  0  0  0  0  0
  -28.7765  -19.3369   22.9717 H   0  0  0  0  0  0
  -27.8622  -19.5894   24.4300 H   0  0  0  0  0  0
  -29.9225  -20.1624   25.6814 H   0  0  0  0  0  0
  -30.8911  -20.0303   24.2458 H   0  0  0  0  0  0
  -29.3896  -17.7072   25.5518 H   0  0  0  0  0  0
  -31.0834  -18.0675   25.7128 H   0  0  0  0  0  0
  -31.1828  -17.9049   23.0916 H   0  0  0  0  0  0
  -29.6398  -17.1009   23.2091 H   0  0  0  0  0  0
  -30.6527  -15.3327   24.6588 H   0  0  0  0  0  0
  -32.1484  -16.2200   24.7149 H   0  0  0  0  0  0
  -29.7528  -25.3693   18.4064 H   0  0  0  0  0  0
  -30.4713  -24.7212   19.8515 H   0  0  0  0  0  0
  -28.5701  -23.4205   17.8772 H   0  0  0  0  0  0
  -28.6495  -22.7353   19.4454 H   0  0  0  0  0  0
  -32.5296  -14.5172   23.1168 H   0  0  0  0  0  0
  -32.3706  -15.9904   22.1946 H   0  0  0  0  0  0
  -28.5554  -25.0010   21.1454 H   0  0  0  0  0  0
  -27.4773  -24.8663   19.8014 H   0  0  0  0  0  0
  -32.3355  -20.1321   20.0219 H   0  0  0  0  0  0
  -30.0371  -21.6881   17.5696 H   0  0  0  0  0  0
  -30.0110  -14.1970   22.5942 H   0  0  0  0  0  0
  1 25  1  0  0  0
  1 30  2  0  0  0
  1 93  1  0  0  0
  2  3  1  0  0  0
  2 25  1  0  0  0
  2 97  1  0  0  0
  2 98  1  0  0  0
  3  4  1  0  0  0
  3 99  1  0  0  0
  3100  1  0  0  0
  4  5  1  0  0  0
  4101  1  0  0  0
  4102  1  0  0  0
  5  6  1  0  0  0
  5 26  1  0  0  0
  5103  1  0  0  0
  6 25  1  0  0  0
  6104  1  0  0  0
  6105  1  0  0  0
  7  8  2  0  0  0
  7 26  1  0  0  0
  7 29  1  0  0  0
  8  9  1  0  0  0
  8 22  1  0  0  0
  9 10  1  0  0  0
  9 27  2  0  0  0
 10 11  2  0  0  0
 10 15  1  0  0  0
 11 12  1  0  0  0
 11106  1  0  0  0
 12 13  2  0  0  0
 12107  1  0  0  0
 13 14  1  0  0  0
 13 31  1  0  0  0
 14 15  2  0  0  0
 14108  1  0  0  0
 15109  1  0  0  0
 16 17  2  0  0  0
 16 21  1  0  0  0
 16 31  1  0  0  0
 17 18  1  0  0  0
 17110  1  0  0  0
 18 19  2  0  0  0
 18111  1  0  0  0
 19 20  1  0  0  0
 19 24  1  0  0  0
 20 21  2  0  0  0
 20112  1  0  0  0
 21 23  1  0  0  0
 22 28  1  0  0  0
 22 32  2  0  0  0
 26 27  1  0  0  0
 28113  1  0  0  0
 28114  1  0  0  0
 29115  1  0  0  0
 29116  1  0  0  0
 33 34  1  0  0  0
 33 66  1  0  0  0
 33 70  2  0  0  0
 34 36  1  0  0  0
 34 59  1  0  0  0
 34117  1  0  0  0
 35 44  2  0  0  0
 35 45  1  0  0  0
 35 68  1  0  0  0
 36 56  1  0  0  0
 36118  1  0  0  0
 37 39  1  0  0  0
 37 47  1  0  0  0
 37 66  1  0  0  0
 37119  1  0  0  0
 38 43  2  0  0  0
 38 46  1  0  0  0
 38 47  1  0  0  0
 39 64  1  0  0  0
 39 67  2  0  0  0
 40 52  1  0  0  0
 40 53  2  0  0  0
 40 58  1  0  0  0
 41120  1  0  0  0
 41121  1  0  0  0
 41122  1  0  0  0
 41 48  1  0  0  0
 42 43  1  0  0  0
 42 66  1  0  0  0
 42123  1  0  0  0
 42124  1  0  0  0
 43 44  1  0  0  0
 44125  1  0  0  0
 45 46  2  0  0  0
 45126  1  0  0  0
 46127  1  0  0  0
 47128  1  0  0  0
 47129  1  0  0  0
 48 56  1  0  0  0
 48 65  1  0  0  0
 48130  1  0  0  0
 49 50  1  0  0  0
 49 53  1  0  0  0
 49 64  1  0  0  0
 49131  1  0  0  0
 50 51  1  0  0  0
 50132  1  0  0  0
 50133  1  0  0  0
 51 52  1  0  0  0
 51134  1  0  0  0
 51135  1  0  0  0
 52136  1  0  0  0
 52137  1  0  0  0
 53 54  1  0  0  0
 54 55  2  0  0  0
 54138  1  0  0  0
 55 57  1  0  0  0
 55139  1  0  0  0
 56 69  2  0  0  0
 57 58  2  0  0  0
 57140  1  0  0  0
 58141  1  0  0  0
 59 60  1  0  0  0
 59 61  1  0  0  0
 59 62  1  0  0  0
 60142  1  0  0  0
 60143  1  0  0  0
 60144  1  0  0  0
 61145  1  0  0  0
 61146  1  0  0  0
 61147  1  0  0  0
 62148  1  0  0  0
 62149  1  0  0  0
 62150  1  0  0  0
 63 65  1  0  0  0
 63151  1  0  0  0
 63152  1  0  0  0
 63153  1  0  0  0
 64154  1  0  0  0
 65155  1  0  0  0
 68 90  1  0  0  0
 71 72  2  0  0  0
 71 74  1  0  0  0
 71156  1  0  0  0
 72 75  1  0  0  0
 72 81  1  0  0  0
 73 75  2  0  0  0
 73 76  1  0  0  0
 73 77  1  0  0  0
 74 76  2  0  0  0
 74 94  1  0  0  0
 75 95  1  0  0  0
 76 96  1  0  0  0
 77157  1  0  0  0
 77158  1  0  0  0
 77159  1  0  0  0
 78160  1  0  0  0
 78161  1  0  0  0
 78162  1  0  0  0
 78 91  1  0  0  0
 79 91  1  0  0  0
 79163  1  0  0  0
 79164  1  0  0  0
 79165  1  0  0  0
 80166  1  0  0  0
 80167  1  0  0  0
 80168  1  0  0  0
 80 92  1  0  0  0
 81 82  1  0  0  0
 81169  1  0  0  0
 81170  1  0  0  0
 82 83  1  0  0  0
 82171  1  0  0  0
 82172  1  0  0  0
 83 84  1  0  0  0
 83173  1  0  0  0
 83174  1  0  0  0
 84 85  1  0  0  0
 84175  1  0  0  0
 84176  1  0  0  0
 85 86  1  0  0  0
 85177  1  0  0  0
 85178  1  0  0  0
 86 89  1  0  0  0
 86179  1  0  0  0
 86180  1  0  0  0
 87 88  1  0  0  0
 87 90  1  0  0  0
 87181  1  0  0  0
 87182  1  0  0  0
 88 92  1  0  0  0
 88183  1  0  0  0
 88184  1  0  0  0
 89 93  1  0  0  0
 89185  1  0  0  0
 89186  1  0  0  0
 90187  1  0  0  0
 90188  1  0  0  0
 91 94  1  0  0  0
 91189  1  0  0  0
 92 94  1  0  0  0
 92190  1  0  0  0
 93191  1  0  0  0
M  ISO  4   1 100  68 101  90 101  93 100
M  END
> <chiral flag>
0

> <version>
0

> <s_m_source_file>
/data/baiqing/PycharmProjects/Reinvent-master-3.2/result/LINK_invent/BTK/process_docking_weight1_custom_sum_contain_oxygen_bond_distance_aromatic_linkinvent_7_9_3/rearranged_h_0022.sdf

> <i_m_source_file_index>
69

> <r_mmod_Potential_Energy-OPLS-2005>
-17.0405883789062

> <r_mmod_Stretch_Energy-OPLS-2005>
38.0388450622559

> <r_mmod_Bend_Energy-OPLS-2005>
116.024406433105

> <r_mmod_Torsional_Energy-OPLS-2005>
288.249298095703

> <r_mmod_Improper_Torsional_Energy-OPLS-2005>
6.93844556808472

> <r_mmod_Van_der_Waal_Energy-OPLS-2005>
148.128448486328

> <r_mmod_Electrostatic_Energy-OPLS-2005>
-436.207824707031

> <r_mmod_Solvation_Energy-OPLS-2005>
-188.620223999023

> <b_mmod_Minimization_Converged-OPLS-2005>
0

> <r_mmod_RMS_Derivative-OPLS-2005>
3.05387592315674

$$$$
69
                    3D
 Structure written by MMmdl.
186194  0  0  1  0            999 V2000
  -30.7471  -14.4138   20.5279 C   0  0  0  0  0  0
  -30.4073  -12.2567   19.4238 C   0  0  0  0  0  0
  -29.4959  -12.4921   18.2055 C   0  0  0  0  0  0
  -28.0122  -12.3759   18.6088 C   0  0  0  0  0  0
  -27.6639  -13.2116   19.8713 C   0  0  2  0  0  0
  -28.7060  -13.0046   20.9951 C   0  0  0  0  0  0
  -25.2602  -13.8179   20.5660 C   0  0  0  0  0  0
  -24.1846  -13.0449   20.9186 C   0  0  0  0  0  0
  -24.6408  -11.6916   20.8713 C   0  0  0  0  0  0
  -23.9064  -10.4312   21.0377 C   0  0  0  0  0  0
  -24.3623   -9.4234   21.9169 C   0  0  0  0  0  0
  -23.6311   -8.2263   22.0739 C   0  0  0  0  0  0
  -22.4292   -8.0298   21.3539 C   0  0  0  0  0  0
  -21.9916   -9.0260   20.4632 C   0  0  0  0  0  0
  -22.7231  -10.2148   20.3034 C   0  0  0  0  0  0
  -21.6875   -6.0746   22.5271 C   0  0  0  0  0  0
  -21.4018   -6.5639   23.8207 C   0  0  0  0  0  0
  -21.3666   -5.6788   24.9171 C   0  0  0  0  0  0
  -21.6051   -4.3049   24.7207 C   0  0  0  0  0  0
  -21.8832   -3.8150   23.4321 C   0  0  0  0  0  0
  -21.9199   -4.6973   22.3385 C   0  0  0  0  0  0
  -22.7883  -13.5244   21.1843 C   0  0  0  0  0  0
  -22.1676   -4.2164   21.0962 F   0  0  0  0  0  0
  -21.5629   -3.4528   25.7719 F   0  0  0  0  0  0
  -30.0434  -13.2586   20.4351 N   0  0  0  0  0  0
  -26.3039  -12.9354   20.3348 N   0  0  0  0  0  0
  -25.9331  -11.6508   20.5744 N   0  0  0  0  0  0
  -22.0516  -12.8244   22.0393 N   0  0  0  0  0  0
  -25.4325  -15.1897   20.4087 N   0  0  0  0  0  0
  -31.8986  -14.5338   20.1019 O   0  0  0  0  0  0
  -21.6663   -6.8894   21.4233 O   0  0  0  0  0  0
  -22.3554  -14.5554   20.6699 O   0  0  0  0  0  0
  -24.6152  -31.8690   23.2028 C   0  0  0  0  0  0
  -25.9017  -32.4828   23.8358 C   0  0  1  0  0  0
  -27.2372  -27.4462   20.0873 C   0  0  0  0  0  0
  -25.5859  -33.8623   24.2310 N   0  0  0  0  0  0
  -23.4056  -30.4854   21.5508 C   0  0  2  0  0  0
  -24.8483  -28.9598   20.1110 C   0  0  0  0  0  0
  -22.7445  -29.4605   22.5019 C   0  0  0  0  0  0
  -18.0269  -28.1367   22.8473 C   0  0  0  0  0  0
  -24.1501  -36.7348   23.2649 C   0  0  0  0  0  0
  -25.9305  -30.8405   21.3489 C   0  0  0  0  0  0
  -26.0055  -29.4716   20.7081 C   0  0  0  0  0  0
  -27.1999  -28.7230   20.6910 C   0  0  0  0  0  0
  -26.0609  -26.9565   19.4718 C   0  0  0  0  0  0
  -24.8705  -27.7022   19.4891 C   0  0  0  0  0  0
  -23.6110  -29.8202   20.1645 C   0  0  0  0  0  0
  -25.4113  -36.3145   24.0363 C   0  0  1  0  0  0
  -20.5872  -28.3639   23.1315 C   0  0  2  0  0  0
  -20.6761  -26.9371   22.5421 C   0  0  0  0  0  0
  -19.5748  -26.6368   21.5214 C   0  0  0  0  0  0
  -18.1921  -26.7909   22.1613 C   0  0  0  0  0  0
  -19.1518  -28.8818   23.2892 C   0  0  0  0  0  0
  -18.9446  -30.1419   23.8918 C   0  0  0  0  0  0
  -17.6446  -30.6564   24.0552 C   0  0  0  0  0  0
  -25.9025  -34.9496   23.5151 C   0  0  0  0  0  0
  -16.5339  -29.9068   23.6305 C   0  0  0  0  0  0
  -16.7255  -28.6484   23.0332 C   0  0  0  0  0  0
  -26.4451  -31.6543   25.0639 C   0  0  0  0  0  0
  -25.3682  -31.3615   26.1344 C   0  0  0  0  0  0
  -27.0232  -30.2981   24.5958 C   0  0  0  0  0  0
  -27.6069  -32.4213   25.7380 C   0  0  0  0  0  0
  -27.5601  -37.1825   24.8482 C   0  0  0  0  0  0
  -21.4168  -29.3005   22.3746 N   0  0  0  0  0  0
  -26.4322  -37.3817   23.9409 N   0  0  0  0  0  0
  -24.6709  -31.0789   22.0928 N   0  0  0  0  0  0
  -23.4212  -28.8146   23.3058 O   0  0  0  0  0  0
  -28.4305  -26.7508   20.1254 O   0  0  0  0  0  0
  -26.5623  -34.8956   22.4729 O   0  0  0  0  0  0
  -23.5326  -32.1409   23.7397 O   0  0  0  0  0  0
  -31.4358  -24.7552   22.7247 C   0  0  0  0  0  0
  -30.8667  -24.9601   23.9974 C   0  0  0  0  0  0
  -30.8678  -23.8916   24.9394 C   0  0  0  0  0  0
  -31.4515  -22.6384   24.5839 C   0  0  0  0  0  0
  -31.9504  -22.4280   23.2672 C   0  0  0  0  0  0
  -31.9373  -23.5003   22.3494 C   0  0  0  0  0  0
  -30.2445  -24.0927   26.3241 C   0  0  0  0  0  0
  -31.5253  -21.5150   25.6148 C   0  0  0  0  0  0
  -32.4853  -21.0707   22.7951 C   0  0  0  0  0  0
  -30.2802  -26.3474   24.2805 C   0  0  0  0  0  0
  -31.4165  -19.9549   22.8076 C   0  0  0  0  0  0
  -31.5771  -18.9024   21.7021 C   0  0  0  0  0  0
  -26.5921  -24.4162   22.9623 C   0  0  0  0  0  0
  -26.8002  -24.2427   21.4447 C   0  0  0  0  0  0
  -30.6046  -17.7222   21.8811 C   0  0  0  0  0  0
  -26.5794  -25.8809   23.4729 C   0  0  0  0  0  0
  -28.2528  -24.4080   20.9430 C   0  0  0  0  0  0
  -30.4879  -16.8691   20.6114 C   0  0  0  0  0  0
  -27.7785  -26.2484   24.3615 C   0  0  0  0  0  0
  -28.4880  -25.3687   19.7529 C   0  0  0  0  0  0
  -30.0480  -15.4972   20.8924 N   0  0  0  0  0  0
  -28.9940  -26.5515   23.5786 N   0  3  0  0  0  0
  -32.3925  -23.3351   21.0847 F   0  0  0  0  0  0
  -31.4569  -12.3099   19.1292 H   0  0  0  0  0  0
  -30.2588  -11.2516   19.8193 H   0  0  0  0  0  0
  -29.7237  -11.7741   17.4177 H   0  0  0  0  0  0
  -29.6922  -13.4792   17.7848 H   0  0  0  0  0  0
  -27.8037  -11.3206   18.7882 H   0  0  0  0  0  0
  -27.3753  -12.6721   17.7740 H   0  0  0  0  0  0
  -27.7043  -14.2600   19.5759 H   0  0  0  0  0  0
  -28.6565  -11.9815   21.3670 H   0  0  0  0  0  0
  -28.4889  -13.6460   21.8510 H   0  0  0  0  0  0
  -25.2777   -9.5741   22.4731 H   0  0  0  0  0  0
  -24.0048   -7.4664   22.7446 H   0  0  0  0  0  0
  -21.0860   -8.8758   19.8938 H   0  0  0  0  0  0
  -22.3673  -10.9682   19.6143 H   0  0  0  0  0  0
  -21.2004   -7.6148   23.9713 H   0  0  0  0  0  0
  -21.1486   -6.0512   25.9074 H   0  0  0  0  0  0
  -22.0601   -2.7609   23.2810 H   0  0  0  0  0  0
  -22.4138  -11.9917   22.4802 H   0  0  0  0  0  0
  -21.1116  -13.1244   22.2542 H   0  0  0  0  0  0
  -24.6671  -15.8470   20.5117 H   0  0  0  0  0  0
  -26.2886  -15.6306   20.0940 H   0  0  0  0  0  0
  -26.7080  -32.5567   23.1128 H   0  0  0  0  0  0
  -24.9966  -33.9786   25.0425 H   0  0  0  0  0  0
  -22.6959  -31.3029   21.4130 H   0  0  0  0  0  0
  -23.3763  -35.9683   23.3317 H   0  0  0  0  0  0
  -24.3605  -36.8940   22.2066 H   0  0  0  0  0  0
  -23.7240  -37.6561   23.6627 H   0  0  0  0  0  0
  -26.0255  -31.5928   20.5632 H   0  0  0  0  0  0
  -26.8273  -30.9114   21.9539 H   0  0  0  0  0  0
  -28.0963  -29.1266   21.1404 H   0  0  0  0  0  0
  -26.0259  -26.0012   18.9745 H   0  0  0  0  0  0
  -23.9862  -27.3052   19.0127 H   0  0  0  0  0  0
  -23.7121  -30.5946   19.4029 H   0  0  0  0  0  0
  -22.7406  -29.2299   19.8739 H   0  0  0  0  0  0
  -25.1285  -36.2073   25.0865 H   0  0  0  0  0  0
  -20.9933  -28.3194   24.1446 H   0  0  0  0  0  0
  -20.5647  -26.2246   23.3609 H   0  0  0  0  0  0
  -21.6636  -26.7409   22.1227 H   0  0  0  0  0  0
  -19.6914  -25.6291   21.1215 H   0  0  0  0  0  0
  -19.6696  -27.3204   20.6769 H   0  0  0  0  0  0
  -17.4195  -26.6625   21.4013 H   0  0  0  0  0  0
  -18.0328  -26.0061   22.9024 H   0  0  0  0  0  0
  -19.7929  -30.7213   24.2319 H   0  0  0  0  0  0
  -17.5008  -31.6251   24.5151 H   0  0  0  0  0  0
  -15.5340  -30.2990   23.7610 H   0  0  0  0  0  0
  -15.8656  -28.0817   22.7043 H   0  0  0  0  0  0
  -24.5939  -30.6907   25.7613 H   0  0  0  0  0  0
  -24.8770  -32.2744   26.4721 H   0  0  0  0  0  0
  -25.7971  -30.8804   27.0145 H   0  0  0  0  0  0
  -26.2717  -29.6768   24.1071 H   0  0  0  0  0  0
  -27.4082  -29.7206   25.4385 H   0  0  0  0  0  0
  -27.8528  -30.4327   23.9004 H   0  0  0  0  0  0
  -27.2786  -33.3572   26.1915 H   0  0  0  0  0  0
  -28.3876  -32.6649   25.0148 H   0  0  0  0  0  0
  -28.0716  -31.8317   26.5295 H   0  0  0  0  0  0
  -28.2639  -38.0116   24.7542 H   0  0  0  0  0  0
  -28.1075  -36.2643   24.6287 H   0  0  0  0  0  0
  -27.2308  -37.1466   25.8887 H   0  0  0  0  0  0
  -20.9334  -29.8757   21.7001 H   0  0  0  0  0  0
  -26.0237  -38.2926   24.1334 H   0  0  0  0  0  0
  -31.4570  -25.5576   22.0002 H   0  0  0  0  0  0
  -29.1960  -24.3499   26.2524 H   0  0  0  0  0  0
  -30.7510  -24.8875   26.8703 H   0  0  0  0  0  0
  -30.2443  -23.2139   26.9624 H   0  0  0  0  0  0
  -30.5457  -21.0463   25.7238 H   0  0  0  0  0  0
  -31.8579  -21.8855   26.5830 H   0  0  0  0  0  0
  -32.2490  -20.7435   25.3669 H   0  0  0  0  0  0
  -33.3488  -20.7810   23.3958 H   0  0  0  0  0  0
  -32.8837  -21.1725   21.7865 H   0  0  0  0  0  0
  -30.9805  -27.0886   23.8912 H   0  0  0  0  0  0
  -30.1912  -26.5690   25.3443 H   0  0  0  0  0  0
  -30.4310  -20.4040   22.6857 H   0  0  0  0  0  0
  -31.4065  -19.4600   23.7774 H   0  0  0  0  0  0
  -32.6016  -18.5228   21.6872 H   0  0  0  0  0  0
  -31.4087  -19.3767   20.7356 H   0  0  0  0  0  0
  -27.2964  -23.7928   23.5141 H   0  0  0  0  0  0
  -25.6127  -23.9952   23.1950 H   0  0  0  0  0  0
  -26.1042  -24.8908   20.9251 H   0  0  0  0  0  0
  -26.4768  -23.2344   21.1793 H   0  0  0  0  0  0
  -29.6117  -18.0921   22.1444 H   0  0  0  0  0  0
  -30.9374  -17.1094   22.7213 H   0  0  0  0  0  0
  -25.6857  -26.0132   24.0866 H   0  0  0  0  0  0
  -26.4557  -26.5936   22.6598 H   0  0  0  0  0  0
  -28.5998  -23.4211   20.6301 H   0  0  0  0  0  0
  -28.9155  -24.6705   21.7603 H   0  0  0  0  0  0
  -31.4442  -16.8828   20.0837 H   0  0  0  0  0  0
  -29.7796  -17.3289   19.9193 H   0  0  0  0  0  0
  -27.9394  -25.4331   25.0544 H   0  0  0  0  0  0
  -27.5466  -27.1190   24.9763 H   0  0  0  0  0  0
  -27.8835  -25.1085   18.8862 H   0  0  0  0  0  0
  -29.5114  -25.2122   19.4090 H   0  0  0  0  0  0
  -29.0969  -15.3551   21.1998 H   0  0  0  0  0  0
  -28.9991  -25.9911   22.7425 H   0  0  0  0  0  0
  -28.9479  -27.5195   23.3005 H   0  0  0  0  0  0
  1 25  1  0  0  0
  1 30  2  0  0  0
  1 91  1  0  0  0
  2  3  1  0  0  0
  2 25  1  0  0  0
  2 94  1  0  0  0
  2 95  1  0  0  0
  3  4  1  0  0  0
  3 96  1  0  0  0
  3 97  1  0  0  0
  4  5  1  0  0  0
  4 98  1  0  0  0
  4 99  1  0  0  0
  5  6  1  0  0  0
  5 26  1  0  0  0
  5100  1  0  0  0
  6 25  1  0  0  0
  6101  1  0  0  0
  6102  1  0  0  0
  7  8  2  0  0  0
  7 26  1  0  0  0
  7 29  1  0  0  0
  8  9  1  0  0  0
  8 22  1  0  0  0
  9 10  1  0  0  0
  9 27  2  0  0  0
 10 11  2  0  0  0
 10 15  1  0  0  0
 11 12  1  0  0  0
 11103  1  0  0  0
 12 13  2  0  0  0
 12104  1  0  0  0
 13 14  1  0  0  0
 13 31  1  0  0  0
 14 15  2  0  0  0
 14105  1  0  0  0
 15106  1  0  0  0
 16 17  2  0  0  0
 16 21  1  0  0  0
 16 31  1  0  0  0
 17 18  1  0  0  0
 17107  1  0  0  0
 18 19  2  0  0  0
 18108  1  0  0  0
 19 20  1  0  0  0
 19 24  1  0  0  0
 20 21  2  0  0  0
 20109  1  0  0  0
 21 23  1  0  0  0
 22 28  1  0  0  0
 22 32  2  0  0  0
 26 27  1  0  0  0
 28110  1  0  0  0
 28111  1  0  0  0
 29112  1  0  0  0
 29113  1  0  0  0
 33 34  1  0  0  0
 33 66  1  0  0  0
 33 70  2  0  0  0
 34 36  1  0  0  0
 34 59  1  0  0  0
 34114  1  0  0  0
 35 44  2  0  0  0
 35 45  1  0  0  0
 35 68  1  0  0  0
 36 56  1  0  0  0
 36115  1  0  0  0
 37 39  1  0  0  0
 37 47  1  0  0  0
 37 66  1  0  0  0
 37116  1  0  0  0
 38 43  2  0  0  0
 38 46  1  0  0  0
 38 47  1  0  0  0
 39 64  1  0  0  0
 39 67  2  0  0  0
 40 52  1  0  0  0
 40 53  2  0  0  0
 40 58  1  0  0  0
 41117  1  0  0  0
 41118  1  0  0  0
 41119  1  0  0  0
 41 48  1  0  0  0
 42 43  1  0  0  0
 42 66  1  0  0  0
 42120  1  0  0  0
 42121  1  0  0  0
 43 44  1  0  0  0
 44122  1  0  0  0
 45 46  2  0  0  0
 45123  1  0  0  0
 46124  1  0  0  0
 47125  1  0  0  0
 47126  1  0  0  0
 48 56  1  0  0  0
 48 65  1  0  0  0
 48127  1  0  0  0
 49 50  1  0  0  0
 49 53  1  0  0  0
 49 64  1  0  0  0
 49128  1  0  0  0
 50 51  1  0  0  0
 50129  1  0  0  0
 50130  1  0  0  0
 51 52  1  0  0  0
 51131  1  0  0  0
 51132  1  0  0  0
 52133  1  0  0  0
 52134  1  0  0  0
 53 54  1  0  0  0
 54 55  2  0  0  0
 54135  1  0  0  0
 55 57  1  0  0  0
 55136  1  0  0  0
 56 69  2  0  0  0
 57 58  2  0  0  0
 57137  1  0  0  0
 58138  1  0  0  0
 59 60  1  0  0  0
 59 61  1  0  0  0
 59 62  1  0  0  0
 60139  1  0  0  0
 60140  1  0  0  0
 60141  1  0  0  0
 61142  1  0  0  0
 61143  1  0  0  0
 61144  1  0  0  0
 62145  1  0  0  0
 62146  1  0  0  0
 62147  1  0  0  0
 63 65  1  0  0  0
 63148  1  0  0  0
 63149  1  0  0  0
 63150  1  0  0  0
 64151  1  0  0  0
 65152  1  0  0  0
 68 90  1  0  0  0
 71 72  2  0  0  0
 71 76  1  0  0  0
 71153  1  0  0  0
 72 73  1  0  0  0
 72 80  1  0  0  0
 73 74  2  0  0  0
 73 77  1  0  0  0
 74 75  1  0  0  0
 74 78  1  0  0  0
 75 76  2  0  0  0
 75 79  1  0  0  0
 76 93  1  0  0  0
 77154  1  0  0  0
 77155  1  0  0  0
 77156  1  0  0  0
 78157  1  0  0  0
 78158  1  0  0  0
 78159  1  0  0  0
 79 81  1  0  0  0
 79160  1  0  0  0
 79161  1  0  0  0
 80 92  1  0  0  0
 80162  1  0  0  0
 80163  1  0  0  0
 81 82  1  0  0  0
 81164  1  0  0  0
 81165  1  0  0  0
 82 85  1  0  0  0
 82166  1  0  0  0
 82167  1  0  0  0
 83 84  1  0  0  0
 83 86  1  0  0  0
 83168  1  0  0  0
 83169  1  0  0  0
 84 87  1  0  0  0
 84170  1  0  0  0
 84171  1  0  0  0
 85 88  1  0  0  0
 85172  1  0  0  0
 85173  1  0  0  0
 86 89  1  0  0  0
 86174  1  0  0  0
 86175  1  0  0  0
 87 90  1  0  0  0
 87176  1  0  0  0
 87177  1  0  0  0
 88 91  1  0  0  0
 88178  1  0  0  0
 88179  1  0  0  0
 89 92  1  0  0  0
 89180  1  0  0  0
 89181  1  0  0  0
 90182  1  0  0  0
 90183  1  0  0  0
 91184  1  0  0  0
 92185  1  0  0  0
 92186  1  0  0  0
M  CHG  1  92   1
M  ISO  4   1 100  68 101  90 101  91 100
M  END
> <chiral flag>
0

> <version>
0

> <s_m_source_file>
/data/baiqing/PycharmProjects/Reinvent-master-3.2/result/LINK_invent/BTK/process_docking_weight1_custom_sum_contain_oxygen_bond_distance_aromatic_linkinvent_7_9_3/rearranged_h_0022.sdf

> <i_m_source_file_index>
70

> <r_mmod_Potential_Energy-OPLS-2005>
-191.787017822266

> <r_mmod_Stretch_Energy-OPLS-2005>
39.4433822631836

> <r_mmod_Bend_Energy-OPLS-2005>
119.816032409668

> <r_mmod_Torsional_Energy-OPLS-2005>
243.684646606445

> <r_mmod_Improper_Torsional_Energy-OPLS-2005>
5.75105381011963

> <r_mmod_Van_der_Waal_Energy-OPLS-2005>
152.118209838867

> <r_mmod_Electrostatic_Energy-OPLS-2005>
-351.162994384766

> <r_mmod_Solvation_Energy-OPLS-2005>
-416.204833984375

> <b_mmod_Minimization_Converged-OPLS-2005>
0

> <r_mmod_RMS_Derivative-OPLS-2005>
3.95713090896606

$$$$
70
                    3D
 Structure written by MMmdl.
168176  0  0  1  0            999 V2000
  -30.7421  -14.3390   20.7380 C   0  0  0  0  0  0
  -30.4327  -12.2928   19.3883 C   0  0  0  0  0  0
  -29.4876  -12.5378   18.1942 C   0  0  0  0  0  0
  -28.0137  -12.3754   18.6097 C   0  0  0  0  0  0
  -27.6697  -13.1886   19.8813 C   0  0  2  0  0  0
  -28.7019  -12.8851   20.9914 C   0  0  0  0  0  0
  -25.2656  -13.8130   20.5601 C   0  0  0  0  0  0
  -24.1902  -13.0463   20.9166 C   0  0  0  0  0  0
  -24.6407  -11.6911   20.8749 C   0  0  0  0  0  0
  -23.9083  -10.4303   21.0425 C   0  0  0  0  0  0
  -24.3643   -9.4206   21.9203 C   0  0  0  0  0  0
  -23.6294   -8.2261   22.0769 C   0  0  0  0  0  0
  -22.4270   -8.0309   21.3551 C   0  0  0  0  0  0
  -21.9917   -9.0296   20.4660 C   0  0  0  0  0  0
  -22.7251  -10.2169   20.3065 C   0  0  0  0  0  0
  -21.6854   -6.0760   22.5274 C   0  0  0  0  0  0
  -21.4020   -6.5666   23.8215 C   0  0  0  0  0  0
  -21.3656   -5.6814   24.9182 C   0  0  0  0  0  0
  -21.6043   -4.3073   24.7254 C   0  0  0  0  0  0
  -21.8809   -3.8163   23.4371 C   0  0  0  0  0  0
  -21.9203   -4.6976   22.3419 C   0  0  0  0  0  0
  -22.7925  -13.5248   21.1812 C   0  0  0  0  0  0
  -22.1663   -4.2148   21.0998 F   0  0  0  0  0  0
  -21.5621   -3.4573   25.7792 F   0  0  0  0  0  0
  -30.0555  -13.1955   20.4858 N   0  0  0  0  0  0
  -26.3072  -12.9264   20.3358 N   0  0  0  0  0  0
  -25.9306  -11.6440   20.5738 N   0  0  0  0  0  0
  -22.0523  -12.8275   22.0323 N   0  0  0  0  0  0
  -25.4420  -15.1837   20.3870 N   0  0  0  0  0  0
  -31.7129  -14.7168   20.0727 O   0  0  0  0  0  0
  -21.6626   -6.8913   21.4236 O   0  0  0  0  0  0
  -22.3653  -14.5595   20.6691 O   0  0  0  0  0  0
  -24.6106  -31.8672   23.2127 C   0  0  0  0  0  0
  -25.9017  -32.4827   23.8415 C   0  0  1  0  0  0
  -27.2392  -27.4697   20.0964 C   0  0  0  0  0  0
  -25.5886  -33.8635   24.2342 N   0  0  0  0  0  0
  -23.3989  -30.4901   21.5517 C   0  0  2  0  0  0
  -24.8469  -28.9553   20.1239 C   0  0  0  0  0  0
  -22.7392  -29.4655   22.5009 C   0  0  0  0  0  0
  -18.0269  -28.1367   22.8454 C   0  0  0  0  0  0
  -24.1486  -36.7335   23.2632 C   0  0  0  0  0  0
  -25.9243  -30.8428   21.3643 C   0  0  0  0  0  0
  -26.0013  -29.4747   20.7250 C   0  0  0  0  0  0
  -27.2028  -28.7348   20.7182 C   0  0  0  0  0  0
  -26.0764  -26.9547   19.4912 C   0  0  0  0  0  0
  -24.8760  -27.6907   19.5072 C   0  0  0  0  0  0
  -23.6077  -29.8194   20.1671 C   0  0  0  0  0  0
  -25.4089  -36.3116   24.0341 C   0  0  1  0  0  0
  -20.5849  -28.3654   23.1322 C   0  0  2  0  0  0
  -20.6762  -26.9383   22.5457 C   0  0  0  0  0  0
  -19.5784  -26.6346   21.5203 C   0  0  0  0  0  0
  -18.1946  -26.7908   22.1578 C   0  0  0  0  0  0
  -19.1504  -28.8820   23.2888 C   0  0  0  0  0  0
  -18.9419  -30.1418   23.8903 C   0  0  0  0  0  0
  -17.6429  -30.6555   24.0546 C   0  0  0  0  0  0
  -25.9016  -34.9486   23.5131 C   0  0  0  0  0  0
  -16.5336  -29.9055   23.6297 C   0  0  0  0  0  0
  -16.7263  -28.6480   23.0316 C   0  0  0  0  0  0
  -26.4436  -31.6620   25.0751 C   0  0  0  0  0  0
  -25.3716  -31.3770   26.1525 C   0  0  0  0  0  0
  -27.0240  -30.3054   24.6125 C   0  0  0  0  0  0
  -27.6034  -32.4330   25.7496 C   0  0  0  0  0  0
  -27.5580  -37.1807   24.8455 C   0  0  0  0  0  0
  -21.4119  -29.3014   22.3732 N   0  0  0  0  0  0
  -26.4286  -37.3795   23.9410 N   0  0  0  0  0  0
  -24.6617  -31.0811   22.1014 N   0  0  0  0  0  0
  -23.4179  -28.8214   23.3055 O   0  0  0  0  0  0
  -28.4070  -26.7630   19.9882 O   0  0  0  0  0  0
  -26.5579  -34.8932   22.4691 O   0  0  0  0  0  0
  -23.5312  -32.1420   23.7529 O   0  0  0  0  0  0
  -27.9852  -17.7345   20.9609 C   0  0  0  0  0  0
  -27.1269  -17.7193   22.0815 C   0  0  0  0  0  0
  -27.4201  -16.8516   23.1692 C   0  0  0  0  0  0
  -29.3591  -15.9630   21.9292 C   0  0  0  0  0  0
  -29.0940  -16.8723   20.8794 C   0  0  0  0  0  0
  -28.5348  -15.9752   23.0793 C   0  0  0  0  0  0
  -26.5379  -16.8103   24.4159 C   0  0  0  0  0  0
  -25.8927  -18.6204   22.0503 C   0  0  0  0  0  0
  -26.7298  -22.8583   21.7865 C   0  0  0  0  0  0
  -27.1500  -24.3280   21.9636 C   0  0  0  0  0  0
  -25.6258  -22.3877   22.7536 C   0  0  0  0  0  0
  -28.4130  -24.6306   21.1350 C   0  0  0  0  0  0
  -25.1296  -20.9567   22.4484 C   0  0  0  0  0  0
  -28.8585  -26.1048   21.1645 C   0  0  0  0  0  0
  -30.3769  -14.9689   21.8635 N   0  0  0  0  0  0
  -26.2179  -19.9626   22.5670 N   0  3  0  0  0  0
  -29.8656  -16.9095   19.7688 F   0  0  0  0  0  0
  -28.8619  -14.8499   24.3585 Cl  0  0  0  0  0  0
  -31.4701  -12.4349   19.0826 H   0  0  0  0  0  0
  -30.3630  -11.2565   19.7270 H   0  0  0  0  0  0
  -29.7289  -11.8478   17.3848 H   0  0  0  0  0  0
  -29.6429  -13.5426   17.7975 H   0  0  0  0  0  0
  -27.8372  -11.3162   18.7881 H   0  0  0  0  0  0
  -27.3519  -12.6564   17.7904 H   0  0  0  0  0  0
  -27.7372  -14.2471   19.6276 H   0  0  0  0  0  0
  -28.6633  -11.8257   21.2549 H   0  0  0  0  0  0
  -28.4316  -13.4124   21.9022 H   0  0  0  0  0  0
  -25.2790   -9.5668   22.4771 H   0  0  0  0  0  0
  -23.9990   -7.4661   22.7519 H   0  0  0  0  0  0
  -21.0829   -8.8847   19.8984 H   0  0  0  0  0  0
  -22.3730  -10.9743   19.6204 H   0  0  0  0  0  0
  -21.1985   -7.6162   23.9737 H   0  0  0  0  0  0
  -21.1470   -6.0528   25.9086 H   0  0  0  0  0  0
  -22.0574   -2.7624   23.2858 H   0  0  0  0  0  0
  -22.4147  -11.9948   22.4739 H   0  0  0  0  0  0
  -21.1160  -13.1358   22.2521 H   0  0  0  0  0  0
  -24.6459  -15.8114   20.3825 H   0  0  0  0  0  0
  -26.2781  -15.5897   19.9872 H   0  0  0  0  0  0
  -26.7105  -32.5546   23.1200 H   0  0  0  0  0  0
  -25.0052  -33.9804   25.0498 H   0  0  0  0  0  0
  -22.6882  -31.3050   21.4103 H   0  0  0  0  0  0
  -23.3732  -35.9690   23.3293 H   0  0  0  0  0  0
  -24.3577  -36.8929   22.2048 H   0  0  0  0  0  0
  -23.7277  -37.6558   23.6635 H   0  0  0  0  0  0
  -26.0330  -31.6004   20.5877 H   0  0  0  0  0  0
  -26.8177  -30.8999   21.9747 H   0  0  0  0  0  0
  -28.1032  -29.1413   21.1546 H   0  0  0  0  0  0
  -26.1113  -25.9896   19.0062 H   0  0  0  0  0  0
  -23.9927  -27.2857   19.0311 H   0  0  0  0  0  0
  -23.7138  -30.5944   19.4056 H   0  0  0  0  0  0
  -22.7347  -29.2333   19.8721 H   0  0  0  0  0  0
  -25.1262  -36.1963   25.0837 H   0  0  0  0  0  0
  -20.9908  -28.3230   24.1458 H   0  0  0  0  0  0
  -20.5630  -26.2240   23.3638 H   0  0  0  0  0  0
  -21.6636  -26.7408   22.1280 H   0  0  0  0  0  0
  -19.6994  -25.6248   21.1281 H   0  0  0  0  0  0
  -19.6769  -27.3130   20.6739 H   0  0  0  0  0  0
  -17.4241  -26.6647   21.3952 H   0  0  0  0  0  0
  -18.0341  -26.0045   22.8970 H   0  0  0  0  0  0
  -19.7891  -30.7207   24.2330 H   0  0  0  0  0  0
  -17.4982  -31.6234   24.5140 H   0  0  0  0  0  0
  -15.5327  -30.2951   23.7622 H   0  0  0  0  0  0
  -15.8667  -28.0792   22.7019 H   0  0  0  0  0  0
  -24.5858  -30.7120   25.7911 H   0  0  0  0  0  0
  -24.8938  -32.2951   26.4958 H   0  0  0  0  0  0
  -25.8072  -30.8967   27.0289 H   0  0  0  0  0  0
  -26.2786  -29.6881   24.1087 H   0  0  0  0  0  0
  -27.3896  -29.7225   25.4581 H   0  0  0  0  0  0
  -27.8676  -30.4365   23.9349 H   0  0  0  0  0  0
  -27.2648  -33.3588   26.2151 H   0  0  0  0  0  0
  -28.3798  -32.6937   25.0302 H   0  0  0  0  0  0
  -28.0763  -31.8412   26.5336 H   0  0  0  0  0  0
  -28.2594  -38.0103   24.7467 H   0  0  0  0  0  0
  -28.1065  -36.2625   24.6284 H   0  0  0  0  0  0
  -27.2309  -37.1485   25.8865 H   0  0  0  0  0  0
  -20.9267  -29.8705   21.6937 H   0  0  0  0  0  0
  -26.0161  -38.2870   24.1399 H   0  0  0  0  0  0
  -27.7876  -18.3957   20.1307 H   0  0  0  0  0  0
  -25.9378  -17.7093   24.5518 H   0  0  0  0  0  0
  -27.1377  -16.7135   25.3209 H   0  0  0  0  0  0
  -25.8616  -15.9553   24.3692 H   0  0  0  0  0  0
  -25.0623  -18.1812   22.6022 H   0  0  0  0  0  0
  -25.5408  -18.6997   21.0193 H   0  0  0  0  0  0
  -27.6124  -22.2278   21.9149 H   0  0  0  0  0  0
  -26.3978  -22.7138   20.7570 H   0  0  0  0  0  0
  -27.3482  -24.5433   23.0169 H   0  0  0  0  0  0
  -26.3268  -24.9803   21.6626 H   0  0  0  0  0  0
  -24.7771  -23.0689   22.6881 H   0  0  0  0  0  0
  -25.9846  -22.4423   23.7820 H   0  0  0  0  0  0
  -28.2683  -24.3258   20.0957 H   0  0  0  0  0  0
  -29.2278  -24.0061   21.5118 H   0  0  0  0  0  0
  -24.7031  -20.9260   21.4434 H   0  0  0  0  0  0
  -24.3234  -20.6835   23.1311 H   0  0  0  0  0  0
  -29.9483  -26.1509   21.1442 H   0  0  0  0  0  0
  -28.5585  -26.6090   22.0860 H   0  0  0  0  0  0
  -30.2818  -14.3270   22.6373 H   0  0  0  0  0  0
  -27.0069  -20.3057   22.0489 H   0  0  0  0  0  0
  -26.4971  -19.8821   23.5313 H   0  0  0  0  0  0
  1 25  1  0  0  0
  1 30  2  0  0  0
  1 85  1  0  0  0
  2  3  1  0  0  0
  2 25  1  0  0  0
  2 89  1  0  0  0
  2 90  1  0  0  0
  3  4  1  0  0  0
  3 91  1  0  0  0
  3 92  1  0  0  0
  4  5  1  0  0  0
  4 93  1  0  0  0
  4 94  1  0  0  0
  5  6  1  0  0  0
  5 26  1  0  0  0
  5 95  1  0  0  0
  6 25  1  0  0  0
  6 96  1  0  0  0
  6 97  1  0  0  0
  7  8  2  0  0  0
  7 26  1  0  0  0
  7 29  1  0  0  0
  8  9  1  0  0  0
  8 22  1  0  0  0
  9 10  1  0  0  0
  9 27  2  0  0  0
 10 11  2  0  0  0
 10 15  1  0  0  0
 11 12  1  0  0  0
 11 98  1  0  0  0
 12 13  2  0  0  0
 12 99  1  0  0  0
 13 14  1  0  0  0
 13 31  1  0  0  0
 14 15  2  0  0  0
 14100  1  0  0  0
 15101  1  0  0  0
 16 17  2  0  0  0
 16 21  1  0  0  0
 16 31  1  0  0  0
 17 18  1  0  0  0
 17102  1  0  0  0
 18 19  2  0  0  0
 18103  1  0  0  0
 19 20  1  0  0  0
 19 24  1  0  0  0
 20 21  2  0  0  0
 20104  1  0  0  0
 21 23  1  0  0  0
 22 28  1  0  0  0
 22 32  2  0  0  0
 26 27  1  0  0  0
 28105  1  0  0  0
 28106  1  0  0  0
 29107  1  0  0  0
 29108  1  0  0  0
 33 34  1  0  0  0
 33 66  1  0  0  0
 33 70  2  0  0  0
 34 36  1  0  0  0
 34 59  1  0  0  0
 34109  1  0  0  0
 35 44  2  0  0  0
 35 45  1  0  0  0
 35 68  1  0  0  0
 36 56  1  0  0  0
 36110  1  0  0  0
 37 39  1  0  0  0
 37 47  1  0  0  0
 37 66  1  0  0  0
 37111  1  0  0  0
 38 43  2  0  0  0
 38 46  1  0  0  0
 38 47  1  0  0  0
 39 64  1  0  0  0
 39 67  2  0  0  0
 40 52  1  0  0  0
 40 53  2  0  0  0
 40 58  1  0  0  0
 41112  1  0  0  0
 41113  1  0  0  0
 41114  1  0  0  0
 41 48  1  0  0  0
 42 43  1  0  0  0
 42 66  1  0  0  0
 42115  1  0  0  0
 42116  1  0  0  0
 43 44  1  0  0  0
 44117  1  0  0  0
 45 46  2  0  0  0
 45118  1  0  0  0
 46119  1  0  0  0
 47120  1  0  0  0
 47121  1  0  0  0
 48 56  1  0  0  0
 48 65  1  0  0  0
 48122  1  0  0  0
 49 50  1  0  0  0
 49 53  1  0  0  0
 49 64  1  0  0  0
 49123  1  0  0  0
 50 51  1  0  0  0
 50124  1  0  0  0
 50125  1  0  0  0
 51 52  1  0  0  0
 51126  1  0  0  0
 51127  1  0  0  0
 52128  1  0  0  0
 52129  1  0  0  0
 53 54  1  0  0  0
 54 55  2  0  0  0
 54130  1  0  0  0
 55 57  1  0  0  0
 55131  1  0  0  0
 56 69  2  0  0  0
 57 58  2  0  0  0
 57132  1  0  0  0
 58133  1  0  0  0
 59 60  1  0  0  0
 59 61  1  0  0  0
 59 62  1  0  0  0
 60134  1  0  0  0
 60135  1  0  0  0
 60136  1  0  0  0
 61137  1  0  0  0
 61138  1  0  0  0
 61139  1  0  0  0
 62140  1  0  0  0
 62141  1  0  0  0
 62142  1  0  0  0
 63 65  1  0  0  0
 63143  1  0  0  0
 63144  1  0  0  0
 63145  1  0  0  0
 64146  1  0  0  0
 65147  1  0  0  0
 68 84  1  0  0  0
 71 72  2  0  0  0
 71 75  1  0  0  0
 71148  1  0  0  0
 72 73  1  0  0  0
 72 78  1  0  0  0
 73 76  2  0  0  0
 73 77  1  0  0  0
 74 75  2  0  0  0
 74 76  1  0  0  0
 74 85  1  0  0  0
 75 87  1  0  0  0
 76 88  1  0  0  0
 77149  1  0  0  0
 77150  1  0  0  0
 77151  1  0  0  0
 78 86  1  0  0  0
 78152  1  0  0  0
 78153  1  0  0  0
 79 80  1  0  0  0
 79 81  1  0  0  0
 79154  1  0  0  0
 79155  1  0  0  0
 80 82  1  0  0  0
 80156  1  0  0  0
 80157  1  0  0  0
 81 83  1  0  0  0
 81158  1  0  0  0
 81159  1  0  0  0
 82 84  1  0  0  0
 82160  1  0  0  0
 82161  1  0  0  0
 83 86  1  0  0  0
 83162  1  0  0  0
 83163  1  0  0  0
 84164  1  0  0  0
 84165  1  0  0  0
 85166  1  0  0  0
 86167  1  0  0  0
 86168  1  0  0  0
M  CHG  1  86   1
M  ISO  4   1 100  68 101  84 101  85 100
M  END
> <chiral flag>
0

> <version>
0

> <s_m_source_file>
/data/baiqing/PycharmProjects/Reinvent-master-3.2/result/LINK_invent/BTK/process_docking_weight1_custom_sum_contain_oxygen_bond_distance_aromatic_linkinvent_7_9_3/rearranged_h_0022.sdf

> <i_m_source_file_index>
71

> <r_mmod_Potential_Energy-OPLS-2005>
-259.118377685547

> <r_mmod_Stretch_Energy-OPLS-2005>
34.2675132751465

> <r_mmod_Bend_Energy-OPLS-2005>
95.2467651367188

> <r_mmod_Torsional_Energy-OPLS-2005>
280.281433105469

> <r_mmod_Improper_Torsional_Energy-OPLS-2005>
8.62371826171875

> <r_mmod_Van_der_Waal_Energy-OPLS-2005>
139.597579956055

> <r_mmod_Electrostatic_Energy-OPLS-2005>
-343.010894775391

> <r_mmod_Solvation_Energy-OPLS-2005>
-482.443420410156

> <b_mmod_Minimization_Converged-OPLS-2005>
0

> <r_mmod_RMS_Derivative-OPLS-2005>
4.8822193145752

$$$$
71
                    3D
 Structure written by MMmdl.
182192  0  0  1  0            999 V2000
  -30.4787  -15.2562   20.3258 C   0  0  0  0  0  0
  -30.4372  -12.8015   19.4880 C   0  0  0  0  0  0
  -29.5216  -12.5468   18.2677 C   0  0  0  0  0  0
  -28.0647  -12.2984   18.7038 C   0  0  0  0  0  0
  -27.5980  -13.2565   19.8318 C   0  0  2  0  0  0
  -28.6653  -13.4512   20.9341 C   0  0  0  0  0  0
  -25.1959  -13.7703   20.5560 C   0  0  0  0  0  0
  -24.1476  -12.9970   20.9306 C   0  0  0  0  0  0
  -24.6344  -11.6605   20.8906 C   0  0  0  0  0  0
  -23.9093  -10.4026   21.0501 C   0  0  0  0  0  0
  -24.3636   -9.3971   21.9276 C   0  0  0  0  0  0
  -23.6255   -8.2060   22.0802 C   0  0  0  0  0  0
  -22.4236   -8.0183   21.3576 C   0  0  0  0  0  0
  -21.9923   -9.0151   20.4664 C   0  0  0  0  0  0
  -22.7298  -10.1978   20.3090 C   0  0  0  0  0  0
  -21.6802   -6.0693   22.5284 C   0  0  0  0  0  0
  -21.3962   -6.5609   23.8216 C   0  0  0  0  0  0
  -21.3647   -5.6781   24.9188 C   0  0  0  0  0  0
  -21.6057   -4.3049   24.7250 C   0  0  0  0  0  0
  -21.8806   -3.8121   23.4373 C   0  0  0  0  0  0
  -21.9161   -4.6927   22.3411 C   0  0  0  0  0  0
  -22.7525  -13.4837   21.1887 C   0  0  0  0  0  0
  -22.1646   -4.2141   21.0994 F   0  0  0  0  0  0
  -21.5652   -3.4516   25.7760 F   0  0  0  0  0  0
  -29.8793  -13.9632   20.2620 N   0  0  0  0  0  0
  -26.2729  -12.9251   20.3402 N   0  0  0  0  0  0
  -25.9354  -11.6377   20.6018 N   0  0  0  0  0  0
  -22.0194  -12.7940   22.0540 N   0  0  0  0  0  0
  -25.2554  -15.1219   20.3441 N   0  0  0  0  0  0
  -31.7169  -15.2040   20.3054 O   0  0  0  0  0  0
  -21.6537   -6.8831   21.4264 O   0  0  0  0  0  0
  -22.3236  -14.5152   20.6713 O   0  0  0  0  0  0
  -24.6529  -31.8346   23.1705 C   0  0  0  0  0  0
  -25.9248  -32.4669   23.8146 C   0  0  1  0  0  0
  -27.2500  -27.0442   20.1511 C   0  0  0  0  0  0
  -25.5928  -33.8463   24.2097 N   0  0  0  0  0  0
  -23.4567  -30.4399   21.5246 C   0  0  2  0  0  0
  -24.9108  -28.8306   20.1201 C   0  0  0  0  0  0
  -22.7573  -29.4511   22.4895 C   0  0  0  0  0  0
  -18.0288  -28.1362   22.8455 C   0  0  0  0  0  0
  -24.1513  -36.7215   23.2655 C   0  0  0  0  0  0
  -26.0155  -30.6752   21.3752 C   0  0  0  0  0  0
  -26.0888  -29.2719   20.7283 C   0  0  0  0  0  0
  -27.2488  -28.3964   20.7216 C   0  0  0  0  0  0
  -26.0337  -26.7091   19.5094 C   0  0  0  0  0  0
  -24.8983  -27.5647   19.5041 C   0  0  0  0  0  0
  -23.6847  -29.7363   20.1557 C   0  0  0  0  0  0
  -25.4158  -36.3017   24.0300 C   0  0  1  0  0  0
  -20.5925  -28.3726   23.1254 C   0  0  2  0  0  0
  -20.6807  -26.9423   22.5419 C   0  0  0  0  0  0
  -19.5788  -26.6352   21.5223 C   0  0  0  0  0  0
  -18.1961  -26.7899   22.1618 C   0  0  0  0  0  0
  -19.1555  -28.8852   23.2828 C   0  0  0  0  0  0
  -18.9479  -30.1450   23.8846 C   0  0  0  0  0  0
  -17.6490  -30.6590   24.0530 C   0  0  0  0  0  0
  -25.9090  -34.9411   23.5032 C   0  0  0  0  0  0
  -16.5364  -29.9070   23.6367 C   0  0  0  0  0  0
  -16.7280  -28.6493   23.0373 C   0  0  0  0  0  0
  -26.4554  -31.6576   25.0616 C   0  0  0  0  0  0
  -25.3678  -31.3493   26.1153 C   0  0  0  0  0  0
  -27.0622  -30.3103   24.6203 C   0  0  0  0  0  0
  -27.5904  -32.4436   25.7649 C   0  0  0  0  0  0
  -27.5600  -37.1789   24.8465 C   0  0  0  0  0  0
  -21.4264  -29.3031   22.3594 N   0  0  0  0  0  0
  -26.4290  -37.3783   23.9417 N   0  0  0  0  0  0
  -24.7288  -31.0075   22.0793 N   0  0  0  0  0  0
  -23.4165  -28.8109   23.3128 O   0  0  0  0  0  0
  -28.3696  -26.1022   20.2221 O   0  0  0  0  0  0
  -26.5739  -34.8955   22.4655 O   0  0  0  0  0  0
  -23.5649  -32.1219   23.6925 O   0  0  0  0  0  0
  -28.2869  -17.9774   21.3367 C   0  0  0  0  0  0
  -30.0048  -19.4167   20.6464 C   0  0  0  0  0  0
  -28.1602  -18.7638   22.5163 C   0  0  0  0  0  0
  -30.4175  -19.4915   22.0010 C   0  0  0  0  0  0
  -29.3497  -19.4455   22.9804 C   0  0  0  0  0  0
  -29.5048  -17.9689   20.6611 C   0  0  0  0  0  0
  -27.2058  -17.1395   20.7214 C   0  0  0  0  0  0
  -27.4581  -16.9524   19.1875 C   0  0  0  0  0  0
  -28.5758  -21.7537   19.2499 C   0  0  0  0  0  0
  -30.0060  -22.2720   21.0572 C   0  0  0  0  0  0
  -27.8350  -23.2544   19.4265 C   0  0  0  0  0  0
  -29.3096  -23.7368   21.2526 C   0  0  0  0  0  0
  -28.8912  -16.4508   18.8357 C   0  0  0  0  0  0
  -29.2009  -20.9712   20.5252 C   0  0  2  0  0  0
  -28.6513  -24.5205   20.0276 C   0  0  2  0  0  0
  -26.7786  -18.7904   23.1716 C   0  0  0  0  0  0
  -31.9084  -19.6156   22.2723 C   0  0  0  0  0  0
  -29.1346  -19.1920   25.5038 C   0  0  0  0  0  0
  -28.3675  -21.3542   24.3597 C   0  0  0  0  0  0
  -30.7470  -20.8542   24.7316 C   0  0  0  0  0  0
  -29.3998  -20.1915   24.3569 C   0  0  0  0  0  0
  -29.7923  -16.5423   19.9953 N   0  0  0  0  0  0
  -31.4522  -13.0012   19.1465 H   0  0  0  0  0  0
  -30.5129  -11.9115   20.1161 H   0  0  0  0  0  0
  -29.8895  -11.6952   17.6938 H   0  0  0  0  0  0
  -29.5634  -13.4063   17.5977 H   0  0  0  0  0  0
  -27.9957  -11.2666   19.0522 H   0  0  0  0  0  0
  -27.3951  -12.3697   17.8441 H   0  0  0  0  0  0
  -27.4692  -14.2128   19.3452 H   0  0  0  0  0  0
  -28.8547  -12.5172   21.4677 H   0  0  0  0  0  0
  -28.3250  -14.1759   21.6747 H   0  0  0  0  0  0
  -25.2773   -9.5409   22.4892 H   0  0  0  0  0  0
  -23.9892   -7.4421   22.7547 H   0  0  0  0  0  0
  -21.0841   -8.8735   19.8962 H   0  0  0  0  0  0
  -22.3833  -10.9566   19.6204 H   0  0  0  0  0  0
  -21.1920   -7.6114   23.9729 H   0  0  0  0  0  0
  -21.1508   -6.0507   25.9110 H   0  0  0  0  0  0
  -22.0598   -2.7589   23.2861 H   0  0  0  0  0  0
  -22.3815  -11.9619   22.4953 H   0  0  0  0  0  0
  -21.0888  -13.1093   22.2824 H   0  0  0  0  0  0
  -24.4280  -15.7051   20.4068 H   0  0  0  0  0  0
  -26.0636  -15.6038   19.9754 H   0  0  0  0  0  0
  -26.7316  -32.5291   23.0864 H   0  0  0  0  0  0
  -24.9833  -33.9527   25.0077 H   0  0  0  0  0  0
  -22.7649  -31.2682   21.3506 H   0  0  0  0  0  0
  -23.3839  -35.9493   23.3299 H   0  0  0  0  0  0
  -24.3535  -36.8880   22.2060 H   0  0  0  0  0  0
  -23.7224  -37.6382   23.6706 H   0  0  0  0  0  0
  -26.1592  -31.4152   20.5858 H   0  0  0  0  0  0
  -26.8857  -30.7421   22.0164 H   0  0  0  0  0  0
  -28.1397  -28.7367   21.2335 H   0  0  0  0  0  0
  -25.9495  -25.7385   19.0417 H   0  0  0  0  0  0
  -23.9860  -27.2194   19.0372 H   0  0  0  0  0  0
  -23.8280  -30.4907   19.3828 H   0  0  0  0  0  0
  -22.7960  -29.1751   19.8572 H   0  0  0  0  0  0
  -25.1395  -36.1774   25.0791 H   0  0  0  0  0  0
  -20.9987  -28.3328   24.1395 H   0  0  0  0  0  0
  -20.5791  -26.2300   23.3610 H   0  0  0  0  0  0
  -21.6656  -26.7480   22.1149 H   0  0  0  0  0  0
  -19.6975  -25.6269   21.1228 H   0  0  0  0  0  0
  -19.6710  -27.3190   20.6762 H   0  0  0  0  0  0
  -17.4238  -26.6626   21.3992 H   0  0  0  0  0  0
  -18.0359  -26.0027   22.9018 H   0  0  0  0  0  0
  -19.7958  -30.7248   24.2219 H   0  0  0  0  0  0
  -17.5051  -31.6268   24.5113 H   0  0  0  0  0  0
  -15.5372  -30.2964   23.7719 H   0  0  0  0  0  0
  -15.8671  -28.0774   22.7161 H   0  0  0  0  0  0
  -24.5773  -30.7092   25.7233 H   0  0  0  0  0  0
  -24.8954  -32.2597   26.4848 H   0  0  0  0  0  0
  -25.7851  -30.8225   26.9750 H   0  0  0  0  0  0
  -27.4189  -29.7419   25.4788 H   0  0  0  0  0  0
  -26.3386  -29.6764   24.1121 H   0  0  0  0  0  0
  -27.9194  -30.4444   23.9588 H   0  0  0  0  0  0
  -27.2350  -33.3798   26.2074 H   0  0  0  0  0  0
  -28.3991  -32.6859   25.0753 H   0  0  0  0  0  0
  -28.0254  -31.8653   26.5842 H   0  0  0  0  0  0
  -28.2645  -38.0076   24.7583 H   0  0  0  0  0  0
  -28.1073  -36.2617   24.6258 H   0  0  0  0  0  0
  -27.2318  -37.1443   25.8867 H   0  0  0  0  0  0
  -20.9523  -29.8598   21.6631 H   0  0  0  0  0  0
  -26.0137  -38.2842   24.1474 H   0  0  0  0  0  0
  -26.2257  -17.5845   20.8926 H   0  0  0  0  0  0
  -27.2576  -16.1953   21.2575 H   0  0  0  0  0  0
  -27.2997  -17.9231   18.7119 H   0  0  0  0  0  0
  -26.7181  -16.3146   18.7035 H   0  0  0  0  0  0
  -29.3586  -21.8541   18.4981 H   0  0  0  0  0  0
  -27.8438  -21.0886   18.7971 H   0  0  0  0  0  0
  -30.4275  -22.0417   22.0294 H   0  0  0  0  0  0
  -30.8812  -22.3977   20.4143 H   0  0  0  0  0  0
  -26.9493  -23.1088   20.0454 H   0  0  0  0  0  0
  -27.4412  -23.5453   18.4545 H   0  0  0  0  0  0
  -30.0646  -24.3960   21.6822 H   0  0  0  0  0  0
  -28.5459  -23.6423   22.0251 H   0  0  0  0  0  0
  -28.8601  -15.4620   18.3846 H   0  0  0  0  0  0
  -29.3144  -17.0793   18.0481 H   0  0  0  0  0  0
  -28.3202  -20.8881   21.1557 H   0  0  0  0  0  0
  -29.4596  -24.6048   19.2993 H   0  0  0  0  0  0
  -26.4385  -17.7787   23.3814 H   0  0  0  0  0  0
  -26.0664  -19.2483   22.4830 H   0  0  0  0  0  0
  -26.6916  -19.3267   24.1016 H   0  0  0  0  0  0
  -32.4829  -19.3080   21.3957 H   0  0  0  0  0  0
  -32.2121  -18.9477   23.0779 H   0  0  0  0  0  0
  -32.2083  -20.6367   22.4924 H   0  0  0  0  0  0
  -29.1301  -19.6877   26.4747 H   0  0  0  0  0  0
  -29.9017  -18.4160   25.5220 H   0  0  0  0  0  0
  -28.1805  -18.6831   25.4337 H   0  0  0  0  0  0
  -27.4009  -21.0926   24.7800 H   0  0  0  0  0  0
  -28.1941  -21.7328   23.3526 H   0  0  0  0  0  0
  -28.6934  -22.2019   24.9587 H   0  0  0  0  0  0
  -31.5577  -20.1349   24.8201 H   0  0  0  0  0  0
  -30.6820  -21.3301   25.7111 H   0  0  0  0  0  0
  -31.0431  -21.6562   24.0570 H   0  0  0  0  0  0
  1 25  1  0  0  0
  1 30  2  0  0  0
  1 92  1  0  0  0
  2  3  1  0  0  0
  2 25  1  0  0  0
  2 93  1  0  0  0
  2 94  1  0  0  0
  3  4  1  0  0  0
  3 95  1  0  0  0
  3 96  1  0  0  0
  4  5  1  0  0  0
  4 97  1  0  0  0
  4 98  1  0  0  0
  5  6  1  0  0  0
  5 26  1  0  0  0
  5 99  1  0  0  0
  6 25  1  0  0  0
  6100  1  0  0  0
  6101  1  0  0  0
  7  8  2  0  0  0
  7 26  1  0  0  0
  7 29  1  0  0  0
  8  9  1  0  0  0
  8 22  1  0  0  0
  9 10  1  0  0  0
  9 27  2  0  0  0
 10 11  2  0  0  0
 10 15  1  0  0  0
 11 12  1  0  0  0
 11102  1  0  0  0
 12 13  2  0  0  0
 12103  1  0  0  0
 13 14  1  0  0  0
 13 31  1  0  0  0
 14 15  2  0  0  0
 14104  1  0  0  0
 15105  1  0  0  0
 16 17  2  0  0  0
 16 21  1  0  0  0
 16 31  1  0  0  0
 17 18  1  0  0  0
 17106  1  0  0  0
 18 19  2  0  0  0
 18107  1  0  0  0
 19 20  1  0  0  0
 19 24  1  0  0  0
 20 21  2  0  0  0
 20108  1  0  0  0
 21 23  1  0  0  0
 22 28  1  0  0  0
 22 32  2  0  0  0
 26 27  1  0  0  0
 28109  1  0  0  0
 28110  1  0  0  0
 29111  1  0  0  0
 29112  1  0  0  0
 33 34  1  0  0  0
 33 66  1  0  0  0
 33 70  2  0  0  0
 34 36  1  0  0  0
 34 59  1  0  0  0
 34113  1  0  0  0
 35 44  2  0  0  0
 35 45  1  0  0  0
 35 68  1  0  0  0
 36 56  1  0  0  0
 36114  1  0  0  0
 37 39  1  0  0  0
 37 47  1  0  0  0
 37 66  1  0  0  0
 37115  1  0  0  0
 38 43  2  0  0  0
 38 46  1  0  0  0
 38 47  1  0  0  0
 39 64  1  0  0  0
 39 67  2  0  0  0
 40 52  1  0  0  0
 40 53  2  0  0  0
 40 58  1  0  0  0
 41116  1  0  0  0
 41117  1  0  0  0
 41118  1  0  0  0
 41 48  1  0  0  0
 42 43  1  0  0  0
 42 66  1  0  0  0
 42119  1  0  0  0
 42120  1  0  0  0
 43 44  1  0  0  0
 44121  1  0  0  0
 45 46  2  0  0  0
 45122  1  0  0  0
 46123  1  0  0  0
 47124  1  0  0  0
 47125  1  0  0  0
 48 56  1  0  0  0
 48 65  1  0  0  0
 48126  1  0  0  0
 49 50  1  0  0  0
 49 53  1  0  0  0
 49 64  1  0  0  0
 49127  1  0  0  0
 50 51  1  0  0  0
 50128  1  0  0  0
 50129  1  0  0  0
 51 52  1  0  0  0
 51130  1  0  0  0
 51131  1  0  0  0
 52132  1  0  0  0
 52133  1  0  0  0
 53 54  1  0  0  0
 54 55  2  0  0  0
 54134  1  0  0  0
 55 57  1  0  0  0
 55135  1  0  0  0
 56 69  2  0  0  0
 57 58  2  0  0  0
 57136  1  0  0  0
 58137  1  0  0  0
 59 60  1  0  0  0
 59 61  1  0  0  0
 59 62  1  0  0  0
 60138  1  0  0  0
 60139  1  0  0  0
 60140  1  0  0  0
 61141  1  0  0  0
 61142  1  0  0  0
 61143  1  0  0  0
 62144  1  0  0  0
 62145  1  0  0  0
 62146  1  0  0  0
 63 65  1  0  0  0
 63147  1  0  0  0
 63148  1  0  0  0
 63149  1  0  0  0
 64150  1  0  0  0
 65151  1  0  0  0
 68 85  1  0  0  0
 71 73  2  0  0  0
 71 76  1  0  0  0
 71 77  1  0  0  0
 72 74  1  0  0  0
 72 76  2  0  0  0
 72 84  1  0  0  0
 73 75  1  0  0  0
 73 86  1  0  0  0
 74 75  2  0  0  0
 74 87  1  0  0  0
 75 91  1  0  0  0
 76 92  1  0  0  0
 77 78  1  0  0  0
 77152  1  0  0  0
 77153  1  0  0  0
 78 83  1  0  0  0
 78154  1  0  0  0
 78155  1  0  0  0
 79 81  1  0  0  0
 79 84  1  0  0  0
 79156  1  0  0  0
 79157  1  0  0  0
 80 82  1  0  0  0
 80 84  1  0  0  0
 80158  1  0  0  0
 80159  1  0  0  0
 81 85  1  0  0  0
 81160  1  0  0  0
 81161  1  0  0  0
 82 85  1  0  0  0
 82162  1  0  0  0
 82163  1  0  0  0
 83 92  1  0  0  0
 83164  1  0  0  0
 83165  1  0  0  0
 84166  1  0  0  0
 85167  1  0  0  0
 86168  1  0  0  0
 86169  1  0  0  0
 86170  1  0  0  0
 87171  1  0  0  0
 87172  1  0  0  0
 87173  1  0  0  0
 88174  1  0  0  0
 88175  1  0  0  0
 88176  1  0  0  0
 88 91  1  0  0  0
 89 91  1  0  0  0
 89177  1  0  0  0
 89178  1  0  0  0
 89179  1  0  0  0
 90 91  1  0  0  0
 90180  1  0  0  0
 90181  1  0  0  0
 90182  1  0  0  0
M  ISO  4   1 100  68 101  85 101  92 100
M  END
> <chiral flag>
0

> <version>
0

> <s_m_source_file>
/data/baiqing/PycharmProjects/Reinvent-master-3.2/result/LINK_invent/BTK/process_docking_weight1_custom_sum_contain_oxygen_bond_distance_aromatic_linkinvent_7_9_3/rearranged_h_0022.sdf

> <i_m_source_file_index>
72

> <r_mmod_Potential_Energy-OPLS-2005>
1870.8271484375

> <r_mmod_Stretch_Energy-OPLS-2005>
465.691467285156

> <r_mmod_Bend_Energy-OPLS-2005>
653.824096679688

> <r_mmod_Torsional_Energy-OPLS-2005>
644.569396972656

> <r_mmod_Improper_Torsional_Energy-OPLS-2005>
45.5665740966797

> <r_mmod_Van_der_Waal_Energy-OPLS-2005>
207.11686706543

> <r_mmod_Electrostatic_Energy-OPLS-2005>
-347.357452392578

> <r_mmod_Solvation_Energy-OPLS-2005>
-177.468826293945

> <b_mmod_Minimization_Converged-OPLS-2005>
0

> <r_mmod_RMS_Derivative-OPLS-2005>
6.62352132797241

$$$$
72
                    3D
 Structure written by MMmdl.
175183  0  0  1  0            999 V2000
  -30.8345  -14.2718   20.7868 C   0  0  0  0  0  0
  -30.4161  -12.2767   19.3956 C   0  0  0  0  0  0
  -29.4894  -12.5468   18.1984 C   0  0  0  0  0  0
  -28.0175  -12.3764   18.6106 C   0  0  0  0  0  0
  -27.6708  -13.1990   19.8751 C   0  0  2  0  0  0
  -28.6978  -12.9441   20.9969 C   0  0  0  0  0  0
  -25.2629  -13.8152   20.5626 C   0  0  0  0  0  0
  -24.1872  -13.0443   20.9129 C   0  0  0  0  0  0
  -24.6408  -11.6899   20.8690 C   0  0  0  0  0  0
  -23.9069  -10.4292   21.0385 C   0  0  0  0  0  0
  -24.3616   -9.4212   21.9171 C   0  0  0  0  0  0
  -23.6293   -8.2252   22.0759 C   0  0  0  0  0  0
  -22.4279   -8.0284   21.3546 C   0  0  0  0  0  0
  -21.9914   -9.0250   20.4640 C   0  0  0  0  0  0
  -22.7242  -10.2125   20.3037 C   0  0  0  0  0  0
  -21.6854   -6.0733   22.5281 C   0  0  0  0  0  0
  -21.4007   -6.5636   23.8214 C   0  0  0  0  0  0
  -21.3653   -5.6790   24.9176 C   0  0  0  0  0  0
  -21.6052   -4.3054   24.7229 C   0  0  0  0  0  0
  -21.8825   -3.8144   23.4349 C   0  0  0  0  0  0
  -21.9191   -4.6960   22.3403 C   0  0  0  0  0  0
  -22.7894  -13.5242   21.1814 C   0  0  0  0  0  0
  -22.1666   -4.2146   21.0981 F   0  0  0  0  0  0
  -21.5627   -3.4539   25.7743 F   0  0  0  0  0  0
  -30.0641  -13.1905   20.4925 N   0  0  0  0  0  0
  -26.3066  -12.9311   20.3315 N   0  0  0  0  0  0
  -25.9330  -11.6471   20.5708 N   0  0  0  0  0  0
  -22.0537  -12.8234   22.0366 N   0  0  0  0  0  0
  -25.4384  -15.1869   20.4045 N   0  0  0  0  0  0
  -31.7040  -14.6889   20.0157 O   0  0  0  0  0  0
  -21.6641   -6.8882   21.4246 O   0  0  0  0  0  0
  -22.3570  -14.5548   20.6661 O   0  0  0  0  0  0
  -24.6104  -31.8688   23.2139 C   0  0  0  0  0  0
  -25.9015  -32.4827   23.8416 C   0  0  1  0  0  0
  -27.2350  -27.4782   20.0908 C   0  0  0  0  0  0
  -25.5894  -33.8620   24.2366 N   0  0  0  0  0  0
  -23.3958  -30.4921   21.5520 C   0  0  2  0  0  0
  -24.8429  -28.9628   20.1152 C   0  0  0  0  0  0
  -22.7384  -29.4662   22.5010 C   0  0  0  0  0  0
  -18.0259  -28.1374   22.8493 C   0  0  0  0  0  0
  -24.1458  -36.7297   23.2661 C   0  0  0  0  0  0
  -25.9169  -30.8525   21.3535 C   0  0  0  0  0  0
  -25.9973  -29.4851   20.7125 C   0  0  0  0  0  0
  -27.1977  -28.7465   20.7050 C   0  0  0  0  0  0
  -26.0728  -26.9611   19.4859 C   0  0  0  0  0  0
  -24.8722  -27.6971   19.5015 C   0  0  0  0  0  0
  -23.6012  -29.8226   20.1660 C   0  0  0  0  0  0
  -25.4085  -36.3105   24.0359 C   0  0  1  0  0  0
  -20.5847  -28.3644   23.1325 C   0  0  2  0  0  0
  -20.6747  -26.9385   22.5407 C   0  0  0  0  0  0
  -19.5721  -26.6375   21.5206 C   0  0  0  0  0  0
  -18.1896  -26.7924   22.1612 C   0  0  0  0  0  0
  -19.1511  -28.8825   23.2899 C   0  0  0  0  0  0
  -18.9440  -30.1437   23.8902 C   0  0  0  0  0  0
  -17.6451  -30.6581   24.0558 C   0  0  0  0  0  0
  -25.9004  -34.9471   23.5142 C   0  0  0  0  0  0
  -16.5337  -29.9082   23.6321 C   0  0  0  0  0  0
  -16.7252  -28.6499   23.0349 C   0  0  0  0  0  0
  -26.4496  -31.6594   25.0706 C   0  0  0  0  0  0
  -25.3805  -31.3591   26.1469 C   0  0  0  0  0  0
  -27.0396  -30.3100   24.5976 C   0  0  0  0  0  0
  -27.6046  -32.4346   25.7486 C   0  0  0  0  0  0
  -27.5554  -37.1816   24.8486 C   0  0  0  0  0  0
  -21.4118  -29.3025   22.3754 N   0  0  0  0  0  0
  -26.4270  -37.3787   23.9423 N   0  0  0  0  0  0
  -24.6598  -31.0838   22.1004 N   0  0  0  0  0  0
  -23.4170  -28.8200   23.3035 O   0  0  0  0  0  0
  -28.3935  -26.7514   20.0524 O   0  0  0  0  0  0
  -26.5545  -34.8922   22.4690 O   0  0  0  0  0  0
  -23.5311  -32.1416   23.7561 O   0  0  0  0  0  0
  -29.3370  -18.6126   17.9817 C   0  0  0  0  0  0
  -29.0655  -19.3109   19.1760 C   0  0  0  0  0  0
  -30.0708  -19.3560   20.1689 C   0  0  0  0  0  0
  -30.5915  -17.9947   17.8244 C   0  0  0  0  0  0
  -31.2963  -18.7066   19.9138 C   0  0  0  0  0  0
  -30.9318  -17.2278   16.5654 C   0  0  0  0  0  0
  -30.5537  -14.0682   23.2465 C   0  0  0  0  0  0
  -27.7371  -20.0315   19.3584 C   0  0  0  0  0  0
  -27.8686  -21.5406   19.0657 C   0  0  0  0  0  0
  -27.4920  -22.4537   20.2454 C   0  0  0  0  0  0
  -28.2026  -23.8125   20.1577 C   0  0  0  0  0  0
  -27.9051  -24.7360   21.3481 C   0  0  0  0  0  0
  -32.1606  -16.8077   22.4834 C   0  0  0  0  0  0
  -32.8820  -17.4555   21.2829 C   0  0  0  0  0  0
  -30.7230  -16.2935   22.2166 C   0  0  0  0  0  0
  -28.6844  -26.0601   21.2637 C   0  0  0  0  0  0
  -31.5573  -18.0454   18.7667 N   0  0  0  0  0  0
  -32.2904  -18.7325   20.8947 N   0  0  0  0  0  0
  -30.6265  -14.8446   21.9999 N   0  0  0  0  0  0
  -29.8211  -20.1668   21.6802 Cl  0  0  0  0  0  0
  -31.4620  -12.3720   19.0972 H   0  0  0  0  0  0
  -30.3045  -11.2459   19.7366 H   0  0  0  0  0  0
  -29.7307  -11.8725   17.3758 H   0  0  0  0  0  0
  -29.6565  -13.5593   17.8274 H   0  0  0  0  0  0
  -27.8408  -11.3155   18.7965 H   0  0  0  0  0  0
  -27.3611  -12.6566   17.7868 H   0  0  0  0  0  0
  -27.7342  -14.2528   19.6019 H   0  0  0  0  0  0
  -28.6340  -11.9157   21.3541 H   0  0  0  0  0  0
  -28.4270  -13.5720   21.8432 H   0  0  0  0  0  0
  -25.2764   -9.5692   22.4733 H   0  0  0  0  0  0
  -24.0003   -7.4652   22.7486 H   0  0  0  0  0  0
  -21.0849   -8.8752   19.8943 H   0  0  0  0  0  0
  -22.3703  -10.9651   19.6129 H   0  0  0  0  0  0
  -21.1994   -7.6142   23.9718 H   0  0  0  0  0  0
  -21.1468   -6.0515   25.9079 H   0  0  0  0  0  0
  -22.0606   -2.7604   23.2850 H   0  0  0  0  0  0
  -22.4165  -11.9896   22.4749 H   0  0  0  0  0  0
  -21.1152  -13.1247   22.2572 H   0  0  0  0  0  0
  -24.6741  -15.8463   20.5046 H   0  0  0  0  0  0
  -26.3038  -15.6235   20.1123 H   0  0  0  0  0  0
  -26.7083  -32.5576   23.1192 H   0  0  0  0  0  0
  -25.0167  -33.9794   25.0597 H   0  0  0  0  0  0
  -22.6828  -31.3072   21.4135 H   0  0  0  0  0  0
  -23.3712  -35.9634   23.3344 H   0  0  0  0  0  0
  -24.3552  -36.8891   22.2072 H   0  0  0  0  0  0
  -23.7211  -37.6503   23.6671 H   0  0  0  0  0  0
  -26.0061  -31.6120   20.5747 H   0  0  0  0  0  0
  -26.8157  -30.9248   21.9541 H   0  0  0  0  0  0
  -28.0941  -29.1466   21.1582 H   0  0  0  0  0  0
  -26.0964  -25.9914   19.0095 H   0  0  0  0  0  0
  -23.9860  -27.2882   19.0349 H   0  0  0  0  0  0
  -23.7030  -30.5969   19.4049 H   0  0  0  0  0  0
  -22.7280  -29.2363   19.8719 H   0  0  0  0  0  0
  -25.1257  -36.1979   25.0850 H   0  0  0  0  0  0
  -20.9925  -28.3188   24.1449 H   0  0  0  0  0  0
  -20.5655  -26.2237   23.3580 H   0  0  0  0  0  0
  -21.6612  -26.7446   22.1189 H   0  0  0  0  0  0
  -19.6866  -25.6284   21.1224 H   0  0  0  0  0  0
  -19.6655  -27.3188   20.6735 H   0  0  0  0  0  0
  -17.4165  -26.6686   21.4006 H   0  0  0  0  0  0
  -18.0289  -26.0058   22.8999 H   0  0  0  0  0  0
  -19.7922  -30.7244   24.2266 H   0  0  0  0  0  0
  -17.5007  -31.6269   24.5139 H   0  0  0  0  0  0
  -15.5336  -30.2989   23.7635 H   0  0  0  0  0  0
  -15.8654  -28.0816   22.7074 H   0  0  0  0  0  0
  -24.6018  -30.6889   25.7802 H   0  0  0  0  0  0
  -24.8938  -32.2685   26.4998 H   0  0  0  0  0  0
  -25.8227  -30.8735   27.0179 H   0  0  0  0  0  0
  -26.2912  -29.6738   24.1230 H   0  0  0  0  0  0
  -27.4501  -29.7430   25.4339 H   0  0  0  0  0  0
  -27.8561  -30.4517   23.8889 H   0  0  0  0  0  0
  -27.2653  -33.3661   26.2034 H   0  0  0  0  0  0
  -28.3884  -32.6892   25.0340 H   0  0  0  0  0  0
  -28.0679  -31.8490   26.5434 H   0  0  0  0  0  0
  -28.2588  -38.0099   24.7520 H   0  0  0  0  0  0
  -28.1036  -36.2628   24.6343 H   0  0  0  0  0  0
  -27.2268  -37.1504   25.8892 H   0  0  0  0  0  0
  -20.9271  -29.8773   21.7009 H   0  0  0  0  0  0
  -26.0145  -38.2854   24.1439 H   0  0  0  0  0  0
  -28.5969  -18.5610   17.1941 H   0  0  0  0  0  0
  -30.1689  -17.3665   15.7995 H   0  0  0  0  0  0
  -31.0066  -16.1610   16.7786 H   0  0  0  0  0  0
  -31.8849  -17.5641   16.1556 H   0  0  0  0  0  0
  -29.5790  -14.1932   23.7204 H   0  0  0  0  0  0
  -31.3073  -14.4028   23.9595 H   0  0  0  0  0  0
  -30.7178  -13.0006   23.0910 H   0  0  0  0  0  0
  -27.3599  -19.8472   20.3653 H   0  0  0  0  0  0
  -26.9953  -19.5911   18.6906 H   0  0  0  0  0  0
  -27.2630  -21.8006   18.1971 H   0  0  0  0  0  0
  -28.8966  -21.7515   18.7662 H   0  0  0  0  0  0
  -27.7671  -21.9828   21.1890 H   0  0  0  0  0  0
  -26.4094  -22.5870   20.2778 H   0  0  0  0  0  0
  -27.9217  -24.3092   19.2292 H   0  0  0  0  0  0
  -29.2806  -23.6524   20.1019 H   0  0  0  0  0  0
  -28.1734  -24.2307   22.2774 H   0  0  0  0  0  0
  -26.8341  -24.9301   21.4116 H   0  0  0  0  0  0
  -32.1235  -17.5355   23.2962 H   0  0  0  0  0  0
  -32.7778  -15.9950   22.8687 H   0  0  0  0  0  0
  -32.9419  -16.7673   20.4422 H   0  0  0  0  0  0
  -33.9164  -17.6548   21.5660 H   0  0  0  0  0  0
  -30.2565  -16.8045   21.3770 H   0  0  0  0  0  0
  -30.0946  -16.5494   23.0713 H   0  0  0  0  0  0
  -29.7561  -25.8584   21.2867 H   0  0  0  0  0  0
  -28.4713  -26.6793   22.1372 H   0  0  0  0  0  0
  -31.9963  -19.3032   21.6803 H   0  0  0  0  0  0
  1 25  1  0  0  0
  1 30  2  0  0  0
  1 89  1  0  0  0
  2  3  1  0  0  0
  2 25  1  0  0  0
  2 91  1  0  0  0
  2 92  1  0  0  0
  3  4  1  0  0  0
  3 93  1  0  0  0
  3 94  1  0  0  0
  4  5  1  0  0  0
  4 95  1  0  0  0
  4 96  1  0  0  0
  5  6  1  0  0  0
  5 26  1  0  0  0
  5 97  1  0  0  0
  6 25  1  0  0  0
  6 98  1  0  0  0
  6 99  1  0  0  0
  7  8  2  0  0  0
  7 26  1  0  0  0
  7 29  1  0  0  0
  8  9  1  0  0  0
  8 22  1  0  0  0
  9 10  1  0  0  0
  9 27  2  0  0  0
 10 11  2  0  0  0
 10 15  1  0  0  0
 11 12  1  0  0  0
 11100  1  0  0  0
 12 13  2  0  0  0
 12101  1  0  0  0
 13 14  1  0  0  0
 13 31  1  0  0  0
 14 15  2  0  0  0
 14102  1  0  0  0
 15103  1  0  0  0
 16 17  2  0  0  0
 16 21  1  0  0  0
 16 31  1  0  0  0
 17 18  1  0  0  0
 17104  1  0  0  0
 18 19  2  0  0  0
 18105  1  0  0  0
 19 20  1  0  0  0
 19 24  1  0  0  0
 20 21  2  0  0  0
 20106  1  0  0  0
 21 23  1  0  0  0
 22 28  1  0  0  0
 22 32  2  0  0  0
 26 27  1  0  0  0
 28107  1  0  0  0
 28108  1  0  0  0
 29109  1  0  0  0
 29110  1  0  0  0
 33 34  1  0  0  0
 33 66  1  0  0  0
 33 70  2  0  0  0
 34 36  1  0  0  0
 34 59  1  0  0  0
 34111  1  0  0  0
 35 44  2  0  0  0
 35 45  1  0  0  0
 35 68  1  0  0  0
 36 56  1  0  0  0
 36112  1  0  0  0
 37 39  1  0  0  0
 37 47  1  0  0  0
 37 66  1  0  0  0
 37113  1  0  0  0
 38 43  2  0  0  0
 38 46  1  0  0  0
 38 47  1  0  0  0
 39 64  1  0  0  0
 39 67  2  0  0  0
 40 52  1  0  0  0
 40 53  2  0  0  0
 40 58  1  0  0  0
 41114  1  0  0  0
 41115  1  0  0  0
 41116  1  0  0  0
 41 48  1  0  0  0
 42 43  1  0  0  0
 42 66  1  0  0  0
 42117  1  0  0  0
 42118  1  0  0  0
 43 44  1  0  0  0
 44119  1  0  0  0
 45 46  2  0  0  0
 45120  1  0  0  0
 46121  1  0  0  0
 47122  1  0  0  0
 47123  1  0  0  0
 48 56  1  0  0  0
 48 65  1  0  0  0
 48124  1  0  0  0
 49 50  1  0  0  0
 49 53  1  0  0  0
 49 64  1  0  0  0
 49125  1  0  0  0
 50 51  1  0  0  0
 50126  1  0  0  0
 50127  1  0  0  0
 51 52  1  0  0  0
 51128  1  0  0  0
 51129  1  0  0  0
 52130  1  0  0  0
 52131  1  0  0  0
 53 54  1  0  0  0
 54 55  2  0  0  0
 54132  1  0  0  0
 55 57  1  0  0  0
 55133  1  0  0  0
 56 69  2  0  0  0
 57 58  2  0  0  0
 57134  1  0  0  0
 58135  1  0  0  0
 59 60  1  0  0  0
 59 61  1  0  0  0
 59 62  1  0  0  0
 60136  1  0  0  0
 60137  1  0  0  0
 60138  1  0  0  0
 61139  1  0  0  0
 61140  1  0  0  0
 61141  1  0  0  0
 62142  1  0  0  0
 62143  1  0  0  0
 62144  1  0  0  0
 63 65  1  0  0  0
 63145  1  0  0  0
 63146  1  0  0  0
 63147  1  0  0  0
 64148  1  0  0  0
 65149  1  0  0  0
 68 86  1  0  0  0
 71 72  2  0  0  0
 71 74  1  0  0  0
 71150  1  0  0  0
 72 73  1  0  0  0
 72 78  1  0  0  0
 73 75  2  0  0  0
 73 90  1  0  0  0
 74 76  1  0  0  0
 74 87  2  0  0  0
 75 87  1  0  0  0
 75 88  1  0  0  0
 76151  1  0  0  0
 76152  1  0  0  0
 76153  1  0  0  0
 77 89  1  0  0  0
 77154  1  0  0  0
 77155  1  0  0  0
 77156  1  0  0  0
 78 79  1  0  0  0
 78157  1  0  0  0
 78158  1  0  0  0
 79 80  1  0  0  0
 79159  1  0  0  0
 79160  1  0  0  0
 80 81  1  0  0  0
 80161  1  0  0  0
 80162  1  0  0  0
 81 82  1  0  0  0
 81163  1  0  0  0
 81164  1  0  0  0
 82 86  1  0  0  0
 82165  1  0  0  0
 82166  1  0  0  0
 83 84  1  0  0  0
 83 85  1  0  0  0
 83167  1  0  0  0
 83168  1  0  0  0
 84 88  1  0  0  0
 84169  1  0  0  0
 84170  1  0  0  0
 85 89  1  0  0  0
 85171  1  0  0  0
 85172  1  0  0  0
 86173  1  0  0  0
 86174  1  0  0  0
 88175  1  0  0  0
M  ISO  4   1 100  68 101  86 101  89 100
M  END
> <chiral flag>
0

> <version>
0

> <s_m_source_file>
/data/baiqing/PycharmProjects/Reinvent-master-3.2/result/LINK_invent/BTK/process_docking_weight1_custom_sum_contain_oxygen_bond_distance_aromatic_linkinvent_7_9_3/rearranged_h_0022.sdf

> <i_m_source_file_index>
73

> <r_mmod_Potential_Energy-OPLS-2005>
-15.0567188262939

> <r_mmod_Stretch_Energy-OPLS-2005>
33.8674926757812

> <r_mmod_Bend_Energy-OPLS-2005>
93.091438293457

> <r_mmod_Torsional_Energy-OPLS-2005>
332.110992431641

> <r_mmod_Improper_Torsional_Energy-OPLS-2005>
6.67486572265625

> <r_mmod_Van_der_Waal_Energy-OPLS-2005>
149.642593383789

> <r_mmod_Electrostatic_Energy-OPLS-2005>
-430.121490478516

> <r_mmod_Solvation_Energy-OPLS-2005>
-209.862030029297

> <b_mmod_Minimization_Converged-OPLS-2005>
0

> <r_mmod_RMS_Derivative-OPLS-2005>
1.73334133625031

$$$$
73
                    3D
 Structure written by MMmdl.
155163  0  0  1  0            999 V2000
  -30.5462  -14.9631   20.4248 C   0  0  0  0  0  0
  -30.4374  -12.5995   19.4984 C   0  0  0  0  0  0
  -29.5200  -12.5313   18.2561 C   0  0  0  0  0  0
  -28.0542  -12.3152   18.6757 C   0  0  0  0  0  0
  -27.6277  -13.2514   19.8367 C   0  0  2  0  0  0
  -28.6707  -13.2911   20.9739 C   0  0  0  0  0  0
  -25.2451  -13.8224   20.5712 C   0  0  0  0  0  0
  -24.1774  -13.0440   20.9232 C   0  0  0  0  0  0
  -24.6397  -11.6928   20.8757 C   0  0  0  0  0  0
  -23.9083  -10.4295   21.0407 C   0  0  0  0  0  0
  -24.3630   -9.4208   21.9184 C   0  0  0  0  0  0
  -23.6301   -8.2245   22.0753 C   0  0  0  0  0  0
  -22.4282   -8.0284   21.3543 C   0  0  0  0  0  0
  -21.9922   -9.0258   20.4645 C   0  0  0  0  0  0
  -22.7254  -10.2136   20.3056 C   0  0  0  0  0  0
  -21.6856   -6.0738   22.5278 C   0  0  0  0  0  0
  -21.4017   -6.5641   23.8212 C   0  0  0  0  0  0
  -21.3660   -5.6792   24.9174 C   0  0  0  0  0  0
  -21.6044   -4.3055   24.7224 C   0  0  0  0  0  0
  -21.8819   -3.8147   23.4345 C   0  0  0  0  0  0
  -21.9194   -4.6965   22.3401 C   0  0  0  0  0  0
  -22.7793  -13.5205   21.1886 C   0  0  0  0  0  0
  -22.1661   -4.2151   21.0979 F   0  0  0  0  0  0
  -21.5629   -3.4538   25.7735 F   0  0  0  0  0  0
  -29.9434  -13.7056   20.3703 N   0  0  0  0  0  0
  -26.2878  -12.9463   20.3243 N   0  0  0  0  0  0
  -25.9330  -11.6588   20.5742 N   0  0  0  0  0  0
  -22.0447  -12.8191   22.0442 N   0  0  0  0  0  0
  -25.4090  -15.1954   20.4134 N   0  0  0  0  0  0
  -31.7464  -15.0062   20.1415 O   0  0  0  0  0  0
  -21.6644   -6.8882   21.4240 O   0  0  0  0  0  0
  -22.3470  -14.5506   20.6727 O   0  0  0  0  0  0
  -24.6452  -31.8420   23.1866 C   0  0  0  0  0  0
  -25.9216  -32.4683   23.8262 C   0  0  1  0  0  0
  -27.2156  -27.1163   20.1533 C   0  0  0  0  0  0
  -25.5956  -33.8490   24.2176 N   0  0  0  0  0  0
  -23.4497  -30.4609   21.5324 C   0  0  2  0  0  0
  -24.8994  -28.8848   20.1086 C   0  0  0  0  0  0
  -22.7577  -29.4536   22.4851 C   0  0  0  0  0  0
  -18.0306  -28.1395   22.8476 C   0  0  0  0  0  0
  -24.1492  -36.7251   23.2643 C   0  0  0  0  0  0
  -26.0071  -30.7091   21.3889 C   0  0  0  0  0  0
  -26.0773  -29.3187   20.7298 C   0  0  0  0  0  0
  -27.2356  -28.4507   20.7349 C   0  0  0  0  0  0
  -26.0127  -26.7908   19.4882 C   0  0  0  0  0  0
  -24.8813  -27.6353   19.4715 C   0  0  0  0  0  0
  -23.6771  -29.7895   20.1519 C   0  0  0  0  0  0
  -25.4125  -36.3025   24.0314 C   0  0  1  0  0  0
  -20.5920  -28.3723   23.1230 C   0  0  2  0  0  0
  -20.6789  -26.9424   22.5403 C   0  0  0  0  0  0
  -19.5763  -26.6380   21.5212 C   0  0  0  0  0  0
  -18.1945  -26.7933   22.1624 C   0  0  0  0  0  0
  -19.1563  -28.8878   23.2845 C   0  0  0  0  0  0
  -18.9479  -30.1473   23.8871 C   0  0  0  0  0  0
  -17.6475  -30.6592   24.0558 C   0  0  0  0  0  0
  -25.9077  -34.9401   23.5056 C   0  0  0  0  0  0
  -16.5366  -29.9083   23.6337 C   0  0  0  0  0  0
  -16.7290  -28.6502   23.0358 C   0  0  0  0  0  0
  -26.4530  -31.6561   25.0714 C   0  0  0  0  0  0
  -25.3706  -31.3757   26.1404 C   0  0  0  0  0  0
  -27.0403  -30.2954   24.6316 C   0  0  0  0  0  0
  -27.6051  -32.4337   25.7504 C   0  0  0  0  0  0
  -27.5575  -37.1783   24.8466 C   0  0  0  0  0  0
  -21.4267  -29.3046   22.3601 N   0  0  0  0  0  0
  -26.4286  -37.3741   23.9408 N   0  0  0  0  0  0
  -24.7205  -31.0258   22.0908 N   0  0  0  0  0  0
  -23.4212  -28.8088   23.3012 O   0  0  0  0  0  0
  -28.2583  -26.1147   20.2369 O   0  0  0  0  0  0
  -26.5666  -34.8903   22.4637 O   0  0  0  0  0  0
  -23.5567  -32.1306   23.7075 O   0  0  0  0  0  0
  -30.7216  -20.4632   21.0191 C   0  0  0  0  0  0
  -29.4656  -20.2569   20.4343 C   0  0  0  0  0  0
  -30.0641  -17.6766   20.6682 C   0  0  0  0  0  0
  -29.1635  -18.7999   20.2793 C   0  0  0  0  0  0
  -31.2475  -18.1641   21.2903 C   0  0  0  0  0  0
  -32.2715  -17.2699   21.9659 C   0  0  0  0  0  0
  -28.3778  -21.5625   18.4791 C   0  0  0  0  0  0
  -28.9335  -23.2241   20.3942 C   0  0  0  0  0  0
  -27.9833  -24.5871   20.0137 C   0  0  0  0  0  0
  -28.5776  -21.6001   20.0037 C   0  0  2  0  0  0
  -31.5520  -19.4784   21.4299 N   0  0  0  0  0  0
  -29.7698  -16.1573   20.5567 N   0  0  0  0  0  0
  -27.6333  -18.3492   19.6160 Cl  0  0  0  0  0  0
  -31.4711  -12.7537   19.1849 H   0  0  0  0  0  0
  -30.4302  -11.6514   20.0386 H   0  0  0  0  0  0
  -29.8416  -11.7299   17.5897 H   0  0  0  0  0  0
  -29.6055  -13.4580   17.6863 H   0  0  0  0  0  0
  -27.9533  -11.2749   18.9872 H   0  0  0  0  0  0
  -27.3902  -12.4421   17.8198 H   0  0  0  0  0  0
  -27.5864  -14.2509   19.4030 H   0  0  0  0  0  0
  -28.7619  -12.3190   21.4608 H   0  0  0  0  0  0
  -28.3680  -13.9989   21.7474 H   0  0  0  0  0  0
  -25.2774   -9.5684   22.4761 H   0  0  0  0  0  0
  -24.0009   -7.4636   22.7472 H   0  0  0  0  0  0
  -21.0853   -8.8780   19.8951 H   0  0  0  0  0  0
  -22.3712  -10.9676   19.6166 H   0  0  0  0  0  0
  -21.2009   -7.6148   23.9716 H   0  0  0  0  0  0
  -21.1482   -6.0522   25.9077 H   0  0  0  0  0  0
  -22.0598   -2.7609   23.2843 H   0  0  0  0  0  0
  -22.4074  -11.9860   22.4836 H   0  0  0  0  0  0
  -21.1059  -13.1202   22.2645 H   0  0  0  0  0  0
  -24.6341  -15.8400   20.5244 H   0  0  0  0  0  0
  -26.2418  -15.6428   20.0550 H   0  0  0  0  0  0
  -26.7281  -32.5281   23.0987 H   0  0  0  0  0  0
  -25.0074  -33.9601   25.0305 H   0  0  0  0  0  0
  -22.7532  -31.2875   21.3769 H   0  0  0  0  0  0
  -23.3759  -35.9577   23.3290 H   0  0  0  0  0  0
  -24.3575  -36.8900   22.2061 H   0  0  0  0  0  0
  -23.7243  -37.6440   23.6692 H   0  0  0  0  0  0
  -26.1663  -31.4628   20.6165 H   0  0  0  0  0  0
  -26.8760  -30.7585   22.0334 H   0  0  0  0  0  0
  -28.1306  -28.7764   21.2462 H   0  0  0  0  0  0
  -25.9105  -25.8363   18.9943 H   0  0  0  0  0  0
  -23.9831  -27.2989   18.9720 H   0  0  0  0  0  0
  -23.8151  -30.5637   19.3962 H   0  0  0  0  0  0
  -22.7912  -29.2329   19.8408 H   0  0  0  0  0  0
  -25.1315  -36.1847   25.0805 H   0  0  0  0  0  0
  -21.0011  -28.3314   24.1352 H   0  0  0  0  0  0
  -20.5680  -26.2338   23.3625 H   0  0  0  0  0  0
  -21.6655  -26.7426   22.1203 H   0  0  0  0  0  0
  -19.6923  -25.6284   21.1259 H   0  0  0  0  0  0
  -19.6699  -27.3175   20.6730 H   0  0  0  0  0  0
  -17.4213  -26.6676   21.4028 H   0  0  0  0  0  0
  -18.0344  -26.0080   22.9026 H   0  0  0  0  0  0
  -19.7955  -30.7296   24.2229 H   0  0  0  0  0  0
  -17.5028  -31.6269   24.5164 H   0  0  0  0  0  0
  -15.5365  -30.2976   23.7676 H   0  0  0  0  0  0
  -15.8691  -28.0811   22.7088 H   0  0  0  0  0  0
  -24.5894  -30.7097   25.7723 H   0  0  0  0  0  0
  -24.8887  -32.2942   26.4765 H   0  0  0  0  0  0
  -25.7983  -30.8973   27.0223 H   0  0  0  0  0  0
  -26.3029  -29.6667   24.1312 H   0  0  0  0  0  0
  -27.3994  -29.7265   25.4903 H   0  0  0  0  0  0
  -27.8945  -30.4185   23.9655 H   0  0  0  0  0  0
  -27.2636  -33.3658   26.2016 H   0  0  0  0  0  0
  -28.3897  -32.6864   25.0358 H   0  0  0  0  0  0
  -28.0681  -31.8506   26.5475 H   0  0  0  0  0  0
  -28.2584  -38.0087   24.7511 H   0  0  0  0  0  0
  -28.1079  -36.2616   24.6295 H   0  0  0  0  0  0
  -27.2292  -37.1431   25.8869 H   0  0  0  0  0  0
  -20.9481  -29.8756   21.6774 H   0  0  0  0  0  0
  -26.0150  -38.2808   24.1408 H   0  0  0  0  0  0
  -31.0811  -21.4680   21.1848 H   0  0  0  0  0  0
  -31.7981  -16.4278   22.4683 H   0  0  0  0  0  0
  -32.8264  -17.8138   22.7311 H   0  0  0  0  0  0
  -32.9975  -16.9027   21.2418 H   0  0  0  0  0  0
  -27.9518  -20.6200   18.1400 H   0  0  0  0  0  0
  -29.3245  -21.7021   17.9565 H   0  0  0  0  0  0
  -27.6981  -22.3454   18.1447 H   0  0  0  0  0  0
  -29.0766  -23.2550   21.4744 H   0  0  0  0  0  0
  -29.9218  -23.4273   19.9818 H   0  0  0  0  0  0
  -27.0210  -24.3947   20.4889 H   0  0  0  0  0  0
  -27.7871  -24.5117   18.9446 H   0  0  0  0  0  0
  -27.6003  -21.4129   20.4506 H   0  0  0  0  0  0
  -28.7821  -15.9520   20.5552 H   0  0  0  0  0  0
  1 25  1  0  0  0
  1 30  2  0  0  0
  1 82  1  0  0  0
  2  3  1  0  0  0
  2 25  1  0  0  0
  2 84  1  0  0  0
  2 85  1  0  0  0
  3  4  1  0  0  0
  3 86  1  0  0  0
  3 87  1  0  0  0
  4  5  1  0  0  0
  4 88  1  0  0  0
  4 89  1  0  0  0
  5  6  1  0  0  0
  5 26  1  0  0  0
  5 90  1  0  0  0
  6 25  1  0  0  0
  6 91  1  0  0  0
  6 92  1  0  0  0
  7  8  2  0  0  0
  7 26  1  0  0  0
  7 29  1  0  0  0
  8  9  1  0  0  0
  8 22  1  0  0  0
  9 10  1  0  0  0
  9 27  2  0  0  0
 10 11  2  0  0  0
 10 15  1  0  0  0
 11 12  1  0  0  0
 11 93  1  0  0  0
 12 13  2  0  0  0
 12 94  1  0  0  0
 13 14  1  0  0  0
 13 31  1  0  0  0
 14 15  2  0  0  0
 14 95  1  0  0  0
 15 96  1  0  0  0
 16 17  2  0  0  0
 16 21  1  0  0  0
 16 31  1  0  0  0
 17 18  1  0  0  0
 17 97  1  0  0  0
 18 19  2  0  0  0
 18 98  1  0  0  0
 19 20  1  0  0  0
 19 24  1  0  0  0
 20 21  2  0  0  0
 20 99  1  0  0  0
 21 23  1  0  0  0
 22 28  1  0  0  0
 22 32  2  0  0  0
 26 27  1  0  0  0
 28100  1  0  0  0
 28101  1  0  0  0
 29102  1  0  0  0
 29103  1  0  0  0
 33 34  1  0  0  0
 33 66  1  0  0  0
 33 70  2  0  0  0
 34 36  1  0  0  0
 34 59  1  0  0  0
 34104  1  0  0  0
 35 44  2  0  0  0
 35 45  1  0  0  0
 35 68  1  0  0  0
 36 56  1  0  0  0
 36105  1  0  0  0
 37 39  1  0  0  0
 37 47  1  0  0  0
 37 66  1  0  0  0
 37106  1  0  0  0
 38 43  2  0  0  0
 38 46  1  0  0  0
 38 47  1  0  0  0
 39 64  1  0  0  0
 39 67  2  0  0  0
 40 52  1  0  0  0
 40 53  2  0  0  0
 40 58  1  0  0  0
 41107  1  0  0  0
 41108  1  0  0  0
 41109  1  0  0  0
 41 48  1  0  0  0
 42 43  1  0  0  0
 42 66  1  0  0  0
 42110  1  0  0  0
 42111  1  0  0  0
 43 44  1  0  0  0
 44112  1  0  0  0
 45 46  2  0  0  0
 45113  1  0  0  0
 46114  1  0  0  0
 47115  1  0  0  0
 47116  1  0  0  0
 48 56  1  0  0  0
 48 65  1  0  0  0
 48117  1  0  0  0
 49 50  1  0  0  0
 49 53  1  0  0  0
 49 64  1  0  0  0
 49118  1  0  0  0
 50 51  1  0  0  0
 50119  1  0  0  0
 50120  1  0  0  0
 51 52  1  0  0  0
 51121  1  0  0  0
 51122  1  0  0  0
 52123  1  0  0  0
 52124  1  0  0  0
 53 54  1  0  0  0
 54 55  2  0  0  0
 54125  1  0  0  0
 55 57  1  0  0  0
 55126  1  0  0  0
 56 69  2  0  0  0
 57 58  2  0  0  0
 57127  1  0  0  0
 58128  1  0  0  0
 59 60  1  0  0  0
 59 61  1  0  0  0
 59 62  1  0  0  0
 60129  1  0  0  0
 60130  1  0  0  0
 60131  1  0  0  0
 61132  1  0  0  0
 61133  1  0  0  0
 61134  1  0  0  0
 62135  1  0  0  0
 62136  1  0  0  0
 62137  1  0  0  0
 63 65  1  0  0  0
 63138  1  0  0  0
 63139  1  0  0  0
 63140  1  0  0  0
 64141  1  0  0  0
 65142  1  0  0  0
 68 79  1  0  0  0
 71 72  2  0  0  0
 71 81  1  0  0  0
 71143  1  0  0  0
 72 74  1  0  0  0
 72 80  1  0  0  0
 73 74  2  0  0  0
 73 75  1  0  0  0
 73 82  1  0  0  0
 74 83  1  0  0  0
 75 76  1  0  0  0
 75 81  2  0  0  0
 76144  1  0  0  0
 76145  1  0  0  0
 76146  1  0  0  0
 77147  1  0  0  0
 77148  1  0  0  0
 77149  1  0  0  0
 77 80  1  0  0  0
 78 79  1  0  0  0
 78 80  1  0  0  0
 78150  1  0  0  0
 78151  1  0  0  0
 79152  1  0  0  0
 79153  1  0  0  0
 80154  1  0  0  0
 82155  1  0  0  0
M  ISO  4   1 100  68 101  79 101  82 100
M  END
> <chiral flag>
0

> <version>
0

> <s_m_source_file>
/data/baiqing/PycharmProjects/Reinvent-master-3.2/result/LINK_invent/BTK/process_docking_weight1_custom_sum_contain_oxygen_bond_distance_aromatic_linkinvent_7_9_3/rearranged_h_0022.sdf

> <i_m_source_file_index>
74

> <r_mmod_Potential_Energy-OPLS-2005>
337.816192626953

> <r_mmod_Stretch_Energy-OPLS-2005>
289.378967285156

> <r_mmod_Bend_Energy-OPLS-2005>
260.364227294922

> <r_mmod_Torsional_Energy-OPLS-2005>
220.096389770508

> <r_mmod_Improper_Torsional_Energy-OPLS-2005>
5.7951922416687

> <r_mmod_Van_der_Waal_Energy-OPLS-2005>
133.269638061523

> <r_mmod_Electrostatic_Energy-OPLS-2005>
-570.010620117188

> <r_mmod_Solvation_Energy-OPLS-2005>
-207.964813232422

> <b_mmod_Minimization_Converged-OPLS-2005>
0

> <r_mmod_RMS_Derivative-OPLS-2005>
0.183052003383636

$$$$
74
                    3D
 Structure written by MMmdl.
162170  0  0  1  0            999 V2000
  -30.6364  -14.6579   20.4821 C   0  0  0  0  0  0
  -30.4425  -12.3994   19.4549 C   0  0  0  0  0  0
  -29.5049  -12.4788   18.2279 C   0  0  0  0  0  0
  -28.0318  -12.3094   18.6500 C   0  0  0  0  0  0
  -27.6486  -13.2049   19.8574 C   0  0  2  0  0  0
  -28.7001  -13.1015   20.9879 C   0  0  0  0  0  0
  -25.2457  -13.8051   20.5675 C   0  0  0  0  0  0
  -24.1771  -13.0336   20.9265 C   0  0  0  0  0  0
  -24.6376  -11.6839   20.8799 C   0  0  0  0  0  0
  -23.9042  -10.4237   21.0445 C   0  0  0  0  0  0
  -24.3585   -9.4159   21.9227 C   0  0  0  0  0  0
  -23.6263   -8.2199   22.0773 C   0  0  0  0  0  0
  -22.4256   -8.0249   21.3543 C   0  0  0  0  0  0
  -21.9890   -9.0223   20.4644 C   0  0  0  0  0  0
  -22.7220  -10.2103   20.3075 C   0  0  0  0  0  0
  -21.6844   -6.0717   22.5280 C   0  0  0  0  0  0
  -21.4007   -6.5627   23.8208 C   0  0  0  0  0  0
  -21.3641   -5.6788   24.9174 C   0  0  0  0  0  0
  -21.6033   -4.3047   24.7242 C   0  0  0  0  0  0
  -21.8820   -3.8135   23.4361 C   0  0  0  0  0  0
  -21.9191   -4.6947   22.3412 C   0  0  0  0  0  0
  -22.7790  -13.5157   21.1886 C   0  0  0  0  0  0
  -22.1660   -4.2120   21.0994 F   0  0  0  0  0  0
  -21.5631   -3.4538   25.7762 F   0  0  0  0  0  0
  -30.0151  -13.4363   20.4159 N   0  0  0  0  0  0
  -26.2949  -12.9276   20.3317 N   0  0  0  0  0  0
  -25.9300  -11.6437   20.5808 N   0  0  0  0  0  0
  -22.0410  -12.8187   22.0449 N   0  0  0  0  0  0
  -25.3921  -15.1745   20.3928 N   0  0  0  0  0  0
  -31.8052  -14.8055   20.1184 O   0  0  0  0  0  0
  -21.6619   -6.8850   21.4241 O   0  0  0  0  0  0
  -22.3487  -14.5452   20.6699 O   0  0  0  0  0  0
  -24.6260  -31.8600   23.2025 C   0  0  0  0  0  0
  -25.9113  -32.4777   23.8349 C   0  0  1  0  0  0
  -27.2266  -27.3345   20.1024 C   0  0  0  0  0  0
  -25.5970  -33.8570   24.2310 N   0  0  0  0  0  0
  -23.4194  -30.4803   21.5479 C   0  0  2  0  0  0
  -24.8621  -28.9350   20.1138 C   0  0  0  0  0  0
  -22.7479  -29.4594   22.4961 C   0  0  0  0  0  0
  -18.0285  -28.1334   22.8420 C   0  0  0  0  0  0
  -24.1528  -36.7277   23.2636 C   0  0  0  0  0  0
  -25.9585  -30.7900   21.3747 C   0  0  0  0  0  0
  -26.0328  -29.4209   20.7129 C   0  0  0  0  0  0
  -27.2203  -28.6315   20.6969 C   0  0  0  0  0  0
  -26.0383  -26.9035   19.4726 C   0  0  0  0  0  0
  -24.8644  -27.6787   19.4903 C   0  0  0  0  0  0
  -23.6305  -29.8131   20.1630 C   0  0  0  0  0  0
  -25.4140  -36.3076   24.0343 C   0  0  1  0  0  0
  -20.5896  -28.3644   23.1254 C   0  0  2  0  0  0
  -20.6793  -26.9366   22.5365 C   0  0  0  0  0  0
  -19.5783  -26.6334   21.5159 C   0  0  0  0  0  0
  -18.1948  -26.7881   22.1550 C   0  0  0  0  0  0
  -19.1544  -28.8788   23.2827 C   0  0  0  0  0  0
  -18.9489  -30.1394   23.8840 C   0  0  0  0  0  0
  -17.6498  -30.6548   24.0508 C   0  0  0  0  0  0
  -25.9067  -34.9445   23.5124 C   0  0  0  0  0  0
  -16.5374  -29.9035   23.6305 C   0  0  0  0  0  0
  -16.7271  -28.6450   23.0307 C   0  0  0  0  0  0
  -26.4491  -31.6582   25.0699 C   0  0  0  0  0  0
  -25.3696  -31.3696   26.1426 C   0  0  0  0  0  0
  -27.0372  -30.3029   24.6098 C   0  0  0  0  0  0
  -27.6085  -32.4301   25.7454 C   0  0  0  0  0  0
  -27.5597  -37.1798   24.8469 C   0  0  0  0  0  0
  -21.4195  -29.3016   22.3680 N   0  0  0  0  0  0
  -26.4321  -37.3756   23.9387 N   0  0  0  0  0  0
  -24.6862  -31.0621   22.0975 N   0  0  0  0  0  0
  -23.4179  -28.8133   23.3055 O   0  0  0  0  0  0
  -28.3500  -26.4966   20.1238 O   0  0  0  0  0  0
  -26.5606  -34.8915   22.4669 O   0  0  0  0  0  0
  -23.5428  -32.1403   23.7365 O   0  0  0  0  0  0
  -30.8871  -17.9907   21.2889 C   0  0  0  0  0  0
  -29.0586  -17.8419   19.7001 C   0  0  0  0  0  0
  -29.9907  -20.0827   20.2559 C   0  0  0  0  0  0
  -29.9730  -17.1651   20.5681 C   0  0  0  0  0  0
  -30.8899  -19.4127   21.1288 C   0  0  0  0  0  0
  -29.0803  -19.2676   19.5355 C   0  0  0  0  0  0
  -31.8827  -17.3693   22.2570 C   0  0  0  0  0  0
  -28.0332  -17.0068   18.9467 C   0  0  0  0  0  0
  -27.9938  -25.0766   22.0451 C   0  0  0  0  0  0
  -30.1264  -21.6252   19.9796 C   0  0  0  0  0  0
  -29.2607  -24.0524   20.0559 C   0  0  0  0  0  0
  -28.1457  -25.0827   20.5170 C   0  0  2  0  0  0
  -29.8320  -15.7206   20.8041 N   0  0  0  0  0  0
  -29.0228  -22.5800   20.3763 N   0  3  0  0  0  0
  -31.7952  -20.1500   21.8205 F   0  0  0  0  0  0
  -27.9948  -20.0511   18.4334 Cl  0  0  0  0  0  0
  -31.4811  -12.5277   19.1448 H   0  0  0  0  0  0
  -30.3855  -11.4146   19.9226 H   0  0  0  0  0  0
  -29.7718  -11.7062   17.5055 H   0  0  0  0  0  0
  -29.6344  -13.4337   17.7170 H   0  0  0  0  0  0
  -27.8898  -11.2611   18.9172 H   0  0  0  0  0  0
  -27.3666  -12.4986   17.8068 H   0  0  0  0  0  0
  -27.6530  -14.2261   19.4850 H   0  0  0  0  0  0
  -28.7238  -12.0930   21.4001 H   0  0  0  0  0  0
  -28.4435  -13.7572   21.8206 H   0  0  0  0  0  0
  -25.2719   -9.5636   22.4807 H   0  0  0  0  0  0
  -23.9957   -7.4594   22.7499 H   0  0  0  0  0  0
  -21.0815   -8.8736   19.8957 H   0  0  0  0  0  0
  -22.3675  -10.9648   19.6177 H   0  0  0  0  0  0
  -21.1999   -7.6138   23.9698 H   0  0  0  0  0  0
  -21.1454   -6.0528   25.9070 H   0  0  0  0  0  0
  -22.0616   -2.7601   23.2884 H   0  0  0  0  0  0
  -22.3994  -11.9850   22.4871 H   0  0  0  0  0  0
  -21.1036  -13.1238   22.2648 H   0  0  0  0  0  0
  -24.5800  -15.7815   20.4203 H   0  0  0  0  0  0
  -26.1593  -15.5728   19.8729 H   0  0  0  0  0  0
  -26.7164  -32.5400   23.1065 H   0  0  0  0  0  0
  -25.0133  -33.9711   25.0458 H   0  0  0  0  0  0
  -22.7138  -31.2999   21.4009 H   0  0  0  0  0  0
  -23.3781  -35.9613   23.3292 H   0  0  0  0  0  0
  -24.3657  -36.8878   22.2049 H   0  0  0  0  0  0
  -23.7304  -37.6480   23.6665 H   0  0  0  0  0  0
  -26.0959  -31.5551   20.6105 H   0  0  0  0  0  0
  -26.8366  -30.8288   22.0092 H   0  0  0  0  0  0
  -28.1222  -28.9991   21.1681 H   0  0  0  0  0  0
  -25.9954  -25.9566   18.9564 H   0  0  0  0  0  0
  -23.9694  -27.2994   19.0156 H   0  0  0  0  0  0
  -23.7433  -30.5873   19.4025 H   0  0  0  0  0  0
  -22.7507  -29.2379   19.8668 H   0  0  0  0  0  0
  -25.1327  -36.1946   25.0839 H   0  0  0  0  0  0
  -20.9943  -28.3232   24.1401 H   0  0  0  0  0  0
  -20.5720  -26.2261   23.3566 H   0  0  0  0  0  0
  -21.6665  -26.7394   22.1158 H   0  0  0  0  0  0
  -19.6981  -25.6246   21.1187 H   0  0  0  0  0  0
  -19.6764  -27.3132   20.6682 H   0  0  0  0  0  0
  -17.4217  -26.6591   21.3938 H   0  0  0  0  0  0
  -18.0361  -26.0038   22.8963 H   0  0  0  0  0  0
  -19.7990  -30.7163   24.2219 H   0  0  0  0  0  0
  -17.5087  -31.6252   24.5074 H   0  0  0  0  0  0
  -15.5368  -30.2908   23.7737 H   0  0  0  0  0  0
  -15.8673  -28.0764   22.7048 H   0  0  0  0  0  0
  -24.5917  -30.7011   25.7744 H   0  0  0  0  0  0
  -24.8820  -32.2837   26.4782 H   0  0  0  0  0  0
  -25.8004  -30.8922   27.0247 H   0  0  0  0  0  0
  -26.2915  -29.6746   24.1236 H   0  0  0  0  0  0
  -27.4198  -29.7346   25.4582 H   0  0  0  0  0  0
  -27.8753  -30.4339   23.9255 H   0  0  0  0  0  0
  -27.2727  -33.3626   26.1962 H   0  0  0  0  0  0
  -28.3902  -32.6743   25.0268 H   0  0  0  0  0  0
  -28.0725  -31.8440   26.5393 H   0  0  0  0  0  0
  -28.2586  -38.0125   24.7506 H   0  0  0  0  0  0
  -28.1137  -36.2638   24.6326 H   0  0  0  0  0  0
  -27.2320  -37.1452   25.8882 H   0  0  0  0  0  0
  -20.9386  -29.8783   21.6923 H   0  0  0  0  0  0
  -26.0222  -38.2840   24.1391 H   0  0  0  0  0  0
  -31.4647  -16.4985   22.7606 H   0  0  0  0  0  0
  -32.1897  -18.0717   23.0322 H   0  0  0  0  0  0
  -32.7751  -17.0563   21.7106 H   0  0  0  0  0  0
  -28.5185  -16.2423   18.3400 H   0  0  0  0  0  0
  -27.3677  -17.5688   18.2941 H   0  0  0  0  0  0
  -27.4080  -16.5194   19.6850 H   0  0  0  0  0  0
  -27.6975  -24.0958   22.4132 H   0  0  0  0  0  0
  -27.2191  -25.7749   22.3623 H   0  0  0  0  0  0
  -28.9212  -25.3612   22.5389 H   0  0  0  0  0  0
  -30.3060  -21.7416   18.9115 H   0  0  0  0  0  0
  -31.0450  -21.9773   20.4497 H   0  0  0  0  0  0
  -30.2155  -24.3544   20.4875 H   0  0  0  0  0  0
  -29.3749  -24.1413   18.9763 H   0  0  0  0  0  0
  -27.2122  -24.7050   20.1091 H   0  0  0  0  0  0
  -28.8961  -15.4270   21.0364 H   0  0  0  0  0  0
  -28.8713  -22.4777   21.3673 H   0  0  0  0  0  0
  -28.1825  -22.2771   19.9051 H   0  0  0  0  0  0
  1 25  1  0  0  0
  1 30  2  0  0  0
  1 83  1  0  0  0
  2  3  1  0  0  0
  2 25  1  0  0  0
  2 87  1  0  0  0
  2 88  1  0  0  0
  3  4  1  0  0  0
  3 89  1  0  0  0
  3 90  1  0  0  0
  4  5  1  0  0  0
  4 91  1  0  0  0
  4 92  1  0  0  0
  5  6  1  0  0  0
  5 26  1  0  0  0
  5 93  1  0  0  0
  6 25  1  0  0  0
  6 94  1  0  0  0
  6 95  1  0  0  0
  7  8  2  0  0  0
  7 26  1  0  0  0
  7 29  1  0  0  0
  8  9  1  0  0  0
  8 22  1  0  0  0
  9 10  1  0  0  0
  9 27  2  0  0  0
 10 11  2  0  0  0
 10 15  1  0  0  0
 11 12  1  0  0  0
 11 96  1  0  0  0
 12 13  2  0  0  0
 12 97  1  0  0  0
 13 14  1  0  0  0
 13 31  1  0  0  0
 14 15  2  0  0  0
 14 98  1  0  0  0
 15 99  1  0  0  0
 16 17  2  0  0  0
 16 21  1  0  0  0
 16 31  1  0  0  0
 17 18  1  0  0  0
 17100  1  0  0  0
 18 19  2  0  0  0
 18101  1  0  0  0
 19 20  1  0  0  0
 19 24  1  0  0  0
 20 21  2  0  0  0
 20102  1  0  0  0
 21 23  1  0  0  0
 22 28  1  0  0  0
 22 32  2  0  0  0
 26 27  1  0  0  0
 28103  1  0  0  0
 28104  1  0  0  0
 29105  1  0  0  0
 29106  1  0  0  0
 33 34  1  0  0  0
 33 66  1  0  0  0
 33 70  2  0  0  0
 34 36  1  0  0  0
 34 59  1  0  0  0
 34107  1  0  0  0
 35 44  2  0  0  0
 35 45  1  0  0  0
 35 68  1  0  0  0
 36 56  1  0  0  0
 36108  1  0  0  0
 37 39  1  0  0  0
 37 47  1  0  0  0
 37 66  1  0  0  0
 37109  1  0  0  0
 38 43  2  0  0  0
 38 46  1  0  0  0
 38 47  1  0  0  0
 39 64  1  0  0  0
 39 67  2  0  0  0
 40 52  1  0  0  0
 40 53  2  0  0  0
 40 58  1  0  0  0
 41110  1  0  0  0
 41111  1  0  0  0
 41112  1  0  0  0
 41 48  1  0  0  0
 42 43  1  0  0  0
 42 66  1  0  0  0
 42113  1  0  0  0
 42114  1  0  0  0
 43 44  1  0  0  0
 44115  1  0  0  0
 45 46  2  0  0  0
 45116  1  0  0  0
 46117  1  0  0  0
 47118  1  0  0  0
 47119  1  0  0  0
 48 56  1  0  0  0
 48 65  1  0  0  0
 48120  1  0  0  0
 49 50  1  0  0  0
 49 53  1  0  0  0
 49 64  1  0  0  0
 49121  1  0  0  0
 50 51  1  0  0  0
 50122  1  0  0  0
 50123  1  0  0  0
 51 52  1  0  0  0
 51124  1  0  0  0
 51125  1  0  0  0
 52126  1  0  0  0
 52127  1  0  0  0
 53 54  1  0  0  0
 54 55  2  0  0  0
 54128  1  0  0  0
 55 57  1  0  0  0
 55129  1  0  0  0
 56 69  2  0  0  0
 57 58  2  0  0  0
 57130  1  0  0  0
 58131  1  0  0  0
 59 60  1  0  0  0
 59 61  1  0  0  0
 59 62  1  0  0  0
 60132  1  0  0  0
 60133  1  0  0  0
 60134  1  0  0  0
 61135  1  0  0  0
 61136  1  0  0  0
 61137  1  0  0  0
 62138  1  0  0  0
 62139  1  0  0  0
 62140  1  0  0  0
 63 65  1  0  0  0
 63141  1  0  0  0
 63142  1  0  0  0
 63143  1  0  0  0
 64144  1  0  0  0
 65145  1  0  0  0
 68 82  1  0  0  0
 71 74  2  0  0  0
 71 75  1  0  0  0
 71 77  1  0  0  0
 72 74  1  0  0  0
 72 76  2  0  0  0
 72 78  1  0  0  0
 73 75  2  0  0  0
 73 76  1  0  0  0
 73 80  1  0  0  0
 74 83  1  0  0  0
 75 85  1  0  0  0
 76 86  1  0  0  0
 77146  1  0  0  0
 77147  1  0  0  0
 77148  1  0  0  0
 78149  1  0  0  0
 78150  1  0  0  0
 78151  1  0  0  0
 79152  1  0  0  0
 79153  1  0  0  0
 79154  1  0  0  0
 79 82  1  0  0  0
 80 84  1  0  0  0
 80155  1  0  0  0
 80156  1  0  0  0
 81 82  1  0  0  0
 81 84  1  0  0  0
 81157  1  0  0  0
 81158  1  0  0  0
 82159  1  0  0  0
 83160  1  0  0  0
 84161  1  0  0  0
 84162  1  0  0  0
M  CHG  1  84   1
M  ISO  4   1 100  68 101  82 101  83 100
M  END
> <chiral flag>
0

> <version>
0

> <s_m_source_file>
/data/baiqing/PycharmProjects/Reinvent-master-3.2/result/LINK_invent/BTK/process_docking_weight1_custom_sum_contain_oxygen_bond_distance_aromatic_linkinvent_7_9_3/rearranged_h_0022.sdf

> <i_m_source_file_index>
75

> <r_mmod_Potential_Energy-OPLS-2005>
-139.811111450195

> <r_mmod_Stretch_Energy-OPLS-2005>
78.6771926879883

> <r_mmod_Bend_Energy-OPLS-2005>
124.105567932129

> <r_mmod_Torsional_Energy-OPLS-2005>
244.198211669922

> <r_mmod_Improper_Torsional_Energy-OPLS-2005>
7.31634283065796

> <r_mmod_Van_der_Waal_Energy-OPLS-2005>
147.483428955078

> <r_mmod_Electrostatic_Energy-OPLS-2005>
-354.737152099609

> <r_mmod_Solvation_Energy-OPLS-2005>
-436.663818359375

> <b_mmod_Minimization_Converged-OPLS-2005>
0

> <r_mmod_RMS_Derivative-OPLS-2005>
3.80044460296631

$$$$
75
                    3D
 Structure written by MMmdl.
156164  0  0  1  0            999 V2000
  -30.5593  -14.8943   20.4153 C   0  0  0  0  0  0
  -30.4443  -12.5475   19.4838 C   0  0  0  0  0  0
  -29.5181  -12.5260   18.2457 C   0  0  0  0  0  0
  -28.0496  -12.3197   18.6652 C   0  0  0  0  0  0
  -27.6314  -13.2404   19.8426 C   0  0  2  0  0  0
  -28.6834  -13.2375   20.9756 C   0  0  0  0  0  0
  -25.2277  -13.7937   20.5540 C   0  0  0  0  0  0
  -24.1690  -13.0223   20.9257 C   0  0  0  0  0  0
  -24.6395  -11.6768   20.8806 C   0  0  0  0  0  0
  -23.9081  -10.4181   21.0437 C   0  0  0  0  0  0
  -24.3618   -9.4112   21.9223 C   0  0  0  0  0  0
  -23.6279   -8.2162   22.0769 C   0  0  0  0  0  0
  -22.4267   -8.0224   21.3539 C   0  0  0  0  0  0
  -21.9911   -9.0201   20.4646 C   0  0  0  0  0  0
  -22.7253  -10.2065   20.3072 C   0  0  0  0  0  0
  -21.6828   -6.0708   22.5285 C   0  0  0  0  0  0
  -21.3990   -6.5620   23.8215 C   0  0  0  0  0  0
  -21.3659   -5.6780   24.9182 C   0  0  0  0  0  0
  -21.6048   -4.3043   24.7233 C   0  0  0  0  0  0
  -21.8821   -3.8128   23.4357 C   0  0  0  0  0  0
  -21.9185   -4.6940   22.3409 C   0  0  0  0  0  0
  -22.7723  -13.5054   21.1887 C   0  0  0  0  0  0
  -22.1661   -4.2129   21.0986 F   0  0  0  0  0  0
  -21.5642   -3.4535   25.7752 F   0  0  0  0  0  0
  -29.9715  -13.6337   20.3830 N   0  0  0  0  0  0
  -26.2871  -12.9322   20.3262 N   0  0  0  0  0  0
  -25.9355  -11.6459   20.5832 N   0  0  0  0  0  0
  -22.0374  -12.8088   22.0470 N   0  0  0  0  0  0
  -25.3462  -15.1540   20.3529 N   0  0  0  0  0  0
  -31.7568  -14.9809   20.1333 O   0  0  0  0  0  0
  -21.6608   -6.8838   21.4241 O   0  0  0  0  0  0
  -22.3438  -14.5378   20.6719 O   0  0  0  0  0  0
  -24.6367  -31.8502   23.1926 C   0  0  0  0  0  0
  -25.9164  -32.4729   23.8302 C   0  0  1  0  0  0
  -27.2351  -27.2113   20.1453 C   0  0  0  0  0  0
  -25.5930  -33.8534   24.2221 N   0  0  0  0  0  0
  -23.4381  -30.4683   21.5368 C   0  0  2  0  0  0
  -24.8897  -28.8971   20.1206 C   0  0  0  0  0  0
  -22.7532  -29.4581   22.4896 C   0  0  0  0  0  0
  -18.0300  -28.1381   22.8478 C   0  0  0  0  0  0
  -24.1488  -36.7276   23.2646 C   0  0  0  0  0  0
  -25.9880  -30.7480   21.3788 C   0  0  0  0  0  0
  -26.0639  -29.3619   20.7264 C   0  0  0  0  0  0
  -27.2414  -28.5366   20.7156 C   0  0  0  0  0  0
  -26.0341  -26.8184   19.5186 C   0  0  0  0  0  0
  -24.8827  -27.6345   19.5042 C   0  0  0  0  0  0
  -23.6626  -29.7918   20.1574 C   0  0  0  0  0  0
  -25.4121  -36.3057   24.0322 C   0  0  1  0  0  0
  -20.5913  -28.3708   23.1246 C   0  0  2  0  0  0
  -20.6797  -26.9406   22.5426 C   0  0  0  0  0  0
  -19.5763  -26.6358   21.5242 C   0  0  0  0  0  0
  -18.1944  -26.7917   22.1642 C   0  0  0  0  0  0
  -19.1560  -28.8860   23.2850 C   0  0  0  0  0  0
  -18.9474  -30.1460   23.8866 C   0  0  0  0  0  0
  -17.6477  -30.6577   24.0550 C   0  0  0  0  0  0
  -25.9061  -34.9428   23.5081 C   0  0  0  0  0  0
  -16.5360  -29.9076   23.6321 C   0  0  0  0  0  0
  -16.7284  -28.6487   23.0355 C   0  0  0  0  0  0
  -26.4514  -31.6572   25.0713 C   0  0  0  0  0  0
  -25.3717  -31.3739   26.1419 C   0  0  0  0  0  0
  -27.0370  -30.2982   24.6237 C   0  0  0  0  0  0
  -27.6048  -32.4333   25.7498 C   0  0  0  0  0  0
  -27.5577  -37.1798   24.8472 C   0  0  0  0  0  0
  -21.4235  -29.3056   22.3631 N   0  0  0  0  0  0
  -26.4294  -37.3756   23.9400 N   0  0  0  0  0  0
  -24.7071  -31.0417   22.0924 N   0  0  0  0  0  0
  -23.4200  -28.8144   23.3038 O   0  0  0  0  0  0
  -28.3331  -26.3034   20.1290 O   0  0  0  0  0  0
  -26.5646  -34.8915   22.4661 O   0  0  0  0  0  0
  -23.5501  -32.1339   23.7181 O   0  0  0  0  0  0
  -30.6150  -19.9397   20.5213 C   0  0  0  0  0  0
  -28.2785  -19.6678   20.4526 C   0  0  0  0  0  0
  -29.3404  -20.6025   20.5346 C   0  0  0  0  0  0
  -30.8114  -18.4931   20.4782 C   0  0  0  0  0  0
  -28.4573  -18.2377   20.4368 C   0  0  0  0  0  0
  -29.7208  -17.5478   20.4750 C   0  0  0  0  0  0
  -32.2406  -17.9904   20.4656 C   0  0  0  0  0  0
  -27.1966  -17.4224   20.4063 C   0  0  0  0  0  0
  -29.0816  -22.1629   20.9345 C   0  0  0  0  0  0
  -28.7965  -23.4821   19.9829 C   0  0  0  0  0  0
  -28.1913  -24.8746   20.6497 C   0  0  0  0  0  0
  -29.7139  -16.0163   20.5616 N   0  0  0  0  0  0
  -31.4799  -12.6946   19.1728 H   0  0  0  0  0  0
  -30.4225  -11.5869   19.9993 H   0  0  0  0  0  0
  -29.8258  -11.7389   17.5555 H   0  0  0  0  0  0
  -29.6158  -13.4653   17.6994 H   0  0  0  0  0  0
  -27.9368  -11.2750   18.9590 H   0  0  0  0  0  0
  -27.3875  -12.4668   17.8120 H   0  0  0  0  0  0
  -27.5957  -14.2488   19.4310 H   0  0  0  0  0  0
  -28.7553  -12.2515   21.4386 H   0  0  0  0  0  0
  -28.3955  -13.9265   21.7710 H   0  0  0  0  0  0
  -25.2749   -9.5590   22.4816 H   0  0  0  0  0  0
  -23.9972   -7.4550   22.7488 H   0  0  0  0  0  0
  -21.0845   -8.8727   19.8951 H   0  0  0  0  0  0
  -22.3725  -10.9614   19.6192 H   0  0  0  0  0  0
  -21.1960   -7.6126   23.9706 H   0  0  0  0  0  0
  -21.1491   -6.0516   25.9083 H   0  0  0  0  0  0
  -22.0601   -2.7592   23.2869 H   0  0  0  0  0  0
  -22.4003  -11.9761   22.4867 H   0  0  0  0  0  0
  -21.1001  -13.1135   22.2677 H   0  0  0  0  0  0
  -24.5173  -15.7376   20.3658 H   0  0  0  0  0  0
  -26.1018  -15.5534   19.8167 H   0  0  0  0  0  0
  -26.7241  -32.5363   23.1051 H   0  0  0  0  0  0
  -25.0050  -33.9654   25.0353 H   0  0  0  0  0  0
  -22.7391  -31.2917   21.3815 H   0  0  0  0  0  0
  -23.3741  -35.9613   23.3317 H   0  0  0  0  0  0
  -24.3570  -36.8890   22.2054 H   0  0  0  0  0  0
  -23.7244  -37.6481   23.6672 H   0  0  0  0  0  0
  -26.1296  -31.5034   20.6047 H   0  0  0  0  0  0
  -26.8638  -30.8033   22.0137 H   0  0  0  0  0  0
  -28.1468  -28.8969   21.1836 H   0  0  0  0  0  0
  -25.9819  -25.8502   19.0416 H   0  0  0  0  0  0
  -23.9853  -27.2734   19.0217 H   0  0  0  0  0  0
  -23.7985  -30.5642   19.4000 H   0  0  0  0  0  0
  -22.7793  -29.2296   19.8479 H   0  0  0  0  0  0
  -25.1303  -36.1912   25.0813 H   0  0  0  0  0  0
  -21.0011  -28.3299   24.1369 H   0  0  0  0  0  0
  -20.5710  -26.2325   23.3657 H   0  0  0  0  0  0
  -21.6664  -26.7429   22.1203 H   0  0  0  0  0  0
  -19.6923  -25.6263   21.1296 H   0  0  0  0  0  0
  -19.6707  -27.3155   20.6763 H   0  0  0  0  0  0
  -17.4200  -26.6625   21.4061 H   0  0  0  0  0  0
  -18.0340  -26.0089   22.9077 H   0  0  0  0  0  0
  -19.7945  -30.7295   24.2222 H   0  0  0  0  0  0
  -17.5042  -31.6259   24.5147 H   0  0  0  0  0  0
  -15.5365  -30.2970   23.7659 H   0  0  0  0  0  0
  -15.8690  -28.0782   22.7093 H   0  0  0  0  0  0
  -24.5906  -30.7074   25.7752 H   0  0  0  0  0  0
  -24.8888  -32.2904   26.4815 H   0  0  0  0  0  0
  -25.8019  -30.8943   27.0219 H   0  0  0  0  0  0
  -26.2964  -29.6721   24.1249 H   0  0  0  0  0  0
  -27.4022  -29.7263   25.4777 H   0  0  0  0  0  0
  -27.8859  -30.4237   23.9510 H   0  0  0  0  0  0
  -27.2643  -33.3652   26.2028 H   0  0  0  0  0  0
  -28.3890  -32.6864   25.0350 H   0  0  0  0  0  0
  -28.0685  -31.8487   26.5451 H   0  0  0  0  0  0
  -28.2609  -38.0079   24.7486 H   0  0  0  0  0  0
  -28.1054  -36.2606   24.6346 H   0  0  0  0  0  0
  -27.2287  -37.1510   25.8873 H   0  0  0  0  0  0
  -20.9424  -29.8764   21.6811 H   0  0  0  0  0  0
  -26.0176  -38.2836   24.1380 H   0  0  0  0  0  0
  -31.4903  -20.5689   20.6049 H   0  0  0  0  0  0
  -27.2711  -20.0627   20.4709 H   0  0  0  0  0  0
  -32.9577  -18.8051   20.5716 H   0  0  0  0  0  0
  -32.4509  -17.4898   19.5201 H   0  0  0  0  0  0
  -32.4137  -17.2870   21.2794 H   0  0  0  0  0  0
  -27.1851  -16.7400   21.2556 H   0  0  0  0  0  0
  -27.1585  -16.8631   19.4717 H   0  0  0  0  0  0
  -26.2975  -18.0361   20.4659 H   0  0  0  0  0  0
  -29.9207  -22.4332   21.5756 H   0  0  0  0  0  0
  -28.2377  -22.1197   21.6244 H   0  0  0  0  0  0
  -28.1040  -23.1836   19.1962 H   0  0  0  0  0  0
  -29.7261  -23.7251   19.4695 H   0  0  0  0  0  0
  -28.6410  -24.9306   21.6407 H   0  0  0  0  0  0
  -27.1368  -24.6944   20.8595 H   0  0  0  0  0  0
  -28.7801  -15.6746   20.7190 H   0  0  0  0  0  0
  1 25  1  0  0  0
  1 30  2  0  0  0
  1 82  1  0  0  0
  2  3  1  0  0  0
  2 25  1  0  0  0
  2 83  1  0  0  0
  2 84  1  0  0  0
  3  4  1  0  0  0
  3 85  1  0  0  0
  3 86  1  0  0  0
  4  5  1  0  0  0
  4 87  1  0  0  0
  4 88  1  0  0  0
  5  6  1  0  0  0
  5 26  1  0  0  0
  5 89  1  0  0  0
  6 25  1  0  0  0
  6 90  1  0  0  0
  6 91  1  0  0  0
  7  8  2  0  0  0
  7 26  1  0  0  0
  7 29  1  0  0  0
  8  9  1  0  0  0
  8 22  1  0  0  0
  9 10  1  0  0  0
  9 27  2  0  0  0
 10 11  2  0  0  0
 10 15  1  0  0  0
 11 12  1  0  0  0
 11 92  1  0  0  0
 12 13  2  0  0  0
 12 93  1  0  0  0
 13 14  1  0  0  0
 13 31  1  0  0  0
 14 15  2  0  0  0
 14 94  1  0  0  0
 15 95  1  0  0  0
 16 17  2  0  0  0
 16 21  1  0  0  0
 16 31  1  0  0  0
 17 18  1  0  0  0
 17 96  1  0  0  0
 18 19  2  0  0  0
 18 97  1  0  0  0
 19 20  1  0  0  0
 19 24  1  0  0  0
 20 21  2  0  0  0
 20 98  1  0  0  0
 21 23  1  0  0  0
 22 28  1  0  0  0
 22 32  2  0  0  0
 26 27  1  0  0  0
 28 99  1  0  0  0
 28100  1  0  0  0
 29101  1  0  0  0
 29102  1  0  0  0
 33 34  1  0  0  0
 33 66  1  0  0  0
 33 70  2  0  0  0
 34 36  1  0  0  0
 34 59  1  0  0  0
 34103  1  0  0  0
 35 44  2  0  0  0
 35 45  1  0  0  0
 35 68  1  0  0  0
 36 56  1  0  0  0
 36104  1  0  0  0
 37 39  1  0  0  0
 37 47  1  0  0  0
 37 66  1  0  0  0
 37105  1  0  0  0
 38 43  2  0  0  0
 38 46  1  0  0  0
 38 47  1  0  0  0
 39 64  1  0  0  0
 39 67  2  0  0  0
 40 52  1  0  0  0
 40 53  2  0  0  0
 40 58  1  0  0  0
 41106  1  0  0  0
 41107  1  0  0  0
 41108  1  0  0  0
 41 48  1  0  0  0
 42 43  1  0  0  0
 42 66  1  0  0  0
 42109  1  0  0  0
 42110  1  0  0  0
 43 44  1  0  0  0
 44111  1  0  0  0
 45 46  2  0  0  0
 45112  1  0  0  0
 46113  1  0  0  0
 47114  1  0  0  0
 47115  1  0  0  0
 48 56  1  0  0  0
 48 65  1  0  0  0
 48116  1  0  0  0
 49 50  1  0  0  0
 49 53  1  0  0  0
 49 64  1  0  0  0
 49117  1  0  0  0
 50 51  1  0  0  0
 50118  1  0  0  0
 50119  1  0  0  0
 51 52  1  0  0  0
 51120  1  0  0  0
 51121  1  0  0  0
 52122  1  0  0  0
 52123  1  0  0  0
 53 54  1  0  0  0
 54 55  2  0  0  0
 54124  1  0  0  0
 55 57  1  0  0  0
 55125  1  0  0  0
 56 69  2  0  0  0
 57 58  2  0  0  0
 57126  1  0  0  0
 58127  1  0  0  0
 59 60  1  0  0  0
 59 61  1  0  0  0
 59 62  1  0  0  0
 60128  1  0  0  0
 60129  1  0  0  0
 60130  1  0  0  0
 61131  1  0  0  0
 61132  1  0  0  0
 61133  1  0  0  0
 62134  1  0  0  0
 62135  1  0  0  0
 62136  1  0  0  0
 63 65  1  0  0  0
 63137  1  0  0  0
 63138  1  0  0  0
 63139  1  0  0  0
 64140  1  0  0  0
 65141  1  0  0  0
 68 81  1  0  0  0
 71 73  2  0  0  0
 71 74  1  0  0  0
 71142  1  0  0  0
 72 73  1  0  0  0
 72 75  2  0  0  0
 72143  1  0  0  0
 73 79  1  0  0  0
 74 76  2  0  0  0
 74 77  1  0  0  0
 75 76  1  0  0  0
 75 78  1  0  0  0
 76 82  1  0  0  0
 77144  1  0  0  0
 77145  1  0  0  0
 77146  1  0  0  0
 78147  1  0  0  0
 78148  1  0  0  0
 78149  1  0  0  0
 79 80  1  0  0  0
 79150  1  0  0  0
 79151  1  0  0  0
 80 81  1  0  0  0
 80152  1  0  0  0
 80153  1  0  0  0
 81154  1  0  0  0
 81155  1  0  0  0
 82156  1  0  0  0
M  ISO  4   1 100  68 101  81 101  82 100
M  END
> <chiral flag>
0

> <version>
0

> <s_m_source_file>
/data/baiqing/PycharmProjects/Reinvent-master-3.2/result/LINK_invent/BTK/process_docking_weight1_custom_sum_contain_oxygen_bond_distance_aromatic_linkinvent_7_9_3/rearranged_h_0022.sdf

> <i_m_source_file_index>
76

> <r_mmod_Potential_Energy-OPLS-2005>
359.792541503906

> <r_mmod_Stretch_Energy-OPLS-2005>
183.502502441406

> <r_mmod_Bend_Energy-OPLS-2005>
251.89192199707

> <r_mmod_Torsional_Energy-OPLS-2005>
243.429443359375

> <r_mmod_Improper_Torsional_Energy-OPLS-2005>
8.7867374420166

> <r_mmod_Van_der_Waal_Energy-OPLS-2005>
138.971343994141

> <r_mmod_Electrostatic_Energy-OPLS-2005>
-410.838806152344

> <r_mmod_Solvation_Energy-OPLS-2005>
-196.710922241211

> <b_mmod_Minimization_Converged-OPLS-2005>
0

> <r_mmod_RMS_Derivative-OPLS-2005>
1.8845442533493

$$$$
76
                    3D
 Structure written by MMmdl.
161169  0  0  1  0            999 V2000
  -30.7547  -14.5019   20.4279 C   0  0  0  0  0  0
  -30.4186  -12.2757   19.4422 C   0  0  0  0  0  0
  -29.4907  -12.3702   18.2137 C   0  0  0  0  0  0
  -28.0113  -12.2518   18.6432 C   0  0  0  0  0  0
  -27.6349  -13.1449   19.8538 C   0  0  2  0  0  0
  -28.7079  -13.0981   20.9717 C   0  0  0  0  0  0
  -25.2614  -13.7967   20.5770 C   0  0  0  0  0  0
  -24.1810  -13.0346   20.9243 C   0  0  0  0  0  0
  -24.6289  -11.6792   20.8830 C   0  0  0  0  0  0
  -23.8946  -10.4233   21.0480 C   0  0  0  0  0  0
  -24.3538   -9.4154   21.9237 C   0  0  0  0  0  0
  -23.6227   -8.2189   22.0779 C   0  0  0  0  0  0
  -22.4223   -8.0239   21.3546 C   0  0  0  0  0  0
  -21.9842   -9.0213   20.4657 C   0  0  0  0  0  0
  -22.7149  -10.2100   20.3085 C   0  0  0  0  0  0
  -21.6827   -6.0706   22.5277 C   0  0  0  0  0  0
  -21.3990   -6.5624   23.8208 C   0  0  0  0  0  0
  -21.3649   -5.6781   24.9184 C   0  0  0  0  0  0
  -21.6047   -4.3042   24.7231 C   0  0  0  0  0  0
  -21.8822   -3.8134   23.4353 C   0  0  0  0  0  0
  -21.9184   -4.6942   22.3412 C   0  0  0  0  0  0
  -22.7854  -13.5236   21.1837 C   0  0  0  0  0  0
  -22.1661   -4.2132   21.0985 F   0  0  0  0  0  0
  -21.5634   -3.4535   25.7748 F   0  0  0  0  0  0
  -30.0290  -13.3464   20.3705 N   0  0  0  0  0  0
  -26.2930  -12.8962   20.3448 N   0  0  0  0  0  0
  -25.9191  -11.6221   20.5935 N   0  0  0  0  0  0
  -22.0424  -12.8297   22.0388 N   0  0  0  0  0  0
  -25.4429  -15.1678   20.4161 N   0  0  0  0  0  0
  -31.9657  -14.5170   20.2083 O   0  0  0  0  0  0
  -21.6596   -6.8839   21.4232 O   0  0  0  0  0  0
  -22.3607  -14.5561   20.6661 O   0  0  0  0  0  0
  -24.6115  -31.8684   23.2165 C   0  0  0  0  0  0
  -25.9015  -32.4843   23.8447 C   0  0  1  0  0  0
  -27.2429  -27.4870   20.0798 C   0  0  0  0  0  0
  -25.5885  -33.8648   24.2368 N   0  0  0  0  0  0
  -23.4012  -30.4894   21.5537 C   0  0  2  0  0  0
  -24.8523  -28.9685   20.1110 C   0  0  0  0  0  0
  -22.7409  -29.4600   22.4981 C   0  0  0  0  0  0
  -18.0245  -28.1388   22.8492 C   0  0  0  0  0  0
  -24.1489  -36.7342   23.2645 C   0  0  0  0  0  0
  -25.9251  -30.8477   21.3631 C   0  0  0  0  0  0
  -26.0075  -29.4883   20.7102 C   0  0  0  0  0  0
  -27.2083  -28.7537   20.6972 C   0  0  0  0  0  0
  -26.0829  -26.9723   19.4663 C   0  0  0  0  0  0
  -24.8823  -27.7067   19.4847 C   0  0  0  0  0  0
  -23.6151  -29.8327   20.1637 C   0  0  0  0  0  0
  -25.4102  -36.3140   24.0357 C   0  0  1  0  0  0
  -20.5851  -28.3657   23.1343 C   0  0  2  0  0  0
  -20.6740  -26.9394   22.5435 C   0  0  0  0  0  0
  -19.5723  -26.6382   21.5221 C   0  0  0  0  0  0
  -18.1895  -26.7929   22.1632 C   0  0  0  0  0  0
  -19.1504  -28.8835   23.2917 C   0  0  0  0  0  0
  -18.9426  -30.1437   23.8947 C   0  0  0  0  0  0
  -17.6432  -30.6592   24.0579 C   0  0  0  0  0  0
  -25.9013  -34.9494   23.5153 C   0  0  0  0  0  0
  -16.5319  -29.9111   23.6323 C   0  0  0  0  0  0
  -16.7239  -28.6530   23.0329 C   0  0  0  0  0  0
  -26.4447  -31.6595   25.0733 C   0  0  0  0  0  0
  -25.3741  -31.3660   26.1488 C   0  0  0  0  0  0
  -27.0261  -30.3066   24.6031 C   0  0  0  0  0  0
  -27.6059  -32.4277   25.7480 C   0  0  0  0  0  0
  -27.5582  -37.1827   24.8461 C   0  0  0  0  0  0
  -21.4122  -29.3019   22.3783 N   0  0  0  0  0  0
  -26.4305  -37.3810   23.9399 N   0  0  0  0  0  0
  -24.6655  -31.0805   22.1052 N   0  0  0  0  0  0
  -23.4199  -28.8096   23.2978 O   0  0  0  0  0  0
  -28.3836  -26.7325   20.0938 O   0  0  0  0  0  0
  -26.5577  -34.8949   22.4715 O   0  0  0  0  0  0
  -23.5300  -32.1425   23.7549 O   0  0  0  0  0  0
  -29.6862  -17.6597   21.6010 C   0  0  0  0  0  0
  -31.2839  -18.8117   19.6861 C   0  0  0  0  0  0
  -30.2229  -19.5690   20.2112 C   0  0  0  0  0  0
  -29.4801  -19.0067   21.2657 C   0  0  0  0  0  0
  -30.5903  -16.9122   20.8231 C   0  0  0  0  0  0
  -29.1431  -15.9259   19.2699 C   0  0  0  0  0  0
  -29.7781  -20.8446   19.5136 C   0  0  0  0  0  0
  -30.8537  -21.9293   19.3704 C   0  0  0  0  0  0
  -30.8287  -22.9900   20.4792 C   0  0  0  0  0  0
  -29.6423  -23.9639   20.3547 C   0  0  0  0  0  0
  -29.7541  -25.1384   21.3315 C   0  0  0  0  0  0
  -28.5165  -26.0400   21.3283 C   0  0  0  0  0  0
  -31.4876  -17.5266   20.0140 N   0  0  0  0  0  0
  -30.0569  -15.6686   20.3968 N   0  0  0  0  0  0
  -28.4656  -19.6933   21.8438 F   0  0  0  0  0  0
  -31.4632  -12.3385   19.1314 H   0  0  0  0  0  0
  -30.3170  -11.3046   19.9278 H   0  0  0  0  0  0
  -29.7291  -11.5622   17.5201 H   0  0  0  0  0  0
  -29.6677  -13.2848   17.6543 H   0  0  0  0  0  0
  -27.8443  -11.2075   18.9043 H   0  0  0  0  0  0
  -27.3520  -12.4563   17.7989 H   0  0  0  0  0  0
  -27.5559  -14.1286   19.4419 H   0  0  0  0  0  0
  -28.7027  -12.1253   21.4652 H   0  0  0  0  0  0
  -28.4884  -13.8337   21.7470 H   0  0  0  0  0  0
  -25.2676   -9.5645   22.4823 H   0  0  0  0  0  0
  -23.9940   -7.4575   22.7493 H   0  0  0  0  0  0
  -21.0777   -8.8715   19.8957 H   0  0  0  0  0  0
  -22.3604  -10.9653   19.6205 H   0  0  0  0  0  0
  -21.1968   -7.6133   23.9706 H   0  0  0  0  0  0
  -21.1473   -6.0520   25.9083 H   0  0  0  0  0  0
  -22.0610   -2.7594   23.2859 H   0  0  0  0  0  0
  -22.3973  -11.9942   22.4812 H   0  0  0  0  0  0
  -21.1050  -13.1410   22.2544 H   0  0  0  0  0  0
  -24.6894  -15.8349   20.5428 H   0  0  0  0  0  0
  -26.3121  -15.5989   20.1308 H   0  0  0  0  0  0
  -26.7078  -32.5550   23.1214 H   0  0  0  0  0  0
  -25.0047  -33.9833   25.0514 H   0  0  0  0  0  0
  -22.6905  -31.3056   21.4168 H   0  0  0  0  0  0
  -23.3746  -35.9678   23.3326 H   0  0  0  0  0  0
  -24.3583  -36.8935   22.2055 H   0  0  0  0  0  0
  -23.7246  -37.6576   23.6614 H   0  0  0  0  0  0
  -26.0241  -31.6148   20.5939 H   0  0  0  0  0  0
  -26.8206  -30.9086   21.9712 H   0  0  0  0  0  0
  -28.0995  -29.1504   21.1620 H   0  0  0  0  0  0
  -26.1137  -26.0019   18.9873 H   0  0  0  0  0  0
  -23.9979  -27.3037   19.0093 H   0  0  0  0  0  0
  -23.7347  -30.6157   19.4133 H   0  0  0  0  0  0
  -22.7426  -29.2560   19.8552 H   0  0  0  0  0  0
  -25.1262  -36.2051   25.0853 H   0  0  0  0  0  0
  -20.9904  -28.3192   24.1475 H   0  0  0  0  0  0
  -20.5618  -26.2241   23.3601 H   0  0  0  0  0  0
  -21.6613  -26.7408   22.1239 H   0  0  0  0  0  0
  -19.6873  -25.6285   21.1256 H   0  0  0  0  0  0
  -19.6705  -27.3206   20.6767 H   0  0  0  0  0  0
  -17.4158  -26.6672   21.4038 H   0  0  0  0  0  0
  -18.0301  -26.0072   22.9037 H   0  0  0  0  0  0
  -19.7895  -30.7233   24.2365 H   0  0  0  0  0  0
  -17.4978  -31.6278   24.5170 H   0  0  0  0  0  0
  -15.5327  -30.3032   23.7596 H   0  0  0  0  0  0
  -15.8628  -28.0876   22.6999 H   0  0  0  0  0  0
  -24.5958  -30.6951   25.7819 H   0  0  0  0  0  0
  -24.8870  -32.2787   26.4940 H   0  0  0  0  0  0
  -25.8129  -30.8847   27.0239 H   0  0  0  0  0  0
  -26.2778  -29.6861   24.1089 H   0  0  0  0  0  0
  -27.4084  -29.7248   25.4424 H   0  0  0  0  0  0
  -27.8583  -30.4437   23.9129 H   0  0  0  0  0  0
  -27.2750  -33.3590   26.2091 H   0  0  0  0  0  0
  -28.3866  -32.6814   25.0293 H   0  0  0  0  0  0
  -28.0733  -31.8367   26.5368 H   0  0  0  0  0  0
  -28.2602  -38.0122   24.7496 H   0  0  0  0  0  0
  -28.1081  -36.2650   24.6290 H   0  0  0  0  0  0
  -27.2294  -37.1495   25.8869 H   0  0  0  0  0  0
  -20.9256  -29.8909   21.7180 H   0  0  0  0  0  0
  -26.0208  -38.2899   24.1407 H   0  0  0  0  0  0
  -28.9823  -17.1669   22.2546 H   0  0  0  0  0  0
  -31.8905  -19.1849   18.8727 H   0  0  0  0  0  0
  -29.4207  -16.8091   18.6950 H   0  0  0  0  0  0
  -28.1439  -16.1275   19.6502 H   0  0  0  0  0  0
  -29.1213  -15.1405   18.5223 H   0  0  0  0  0  0
  -29.4767  -20.5383   18.5100 H   0  0  0  0  0  0
  -28.8708  -21.2416   19.9677 H   0  0  0  0  0  0
  -30.7016  -22.4377   18.4171 H   0  0  0  0  0  0
  -31.8395  -21.4749   19.2985 H   0  0  0  0  0  0
  -31.7566  -23.5603   20.4236 H   0  0  0  0  0  0
  -30.8259  -22.5098   21.4588 H   0  0  0  0  0  0
  -28.7033  -23.4367   20.5351 H   0  0  0  0  0  0
  -29.5794  -24.3559   19.3402 H   0  0  0  0  0  0
  -30.6331  -25.7391   21.0968 H   0  0  0  0  0  0
  -29.9035  -24.7509   22.3414 H   0  0  0  0  0  0
  -28.5979  -26.7609   22.1448 H   0  0  0  0  0  0
  -27.6208  -25.4433   21.5173 H   0  0  0  0  0  0
  1 25  1  0  0  0
  1 30  2  0  0  0
  1 84  1  0  0  0
  2  3  1  0  0  0
  2 25  1  0  0  0
  2 86  1  0  0  0
  2 87  1  0  0  0
  3  4  1  0  0  0
  3 88  1  0  0  0
  3 89  1  0  0  0
  4  5  1  0  0  0
  4 90  1  0  0  0
  4 91  1  0  0  0
  5  6  1  0  0  0
  5 26  1  0  0  0
  5 92  1  0  0  0
  6 25  1  0  0  0
  6 93  1  0  0  0
  6 94  1  0  0  0
  7  8  2  0  0  0
  7 26  1  0  0  0
  7 29  1  0  0  0
  8  9  1  0  0  0
  8 22  1  0  0  0
  9 10  1  0  0  0
  9 27  2  0  0  0
 10 11  2  0  0  0
 10 15  1  0  0  0
 11 12  1  0  0  0
 11 95  1  0  0  0
 12 13  2  0  0  0
 12 96  1  0  0  0
 13 14  1  0  0  0
 13 31  1  0  0  0
 14 15  2  0  0  0
 14 97  1  0  0  0
 15 98  1  0  0  0
 16 17  2  0  0  0
 16 21  1  0  0  0
 16 31  1  0  0  0
 17 18  1  0  0  0
 17 99  1  0  0  0
 18 19  2  0  0  0
 18100  1  0  0  0
 19 20  1  0  0  0
 19 24  1  0  0  0
 20 21  2  0  0  0
 20101  1  0  0  0
 21 23  1  0  0  0
 22 28  1  0  0  0
 22 32  2  0  0  0
 26 27  1  0  0  0
 28102  1  0  0  0
 28103  1  0  0  0
 29104  1  0  0  0
 29105  1  0  0  0
 33 34  1  0  0  0
 33 66  1  0  0  0
 33 70  2  0  0  0
 34 36  1  0  0  0
 34 59  1  0  0  0
 34106  1  0  0  0
 35 44  2  0  0  0
 35 45  1  0  0  0
 35 68  1  0  0  0
 36 56  1  0  0  0
 36107  1  0  0  0
 37 39  1  0  0  0
 37 47  1  0  0  0
 37 66  1  0  0  0
 37108  1  0  0  0
 38 43  2  0  0  0
 38 46  1  0  0  0
 38 47  1  0  0  0
 39 64  1  0  0  0
 39 67  2  0  0  0
 40 52  1  0  0  0
 40 53  2  0  0  0
 40 58  1  0  0  0
 41109  1  0  0  0
 41110  1  0  0  0
 41111  1  0  0  0
 41 48  1  0  0  0
 42 43  1  0  0  0
 42 66  1  0  0  0
 42112  1  0  0  0
 42113  1  0  0  0
 43 44  1  0  0  0
 44114  1  0  0  0
 45 46  2  0  0  0
 45115  1  0  0  0
 46116  1  0  0  0
 47117  1  0  0  0
 47118  1  0  0  0
 48 56  1  0  0  0
 48 65  1  0  0  0
 48119  1  0  0  0
 49 50  1  0  0  0
 49 53  1  0  0  0
 49 64  1  0  0  0
 49120  1  0  0  0
 50 51  1  0  0  0
 50121  1  0  0  0
 50122  1  0  0  0
 51 52  1  0  0  0
 51123  1  0  0  0
 51124  1  0  0  0
 52125  1  0  0  0
 52126  1  0  0  0
 53 54  1  0  0  0
 54 55  2  0  0  0
 54127  1  0  0  0
 55 57  1  0  0  0
 55128  1  0  0  0
 56 69  2  0  0  0
 57 58  2  0  0  0
 57129  1  0  0  0
 58130  1  0  0  0
 59 60  1  0  0  0
 59 61  1  0  0  0
 59 62  1  0  0  0
 60131  1  0  0  0
 60132  1  0  0  0
 60133  1  0  0  0
 61134  1  0  0  0
 61135  1  0  0  0
 61136  1  0  0  0
 62137  1  0  0  0
 62138  1  0  0  0
 62139  1  0  0  0
 63 65  1  0  0  0
 63140  1  0  0  0
 63141  1  0  0  0
 63142  1  0  0  0
 64143  1  0  0  0
 65144  1  0  0  0
 68 82  1  0  0  0
 71 74  2  0  0  0
 71 75  1  0  0  0
 71145  1  0  0  0
 72 73  2  0  0  0
 72 83  1  0  0  0
 72146  1  0  0  0
 73 74  1  0  0  0
 73 77  1  0  0  0
 74 85  1  0  0  0
 75 83  2  0  0  0
 75 84  1  0  0  0
 76 84  1  0  0  0
 76147  1  0  0  0
 76148  1  0  0  0
 76149  1  0  0  0
 77 78  1  0  0  0
 77150  1  0  0  0
 77151  1  0  0  0
 78 79  1  0  0  0
 78152  1  0  0  0
 78153  1  0  0  0
 79 80  1  0  0  0
 79154  1  0  0  0
 79155  1  0  0  0
 80 81  1  0  0  0
 80156  1  0  0  0
 80157  1  0  0  0
 81 82  1  0  0  0
 81158  1  0  0  0
 81159  1  0  0  0
 82160  1  0  0  0
 82161  1  0  0  0
M  ISO  4   1 100  68 101  82 101  84 100
M  END
> <chiral flag>
0

> <version>
0

> <s_m_source_file>
/data/baiqing/PycharmProjects/Reinvent-master-3.2/result/LINK_invent/BTK/process_docking_weight1_custom_sum_contain_oxygen_bond_distance_aromatic_linkinvent_7_9_3/rearranged_h_0022.sdf

> <i_m_source_file_index>
77

> <r_mmod_Potential_Energy-OPLS-2005>
126.323173522949

> <r_mmod_Stretch_Energy-OPLS-2005>
32.8994255065918

> <r_mmod_Bend_Energy-OPLS-2005>
115.906463623047

> <r_mmod_Torsional_Energy-OPLS-2005>
401.768737792969

> <r_mmod_Improper_Torsional_Energy-OPLS-2005>
22.7972869873047

> <r_mmod_Van_der_Waal_Energy-OPLS-2005>
173.09309387207

> <r_mmod_Electrostatic_Energy-OPLS-2005>
-456.50634765625

> <r_mmod_Solvation_Energy-OPLS-2005>
-197.525909423828

> <b_mmod_Minimization_Converged-OPLS-2005>
0

> <r_mmod_RMS_Derivative-OPLS-2005>
4.24100589752197

$$$$
77
                    3D
 Structure written by MMmdl.
150158  0  0  1  0            999 V2000
  -30.3083  -15.5894   20.3390 C   0  0  0  0  0  0
  -30.4353  -13.0493   19.5294 C   0  0  0  0  0  0
  -29.5499  -12.6427   18.3169 C   0  0  0  0  0  0
  -28.1201  -12.2971   18.7623 C   0  0  0  0  0  0
  -27.6003  -13.3020   19.8150 C   0  0  2  0  0  0
  -28.6239  -13.6103   20.9323 C   0  0  0  0  0  0
  -25.2343  -13.8279   20.5782 C   0  0  0  0  0  0
  -24.1726  -13.0436   20.9292 C   0  0  0  0  0  0
  -24.6423  -11.6945   20.8771 C   0  0  0  0  0  0
  -23.9118  -10.4297   21.0403 C   0  0  0  0  0  0
  -24.3651   -9.4207   21.9184 C   0  0  0  0  0  0
  -23.6312   -8.2249   22.0752 C   0  0  0  0  0  0
  -22.4294   -8.0290   21.3545 C   0  0  0  0  0  0
  -21.9942   -9.0267   20.4645 C   0  0  0  0  0  0
  -22.7285  -10.2139   20.3054 C   0  0  0  0  0  0
  -21.6860   -6.0740   22.5276 C   0  0  0  0  0  0
  -21.4019   -6.5641   23.8209 C   0  0  0  0  0  0
  -21.3661   -5.6796   24.9172 C   0  0  0  0  0  0
  -21.6042   -4.3057   24.7224 C   0  0  0  0  0  0
  -21.8822   -3.8149   23.4346 C   0  0  0  0  0  0
  -21.9194   -4.6966   22.3401 C   0  0  0  0  0  0
  -22.7739  -13.5168   21.1925 C   0  0  0  0  0  0
  -22.1664   -4.2149   21.0979 F   0  0  0  0  0  0
  -21.5627   -3.4542   25.7736 F   0  0  0  0  0  0
  -29.8026  -14.2222   20.2771 N   0  0  0  0  0  0
  -26.2794  -12.9603   20.3245 N   0  0  0  0  0  0
  -25.9371  -11.6676   20.5718 N   0  0  0  0  0  0
  -22.0405  -12.8146   22.0476 N   0  0  0  0  0  0
  -25.3916  -15.2016   20.4182 N   0  0  0  0  0  0
  -31.5464  -15.5602   20.2029 O   0  0  0  0  0  0
  -21.6654   -6.8888   21.4240 O   0  0  0  0  0  0
  -22.3411  -14.5472   20.6765 O   0  0  0  0  0  0
  -24.6837  -31.8010   23.1533 C   0  0  0  0  0  0
  -25.9418  -32.4472   23.8073 C   0  0  1  0  0  0
  -27.2198  -26.7047   20.2173 C   0  0  0  0  0  0
  -25.6001  -33.8296   24.1956 N   0  0  0  0  0  0
  -23.5100  -30.4048   21.5074 C   0  0  2  0  0  0
  -24.9666  -28.7491   20.1220 C   0  0  0  0  0  0
  -22.7762  -29.4324   22.4708 C   0  0  0  0  0  0
  -18.0340  -28.1428   22.8446 C   0  0  0  0  0  0
  -24.1491  -36.7153   23.2653 C   0  0  0  0  0  0
  -26.0913  -30.5334   21.4206 C   0  0  0  0  0  0
  -26.1559  -29.0979   20.7734 C   0  0  0  0  0  0
  -27.2708  -28.1047   20.7884 C   0  0  0  0  0  0
  -26.0053  -26.5781   19.4951 C   0  0  0  0  0  0
  -24.9293  -27.5132   19.4588 C   0  0  0  0  0  0
  -23.7650  -29.7052   20.1423 C   0  0  0  0  0  0
  -25.4142  -36.2898   24.0284 C   0  0  1  0  0  0
  -20.5978  -28.3785   23.1137 C   0  0  2  0  0  0
  -20.6816  -26.9448   22.5401 C   0  0  0  0  0  0
  -19.5796  -26.6376   21.5217 C   0  0  0  0  0  0
  -18.1972  -26.7956   22.1612 C   0  0  0  0  0  0
  -19.1609  -28.8928   23.2772 C   0  0  0  0  0  0
  -18.9520  -30.1509   23.8821 C   0  0  0  0  0  0
  -17.6516  -30.6614   24.0550 C   0  0  0  0  0  0
  -25.9128  -34.9288   23.4955 C   0  0  0  0  0  0
  -16.5402  -29.9099   23.6357 C   0  0  0  0  0  0
  -16.7320  -28.6522   23.0363 C   0  0  0  0  0  0
  -26.4595  -31.6504   25.0692 C   0  0  0  0  0  0
  -25.3653  -31.3832   26.1303 C   0  0  0  0  0  0
  -27.0524  -30.2838   24.6600 C   0  0  0  0  0  0
  -27.6042  -32.4370   25.7508 C   0  0  0  0  0  0
  -27.5555  -37.1731   24.8467 C   0  0  0  0  0  0
  -21.4411  -29.3031   22.3451 N   0  0  0  0  0  0
  -26.4266  -37.3658   23.9409 N   0  0  0  0  0  0
  -24.7852  -30.9455   22.0796 N   0  0  0  0  0  0
  -23.4203  -28.7907   23.3044 O   0  0  0  0  0  0
  -28.1817  -25.4811   20.2122 O   0  0  0  0  0  0
  -26.5761  -34.8863   22.4569 O   0  0  0  0  0  0
  -23.5858  -32.1087   23.6485 O   0  0  0  0  0  0
  -29.9801  -19.7534   21.0333 C   0  0  0  0  0  0
  -28.0516  -20.9200   19.5132 C   0  0  0  0  0  0
  -28.6322  -22.0522   20.3021 C   0  0  0  0  0  0
  -29.3660  -18.6162   20.2910 C   0  0  0  0  0  0
  -29.6513  -21.2545   21.0564 C   0  0  0  0  0  0
  -28.3581  -19.4117   19.5378 C   0  0  0  0  0  0
  -26.9598  -21.3474   18.5415 C   0  0  0  0  0  0
  -26.4334  -23.6279   20.7820 C   0  0  0  0  0  0
  -27.9508  -23.7790   20.5878 C   0  0  2  0  0  0
  -29.4761  -16.8963   20.3294 N   0  0  0  0  0  0
  -30.5866  -22.1677   22.1840 Cl  0  0  0  0  0  0
  -27.3509  -18.3965   18.5597 Cl  0  0  0  0  0  0
  -31.4255  -13.3194   19.1604 H   0  0  0  0  0  0
  -30.6003  -12.2004   20.1947 H   0  0  0  0  0  0
  -29.9933  -11.8010   17.7837 H   0  0  0  0  0  0
  -29.5153  -13.4707   17.6071 H   0  0  0  0  0  0
  -28.1383  -11.2959   19.1945 H   0  0  0  0  0  0
  -27.4485  -12.2508   17.9047 H   0  0  0  0  0  0
  -27.4704  -14.2302   19.2562 H   0  0  0  0  0  0
  -28.8764  -12.7202   21.5102 H   0  0  0  0  0  0
  -28.2029  -14.3268   21.6394 H   0  0  0  0  0  0
  -25.2789   -9.5684   22.4771 H   0  0  0  0  0  0
  -24.0013   -7.4644   22.7479 H   0  0  0  0  0  0
  -21.0872   -8.8799   19.8952 H   0  0  0  0  0  0
  -22.3744  -10.9684   19.6170 H   0  0  0  0  0  0
  -21.2014   -7.6151   23.9711 H   0  0  0  0  0  0
  -21.1479   -6.0526   25.9073 H   0  0  0  0  0  0
  -22.0597   -2.7608   23.2848 H   0  0  0  0  0  0
  -22.4043  -11.9821   22.4873 H   0  0  0  0  0  0
  -21.1016  -13.1140   22.2684 H   0  0  0  0  0  0
  -24.6092  -15.8406   20.5103 H   0  0  0  0  0  0
  -26.2156  -15.6426   20.0349 H   0  0  0  0  0  0
  -26.7501  -32.4935   23.0782 H   0  0  0  0  0  0
  -25.0060  -33.9342   25.0050 H   0  0  0  0  0  0
  -22.8365  -31.2432   21.3180 H   0  0  0  0  0  0
  -23.3771  -35.9466   23.3275 H   0  0  0  0  0  0
  -24.3563  -36.8853   22.2077 H   0  0  0  0  0  0
  -23.7248  -37.6318   23.6756 H   0  0  0  0  0  0
  -26.2956  -31.2573   20.6300 H   0  0  0  0  0  0
  -26.9426  -30.6013   22.0853 H   0  0  0  0  0  0
  -28.1691  -28.3815   21.3220 H   0  0  0  0  0  0
  -25.8494  -25.6584   18.9517 H   0  0  0  0  0  0
  -24.0377  -27.2414   18.9100 H   0  0  0  0  0  0
  -23.9430  -30.4665   19.3821 H   0  0  0  0  0  0
  -22.8698  -29.1728   19.8157 H   0  0  0  0  0  0
  -25.1352  -36.1657   25.0777 H   0  0  0  0  0  0
  -21.0059  -28.3417   24.1264 H   0  0  0  0  0  0
  -20.5697  -26.2404   23.3659 H   0  0  0  0  0  0
  -21.6672  -26.7403   22.1206 H   0  0  0  0  0  0
  -19.6961  -25.6270   21.1291 H   0  0  0  0  0  0
  -19.6748  -27.3139   20.6715 H   0  0  0  0  0  0
  -17.4241  -26.6688   21.4016 H   0  0  0  0  0  0
  -18.0361  -26.0122   22.9031 H   0  0  0  0  0  0
  -19.7995  -30.7338   24.2157 H   0  0  0  0  0  0
  -17.5070  -31.6286   24.5165 H   0  0  0  0  0  0
  -15.5400  -30.2983   23.7730 H   0  0  0  0  0  0
  -15.8712  -28.0825   22.7124 H   0  0  0  0  0  0
  -24.5871  -30.7151   25.7594 H   0  0  0  0  0  0
  -24.8810  -32.3059   26.4504 H   0  0  0  0  0  0
  -25.7822  -30.9139   27.0223 H   0  0  0  0  0  0
  -26.3240  -29.6453   24.1589 H   0  0  0  0  0  0
  -27.3938  -29.7295   25.5349 H   0  0  0  0  0  0
  -27.9229  -30.3952   24.0137 H   0  0  0  0  0  0
  -27.2581  -33.3751   26.1863 H   0  0  0  0  0  0
  -28.3958  -32.6805   25.0409 H   0  0  0  0  0  0
  -28.0590  -31.8653   26.5607 H   0  0  0  0  0  0
  -28.2539  -38.0051   24.7498 H   0  0  0  0  0  0
  -28.1086  -36.2571   24.6314 H   0  0  0  0  0  0
  -27.2271  -37.1386   25.8870 H   0  0  0  0  0  0
  -20.9719  -29.8695   21.6521 H   0  0  0  0  0  0
  -26.0091  -38.2704   24.1433 H   0  0  0  0  0  0
  -30.7607  -19.4609   21.7195 H   0  0  0  0  0  0
  -25.9723  -21.1609   18.9649 H   0  0  0  0  0  0
  -27.0362  -20.8220   17.5895 H   0  0  0  0  0  0
  -27.0416  -22.4046   18.2936 H   0  0  0  0  0  0
  -26.2021  -22.7123   21.3270 H   0  0  0  0  0  0
  -25.8982  -23.5845   19.8350 H   0  0  0  0  0  0
  -26.0202  -24.4524   21.3618 H   0  0  0  0  0  0
  -28.3141  -23.8578   21.6128 H   0  0  0  0  0  0
  -28.5325  -16.5525   20.2322 H   0  0  0  0  0  0
  1 25  1  0  0  0
  1 30  2  0  0  0
  1 80  1  0  0  0
  2  3  1  0  0  0
  2 25  1  0  0  0
  2 83  1  0  0  0
  2 84  1  0  0  0
  3  4  1  0  0  0
  3 85  1  0  0  0
  3 86  1  0  0  0
  4  5  1  0  0  0
  4 87  1  0  0  0
  4 88  1  0  0  0
  5  6  1  0  0  0
  5 26  1  0  0  0
  5 89  1  0  0  0
  6 25  1  0  0  0
  6 90  1  0  0  0
  6 91  1  0  0  0
  7  8  2  0  0  0
  7 26  1  0  0  0
  7 29  1  0  0  0
  8  9  1  0  0  0
  8 22  1  0  0  0
  9 10  1  0  0  0
  9 27  2  0  0  0
 10 11  2  0  0  0
 10 15  1  0  0  0
 11 12  1  0  0  0
 11 92  1  0  0  0
 12 13  2  0  0  0
 12 93  1  0  0  0
 13 14  1  0  0  0
 13 31  1  0  0  0
 14 15  2  0  0  0
 14 94  1  0  0  0
 15 95  1  0  0  0
 16 17  2  0  0  0
 16 21  1  0  0  0
 16 31  1  0  0  0
 17 18  1  0  0  0
 17 96  1  0  0  0
 18 19  2  0  0  0
 18 97  1  0  0  0
 19 20  1  0  0  0
 19 24  1  0  0  0
 20 21  2  0  0  0
 20 98  1  0  0  0
 21 23  1  0  0  0
 22 28  1  0  0  0
 22 32  2  0  0  0
 26 27  1  0  0  0
 28 99  1  0  0  0
 28100  1  0  0  0
 29101  1  0  0  0
 29102  1  0  0  0
 33 34  1  0  0  0
 33 66  1  0  0  0
 33 70  2  0  0  0
 34 36  1  0  0  0
 34 59  1  0  0  0
 34103  1  0  0  0
 35 44  2  0  0  0
 35 45  1  0  0  0
 35 68  1  0  0  0
 36 56  1  0  0  0
 36104  1  0  0  0
 37 39  1  0  0  0
 37 47  1  0  0  0
 37 66  1  0  0  0
 37105  1  0  0  0
 38 43  2  0  0  0
 38 46  1  0  0  0
 38 47  1  0  0  0
 39 64  1  0  0  0
 39 67  2  0  0  0
 40 52  1  0  0  0
 40 53  2  0  0  0
 40 58  1  0  0  0
 41106  1  0  0  0
 41107  1  0  0  0
 41108  1  0  0  0
 41 48  1  0  0  0
 42 43  1  0  0  0
 42 66  1  0  0  0
 42109  1  0  0  0
 42110  1  0  0  0
 43 44  1  0  0  0
 44111  1  0  0  0
 45 46  2  0  0  0
 45112  1  0  0  0
 46113  1  0  0  0
 47114  1  0  0  0
 47115  1  0  0  0
 48 56  1  0  0  0
 48 65  1  0  0  0
 48116  1  0  0  0
 49 50  1  0  0  0
 49 53  1  0  0  0
 49 64  1  0  0  0
 49117  1  0  0  0
 50 51  1  0  0  0
 50118  1  0  0  0
 50119  1  0  0  0
 51 52  1  0  0  0
 51120  1  0  0  0
 51121  1  0  0  0
 52122  1  0  0  0
 52123  1  0  0  0
 53 54  1  0  0  0
 54 55  2  0  0  0
 54124  1  0  0  0
 55 57  1  0  0  0
 55125  1  0  0  0
 56 69  2  0  0  0
 57 58  2  0  0  0
 57126  1  0  0  0
 58127  1  0  0  0
 59 60  1  0  0  0
 59 61  1  0  0  0
 59 62  1  0  0  0
 60128  1  0  0  0
 60129  1  0  0  0
 60130  1  0  0  0
 61131  1  0  0  0
 61132  1  0  0  0
 61133  1  0  0  0
 62134  1  0  0  0
 62135  1  0  0  0
 62136  1  0  0  0
 63 65  1  0  0  0
 63137  1  0  0  0
 63138  1  0  0  0
 63139  1  0  0  0
 64140  1  0  0  0
 65141  1  0  0  0
 68 79  1  0  0  0
 71 74  2  0  0  0
 71 75  1  0  0  0
 71142  1  0  0  0
 72 73  1  0  0  0
 72 76  2  0  0  0
 72 77  1  0  0  0
 73 75  2  0  0  0
 73 79  1  0  0  0
 74 76  1  0  0  0
 74 80  1  0  0  0
 75 81  1  0  0  0
 76 82  1  0  0  0
 77143  1  0  0  0
 77144  1  0  0  0
 77145  1  0  0  0
 78146  1  0  0  0
 78147  1  0  0  0
 78148  1  0  0  0
 78 79  1  0  0  0
 79149  1  0  0  0
 80150  1  0  0  0
M  ISO  4   1 100  68 101  79 101  80 100
M  END
> <chiral flag>
0

> <version>
0

> <s_m_source_file>
/data/baiqing/PycharmProjects/Reinvent-master-3.2/result/LINK_invent/BTK/process_docking_weight1_custom_sum_contain_oxygen_bond_distance_aromatic_linkinvent_7_9_3/rearranged_h_0022.sdf

> <i_m_source_file_index>
78

> <r_mmod_Potential_Energy-OPLS-2005>
2296.68872070312

> <r_mmod_Stretch_Energy-OPLS-2005>
932.129821777344

> <r_mmod_Bend_Energy-OPLS-2005>
672.52978515625

> <r_mmod_Torsional_Energy-OPLS-2005>
270.282196044922

> <r_mmod_Improper_Torsional_Energy-OPLS-2005>
10.3097505569458

> <r_mmod_Van_der_Waal_Energy-OPLS-2005>
133.552520751953

> <r_mmod_Electrostatic_Energy-OPLS-2005>
-375.232269287109

> <r_mmod_Solvation_Energy-OPLS-2005>
-207.58283996582

> <b_mmod_Minimization_Converged-OPLS-2005>
0

> <r_mmod_RMS_Derivative-OPLS-2005>
1.21413278579712

$$$$
78
                    3D
 Structure written by MMmdl.
153161  0  0  1  0            999 V2000
  -30.7120  -14.5709   20.5286 C   0  0  0  0  0  0
  -30.4153  -12.3602   19.4478 C   0  0  0  0  0  0
  -29.4940  -12.4912   18.2181 C   0  0  0  0  0  0
  -28.0202  -12.3402   18.6368 C   0  0  0  0  0  0
  -27.6498  -13.2231   19.8588 C   0  0  2  0  0  0
  -28.6962  -13.0983   20.9893 C   0  0  0  0  0  0
  -25.2540  -13.8191   20.5700 C   0  0  0  0  0  0
  -24.1820  -13.0443   20.9192 C   0  0  0  0  0  0
  -24.6393  -11.6915   20.8737 C   0  0  0  0  0  0
  -23.9065  -10.4296   21.0400 C   0  0  0  0  0  0
  -24.3622   -9.4216   21.9179 C   0  0  0  0  0  0
  -23.6297   -8.2253   22.0754 C   0  0  0  0  0  0
  -22.4276   -8.0290   21.3549 C   0  0  0  0  0  0
  -21.9909   -9.0257   20.4651 C   0  0  0  0  0  0
  -22.7235  -10.2137   20.3053 C   0  0  0  0  0  0
  -21.6861   -6.0736   22.5276 C   0  0  0  0  0  0
  -21.4022   -6.5636   23.8209 C   0  0  0  0  0  0
  -21.3667   -5.6786   24.9171 C   0  0  0  0  0  0
  -21.6046   -4.3050   24.7222 C   0  0  0  0  0  0
  -21.8814   -3.8141   23.4340 C   0  0  0  0  0  0
  -21.9195   -4.6959   22.3397 C   0  0  0  0  0  0
  -22.7841  -13.5224   21.1849 C   0  0  0  0  0  0
  -22.1663   -4.2146   21.0973 F   0  0  0  0  0  0
  -21.5630   -3.4533   25.7732 F   0  0  0  0  0  0
  -30.0143  -13.4007   20.4150 N   0  0  0  0  0  0
  -26.2978  -12.9394   20.3326 N   0  0  0  0  0  0
  -25.9328  -11.6537   20.5769 N   0  0  0  0  0  0
  -22.0491  -12.8230   22.0419 N   0  0  0  0  0  0
  -25.4207  -15.1916   20.4142 N   0  0  0  0  0  0
  -31.8743  -14.6598   20.1287 O   0  0  0  0  0  0
  -21.6649   -6.8882   21.4237 O   0  0  0  0  0  0
  -22.3517  -14.5518   20.6680 O   0  0  0  0  0  0
  -24.6226  -31.8653   23.2083 C   0  0  0  0  0  0
  -25.9085  -32.4811   23.8395 C   0  0  1  0  0  0
  -27.2129  -27.3445   20.1129 C   0  0  0  0  0  0
  -25.5917  -33.8614   24.2321 N   0  0  0  0  0  0
  -23.4144  -30.4933   21.5505 C   0  0  2  0  0  0
  -24.8588  -28.9613   20.1101 C   0  0  0  0  0  0
  -22.7458  -29.4659   22.4947 C   0  0  0  0  0  0
  -18.0284  -28.1382   22.8488 C   0  0  0  0  0  0
  -24.1487  -36.7308   23.2635 C   0  0  0  0  0  0
  -25.9553  -30.8037   21.3783 C   0  0  0  0  0  0
  -26.0279  -29.4349   20.7187 C   0  0  0  0  0  0
  -27.2078  -28.6361   20.7177 C   0  0  0  0  0  0
  -26.0230  -26.9356   19.4593 C   0  0  0  0  0  0
  -24.8559  -27.7144   19.4748 C   0  0  0  0  0  0
  -23.6279  -29.8387   20.1625 C   0  0  0  0  0  0
  -25.4108  -36.3113   24.0336 C   0  0  1  0  0  0
  -20.5883  -28.3691   23.1284 C   0  0  2  0  0  0
  -20.6780  -26.9418   22.5407 C   0  0  0  0  0  0
  -19.5756  -26.6382   21.5212 C   0  0  0  0  0  0
  -18.1932  -26.7925   22.1623 C   0  0  0  0  0  0
  -19.1535  -28.8849   23.2886 C   0  0  0  0  0  0
  -18.9462  -30.1448   23.8910 C   0  0  0  0  0  0
  -17.6464  -30.6590   24.0564 C   0  0  0  0  0  0
  -25.9043  -34.9475   23.5129 C   0  0  0  0  0  0
  -16.5354  -29.9095   23.6321 C   0  0  0  0  0  0
  -16.7270  -28.6507   23.0352 C   0  0  0  0  0  0
  -26.4469  -31.6602   25.0748 C   0  0  0  0  0  0
  -25.3698  -31.3740   26.1474 C   0  0  0  0  0  0
  -27.0298  -30.3028   24.6173 C   0  0  0  0  0  0
  -27.6044  -32.4321   25.7507 C   0  0  0  0  0  0
  -27.5586  -37.1806   24.8456 C   0  0  0  0  0  0
  -21.4173  -29.3058   22.3688 N   0  0  0  0  0  0
  -26.4289  -37.3803   23.9413 N   0  0  0  0  0  0
  -24.6829  -31.0694   22.1026 N   0  0  0  0  0  0
  -23.4194  -28.8178   23.3000 O   0  0  0  0  0  0
  -28.3165  -26.4805   20.1916 O   0  0  0  0  0  0
  -26.5614  -34.8933   22.4697 O   0  0  0  0  0  0
  -23.5394  -32.1436   23.7422 O   0  0  0  0  0  0
  -28.3546  -19.9217   19.8711 C   0  0  0  0  0  0
  -30.1713  -20.9010   21.1036 C   0  0  0  0  0  0
  -28.9901  -21.0940   20.3557 C   0  0  0  0  0  0
  -30.0323  -18.4090   20.8811 C   0  0  0  0  0  0
  -28.8516  -18.6114   20.1124 C   0  0  0  0  0  0
  -30.6796  -19.5947   21.3547 C   0  0  0  0  0  0
  -28.3482  -22.4770   20.0286 C   0  0  0  0  0  0
  -30.6962  -17.0181   21.1983 C   0  0  0  0  0  0
  -28.9681  -23.8722   20.4454 C   0  0  0  0  0  0
  -28.0299  -25.0523   19.9728 C   0  0  0  0  0  0
  -30.0536  -15.6831   20.9579 N   0  0  0  0  0  0
  -27.9795  -17.2918   19.4161 Cl  0  0  0  0  0  0
  -32.1512  -19.4839   22.2578 Cl  0  0  0  0  0  0
  -31.4604  -12.4430   19.1456 H   0  0  0  0  0  0
  -30.3168  -11.3711   19.8972 H   0  0  0  0  0  0
  -29.7480  -11.7344   17.4749 H   0  0  0  0  0  0
  -29.6469  -13.4587   17.7372 H   0  0  0  0  0  0
  -27.8575  -11.2890   18.8798 H   0  0  0  0  0  0
  -27.3618  -12.5623   17.7960 H   0  0  0  0  0  0
  -27.6645  -14.2545   19.5070 H   0  0  0  0  0  0
  -28.6945  -12.0897   21.4055 H   0  0  0  0  0  0
  -28.4534  -13.7664   21.8167 H   0  0  0  0  0  0
  -25.2769   -9.5696   22.4753 H   0  0  0  0  0  0
  -24.0010   -7.4641   22.7470 H   0  0  0  0  0  0
  -21.0840   -8.8766   19.8955 H   0  0  0  0  0  0
  -22.3685  -10.9676   19.6162 H   0  0  0  0  0  0
  -21.2023   -7.6146   23.9711 H   0  0  0  0  0  0
  -21.1499   -6.0521   25.9076 H   0  0  0  0  0  0
  -22.0591   -2.7602   23.2835 H   0  0  0  0  0  0
  -22.4118  -11.9912   22.4838 H   0  0  0  0  0  0
  -21.1107  -13.1253   22.2614 H   0  0  0  0  0  0
  -24.6482  -15.8385   20.5285 H   0  0  0  0  0  0
  -26.2671  -15.6437   20.0891 H   0  0  0  0  0  0
  -26.7155  -32.5495   23.1150 H   0  0  0  0  0  0
  -25.0048  -33.9765   25.0453 H   0  0  0  0  0  0
  -22.7068  -31.3136   21.4130 H   0  0  0  0  0  0
  -23.3763  -35.9626   23.3285 H   0  0  0  0  0  0
  -24.3588  -36.8934   22.2053 H   0  0  0  0  0  0
  -23.7212  -37.6498   23.6653 H   0  0  0  0  0  0
  -26.0822  -31.5691   20.6121 H   0  0  0  0  0  0
  -26.8386  -30.8525   22.0033 H   0  0  0  0  0  0
  -28.0995  -28.9891   21.2165 H   0  0  0  0  0  0
  -25.9502  -25.9931   18.9383 H   0  0  0  0  0  0
  -23.9606  -27.3476   18.9918 H   0  0  0  0  0  0
  -23.7504  -30.6203   19.4118 H   0  0  0  0  0  0
  -22.7472  -29.2712   19.8560 H   0  0  0  0  0  0
  -25.1281  -36.1981   25.0827 H   0  0  0  0  0  0
  -20.9973  -28.3265   24.1404 H   0  0  0  0  0  0
  -20.5684  -26.2306   23.3606 H   0  0  0  0  0  0
  -21.6651  -26.7455   22.1199 H   0  0  0  0  0  0
  -19.6922  -25.6288   21.1253 H   0  0  0  0  0  0
  -19.6693  -27.3184   20.6733 H   0  0  0  0  0  0
  -17.4202  -26.6665   21.4026 H   0  0  0  0  0  0
  -18.0339  -26.0067   22.9019 H   0  0  0  0  0  0
  -19.7937  -30.7255   24.2296 H   0  0  0  0  0  0
  -17.5021  -31.6271   24.5163 H   0  0  0  0  0  0
  -15.5357  -30.3008   23.7632 H   0  0  0  0  0  0
  -15.8666  -28.0827   22.7070 H   0  0  0  0  0  0
  -24.5859  -30.7111   25.7784 H   0  0  0  0  0  0
  -24.8905  -32.2918   26.4900 H   0  0  0  0  0  0
  -25.8009  -30.8897   27.0245 H   0  0  0  0  0  0
  -26.2863  -29.6802   24.1181 H   0  0  0  0  0  0
  -27.3984  -29.7256   25.4661 H   0  0  0  0  0  0
  -27.8741  -30.4320   23.9399 H   0  0  0  0  0  0
  -27.2660  -33.3601   26.2129 H   0  0  0  0  0  0
  -28.3828  -32.6913   25.0318 H   0  0  0  0  0  0
  -28.0746  -31.8422   26.5385 H   0  0  0  0  0  0
  -28.2590  -38.0119   24.7546 H   0  0  0  0  0  0
  -28.1102  -36.2658   24.6234 H   0  0  0  0  0  0
  -27.2319  -37.1399   25.8862 H   0  0  0  0  0  0
  -20.9335  -29.8805   21.6930 H   0  0  0  0  0  0
  -26.0183  -38.2878   24.1442 H   0  0  0  0  0  0
  -27.4540  -20.0255   19.2816 H   0  0  0  0  0  0
  -30.7065  -21.7576   21.4885 H   0  0  0  0  0  0
  -27.3366  -22.4336   20.4340 H   0  0  0  0  0  0
  -28.2174  -22.4923   18.9460 H   0  0  0  0  0  0
  -30.9364  -17.0208   22.2618 H   0  0  0  0  0  0
  -31.6631  -17.0453   20.6936 H   0  0  0  0  0  0
  -29.9591  -23.9855   20.0069 H   0  0  0  0  0  0
  -29.0911  -23.9146   21.5288 H   0  0  0  0  0  0
  -27.0727  -24.8293   20.4485 H   0  0  0  0  0  0
  -27.8855  -24.9271   18.8991 H   0  0  0  0  0  0
  -29.0813  -15.5821   21.2049 H   0  0  0  0  0  0
  1 25  1  0  0  0
  1 30  2  0  0  0
  1 81  1  0  0  0
  2  3  1  0  0  0
  2 25  1  0  0  0
  2 84  1  0  0  0
  2 85  1  0  0  0
  3  4  1  0  0  0
  3 86  1  0  0  0
  3 87  1  0  0  0
  4  5  1  0  0  0
  4 88  1  0  0  0
  4 89  1  0  0  0
  5  6  1  0  0  0
  5 26  1  0  0  0
  5 90  1  0  0  0
  6 25  1  0  0  0
  6 91  1  0  0  0
  6 92  1  0  0  0
  7  8  2  0  0  0
  7 26  1  0  0  0
  7 29  1  0  0  0
  8  9  1  0  0  0
  8 22  1  0  0  0
  9 10  1  0  0  0
  9 27  2  0  0  0
 10 11  2  0  0  0
 10 15  1  0  0  0
 11 12  1  0  0  0
 11 93  1  0  0  0
 12 13  2  0  0  0
 12 94  1  0  0  0
 13 14  1  0  0  0
 13 31  1  0  0  0
 14 15  2  0  0  0
 14 95  1  0  0  0
 15 96  1  0  0  0
 16 17  2  0  0  0
 16 21  1  0  0  0
 16 31  1  0  0  0
 17 18  1  0  0  0
 17 97  1  0  0  0
 18 19  2  0  0  0
 18 98  1  0  0  0
 19 20  1  0  0  0
 19 24  1  0  0  0
 20 21  2  0  0  0
 20 99  1  0  0  0
 21 23  1  0  0  0
 22 28  1  0  0  0
 22 32  2  0  0  0
 26 27  1  0  0  0
 28100  1  0  0  0
 28101  1  0  0  0
 29102  1  0  0  0
 29103  1  0  0  0
 33 34  1  0  0  0
 33 66  1  0  0  0
 33 70  2  0  0  0
 34 36  1  0  0  0
 34 59  1  0  0  0
 34104  1  0  0  0
 35 44  2  0  0  0
 35 45  1  0  0  0
 35 68  1  0  0  0
 36 56  1  0  0  0
 36105  1  0  0  0
 37 39  1  0  0  0
 37 47  1  0  0  0
 37 66  1  0  0  0
 37106  1  0  0  0
 38 43  2  0  0  0
 38 46  1  0  0  0
 38 47  1  0  0  0
 39 64  1  0  0  0
 39 67  2  0  0  0
 40 52  1  0  0  0
 40 53  2  0  0  0
 40 58  1  0  0  0
 41107  1  0  0  0
 41108  1  0  0  0
 41109  1  0  0  0
 41 48  1  0  0  0
 42 43  1  0  0  0
 42 66  1  0  0  0
 42110  1  0  0  0
 42111  1  0  0  0
 43 44  1  0  0  0
 44112  1  0  0  0
 45 46  2  0  0  0
 45113  1  0  0  0
 46114  1  0  0  0
 47115  1  0  0  0
 47116  1  0  0  0
 48 56  1  0  0  0
 48 65  1  0  0  0
 48117  1  0  0  0
 49 50  1  0  0  0
 49 53  1  0  0  0
 49 64  1  0  0  0
 49118  1  0  0  0
 50 51  1  0  0  0
 50119  1  0  0  0
 50120  1  0  0  0
 51 52  1  0  0  0
 51121  1  0  0  0
 51122  1  0  0  0
 52123  1  0  0  0
 52124  1  0  0  0
 53 54  1  0  0  0
 54 55  2  0  0  0
 54125  1  0  0  0
 55 57  1  0  0  0
 55126  1  0  0  0
 56 69  2  0  0  0
 57 58  2  0  0  0
 57127  1  0  0  0
 58128  1  0  0  0
 59 60  1  0  0  0
 59 61  1  0  0  0
 59 62  1  0  0  0
 60129  1  0  0  0
 60130  1  0  0  0
 60131  1  0  0  0
 61132  1  0  0  0
 61133  1  0  0  0
 61134  1  0  0  0
 62135  1  0  0  0
 62136  1  0  0  0
 62137  1  0  0  0
 63 65  1  0  0  0
 63138  1  0  0  0
 63139  1  0  0  0
 63140  1  0  0  0
 64141  1  0  0  0
 65142  1  0  0  0
 68 80  1  0  0  0
 71 73  2  0  0  0
 71 75  1  0  0  0
 71143  1  0  0  0
 72 73  1  0  0  0
 72 76  2  0  0  0
 72144  1  0  0  0
 73 77  1  0  0  0
 74 75  2  0  0  0
 74 76  1  0  0  0
 74 78  1  0  0  0
 75 82  1  0  0  0
 76 83  1  0  0  0
 77 79  1  0  0  0
 77145  1  0  0  0
 77146  1  0  0  0
 78 81  1  0  0  0
 78147  1  0  0  0
 78148  1  0  0  0
 79 80  1  0  0  0
 79149  1  0  0  0
 79150  1  0  0  0
 80151  1  0  0  0
 80152  1  0  0  0
 81153  1  0  0  0
M  ISO  4   1 100  68 101  80 101  81 100
M  END
> <chiral flag>
0

> <version>
0

> <s_m_source_file>
/data/baiqing/PycharmProjects/Reinvent-master-3.2/result/LINK_invent/BTK/process_docking_weight1_custom_sum_contain_oxygen_bond_distance_aromatic_linkinvent_7_9_3/rearranged_h_0022.sdf

> <i_m_source_file_index>
79

> <r_mmod_Potential_Energy-OPLS-2005>
27.4784297943115

> <r_mmod_Stretch_Energy-OPLS-2005>
66.8810577392578

> <r_mmod_Bend_Energy-OPLS-2005>
152.532012939453

> <r_mmod_Torsional_Energy-OPLS-2005>
190.907272338867

> <r_mmod_Improper_Torsional_Energy-OPLS-2005>
3.1338107585907

> <r_mmod_Van_der_Waal_Energy-OPLS-2005>
154.823837280273

> <r_mmod_Electrostatic_Energy-OPLS-2005>
-381.026153564453

> <r_mmod_Solvation_Energy-OPLS-2005>
-199.81266784668

> <b_mmod_Minimization_Converged-OPLS-2005>
0

> <r_mmod_RMS_Derivative-OPLS-2005>
1.31204414367676

$$$$
79
                    3D
 Structure written by MMmdl.
188196  0  0  1  0            999 V2000
  -30.5697  -14.4828   20.7083 C   0  0  0  0  0  0
  -30.4534  -12.3543   19.4140 C   0  0  0  0  0  0
  -29.5043  -12.5412   18.2075 C   0  0  0  0  0  0
  -28.0205  -12.3783   18.6083 C   0  0  0  0  0  0
  -27.6617  -13.1786   19.8884 C   0  0  2  0  0  0
  -28.6878  -12.8547   20.9938 C   0  0  0  0  0  0
  -25.2496  -13.8005   20.5468 C   0  0  0  0  0  0
  -24.1774  -13.0340   20.9090 C   0  0  0  0  0  0
  -24.6337  -11.6816   20.8715 C   0  0  0  0  0  0
  -23.9008  -10.4233   21.0405 C   0  0  0  0  0  0
  -24.3581   -9.4162   21.9182 C   0  0  0  0  0  0
  -23.6262   -8.2201   22.0752 C   0  0  0  0  0  0
  -22.4243   -8.0245   21.3541 C   0  0  0  0  0  0
  -21.9868   -9.0208   20.4640 C   0  0  0  0  0  0
  -22.7186  -10.2086   20.3048 C   0  0  0  0  0  0
  -21.6838   -6.0711   22.5275 C   0  0  0  0  0  0
  -21.4007   -6.5621   23.8207 C   0  0  0  0  0  0
  -21.3659   -5.6777   24.9172 C   0  0  0  0  0  0
  -21.6047   -4.3040   24.7223 C   0  0  0  0  0  0
  -21.8822   -3.8129   23.4345 C   0  0  0  0  0  0
  -21.9190   -4.6943   22.3400 C   0  0  0  0  0  0
  -22.7827  -13.5188   21.1809 C   0  0  0  0  0  0
  -22.1659   -4.2131   21.0977 F   0  0  0  0  0  0
  -21.5635   -3.4527   25.7738 F   0  0  0  0  0  0
  -30.0153  -13.2576   20.4916 N   0  0  0  0  0  0
  -26.2974  -12.9167   20.3339 N   0  0  0  0  0  0
  -25.9257  -11.6356   20.5767 N   0  0  0  0  0  0
  -22.0500  -12.8191   22.0400 N   0  0  0  0  0  0
  -25.4067  -15.1675   20.3641 N   0  0  0  0  0  0
  -31.6388  -14.8385   20.1925 O   0  0  0  0  0  0
  -21.6614   -6.8844   21.4234 O   0  0  0  0  0  0
  -22.3514  -14.5519   20.6701 O   0  0  0  0  0  0
  -24.6811  -31.9681   23.2038 C   0  0  0  0  0  0
  -25.9684  -32.5163   23.8552 C   0  0  1  0  0  0
  -25.1129  -27.2673   20.9381 C   0  0  0  0  0  0
  -25.6511  -33.8877   24.2561 N   0  0  0  0  0  0
  -23.4959  -30.6225   21.5514 C   0  0  2  0  0  0
  -24.8775  -29.3709   19.6973 C   0  0  0  0  0  0
  -23.1380  -29.5843   22.6326 C   0  0  0  0  0  0
  -18.7385  -28.2536   22.1385 C   0  0  0  0  0  0
  -24.1526  -36.7363   23.2601 C   0  0  0  0  0  0
  -25.9893  -30.8570   21.3778 C   0  0  0  0  0  0
  -25.8479  -29.5259   20.6806 C   0  0  0  0  0  0
  -26.0806  -28.3061   21.3197 C   0  0  0  0  0  0
  -25.4723  -27.0234   19.6045 C   0  0  0  0  0  0
  -24.8774  -28.1330   18.9728 C   0  0  0  0  0  0
  -23.6026  -30.1135   20.0478 C   0  0  0  0  0  0
  -25.4157  -36.3231   24.0326 C   0  0  1  0  0  0
  -21.4112  -28.3213   23.6069 C   0  0  2  0  0  0
  -22.1903  -26.2887   22.9715 C   0  0  0  0  0  0
  -20.7142  -25.5141   21.4287 C   0  0  0  0  0  0
  -19.1337  -26.7823   21.1203 C   0  0  0  0  0  0
  -19.7446  -28.9251   23.1223 C   0  0  0  0  0  0
  -19.2175  -30.0130   23.9073 C   0  0  0  0  0  0
  -17.8586  -30.4101   23.9628 C   0  0  0  0  0  0
  -25.9217  -34.9657   23.5147 C   0  0  0  0  0  0
  -16.9006  -29.6510   23.2816 C   0  0  0  0  0  0
  -17.3355  -28.5984   22.4208 C   0  0  0  0  0  0
  -26.4639  -31.6675   25.0872 C   0  0  0  0  0  0
  -25.3683  -31.3827   26.1407 C   0  0  0  0  0  0
  -27.0368  -30.3073   24.6306 C   0  0  0  0  0  0
  -27.6221  -32.4207   25.7793 C   0  0  0  0  0  0
  -27.5613  -37.1919   24.8463 C   0  0  0  0  0  0
  -21.9177  -29.5458   23.0377 N   0  0  0  0  0  0
  -26.4313  -37.3935   23.9433 N   0  0  0  0  0  0
  -24.7411  -31.2359   22.0572 N   0  0  0  0  0  0
  -23.9331  -28.8560   23.2128 O   0  0  0  0  0  0
  -23.5175  -27.2045   20.8962 O   0  0  0  0  0  0
  -26.5524  -34.9079   22.4567 O   0  0  0  0  0  0
  -23.5989  -32.2318   23.7537 O   0  0  0  0  0  0
  -27.9946  -18.6061   22.6762 C   0  0  0  0  0  0
  -19.9167  -26.4289   23.4544 C   0  0  0  0  0  0
  -29.9473  -21.1803   24.9095 C   0  0  0  0  0  0
  -30.2392  -22.1935   23.7944 C   0  0  0  0  0  0
  -29.5485  -20.4920   22.0491 C   0  0  0  0  0  0
  -29.1629  -19.4779   23.1548 C   0  0  1  0  0  0
  -28.8321  -20.1988   24.5048 C   0  0  1  0  0  0
  -30.6351  -21.4799   22.4950 C   0  0  2  0  0  0
  -28.5577  -19.2167   25.6640 C   0  0  0  0  0  0
  -20.4148  -25.9127   24.8896 C   0  0  0  0  0  0
  -21.4951  -27.6392   21.3797 C   0  0  0  0  0  0
  -20.5622  -24.3392   25.1433 C   0  0  0  0  0  0
  -21.1776  -23.3204   24.0994 C   0  0  0  0  0  0
  -22.4427  -22.4797   24.4759 C   0  0  0  0  0  0
  -22.8658  -21.4835   23.3410 C   0  0  0  0  0  0
  -24.1450  -20.6039   23.5481 C   0  0  0  0  0  0
  -24.3828  -19.5926   22.3795 C   0  0  0  0  0  0
  -25.5547  -18.5557   22.4731 C   0  0  0  0  0  0
  -29.6771  -16.7354   21.6839 C   0  0  0  0  0  0
  -28.3387  -17.0918   22.4495 C   0  0  0  0  0  0
  -26.8477  -19.2062   22.6175 N   0  0  0  0  0  0
  -29.7685  -15.2776   21.4588 N   0  0  0  0  0  0
  -18.7406  -25.9947   23.4546 O   0  0  0  0  0  0
  -31.7833  -20.8253   22.6755 F   0  0  0  0  0  0
  -28.3900  -16.4754   23.6313 F   0  0  0  0  0  0
  -27.3808  -16.5001   21.7472 F   0  0  0  0  0  0
  -31.4851  -12.5482   19.1146 H   0  0  0  0  0  0
  -30.4326  -11.3201   19.7613 H   0  0  0  0  0  0
  -29.7573  -11.8311   17.4190 H   0  0  0  0  0  0
  -29.6560  -13.5343   17.7812 H   0  0  0  0  0  0
  -27.8323  -11.3165   18.7745 H   0  0  0  0  0  0
  -27.3723  -12.6742   17.7821 H   0  0  0  0  0  0
  -27.7320  -14.2396   19.6477 H   0  0  0  0  0  0
  -28.6877  -11.7822   21.1974 H   0  0  0  0  0  0
  -28.4074  -13.3059   21.9470 H   0  0  0  0  0  0
  -25.2738   -9.5640   22.4738 H   0  0  0  0  0  0
  -23.9976   -7.4587   22.7464 H   0  0  0  0  0  0
  -21.0803   -8.8710   19.8944 H   0  0  0  0  0  0
  -22.3646  -10.9618   19.6149 H   0  0  0  0  0  0
  -21.1996   -7.6130   23.9705 H   0  0  0  0  0  0
  -21.1483   -6.0508   25.9075 H   0  0  0  0  0  0
  -22.0608   -2.7592   23.2844 H   0  0  0  0  0  0
  -22.4128  -11.9836   22.4745 H   0  0  0  0  0  0
  -21.1138  -13.1227   22.2665 H   0  0  0  0  0  0
  -24.6421  -15.8177   20.4972 H   0  0  0  0  0  0
  -26.2885  -15.6223   20.1673 H   0  0  0  0  0  0
  -26.7826  -32.5654   23.1348 H   0  0  0  0  0  0
  -25.0779  -33.9983   25.0789 H   0  0  0  0  0  0
  -22.7087  -31.3788   21.5454 H   0  0  0  0  0  0
  -23.3833  -35.9655   23.3244 H   0  0  0  0  0  0
  -24.3649  -36.9001   22.2025 H   0  0  0  0  0  0
  -23.7197  -37.6546   23.6594 H   0  0  0  0  0  0
  -26.2289  -31.6201   20.6354 H   0  0  0  0  0  0
  -26.8534  -30.7764   22.0278 H   0  0  0  0  0  0
  -26.5224  -28.2982   22.3029 H   0  0  0  0  0  0
  -25.1798  -26.0890   19.1465 H   0  0  0  0  0  0
  -24.2080  -27.9626   18.1432 H   0  0  0  0  0  0
  -23.5517  -30.9750   19.3824 H   0  0  0  0  0  0
  -22.7405  -29.5000   19.7861 H   0  0  0  0  0  0
  -25.1306  -36.2122   25.0811 H   0  0  0  0  0  0
  -21.5480  -28.4478   24.6851 H   0  0  0  0  0  0
  -22.4119  -25.5849   23.7639 H   0  0  0  0  0  0
  -23.2463  -26.2632   22.7491 H   0  0  0  0  0  0
  -20.2967  -24.5369   21.6696 H   0  0  0  0  0  0
  -21.2243  -25.2869   20.4849 H   0  0  0  0  0  0
  -19.1695  -27.1485   20.0924 H   0  0  0  0  0  0
  -18.2289  -26.1713   21.0733 H   0  0  0  0  0  0
  -19.8964  -30.5172   24.5822 H   0  0  0  0  0  0
  -17.5558  -31.2256   24.6083 H   0  0  0  0  0  0
  -15.8489  -29.8813   23.3814 H   0  0  0  0  0  0
  -16.5712  -28.0439   21.8958 H   0  0  0  0  0  0
  -24.5857  -30.7272   25.7548 H   0  0  0  0  0  0
  -24.8885  -32.2994   26.4835 H   0  0  0  0  0  0
  -25.7822  -30.8891   27.0191 H   0  0  0  0  0  0
  -26.2845  -29.6953   24.1339 H   0  0  0  0  0  0
  -27.3938  -29.7277   25.4820 H   0  0  0  0  0  0
  -27.8851  -30.4273   23.9566 H   0  0  0  0  0  0
  -27.2901  -33.3510   26.2404 H   0  0  0  0  0  0
  -28.4114  -32.6714   25.0691 H   0  0  0  0  0  0
  -28.0713  -31.8197   26.5695 H   0  0  0  0  0  0
  -28.2614  -38.0238   24.7589 H   0  0  0  0  0  0
  -28.1134  -36.2786   24.6196 H   0  0  0  0  0  0
  -27.2339  -37.1457   25.8864 H   0  0  0  0  0  0
  -21.2508  -30.2243   22.6990 H   0  0  0  0  0  0
  -26.0196  -38.3018   24.1462 H   0  0  0  0  0  0
  -29.6581  -21.7130   25.8168 H   0  0  0  0  0  0
  -30.8569  -20.6304   25.1535 H   0  0  0  0  0  0
  -31.0289  -22.8778   24.1048 H   0  0  0  0  0  0
  -29.3545  -22.8078   23.6189 H   0  0  0  0  0  0
  -28.6685  -21.0626   21.7464 H   0  0  0  0  0  0
  -29.8851  -19.9627   21.1566 H   0  0  0  0  0  0
  -30.0259  -18.8452   23.3498 H   0  0  0  0  0  0
  -27.9292  -20.7985   24.3694 H   0  0  0  0  0  0
  -30.8204  -22.2125   21.7078 H   0  0  0  0  0  0
  -29.4146  -18.5694   25.8526 H   0  0  0  0  0  0
  -27.6984  -18.5767   25.4611 H   0  0  0  0  0  0
  -28.3369  -19.7515   26.5882 H   0  0  0  0  0  0
  -19.6741  -26.2700   25.6077 H   0  0  0  0  0  0
  -21.3147  -26.4116   25.2420 H   0  0  0  0  0  0
  -21.2125  -28.6608   21.1451 H   0  0  0  0  0  0
  -21.1765  -27.3928   20.3656 H   0  0  0  0  0  0
  -19.5623  -23.9723   25.3780 H   0  0  0  0  0  0
  -21.1104  -24.2113   26.0766 H   0  0  0  0  0  0
  -21.4381  -23.8013   23.1753 H   0  0  0  0  0  0
  -20.3878  -22.6171   23.8271 H   0  0  0  0  0  0
  -22.2547  -21.9207   25.3920 H   0  0  0  0  0  0
  -23.2709  -23.1579   24.6874 H   0  0  0  0  0  0
  -22.9920  -22.0497   22.4171 H   0  0  0  0  0  0
  -22.0253  -20.8136   23.1549 H   0  0  0  0  0  0
  -24.0722  -20.0614   24.4910 H   0  0  0  0  0  0
  -25.0178  -21.2515   23.6365 H   0  0  0  0  0  0
  -24.4932  -20.1550   21.4510 H   0  0  0  0  0  0
  -23.4643  -19.0157   22.2549 H   0  0  0  0  0  0
  -25.5326  -17.9646   21.5564 H   0  0  0  0  0  0
  -25.3812  -17.8615   23.3003 H   0  0  0  0  0  0
  -30.5567  -17.0499   22.2432 H   0  0  0  0  0  0
  -29.7043  -17.2481   20.7218 H   0  0  0  0  0  0
  -28.9709  -14.7845   21.8292 H   0  0  0  0  0  0
  1 25  1  0  0  0
  1 30  2  0  0  0
  1 92  1  0  0  0
  2  3  1  0  0  0
  2 25  1  0  0  0
  2 97  1  0  0  0
  2 98  1  0  0  0
  3  4  1  0  0  0
  3 99  1  0  0  0
  3100  1  0  0  0
  4  5  1  0  0  0
  4101  1  0  0  0
  4102  1  0  0  0
  5  6  1  0  0  0
  5 26  1  0  0  0
  5103  1  0  0  0
  6 25  1  0  0  0
  6104  1  0  0  0
  6105  1  0  0  0
  7  8  2  0  0  0
  7 26  1  0  0  0
  7 29  1  0  0  0
  8  9  1  0  0  0
  8 22  1  0  0  0
  9 10  1  0  0  0
  9 27  2  0  0  0
 10 11  2  0  0  0
 10 15  1  0  0  0
 11 12  1  0  0  0
 11106  1  0  0  0
 12 13  2  0  0  0
 12107  1  0  0  0
 13 14  1  0  0  0
 13 31  1  0  0  0
 14 15  2  0  0  0
 14108  1  0  0  0
 15109  1  0  0  0
 16 17  2  0  0  0
 16 21  1  0  0  0
 16 31  1  0  0  0
 17 18  1  0  0  0
 17110  1  0  0  0
 18 19  2  0  0  0
 18111  1  0  0  0
 19 20  1  0  0  0
 19 24  1  0  0  0
 20 21  2  0  0  0
 20112  1  0  0  0
 21 23  1  0  0  0
 22 28  1  0  0  0
 22 32  2  0  0  0
 26 27  1  0  0  0
 28113  1  0  0  0
 28114  1  0  0  0
 29115  1  0  0  0
 29116  1  0  0  0
 33 34  1  0  0  0
 33 66  1  0  0  0
 33 70  2  0  0  0
 34 36  1  0  0  0
 34 59  1  0  0  0
 34117  1  0  0  0
 35 44  2  0  0  0
 35 45  1  0  0  0
 35 68  1  0  0  0
 36 56  1  0  0  0
 36118  1  0  0  0
 37 39  1  0  0  0
 37 47  1  0  0  0
 37 66  1  0  0  0
 37119  1  0  0  0
 38 43  2  0  0  0
 38 46  1  0  0  0
 38 47  1  0  0  0
 39 64  1  0  0  0
 39 67  2  0  0  0
 40 52  1  0  0  0
 40 53  2  0  0  0
 40 58  1  0  0  0
 41120  1  0  0  0
 41121  1  0  0  0
 41122  1  0  0  0
 41 48  1  0  0  0
 42 43  1  0  0  0
 42 66  1  0  0  0
 42123  1  0  0  0
 42124  1  0  0  0
 43 44  1  0  0  0
 44125  1  0  0  0
 45 46  2  0  0  0
 45126  1  0  0  0
 46127  1  0  0  0
 47128  1  0  0  0
 47129  1  0  0  0
 48 56  1  0  0  0
 48 65  1  0  0  0
 48130  1  0  0  0
 49 50  1  0  0  0
 49 53  1  0  0  0
 49 64  1  0  0  0
 49131  1  0  0  0
 50 51  1  0  0  0
 50132  1  0  0  0
 50133  1  0  0  0
 51 52  1  0  0  0
 51134  1  0  0  0
 51135  1  0  0  0
 52136  1  0  0  0
 52137  1  0  0  0
 53 54  1  0  0  0
 54 55  2  0  0  0
 54138  1  0  0  0
 55 57  1  0  0  0
 55139  1  0  0  0
 56 69  2  0  0  0
 57 58  2  0  0  0
 57140  1  0  0  0
 58141  1  0  0  0
 59 60  1  0  0  0
 59 61  1  0  0  0
 59 62  1  0  0  0
 60142  1  0  0  0
 60143  1  0  0  0
 60144  1  0  0  0
 61145  1  0  0  0
 61146  1  0  0  0
 61147  1  0  0  0
 62148  1  0  0  0
 62149  1  0  0  0
 62150  1  0  0  0
 63 65  1  0  0  0
 63151  1  0  0  0
 63152  1  0  0  0
 63153  1  0  0  0
 64154  1  0  0  0
 65155  1  0  0  0
 68 81  1  0  0  0
 71 90  1  0  0  0
 71 91  2  0  0  0
 71 76  1  0  0  0
 72 80  1  0  0  0
 72 81  1  0  0  0
 72 93  2  0  0  0
 73 74  1  0  0  0
 73 77  1  0  0  0
 73156  1  0  0  0
 73157  1  0  0  0
 74 78  1  0  0  0
 74158  1  0  0  0
 74159  1  0  0  0
 75 76  1  0  0  0
 75 78  1  0  0  0
 75160  1  0  0  0
 75161  1  0  0  0
 76 77  1  0  0  0
 76162  1  0  0  0
 77 79  1  0  0  0
 77163  1  0  0  0
 78 94  1  0  0  0
 78164  1  0  0  0
 79165  1  0  0  0
 79166  1  0  0  0
 79167  1  0  0  0
 80 82  1  0  0  0
 80168  1  0  0  0
 80169  1  0  0  0
 81170  1  0  0  0
 81171  1  0  0  0
 82 83  1  0  0  0
 82172  1  0  0  0
 82173  1  0  0  0
 83 84  1  0  0  0
 83174  1  0  0  0
 83175  1  0  0  0
 84 85  1  0  0  0
 84176  1  0  0  0
 84177  1  0  0  0
 85 86  1  0  0  0
 85178  1  0  0  0
 85179  1  0  0  0
 86 87  1  0  0  0
 86180  1  0  0  0
 86181  1  0  0  0
 87 88  1  0  0  0
 87182  1  0  0  0
 87183  1  0  0  0
 88 91  1  0  0  0
 88184  1  0  0  0
 88185  1  0  0  0
 89 90  1  0  0  0
 89 92  1  0  0  0
 89186  1  0  0  0
 89187  1  0  0  0
 90 95  1  0  0  0
 90 96  1  0  0  0
 92188  1  0  0  0
M  ISO  4   1 100  68 101  81 101  92 100
M  END
> <chiral flag>
0

> <version>
0

> <s_m_source_file>
/data/baiqing/PycharmProjects/Reinvent-master-3.2/result/LINK_invent/BTK/process_docking_weight1_custom_sum_contain_oxygen_bond_distance_aromatic_linkinvent_7_9_3/rearranged_h_0022.sdf

> <i_m_source_file_index>
80

> <r_mmod_Potential_Energy-OPLS-2005>
12796.13671875

> <r_mmod_Stretch_Energy-OPLS-2005>
5174.07568359375

> <r_mmod_Bend_Energy-OPLS-2005>
820.080871582031

> <r_mmod_Torsional_Energy-OPLS-2005>
626.880004882812

> <r_mmod_Improper_Torsional_Energy-OPLS-2005>
68.3554229736328

> <r_mmod_Van_der_Waal_Energy-OPLS-2005>
2089.85595703125

> <r_mmod_Electrostatic_Energy-OPLS-2005>
-401.010101318359

> <r_mmod_Solvation_Energy-OPLS-2005>
-188.599014282227

> <b_mmod_Minimization_Converged-OPLS-2005>
0

> <r_mmod_RMS_Derivative-OPLS-2005>
5.83915710449219

$$$$
80
                    3D
 Structure written by MMmdl.
161169  0  0  1  0            999 V2000
  -30.7546  -14.4300   20.4235 C   0  0  0  0  0  0
  -30.3985  -12.2562   19.4069 C   0  0  0  0  0  0
  -29.4555  -12.4110   18.1964 C   0  0  0  0  0  0
  -27.9925  -12.2881   18.6440 C   0  0  0  0  0  0
  -27.6461  -13.1989   19.8511 C   0  0  2  0  0  0
  -28.7020  -13.0723   20.9751 C   0  0  0  0  0  0
  -25.2533  -13.8178   20.5731 C   0  0  0  0  0  0
  -24.1792  -13.0454   20.9221 C   0  0  0  0  0  0
  -24.6370  -11.6916   20.8821 C   0  0  0  0  0  0
  -23.9073  -10.4306   21.0471 C   0  0  0  0  0  0
  -24.3610   -9.4217   21.9253 C   0  0  0  0  0  0
  -23.6272   -8.2255   22.0809 C   0  0  0  0  0  0
  -22.4264   -8.0304   21.3570 C   0  0  0  0  0  0
  -21.9928   -9.0291   20.4670 C   0  0  0  0  0  0
  -22.7274  -10.2157   20.3096 C   0  0  0  0  0  0
  -21.6849   -6.0728   22.5290 C   0  0  0  0  0  0
  -21.4007   -6.5631   23.8217 C   0  0  0  0  0  0
  -21.3648   -5.6800   24.9192 C   0  0  0  0  0  0
  -21.6018   -4.3061   24.7246 C   0  0  0  0  0  0
  -21.8821   -3.8140   23.4370 C   0  0  0  0  0  0
  -21.9194   -4.6952   22.3417 C   0  0  0  0  0  0
  -22.7807  -13.5237   21.1844 C   0  0  0  0  0  0
  -22.1669   -4.2138   21.1004 F   0  0  0  0  0  0
  -21.5621   -3.4549   25.7764 F   0  0  0  0  0  0
  -30.0306  -13.2866   20.3854 N   0  0  0  0  0  0
  -26.2964  -12.9341   20.3363 N   0  0  0  0  0  0
  -25.9291  -11.6525   20.5884 N   0  0  0  0  0  0
  -22.0417  -12.8200   22.0352 N   0  0  0  0  0  0
  -25.4198  -15.1902   20.4112 N   0  0  0  0  0  0
  -31.9806  -14.4580   20.3202 O   0  0  0  0  0  0
  -21.6609   -6.8900   21.4273 O   0  0  0  0  0  0
  -22.3524  -14.5558   20.6702 O   0  0  0  0  0  0
  -24.6111  -31.8693   23.2135 C   0  0  0  0  0  0
  -25.9015  -32.4818   23.8426 C   0  0  1  0  0  0
  -27.2352  -27.4678   20.0966 C   0  0  0  0  0  0
  -25.5863  -33.8631   24.2342 N   0  0  0  0  0  0
  -23.3978  -30.4930   21.5518 C   0  0  2  0  0  0
  -24.8450  -28.9623   20.1145 C   0  0  0  0  0  0
  -22.7373  -29.4676   22.4990 C   0  0  0  0  0  0
  -18.0262  -28.1364   22.8492 C   0  0  0  0  0  0
  -24.1472  -36.7332   23.2633 C   0  0  0  0  0  0
  -25.9236  -30.8427   21.3658 C   0  0  0  0  0  0
  -25.9998  -29.4819   20.7108 C   0  0  0  0  0  0
  -27.1993  -28.7425   20.6955 C   0  0  0  0  0  0
  -26.0660  -26.9576   19.4878 C   0  0  0  0  0  0
  -24.8692  -27.6971   19.5019 C   0  0  0  0  0  0
  -23.6074  -29.8268   20.1665 C   0  0  0  0  0  0
  -25.4092  -36.3121   24.0333 C   0  0  1  0  0  0
  -20.5857  -28.3670   23.1312 C   0  0  2  0  0  0
  -20.6760  -26.9416   22.5412 C   0  0  0  0  0  0
  -19.5730  -26.6396   21.5199 C   0  0  0  0  0  0
  -18.1905  -26.7924   22.1610 C   0  0  0  0  0  0
  -19.1508  -28.8832   23.2910 C   0  0  0  0  0  0
  -18.9433  -30.1431   23.8932 C   0  0  0  0  0  0
  -17.6437  -30.6588   24.0582 C   0  0  0  0  0  0
  -25.9018  -34.9475   23.5135 C   0  0  0  0  0  0
  -16.5332  -29.9087   23.6328 C   0  0  0  0  0  0
  -16.7260  -28.6496   23.0363 C   0  0  0  0  0  0
  -26.4464  -31.6598   25.0742 C   0  0  0  0  0  0
  -25.3730  -31.3638   26.1467 C   0  0  0  0  0  0
  -27.0348  -30.3055   24.6127 C   0  0  0  0  0  0
  -27.6029  -32.4335   25.7516 C   0  0  0  0  0  0
  -27.5595  -37.1785   24.8429 C   0  0  0  0  0  0
  -21.4108  -29.3022   22.3702 N   0  0  0  0  0  0
  -26.4265  -37.3816   23.9427 N   0  0  0  0  0  0
  -24.6618  -31.0824   22.1008 N   0  0  0  0  0  0
  -23.4148  -28.8207   23.3026 O   0  0  0  0  0  0
  -28.4224  -26.7819   20.1021 O   0  0  0  0  0  0
  -26.5615  -34.8918   22.4706 O   0  0  0  0  0  0
  -23.5321  -32.1421   23.7535 O   0  0  0  0  0  0
  -30.4414  -17.9328   19.6564 C   0  0  0  0  0  0
  -30.5547  -16.5678   19.3183 C   0  0  0  0  0  0
  -31.1771  -16.2423   18.0831 C   0  0  0  0  0  0
  -31.0299  -18.8907   18.8011 C   0  0  0  0  0  0
  -31.7525  -17.2678   17.3148 C   0  0  0  0  0  0
  -29.4181  -20.4069   16.9651 C   0  0  0  0  0  0
  -30.8846  -20.3869   19.0260 C   0  0  0  0  0  0
  -29.1675  -23.1473   19.4401 C   0  0  0  0  0  0
  -29.1681  -24.6710   19.2684 C   0  0  0  0  0  0
  -29.8230  -22.4662   18.2316 C   0  0  0  0  0  0
  -28.3713  -25.3817   20.3632 C   0  0  0  0  0  0
  -31.7020  -18.5608   17.6793 N   0  0  0  0  0  0
  -30.0573  -15.5538   20.1954 N   0  0  0  0  0  0
  -29.7258  -20.9879   18.2999 N   0  3  1  0  0  0
  -31.2425  -14.9670   17.6314 F   0  0  0  0  0  0
  -32.5449  -16.8822   15.8297 Cl  0  0  0  0  0  0
  -31.4346  -12.3369   19.0713 H   0  0  0  0  0  0
  -30.2962  -11.2642   19.8502 H   0  0  0  0  0  0
  -29.6794  -11.6450   17.4523 H   0  0  0  0  0  0
  -29.5964  -13.3675   17.6973 H   0  0  0  0  0  0
  -27.8348  -11.2444   18.9186 H   0  0  0  0  0  0
  -27.3149  -12.4812   17.8119 H   0  0  0  0  0  0
  -27.6640  -14.2221   19.4786 H   0  0  0  0  0  0
  -28.6538  -12.0842   21.4404 H   0  0  0  0  0  0
  -28.5099  -13.7957   21.7687 H   0  0  0  0  0  0
  -25.2767   -9.5670   22.4835 H   0  0  0  0  0  0
  -23.9950   -7.4640   22.7553 H   0  0  0  0  0  0
  -21.0878   -8.8856   19.8947 H   0  0  0  0  0  0
  -22.3797  -10.9712   19.6191 H   0  0  0  0  0  0
  -21.2002   -7.6146   23.9716 H   0  0  0  0  0  0
  -21.1450   -6.0543   25.9090 H   0  0  0  0  0  0
  -22.0594   -2.7601   23.2905 H   0  0  0  0  0  0
  -22.3975  -11.9802   22.4664 H   0  0  0  0  0  0
  -21.1042  -13.1235   22.2494 H   0  0  0  0  0  0
  -24.6487  -15.8408   20.5208 H   0  0  0  0  0  0
  -26.2594  -15.6381   20.0706 H   0  0  0  0  0  0
  -26.7083  -32.5563   23.1217 H   0  0  0  0  0  0
  -24.9966  -33.9780   25.0454 H   0  0  0  0  0  0
  -22.6875  -31.3096   21.4124 H   0  0  0  0  0  0
  -23.3755  -35.9629   23.3214 H   0  0  0  0  0  0
  -24.3587  -36.9053   22.2064 H   0  0  0  0  0  0
  -23.7171  -37.6478   23.6723 H   0  0  0  0  0  0
  -26.0378  -31.6109   20.5994 H   0  0  0  0  0  0
  -26.8120  -30.8918   21.9867 H   0  0  0  0  0  0
  -28.0968  -29.1395   21.1497 H   0  0  0  0  0  0
  -26.0747  -26.0018   18.9854 H   0  0  0  0  0  0
  -23.9827  -27.2948   19.0327 H   0  0  0  0  0  0
  -23.7178  -30.6003   19.4050 H   0  0  0  0  0  0
  -22.7335  -29.2429   19.8742 H   0  0  0  0  0  0
  -25.1262  -36.1974   25.0822 H   0  0  0  0  0  0
  -20.9964  -28.3241   24.1426 H   0  0  0  0  0  0
  -20.5653  -26.2274   23.3585 H   0  0  0  0  0  0
  -21.6632  -26.7436   22.1221 H   0  0  0  0  0  0
  -19.6898  -25.6310   21.1197 H   0  0  0  0  0  0
  -19.6681  -27.3221   20.6737 H   0  0  0  0  0  0
  -17.4202  -26.6707   21.3992 H   0  0  0  0  0  0
  -18.0284  -26.0035   22.8960 H   0  0  0  0  0  0
  -19.7921  -30.7221   24.2335 H   0  0  0  0  0  0
  -17.5007  -31.6267   24.5176 H   0  0  0  0  0  0
  -15.5329  -30.3007   23.7620 H   0  0  0  0  0  0
  -15.8660  -28.0814   22.7084 H   0  0  0  0  0  0
  -24.5989  -30.6887   25.7799 H   0  0  0  0  0  0
  -24.8797  -32.2735   26.4891 H   0  0  0  0  0  0
  -25.8098  -30.8861   27.0244 H   0  0  0  0  0  0
  -26.2913  -29.6758   24.1209 H   0  0  0  0  0  0
  -27.4163  -29.7342   25.4606 H   0  0  0  0  0  0
  -27.8718  -30.4418   23.9272 H   0  0  0  0  0  0
  -27.2668  -33.3672   26.2055 H   0  0  0  0  0  0
  -28.3856  -32.6827   25.0336 H   0  0  0  0  0  0
  -28.0665  -31.8466   26.5461 H   0  0  0  0  0  0
  -28.2495  -38.0207   24.7692 H   0  0  0  0  0  0
  -28.1219  -36.2746   24.6006 H   0  0  0  0  0  0
  -27.2344  -37.1150   25.8833 H   0  0  0  0  0  0
  -20.9235  -29.8760   21.6969 H   0  0  0  0  0  0
  -26.0152  -38.2858   24.1547 H   0  0  0  0  0  0
  -29.9384  -18.2377   20.5642 H   0  0  0  0  0  0
  -29.1850  -19.3440   17.0216 H   0  0  0  0  0  0
  -30.2455  -20.5475   16.2693 H   0  0  0  0  0  0
  -28.5323  -20.8737   16.5312 H   0  0  0  0  0  0
  -31.8169  -20.8517   18.6958 H   0  0  0  0  0  0
  -30.8128  -20.5908   20.0964 H   0  0  0  0  0  0
  -28.1373  -22.7978   19.5393 H   0  0  0  0  0  0
  -29.6810  -22.8797   20.3676 H   0  0  0  0  0  0
  -28.7438  -24.9279   18.2963 H   0  0  0  0  0  0
  -30.1945  -25.0434   19.2630 H   0  0  0  0  0  0
  -30.8591  -22.7942   18.1193 H   0  0  0  0  0  0
  -29.3155  -22.8291   17.3361 H   0  0  0  0  0  0
  -28.8207  -25.1948   21.3405 H   0  0  0  0  0  0
  -27.3625  -24.9711   20.4203 H   0  0  0  0  0  0
  -29.0712  -15.5636   20.4011 H   0  0  0  0  0  0
  -28.9140  -20.7719   18.8569 H   0  0  0  0  0  0
  1 25  1  0  0  0
  1 30  2  0  0  0
  1 83  1  0  0  0
  2  3  1  0  0  0
  2 25  1  0  0  0
  2 87  1  0  0  0
  2 88  1  0  0  0
  3  4  1  0  0  0
  3 89  1  0  0  0
  3 90  1  0  0  0
  4  5  1  0  0  0
  4 91  1  0  0  0
  4 92  1  0  0  0
  5  6  1  0  0  0
  5 26  1  0  0  0
  5 93  1  0  0  0
  6 25  1  0  0  0
  6 94  1  0  0  0
  6 95  1  0  0  0
  7  8  2  0  0  0
  7 26  1  0  0  0
  7 29  1  0  0  0
  8  9  1  0  0  0
  8 22  1  0  0  0
  9 10  1  0  0  0
  9 27  2  0  0  0
 10 11  2  0  0  0
 10 15  1  0  0  0
 11 12  1  0  0  0
 11 96  1  0  0  0
 12 13  2  0  0  0
 12 97  1  0  0  0
 13 14  1  0  0  0
 13 31  1  0  0  0
 14 15  2  0  0  0
 14 98  1  0  0  0
 15 99  1  0  0  0
 16 17  2  0  0  0
 16 21  1  0  0  0
 16 31  1  0  0  0
 17 18  1  0  0  0
 17100  1  0  0  0
 18 19  2  0  0  0
 18101  1  0  0  0
 19 20  1  0  0  0
 19 24  1  0  0  0
 20 21  2  0  0  0
 20102  1  0  0  0
 21 23  1  0  0  0
 22 28  1  0  0  0
 22 32  2  0  0  0
 26 27  1  0  0  0
 28103  1  0  0  0
 28104  1  0  0  0
 29105  1  0  0  0
 29106  1  0  0  0
 33 34  1  0  0  0
 33 66  1  0  0  0
 33 70  2  0  0  0
 34 36  1  0  0  0
 34 59  1  0  0  0
 34107  1  0  0  0
 35 44  2  0  0  0
 35 45  1  0  0  0
 35 68  1  0  0  0
 36 56  1  0  0  0
 36108  1  0  0  0
 37 39  1  0  0  0
 37 47  1  0  0  0
 37 66  1  0  0  0
 37109  1  0  0  0
 38 43  2  0  0  0
 38 46  1  0  0  0
 38 47  1  0  0  0
 39 64  1  0  0  0
 39 67  2  0  0  0
 40 52  1  0  0  0
 40 53  2  0  0  0
 40 58  1  0  0  0
 41110  1  0  0  0
 41111  1  0  0  0
 41112  1  0  0  0
 41 48  1  0  0  0
 42 43  1  0  0  0
 42 66  1  0  0  0
 42113  1  0  0  0
 42114  1  0  0  0
 43 44  1  0  0  0
 44115  1  0  0  0
 45 46  2  0  0  0
 45116  1  0  0  0
 46117  1  0  0  0
 47118  1  0  0  0
 47119  1  0  0  0
 48 56  1  0  0  0
 48 65  1  0  0  0
 48120  1  0  0  0
 49 50  1  0  0  0
 49 53  1  0  0  0
 49 64  1  0  0  0
 49121  1  0  0  0
 50 51  1  0  0  0
 50122  1  0  0  0
 50123  1  0  0  0
 51 52  1  0  0  0
 51124  1  0  0  0
 51125  1  0  0  0
 52126  1  0  0  0
 52127  1  0  0  0
 53 54  1  0  0  0
 54 55  2  0  0  0
 54128  1  0  0  0
 55 57  1  0  0  0
 55129  1  0  0  0
 56 69  2  0  0  0
 57 58  2  0  0  0
 57130  1  0  0  0
 58131  1  0  0  0
 59 60  1  0  0  0
 59 61  1  0  0  0
 59 62  1  0  0  0
 60132  1  0  0  0
 60133  1  0  0  0
 60134  1  0  0  0
 61135  1  0  0  0
 61136  1  0  0  0
 61137  1  0  0  0
 62138  1  0  0  0
 62139  1  0  0  0
 62140  1  0  0  0
 63 65  1  0  0  0
 63141  1  0  0  0
 63142  1  0  0  0
 63143  1  0  0  0
 64144  1  0  0  0
 65145  1  0  0  0
 68 81  1  0  0  0
 71 72  2  0  0  0
 71 74  1  0  0  0
 71146  1  0  0  0
 72 73  1  0  0  0
 72 83  1  0  0  0
 73 75  2  0  0  0
 73 85  1  0  0  0
 74 77  1  0  0  0
 74 82  2  0  0  0
 75 82  1  0  0  0
 75 86  1  0  0  0
 76147  1  0  0  0
 76148  1  0  0  0
 76149  1  0  0  0
 76 84  1  0  0  0
 77 84  1  0  0  0
 77150  1  0  0  0
 77151  1  0  0  0
 78 79  1  0  0  0
 78 80  1  0  0  0
 78152  1  0  0  0
 78153  1  0  0  0
 79 81  1  0  0  0
 79154  1  0  0  0
 79155  1  0  0  0
 80 84  1  0  0  0
 80156  1  0  0  0
 80157  1  0  0  0
 81158  1  0  0  0
 81159  1  0  0  0
 83160  1  0  0  0
 84161  1  0  0  0
M  CHG  1  84   1
M  ISO  4   1 100  68 101  81 101  83 100
M  END
> <chiral flag>
0

> <version>
0

> <s_m_source_file>
/data/baiqing/PycharmProjects/Reinvent-master-3.2/result/LINK_invent/BTK/process_docking_weight1_custom_sum_contain_oxygen_bond_distance_aromatic_linkinvent_7_9_3/rearranged_h_0022.sdf

> <i_m_source_file_index>
81

> <r_mmod_Potential_Energy-OPLS-2005>
-236.243347167969

> <r_mmod_Stretch_Energy-OPLS-2005>
31.9180068969727

> <r_mmod_Bend_Energy-OPLS-2005>
95.0467758178711

> <r_mmod_Torsional_Energy-OPLS-2005>
270.485565185547

> <r_mmod_Improper_Torsional_Energy-OPLS-2005>
11.068995475769

> <r_mmod_Van_der_Waal_Energy-OPLS-2005>
172.390380859375

> <r_mmod_Electrostatic_Energy-OPLS-2005>
-365.633056640625

> <r_mmod_Solvation_Energy-OPLS-2005>
-486.012420654297

> <b_mmod_Minimization_Converged-OPLS-2005>
0

> <r_mmod_RMS_Derivative-OPLS-2005>
3.76514101028442

$$$$
81
                    3D
 Structure written by MMmdl.
155163  0  0  1  0            999 V2000
  -30.4328  -15.2515   20.3041 C   0  0  0  0  0  0
  -30.4510  -12.7803   19.5049 C   0  0  0  0  0  0
  -29.5374  -12.5031   18.2830 C   0  0  0  0  0  0
  -28.0793  -12.2517   18.7193 C   0  0  0  0  0  0
  -27.6083  -13.2271   19.8267 C   0  0  2  0  0  0
  -28.6597  -13.4364   20.9377 C   0  0  0  0  0  0
  -25.2454  -13.8115   20.5836 C   0  0  0  0  0  0
  -24.1731  -13.0384   20.9284 C   0  0  0  0  0  0
  -24.6329  -11.6860   20.8817 C   0  0  0  0  0  0
  -23.9016  -10.4258   21.0447 C   0  0  0  0  0  0
  -24.3578   -9.4176   21.9208 C   0  0  0  0  0  0
  -23.6270   -8.2210   22.0760 C   0  0  0  0  0  0
  -22.4257   -8.0257   21.3543 C   0  0  0  0  0  0
  -21.9887   -9.0232   20.4649 C   0  0  0  0  0  0
  -22.7207  -10.2111   20.3074 C   0  0  0  0  0  0
  -21.6847   -6.0727   22.5278 C   0  0  0  0  0  0
  -21.4015   -6.5634   23.8211 C   0  0  0  0  0  0
  -21.3647   -5.6785   24.9171 C   0  0  0  0  0  0
  -21.6040   -4.3048   24.7221 C   0  0  0  0  0  0
  -21.8826   -3.8144   23.4343 C   0  0  0  0  0  0
  -21.9191   -4.6958   22.3401 C   0  0  0  0  0  0
  -22.7757  -13.5201   21.1891 C   0  0  0  0  0  0
  -22.1655   -4.2148   21.0979 F   0  0  0  0  0  0
  -21.5623   -3.4531   25.7730 F   0  0  0  0  0  0
  -29.8804  -13.9366   20.2778 N   0  0  0  0  0  0
  -26.2823  -12.9268   20.3365 N   0  0  0  0  0  0
  -25.9257  -11.6434   20.5835 N   0  0  0  0  0  0
  -22.0366  -12.8219   22.0432 N   0  0  0  0  0  0
  -25.4187  -15.1847   20.4312 N   0  0  0  0  0  0
  -31.6730  -15.2493   20.2558 O   0  0  0  0  0  0
  -21.6623   -6.8861   21.4238 O   0  0  0  0  0  0
  -22.3476  -14.5509   20.6713 O   0  0  0  0  0  0
  -24.6586  -31.8280   23.1724 C   0  0  0  0  0  0
  -25.9284  -32.4620   23.8184 C   0  0  1  0  0  0
  -27.2309  -26.9865   20.1763 C   0  0  0  0  0  0
  -25.5965  -33.8430   24.2094 N   0  0  0  0  0  0
  -23.4709  -30.4382   21.5217 C   0  0  2  0  0  0
  -24.9253  -28.8319   20.1127 C   0  0  0  0  0  0
  -22.7650  -29.4453   22.4812 C   0  0  0  0  0  0
  -18.0316  -28.1394   22.8472 C   0  0  0  0  0  0
  -24.1485  -36.7232   23.2643 C   0  0  0  0  0  0
  -26.0359  -30.6550   21.3906 C   0  0  0  0  0  0
  -26.1074  -29.2489   20.7371 C   0  0  0  0  0  0
  -27.2565  -28.3472   20.7410 C   0  0  0  0  0  0
  -26.0180  -26.7026   19.5100 C   0  0  0  0  0  0
  -24.9022  -27.5782   19.4794 C   0  0  0  0  0  0
  -23.7066  -29.7506   20.1484 C   0  0  0  0  0  0
  -25.4125  -36.2988   24.0298 C   0  0  1  0  0  0
  -20.5939  -28.3732   23.1210 C   0  0  2  0  0  0
  -20.6795  -26.9420   22.5405 C   0  0  0  0  0  0
  -19.5768  -26.6364   21.5217 C   0  0  0  0  0  0
  -18.1950  -26.7932   22.1623 C   0  0  0  0  0  0
  -19.1577  -28.8887   23.2826 C   0  0  0  0  0  0
  -18.9484  -30.1479   23.8854 C   0  0  0  0  0  0
  -17.6476  -30.6588   24.0549 C   0  0  0  0  0  0
  -25.9085  -34.9369   23.5013 C   0  0  0  0  0  0
  -16.5368  -29.9070   23.6336 C   0  0  0  0  0  0
  -16.7300  -28.6488   23.0364 C   0  0  0  0  0  0
  -26.4536  -31.6559   25.0704 C   0  0  0  0  0  0
  -25.3668  -31.3824   26.1368 C   0  0  0  0  0  0
  -27.0429  -30.2935   24.6406 C   0  0  0  0  0  0
  -27.6022  -32.4366   25.7522 C   0  0  0  0  0  0
  -27.5568  -37.1772   24.8459 C   0  0  0  0  0  0
  -21.4326  -29.3032   22.3573 N   0  0  0  0  0  0
  -26.4275  -37.3719   23.9403 N   0  0  0  0  0  0
  -24.7429  -30.9992   22.0828 N   0  0  0  0  0  0
  -23.4225  -28.8021   23.3033 O   0  0  0  0  0  0
  -28.2649  -25.9317   20.2557 O   0  0  0  0  0  0
  -26.5687  -34.8897   22.4606 O   0  0  0  0  0  0
  -23.5666  -32.1215   23.6853 O   0  0  0  0  0  0
  -30.6131  -19.0049   20.6019 C   0  0  0  0  0  0
  -30.4688  -20.4814   20.6497 C   0  0  0  0  0  0
  -29.2536  -21.2533   20.3738 C   0  0  0  0  0  0
  -28.2525  -20.2507   20.0783 C   0  0  0  0  0  0
  -29.5704  -18.0660   20.2657 C   0  0  0  0  0  0
  -31.7143  -21.2662   21.0219 C   0  0  0  0  0  0
  -26.8474  -20.7290   19.7845 C   0  0  0  0  0  0
  -28.7766  -16.2540   18.8269 C   0  0  0  0  0  0
  -29.1753  -22.9929   20.4842 C   0  0  0  0  0  0
  -28.0693  -24.3217   20.1057 C   0  0  0  0  0  0
  -28.4170  -18.8383   20.0290 N   0  0  0  0  0  0
  -29.6353  -16.4756   20.0004 N   0  0  0  0  0  0
  -31.4642  -12.9966   19.1624 H   0  0  0  0  0  0
  -30.5336  -11.8948   20.1375 H   0  0  0  0  0  0
  -29.9085  -11.6390   17.7304 H   0  0  0  0  0  0
  -29.5825  -13.3384   17.5851 H   0  0  0  0  0  0
  -28.0231  -11.2288   19.0932 H   0  0  0  0  0  0
  -27.4092  -12.2959   17.8597 H   0  0  0  0  0  0
  -27.4789  -14.1602   19.3036 H   0  0  0  0  0  0
  -28.8419  -12.5145   21.4926 H   0  0  0  0  0  0
  -28.3069  -14.1707   21.6641 H   0  0  0  0  0  0
  -25.2719   -9.5656   22.4784 H   0  0  0  0  0  0
  -23.9982   -7.4600   22.7473 H   0  0  0  0  0  0
  -21.0822   -8.8749   19.8956 H   0  0  0  0  0  0
  -22.3673  -10.9654   19.6185 H   0  0  0  0  0  0
  -21.2021   -7.6142   23.9710 H   0  0  0  0  0  0
  -21.1452   -6.0514   25.9068 H   0  0  0  0  0  0
  -22.0622   -2.7609   23.2839 H   0  0  0  0  0  0
  -22.3954  -11.9899   22.4878 H   0  0  0  0  0  0
  -21.0977  -13.1260   22.2578 H   0  0  0  0  0  0
  -24.6607  -15.8466   20.5556 H   0  0  0  0  0  0
  -26.2893  -15.6262   20.1657 H   0  0  0  0  0  0
  -26.7362  -32.5177   23.0912 H   0  0  0  0  0  0
  -25.0088  -33.9515   25.0227 H   0  0  0  0  0  0
  -22.7808  -31.2671   21.3517 H   0  0  0  0  0  0
  -23.3752  -35.9558   23.3275 H   0  0  0  0  0  0
  -24.3557  -36.8910   22.2063 H   0  0  0  0  0  0
  -23.7238  -37.6413   23.6716 H   0  0  0  0  0  0
  -26.2036  -31.3978   20.6090 H   0  0  0  0  0  0
  -26.9009  -30.7160   22.0398 H   0  0  0  0  0  0
  -28.1573  -28.6668   21.2458 H   0  0  0  0  0  0
  -25.9038  -25.7416   19.0301 H   0  0  0  0  0  0
  -24.0020  -27.2535   18.9755 H   0  0  0  0  0  0
  -23.8521  -30.5156   19.3847 H   0  0  0  0  0  0
  -22.8193  -29.1954   19.8389 H   0  0  0  0  0  0
  -25.1320  -36.1789   25.0789 H   0  0  0  0  0  0
  -21.0024  -28.3323   24.1334 H   0  0  0  0  0  0
  -20.5679  -26.2345   23.3637 H   0  0  0  0  0  0
  -21.6660  -26.7401   22.1207 H   0  0  0  0  0  0
  -19.6923  -25.6261   21.1279 H   0  0  0  0  0  0
  -19.6707  -27.3148   20.6726 H   0  0  0  0  0  0
  -17.4223  -26.6682   21.4021 H   0  0  0  0  0  0
  -18.0334  -26.0079   22.9021 H   0  0  0  0  0  0
  -19.7957  -30.7309   24.2208 H   0  0  0  0  0  0
  -17.5022  -31.6264   24.5155 H   0  0  0  0  0  0
  -15.5365  -30.2953   23.7682 H   0  0  0  0  0  0
  -15.8703  -28.0786   22.7109 H   0  0  0  0  0  0
  -24.5828  -30.7197   25.7682 H   0  0  0  0  0  0
  -24.8882  -32.3044   26.4682 H   0  0  0  0  0  0
  -25.7889  -30.9054   27.0223 H   0  0  0  0  0  0
  -26.3090  -29.6624   24.1383 H   0  0  0  0  0  0
  -27.3950  -29.7282   25.5046 H   0  0  0  0  0  0
  -27.9028  -30.4129   23.9813 H   0  0  0  0  0  0
  -27.2568  -33.3683   26.2013 H   0  0  0  0  0  0
  -28.3891  -32.6912   25.0410 H   0  0  0  0  0  0
  -28.0633  -31.8564   26.5525 H   0  0  0  0  0  0
  -28.2566  -38.0086   24.7506 H   0  0  0  0  0  0
  -28.1081  -36.2613   24.6279 H   0  0  0  0  0  0
  -27.2286  -37.1412   25.8861 H   0  0  0  0  0  0
  -20.9574  -29.8733   21.6716 H   0  0  0  0  0  0
  -26.0127  -38.2780   24.1410 H   0  0  0  0  0  0
  -31.5902  -18.5846   20.7958 H   0  0  0  0  0  0
  -32.5474  -20.6120   21.2805 H   0  0  0  0  0  0
  -31.5219  -21.9042   21.8844 H   0  0  0  0  0  0
  -32.0349  -21.8952   20.1911 H   0  0  0  0  0  0
  -26.5134  -21.4169   20.5611 H   0  0  0  0  0  0
  -26.1382  -19.9024   19.7417 H   0  0  0  0  0  0
  -26.8210  -21.2547   18.8300 H   0  0  0  0  0  0
  -28.9231  -17.0502   18.0956 H   0  0  0  0  0  0
  -27.7249  -16.2860   19.1091 H   0  0  0  0  0  0
  -28.9817  -15.3461   18.2649 H   0  0  0  0  0  0
  -30.0878  -23.2986   19.9725 H   0  0  0  0  0  0
  -29.3999  -23.1605   21.5380 H   0  0  0  0  0  0
  -27.1535  -24.1062   20.6575 H   0  0  0  0  0  0
  -27.7919  -24.1806   19.0610 H   0  0  0  0  0  0
  1 25  1  0  0  0
  1 30  2  0  0  0
  1 82  1  0  0  0
  2  3  1  0  0  0
  2 25  1  0  0  0
  2 83  1  0  0  0
  2 84  1  0  0  0
  3  4  1  0  0  0
  3 85  1  0  0  0
  3 86  1  0  0  0
  4  5  1  0  0  0
  4 87  1  0  0  0
  4 88  1  0  0  0
  5  6  1  0  0  0
  5 26  1  0  0  0
  5 89  1  0  0  0
  6 25  1  0  0  0
  6 90  1  0  0  0
  6 91  1  0  0  0
  7  8  2  0  0  0
  7 26  1  0  0  0
  7 29  1  0  0  0
  8  9  1  0  0  0
  8 22  1  0  0  0
  9 10  1  0  0  0
  9 27  2  0  0  0
 10 11  2  0  0  0
 10 15  1  0  0  0
 11 12  1  0  0  0
 11 92  1  0  0  0
 12 13  2  0  0  0
 12 93  1  0  0  0
 13 14  1  0  0  0
 13 31  1  0  0  0
 14 15  2  0  0  0
 14 94  1  0  0  0
 15 95  1  0  0  0
 16 17  2  0  0  0
 16 21  1  0  0  0
 16 31  1  0  0  0
 17 18  1  0  0  0
 17 96  1  0  0  0
 18 19  2  0  0  0
 18 97  1  0  0  0
 19 20  1  0  0  0
 19 24  1  0  0  0
 20 21  2  0  0  0
 20 98  1  0  0  0
 21 23  1  0  0  0
 22 28  1  0  0  0
 22 32  2  0  0  0
 26 27  1  0  0  0
 28 99  1  0  0  0
 28100  1  0  0  0
 29101  1  0  0  0
 29102  1  0  0  0
 33 34  1  0  0  0
 33 66  1  0  0  0
 33 70  2  0  0  0
 34 36  1  0  0  0
 34 59  1  0  0  0
 34103  1  0  0  0
 35 44  2  0  0  0
 35 45  1  0  0  0
 35 68  1  0  0  0
 36 56  1  0  0  0
 36104  1  0  0  0
 37 39  1  0  0  0
 37 47  1  0  0  0
 37 66  1  0  0  0
 37105  1  0  0  0
 38 43  2  0  0  0
 38 46  1  0  0  0
 38 47  1  0  0  0
 39 64  1  0  0  0
 39 67  2  0  0  0
 40 52  1  0  0  0
 40 53  2  0  0  0
 40 58  1  0  0  0
 41106  1  0  0  0
 41107  1  0  0  0
 41108  1  0  0  0
 41 48  1  0  0  0
 42 43  1  0  0  0
 42 66  1  0  0  0
 42109  1  0  0  0
 42110  1  0  0  0
 43 44  1  0  0  0
 44111  1  0  0  0
 45 46  2  0  0  0
 45112  1  0  0  0
 46113  1  0  0  0
 47114  1  0  0  0
 47115  1  0  0  0
 48 56  1  0  0  0
 48 65  1  0  0  0
 48116  1  0  0  0
 49 50  1  0  0  0
 49 53  1  0  0  0
 49 64  1  0  0  0
 49117  1  0  0  0
 50 51  1  0  0  0
 50118  1  0  0  0
 50119  1  0  0  0
 51 52  1  0  0  0
 51120  1  0  0  0
 51121  1  0  0  0
 52122  1  0  0  0
 52123  1  0  0  0
 53 54  1  0  0  0
 54 55  2  0  0  0
 54124  1  0  0  0
 55 57  1  0  0  0
 55125  1  0  0  0
 56 69  2  0  0  0
 57 58  2  0  0  0
 57126  1  0  0  0
 58127  1  0  0  0
 59 60  1  0  0  0
 59 61  1  0  0  0
 59 62  1  0  0  0
 60128  1  0  0  0
 60129  1  0  0  0
 60130  1  0  0  0
 61131  1  0  0  0
 61132  1  0  0  0
 61133  1  0  0  0
 62134  1  0  0  0
 62135  1  0  0  0
 62136  1  0  0  0
 63 65  1  0  0  0
 63137  1  0  0  0
 63138  1  0  0  0
 63139  1  0  0  0
 64140  1  0  0  0
 65141  1  0  0  0
 68 80  1  0  0  0
 71 72  2  0  0  0
 71 75  1  0  0  0
 71142  1  0  0  0
 72 73  1  0  0  0
 72 76  1  0  0  0
 73 74  2  0  0  0
 73 79  1  0  0  0
 74 77  1  0  0  0
 74 81  1  0  0  0
 75 81  2  0  0  0
 75 82  1  0  0  0
 76143  1  0  0  0
 76144  1  0  0  0
 76145  1  0  0  0
 77146  1  0  0  0
 77147  1  0  0  0
 77148  1  0  0  0
 78 82  1  0  0  0
 78149  1  0  0  0
 78150  1  0  0  0
 78151  1  0  0  0
 79 80  1  0  0  0
 79152  1  0  0  0
 79153  1  0  0  0
 80154  1  0  0  0
 80155  1  0  0  0
M  ISO  4   1 100  68 101  80 101  82 100
M  END
> <chiral flag>
0

> <version>
0

> <s_m_source_file>
/data/baiqing/PycharmProjects/Reinvent-master-3.2/result/LINK_invent/BTK/process_docking_weight1_custom_sum_contain_oxygen_bond_distance_aromatic_linkinvent_7_9_3/rearranged_h_0022.sdf

> <i_m_source_file_index>
82

> <r_mmod_Potential_Energy-OPLS-2005>
1124.92919921875

> <r_mmod_Stretch_Energy-OPLS-2005>
473.513702392578

> <r_mmod_Bend_Energy-OPLS-2005>
443.146301269531

> <r_mmod_Torsional_Energy-OPLS-2005>
288.123962402344

> <r_mmod_Improper_Torsional_Energy-OPLS-2005>
12.4419412612915

> <r_mmod_Van_der_Waal_Energy-OPLS-2005>
140.507263183594

> <r_mmod_Electrostatic_Energy-OPLS-2005>
-449.861053466797

> <r_mmod_Solvation_Energy-OPLS-2005>
-200.233108520508

> <b_mmod_Minimization_Converged-OPLS-2005>
0

> <r_mmod_RMS_Derivative-OPLS-2005>
1.3359694480896

$$$$
82
                    3D
 Structure written by MMmdl.
181189  0  0  1  0            999 V2000
  -30.6241  -15.1004   20.4086 C   0  0  0  0  0  0
  -30.4092  -12.6750   19.5655 C   0  0  0  0  0  0
  -29.5240  -12.5525   18.3028 C   0  0  0  0  0  0
  -28.0673  -12.3123   18.7176 C   0  0  0  0  0  0
  -27.6215  -13.2848   19.8414 C   0  0  2  0  0  0
  -28.6580  -13.4295   20.9880 C   0  0  0  0  0  0
  -25.2389  -13.8275   20.5732 C   0  0  0  0  0  0
  -24.1747  -13.0436   20.9267 C   0  0  0  0  0  0
  -24.6437  -11.6956   20.8814 C   0  0  0  0  0  0
  -23.9155  -10.4285   21.0451 C   0  0  0  0  0  0
  -24.3693   -9.4162   21.9199 C   0  0  0  0  0  0
  -23.6338   -8.2230   22.0773 C   0  0  0  0  0  0
  -22.4299   -8.0322   21.3570 C   0  0  0  0  0  0
  -21.9990   -9.0283   20.4633 C   0  0  0  0  0  0
  -22.7372  -10.2149   20.3040 C   0  0  0  0  0  0
  -21.6837   -6.0765   22.5302 C   0  0  0  0  0  0
  -21.4021   -6.5678   23.8228 C   0  0  0  0  0  0
  -21.3633   -5.6837   24.9192 C   0  0  0  0  0  0
  -21.6034   -4.3087   24.7228 C   0  0  0  0  0  0
  -21.8826   -3.8177   23.4345 C   0  0  0  0  0  0
  -21.9194   -4.7009   22.3415 C   0  0  0  0  0  0
  -22.7778  -13.5150   21.1886 C   0  0  0  0  0  0
  -22.1662   -4.2197   21.1004 F   0  0  0  0  0  0
  -21.5611   -3.4565   25.7726 F   0  0  0  0  0  0
  -29.9374  -13.8551   20.3940 N   0  0  0  0  0  0
  -26.2872  -12.9594   20.3315 N   0  0  0  0  0  0
  -25.9385  -11.6676   20.5803 N   0  0  0  0  0  0
  -22.0485  -12.8050   22.0449 N   0  0  0  0  0  0
  -25.3971  -15.1959   20.4154 N   0  0  0  0  0  0
  -31.7717  -14.9398   19.9747 O   0  0  0  0  0  0
  -21.6628   -6.8940   21.4267 O   0  0  0  0  0  0
  -22.3407  -14.5437   20.6805 O   0  0  0  0  0  0
  -24.6527  -31.8383   23.1844 C   0  0  0  0  0  0
  -25.9254  -32.4664   23.8274 C   0  0  1  0  0  0
  -27.1874  -26.9871   20.2399 C   0  0  0  0  0  0
  -25.5948  -33.8461   24.2173 N   0  0  0  0  0  0
  -23.4620  -30.4462   21.5350 C   0  0  2  0  0  0
  -24.9087  -28.8521   20.1275 C   0  0  0  0  0  0
  -22.7629  -29.4475   22.4906 C   0  0  0  0  0  0
  -18.0303  -28.1370   22.8493 C   0  0  0  0  0  0
  -24.1488  -36.7226   23.2649 C   0  0  0  0  0  0
  -26.0216  -30.6643   21.4042 C   0  0  0  0  0  0
  -26.0863  -29.2561   20.7680 C   0  0  0  0  0  0
  -27.2265  -28.3463   20.7999 C   0  0  0  0  0  0
  -25.9914  -26.7249   19.5391 C   0  0  0  0  0  0
  -24.8838  -27.6051   19.4859 C   0  0  0  0  0  0
  -23.6943  -29.7731   20.1568 C   0  0  0  0  0  0
  -25.4136  -36.3031   24.0321 C   0  0  1  0  0  0
  -20.5942  -28.3708   23.1262 C   0  0  2  0  0  0
  -20.6801  -26.9415   22.5419 C   0  0  0  0  0  0
  -19.5757  -26.6374   21.5228 C   0  0  0  0  0  0
  -18.1940  -26.7915   22.1638 C   0  0  0  0  0  0
  -19.1565  -28.8859   23.2846 C   0  0  0  0  0  0
  -18.9474  -30.1464   23.8842 C   0  0  0  0  0  0
  -17.6471  -30.6572   24.0560 C   0  0  0  0  0  0
  -25.9099  -34.9392   23.5082 C   0  0  0  0  0  0
  -16.5364  -29.9064   23.6343 C   0  0  0  0  0  0
  -16.7288  -28.6474   23.0381 C   0  0  0  0  0  0
  -26.4530  -31.6565   25.0753 C   0  0  0  0  0  0
  -25.3675  -31.3714   26.1420 C   0  0  0  0  0  0
  -27.0439  -30.2976   24.6356 C   0  0  0  0  0  0
  -27.6052  -32.4338   25.7520 C   0  0  0  0  0  0
  -27.5599  -37.1758   24.8476 C   0  0  0  0  0  0
  -21.4320  -29.3011   22.3623 N   0  0  0  0  0  0
  -26.4304  -37.3751   23.9431 N   0  0  0  0  0  0
  -24.7325  -31.0075   22.0964 N   0  0  0  0  0  0
  -23.4219  -28.8072   23.3131 O   0  0  0  0  0  0
  -28.2180  -25.9388   20.2149 O   0  0  0  0  0  0
  -26.5713  -34.8919   22.4679 O   0  0  0  0  0  0
  -23.5601  -32.1346   23.6940 O   0  0  0  0  0  0
  -27.8401  -17.3840   20.9681 C   0  0  0  0  0  0
  -27.6073  -17.8921   22.3900 C   0  0  0  0  0  0
  -29.1630  -17.9978   20.5287 C   0  0  1  0  0  0
  -28.9783  -19.6287   21.2031 C   0  0  2  0  0  0
  -27.9474  -19.4050   22.3754 C   0  0  0  0  0  0
  -26.5928  -20.0851   22.1234 C   0  0  0  0  0  0
  -28.5443  -19.8772   23.7247 C   0  0  0  0  0  0
  -30.2752  -21.3952   19.6651 C   0  0  0  0  0  0
  -25.3438  -21.6673   19.1407 C   0  0  0  0  0  0
  -25.8916  -23.3256   17.3147 C   0  0  0  0  0  0
  -30.5899  -16.6906   22.4368 C   0  0  0  0  0  0
  -31.6016  -17.5286   20.3895 C   0  0  0  0  0  0
  -28.2040  -24.4585   20.8782 C   0  0  0  0  0  0
  -29.1333  -21.3456   20.6930 C   0  0  1  0  0  0
  -26.1637  -22.9149   18.7685 C   0  0  0  0  0  0
  -28.0914  -22.7598   20.3877 C   0  0  2  0  0  0
  -30.3471  -16.7562   20.9140 C   0  0  0  0  0  0
  -27.6228  -22.7165   18.9815 N   0  3  0  0  0  0
  -31.4547  -12.7413   19.2591 H   0  0  0  0  0  0
  -30.3609  -11.7552   20.1545 H   0  0  0  0  0  0
  -29.8724  -11.7365   17.6678 H   0  0  0  0  0  0
  -29.5930  -13.4676   17.7108 H   0  0  0  0  0  0
  -27.9968  -11.2880   19.0790 H   0  0  0  0  0  0
  -27.4042  -12.3738   17.8532 H   0  0  0  0  0  0
  -27.5559  -14.2553   19.3528 H   0  0  0  0  0  0
  -28.7710  -12.4919   21.5346 H   0  0  0  0  0  0
  -28.3315  -14.1670   21.7217 H   0  0  0  0  0  0
  -25.2857   -9.5597   22.4756 H   0  0  0  0  0  0
  -24.0044   -7.4597   22.7492 H   0  0  0  0  0  0
  -21.0947   -8.8812   19.8893 H   0  0  0  0  0  0
  -22.3887  -10.9691   19.6119 H   0  0  0  0  0  0
  -21.2040   -7.6184   23.9739 H   0  0  0  0  0  0
  -21.1431   -6.0559   25.9091 H   0  0  0  0  0  0
  -22.0623   -2.7652   23.2818 H   0  0  0  0  0  0
  -22.4216  -11.9686   22.4703 H   0  0  0  0  0  0
  -21.1062  -13.0956   22.2714 H   0  0  0  0  0  0
  -24.6425  -15.8597   20.5501 H   0  0  0  0  0  0
  -26.2618  -15.6357   20.1316 H   0  0  0  0  0  0
  -26.7319  -32.5236   23.0989 H   0  0  0  0  0  0
  -24.9976  -33.9562   25.0240 H   0  0  0  0  0  0
  -22.7675  -31.2741   21.3786 H   0  0  0  0  0  0
  -23.3814  -35.9498   23.3279 H   0  0  0  0  0  0
  -24.3549  -36.8912   22.2070 H   0  0  0  0  0  0
  -23.7179  -37.6362   23.6735 H   0  0  0  0  0  0
  -26.1815  -31.4036   20.6167 H   0  0  0  0  0  0
  -26.8898  -30.7278   22.0497 H   0  0  0  0  0  0
  -28.1223  -28.6566   21.3228 H   0  0  0  0  0  0
  -25.8938  -25.7874   19.0247 H   0  0  0  0  0  0
  -23.9941  -27.2934   18.9526 H   0  0  0  0  0  0
  -23.8387  -30.5481   19.4016 H   0  0  0  0  0  0
  -22.8046  -29.2229   19.8482 H   0  0  0  0  0  0
  -25.1316  -36.1861   25.0808 H   0  0  0  0  0  0
  -20.9958  -28.3279   24.1414 H   0  0  0  0  0  0
  -20.5732  -26.2294   23.3628 H   0  0  0  0  0  0
  -21.6667  -26.7426   22.1208 H   0  0  0  0  0  0
  -19.6937  -25.6282   21.1260 H   0  0  0  0  0  0
  -19.6715  -27.3188   20.6770 H   0  0  0  0  0  0
  -17.4238  -26.6692   21.4022 H   0  0  0  0  0  0
  -18.0300  -26.0037   22.9003 H   0  0  0  0  0  0
  -19.7963  -30.7289   24.2189 H   0  0  0  0  0  0
  -17.5041  -31.6256   24.5171 H   0  0  0  0  0  0
  -15.5371  -30.2957   23.7673 H   0  0  0  0  0  0
  -15.8714  -28.0767   22.7154 H   0  0  0  0  0  0
  -24.5914  -30.7001   25.7726 H   0  0  0  0  0  0
  -24.8781  -32.2862   26.4765 H   0  0  0  0  0  0
  -25.7959  -30.8953   27.0256 H   0  0  0  0  0  0
  -26.3109  -29.6652   24.1344 H   0  0  0  0  0  0
  -27.4057  -29.7293   25.4937 H   0  0  0  0  0  0
  -27.9010  -30.4263   23.9744 H   0  0  0  0  0  0
  -27.2694  -33.3707   26.1960 H   0  0  0  0  0  0
  -28.3915  -32.6756   25.0368 H   0  0  0  0  0  0
  -28.0666  -31.8540   26.5514 H   0  0  0  0  0  0
  -28.2573  -38.0088   24.7597 H   0  0  0  0  0  0
  -28.1135  -36.2628   24.6251 H   0  0  0  0  0  0
  -27.2299  -37.1319   25.8860 H   0  0  0  0  0  0
  -20.9551  -29.8667   21.6753 H   0  0  0  0  0  0
  -26.0185  -38.2808   24.1472 H   0  0  0  0  0  0
  -27.0333  -17.7235   20.3188 H   0  0  0  0  0  0
  -27.8495  -16.2968   20.9271 H   0  0  0  0  0  0
  -28.2006  -17.3506   23.1238 H   0  0  0  0  0  0
  -26.5815  -17.6717   22.6835 H   0  0  0  0  0  0
  -29.1361  -18.0746   19.4405 H   0  0  0  0  0  0
  -29.9496  -19.5989   21.6913 H   0  0  0  0  0  0
  -25.8024  -19.7111   22.7749 H   0  0  0  0  0  0
  -26.2751  -19.8882   21.1022 H   0  0  0  0  0  0
  -26.6165  -21.1488   22.3164 H   0  0  0  0  0  0
  -29.5923  -19.5944   23.8446 H   0  0  0  0  0  0
  -28.0175  -19.4680   24.5872 H   0  0  0  0  0  0
  -28.5098  -20.9631   23.8161 H   0  0  0  0  0  0
  -31.1401  -20.8208   19.9958 H   0  0  0  0  0  0
  -30.6218  -22.4130   19.4885 H   0  0  0  0  0  0
  -29.9525  -20.9795   18.7129 H   0  0  0  0  0  0
  -24.3228  -21.7346   18.7640 H   0  0  0  0  0  0
  -25.2522  -21.5733   20.2218 H   0  0  0  0  0  0
  -25.7847  -20.7529   18.7380 H   0  0  0  0  0  0
  -24.8371  -23.5669   17.1712 H   0  0  0  0  0  0
  -26.1443  -22.5258   16.6163 H   0  0  0  0  0  0
  -26.4625  -24.2106   17.0337 H   0  0  0  0  0  0
  -29.9275  -15.9799   22.9298 H   0  0  0  0  0  0
  -30.4567  -17.6637   22.9031 H   0  0  0  0  0  0
  -31.6093  -16.3725   22.6696 H   0  0  0  0  0  0
  -31.6296  -18.5704   20.7119 H   0  0  0  0  0  0
  -31.6409  -17.5327   19.2968 H   0  0  0  0  0  0
  -32.5397  -17.1051   20.7528 H   0  0  0  0  0  0
  -29.1225  -24.4758   21.4677 H   0  0  0  0  0  0
  -27.4308  -24.5671   21.6406 H   0  0  0  0  0  0
  -29.5794  -21.7298   21.6154 H   0  0  0  0  0  0
  -25.8218  -23.7218   19.4172 H   0  0  0  0  0  0
  -27.2204  -22.4995   20.9667 H   0  0  0  0  0  0
  -28.1208  -23.4462   18.4929 H   0  0  0  0  0  0
  -27.8963  -21.8437   18.5633 H   0  0  0  0  0  0
  1 25  1  0  0  0
  1 30  2  0  0  0
  1 87  1  0  0  0
  2  3  1  0  0  0
  2 25  1  0  0  0
  2 89  1  0  0  0
  2 90  1  0  0  0
  3  4  1  0  0  0
  3 91  1  0  0  0
  3 92  1  0  0  0
  4  5  1  0  0  0
  4 93  1  0  0  0
  4 94  1  0  0  0
  5  6  1  0  0  0
  5 26  1  0  0  0
  5 95  1  0  0  0
  6 25  1  0  0  0
  6 96  1  0  0  0
  6 97  1  0  0  0
  7  8  2  0  0  0
  7 26  1  0  0  0
  7 29  1  0  0  0
  8  9  1  0  0  0
  8 22  1  0  0  0
  9 10  1  0  0  0
  9 27  2  0  0  0
 10 11  2  0  0  0
 10 15  1  0  0  0
 11 12  1  0  0  0
 11 98  1  0  0  0
 12 13  2  0  0  0
 12 99  1  0  0  0
 13 14  1  0  0  0
 13 31  1  0  0  0
 14 15  2  0  0  0
 14100  1  0  0  0
 15101  1  0  0  0
 16 17  2  0  0  0
 16 21  1  0  0  0
 16 31  1  0  0  0
 17 18  1  0  0  0
 17102  1  0  0  0
 18 19  2  0  0  0
 18103  1  0  0  0
 19 20  1  0  0  0
 19 24  1  0  0  0
 20 21  2  0  0  0
 20104  1  0  0  0
 21 23  1  0  0  0
 22 28  1  0  0  0
 22 32  2  0  0  0
 26 27  1  0  0  0
 28105  1  0  0  0
 28106  1  0  0  0
 29107  1  0  0  0
 29108  1  0  0  0
 33 34  1  0  0  0
 33 66  1  0  0  0
 33 70  2  0  0  0
 34 36  1  0  0  0
 34 59  1  0  0  0
 34109  1  0  0  0
 35 44  2  0  0  0
 35 45  1  0  0  0
 35 68  1  0  0  0
 36 56  1  0  0  0
 36110  1  0  0  0
 37 39  1  0  0  0
 37 47  1  0  0  0
 37 66  1  0  0  0
 37111  1  0  0  0
 38 43  2  0  0  0
 38 46  1  0  0  0
 38 47  1  0  0  0
 39 64  1  0  0  0
 39 67  2  0  0  0
 40 52  1  0  0  0
 40 53  2  0  0  0
 40 58  1  0  0  0
 41112  1  0  0  0
 41113  1  0  0  0
 41114  1  0  0  0
 41 48  1  0  0  0
 42 43  1  0  0  0
 42 66  1  0  0  0
 42115  1  0  0  0
 42116  1  0  0  0
 43 44  1  0  0  0
 44117  1  0  0  0
 45 46  2  0  0  0
 45118  1  0  0  0
 46119  1  0  0  0
 47120  1  0  0  0
 47121  1  0  0  0
 48 56  1  0  0  0
 48 65  1  0  0  0
 48122  1  0  0  0
 49 50  1  0  0  0
 49 53  1  0  0  0
 49 64  1  0  0  0
 49123  1  0  0  0
 50 51  1  0  0  0
 50124  1  0  0  0
 50125  1  0  0  0
 51 52  1  0  0  0
 51126  1  0  0  0
 51127  1  0  0  0
 52128  1  0  0  0
 52129  1  0  0  0
 53 54  1  0  0  0
 54 55  2  0  0  0
 54130  1  0  0  0
 55 57  1  0  0  0
 55131  1  0  0  0
 56 69  2  0  0  0
 57 58  2  0  0  0
 57132  1  0  0  0
 58133  1  0  0  0
 59 60  1  0  0  0
 59 61  1  0  0  0
 59 62  1  0  0  0
 60134  1  0  0  0
 60135  1  0  0  0
 60136  1  0  0  0
 61137  1  0  0  0
 61138  1  0  0  0
 61139  1  0  0  0
 62140  1  0  0  0
 62141  1  0  0  0
 62142  1  0  0  0
 63 65  1  0  0  0
 63143  1  0  0  0
 63144  1  0  0  0
 63145  1  0  0  0
 64146  1  0  0  0
 65147  1  0  0  0
 68 83  1  0  0  0
 71 72  1  0  0  0
 71148  1  0  0  0
 71149  1  0  0  0
 71 73  1  0  0  0
 72 75  1  0  0  0
 72150  1  0  0  0
 72151  1  0  0  0
 73 74  1  0  0  0
 73 87  1  0  0  0
 73152  1  0  0  0
 74 75  1  0  0  0
 74 84  1  0  0  0
 74153  1  0  0  0
 75 76  1  0  0  0
 75 77  1  0  0  0
 76154  1  0  0  0
 76155  1  0  0  0
 76156  1  0  0  0
 77157  1  0  0  0
 77158  1  0  0  0
 77159  1  0  0  0
 78160  1  0  0  0
 78161  1  0  0  0
 78162  1  0  0  0
 78 84  1  0  0  0
 79163  1  0  0  0
 79164  1  0  0  0
 79165  1  0  0  0
 79 85  1  0  0  0
 80 85  1  0  0  0
 80166  1  0  0  0
 80167  1  0  0  0
 80168  1  0  0  0
 81169  1  0  0  0
 81170  1  0  0  0
 81171  1  0  0  0
 81 87  1  0  0  0
 82 87  1  0  0  0
 82172  1  0  0  0
 82173  1  0  0  0
 82174  1  0  0  0
 83175  1  0  0  0
 83176  1  0  0  0
 83 86  1  0  0  0
 84 86  1  0  0  0
 84177  1  0  0  0
 85 88  1  0  0  0
 85178  1  0  0  0
 86 88  1  0  0  0
 86179  1  0  0  0
 88180  1  0  0  0
 88181  1  0  0  0
M  CHG  1  88   1
M  ISO  4   1 100  68 101  83 101  87 100
M  END
> <chiral flag>
0

> <version>
0

> <s_m_source_file>
/data/baiqing/PycharmProjects/Reinvent-master-3.2/result/LINK_invent/BTK/process_docking_weight1_custom_sum_contain_oxygen_bond_distance_aromatic_linkinvent_7_9_3/rearranged_h_0022.sdf

> <i_m_source_file_index>
83

> <r_mmod_Potential_Energy-OPLS-2005>
1418.033203125

> <r_mmod_Stretch_Energy-OPLS-2005>
576.952758789062

> <r_mmod_Bend_Energy-OPLS-2005>
646.984130859375

> <r_mmod_Torsional_Energy-OPLS-2005>
359.756042480469

> <r_mmod_Improper_Torsional_Energy-OPLS-2005>
1.91725504398346

> <r_mmod_Van_der_Waal_Energy-OPLS-2005>
128.510177612305

> <r_mmod_Electrostatic_Energy-OPLS-2005>
-219.183288574219

> <r_mmod_Solvation_Energy-OPLS-2005>
-392.18505859375

> <b_mmod_Minimization_Converged-OPLS-2005>
0

> <r_mmod_RMS_Derivative-OPLS-2005>
6.59945201873779

$$$$
83
                    3D
 Structure written by MMmdl.
159167  0  0  1  0            999 V2000
  -30.7155  -14.4823   20.5769 C   0  0  0  0  0  0
  -30.4256  -12.3174   19.4216 C   0  0  0  0  0  0
  -29.4942  -12.5052   18.2061 C   0  0  0  0  0  0
  -28.0157  -12.3690   18.6202 C   0  0  0  0  0  0
  -27.6613  -13.2107   19.8763 C   0  0  2  0  0  0
  -28.7076  -13.0006   20.9956 C   0  0  0  0  0  0
  -25.2510  -13.8083   20.5573 C   0  0  0  0  0  0
  -24.1805  -13.0370   20.9151 C   0  0  0  0  0  0
  -24.6407  -11.6863   20.8759 C   0  0  0  0  0  0
  -23.9078  -10.4262   21.0421 C   0  0  0  0  0  0
  -24.3624   -9.4185   21.9208 C   0  0  0  0  0  0
  -23.6296   -8.2221   22.0766 C   0  0  0  0  0  0
  -22.4283   -8.0265   21.3547 C   0  0  0  0  0  0
  -21.9919   -9.0243   20.4647 C   0  0  0  0  0  0
  -22.7252  -10.2119   20.3063 C   0  0  0  0  0  0
  -21.6848   -6.0739   22.5290 C   0  0  0  0  0  0
  -21.4004   -6.5646   23.8223 C   0  0  0  0  0  0
  -21.3657   -5.6798   24.9181 C   0  0  0  0  0  0
  -21.6042   -4.3060   24.7231 C   0  0  0  0  0  0
  -21.8820   -3.8155   23.4353 C   0  0  0  0  0  0
  -21.9190   -4.6970   22.3409 C   0  0  0  0  0  0
  -22.7834  -13.5192   21.1833 C   0  0  0  0  0  0
  -22.1667   -4.2154   21.0989 F   0  0  0  0  0  0
  -21.5628   -3.4540   25.7743 F   0  0  0  0  0  0
  -30.0387  -13.3065   20.4405 N   0  0  0  0  0  0
  -26.3029  -12.9318   20.3393 N   0  0  0  0  0  0
  -25.9354  -11.6474   20.5830 N   0  0  0  0  0  0
  -22.0485  -12.8195   22.0399 N   0  0  0  0  0  0
  -25.4029  -15.1759   20.3818 N   0  0  0  0  0  0
  -31.8382  -14.6573   20.0956 O   0  0  0  0  0  0
  -21.6635   -6.8877   21.4251 O   0  0  0  0  0  0
  -22.3513  -14.5501   20.6690 O   0  0  0  0  0  0
  -24.6153  -31.8661   23.2066 C   0  0  0  0  0  0
  -25.9039  -32.4808   23.8366 C   0  0  1  0  0  0
  -27.2359  -27.4179   20.0966 C   0  0  0  0  0  0
  -25.5881  -33.8605   24.2293 N   0  0  0  0  0  0
  -23.4036  -30.4901   21.5487 C   0  0  2  0  0  0
  -24.8490  -28.9534   20.1153 C   0  0  0  0  0  0
  -22.7419  -29.4650   22.4979 C   0  0  0  0  0  0
  -18.0273  -28.1376   22.8496 C   0  0  0  0  0  0
  -24.1475  -36.7307   23.2645 C   0  0  0  0  0  0
  -25.9347  -30.8277   21.3595 C   0  0  0  0  0  0
  -26.0123  -29.4613   20.7060 C   0  0  0  0  0  0
  -27.2087  -28.7045   20.6891 C   0  0  0  0  0  0
  -26.0474  -26.9299   19.5010 C   0  0  0  0  0  0
  -24.8620  -27.6862   19.5102 C   0  0  0  0  0  0
  -23.6129  -29.8224   20.1640 C   0  0  0  0  0  0
  -25.4101  -36.3098   24.0342 C   0  0  1  0  0  0
  -20.5868  -28.3650   23.1322 C   0  0  2  0  0  0
  -20.6759  -26.9378   22.5420 C   0  0  0  0  0  0
  -19.5739  -26.6372   21.5212 C   0  0  0  0  0  0
  -18.1919  -26.7927   22.1619 C   0  0  0  0  0  0
  -19.1527  -28.8831   23.2901 C   0  0  0  0  0  0
  -18.9458  -30.1445   23.8891 C   0  0  0  0  0  0
  -17.6470  -30.6591   24.0575 C   0  0  0  0  0  0
  -25.9034  -34.9472   23.5123 C   0  0  0  0  0  0
  -16.5357  -29.9102   23.6344 C   0  0  0  0  0  0
  -16.7266  -28.6522   23.0350 C   0  0  0  0  0  0
  -26.4451  -31.6603   25.0714 C   0  0  0  0  0  0
  -25.3722  -31.3752   26.1476 C   0  0  0  0  0  0
  -27.0287  -30.3052   24.6092 C   0  0  0  0  0  0
  -27.6009  -32.4348   25.7488 C   0  0  0  0  0  0
  -27.5574  -37.1803   24.8468 C   0  0  0  0  0  0
  -21.4144  -29.3026   22.3727 N   0  0  0  0  0  0
  -26.4281  -37.3787   23.9426 N   0  0  0  0  0  0
  -24.6704  -31.0759   22.0963 N   0  0  0  0  0  0
  -23.4181  -28.8189   23.3030 O   0  0  0  0  0  0
  -28.4051  -26.6752   20.1102 O   0  0  0  0  0  0
  -26.5611  -34.8932   22.4689 O   0  0  0  0  0  0
  -23.5359  -32.1406   23.7471 O   0  0  0  0  0  0
  -31.6290  -17.4101   21.3330 C   0  0  0  0  0  0
  -29.4525  -19.1743   21.4851 C   0  0  0  0  0  0
  -31.8546  -18.7984   21.5142 C   0  0  0  0  0  0
  -30.7561  -19.6964   21.6164 C   0  0  0  0  0  0
  -30.3163  -16.8838   21.2436 C   0  0  0  0  0  0
  -29.2344  -17.7919   21.3110 C   0  0  0  0  0  0
  -33.2892  -19.2892   21.6362 C   0  0  0  0  0  0
  -30.9290  -21.1768   21.9950 C   0  0  0  0  0  0
  -30.8076  -22.2330   20.8615 C   0  0  0  0  0  0
  -29.4644  -23.0117   20.7919 C   0  0  0  0  0  0
  -29.6097  -24.5148   20.4132 C   0  0  0  0  0  0
  -28.2641  -25.2415   20.1705 C   0  0  0  0  0  0
  -30.0195  -15.4813   21.1550 N   0  0  0  0  0  0
  -27.6113  -17.2203   21.2169 Cl  0  0  0  0  0  0
  -31.4686  -12.4175   19.1149 H   0  0  0  0  0  0
  -30.3320  -11.3079   19.8252 H   0  0  0  0  0  0
  -29.7343  -11.7739   17.4332 H   0  0  0  0  0  0
  -29.6614  -13.4866   17.7599 H   0  0  0  0  0  0
  -27.8250  -11.3136   18.8174 H   0  0  0  0  0  0
  -27.3653  -12.6439   17.7884 H   0  0  0  0  0  0
  -27.6988  -14.2585   19.5770 H   0  0  0  0  0  0
  -28.6868  -11.9671   21.3447 H   0  0  0  0  0  0
  -28.4674  -13.6066   21.8695 H   0  0  0  0  0  0
  -25.2765   -9.5663   22.4792 H   0  0  0  0  0  0
  -24.0001   -7.4609   22.7485 H   0  0  0  0  0  0
  -21.0856   -8.8769   19.8951 H   0  0  0  0  0  0
  -22.3726  -10.9662   19.6171 H   0  0  0  0  0  0
  -21.1990   -7.6147   23.9724 H   0  0  0  0  0  0
  -21.1480   -6.0529   25.9087 H   0  0  0  0  0  0
  -22.0596   -2.7614   23.2852 H   0  0  0  0  0  0
  -22.4106  -11.9860   22.4790 H   0  0  0  0  0  0
  -21.1108  -13.1235   22.2616 H   0  0  0  0  0  0
  -24.6330  -15.8210   20.5124 H   0  0  0  0  0  0
  -26.2722  -15.6445   20.1585 H   0  0  0  0  0  0
  -26.7110  -32.5497   23.1128 H   0  0  0  0  0  0
  -25.0012  -33.9742   25.0431 H   0  0  0  0  0  0
  -22.6949  -31.3094   21.4087 H   0  0  0  0  0  0
  -23.3735  -35.9636   23.3312 H   0  0  0  0  0  0
  -24.3573  -36.8909   22.2055 H   0  0  0  0  0  0
  -23.7230  -37.6515   23.6660 H   0  0  0  0  0  0
  -26.0526  -31.5916   20.5894 H   0  0  0  0  0  0
  -26.8209  -30.8773   21.9799 H   0  0  0  0  0  0
  -28.1064  -29.0957   21.1482 H   0  0  0  0  0  0
  -26.0149  -25.9657   19.0173 H   0  0  0  0  0  0
  -23.9665  -27.2859   19.0546 H   0  0  0  0  0  0
  -23.7233  -30.5973   19.4043 H   0  0  0  0  0  0
  -22.7347  -29.2448   19.8679 H   0  0  0  0  0  0
  -25.1275  -36.1944   25.0834 H   0  0  0  0  0  0
  -20.9958  -28.3196   24.1443 H   0  0  0  0  0  0
  -20.5640  -26.2245   23.3607 H   0  0  0  0  0  0
  -21.6630  -26.7404   22.1209 H   0  0  0  0  0  0
  -19.6898  -25.6282   21.1228 H   0  0  0  0  0  0
  -19.6698  -27.3200   20.6758 H   0  0  0  0  0  0
  -17.4191  -26.6676   21.4021 H   0  0  0  0  0  0
  -18.0318  -26.0077   22.9021 H   0  0  0  0  0  0
  -19.7936  -30.7273   24.2219 H   0  0  0  0  0  0
  -17.5037  -31.6263   24.5195 H   0  0  0  0  0  0
  -15.5360  -30.3025   23.7674 H   0  0  0  0  0  0
  -15.8658  -28.0872   22.7044 H   0  0  0  0  0  0
  -24.5857  -30.7126   25.7844 H   0  0  0  0  0  0
  -24.8962  -32.2939   26.4920 H   0  0  0  0  0  0
  -25.8080  -30.8930   27.0236 H   0  0  0  0  0  0
  -26.2835  -29.6829   24.1123 H   0  0  0  0  0  0
  -27.4047  -29.7266   25.4534 H   0  0  0  0  0  0
  -27.8668  -30.4378   23.9251 H   0  0  0  0  0  0
  -27.2575  -33.3624   26.2077 H   0  0  0  0  0  0
  -28.3811  -32.6943   25.0326 H   0  0  0  0  0  0
  -28.0681  -31.8481   26.5400 H   0  0  0  0  0  0
  -28.2588  -38.0099   24.7510 H   0  0  0  0  0  0
  -28.1058  -36.2631   24.6280 H   0  0  0  0  0  0
  -27.2301  -37.1436   25.8870 H   0  0  0  0  0  0
  -20.9300  -29.8768   21.6972 H   0  0  0  0  0  0
  -26.0161  -38.2858   24.1441 H   0  0  0  0  0  0
  -32.4791  -16.7439   21.3004 H   0  0  0  0  0  0
  -28.5990  -19.8322   21.5653 H   0  0  0  0  0  0
  -33.9990  -18.5113   21.3518 H   0  0  0  0  0  0
  -33.5155  -19.5794   22.6629 H   0  0  0  0  0  0
  -33.4651  -20.1492   20.9884 H   0  0  0  0  0  0
  -31.9033  -21.3054   22.4645 H   0  0  0  0  0  0
  -30.2283  -21.4053   22.7991 H   0  0  0  0  0  0
  -31.0626  -21.7999   19.8933 H   0  0  0  0  0  0
  -31.5876  -22.9725   21.0536 H   0  0  0  0  0  0
  -28.9611  -22.9643   21.7575 H   0  0  0  0  0  0
  -28.8028  -22.5080   20.0854 H   0  0  0  0  0  0
  -30.2324  -24.6179   19.5226 H   0  0  0  0  0  0
  -30.1410  -25.0245   21.2183 H   0  0  0  0  0  0
  -27.5675  -24.9914   20.9730 H   0  0  0  0  0  0
  -27.8410  -24.8586   19.2423 H   0  0  0  0  0  0
  -29.0763  -15.2346   21.4153 H   0  0  0  0  0  0
  1 25  1  0  0  0
  1 30  2  0  0  0
  1 83  1  0  0  0
  2  3  1  0  0  0
  2 25  1  0  0  0
  2 85  1  0  0  0
  2 86  1  0  0  0
  3  4  1  0  0  0
  3 87  1  0  0  0
  3 88  1  0  0  0
  4  5  1  0  0  0
  4 89  1  0  0  0
  4 90  1  0  0  0
  5  6  1  0  0  0
  5 26  1  0  0  0
  5 91  1  0  0  0
  6 25  1  0  0  0
  6 92  1  0  0  0
  6 93  1  0  0  0
  7  8  2  0  0  0
  7 26  1  0  0  0
  7 29  1  0  0  0
  8  9  1  0  0  0
  8 22  1  0  0  0
  9 10  1  0  0  0
  9 27  2  0  0  0
 10 11  2  0  0  0
 10 15  1  0  0  0
 11 12  1  0  0  0
 11 94  1  0  0  0
 12 13  2  0  0  0
 12 95  1  0  0  0
 13 14  1  0  0  0
 13 31  1  0  0  0
 14 15  2  0  0  0
 14 96  1  0  0  0
 15 97  1  0  0  0
 16 17  2  0  0  0
 16 21  1  0  0  0
 16 31  1  0  0  0
 17 18  1  0  0  0
 17 98  1  0  0  0
 18 19  2  0  0  0
 18 99  1  0  0  0
 19 20  1  0  0  0
 19 24  1  0  0  0
 20 21  2  0  0  0
 20100  1  0  0  0
 21 23  1  0  0  0
 22 28  1  0  0  0
 22 32  2  0  0  0
 26 27  1  0  0  0
 28101  1  0  0  0
 28102  1  0  0  0
 29103  1  0  0  0
 29104  1  0  0  0
 33 34  1  0  0  0
 33 66  1  0  0  0
 33 70  2  0  0  0
 34 36  1  0  0  0
 34 59  1  0  0  0
 34105  1  0  0  0
 35 44  2  0  0  0
 35 45  1  0  0  0
 35 68  1  0  0  0
 36 56  1  0  0  0
 36106  1  0  0  0
 37 39  1  0  0  0
 37 47  1  0  0  0
 37 66  1  0  0  0
 37107  1  0  0  0
 38 43  2  0  0  0
 38 46  1  0  0  0
 38 47  1  0  0  0
 39 64  1  0  0  0
 39 67  2  0  0  0
 40 52  1  0  0  0
 40 53  2  0  0  0
 40 58  1  0  0  0
 41108  1  0  0  0
 41109  1  0  0  0
 41110  1  0  0  0
 41 48  1  0  0  0
 42 43  1  0  0  0
 42 66  1  0  0  0
 42111  1  0  0  0
 42112  1  0  0  0
 43 44  1  0  0  0
 44113  1  0  0  0
 45 46  2  0  0  0
 45114  1  0  0  0
 46115  1  0  0  0
 47116  1  0  0  0
 47117  1  0  0  0
 48 56  1  0  0  0
 48 65  1  0  0  0
 48118  1  0  0  0
 49 50  1  0  0  0
 49 53  1  0  0  0
 49 64  1  0  0  0
 49119  1  0  0  0
 50 51  1  0  0  0
 50120  1  0  0  0
 50121  1  0  0  0
 51 52  1  0  0  0
 51122  1  0  0  0
 51123  1  0  0  0
 52124  1  0  0  0
 52125  1  0  0  0
 53 54  1  0  0  0
 54 55  2  0  0  0
 54126  1  0  0  0
 55 57  1  0  0  0
 55127  1  0  0  0
 56 69  2  0  0  0
 57 58  2  0  0  0
 57128  1  0  0  0
 58129  1  0  0  0
 59 60  1  0  0  0
 59 61  1  0  0  0
 59 62  1  0  0  0
 60130  1  0  0  0
 60131  1  0  0  0
 60132  1  0  0  0
 61133  1  0  0  0
 61134  1  0  0  0
 61135  1  0  0  0
 62136  1  0  0  0
 62137  1  0  0  0
 62138  1  0  0  0
 63 65  1  0  0  0
 63139  1  0  0  0
 63140  1  0  0  0
 63141  1  0  0  0
 64142  1  0  0  0
 65143  1  0  0  0
 68 82  1  0  0  0
 71 73  2  0  0  0
 71 75  1  0  0  0
 71144  1  0  0  0
 72 74  2  0  0  0
 72 76  1  0  0  0
 72145  1  0  0  0
 73 74  1  0  0  0
 73 77  1  0  0  0
 74 78  1  0  0  0
 75 76  2  0  0  0
 75 83  1  0  0  0
 76 84  1  0  0  0
 77146  1  0  0  0
 77147  1  0  0  0
 77148  1  0  0  0
 78 79  1  0  0  0
 78149  1  0  0  0
 78150  1  0  0  0
 79 80  1  0  0  0
 79151  1  0  0  0
 79152  1  0  0  0
 80 81  1  0  0  0
 80153  1  0  0  0
 80154  1  0  0  0
 81 82  1  0  0  0
 81155  1  0  0  0
 81156  1  0  0  0
 82157  1  0  0  0
 82158  1  0  0  0
 83159  1  0  0  0
M  ISO  4   1 100  68 101  82 101  83 100
M  END
> <chiral flag>
0

> <version>
0

> <s_m_source_file>
/data/baiqing/PycharmProjects/Reinvent-master-3.2/result/LINK_invent/BTK/process_docking_weight1_custom_sum_contain_oxygen_bond_distance_aromatic_linkinvent_7_9_3/rearranged_h_0022.sdf

> <i_m_source_file_index>
84

> <r_mmod_Potential_Energy-OPLS-2005>
-38.9489707946777

> <r_mmod_Stretch_Energy-OPLS-2005>
41.2367362976074

> <r_mmod_Bend_Energy-OPLS-2005>
102.814224243164

> <r_mmod_Torsional_Energy-OPLS-2005>
229.819091796875

> <r_mmod_Improper_Torsional_Energy-OPLS-2005>
3.78462052345276

> <r_mmod_Van_der_Waal_Energy-OPLS-2005>
155.825531005859

> <r_mmod_Electrostatic_Energy-OPLS-2005>
-398.257904052734

> <r_mmod_Solvation_Energy-OPLS-2005>
-188.553115844727

> <b_mmod_Minimization_Converged-OPLS-2005>
0

> <r_mmod_RMS_Derivative-OPLS-2005>
2.11776185035706

$$$$
84
                    3D
 Structure written by MMmdl.
159167  0  0  1  0            999 V2000
  -30.6216  -14.6279   20.5056 C   0  0  0  0  0  0
  -30.4412  -12.3821   19.4593 C   0  0  0  0  0  0
  -29.5135  -12.5034   18.2294 C   0  0  0  0  0  0
  -28.0338  -12.3479   18.6345 C   0  0  0  0  0  0
  -27.6574  -13.2142   19.8665 C   0  0  2  0  0  0
  -28.7003  -13.0539   20.9971 C   0  0  0  0  0  0
  -25.2578  -13.8175   20.5675 C   0  0  0  0  0  0
  -24.1833  -13.0450   20.9179 C   0  0  0  0  0  0
  -24.6387  -11.6920   20.8730 C   0  0  0  0  0  0
  -23.9042  -10.4305   21.0388 C   0  0  0  0  0  0
  -24.3596   -9.4230   21.9170 C   0  0  0  0  0  0
  -23.6284   -8.2257   22.0741 C   0  0  0  0  0  0
  -22.4268   -8.0274   21.3538 C   0  0  0  0  0  0
  -21.9892   -9.0250   20.4644 C   0  0  0  0  0  0
  -22.7211  -10.2139   20.3052 C   0  0  0  0  0  0
  -21.6857   -6.0728   22.5274 C   0  0  0  0  0  0
  -21.4023   -6.5627   23.8207 C   0  0  0  0  0  0
  -21.3670   -5.6780   24.9167 C   0  0  0  0  0  0
  -21.6045   -4.3041   24.7215 C   0  0  0  0  0  0
  -21.8823   -3.8135   23.4335 C   0  0  0  0  0  0
  -21.9193   -4.6954   22.3396 C   0  0  0  0  0  0
  -22.7852  -13.5250   21.1821 C   0  0  0  0  0  0
  -22.1656   -4.2139   21.0975 F   0  0  0  0  0  0
  -21.5630   -3.4528   25.7728 F   0  0  0  0  0  0
  -30.0203  -13.3982   20.4434 N   0  0  0  0  0  0
  -26.3000  -12.9346   20.3320 N   0  0  0  0  0  0
  -25.9314  -11.6509   20.5749 N   0  0  0  0  0  0
  -22.0467  -12.8293   22.0392 N   0  0  0  0  0  0
  -25.4329  -15.1893   20.4107 N   0  0  0  0  0  0
  -31.7602  -14.8122   20.0626 O   0  0  0  0  0  0
  -21.6641   -6.8871   21.4233 O   0  0  0  0  0  0
  -22.3552  -14.5544   20.6624 O   0  0  0  0  0  0
  -24.6249  -31.8598   23.2017 C   0  0  0  0  0  0
  -25.9083  -32.4793   23.8352 C   0  0  1  0  0  0
  -27.2230  -27.3229   20.1102 C   0  0  0  0  0  0
  -25.5869  -33.8591   24.2249 N   0  0  0  0  0  0
  -23.4199  -30.4835   21.5458 C   0  0  2  0  0  0
  -24.8647  -28.9397   20.1122 C   0  0  0  0  0  0
  -22.7471  -29.4613   22.4932 C   0  0  0  0  0  0
  -18.0278  -28.1413   22.8485 C   0  0  0  0  0  0
  -24.1483  -36.7334   23.2634 C   0  0  0  0  0  0
  -25.9621  -30.7898   21.3752 C   0  0  0  0  0  0
  -26.0350  -29.4190   20.7138 C   0  0  0  0  0  0
  -27.2167  -28.6220   20.7022 C   0  0  0  0  0  0
  -26.0260  -26.8941   19.4872 C   0  0  0  0  0  0
  -24.8613  -27.6825   19.4909 C   0  0  0  0  0  0
  -23.6340  -29.8191   20.1619 C   0  0  0  0  0  0
  -25.4110  -36.3087   24.0309 C   0  0  1  0  0  0
  -20.5885  -28.3699   23.1290 C   0  0  2  0  0  0
  -20.6766  -26.9422   22.5420 C   0  0  0  0  0  0
  -19.5738  -26.6397   21.5223 C   0  0  0  0  0  0
  -18.1919  -26.7957   22.1631 C   0  0  0  0  0  0
  -19.1538  -28.8874   23.2880 C   0  0  0  0  0  0
  -18.9460  -30.1478   23.8899 C   0  0  0  0  0  0
  -17.6456  -30.6606   24.0578 C   0  0  0  0  0  0
  -25.9044  -34.9460   23.5091 C   0  0  0  0  0  0
  -16.5346  -29.9112   23.6341 C   0  0  0  0  0  0
  -16.7261  -28.6536   23.0342 C   0  0  0  0  0  0
  -26.4427  -31.6620   25.0751 C   0  0  0  0  0  0
  -25.3611  -31.3827   26.1452 C   0  0  0  0  0  0
  -27.0226  -30.3000   24.6255 C   0  0  0  0  0  0
  -27.5988  -32.4359   25.7531 C   0  0  0  0  0  0
  -27.5584  -37.1825   24.8436 C   0  0  0  0  0  0
  -21.4185  -29.3044   22.3688 N   0  0  0  0  0  0
  -26.4285  -37.3781   23.9394 N   0  0  0  0  0  0
  -24.6881  -31.0607   22.0976 N   0  0  0  0  0  0
  -23.4205  -28.8146   23.2991 O   0  0  0  0  0  0
  -28.3474  -26.4829   20.1580 O   0  0  0  0  0  0
  -26.5654  -34.8918   22.4682 O   0  0  0  0  0  0
  -23.5415  -32.1397   23.7339 O   0  0  0  0  0  0
  -30.1004  -17.7225   19.5285 C   0  0  0  0  0  0
  -29.7625  -19.3844   21.7499 C   0  0  0  0  0  0
  -30.0859  -19.1453   19.3710 C   0  0  0  0  0  0
  -29.9459  -20.0200   20.4934 C   0  0  0  0  0  0
  -29.9460  -17.0981   20.7955 C   0  0  0  0  0  0
  -29.7392  -17.9685   21.8982 C   0  0  0  0  0  0
  -30.2531  -19.7109   17.9694 C   0  0  0  0  0  0
  -29.7481  -24.3591   21.9161 C   0  0  0  0  0  0
  -30.1759  -21.5792   20.4183 C   0  0  0  0  0  0
  -28.1274  -25.0206   20.0573 C   0  0  0  0  0  0
  -29.3056  -24.0332   20.4737 C   0  0  2  0  0  0
  -29.8524  -15.6513   20.9760 N   0  0  0  0  0  0
  -29.0062  -22.5369   20.3202 N   0  3  0  0  0  0
  -29.4711  -17.3066   23.4717 Cl  0  0  0  0  0  0
  -31.4839  -12.5049   19.1592 H   0  0  0  0  0  0
  -30.3728  -11.3851   19.8978 H   0  0  0  0  0  0
  -29.7788  -11.7487   17.4878 H   0  0  0  0  0  0
  -29.6622  -13.4711   17.7499 H   0  0  0  0  0  0
  -27.8607  -11.2948   18.8576 H   0  0  0  0  0  0
  -27.3861  -12.5877   17.7900 H   0  0  0  0  0  0
  -27.6816  -14.2519   19.5313 H   0  0  0  0  0  0
  -28.7097  -12.0267   21.3647 H   0  0  0  0  0  0
  -28.4405  -13.6722   21.8574 H   0  0  0  0  0  0
  -25.2737   -9.5713   22.4744 H   0  0  0  0  0  0
  -23.9990   -7.4659   22.7465 H   0  0  0  0  0  0
  -21.0816   -8.8772   19.8967 H   0  0  0  0  0  0
  -22.3652  -10.9670   19.6162 H   0  0  0  0  0  0
  -21.2023   -7.6137   23.9711 H   0  0  0  0  0  0
  -21.1487   -6.0508   25.9075 H   0  0  0  0  0  0
  -22.0594   -2.7592   23.2837 H   0  0  0  0  0  0
  -22.4054  -11.9996   22.4876 H   0  0  0  0  0  0
  -21.1075  -13.1352   22.2523 H   0  0  0  0  0  0
  -24.6715  -15.8496   20.5207 H   0  0  0  0  0  0
  -26.2869  -15.6216   20.0805 H   0  0  0  0  0  0
  -26.7174  -32.5446   23.1125 H   0  0  0  0  0  0
  -24.9888  -33.9729   25.0302 H   0  0  0  0  0  0
  -22.7133  -31.3037   21.4047 H   0  0  0  0  0  0
  -23.3719  -35.9685   23.3280 H   0  0  0  0  0  0
  -24.3553  -36.8987   22.2047 H   0  0  0  0  0  0
  -23.7276  -37.6541   23.6694 H   0  0  0  0  0  0
  -26.0982  -31.5532   20.6086 H   0  0  0  0  0  0
  -26.8419  -30.8347   22.0076 H   0  0  0  0  0  0
  -28.1174  -28.9820   21.1803 H   0  0  0  0  0  0
  -25.9580  -25.9363   18.9938 H   0  0  0  0  0  0
  -23.9621  -27.3142   19.0169 H   0  0  0  0  0  0
  -23.7542  -30.5939   19.4039 H   0  0  0  0  0  0
  -22.7555  -29.2461   19.8622 H   0  0  0  0  0  0
  -25.1308  -36.1920   25.0801 H   0  0  0  0  0  0
  -20.9979  -28.3278   24.1410 H   0  0  0  0  0  0
  -20.5668  -26.2307   23.3619 H   0  0  0  0  0  0
  -21.6635  -26.7451   22.1221 H   0  0  0  0  0  0
  -19.6879  -25.6301   21.1270 H   0  0  0  0  0  0
  -19.6687  -27.3201   20.6755 H   0  0  0  0  0  0
  -17.4192  -26.6697   21.4031 H   0  0  0  0  0  0
  -18.0305  -26.0117   22.9051 H   0  0  0  0  0  0
  -19.7930  -30.7299   24.2268 H   0  0  0  0  0  0
  -17.5009  -31.6280   24.5189 H   0  0  0  0  0  0
  -15.5349  -30.3011   23.7668 H   0  0  0  0  0  0
  -15.8664  -28.0865   22.7041 H   0  0  0  0  0  0
  -24.5744  -30.7227   25.7780 H   0  0  0  0  0  0
  -24.8838  -32.3027   26.4845 H   0  0  0  0  0  0
  -25.7863  -30.9014   27.0261 H   0  0  0  0  0  0
  -26.2827  -29.6818   24.1155 H   0  0  0  0  0  0
  -27.3706  -29.7207   25.4818 H   0  0  0  0  0  0
  -27.8785  -30.4227   23.9619 H   0  0  0  0  0  0
  -27.2568  -33.3621   26.2164 H   0  0  0  0  0  0
  -28.3753  -32.6991   25.0345 H   0  0  0  0  0  0
  -28.0697  -31.8471   26.5402 H   0  0  0  0  0  0
  -28.2587  -38.0143   24.7492 H   0  0  0  0  0  0
  -28.1099  -36.2671   24.6239 H   0  0  0  0  0  0
  -27.2305  -37.1455   25.8839 H   0  0  0  0  0  0
  -20.9363  -29.8781   21.6924 H   0  0  0  0  0  0
  -26.0151  -38.2839   24.1413 H   0  0  0  0  0  0
  -30.2122  -17.0976   18.6520 H   0  0  0  0  0  0
  -29.6649  -19.9916   22.6389 H   0  0  0  0  0  0
  -29.9954  -18.9688   17.2137 H   0  0  0  0  0  0
  -31.2844  -20.0204   17.7939 H   0  0  0  0  0  0
  -29.5986  -20.5662   17.8044 H   0  0  0  0  0  0
  -29.9462  -25.4263   22.0300 H   0  0  0  0  0  0
  -30.6671  -23.8480   22.1999 H   0  0  0  0  0  0
  -28.9780  -24.0894   22.6411 H   0  0  0  0  0  0
  -30.8565  -21.7960   19.5942 H   0  0  0  0  0  0
  -30.7495  -21.8306   21.3088 H   0  0  0  0  0  0
  -27.2622  -24.7708   20.6736 H   0  0  0  0  0  0
  -27.8489  -24.7878   19.0289 H   0  0  0  0  0  0
  -30.1409  -24.2608   19.8102 H   0  0  0  0  0  0
  -29.0522  -15.3488   21.5115 H   0  0  0  0  0  0
  -28.3225  -22.2600   21.0073 H   0  0  0  0  0  0
  -28.5886  -22.3807   19.4153 H   0  0  0  0  0  0
  1 25  1  0  0  0
  1 30  2  0  0  0
  1 82  1  0  0  0
  2  3  1  0  0  0
  2 25  1  0  0  0
  2 85  1  0  0  0
  2 86  1  0  0  0
  3  4  1  0  0  0
  3 87  1  0  0  0
  3 88  1  0  0  0
  4  5  1  0  0  0
  4 89  1  0  0  0
  4 90  1  0  0  0
  5  6  1  0  0  0
  5 26  1  0  0  0
  5 91  1  0  0  0
  6 25  1  0  0  0
  6 92  1  0  0  0
  6 93  1  0  0  0
  7  8  2  0  0  0
  7 26  1  0  0  0
  7 29  1  0  0  0
  8  9  1  0  0  0
  8 22  1  0  0  0
  9 10  1  0  0  0
  9 27  2  0  0  0
 10 11  2  0  0  0
 10 15  1  0  0  0
 11 12  1  0  0  0
 11 94  1  0  0  0
 12 13  2  0  0  0
 12 95  1  0  0  0
 13 14  1  0  0  0
 13 31  1  0  0  0
 14 15  2  0  0  0
 14 96  1  0  0  0
 15 97  1  0  0  0
 16 17  2  0  0  0
 16 21  1  0  0  0
 16 31  1  0  0  0
 17 18  1  0  0  0
 17 98  1  0  0  0
 18 19  2  0  0  0
 18 99  1  0  0  0
 19 20  1  0  0  0
 19 24  1  0  0  0
 20 21  2  0  0  0
 20100  1  0  0  0
 21 23  1  0  0  0
 22 28  1  0  0  0
 22 32  2  0  0  0
 26 27  1  0  0  0
 28101  1  0  0  0
 28102  1  0  0  0
 29103  1  0  0  0
 29104  1  0  0  0
 33 34  1  0  0  0
 33 66  1  0  0  0
 33 70  2  0  0  0
 34 36  1  0  0  0
 34 59  1  0  0  0
 34105  1  0  0  0
 35 44  2  0  0  0
 35 45  1  0  0  0
 35 68  1  0  0  0
 36 56  1  0  0  0
 36106  1  0  0  0
 37 39  1  0  0  0
 37 47  1  0  0  0
 37 66  1  0  0  0
 37107  1  0  0  0
 38 43  2  0  0  0
 38 46  1  0  0  0
 38 47  1  0  0  0
 39 64  1  0  0  0
 39 67  2  0  0  0
 40 52  1  0  0  0
 40 53  2  0  0  0
 40 58  1  0  0  0
 41108  1  0  0  0
 41109  1  0  0  0
 41110  1  0  0  0
 41 48  1  0  0  0
 42 43  1  0  0  0
 42 66  1  0  0  0
 42111  1  0  0  0
 42112  1  0  0  0
 43 44  1  0  0  0
 44113  1  0  0  0
 45 46  2  0  0  0
 45114  1  0  0  0
 46115  1  0  0  0
 47116  1  0  0  0
 47117  1  0  0  0
 48 56  1  0  0  0
 48 65  1  0  0  0
 48118  1  0  0  0
 49 50  1  0  0  0
 49 53  1  0  0  0
 49 64  1  0  0  0
 49119  1  0  0  0
 50 51  1  0  0  0
 50120  1  0  0  0
 50121  1  0  0  0
 51 52  1  0  0  0
 51122  1  0  0  0
 51123  1  0  0  0
 52124  1  0  0  0
 52125  1  0  0  0
 53 54  1  0  0  0
 54 55  2  0  0  0
 54126  1  0  0  0
 55 57  1  0  0  0
 55127  1  0  0  0
 56 69  2  0  0  0
 57 58  2  0  0  0
 57128  1  0  0  0
 58129  1  0  0  0
 59 60  1  0  0  0
 59 61  1  0  0  0
 59 62  1  0  0  0
 60130  1  0  0  0
 60131  1  0  0  0
 60132  1  0  0  0
 61133  1  0  0  0
 61134  1  0  0  0
 61135  1  0  0  0
 62136  1  0  0  0
 62137  1  0  0  0
 62138  1  0  0  0
 63 65  1  0  0  0
 63139  1  0  0  0
 63140  1  0  0  0
 63141  1  0  0  0
 64142  1  0  0  0
 65143  1  0  0  0
 68 80  1  0  0  0
 71 73  2  0  0  0
 71 75  1  0  0  0
 71144  1  0  0  0
 72 74  2  0  0  0
 72 76  1  0  0  0
 72145  1  0  0  0
 73 74  1  0  0  0
 73 77  1  0  0  0
 74 79  1  0  0  0
 75 76  2  0  0  0
 75 82  1  0  0  0
 76 84  1  0  0  0
 77146  1  0  0  0
 77147  1  0  0  0
 77148  1  0  0  0
 78149  1  0  0  0
 78150  1  0  0  0
 78151  1  0  0  0
 78 81  1  0  0  0
 79 83  1  0  0  0
 79152  1  0  0  0
 79153  1  0  0  0
 80 81  1  0  0  0
 80154  1  0  0  0
 80155  1  0  0  0
 81 83  1  0  0  0
 81156  1  0  0  0
 82157  1  0  0  0
 83158  1  0  0  0
 83159  1  0  0  0
M  CHG  1  83   1
M  ISO  4   1 100  68 101  80 101  82 100
M  END
> <chiral flag>
0

> <version>
0

> <s_m_source_file>
/data/baiqing/PycharmProjects/Reinvent-master-3.2/result/LINK_invent/BTK/process_docking_weight1_custom_sum_contain_oxygen_bond_distance_aromatic_linkinvent_7_9_3/rearranged_h_0022.sdf

> <i_m_source_file_index>
85

> <r_mmod_Potential_Energy-OPLS-2005>
-112.50358581543

> <r_mmod_Stretch_Energy-OPLS-2005>
77.9000549316406

> <r_mmod_Bend_Energy-OPLS-2005>
129.191146850586

> <r_mmod_Torsional_Energy-OPLS-2005>
227.057220458984

> <r_mmod_Improper_Torsional_Energy-OPLS-2005>
4.25880002975464

> <r_mmod_Van_der_Waal_Energy-OPLS-2005>
141.803924560547

> <r_mmod_Electrostatic_Energy-OPLS-2005>
-276.781036376953

> <r_mmod_Solvation_Energy-OPLS-2005>
-461.811157226562

> <b_mmod_Minimization_Converged-OPLS-2005>
0

> <r_mmod_RMS_Derivative-OPLS-2005>
2.44470834732056

$$$$
85
                    3D
 Structure written by MMmdl.
168176  0  0  1  0            999 V2000
  -30.7484  -14.4458   20.5689 C   0  0  0  0  0  0
  -30.4163  -12.2977   19.4206 C   0  0  0  0  0  0
  -29.4899  -12.5035   18.2061 C   0  0  0  0  0  0
  -28.0131  -12.3716   18.6225 C   0  0  0  0  0  0
  -27.6633  -13.2147   19.8775 C   0  0  2  0  0  0
  -28.7105  -13.0076   20.9974 C   0  0  0  0  0  0
  -25.2578  -13.8184   20.5677 C   0  0  0  0  0  0
  -24.1837  -13.0445   20.9176 C   0  0  0  0  0  0
  -24.6413  -11.6919   20.8758 C   0  0  0  0  0  0
  -23.9090  -10.4291   21.0424 C   0  0  0  0  0  0
  -24.3631   -9.4199   21.9201 C   0  0  0  0  0  0
  -23.6293   -8.2241   22.0767 C   0  0  0  0  0  0
  -22.4275   -8.0284   21.3552 C   0  0  0  0  0  0
  -21.9914   -9.0273   20.4664 C   0  0  0  0  0  0
  -22.7262  -10.2143   20.3079 C   0  0  0  0  0  0
  -21.6846   -6.0731   22.5280 C   0  0  0  0  0  0
  -21.4012   -6.5633   23.8218 C   0  0  0  0  0  0
  -21.3664   -5.6785   24.9178 C   0  0  0  0  0  0
  -21.6044   -4.3050   24.7224 C   0  0  0  0  0  0
  -21.8826   -3.8140   23.4348 C   0  0  0  0  0  0
  -21.9191   -4.6954   22.3402 C   0  0  0  0  0  0
  -22.7856  -13.5239   21.1824 C   0  0  0  0  0  0
  -22.1655   -4.2136   21.0981 F   0  0  0  0  0  0
  -21.5634   -3.4543   25.7745 F   0  0  0  0  0  0
  -30.0440  -13.2898   20.4400 N   0  0  0  0  0  0
  -26.3038  -12.9380   20.3399 N   0  0  0  0  0  0
  -25.9355  -11.6533   20.5825 N   0  0  0  0  0  0
  -22.0476  -12.8259   22.0382 N   0  0  0  0  0  0
  -25.4264  -15.1906   20.4070 N   0  0  0  0  0  0
  -31.8668  -14.5967   20.0686 O   0  0  0  0  0  0
  -21.6644   -6.8874   21.4242 O   0  0  0  0  0  0
  -22.3550  -14.5538   20.6654 O   0  0  0  0  0  0
  -24.6136  -31.8704   23.2115 C   0  0  0  0  0  0
  -25.9036  -32.4831   23.8414 C   0  0  1  0  0  0
  -27.2254  -27.4360   20.0990 C   0  0  0  0  0  0
  -25.5895  -33.8625   24.2357 N   0  0  0  0  0  0
  -23.4004  -30.4968   21.5532 C   0  0  2  0  0  0
  -24.8447  -28.9699   20.1077 C   0  0  0  0  0  0
  -22.7408  -29.4677   22.4994 C   0  0  0  0  0  0
  -18.0277  -28.1366   22.8505 C   0  0  0  0  0  0
  -24.1479  -36.7310   23.2640 C   0  0  0  0  0  0
  -25.9301  -30.8380   21.3614 C   0  0  0  0  0  0
  -26.0061  -29.4732   20.7084 C   0  0  0  0  0  0
  -27.2009  -28.7164   20.6994 C   0  0  0  0  0  0
  -26.0503  -26.9637   19.4662 C   0  0  0  0  0  0
  -24.8630  -27.7149   19.4791 C   0  0  0  0  0  0
  -23.6058  -29.8343   20.1649 C   0  0  0  0  0  0
  -25.4100  -36.3122   24.0349 C   0  0  1  0  0  0
  -20.5873  -28.3650   23.1312 C   0  0  2  0  0  0
  -20.6764  -26.9386   22.5410 C   0  0  0  0  0  0
  -19.5739  -26.6383   21.5211 C   0  0  0  0  0  0
  -18.1917  -26.7920   22.1625 C   0  0  0  0  0  0
  -19.1529  -28.8827   23.2910 C   0  0  0  0  0  0
  -18.9457  -30.1434   23.8912 C   0  0  0  0  0  0
  -17.6462  -30.6577   24.0565 C   0  0  0  0  0  0
  -25.9026  -34.9482   23.5155 C   0  0  0  0  0  0
  -16.5348  -29.9082   23.6314 C   0  0  0  0  0  0
  -16.7267  -28.6500   23.0346 C   0  0  0  0  0  0
  -26.4469  -31.6584   25.0726 C   0  0  0  0  0  0
  -25.3753  -31.3659   26.1487 C   0  0  0  0  0  0
  -27.0292  -30.3044   24.6052 C   0  0  0  0  0  0
  -27.6073  -32.4275   25.7475 C   0  0  0  0  0  0
  -27.5571  -37.1806   24.8475 C   0  0  0  0  0  0
  -21.4141  -29.3033   22.3738 N   0  0  0  0  0  0
  -26.4282  -37.3800   23.9418 N   0  0  0  0  0  0
  -24.6672  -31.0818   22.0999 N   0  0  0  0  0  0
  -23.4199  -28.8204   23.3016 O   0  0  0  0  0  0
  -28.3735  -26.6672   20.1567 O   0  0  0  0  0  0
  -26.5583  -34.8927   22.4711 O   0  0  0  0  0  0
  -23.5330  -32.1450   23.7509 O   0  0  0  0  0  0
  -31.5772  -17.3799   21.5759 C   0  0  0  0  0  0
  -31.6230  -18.6767   20.9864 C   0  0  0  0  0  0
  -30.5061  -16.7599   21.0009 C   0  0  0  0  0  0
  -28.4649  -23.2338   21.7827 C   0  0  0  0  0  0
  -29.2483  -25.4813   22.5960 C   0  0  0  0  0  0
  -28.7863  -17.5124   19.2484 C   0  0  0  0  0  0
  -32.6943  -19.7368   21.1165 C   0  0  0  0  0  0
  -32.2600  -21.0616   21.7788 C   0  0  0  0  0  0
  -31.4771  -22.0296   20.8673 C   0  0  0  0  0  0
  -31.4138  -23.4679   21.4379 C   0  0  0  0  0  0
  -28.1589  -25.2495   20.3219 C   0  0  0  0  0  0
  -29.1158  -24.5745   21.3486 C   0  0  0  0  0  0
  -30.6039  -18.8423   20.1401 N   0  0  0  0  0  0
  -29.9176  -17.6676   20.1408 N   0  0  0  0  0  0
  -30.1138  -15.4693   21.1608 N   0  0  0  0  0  0
  -30.4512  -24.3409   20.7152 N   0  3  0  0  0  0
  -32.7035  -16.7047   22.6999 Cl  0  0  0  0  0  0
  -31.4598  -12.3778   19.1130 H   0  0  0  0  0  0
  -30.3075  -11.2903   19.8236 H   0  0  0  0  0  0
  -29.7237  -11.7762   17.4273 H   0  0  0  0  0  0
  -29.6642  -13.4886   17.7709 H   0  0  0  0  0  0
  -27.8196  -11.3179   18.8228 H   0  0  0  0  0  0
  -27.3638  -12.6466   17.7905 H   0  0  0  0  0  0
  -27.7012  -14.2611   19.5764 H   0  0  0  0  0  0
  -28.6805  -11.9783   21.3573 H   0  0  0  0  0  0
  -28.4842  -13.6283   21.8646 H   0  0  0  0  0  0
  -25.2776   -9.5659   22.4782 H   0  0  0  0  0  0
  -23.9984   -7.4633   22.7505 H   0  0  0  0  0  0
  -21.0830   -8.8814   19.8984 H   0  0  0  0  0  0
  -22.3732  -10.9686   19.6187 H   0  0  0  0  0  0
  -21.2005   -7.6145   23.9711 H   0  0  0  0  0  0
  -21.1479   -6.0522   25.9078 H   0  0  0  0  0  0
  -22.0600   -2.7600   23.2866 H   0  0  0  0  0  0
  -22.4059  -11.9933   22.4812 H   0  0  0  0  0  0
  -21.1112  -13.1341   22.2588 H   0  0  0  0  0  0
  -24.6569  -15.8429   20.5153 H   0  0  0  0  0  0
  -26.2794  -15.6330   20.0902 H   0  0  0  0  0  0
  -26.7112  -32.5553   23.1183 H   0  0  0  0  0  0
  -25.0085  -33.9796   25.0531 H   0  0  0  0  0  0
  -22.6887  -31.3148   21.4180 H   0  0  0  0  0  0
  -23.3736  -35.9648   23.3319 H   0  0  0  0  0  0
  -24.3582  -36.8896   22.2051 H   0  0  0  0  0  0
  -23.7226  -37.6521   23.6634 H   0  0  0  0  0  0
  -26.0356  -31.6010   20.5892 H   0  0  0  0  0  0
  -26.8226  -30.8968   21.9726 H   0  0  0  0  0  0
  -28.0940  -29.0988   21.1734 H   0  0  0  0  0  0
  -26.0340  -26.0079   18.9635 H   0  0  0  0  0  0
  -23.9738  -27.3271   18.9992 H   0  0  0  0  0  0
  -23.7091  -30.6143   19.4095 H   0  0  0  0  0  0
  -22.7298  -29.2547   19.8683 H   0  0  0  0  0  0
  -25.1263  -36.1993   25.0840 H   0  0  0  0  0  0
  -20.9971  -28.3206   24.1429 H   0  0  0  0  0  0
  -20.5644  -26.2264   23.3598 H   0  0  0  0  0  0
  -21.6635  -26.7417   22.1206 H   0  0  0  0  0  0
  -19.6890  -25.6306   21.1208 H   0  0  0  0  0  0
  -19.6660  -27.3222   20.6768 H   0  0  0  0  0  0
  -17.4182  -26.6680   21.4024 H   0  0  0  0  0  0
  -18.0310  -26.0056   22.9016 H   0  0  0  0  0  0
  -19.7941  -30.7253   24.2276 H   0  0  0  0  0  0
  -17.5019  -31.6259   24.5169 H   0  0  0  0  0  0
  -15.5347  -30.2987   23.7635 H   0  0  0  0  0  0
  -15.8676  -28.0822   22.7038 H   0  0  0  0  0  0
  -24.5960  -30.6956   25.7837 H   0  0  0  0  0  0
  -24.8896  -32.2794   26.4938 H   0  0  0  0  0  0
  -25.8139  -30.8848   27.0245 H   0  0  0  0  0  0
  -26.2820  -29.6807   24.1134 H   0  0  0  0  0  0
  -27.4133  -29.7258   25.4462 H   0  0  0  0  0  0
  -27.8622  -30.4388   23.9150 H   0  0  0  0  0  0
  -27.2739  -33.3581   26.2080 H   0  0  0  0  0  0
  -28.3873  -32.6812   25.0282 H   0  0  0  0  0  0
  -28.0761  -31.8367   26.5359 H   0  0  0  0  0  0
  -28.2611  -38.0084   24.7516 H   0  0  0  0  0  0
  -28.1042  -36.2613   24.6307 H   0  0  0  0  0  0
  -27.2293  -37.1474   25.8882 H   0  0  0  0  0  0
  -20.9280  -29.8780   21.6987 H   0  0  0  0  0  0
  -26.0171  -38.2878   24.1430 H   0  0  0  0  0  0
  -27.4822  -23.3974   22.2274 H   0  0  0  0  0  0
  -29.0445  -22.6998   22.5349 H   0  0  0  0  0  0
  -28.3214  -22.5608   20.9368 H   0  0  0  0  0  0
  -28.2675  -25.6982   23.0233 H   0  0  0  0  0  0
  -29.7064  -26.4417   22.3536 H   0  0  0  0  0  0
  -29.8439  -25.0283   23.3887 H   0  0  0  0  0  0
  -28.5711  -16.4566   19.0870 H   0  0  0  0  0  0
  -29.0169  -17.9621   18.2817 H   0  0  0  0  0  0
  -27.9077  -17.9998   19.6723 H   0  0  0  0  0  0
  -33.1345  -19.9412   20.1407 H   0  0  0  0  0  0
  -33.5145  -19.3272   21.7073 H   0  0  0  0  0  0
  -33.1728  -21.5720   22.0897 H   0  0  0  0  0  0
  -31.7026  -20.8608   22.6950 H   0  0  0  0  0  0
  -30.4769  -21.6280   20.7181 H   0  0  0  0  0  0
  -31.9409  -22.0626   19.8795 H   0  0  0  0  0  0
  -31.2096  -23.4528   22.5074 H   0  0  0  0  0  0
  -32.4023  -23.9186   21.3421 H   0  0  0  0  0  0
  -27.1487  -25.0652   20.6928 H   0  0  0  0  0  0
  -28.2119  -24.7560   19.3513 H   0  0  0  0  0  0
  -29.1668  -15.3093   21.4611 H   0  0  0  0  0  0
  -30.3373  -23.9604   19.7874 H   0  0  0  0  0  0
  -30.8900  -25.2411   20.5880 H   0  0  0  0  0  0
  1 25  1  0  0  0
  1 30  2  0  0  0
  1 85  1  0  0  0
  2  3  1  0  0  0
  2 25  1  0  0  0
  2 88  1  0  0  0
  2 89  1  0  0  0
  3  4  1  0  0  0
  3 90  1  0  0  0
  3 91  1  0  0  0
  4  5  1  0  0  0
  4 92  1  0  0  0
  4 93  1  0  0  0
  5  6  1  0  0  0
  5 26  1  0  0  0
  5 94  1  0  0  0
  6 25  1  0  0  0
  6 95  1  0  0  0
  6 96  1  0  0  0
  7  8  2  0  0  0
  7 26  1  0  0  0
  7 29  1  0  0  0
  8  9  1  0  0  0
  8 22  1  0  0  0
  9 10  1  0  0  0
  9 27  2  0  0  0
 10 11  2  0  0  0
 10 15  1  0  0  0
 11 12  1  0  0  0
 11 97  1  0  0  0
 12 13  2  0  0  0
 12 98  1  0  0  0
 13 14  1  0  0  0
 13 31  1  0  0  0
 14 15  2  0  0  0
 14 99  1  0  0  0
 15100  1  0  0  0
 16 17  2  0  0  0
 16 21  1  0  0  0
 16 31  1  0  0  0
 17 18  1  0  0  0
 17101  1  0  0  0
 18 19  2  0  0  0
 18102  1  0  0  0
 19 20  1  0  0  0
 19 24  1  0  0  0
 20 21  2  0  0  0
 20103  1  0  0  0
 21 23  1  0  0  0
 22 28  1  0  0  0
 22 32  2  0  0  0
 26 27  1  0  0  0
 28104  1  0  0  0
 28105  1  0  0  0
 29106  1  0  0  0
 29107  1  0  0  0
 33 34  1  0  0  0
 33 66  1  0  0  0
 33 70  2  0  0  0
 34 36  1  0  0  0
 34 59  1  0  0  0
 34108  1  0  0  0
 35 44  2  0  0  0
 35 45  1  0  0  0
 35 68  1  0  0  0
 36 56  1  0  0  0
 36109  1  0  0  0
 37 39  1  0  0  0
 37 47  1  0  0  0
 37 66  1  0  0  0
 37110  1  0  0  0
 38 43  2  0  0  0
 38 46  1  0  0  0
 38 47  1  0  0  0
 39 64  1  0  0  0
 39 67  2  0  0  0
 40 52  1  0  0  0
 40 53  2  0  0  0
 40 58  1  0  0  0
 41111  1  0  0  0
 41112  1  0  0  0
 41113  1  0  0  0
 41 48  1  0  0  0
 42 43  1  0  0  0
 42 66  1  0  0  0
 42114  1  0  0  0
 42115  1  0  0  0
 43 44  1  0  0  0
 44116  1  0  0  0
 45 46  2  0  0  0
 45117  1  0  0  0
 46118  1  0  0  0
 47119  1  0  0  0
 47120  1  0  0  0
 48 56  1  0  0  0
 48 65  1  0  0  0
 48121  1  0  0  0
 49 50  1  0  0  0
 49 53  1  0  0  0
 49 64  1  0  0  0
 49122  1  0  0  0
 50 51  1  0  0  0
 50123  1  0  0  0
 50124  1  0  0  0
 51 52  1  0  0  0
 51125  1  0  0  0
 51126  1  0  0  0
 52127  1  0  0  0
 52128  1  0  0  0
 53 54  1  0  0  0
 54 55  2  0  0  0
 54129  1  0  0  0
 55 57  1  0  0  0
 55130  1  0  0  0
 56 69  2  0  0  0
 57 58  2  0  0  0
 57131  1  0  0  0
 58132  1  0  0  0
 59 60  1  0  0  0
 59 61  1  0  0  0
 59 62  1  0  0  0
 60133  1  0  0  0
 60134  1  0  0  0
 60135  1  0  0  0
 61136  1  0  0  0
 61137  1  0  0  0
 61138  1  0  0  0
 62139  1  0  0  0
 62140  1  0  0  0
 62141  1  0  0  0
 63 65  1  0  0  0
 63142  1  0  0  0
 63143  1  0  0  0
 63144  1  0  0  0
 64145  1  0  0  0
 65146  1  0  0  0
 68 81  1  0  0  0
 71 72  1  0  0  0
 71 73  2  0  0  0
 71 87  1  0  0  0
 72 77  1  0  0  0
 72 83  2  0  0  0
 73 84  1  0  0  0
 73 85  1  0  0  0
 74147  1  0  0  0
 74148  1  0  0  0
 74149  1  0  0  0
 74 82  1  0  0  0
 75 82  1  0  0  0
 75150  1  0  0  0
 75151  1  0  0  0
 75152  1  0  0  0
 76 84  1  0  0  0
 76153  1  0  0  0
 76154  1  0  0  0
 76155  1  0  0  0
 77 78  1  0  0  0
 77156  1  0  0  0
 77157  1  0  0  0
 78 79  1  0  0  0
 78158  1  0  0  0
 78159  1  0  0  0
 79 80  1  0  0  0
 79160  1  0  0  0
 79161  1  0  0  0
 80 86  1  0  0  0
 80162  1  0  0  0
 80163  1  0  0  0
 81 82  1  0  0  0
 81164  1  0  0  0
 81165  1  0  0  0
 82 86  1  0  0  0
 83 84  1  0  0  0
 85166  1  0  0  0
 86167  1  0  0  0
 86168  1  0  0  0
M  CHG  1  86   1
M  ISO  4   1 100  68 101  81 101  85 100
M  END
> <chiral flag>
0

> <version>
0

> <s_m_source_file>
/data/baiqing/PycharmProjects/Reinvent-master-3.2/result/LINK_invent/BTK/process_docking_weight1_custom_sum_contain_oxygen_bond_distance_aromatic_linkinvent_7_9_3/rearranged_h_0022.sdf

> <i_m_source_file_index>
86

> <r_mmod_Potential_Energy-OPLS-2005>
-172.703628540039

> <r_mmod_Stretch_Energy-OPLS-2005>
37.0713806152344

> <r_mmod_Bend_Energy-OPLS-2005>
122.416564941406

> <r_mmod_Torsional_Energy-OPLS-2005>
259.008728027344

> <r_mmod_Improper_Torsional_Energy-OPLS-2005>
4.65200042724609

> <r_mmod_Van_der_Waal_Energy-OPLS-2005>
130.777191162109

> <r_mmod_Electrostatic_Energy-OPLS-2005>
-306.003204345703

> <r_mmod_Solvation_Energy-OPLS-2005>
-435.013092041016

> <b_mmod_Minimization_Converged-OPLS-2005>
0

> <r_mmod_RMS_Derivative-OPLS-2005>
2.33139657974243

$$$$
86
                    3D
 Structure written by MMmdl.
150158  0  0  1  0            999 V2000
  -30.4381  -15.1992   20.3819 C   0  0  0  0  0  0
  -30.4501  -12.7597   19.5266 C   0  0  0  0  0  0
  -29.5428  -12.5782   18.2839 C   0  0  0  0  0  0
  -28.0912  -12.2932   18.7131 C   0  0  0  0  0  0
  -27.6193  -13.2609   19.8269 C   0  0  2  0  0  0
  -28.6528  -13.4000   20.9654 C   0  0  0  0  0  0
  -25.2391  -13.8140   20.5694 C   0  0  0  0  0  0
  -24.1739  -13.0379   20.9252 C   0  0  0  0  0  0
  -24.6389  -11.6879   20.8754 C   0  0  0  0  0  0
  -23.9062  -10.4264   21.0411 C   0  0  0  0  0  0
  -24.3618   -9.4188   21.9185 C   0  0  0  0  0  0
  -23.6296   -8.2224   22.0750 C   0  0  0  0  0  0
  -22.4277   -8.0274   21.3544 C   0  0  0  0  0  0
  -21.9909   -9.0246   20.4651 C   0  0  0  0  0  0
  -22.7233  -10.2121   20.3065 C   0  0  0  0  0  0
  -21.6847   -6.0734   22.5284 C   0  0  0  0  0  0
  -21.4016   -6.5639   23.8220 C   0  0  0  0  0  0
  -21.3656   -5.6786   24.9179 C   0  0  0  0  0  0
  -21.6044   -4.3053   24.7222 C   0  0  0  0  0  0
  -21.8809   -3.8148   23.4343 C   0  0  0  0  0  0
  -21.9187   -4.6963   22.3403 C   0  0  0  0  0  0
  -22.7766  -13.5183   21.1892 C   0  0  0  0  0  0
  -22.1658   -4.2155   21.0976 F   0  0  0  0  0  0
  -21.5626   -3.4533   25.7732 F   0  0  0  0  0  0
  -29.9008  -13.8864   20.3548 N   0  0  0  0  0  0
  -26.2840  -12.9422   20.3200 N   0  0  0  0  0  0
  -25.9328  -11.6539   20.5703 N   0  0  0  0  0  0
  -22.0401  -12.8210   22.0458 N   0  0  0  0  0  0
  -25.3942  -15.1831   20.4008 N   0  0  0  0  0  0
  -31.6540  -15.2543   20.1509 O   0  0  0  0  0  0
  -21.6635   -6.8880   21.4252 O   0  0  0  0  0  0
  -22.3468  -14.5488   20.6709 O   0  0  0  0  0  0
  -24.6587  -31.8291   23.1729 C   0  0  0  0  0  0
  -25.9287  -32.4617   23.8187 C   0  0  1  0  0  0
  -27.2292  -26.9861   20.1727 C   0  0  0  0  0  0
  -25.5980  -33.8425   24.2103 N   0  0  0  0  0  0
  -23.4708  -30.4408   21.5228 C   0  0  2  0  0  0
  -24.9250  -28.8367   20.1109 C   0  0  0  0  0  0
  -22.7655  -29.4458   22.4809 C   0  0  0  0  0  0
  -18.0320  -28.1399   22.8473 C   0  0  0  0  0  0
  -24.1500  -36.7226   23.2647 C   0  0  0  0  0  0
  -26.0377  -30.6538   21.3960 C   0  0  0  0  0  0
  -26.1081  -29.2499   20.7373 C   0  0  0  0  0  0
  -27.2552  -28.3453   20.7419 C   0  0  0  0  0  0
  -26.0133  -26.7048   19.5114 C   0  0  0  0  0  0
  -24.9002  -27.5826   19.4783 C   0  0  0  0  0  0
  -23.7078  -29.7589   20.1474 C   0  0  0  0  0  0
  -25.4135  -36.2991   24.0310 C   0  0  1  0  0  0
  -20.5946  -28.3738   23.1214 C   0  0  2  0  0  0
  -20.6811  -26.9426   22.5415 C   0  0  0  0  0  0
  -19.5785  -26.6368   21.5227 C   0  0  0  0  0  0
  -18.1959  -26.7934   22.1630 C   0  0  0  0  0  0
  -19.1579  -28.8889   23.2828 C   0  0  0  0  0  0
  -18.9485  -30.1483   23.8852 C   0  0  0  0  0  0
  -17.6478  -30.6590   24.0552 C   0  0  0  0  0  0
  -25.9095  -34.9368   23.5028 C   0  0  0  0  0  0
  -16.5371  -29.9074   23.6341 C   0  0  0  0  0  0
  -16.7300  -28.6498   23.0357 C   0  0  0  0  0  0
  -26.4531  -31.6549   25.0704 C   0  0  0  0  0  0
  -25.3666  -31.3796   26.1378 C   0  0  0  0  0  0
  -27.0428  -30.2924   24.6417 C   0  0  0  0  0  0
  -27.6037  -32.4347   25.7492 C   0  0  0  0  0  0
  -27.5580  -37.1769   24.8458 C   0  0  0  0  0  0
  -21.4327  -29.3031   22.3562 N   0  0  0  0  0  0
  -26.4289  -37.3716   23.9401 N   0  0  0  0  0  0
  -24.7428  -31.0000   22.0845 N   0  0  0  0  0  0
  -23.4237  -28.8050   23.3037 O   0  0  0  0  0  0
  -28.2625  -25.9290   20.2351 O   0  0  0  0  0  0
  -26.5688  -34.8894   22.4612 O   0  0  0  0  0  0
  -23.5672  -32.1242   23.6858 O   0  0  0  0  0  0
  -28.1619  -20.2546   20.1999 C   0  0  0  0  0  0
  -30.6008  -18.9852   20.4754 C   0  0  0  0  0  0
  -28.3101  -18.7746   20.2344 C   0  0  0  0  0  0
  -29.2162  -21.2432   20.3078 C   0  0  0  0  0  0
  -29.5457  -17.9954   20.3810 C   0  0  0  0  0  0
  -30.4501  -20.4621   20.4465 C   0  0  0  0  0  0
  -27.0216  -17.9891   20.0932 C   0  0  0  0  0  0
  -29.1931  -22.9830   20.3156 C   0  0  0  0  0  0
  -28.0472  -24.3164   20.1269 C   0  0  0  0  0  0
  -29.5814  -16.3878   20.4703 N   0  0  0  0  0  0
  -31.9189  -21.3590   20.6111 Cl  0  0  0  0  0  0
  -31.4735  -12.9635   19.2091 H   0  0  0  0  0  0
  -30.5001  -11.8385   20.1102 H   0  0  0  0  0  0
  -29.9213  -11.7771   17.6489 H   0  0  0  0  0  0
  -29.5693  -13.4865   17.6794 H   0  0  0  0  0  0
  -28.0564  -11.2687   19.0869 H   0  0  0  0  0  0
  -27.4195  -12.3298   17.8547 H   0  0  0  0  0  0
  -27.5455  -14.2343   19.3413 H   0  0  0  0  0  0
  -28.7981  -12.4550   21.4899 H   0  0  0  0  0  0
  -28.2994  -14.1152   21.7098 H   0  0  0  0  0  0
  -25.2759   -9.5670   22.4760 H   0  0  0  0  0  0
  -24.0003   -7.4610   22.7469 H   0  0  0  0  0  0
  -21.0831   -8.8763   19.8966 H   0  0  0  0  0  0
  -22.3686  -10.9659   19.6182 H   0  0  0  0  0  0
  -21.2024   -7.6148   23.9725 H   0  0  0  0  0  0
  -21.1487   -6.0518   25.9078 H   0  0  0  0  0  0
  -22.0594   -2.7612   23.2830 H   0  0  0  0  0  0
  -22.4016  -11.9916   22.4926 H   0  0  0  0  0  0
  -21.1025  -13.1265   22.2634 H   0  0  0  0  0  0
  -24.5955  -15.8055   20.4568 H   0  0  0  0  0  0
  -26.1883  -15.5961   19.9343 H   0  0  0  0  0  0
  -26.7373  -32.5169   23.0918 H   0  0  0  0  0  0
  -25.0088  -33.9497   25.0230 H   0  0  0  0  0  0
  -22.7818  -31.2711   21.3563 H   0  0  0  0  0  0
  -23.3773  -35.9548   23.3285 H   0  0  0  0  0  0
  -24.3592  -36.8889   22.2071 H   0  0  0  0  0  0
  -23.7258  -37.6412   23.6706 H   0  0  0  0  0  0
  -26.2153  -31.4012   20.6217 H   0  0  0  0  0  0
  -26.8988  -30.7053   22.0502 H   0  0  0  0  0  0
  -28.1543  -28.6621   21.2509 H   0  0  0  0  0  0
  -25.8951  -25.7433   19.0345 H   0  0  0  0  0  0
  -24.0000  -27.2574   18.9745 H   0  0  0  0  0  0
  -23.8600  -30.5309   19.3915 H   0  0  0  0  0  0
  -22.8187  -29.2119   19.8292 H   0  0  0  0  0  0
  -25.1336  -36.1791   25.0803 H   0  0  0  0  0  0
  -21.0022  -28.3333   24.1343 H   0  0  0  0  0  0
  -20.5725  -26.2338   23.3638 H   0  0  0  0  0  0
  -21.6670  -26.7431   22.1201 H   0  0  0  0  0  0
  -19.6939  -25.6264   21.1286 H   0  0  0  0  0  0
  -19.6729  -27.3154   20.6739 H   0  0  0  0  0  0
  -17.4235  -26.6684   21.4018 H   0  0  0  0  0  0
  -18.0340  -26.0083   22.9033 H   0  0  0  0  0  0
  -19.7955  -30.7317   24.2203 H   0  0  0  0  0  0
  -17.5022  -31.6267   24.5165 H   0  0  0  0  0  0
  -15.5370  -30.2961   23.7678 H   0  0  0  0  0  0
  -15.8708  -28.0803   22.7092 H   0  0  0  0  0  0
  -24.5796  -30.7216   25.7671 H   0  0  0  0  0  0
  -24.8915  -32.3010   26.4760 H   0  0  0  0  0  0
  -25.7892  -30.8956   27.0193 H   0  0  0  0  0  0
  -26.3085  -29.6595   24.1422 H   0  0  0  0  0  0
  -27.3978  -29.7292   25.5058 H   0  0  0  0  0  0
  -27.9018  -30.4124   23.9811 H   0  0  0  0  0  0
  -27.2599  -33.3657   26.2008 H   0  0  0  0  0  0
  -28.3858  -32.6905   25.0330 H   0  0  0  0  0  0
  -28.0697  -31.8529   26.5453 H   0  0  0  0  0  0
  -28.2578  -38.0082   24.7516 H   0  0  0  0  0  0
  -28.1098  -36.2616   24.6267 H   0  0  0  0  0  0
  -27.2302  -37.1393   25.8860 H   0  0  0  0  0  0
  -20.9566  -29.8711   21.6691 H   0  0  0  0  0  0
  -26.0149  -38.2781   24.1399 H   0  0  0  0  0  0
  -27.1597  -20.6463   20.0888 H   0  0  0  0  0  0
  -31.6064  -18.6069   20.5970 H   0  0  0  0  0  0
  -26.2184  -18.5962   19.6747 H   0  0  0  0  0  0
  -26.6916  -17.6233   21.0671 H   0  0  0  0  0  0
  -27.1613  -17.1390   19.4253 H   0  0  0  0  0  0
  -29.9469  -23.2136   19.5624 H   0  0  0  0  0  0
  -29.6924  -23.2137   21.2570 H   0  0  0  0  0  0
  -27.2361  -24.1067   20.8241 H   0  0  0  0  0  0
  -27.6033  -24.1665   19.1422 H   0  0  0  0  0  0
  -28.6452  -16.0390   20.6049 H   0  0  0  0  0  0
  1 25  1  0  0  0
  1 30  2  0  0  0
  1 80  1  0  0  0
  2  3  1  0  0  0
  2 25  1  0  0  0
  2 82  1  0  0  0
  2 83  1  0  0  0
  3  4  1  0  0  0
  3 84  1  0  0  0
  3 85  1  0  0  0
  4  5  1  0  0  0
  4 86  1  0  0  0
  4 87  1  0  0  0
  5  6  1  0  0  0
  5 26  1  0  0  0
  5 88  1  0  0  0
  6 25  1  0  0  0
  6 89  1  0  0  0
  6 90  1  0  0  0
  7  8  2  0  0  0
  7 26  1  0  0  0
  7 29  1  0  0  0
  8  9  1  0  0  0
  8 22  1  0  0  0
  9 10  1  0  0  0
  9 27  2  0  0  0
 10 11  2  0  0  0
 10 15  1  0  0  0
 11 12  1  0  0  0
 11 91  1  0  0  0
 12 13  2  0  0  0
 12 92  1  0  0  0
 13 14  1  0  0  0
 13 31  1  0  0  0
 14 15  2  0  0  0
 14 93  1  0  0  0
 15 94  1  0  0  0
 16 17  2  0  0  0
 16 21  1  0  0  0
 16 31  1  0  0  0
 17 18  1  0  0  0
 17 95  1  0  0  0
 18 19  2  0  0  0
 18 96  1  0  0  0
 19 20  1  0  0  0
 19 24  1  0  0  0
 20 21  2  0  0  0
 20 97  1  0  0  0
 21 23  1  0  0  0
 22 28  1  0  0  0
 22 32  2  0  0  0
 26 27  1  0  0  0
 28 98  1  0  0  0
 28 99  1  0  0  0
 29100  1  0  0  0
 29101  1  0  0  0
 33 34  1  0  0  0
 33 66  1  0  0  0
 33 70  2  0  0  0
 34 36  1  0  0  0
 34 59  1  0  0  0
 34102  1  0  0  0
 35 44  2  0  0  0
 35 45  1  0  0  0
 35 68  1  0  0  0
 36 56  1  0  0  0
 36103  1  0  0  0
 37 39  1  0  0  0
 37 47  1  0  0  0
 37 66  1  0  0  0
 37104  1  0  0  0
 38 43  2  0  0  0
 38 46  1  0  0  0
 38 47  1  0  0  0
 39 64  1  0  0  0
 39 67  2  0  0  0
 40 52  1  0  0  0
 40 53  2  0  0  0
 40 58  1  0  0  0
 41105  1  0  0  0
 41106  1  0  0  0
 41107  1  0  0  0
 41 48  1  0  0  0
 42 43  1  0  0  0
 42 66  1  0  0  0
 42108  1  0  0  0
 42109  1  0  0  0
 43 44  1  0  0  0
 44110  1  0  0  0
 45 46  2  0  0  0
 45111  1  0  0  0
 46112  1  0  0  0
 47113  1  0  0  0
 47114  1  0  0  0
 48 56  1  0  0  0
 48 65  1  0  0  0
 48115  1  0  0  0
 49 50  1  0  0  0
 49 53  1  0  0  0
 49 64  1  0  0  0
 49116  1  0  0  0
 50 51  1  0  0  0
 50117  1  0  0  0
 50118  1  0  0  0
 51 52  1  0  0  0
 51119  1  0  0  0
 51120  1  0  0  0
 52121  1  0  0  0
 52122  1  0  0  0
 53 54  1  0  0  0
 54 55  2  0  0  0
 54123  1  0  0  0
 55 57  1  0  0  0
 55124  1  0  0  0
 56 69  2  0  0  0
 57 58  2  0  0  0
 57125  1  0  0  0
 58126  1  0  0  0
 59 60  1  0  0  0
 59 61  1  0  0  0
 59 62  1  0  0  0
 60127  1  0  0  0
 60128  1  0  0  0
 60129  1  0  0  0
 61130  1  0  0  0
 61131  1  0  0  0
 61132  1  0  0  0
 62133  1  0  0  0
 62134  1  0  0  0
 62135  1  0  0  0
 63 65  1  0  0  0
 63136  1  0  0  0
 63137  1  0  0  0
 63138  1  0  0  0
 64139  1  0  0  0
 65140  1  0  0  0
 68 79  1  0  0  0
 71 73  2  0  0  0
 71 74  1  0  0  0
 71141  1  0  0  0
 72 75  2  0  0  0
 72 76  1  0  0  0
 72142  1  0  0  0
 73 75  1  0  0  0
 73 77  1  0  0  0
 74 76  2  0  0  0
 74 78  1  0  0  0
 75 80  1  0  0  0
 76 81  1  0  0  0
 77143  1  0  0  0
 77144  1  0  0  0
 77145  1  0  0  0
 78 79  1  0  0  0
 78146  1  0  0  0
 78147  1  0  0  0
 79148  1  0  0  0
 79149  1  0  0  0
 80150  1  0  0  0
M  ISO  4   1 100  68 101  79 101  80 100
M  END
> <chiral flag>
0

> <version>
0

> <s_m_source_file>
/data/baiqing/PycharmProjects/Reinvent-master-3.2/result/LINK_invent/BTK/process_docking_weight1_custom_sum_contain_oxygen_bond_distance_aromatic_linkinvent_7_9_3/rearranged_h_0022.sdf

> <i_m_source_file_index>
87

> <r_mmod_Potential_Energy-OPLS-2005>
1015.1328125

> <r_mmod_Stretch_Energy-OPLS-2005>
452.995971679688

> <r_mmod_Bend_Energy-OPLS-2005>
413.317077636719

> <r_mmod_Torsional_Energy-OPLS-2005>
212.923645019531

> <r_mmod_Improper_Torsional_Energy-OPLS-2005>
5.09699869155884

> <r_mmod_Van_der_Waal_Energy-OPLS-2005>
125.432914733887

> <r_mmod_Electrostatic_Energy-OPLS-2005>
-369.990844726562

> <r_mmod_Solvation_Energy-OPLS-2005>
-209.100936889648

> <b_mmod_Minimization_Converged-OPLS-2005>
0

> <r_mmod_RMS_Derivative-OPLS-2005>
2.19121432304382

$$$$
87
                    3D
 Structure written by MMmdl.
162170  0  0  1  0            999 V2000
  -31.1468  -13.5654   20.5370 C   0  0  0  0  0  0
  -30.2265  -11.3221   19.6827 C   0  0  0  0  0  0
  -29.0462  -11.4374   18.1254 C   0  0  0  0  0  0
  -27.7157  -12.8502   18.1609 C   0  0  0  0  0  0
  -27.7323  -14.0155   19.8494 C   0  0  2  0  0  0
  -28.9243  -13.6478   21.1983 C   0  0  0  0  0  0
  -25.8693  -14.9908   21.1444 C   0  0  0  0  0  0
  -24.8501  -14.3167   21.5525 C   0  0  0  0  0  0
  -25.1039  -13.3886   20.4030 C   0  0  0  0  0  0
  -23.7234  -10.8162   19.9672 C   0  0  0  0  0  0
  -24.2134   -9.5302   20.7609 C   0  0  0  0  0  0
  -23.5798   -8.4281   21.4188 C   0  0  0  0  0  0
  -22.2615   -8.1861   21.0952 C   0  0  0  0  0  0
  -21.7094   -9.1757   20.2294 C   0  0  0  0  0  0
  -22.3658  -10.3818   19.7426 C   0  0  0  0  0  0
  -21.7093   -6.1766   22.4877 C   0  0  0  0  0  0
  -21.4374   -6.6309   23.8007 C   0  0  0  0  0  0
  -21.3918   -5.7268   24.8886 C   0  0  0  0  0  0
  -21.6179   -4.3530   24.6854 C   0  0  0  0  0  0
  -21.8920   -3.8843   23.3907 C   0  0  0  0  0  0
  -21.9328   -4.7830   22.3022 C   0  0  0  0  0  0
  -23.5192  -14.7519   22.2869 C   0  0  0  0  0  0
  -22.1587   -4.2853   21.0640 F   0  0  0  0  0  0
  -21.5611   -3.4869   25.7289 F   0  0  0  0  0  0
  -30.2068  -12.6169   20.9004 N   0  0  0  0  0  0
  -26.6572  -14.0561   20.6054 N   0  0  0  0  0  0
  -25.9717  -13.8928   19.6968 N   0  0  0  0  0  0
  -23.0491  -13.8534   23.1870 N   0  0  0  0  0  0
  -26.0673  -16.2903   20.9191 N   0  0  0  0  0  0
  -31.7066  -14.5140   21.0764 O   0  0  0  0  0  0
  -21.5702   -7.0038   21.3748 O   0  0  0  0  0  0
  -22.6345  -15.3831   21.6860 O   0  0  0  0  0  0
  -24.7587  -31.6790   23.0961 C   0  0  0  0  0  0
  -25.9818  -32.3836   23.7691 C   0  0  1  0  0  0
  -26.1273  -25.5218   20.1594 C   0  0  0  0  0  0
  -25.6024  -33.7765   24.1381 N   0  0  0  0  0  0
  -23.5570  -30.3231   21.4805 C   0  0  2  0  0  0
  -24.7991  -28.4889   20.0321 C   0  0  0  0  0  0
  -22.7804  -29.3821   22.4423 C   0  0  0  0  0  0
  -18.0318  -28.1437   22.8417 C   0  0  0  0  0  0
  -24.1475  -36.6896   23.2681 C   0  0  0  0  0  0
  -26.1049  -29.9218   21.5426 C   0  0  0  0  0  0
  -25.9259  -28.4192   20.8315 C   0  0  0  0  0  0
  -26.5874  -26.9681   20.8562 C   0  0  0  0  0  0
  -25.2966  -26.1346   19.1849 C   0  0  0  0  0  0
  -24.6235  -27.4063   19.1636 C   0  0  0  0  0  0
  -23.7947  -29.6639   20.0890 C   0  0  0  0  0  0
  -25.4168  -36.2549   24.0210 C   0  0  1  0  0  0
  -20.5946  -28.3782   23.1029 C   0  0  2  0  0  0
  -20.6734  -26.9380   22.5434 C   0  0  0  0  0  0
  -19.5743  -26.6305   21.5230 C   0  0  0  0  0  0
  -18.1919  -26.7964   22.1588 C   0  0  0  0  0  0
  -19.1591  -28.8951   23.2702 C   0  0  0  0  0  0
  -18.9515  -30.1531   23.8762 C   0  0  0  0  0  0
  -17.6510  -30.6611   24.0542 C   0  0  0  0  0  0
  -25.9221  -34.8963   23.4711 C   0  0  0  0  0  0
  -16.5392  -29.9082   23.6373 C   0  0  0  0  0  0
  -16.7305  -28.6508   23.0373 C   0  0  0  0  0  0
  -26.4743  -31.6480   25.0778 C   0  0  0  0  0  0
  -25.3583  -31.4148   26.1265 C   0  0  0  0  0  0
  -27.0893  -30.2759   24.7527 C   0  0  0  0  0  0
  -27.5988  -32.4720   25.7522 C   0  0  0  0  0  0
  -27.5528  -37.1588   24.8449 C   0  0  0  0  0  0
  -21.4424  -29.2893   22.3216 N   0  0  0  0  0  0
  -26.4197  -37.3430   23.9429 N   0  0  0  0  0  0
  -24.8649  -30.7185   22.0783 N   0  0  0  0  0  0
  -23.4006  -28.7446   23.2986 O   0  0  0  0  0  0
  -26.1951  -23.6893   20.1725 O   0  0  0  0  0  0
  -26.6015  -34.8738   22.4437 O   0  0  0  0  0  0
  -23.6535  -32.0517   23.5402 O   0  0  0  0  0  0
  -25.2999  -11.8171   18.6466 C   0  0  0  0  0  0
  -24.5523  -11.7935   21.7537 C   0  0  0  0  0  0
  -25.9972  -11.3651   20.2976 C   0  0  0  0  0  0
  -23.2090  -14.1938   19.4185 C   0  0  0  0  0  0
  -23.9863  -13.0141   18.3536 C   0  0  0  0  0  0
  -22.9662  -12.8432   20.7893 C   0  0  0  0  0  0
  -31.8345  -15.6070   17.9157 C   0  0  0  0  0  0
  -27.8910  -11.6907   20.2095 C   0  0  0  0  0  0
  -23.7023  -16.6163   19.3764 C   0  0  0  0  0  0
  -24.6922  -19.0107   19.9177 C   0  0  0  0  0  0
  -32.1897  -14.1817   18.3735 C   0  0  0  0  0  0
  -29.7681  -13.4936   18.9165 C   0  0  0  0  0  0
  -25.2626  -21.5817   19.7654 C   0  0  0  0  0  0
  -31.1754  -13.5651   19.2445 N   0  0  0  0  0  0
  -23.7232  -13.3350   16.6794 Cl  0  0  0  0  0  0
  -21.2921  -12.6486   21.3097 Cl  0  0  0  0  0  0
  -31.2474  -11.1287   19.3395 H   0  0  0  0  0  0
  -30.0566  -10.3881   20.2227 H   0  0  0  0  0  0
  -28.5513  -10.4756   17.9692 H   0  0  0  0  0  0
  -29.6523  -11.4938   17.2167 H   0  0  0  0  0  0
  -26.9087  -12.8102   17.4486 H   0  0  0  0  0  0
  -28.0210  -13.5716   17.3967 H   0  0  0  0  0  0
  -27.8833  -15.0668   19.5478 H   0  0  0  0  0  0
  -28.4238  -13.3110   22.1071 H   0  0  0  0  0  0
  -29.2497  -14.6239   21.5660 H   0  0  0  0  0  0
  -25.2240   -9.4297   21.1137 H   0  0  0  0  0  0
  -24.1436   -7.7182   22.0066 H   0  0  0  0  0  0
  -20.6815   -9.0266   19.9240 H   0  0  0  0  0  0
  -21.7170  -11.0654   19.2127 H   0  0  0  0  0  0
  -21.2337   -7.6779   23.9720 H   0  0  0  0  0  0
  -21.1756   -6.0905   25.8808 H   0  0  0  0  0  0
  -22.0633   -2.8336   23.2227 H   0  0  0  0  0  0
  -23.6838  -13.1417   23.5243 H   0  0  0  0  0  0
  -22.1187  -13.9114   23.5693 H   0  0  0  0  0  0
  -25.3728  -16.9905   21.1322 H   0  0  0  0  0  0
  -26.7339  -16.5775   20.2113 H   0  0  0  0  0  0
  -26.7978  -32.4033   23.0450 H   0  0  0  0  0  0
  -24.9900  -33.8654   24.9358 H   0  0  0  0  0  0
  -22.9387  -31.2079   21.3054 H   0  0  0  0  0  0
  -23.3797  -35.9149   23.3155 H   0  0  0  0  0  0
  -24.3515  -36.8826   22.2132 H   0  0  0  0  0  0
  -23.7161  -37.5948   23.6978 H   0  0  0  0  0  0
  -26.5782  -30.5638   20.7985 H   0  0  0  0  0  0
  -26.8642  -29.8025   22.2993 H   0  0  0  0  0  0
  -27.3889  -26.8673   21.5708 H   0  0  0  0  0  0
  -24.9111  -25.4512   18.4425 H   0  0  0  0  0  0
  -23.8360  -27.5072   18.4280 H   0  0  0  0  0  0
  -24.1533  -30.4251   19.3955 H   0  0  0  0  0  0
  -22.8375  -29.3377   19.6806 H   0  0  0  0  0  0
  -25.1406  -36.1162   25.0689 H   0  0  0  0  0  0
  -21.0035  -28.3500   24.1158 H   0  0  0  0  0  0
  -20.5522  -26.2438   23.3755 H   0  0  0  0  0  0
  -21.6594  -26.7223   22.1309 H   0  0  0  0  0  0
  -19.6863  -25.6170   21.1358 H   0  0  0  0  0  0
  -19.6730  -27.3025   20.6691 H   0  0  0  0  0  0
  -17.4208  -26.6743   21.3959 H   0  0  0  0  0  0
  -18.0229  -26.0144   22.8997 H   0  0  0  0  0  0
  -19.8002  -30.7364   24.2060 H   0  0  0  0  0  0
  -17.5066  -31.6274   24.5165 H   0  0  0  0  0  0
  -15.5382  -30.2949   23.7776 H   0  0  0  0  0  0
  -15.8702  -28.0794   22.7164 H   0  0  0  0  0  0
  -24.5744  -30.7528   25.7578 H   0  0  0  0  0  0
  -24.8804  -32.3497   26.4206 H   0  0  0  0  0  0
  -25.7507  -30.9610   27.0376 H   0  0  0  0  0  0
  -26.3498  -29.5711   24.3736 H   0  0  0  0  0  0
  -27.4986  -29.8133   25.6528 H   0  0  0  0  0  0
  -27.9229  -30.3627   24.0559 H   0  0  0  0  0  0
  -27.2366  -33.4242   26.1437 H   0  0  0  0  0  0
  -28.4023  -32.6987   25.0495 H   0  0  0  0  0  0
  -28.0454  -31.9436   26.5961 H   0  0  0  0  0  0
  -28.2400  -38.0014   24.7565 H   0  0  0  0  0  0
  -28.1162  -36.2524   24.6166 H   0  0  0  0  0  0
  -27.2269  -37.1068   25.8853 H   0  0  0  0  0  0
  -20.9825  -29.8540   21.6207 H   0  0  0  0  0  0
  -25.9928  -38.2419   24.1514 H   0  0  0  0  0  0
  -25.6907  -11.3077   17.7771 H   0  0  0  0  0  0
  -24.5266  -11.3229   22.7278 H   0  0  0  0  0  0
  -32.7154  -16.1071   17.5174 H   0  0  0  0  0  0
  -31.4481  -16.2090   18.7395 H   0  0  0  0  0  0
  -31.0835  -15.5939   17.1241 H   0  0  0  0  0  0
  -28.0020  -10.6280   19.9757 H   0  0  0  0  0  0
  -28.0907  -11.4914   21.2642 H   0  0  0  0  0  0
  -22.6603  -16.9211   19.2400 H   0  0  0  0  0  0
  -24.1194  -16.5739   18.3745 H   0  0  0  0  0  0
  -25.7378  -18.7189   19.9584 H   0  0  0  0  0  0
  -24.3824  -19.0320   20.9625 H   0  0  0  0  0  0
  -33.1437  -14.1987   18.9045 H   0  0  0  0  0  0
  -32.3478  -13.5347   17.5098 H   0  0  0  0  0  0
  -29.6466  -14.5831   18.9043 H   0  0  0  0  0  0
  -29.9569  -13.4662   17.8340 H   0  0  0  0  0  0
  -24.3001  -21.9471   19.3967 H   0  0  0  0  0  0
  -25.8495  -21.4533   18.8595 H   0  0  0  0  0  0
  1 25  1  0  0  0
  1 30  2  0  0  0
  1 84  1  0  0  0
  2  3  1  0  0  0
  2 25  1  0  0  0
  2 87  1  0  0  0
  2 88  1  0  0  0
  3  4  1  0  0  0
  3 89  1  0  0  0
  3 90  1  0  0  0
  4  5  1  0  0  0
  4 91  1  0  0  0
  4 92  1  0  0  0
  5  6  1  0  0  0
  5 26  1  0  0  0
  5 93  1  0  0  0
  6 25  1  0  0  0
  6 94  1  0  0  0
  6 95  1  0  0  0
  7  8  2  0  0  0
  7 26  1  0  0  0
  7 29  1  0  0  0
  8  9  1  0  0  0
  8 22  1  0  0  0
  9 10  1  0  0  0
  9 27  2  0  0  0
 10 11  2  0  0  0
 10 15  1  0  0  0
 11 12  1  0  0  0
 11 96  1  0  0  0
 12 13  2  0  0  0
 12 97  1  0  0  0
 13 14  1  0  0  0
 13 31  1  0  0  0
 14 15  2  0  0  0
 14 98  1  0  0  0
 15 99  1  0  0  0
 16 17  2  0  0  0
 16 21  1  0  0  0
 16 31  1  0  0  0
 17 18  1  0  0  0
 17100  1  0  0  0
 18 19  2  0  0  0
 18101  1  0  0  0
 19 20  1  0  0  0
 19 24  1  0  0  0
 20 21  2  0  0  0
 20102  1  0  0  0
 21 23  1  0  0  0
 22 28  1  0  0  0
 22 32  2  0  0  0
 26 27  1  0  0  0
 28103  1  0  0  0
 28104  1  0  0  0
 29105  1  0  0  0
 29106  1  0  0  0
 33 34  1  0  0  0
 33 66  1  0  0  0
 33 70  2  0  0  0
 34 36  1  0  0  0
 34 59  1  0  0  0
 34107  1  0  0  0
 35 44  2  0  0  0
 35 45  1  0  0  0
 35 68  1  0  0  0
 36 56  1  0  0  0
 36108  1  0  0  0
 37 39  1  0  0  0
 37 47  1  0  0  0
 37 66  1  0  0  0
 37109  1  0  0  0
 38 43  2  0  0  0
 38 46  1  0  0  0
 38 47  1  0  0  0
 39 64  1  0  0  0
 39 67  2  0  0  0
 40 52  1  0  0  0
 40 53  2  0  0  0
 40 58  1  0  0  0
 41110  1  0  0  0
 41111  1  0  0  0
 41112  1  0  0  0
 41 48  1  0  0  0
 42 43  1  0  0  0
 42 66  1  0  0  0
 42113  1  0  0  0
 42114  1  0  0  0
 43 44  1  0  0  0
 44115  1  0  0  0
 45 46  2  0  0  0
 45116  1  0  0  0
 46117  1  0  0  0
 47118  1  0  0  0
 47119  1  0  0  0
 48 56  1  0  0  0
 48 65  1  0  0  0
 48120  1  0  0  0
 49 50  1  0  0  0
 49 53  1  0  0  0
 49 64  1  0  0  0
 49121  1  0  0  0
 50 51  1  0  0  0
 50122  1  0  0  0
 50123  1  0  0  0
 51 52  1  0  0  0
 51124  1  0  0  0
 51125  1  0  0  0
 52126  1  0  0  0
 52127  1  0  0  0
 53 54  1  0  0  0
 54 55  2  0  0  0
 54128  1  0  0  0
 55 57  1  0  0  0
 55129  1  0  0  0
 56 69  2  0  0  0
 57 58  2  0  0  0
 57130  1  0  0  0
 58131  1  0  0  0
 59 60  1  0  0  0
 59 61  1  0  0  0
 59 62  1  0  0  0
 60132  1  0  0  0
 60133  1  0  0  0
 60134  1  0  0  0
 61135  1  0  0  0
 61136  1  0  0  0
 61137  1  0  0  0
 62138  1  0  0  0
 62139  1  0  0  0
 62140  1  0  0  0
 63 65  1  0  0  0
 63141  1  0  0  0
 63142  1  0  0  0
 63143  1  0  0  0
 64144  1  0  0  0
 65145  1  0  0  0
 68 83  1  0  0  0
 71 73  2  0  0  0
 71 75  1  0  0  0
 71146  1  0  0  0
 72 73  1  0  0  0
 72 76  2  0  0  0
 72147  1  0  0  0
 73 78  1  0  0  0
 74 75  2  0  0  0
 74 76  1  0  0  0
 74 79  1  0  0  0
 75 85  1  0  0  0
 76 86  1  0  0  0
 77 81  1  0  0  0
 77148  1  0  0  0
 77149  1  0  0  0
 77150  1  0  0  0
 78 82  1  0  0  0
 78151  1  0  0  0
 78152  1  0  0  0
 79 80  1  0  0  0
 79153  1  0  0  0
 79154  1  0  0  0
 80 83  1  0  0  0
 80155  1  0  0  0
 80156  1  0  0  0
 81 84  1  0  0  0
 81157  1  0  0  0
 81158  1  0  0  0
 82 84  1  0  0  0
 82159  1  0  0  0
 82160  1  0  0  0
 83161  1  0  0  0
 83162  1  0  0  0
M  ISO  4   1 100  68 101  83 101  84 100
M  END
> <chiral flag>
0

> <version>
0

> <s_m_source_file>
/data/baiqing/PycharmProjects/Reinvent-master-3.2/result/LINK_invent/BTK/process_docking_weight1_custom_sum_contain_oxygen_bond_distance_aromatic_linkinvent_7_9_3/rearranged_h_0022.sdf

> <i_m_source_file_index>
88

> <r_mmod_Potential_Energy-OPLS-2005>
30153.77734375

> <r_mmod_Stretch_Energy-OPLS-2005>
16182.1904296875

> <r_mmod_Bend_Energy-OPLS-2005>
2081.77294921875

> <r_mmod_Torsional_Energy-OPLS-2005>
967.563293457031

> <r_mmod_Improper_Torsional_Energy-OPLS-2005>
124.959587097168

> <r_mmod_Van_der_Waal_Energy-OPLS-2005>
4891.05078125

> <r_mmod_Electrostatic_Energy-OPLS-2005>
-274.823944091797

> <r_mmod_Solvation_Energy-OPLS-2005>
-194.052093505859

> <b_mmod_Minimization_Converged-OPLS-2005>
0

> <r_mmod_RMS_Derivative-OPLS-2005>
9.35291767120361

$$$$
88
                    3D
 Structure written by MMmdl.
171179  0  0  1  0            999 V2000
  -30.8375  -14.2860   20.7630 C   0  0  0  0  0  0
  -30.4084  -12.2969   19.3744 C   0  0  0  0  0  0
  -29.4744  -12.5442   18.1810 C   0  0  0  0  0  0
  -28.0044  -12.3884   18.6050 C   0  0  0  0  0  0
  -27.6652  -13.2088   19.8751 C   0  0  2  0  0  0
  -28.7029  -12.9635   20.9915 C   0  0  0  0  0  0
  -25.2580  -13.8165   20.5664 C   0  0  0  0  0  0
  -24.1832  -13.0434   20.9146 C   0  0  0  0  0  0
  -24.6390  -11.6903   20.8706 C   0  0  0  0  0  0
  -23.9059  -10.4285   21.0392 C   0  0  0  0  0  0
  -24.3637   -9.4188   21.9148 C   0  0  0  0  0  0
  -23.6306   -8.2228   22.0734 C   0  0  0  0  0  0
  -22.4270   -8.0273   21.3552 C   0  0  0  0  0  0
  -21.9883   -9.0260   20.4684 C   0  0  0  0  0  0
  -22.7208  -10.2138   20.3077 C   0  0  0  0  0  0
  -21.6851   -6.0729   22.5286 C   0  0  0  0  0  0
  -21.4014   -6.5638   23.8213 C   0  0  0  0  0  0
  -21.3668   -5.6794   24.9181 C   0  0  0  0  0  0
  -21.6044   -4.3055   24.7229 C   0  0  0  0  0  0
  -21.8816   -3.8139   23.4356 C   0  0  0  0  0  0
  -21.9190   -4.6957   22.3408 C   0  0  0  0  0  0
  -22.7852  -13.5235   21.1823 C   0  0  0  0  0  0
  -22.1658   -4.2141   21.0984 F   0  0  0  0  0  0
  -21.5635   -3.4541   25.7745 F   0  0  0  0  0  0
  -30.0528  -13.2239   20.4567 N   0  0  0  0  0  0
  -26.3034  -12.9351   20.3349 N   0  0  0  0  0  0
  -25.9317  -11.6499   20.5707 N   0  0  0  0  0  0
  -22.0490  -12.8229   22.0383 N   0  0  0  0  0  0
  -25.4298  -15.1884   20.4104 N   0  0  0  0  0  0
  -31.7533  -14.6772   20.0370 O   0  0  0  0  0  0
  -21.6636   -6.8874   21.4247 O   0  0  0  0  0  0
  -22.3542  -14.5539   20.6662 O   0  0  0  0  0  0
  -24.6143  -31.8711   23.2145 C   0  0  0  0  0  0
  -25.9048  -32.4833   23.8423 C   0  0  1  0  0  0
  -27.2239  -27.4442   20.0764 C   0  0  0  0  0  0
  -25.5920  -33.8633   24.2355 N   0  0  0  0  0  0
  -23.3991  -30.4991   21.5569 C   0  0  2  0  0  0
  -24.8389  -28.9717   20.1140 C   0  0  0  0  0  0
  -22.7399  -29.4685   22.5017 C   0  0  0  0  0  0
  -18.0273  -28.1377   22.8493 C   0  0  0  0  0  0
  -24.1489  -36.7317   23.2636 C   0  0  0  0  0  0
  -25.9293  -30.8346   21.3699 C   0  0  0  0  0  0
  -26.0011  -29.4725   20.7125 C   0  0  0  0  0  0
  -27.1940  -28.7140   20.6965 C   0  0  0  0  0  0
  -26.0387  -26.9675   19.4608 C   0  0  0  0  0  0
  -24.8515  -27.7166   19.4881 C   0  0  0  0  0  0
  -23.6039  -29.8401   20.1684 C   0  0  0  0  0  0
  -25.4110  -36.3123   24.0340 C   0  0  1  0  0  0
  -20.5858  -28.3668   23.1320 C   0  0  2  0  0  0
  -20.6765  -26.9413   22.5410 C   0  0  0  0  0  0
  -19.5744  -26.6392   21.5205 C   0  0  0  0  0  0
  -18.1922  -26.7924   22.1623 C   0  0  0  0  0  0
  -19.1519  -28.8840   23.2904 C   0  0  0  0  0  0
  -18.9449  -30.1445   23.8919 C   0  0  0  0  0  0
  -17.6451  -30.6587   24.0566 C   0  0  0  0  0  0
  -25.9037  -34.9483   23.5141 C   0  0  0  0  0  0
  -16.5343  -29.9090   23.6322 C   0  0  0  0  0  0
  -16.7261  -28.6502   23.0351 C   0  0  0  0  0  0
  -26.4475  -31.6604   25.0743 C   0  0  0  0  0  0
  -25.3746  -31.3699   26.1497 C   0  0  0  0  0  0
  -27.0301  -30.3050   24.6107 C   0  0  0  0  0  0
  -27.6062  -32.4313   25.7499 C   0  0  0  0  0  0
  -27.5584  -37.1817   24.8468 C   0  0  0  0  0  0
  -21.4132  -29.3040   22.3735 N   0  0  0  0  0  0
  -26.4300  -37.3803   23.9408 N   0  0  0  0  0  0
  -24.6659  -31.0821   22.1049 N   0  0  0  0  0  0
  -23.4177  -28.8218   23.3046 O   0  0  0  0  0  0
  -28.3997  -26.7163   20.0967 O   0  0  0  0  0  0
  -26.5586  -34.8928   22.4695 O   0  0  0  0  0  0
  -23.5338  -32.1466   23.7542 O   0  0  0  0  0  0
  -34.6195  -18.0142   21.1249 C   0  0  0  0  0  0
  -34.8948  -16.6513   21.3312 C   0  0  0  0  0  0
  -33.3784  -18.5578   21.5154 C   0  0  0  0  0  0
  -32.6656  -16.3323   22.2917 C   0  0  0  0  0  0
  -33.9346  -15.8128   21.9247 C   0  0  0  0  0  0
  -32.3961  -17.7124   22.0926 C   0  0  0  0  0  0
  -32.1446  -22.7352   21.5226 C   0  0  0  0  0  0
  -32.0391  -19.7695   19.1370 C   0  0  0  0  0  0
  -31.6083  -15.4122   22.9135 C   0  0  0  0  0  0
  -33.1373  -20.0582   21.3413 C   0  0  0  0  0  0
  -29.4135  -23.0754   19.5544 C   0  0  0  0  0  0
  -29.5004  -24.4982   20.1490 C   0  0  0  0  0  0
  -30.0134  -21.9313   20.3968 C   0  0  0  0  0  0
  -28.3311  -25.3591   19.6510 C   0  0  0  0  0  0
  -31.5594  -21.8314   20.4114 C   0  0  2  0  0  0
  -30.6649  -14.7289   22.0161 N   0  0  0  0  0  0
  -31.9609  -20.3873   20.4875 N   0  3  1  0  0  0
  -34.3468  -14.1510   22.1804 Cl  0  0  0  0  0  0
  -30.8582  -18.3762   22.5448 Cl  0  0  0  0  0  0
  -31.4508  -12.3957   19.0645 H   0  0  0  0  0  0
  -30.3023  -11.2708   19.7298 H   0  0  0  0  0  0
  -29.7059  -11.8480   17.3745 H   0  0  0  0  0  0
  -29.6429  -13.5459   17.7814 H   0  0  0  0  0  0
  -27.8184  -11.3288   18.7848 H   0  0  0  0  0  0
  -27.3446  -12.6788   17.7866 H   0  0  0  0  0  0
  -27.7211  -14.2615   19.5953 H   0  0  0  0  0  0
  -28.4520  -13.5779   21.8566 H   0  0  0  0  0  0
  -28.6494  -11.9292   21.3345 H   0  0  0  0  0  0
  -25.2817   -9.5633   22.4681 H   0  0  0  0  0  0
  -24.0031   -7.4601   22.7423 H   0  0  0  0  0  0
  -21.0789   -8.8792   19.9027 H   0  0  0  0  0  0
  -22.3636  -10.9696   19.6216 H   0  0  0  0  0  0
  -21.2000   -7.6142   23.9714 H   0  0  0  0  0  0
  -21.1501   -6.0529   25.9088 H   0  0  0  0  0  0
  -22.0579   -2.7598   23.2858 H   0  0  0  0  0  0
  -22.4085  -11.9865   22.4752 H   0  0  0  0  0  0
  -21.1111  -13.1271   22.2578 H   0  0  0  0  0  0
  -24.6694  -15.8485   20.5298 H   0  0  0  0  0  0
  -26.2952  -15.6280   20.1228 H   0  0  0  0  0  0
  -26.7111  -32.5542   23.1180 H   0  0  0  0  0  0
  -25.0096  -33.9803   25.0516 H   0  0  0  0  0  0
  -22.6869  -31.3166   21.4248 H   0  0  0  0  0  0
  -23.3750  -35.9653   23.3314 H   0  0  0  0  0  0
  -24.3577  -36.8911   22.2046 H   0  0  0  0  0  0
  -23.7237  -37.6528   23.6630 H   0  0  0  0  0  0
  -26.0471  -31.6025   20.6043 H   0  0  0  0  0  0
  -26.8158  -30.8801   21.9907 H   0  0  0  0  0  0
  -28.0907  -29.0979   21.1627 H   0  0  0  0  0  0
  -25.9963  -26.0222   18.9407 H   0  0  0  0  0  0
  -23.9598  -27.3289   19.0146 H   0  0  0  0  0  0
  -23.7143  -30.6200   19.4143 H   0  0  0  0  0  0
  -22.7246  -29.2662   19.8699 H   0  0  0  0  0  0
  -25.1282  -36.2000   25.0831 H   0  0  0  0  0  0
  -20.9946  -28.3231   24.1441 H   0  0  0  0  0  0
  -20.5669  -26.2281   23.3594 H   0  0  0  0  0  0
  -21.6638  -26.7462   22.1205 H   0  0  0  0  0  0
  -19.6911  -25.6305   21.1229 H   0  0  0  0  0  0
  -19.6682  -27.3205   20.6733 H   0  0  0  0  0  0
  -17.4192  -26.6665   21.4028 H   0  0  0  0  0  0
  -18.0342  -26.0062   22.9017 H   0  0  0  0  0  0
  -19.7927  -30.7249   24.2305 H   0  0  0  0  0  0
  -17.5011  -31.6269   24.5165 H   0  0  0  0  0  0
  -15.5347  -30.3002   23.7633 H   0  0  0  0  0  0
  -15.8657  -28.0822   22.7069 H   0  0  0  0  0  0
  -24.5901  -30.7071   25.7825 H   0  0  0  0  0  0
  -24.8962  -32.2853   26.4989 H   0  0  0  0  0  0
  -25.8106  -30.8825   27.0228 H   0  0  0  0  0  0
  -26.2840  -29.6821   24.1160 H   0  0  0  0  0  0
  -27.4074  -29.7276   25.4557 H   0  0  0  0  0  0
  -27.8678  -30.4374   23.9256 H   0  0  0  0  0  0
  -27.2692  -33.3595   26.2128 H   0  0  0  0  0  0
  -28.3848  -32.6902   25.0308 H   0  0  0  0  0  0
  -28.0762  -31.8404   26.5373 H   0  0  0  0  0  0
  -28.2618  -38.0100   24.7512 H   0  0  0  0  0  0
  -28.1068  -36.2634   24.6307 H   0  0  0  0  0  0
  -27.2300  -37.1487   25.8871 H   0  0  0  0  0  0
  -20.9292  -29.8772   21.6965 H   0  0  0  0  0  0
  -26.0197  -38.2890   24.1393 H   0  0  0  0  0  0
  -35.3802  -18.6405   20.6806 H   0  0  0  0  0  0
  -35.8535  -16.2473   21.0378 H   0  0  0  0  0  0
  -31.8269  -23.7685   21.3972 H   0  0  0  0  0  0
  -33.2342  -22.7564   21.5045 H   0  0  0  0  0  0
  -31.8217  -22.4256   22.5175 H   0  0  0  0  0  0
  -31.1625  -20.0134   18.5363 H   0  0  0  0  0  0
  -32.0908  -18.6823   19.1877 H   0  0  0  0  0  0
  -32.9183  -20.1215   18.5967 H   0  0  0  0  0  0
  -31.0230  -15.9711   23.6423 H   0  0  0  0  0  0
  -32.0992  -14.6497   23.5167 H   0  0  0  0  0  0
  -34.0262  -20.5379   20.9281 H   0  0  0  0  0  0
  -33.0090  -20.4551   22.3485 H   0  0  0  0  0  0
  -29.8337  -23.0672   18.5474 H   0  0  0  0  0  0
  -28.3590  -22.8265   19.4200 H   0  0  0  0  0  0
  -30.4516  -24.9617   19.8836 H   0  0  0  0  0  0
  -29.4571  -24.4560   21.2383 H   0  0  0  0  0  0
  -29.5996  -21.0115   19.9807 H   0  0  0  0  0  0
  -29.6233  -21.9696   21.4150 H   0  0  0  0  0  0
  -27.4295  -24.8772   20.0332 H   0  0  0  0  0  0
  -28.2850  -25.3405   18.5611 H   0  0  0  0  0  0
  -31.9469  -22.2230   19.4683 H   0  0  0  0  0  0
  -29.8629  -14.3312   22.4813 H   0  0  0  0  0  0
  -31.1978  -19.9230   20.9636 H   0  0  0  0  0  0
  1 25  1  0  0  0
  1 30  2  0  0  0
  1 86  1  0  0  0
  2  3  1  0  0  0
  2 25  1  0  0  0
  2 90  1  0  0  0
  2 91  1  0  0  0
  3  4  1  0  0  0
  3 92  1  0  0  0
  3 93  1  0  0  0
  4  5  1  0  0  0
  4 94  1  0  0  0
  4 95  1  0  0  0
  5  6  1  0  0  0
  5 26  1  0  0  0
  5 96  1  0  0  0
  6 25  1  0  0  0
  6 97  1  0  0  0
  6 98  1  0  0  0
  7  8  2  0  0  0
  7 26  1  0  0  0
  7 29  1  0  0  0
  8  9  1  0  0  0
  8 22  1  0  0  0
  9 10  1  0  0  0
  9 27  2  0  0  0
 10 11  2  0  0  0
 10 15  1  0  0  0
 11 12  1  0  0  0
 11 99  1  0  0  0
 12 13  2  0  0  0
 12100  1  0  0  0
 13 14  1  0  0  0
 13 31  1  0  0  0
 14 15  2  0  0  0
 14101  1  0  0  0
 15102  1  0  0  0
 16 17  2  0  0  0
 16 21  1  0  0  0
 16 31  1  0  0  0
 17 18  1  0  0  0
 17103  1  0  0  0
 18 19  2  0  0  0
 18104  1  0  0  0
 19 20  1  0  0  0
 19 24  1  0  0  0
 20 21  2  0  0  0
 20105  1  0  0  0
 21 23  1  0  0  0
 22 28  1  0  0  0
 22 32  2  0  0  0
 26 27  1  0  0  0
 28106  1  0  0  0
 28107  1  0  0  0
 29108  1  0  0  0
 29109  1  0  0  0
 33 34  1  0  0  0
 33 66  1  0  0  0
 33 70  2  0  0  0
 34 36  1  0  0  0
 34 59  1  0  0  0
 34110  1  0  0  0
 35 44  2  0  0  0
 35 45  1  0  0  0
 35 68  1  0  0  0
 36 56  1  0  0  0
 36111  1  0  0  0
 37 39  1  0  0  0
 37 47  1  0  0  0
 37 66  1  0  0  0
 37112  1  0  0  0
 38 43  2  0  0  0
 38 46  1  0  0  0
 38 47  1  0  0  0
 39 64  1  0  0  0
 39 67  2  0  0  0
 40 52  1  0  0  0
 40 53  2  0  0  0
 40 58  1  0  0  0
 41113  1  0  0  0
 41114  1  0  0  0
 41115  1  0  0  0
 41 48  1  0  0  0
 42 43  1  0  0  0
 42 66  1  0  0  0
 42116  1  0  0  0
 42117  1  0  0  0
 43 44  1  0  0  0
 44118  1  0  0  0
 45 46  2  0  0  0
 45119  1  0  0  0
 46120  1  0  0  0
 47121  1  0  0  0
 47122  1  0  0  0
 48 56  1  0  0  0
 48 65  1  0  0  0
 48123  1  0  0  0
 49 50  1  0  0  0
 49 53  1  0  0  0
 49 64  1  0  0  0
 49124  1  0  0  0
 50 51  1  0  0  0
 50125  1  0  0  0
 50126  1  0  0  0
 51 52  1  0  0  0
 51127  1  0  0  0
 51128  1  0  0  0
 52129  1  0  0  0
 52130  1  0  0  0
 53 54  1  0  0  0
 54 55  2  0  0  0
 54131  1  0  0  0
 55 57  1  0  0  0
 55132  1  0  0  0
 56 69  2  0  0  0
 57 58  2  0  0  0
 57133  1  0  0  0
 58134  1  0  0  0
 59 60  1  0  0  0
 59 61  1  0  0  0
 59 62  1  0  0  0
 60135  1  0  0  0
 60136  1  0  0  0
 60137  1  0  0  0
 61138  1  0  0  0
 61139  1  0  0  0
 61140  1  0  0  0
 62141  1  0  0  0
 62142  1  0  0  0
 62143  1  0  0  0
 63 65  1  0  0  0
 63144  1  0  0  0
 63145  1  0  0  0
 63146  1  0  0  0
 64147  1  0  0  0
 65148  1  0  0  0
 68 84  1  0  0  0
 71 72  2  0  0  0
 71 73  1  0  0  0
 71149  1  0  0  0
 72 75  1  0  0  0
 72150  1  0  0  0
 73 76  2  0  0  0
 73 80  1  0  0  0
 74 75  2  0  0  0
 74 76  1  0  0  0
 74 79  1  0  0  0
 75 88  1  0  0  0
 76 89  1  0  0  0
 77151  1  0  0  0
 77152  1  0  0  0
 77153  1  0  0  0
 77 85  1  0  0  0
 78154  1  0  0  0
 78155  1  0  0  0
 78156  1  0  0  0
 78 87  1  0  0  0
 79 86  1  0  0  0
 79157  1  0  0  0
 79158  1  0  0  0
 80 87  1  0  0  0
 80159  1  0  0  0
 80160  1  0  0  0
 81 82  1  0  0  0
 81 83  1  0  0  0
 81161  1  0  0  0
 81162  1  0  0  0
 82 84  1  0  0  0
 82163  1  0  0  0
 82164  1  0  0  0
 83 85  1  0  0  0
 83165  1  0  0  0
 83166  1  0  0  0
 84167  1  0  0  0
 84168  1  0  0  0
 85 87  1  0  0  0
 85169  1  0  0  0
 86170  1  0  0  0
 87171  1  0  0  0
M  CHG  1  87   1
M  ISO  4   1 100  68 101  84 101  86 100
M  END
> <chiral flag>
0

> <version>
0

> <s_m_source_file>
/data/baiqing/PycharmProjects/Reinvent-master-3.2/result/LINK_invent/BTK/process_docking_weight1_custom_sum_contain_oxygen_bond_distance_aromatic_linkinvent_7_9_3/rearranged_h_0022.sdf

> <i_m_source_file_index>
89

> <r_mmod_Potential_Energy-OPLS-2005>
-149.367385864258

> <r_mmod_Stretch_Energy-OPLS-2005>
37.6855239868164

> <r_mmod_Bend_Energy-OPLS-2005>
110.695510864258

> <r_mmod_Torsional_Energy-OPLS-2005>
218.637878417969

> <r_mmod_Improper_Torsional_Energy-OPLS-2005>
4.78503608703613

> <r_mmod_Van_der_Waal_Energy-OPLS-2005>
171.508407592773

> <r_mmod_Electrostatic_Energy-OPLS-2005>
-283.319702148438

> <r_mmod_Solvation_Energy-OPLS-2005>
-420.267333984375

> <b_mmod_Minimization_Converged-OPLS-2005>
0

> <r_mmod_RMS_Derivative-OPLS-2005>
1.53907585144043

$$$$
89
                    3D
 Structure written by MMmdl.
162170  0  0  1  0            999 V2000
  -30.5436  -14.8493   20.4455 C   0  0  0  0  0  0
  -30.4521  -12.5223   19.4802 C   0  0  0  0  0  0
  -29.5196  -12.5222   18.2448 C   0  0  0  0  0  0
  -28.0480  -12.3232   18.6603 C   0  0  0  0  0  0
  -27.6404  -13.2268   19.8534 C   0  0  2  0  0  0
  -28.6895  -13.1827   20.9864 C   0  0  0  0  0  0
  -25.2505  -13.8129   20.5746 C   0  0  0  0  0  0
  -24.1784  -13.0388   20.9217 C   0  0  0  0  0  0
  -24.6377  -11.6875   20.8742 C   0  0  0  0  0  0
  -23.9042  -10.4270   21.0395 C   0  0  0  0  0  0
  -24.3591   -9.4200   21.9183 C   0  0  0  0  0  0
  -23.6274   -8.2236   22.0746 C   0  0  0  0  0  0
  -22.4259   -8.0273   21.3533 C   0  0  0  0  0  0
  -21.9887   -9.0243   20.4632 C   0  0  0  0  0  0
  -22.7209  -10.2123   20.3044 C   0  0  0  0  0  0
  -21.6845   -6.0737   22.5280 C   0  0  0  0  0  0
  -21.4010   -6.5638   23.8215 C   0  0  0  0  0  0
  -21.3661   -5.6789   24.9173 C   0  0  0  0  0  0
  -21.6046   -4.3054   24.7223 C   0  0  0  0  0  0
  -21.8819   -3.8150   23.4345 C   0  0  0  0  0  0
  -21.9186   -4.6966   22.3402 C   0  0  0  0  0  0
  -22.7813  -13.5207   21.1868 C   0  0  0  0  0  0
  -22.1648   -4.2157   21.0978 F   0  0  0  0  0  0
  -21.5637   -3.4533   25.7734 F   0  0  0  0  0  0
  -29.9801  -13.5837   20.4038 N   0  0  0  0  0  0
  -26.2930  -12.9341   20.3308 N   0  0  0  0  0  0
  -25.9314  -11.6488   20.5751 N   0  0  0  0  0  0
  -22.0434  -12.8224   22.0418 N   0  0  0  0  0  0
  -25.4144  -15.1849   20.4249 N   0  0  0  0  0  0
  -31.7360  -14.9885   20.1496 O   0  0  0  0  0  0
  -21.6620   -6.8874   21.4237 O   0  0  0  0  0  0
  -22.3516  -14.5518   20.6709 O   0  0  0  0  0  0
  -24.6390  -31.8494   23.1951 C   0  0  0  0  0  0
  -25.9190  -32.4725   23.8310 C   0  0  1  0  0  0
  -27.2202  -27.1952   20.1418 C   0  0  0  0  0  0
  -25.5967  -33.8529   24.2234 N   0  0  0  0  0  0
  -23.4391  -30.4721   21.5409 C   0  0  2  0  0  0
  -24.8874  -28.9111   20.1132 C   0  0  0  0  0  0
  -22.7537  -29.4579   22.4901 C   0  0  0  0  0  0
  -18.0292  -28.1394   22.8484 C   0  0  0  0  0  0
  -24.1487  -36.7259   23.2645 C   0  0  0  0  0  0
  -25.9917  -30.7407   21.3876 C   0  0  0  0  0  0
  -26.0635  -29.3582   20.7289 C   0  0  0  0  0  0
  -27.2318  -28.5162   20.7283 C   0  0  0  0  0  0
  -26.0211  -26.8459   19.4775 C   0  0  0  0  0  0
  -24.8759  -27.6652   19.4730 C   0  0  0  0  0  0
  -23.6610  -29.8047   20.1589 C   0  0  0  0  0  0
  -25.4117  -36.3049   24.0326 C   0  0  1  0  0  0
  -20.5901  -28.3713   23.1244 C   0  0  2  0  0  0
  -20.6784  -26.9423   22.5401 C   0  0  0  0  0  0
  -19.5759  -26.6380   21.5210 C   0  0  0  0  0  0
  -18.1938  -26.7940   22.1615 C   0  0  0  0  0  0
  -19.1549  -28.8869   23.2859 C   0  0  0  0  0  0
  -18.9470  -30.1468   23.8881 C   0  0  0  0  0  0
  -17.6468  -30.6598   24.0553 C   0  0  0  0  0  0
  -25.9067  -34.9424   23.5080 C   0  0  0  0  0  0
  -16.5358  -29.9087   23.6341 C   0  0  0  0  0  0
  -16.7274  -28.6501   23.0368 C   0  0  0  0  0  0
  -26.4532  -31.6576   25.0729 C   0  0  0  0  0  0
  -25.3729  -31.3740   26.1429 C   0  0  0  0  0  0
  -27.0408  -30.2986   24.6283 C   0  0  0  0  0  0
  -27.6069  -32.4339   25.7512 C   0  0  0  0  0  0
  -27.5576  -37.1786   24.8469 C   0  0  0  0  0  0
  -21.4235  -29.3055   22.3636 N   0  0  0  0  0  0
  -26.4285  -37.3761   23.9414 N   0  0  0  0  0  0
  -24.7096  -31.0395   22.0971 N   0  0  0  0  0  0
  -23.4199  -28.8120   23.3032 O   0  0  0  0  0  0
  -28.2890  -26.2426   20.1904 O   0  0  0  0  0  0
  -26.5624  -34.8910   22.4642 O   0  0  0  0  0  0
  -23.5520  -32.1348   23.7199 O   0  0  0  0  0  0
  -28.4010  -19.5144   19.7499 C   0  0  0  0  0  0
  -30.4680  -18.3803   21.1840 C   0  0  0  0  0  0
  -28.6526  -18.0955   19.6935 C   0  0  0  0  0  0
  -29.0928  -20.4592   20.5780 C   0  0  0  0  0  0
  -29.6655  -17.4362   20.4643 C   0  0  0  0  0  0
  -30.2151  -19.8142   21.2288 C   0  0  0  0  0  0
  -27.7457  -17.2954   18.7753 C   0  0  0  0  0  0
  -29.4372  -23.2425   18.8604 C   0  0  0  0  0  0
  -28.4431  -22.1208   22.4583 C   0  0  0  0  0  0
  -26.9356  -21.8719   20.5615 C   0  0  0  0  0  0
  -27.9646  -24.7570   20.4051 C   0  0  0  0  0  0
  -28.9585  -23.4191   20.3079 C   0  0  1  0  0  0
  -28.4436  -21.9516   20.9199 C   0  0  0  0  0  0
  -29.6676  -15.9291   20.6273 N   0  0  0  0  0  0
  -31.3416  -20.7471   22.1494 Cl  0  0  0  0  0  0
  -31.4849  -12.6901   19.1697 H   0  0  0  0  0  0
  -30.4436  -11.5497   19.9751 H   0  0  0  0  0  0
  -29.8199  -11.7416   17.5445 H   0  0  0  0  0  0
  -29.6225  -13.4671   17.7092 H   0  0  0  0  0  0
  -27.9233  -11.2747   18.9332 H   0  0  0  0  0  0
  -27.3860  -12.4960   17.8107 H   0  0  0  0  0  0
  -27.6208  -14.2415   19.4623 H   0  0  0  0  0  0
  -28.7538  -12.1815   21.4146 H   0  0  0  0  0  0
  -28.4062  -13.8452   21.8061 H   0  0  0  0  0  0
  -25.2725   -9.5696   22.4768 H   0  0  0  0  0  0
  -23.9986   -7.4630   22.7465 H   0  0  0  0  0  0
  -21.0820   -8.8748   19.8945 H   0  0  0  0  0  0
  -22.3650  -10.9659   19.6162 H   0  0  0  0  0  0
  -21.1997   -7.6142   23.9727 H   0  0  0  0  0  0
  -21.1481   -6.0510   25.9078 H   0  0  0  0  0  0
  -22.0598   -2.7615   23.2836 H   0  0  0  0  0  0
  -22.4011  -11.9872   22.4815 H   0  0  0  0  0  0
  -21.1064  -13.1297   22.2624 H   0  0  0  0  0  0
  -24.6395  -15.8279   20.5447 H   0  0  0  0  0  0
  -26.2591  -15.6363   20.1061 H   0  0  0  0  0  0
  -26.7256  -32.5348   23.1042 H   0  0  0  0  0  0
  -25.0145  -33.9657   25.0404 H   0  0  0  0  0  0
  -22.7402  -31.2977   21.3908 H   0  0  0  0  0  0
  -23.3767  -35.9576   23.3292 H   0  0  0  0  0  0
  -24.3580  -36.8898   22.2065 H   0  0  0  0  0  0
  -23.7219  -37.6448   23.6674 H   0  0  0  0  0  0
  -26.1410  -31.4971   20.6164 H   0  0  0  0  0  0
  -26.8653  -30.7878   22.0257 H   0  0  0  0  0  0
  -28.1282  -28.8560   21.2273 H   0  0  0  0  0  0
  -25.9300  -25.9130   18.9455 H   0  0  0  0  0  0
  -23.9823  -27.3218   18.9701 H   0  0  0  0  0  0
  -23.7906  -30.5806   19.4040 H   0  0  0  0  0  0
  -22.7780  -29.2416   19.8510 H   0  0  0  0  0  0
  -25.1303  -36.1891   25.0820 H   0  0  0  0  0  0
  -20.9980  -28.3296   24.1367 H   0  0  0  0  0  0
  -20.5687  -26.2325   23.3622 H   0  0  0  0  0  0
  -21.6649  -26.7453   22.1180 H   0  0  0  0  0  0
  -19.6916  -25.6283   21.1259 H   0  0  0  0  0  0
  -19.6693  -27.3178   20.6734 H   0  0  0  0  0  0
  -17.4208  -26.6692   21.4017 H   0  0  0  0  0  0
  -18.0324  -26.0081   22.9006 H   0  0  0  0  0  0
  -19.7949  -30.7284   24.2242 H   0  0  0  0  0  0
  -17.5029  -31.6285   24.5152 H   0  0  0  0  0  0
  -15.5362  -30.2981   23.7693 H   0  0  0  0  0  0
  -15.8670  -28.0811   22.7107 H   0  0  0  0  0  0
  -24.5930  -30.7066   25.7742 H   0  0  0  0  0  0
  -24.8894  -32.2910   26.4803 H   0  0  0  0  0  0
  -25.8025  -30.8950   27.0235 H   0  0  0  0  0  0
  -26.3025  -29.6706   24.1285 H   0  0  0  0  0  0
  -27.4044  -29.7284   25.4841 H   0  0  0  0  0  0
  -27.8914  -30.4249   23.9583 H   0  0  0  0  0  0
  -27.2672  -33.3662   26.2030 H   0  0  0  0  0  0
  -28.3907  -32.6863   25.0359 H   0  0  0  0  0  0
  -28.0702  -31.8504   26.5477 H   0  0  0  0  0  0
  -28.2582  -38.0096   24.7529 H   0  0  0  0  0  0
  -28.1083  -36.2625   24.6275 H   0  0  0  0  0  0
  -27.2291  -37.1403   25.8873 H   0  0  0  0  0  0
  -20.9441  -29.8770   21.6819 H   0  0  0  0  0  0
  -26.0158  -38.2832   24.1424 H   0  0  0  0  0  0
  -27.5664  -19.8611   19.1612 H   0  0  0  0  0  0
  -31.2816  -17.9980   21.7842 H   0  0  0  0  0  0
  -27.6624  -17.7926   17.8082 H   0  0  0  0  0  0
  -26.7441  -17.2320   19.1973 H   0  0  0  0  0  0
  -28.1170  -16.2910   18.5807 H   0  0  0  0  0  0
  -29.8765  -24.1650   18.4801 H   0  0  0  0  0  0
  -28.6145  -22.9685   18.1998 H   0  0  0  0  0  0
  -30.1945  -22.4618   18.7885 H   0  0  0  0  0  0
  -28.0837  -21.2217   22.9602 H   0  0  0  0  0  0
  -27.8028  -22.9407   22.7837 H   0  0  0  0  0  0
  -29.4284  -22.3506   22.8548 H   0  0  0  0  0  0
  -26.4673  -20.9832   20.9875 H   0  0  0  0  0  0
  -26.7712  -21.8586   19.4843 H   0  0  0  0  0  0
  -26.3616  -22.7117   20.9511 H   0  0  0  0  0  0
  -27.5249  -24.7415   21.4015 H   0  0  0  0  0  0
  -27.1459  -24.5001   19.7414 H   0  0  0  0  0  0
  -29.8557  -23.6745   20.8741 H   0  0  0  0  0  0
  -28.7375  -15.5688   20.7720 H   0  0  0  0  0  0
  1 25  1  0  0  0
  1 30  2  0  0  0
  1 84  1  0  0  0
  2  3  1  0  0  0
  2 25  1  0  0  0
  2 86  1  0  0  0
  2 87  1  0  0  0
  3  4  1  0  0  0
  3 88  1  0  0  0
  3 89  1  0  0  0
  4  5  1  0  0  0
  4 90  1  0  0  0
  4 91  1  0  0  0
  5  6  1  0  0  0
  5 26  1  0  0  0
  5 92  1  0  0  0
  6 25  1  0  0  0
  6 93  1  0  0  0
  6 94  1  0  0  0
  7  8  2  0  0  0
  7 26  1  0  0  0
  7 29  1  0  0  0
  8  9  1  0  0  0
  8 22  1  0  0  0
  9 10  1  0  0  0
  9 27  2  0  0  0
 10 11  2  0  0  0
 10 15  1  0  0  0
 11 12  1  0  0  0
 11 95  1  0  0  0
 12 13  2  0  0  0
 12 96  1  0  0  0
 13 14  1  0  0  0
 13 31  1  0  0  0
 14 15  2  0  0  0
 14 97  1  0  0  0
 15 98  1  0  0  0
 16 17  2  0  0  0
 16 21  1  0  0  0
 16 31  1  0  0  0
 17 18  1  0  0  0
 17 99  1  0  0  0
 18 19  2  0  0  0
 18100  1  0  0  0
 19 20  1  0  0  0
 19 24  1  0  0  0
 20 21  2  0  0  0
 20101  1  0  0  0
 21 23  1  0  0  0
 22 28  1  0  0  0
 22 32  2  0  0  0
 26 27  1  0  0  0
 28102  1  0  0  0
 28103  1  0  0  0
 29104  1  0  0  0
 29105  1  0  0  0
 33 34  1  0  0  0
 33 66  1  0  0  0
 33 70  2  0  0  0
 34 36  1  0  0  0
 34 59  1  0  0  0
 34106  1  0  0  0
 35 44  2  0  0  0
 35 45  1  0  0  0
 35 68  1  0  0  0
 36 56  1  0  0  0
 36107  1  0  0  0
 37 39  1  0  0  0
 37 47  1  0  0  0
 37 66  1  0  0  0
 37108  1  0  0  0
 38 43  2  0  0  0
 38 46  1  0  0  0
 38 47  1  0  0  0
 39 64  1  0  0  0
 39 67  2  0  0  0
 40 52  1  0  0  0
 40 53  2  0  0  0
 40 58  1  0  0  0
 41109  1  0  0  0
 41110  1  0  0  0
 41111  1  0  0  0
 41 48  1  0  0  0
 42 43  1  0  0  0
 42 66  1  0  0  0
 42112  1  0  0  0
 42113  1  0  0  0
 43 44  1  0  0  0
 44114  1  0  0  0
 45 46  2  0  0  0
 45115  1  0  0  0
 46116  1  0  0  0
 47117  1  0  0  0
 47118  1  0  0  0
 48 56  1  0  0  0
 48 65  1  0  0  0
 48119  1  0  0  0
 49 50  1  0  0  0
 49 53  1  0  0  0
 49 64  1  0  0  0
 49120  1  0  0  0
 50 51  1  0  0  0
 50121  1  0  0  0
 50122  1  0  0  0
 51 52  1  0  0  0
 51123  1  0  0  0
 51124  1  0  0  0
 52125  1  0  0  0
 52126  1  0  0  0
 53 54  1  0  0  0
 54 55  2  0  0  0
 54127  1  0  0  0
 55 57  1  0  0  0
 55128  1  0  0  0
 56 69  2  0  0  0
 57 58  2  0  0  0
 57129  1  0  0  0
 58130  1  0  0  0
 59 60  1  0  0  0
 59 61  1  0  0  0
 59 62  1  0  0  0
 60131  1  0  0  0
 60132  1  0  0  0
 60133  1  0  0  0
 61134  1  0  0  0
 61135  1  0  0  0
 61136  1  0  0  0
 62137  1  0  0  0
 62138  1  0  0  0
 62139  1  0  0  0
 63 65  1  0  0  0
 63140  1  0  0  0
 63141  1  0  0  0
 63142  1  0  0  0
 64143  1  0  0  0
 65144  1  0  0  0
 68 81  1  0  0  0
 71 73  2  0  0  0
 71 74  1  0  0  0
 71145  1  0  0  0
 72 75  2  0  0  0
 72 76  1  0  0  0
 72146  1  0  0  0
 73 75  1  0  0  0
 73 77  1  0  0  0
 74 76  2  0  0  0
 74 83  1  0  0  0
 75 84  1  0  0  0
 76 85  1  0  0  0
 77147  1  0  0  0
 77148  1  0  0  0
 77149  1  0  0  0
 78150  1  0  0  0
 78151  1  0  0  0
 78152  1  0  0  0
 78 82  1  0  0  0
 79153  1  0  0  0
 79154  1  0  0  0
 79155  1  0  0  0
 79 83  1  0  0  0
 80 83  1  0  0  0
 80156  1  0  0  0
 80157  1  0  0  0
 80158  1  0  0  0
 81 82  1  0  0  0
 81159  1  0  0  0
 81160  1  0  0  0
 82 83  1  0  0  0
 82161  1  0  0  0
 84162  1  0  0  0
M  ISO  4   1 100  68 101  81 101  84 100
M  END
> <chiral flag>
0

> <version>
0

> <s_m_source_file>
/data/baiqing/PycharmProjects/Reinvent-master-3.2/result/LINK_invent/BTK/process_docking_weight1_custom_sum_contain_oxygen_bond_distance_aromatic_linkinvent_7_9_3/rearranged_h_0022.sdf

> <i_m_source_file_index>
90

> <r_mmod_Potential_Energy-OPLS-2005>
435.367401123047

> <r_mmod_Stretch_Energy-OPLS-2005>
199.825942993164

> <r_mmod_Bend_Energy-OPLS-2005>
245.68603515625

> <r_mmod_Torsional_Energy-OPLS-2005>
274.431671142578

> <r_mmod_Improper_Torsional_Energy-OPLS-2005>
7.83859443664551

> <r_mmod_Van_der_Waal_Energy-OPLS-2005>
145.246673583984

> <r_mmod_Electrostatic_Energy-OPLS-2005>
-374.005401611328

> <r_mmod_Solvation_Energy-OPLS-2005>
-199.501602172852

> <b_mmod_Minimization_Converged-OPLS-2005>
0

> <r_mmod_RMS_Derivative-OPLS-2005>
1.32446539402008

$$$$
90
                    3D
 Structure written by MMmdl.
187195  0  0  1  0            999 V2000
  -30.8715  -14.2304   20.7937 C   0  0  0  0  0  0
  -30.4026  -12.2902   19.3630 C   0  0  0  0  0  0
  -29.4619  -12.5423   18.1776 C   0  0  0  0  0  0
  -27.9967  -12.3818   18.6104 C   0  0  0  0  0  0
  -27.6636  -13.2091   19.8776 C   0  0  2  0  0  0
  -28.7043  -12.9769   20.9964 C   0  0  0  0  0  0
  -25.2584  -13.8181   20.5701 C   0  0  0  0  0  0
  -24.1830  -13.0450   20.9184 C   0  0  0  0  0  0
  -24.6392  -11.6927   20.8744 C   0  0  0  0  0  0
  -23.9065  -10.4306   21.0411 C   0  0  0  0  0  0
  -24.3618   -9.4214   21.9175 C   0  0  0  0  0  0
  -23.6301   -8.2241   22.0752 C   0  0  0  0  0  0
  -22.4274   -8.0279   21.3556 C   0  0  0  0  0  0
  -21.9911   -9.0257   20.4648 C   0  0  0  0  0  0
  -22.7247  -10.2139   20.3053 C   0  0  0  0  0  0
  -21.6845   -6.0729   22.5285 C   0  0  0  0  0  0
  -21.4011   -6.5637   23.8217 C   0  0  0  0  0  0
  -21.3659   -5.6790   24.9181 C   0  0  0  0  0  0
  -21.6046   -4.3053   24.7227 C   0  0  0  0  0  0
  -21.8821   -3.8143   23.4349 C   0  0  0  0  0  0
  -21.9197   -4.6955   22.3398 C   0  0  0  0  0  0
  -22.7850  -13.5235   21.1844 C   0  0  0  0  0  0
  -22.1665   -4.2146   21.0976 F   0  0  0  0  0  0
  -21.5636   -3.4543   25.7742 F   0  0  0  0  0  0
  -30.0578  -13.2058   20.4570 N   0  0  0  0  0  0
  -26.3038  -12.9360   20.3406 N   0  0  0  0  0  0
  -25.9315  -11.6517   20.5765 N   0  0  0  0  0  0
  -22.0483  -12.8227   22.0386 N   0  0  0  0  0  0
  -25.4283  -15.1898   20.4115 N   0  0  0  0  0  0
  -31.7399  -14.6932   20.0459 O   0  0  0  0  0  0
  -21.6650   -6.8872   21.4240 O   0  0  0  0  0  0
  -22.3551  -14.5555   20.6698 O   0  0  0  0  0  0
  -24.6106  -31.8717   23.2136 C   0  0  0  0  0  0
  -25.9015  -32.4854   23.8428 C   0  0  1  0  0  0
  -27.2481  -27.4736   20.0942 C   0  0  0  0  0  0
  -25.5858  -33.8646   24.2335 N   0  0  0  0  0  0
  -23.3988  -30.4934   21.5544 C   0  0  2  0  0  0
  -24.8481  -28.9623   20.1216 C   0  0  0  0  0  0
  -22.7393  -29.4664   22.5028 C   0  0  0  0  0  0
  -18.0273  -28.1400   22.8506 C   0  0  0  0  0  0
  -24.1471  -36.7320   23.2638 C   0  0  0  0  0  0
  -25.9218  -30.8464   21.3635 C   0  0  0  0  0  0
  -26.0027  -29.4794   20.7222 C   0  0  0  0  0  0
  -27.2025  -28.7395   20.7195 C   0  0  0  0  0  0
  -26.0821  -26.9676   19.4849 C   0  0  0  0  0  0
  -24.8782  -27.6984   19.5056 C   0  0  0  0  0  0
  -23.6060  -29.8233   20.1702 C   0  0  0  0  0  0
  -25.4086  -36.3114   24.0332 C   0  0  1  0  0  0
  -20.5860  -28.3663   23.1350 C   0  0  2  0  0  0
  -20.6757  -26.9401   22.5430 C   0  0  0  0  0  0
  -19.5729  -26.6403   21.5222 C   0  0  0  0  0  0
  -18.1914  -26.7958   22.1626 C   0  0  0  0  0  0
  -19.1524  -28.8851   23.2938 C   0  0  0  0  0  0
  -18.9450  -30.1464   23.8937 C   0  0  0  0  0  0
  -17.6450  -30.6593   24.0589 C   0  0  0  0  0  0
  -25.9031  -34.9487   23.5133 C   0  0  0  0  0  0
  -16.5339  -29.9099   23.6336 C   0  0  0  0  0  0
  -16.7269  -28.6528   23.0342 C   0  0  0  0  0  0
  -26.4454  -31.6640   25.0749 C   0  0  0  0  0  0
  -25.3728  -31.3724   26.1514 C   0  0  0  0  0  0
  -27.0286  -30.3096   24.6106 C   0  0  0  0  0  0
  -27.6065  -32.4351   25.7459 C   0  0  0  0  0  0
  -27.5582  -37.1780   24.8436 C   0  0  0  0  0  0
  -21.4128  -29.3024   22.3748 N   0  0  0  0  0  0
  -26.4258  -37.3812   23.9439 N   0  0  0  0  0  0
  -24.6617  -31.0847   22.1029 N   0  0  0  0  0  0
  -23.4172  -28.8223   23.3079 O   0  0  0  0  0  0
  -28.3834  -26.7047   20.0058 O   0  0  0  0  0  0
  -26.5624  -34.8923   22.4711 O   0  0  0  0  0  0
  -23.5309  -32.1468   23.7539 O   0  0  0  0  0  0
  -29.9441  -20.2742   26.5881 C   0  0  0  0  0  0
  -27.1562  -20.7407   26.5441 C   0  0  0  0  0  0
  -29.4540  -21.5884   26.7707 C   0  0  0  0  0  0
  -29.0580  -19.1971   26.3615 C   0  0  0  0  0  0
  -28.0563  -21.8168   26.7438 C   0  0  0  0  0  0
  -27.6641  -19.4341   26.3490 C   0  0  0  0  0  0
  -25.6502  -20.9703   26.5117 C   0  0  0  0  0  0
  -33.0807  -26.0850   23.4916 C   0  0  0  0  0  0
  -33.0835  -25.6905   24.9780 C   0  0  0  0  0  0
  -31.7514  -26.6826   23.0003 C   0  0  0  0  0  0
  -32.2659  -24.4229   25.2775 C   0  0  0  0  0  0
  -31.7946  -27.0146   21.4971 C   0  0  0  0  0  0
  -32.4235  -23.9437   26.7315 C   0  0  0  0  0  0
  -30.7144  -16.3980   24.5506 C   0  0  0  0  0  0
  -31.8179  -16.3472   23.4847 C   0  0  0  0  0  0
  -30.4862  -27.5880   20.9197 C   0  0  0  0  0  0
  -31.7566  -22.5841   26.9868 C   0  0  0  0  0  0
  -30.6550  -17.7792   25.2146 C   0  0  0  0  0  0
  -32.0365  -14.9609   22.8659 C   0  0  0  0  0  0
  -29.2681  -26.6692   21.1208 C   0  0  0  0  0  0
  -30.3041  -22.6919   26.9655 N   0  0  0  0  0  0
  -29.5291  -17.8937   26.1323 N   0  0  0  0  0  0
  -30.8823  -14.4673   22.1121 N   0  0  0  0  0  0
  -27.4677  -23.4381   26.9433 Cl  0  0  0  0  0  0
  -26.5819  -18.1085   26.0624 Cl  0  0  0  0  0  0
  -31.4403  -12.4003   19.0423 H   0  0  0  0  0  0
  -30.3093  -11.2612   19.7140 H   0  0  0  0  0  0
  -29.6873  -11.8535   17.3638 H   0  0  0  0  0  0
  -29.6236  -13.5458   17.7822 H   0  0  0  0  0  0
  -27.8150  -11.3213   18.7935 H   0  0  0  0  0  0
  -27.3326  -12.6658   17.7936 H   0  0  0  0  0  0
  -27.7170  -14.2603   19.5945 H   0  0  0  0  0  0
  -28.6329  -11.9579   21.3812 H   0  0  0  0  0  0
  -28.4736  -13.6371   21.8335 H   0  0  0  0  0  0
  -25.2759   -9.5697   22.4750 H   0  0  0  0  0  0
  -24.0027   -7.4631   22.7458 H   0  0  0  0  0  0
  -21.0852   -8.8767   19.8941 H   0  0  0  0  0  0
  -22.3698  -10.9675   19.6168 H   0  0  0  0  0  0
  -21.1982   -7.6145   23.9725 H   0  0  0  0  0  0
  -21.1485   -6.0514   25.9090 H   0  0  0  0  0  0
  -22.0591   -2.7602   23.2852 H   0  0  0  0  0  0
  -22.4110  -11.9896   22.4786 H   0  0  0  0  0  0
  -21.1095  -13.1238   22.2607 H   0  0  0  0  0  0
  -24.6651  -15.8466   20.5298 H   0  0  0  0  0  0
  -26.2911  -15.6319   20.1181 H   0  0  0  0  0  0
  -26.7098  -32.5581   23.1207 H   0  0  0  0  0  0
  -24.9936  -33.9835   25.0423 H   0  0  0  0  0  0
  -22.6874  -31.3098   21.4159 H   0  0  0  0  0  0
  -23.3735  -35.9649   23.3262 H   0  0  0  0  0  0
  -24.3601  -36.8991   22.2067 H   0  0  0  0  0  0
  -23.7202  -37.6492   23.6702 H   0  0  0  0  0  0
  -26.0264  -31.6082   20.5898 H   0  0  0  0  0  0
  -26.8124  -30.9084   21.9766 H   0  0  0  0  0  0
  -28.0875  -29.1551   21.1769 H   0  0  0  0  0  0
  -26.1088  -26.0033   18.9972 H   0  0  0  0  0  0
  -23.9922  -27.2935   19.0379 H   0  0  0  0  0  0
  -23.7134  -30.5983   19.4102 H   0  0  0  0  0  0
  -22.7301  -29.2422   19.8762 H   0  0  0  0  0  0
  -25.1232  -36.1956   25.0816 H   0  0  0  0  0  0
  -20.9984  -28.3231   24.1461 H   0  0  0  0  0  0
  -20.5657  -26.2265   23.3612 H   0  0  0  0  0  0
  -21.6634  -26.7465   22.1230 H   0  0  0  0  0  0
  -19.6891  -25.6319   21.1238 H   0  0  0  0  0  0
  -19.6659  -27.3225   20.6760 H   0  0  0  0  0  0
  -17.4183  -26.6739   21.4021 H   0  0  0  0  0  0
  -18.0285  -26.0090   22.9005 H   0  0  0  0  0  0
  -19.7925  -30.7292   24.2307 H   0  0  0  0  0  0
  -17.4992  -31.6277   24.5186 H   0  0  0  0  0  0
  -15.5341  -30.2995   23.7651 H   0  0  0  0  0  0
  -15.8678  -28.0855   22.7021 H   0  0  0  0  0  0
  -24.5867  -30.7117   25.7836 H   0  0  0  0  0  0
  -24.8946  -32.2865   26.5040 H   0  0  0  0  0  0
  -25.8077  -30.8822   27.0233 H   0  0  0  0  0  0
  -26.2817  -29.6841   24.1208 H   0  0  0  0  0  0
  -27.4125  -29.7351   25.4548 H   0  0  0  0  0  0
  -27.8614  -30.4447   23.9202 H   0  0  0  0  0  0
  -27.2747  -33.3653   26.2078 H   0  0  0  0  0  0
  -28.3816  -32.6923   25.0224 H   0  0  0  0  0  0
  -28.0807  -31.8456   26.5316 H   0  0  0  0  0  0
  -28.2537  -38.0138   24.7627 H   0  0  0  0  0  0
  -28.1140  -36.2697   24.6061 H   0  0  0  0  0  0
  -27.2369  -37.1214   25.8850 H   0  0  0  0  0  0
  -20.9280  -29.8721   21.6951 H   0  0  0  0  0  0
  -26.0125  -38.2867   24.1519 H   0  0  0  0  0  0
  -31.0052  -20.0800   26.6172 H   0  0  0  0  0  0
  -25.3483  -21.9251   26.9371 H   0  0  0  0  0  0
  -25.1313  -20.2027   27.0851 H   0  0  0  0  0  0
  -25.2892  -20.9298   25.4839 H   0  0  0  0  0  0
  -33.3399  -25.2146   22.8863 H   0  0  0  0  0  0
  -33.8750  -26.8138   23.3225 H   0  0  0  0  0  0
  -32.7289  -26.5233   25.5883 H   0  0  0  0  0  0
  -34.1185  -25.5167   25.2792 H   0  0  0  0  0  0
  -31.5178  -27.5809   23.5726 H   0  0  0  0  0  0
  -30.9464  -25.9747   23.1959 H   0  0  0  0  0  0
  -32.5858  -23.6257   24.6047 H   0  0  0  0  0  0
  -31.2110  -24.5979   25.0621 H   0  0  0  0  0  0
  -32.0593  -26.1143   20.9397 H   0  0  0  0  0  0
  -32.6009  -27.7251   21.3098 H   0  0  0  0  0  0
  -32.0377  -24.6959   27.4218 H   0  0  0  0  0  0
  -33.4871  -23.8483   26.9555 H   0  0  0  0  0  0
  -30.9004  -15.6327   25.3068 H   0  0  0  0  0  0
  -29.7540  -16.1615   24.0909 H   0  0  0  0  0  0
  -32.7570  -16.6658   23.9412 H   0  0  0  0  0  0
  -31.6068  -17.0698   22.6957 H   0  0  0  0  0  0
  -30.6354  -27.7440   19.8510 H   0  0  0  0  0  0
  -30.2889  -28.5748   21.3365 H   0  0  0  0  0  0
  -32.0628  -22.2012   27.9621 H   0  0  0  0  0  0
  -32.1130  -21.8748   26.2397 H   0  0  0  0  0  0
  -30.5798  -18.5463   24.4413 H   0  0  0  0  0  0
  -31.5837  -17.9648   25.7568 H   0  0  0  0  0  0
  -32.2583  -14.2386   23.6530 H   0  0  0  0  0  0
  -32.9297  -14.9892   22.2393 H   0  0  0  0  0  0
  -28.7624  -26.8790   22.0658 H   0  0  0  0  0  0
  -29.6011  -25.6332   21.1907 H   0  0  0  0  0  0
  -29.8759  -23.6051   27.0925 H   0  0  0  0  0  0
  -28.7744  -17.2310   25.9674 H   0  0  0  0  0  0
  -30.1623  -13.9961   22.6413 H   0  0  0  0  0  0
  1 25  1  0  0  0
  1 30  2  0  0  0
  1 93  1  0  0  0
  2  3  1  0  0  0
  2 25  1  0  0  0
  2 96  1  0  0  0
  2 97  1  0  0  0
  3  4  1  0  0  0
  3 98  1  0  0  0
  3 99  1  0  0  0
  4  5  1  0  0  0
  4100  1  0  0  0
  4101  1  0  0  0
  5  6  1  0  0  0
  5 26  1  0  0  0
  5102  1  0  0  0
  6 25  1  0  0  0
  6103  1  0  0  0
  6104  1  0  0  0
  7  8  2  0  0  0
  7 26  1  0  0  0
  7 29  1  0  0  0
  8  9  1  0  0  0
  8 22  1  0  0  0
  9 10  1  0  0  0
  9 27  2  0  0  0
 10 11  2  0  0  0
 10 15  1  0  0  0
 11 12  1  0  0  0
 11105  1  0  0  0
 12 13  2  0  0  0
 12106  1  0  0  0
 13 14  1  0  0  0
 13 31  1  0  0  0
 14 15  2  0  0  0
 14107  1  0  0  0
 15108  1  0  0  0
 16 17  2  0  0  0
 16 21  1  0  0  0
 16 31  1  0  0  0
 17 18  1  0  0  0
 17109  1  0  0  0
 18 19  2  0  0  0
 18110  1  0  0  0
 19 20  1  0  0  0
 19 24  1  0  0  0
 20 21  2  0  0  0
 20111  1  0  0  0
 21 23  1  0  0  0
 22 28  1  0  0  0
 22 32  2  0  0  0
 26 27  1  0  0  0
 28112  1  0  0  0
 28113  1  0  0  0
 29114  1  0  0  0
 29115  1  0  0  0
 33 34  1  0  0  0
 33 66  1  0  0  0
 33 70  2  0  0  0
 34 36  1  0  0  0
 34 59  1  0  0  0
 34116  1  0  0  0
 35 44  2  0  0  0
 35 45  1  0  0  0
 35 68  1  0  0  0
 36 56  1  0  0  0
 36117  1  0  0  0
 37 39  1  0  0  0
 37 47  1  0  0  0
 37 66  1  0  0  0
 37118  1  0  0  0
 38 43  2  0  0  0
 38 46  1  0  0  0
 38 47  1  0  0  0
 39 64  1  0  0  0
 39 67  2  0  0  0
 40 52  1  0  0  0
 40 53  2  0  0  0
 40 58  1  0  0  0
 41119  1  0  0  0
 41120  1  0  0  0
 41121  1  0  0  0
 41 48  1  0  0  0
 42 43  1  0  0  0
 42 66  1  0  0  0
 42122  1  0  0  0
 42123  1  0  0  0
 43 44  1  0  0  0
 44124  1  0  0  0
 45 46  2  0  0  0
 45125  1  0  0  0
 46126  1  0  0  0
 47127  1  0  0  0
 47128  1  0  0  0
 48 56  1  0  0  0
 48 65  1  0  0  0
 48129  1  0  0  0
 49 50  1  0  0  0
 49 53  1  0  0  0
 49 64  1  0  0  0
 49130  1  0  0  0
 50 51  1  0  0  0
 50131  1  0  0  0
 50132  1  0  0  0
 51 52  1  0  0  0
 51133  1  0  0  0
 51134  1  0  0  0
 52135  1  0  0  0
 52136  1  0  0  0
 53 54  1  0  0  0
 54 55  2  0  0  0
 54137  1  0  0  0
 55 57  1  0  0  0
 55138  1  0  0  0
 56 69  2  0  0  0
 57 58  2  0  0  0
 57139  1  0  0  0
 58140  1  0  0  0
 59 60  1  0  0  0
 59 61  1  0  0  0
 59 62  1  0  0  0
 60141  1  0  0  0
 60142  1  0  0  0
 60143  1  0  0  0
 61144  1  0  0  0
 61145  1  0  0  0
 61146  1  0  0  0
 62147  1  0  0  0
 62148  1  0  0  0
 62149  1  0  0  0
 63 65  1  0  0  0
 63150  1  0  0  0
 63151  1  0  0  0
 63152  1  0  0  0
 64153  1  0  0  0
 65154  1  0  0  0
 68 90  1  0  0  0
 71 73  2  0  0  0
 71 74  1  0  0  0
 71155  1  0  0  0
 72 75  2  0  0  0
 72 76  1  0  0  0
 72 77  1  0  0  0
 73 75  1  0  0  0
 73 91  1  0  0  0
 74 76  2  0  0  0
 74 92  1  0  0  0
 75 94  1  0  0  0
 76 95  1  0  0  0
 77156  1  0  0  0
 77157  1  0  0  0
 77158  1  0  0  0
 78 79  1  0  0  0
 78 80  1  0  0  0
 78159  1  0  0  0
 78160  1  0  0  0
 79 81  1  0  0  0
 79161  1  0  0  0
 79162  1  0  0  0
 80 82  1  0  0  0
 80163  1  0  0  0
 80164  1  0  0  0
 81 83  1  0  0  0
 81165  1  0  0  0
 81166  1  0  0  0
 82 86  1  0  0  0
 82167  1  0  0  0
 82168  1  0  0  0
 83 87  1  0  0  0
 83169  1  0  0  0
 83170  1  0  0  0
 84 85  1  0  0  0
 84 88  1  0  0  0
 84171  1  0  0  0
 84172  1  0  0  0
 85 89  1  0  0  0
 85173  1  0  0  0
 85174  1  0  0  0
 86 90  1  0  0  0
 86175  1  0  0  0
 86176  1  0  0  0
 87 91  1  0  0  0
 87177  1  0  0  0
 87178  1  0  0  0
 88 92  1  0  0  0
 88179  1  0  0  0
 88180  1  0  0  0
 89 93  1  0  0  0
 89181  1  0  0  0
 89182  1  0  0  0
 90183  1  0  0  0
 90184  1  0  0  0
 91185  1  0  0  0
 92186  1  0  0  0
 93187  1  0  0  0
M  ISO  4   1 100  68 101  90 101  93 100
M  END
> <chiral flag>
0

> <version>
0

> <s_m_source_file>
/data/baiqing/PycharmProjects/Reinvent-master-3.2/result/LINK_invent/BTK/process_docking_weight1_custom_sum_contain_oxygen_bond_distance_aromatic_linkinvent_7_9_3/rearranged_h_0022.sdf

> <i_m_source_file_index>
91

> <r_mmod_Potential_Energy-OPLS-2005>
1.3229364156723

> <r_mmod_Stretch_Energy-OPLS-2005>
33.1555328369141

> <r_mmod_Bend_Energy-OPLS-2005>
110.251899719238

> <r_mmod_Torsional_Energy-OPLS-2005>
231.973587036133

> <r_mmod_Improper_Torsional_Energy-OPLS-2005>
12.9753942489624

> <r_mmod_Van_der_Waal_Energy-OPLS-2005>
161.535415649414

> <r_mmod_Electrostatic_Energy-OPLS-2005>
-351.188903808594

> <r_mmod_Solvation_Energy-OPLS-2005>
-208.228561401367

> <b_mmod_Minimization_Converged-OPLS-2005>
0

> <r_mmod_RMS_Derivative-OPLS-2005>
2.39509248733521

$$$$
91
                    3D
 Structure written by MMmdl.
155163  0  0  1  0            999 V2000
  -30.5373  -14.8478   20.4551 C   0  0  0  0  0  0
  -30.4534  -12.5220   19.4824 C   0  0  0  0  0  0
  -29.5226  -12.5254   18.2460 C   0  0  0  0  0  0
  -28.0504  -12.3264   18.6588 C   0  0  0  0  0  0
  -27.6425  -13.2316   19.8497 C   0  0  2  0  0  0
  -28.6874  -13.1789   20.9864 C   0  0  0  0  0  0
  -25.2526  -13.8197   20.5682 C   0  0  0  0  0  0
  -24.1818  -13.0448   20.9217 C   0  0  0  0  0  0
  -24.6403  -11.6922   20.8753 C   0  0  0  0  0  0
  -23.9072  -10.4301   21.0414 C   0  0  0  0  0  0
  -24.3622   -9.4212   21.9189 C   0  0  0  0  0  0
  -23.6295   -8.2248   22.0757 C   0  0  0  0  0  0
  -22.4277   -8.0288   21.3546 C   0  0  0  0  0  0
  -21.9912   -9.0265   20.4650 C   0  0  0  0  0  0
  -22.7244  -10.2143   20.3063 C   0  0  0  0  0  0
  -21.6854   -6.0739   22.5279 C   0  0  0  0  0  0
  -21.4017   -6.5642   23.8213 C   0  0  0  0  0  0
  -21.3658   -5.6793   24.9173 C   0  0  0  0  0  0
  -21.6044   -4.3056   24.7223 C   0  0  0  0  0  0
  -21.8819   -3.8149   23.4343 C   0  0  0  0  0  0
  -21.9193   -4.6968   22.3400 C   0  0  0  0  0  0
  -22.7837  -13.5235   21.1868 C   0  0  0  0  0  0
  -22.1662   -4.2154   21.0976 F   0  0  0  0  0  0
  -21.5625   -3.4538   25.7734 F   0  0  0  0  0  0
  -29.9798  -13.5796   20.4100 N   0  0  0  0  0  0
  -26.2944  -12.9393   20.3258 N   0  0  0  0  0  0
  -25.9330  -11.6539   20.5741 N   0  0  0  0  0  0
  -22.0477  -12.8233   22.0424 N   0  0  0  0  0  0
  -25.4210  -15.1922   20.4064 N   0  0  0  0  0  0
  -31.7216  -14.9955   20.1363 O   0  0  0  0  0  0
  -21.6641   -6.8886   21.4241 O   0  0  0  0  0  0
  -22.3520  -14.5533   20.6705 O   0  0  0  0  0  0
  -24.6391  -31.8497   23.1937 C   0  0  0  0  0  0
  -25.9185  -32.4725   23.8306 C   0  0  1  0  0  0
  -27.2180  -27.1878   20.1372 C   0  0  0  0  0  0
  -25.5952  -33.8529   24.2223 N   0  0  0  0  0  0
  -23.4396  -30.4719   21.5393 C   0  0  2  0  0  0
  -24.8876  -28.9106   20.1127 C   0  0  0  0  0  0
  -22.7546  -29.4576   22.4886 C   0  0  0  0  0  0
  -18.0302  -28.1394   22.8477 C   0  0  0  0  0  0
  -24.1490  -36.7267   23.2641 C   0  0  0  0  0  0
  -25.9935  -30.7395   21.3861 C   0  0  0  0  0  0
  -26.0654  -29.3564   20.7260 C   0  0  0  0  0  0
  -27.2329  -28.5113   20.7222 C   0  0  0  0  0  0
  -26.0120  -26.8365   19.4871 C   0  0  0  0  0  0
  -24.8712  -27.6615   19.4798 C   0  0  0  0  0  0
  -23.6627  -29.8064   20.1569 C   0  0  0  0  0  0
  -25.4120  -36.3050   24.0320 C   0  0  1  0  0  0
  -20.5911  -28.3714   23.1245 C   0  0  2  0  0  0
  -20.6787  -26.9423   22.5402 C   0  0  0  0  0  0
  -19.5760  -26.6382   21.5211 C   0  0  0  0  0  0
  -18.1942  -26.7934   22.1623 C   0  0  0  0  0  0
  -19.1557  -28.8872   23.2854 C   0  0  0  0  0  0
  -18.9475  -30.1470   23.8877 C   0  0  0  0  0  0
  -17.6472  -30.6589   24.0560 C   0  0  0  0  0  0
  -25.9069  -34.9424   23.5078 C   0  0  0  0  0  0
  -16.5363  -29.9083   23.6334 C   0  0  0  0  0  0
  -16.7287  -28.6503   23.0351 C   0  0  0  0  0  0
  -26.4520  -31.6575   25.0727 C   0  0  0  0  0  0
  -25.3714  -31.3751   26.1427 C   0  0  0  0  0  0
  -27.0385  -30.2979   24.6281 C   0  0  0  0  0  0
  -27.6057  -32.4335   25.7506 C   0  0  0  0  0  0
  -27.5578  -37.1789   24.8464 C   0  0  0  0  0  0
  -21.4243  -29.3051   22.3628 N   0  0  0  0  0  0
  -26.4287  -37.3757   23.9408 N   0  0  0  0  0  0
  -24.7103  -31.0398   22.0950 N   0  0  0  0  0  0
  -23.4212  -28.8117   23.3012 O   0  0  0  0  0  0
  -28.2871  -26.2322   20.1856 O   0  0  0  0  0  0
  -26.5651  -34.8912   22.4654 O   0  0  0  0  0  0
  -23.5519  -32.1353   23.7182 O   0  0  0  0  0  0
  -29.0010  -20.4080   20.4052 C   0  0  0  0  0  0
  -30.0813  -19.8334   21.1688 C   0  0  0  0  0  0
  -28.3069  -19.4052   19.6416 C   0  0  0  0  0  0
  -29.6358  -17.4128   20.4890 C   0  0  0  0  0  0
  -30.3847  -18.4034   21.2054 C   0  0  0  0  0  0
  -28.5994  -17.9899   19.7003 C   0  0  0  0  0  0
  -30.8979  -20.7671   22.0455 C   0  0  0  0  0  0
  -28.3866  -21.9241   20.5964 C   0  0  0  0  0  0
  -28.9995  -23.4240   20.2590 C   0  0  0  0  0  0
  -27.9683  -24.7274   20.2396 C   0  0  0  0  0  0
  -27.2293  -19.7754   18.8350 N   0  0  0  0  0  0
  -29.6642  -15.9137   20.6915 N   0  0  0  0  0  0
  -31.3713  -17.9688   22.0270 F   0  0  0  0  0  0
  -27.7923  -17.1417   19.0110 F   0  0  0  0  0  0
  -31.4867  -12.6881   19.1736 H   0  0  0  0  0  0
  -30.4408  -11.5488   19.9754 H   0  0  0  0  0  0
  -29.8224  -11.7466   17.5436 H   0  0  0  0  0  0
  -29.6264  -13.4723   17.7141 H   0  0  0  0  0  0
  -27.9236  -11.2784   18.9328 H   0  0  0  0  0  0
  -27.3912  -12.5000   17.8076 H   0  0  0  0  0  0
  -27.6283  -14.2486   19.4574 H   0  0  0  0  0  0
  -28.7485  -12.1756   21.4109 H   0  0  0  0  0  0
  -28.4009  -13.8371   21.8081 H   0  0  0  0  0  0
  -25.2766   -9.5685   22.4764 H   0  0  0  0  0  0
  -24.0003   -7.4637   22.7475 H   0  0  0  0  0  0
  -21.0843   -8.8788   19.8957 H   0  0  0  0  0  0
  -22.3705  -10.9684   19.6175 H   0  0  0  0  0  0
  -21.2014   -7.6151   23.9716 H   0  0  0  0  0  0
  -21.1477   -6.0524   25.9075 H   0  0  0  0  0  0
  -22.0598   -2.7611   23.2842 H   0  0  0  0  0  0
  -22.4089  -11.9901   22.4823 H   0  0  0  0  0  0
  -21.1095  -13.1267   22.2621 H   0  0  0  0  0  0
  -24.6416  -15.8340   20.5010 H   0  0  0  0  0  0
  -26.2376  -15.6274   19.9948 H   0  0  0  0  0  0
  -26.7254  -32.5351   23.1041 H   0  0  0  0  0  0
  -25.0079  -33.9656   25.0356 H   0  0  0  0  0  0
  -22.7397  -31.2966   21.3896 H   0  0  0  0  0  0
  -23.3759  -35.9592   23.3292 H   0  0  0  0  0  0
  -24.3578  -36.8908   22.2058 H   0  0  0  0  0  0
  -23.7239  -37.6458   23.6683 H   0  0  0  0  0  0
  -26.1454  -31.4982   20.6172 H   0  0  0  0  0  0
  -26.8654  -30.7858   22.0268 H   0  0  0  0  0  0
  -28.1314  -28.8498   21.2190 H   0  0  0  0  0  0
  -25.9056  -25.8950   18.9744 H   0  0  0  0  0  0
  -23.9733  -27.3165   18.9857 H   0  0  0  0  0  0
  -23.7958  -30.5830   19.4028 H   0  0  0  0  0  0
  -22.7786  -29.2465   19.8465 H   0  0  0  0  0  0
  -25.1305  -36.1884   25.0811 H   0  0  0  0  0  0
  -21.0001  -28.3301   24.1366 H   0  0  0  0  0  0
  -20.5682  -26.2329   23.3618 H   0  0  0  0  0  0
  -21.6655  -26.7435   22.1201 H   0  0  0  0  0  0
  -19.6921  -25.6289   21.1252 H   0  0  0  0  0  0
  -19.6692  -27.3182   20.6733 H   0  0  0  0  0  0
  -17.4210  -26.6676   21.4029 H   0  0  0  0  0  0
  -18.0341  -26.0081   22.9023 H   0  0  0  0  0  0
  -19.7950  -30.7293   24.2235 H   0  0  0  0  0  0
  -17.5024  -31.6267   24.5166 H   0  0  0  0  0  0
  -15.5363  -30.2976   23.7671 H   0  0  0  0  0  0
  -15.8689  -28.0818   22.7072 H   0  0  0  0  0  0
  -24.5889  -30.7109   25.7743 H   0  0  0  0  0  0
  -24.8909  -32.2931   26.4822 H   0  0  0  0  0  0
  -25.8000  -30.8937   27.0225 H   0  0  0  0  0  0
  -26.2998  -29.6703   24.1283 H   0  0  0  0  0  0
  -27.4009  -29.7273   25.4842 H   0  0  0  0  0  0
  -27.8899  -30.4229   23.9588 H   0  0  0  0  0  0
  -27.2654  -33.3644   26.2053 H   0  0  0  0  0  0
  -28.3880  -32.6884   25.0345 H   0  0  0  0  0  0
  -28.0714  -31.8485   26.5446 H   0  0  0  0  0  0
  -28.2589  -38.0091   24.7519 H   0  0  0  0  0  0
  -28.1082  -36.2625   24.6281 H   0  0  0  0  0  0
  -27.2301  -37.1423   25.8868 H   0  0  0  0  0  0
  -20.9446  -29.8773   21.6820 H   0  0  0  0  0  0
  -26.0160  -38.2827   24.1411 H   0  0  0  0  0  0
  -31.1844  -21.6598   21.4897 H   0  0  0  0  0  0
  -31.8159  -20.2990   22.4006 H   0  0  0  0  0  0
  -30.3178  -21.0752   22.9156 H   0  0  0  0  0  0
  -28.1107  -21.9597   21.6505 H   0  0  0  0  0  0
  -27.4193  -21.9272   20.0999 H   0  0  0  0  0  0
  -29.4823  -23.3798   19.2828 H   0  0  0  0  0  0
  -29.8011  -23.6281   20.9683 H   0  0  0  0  0  0
  -27.3216  -24.6136   21.1104 H   0  0  0  0  0  0
  -27.3357  -24.5034   19.3849 H   0  0  0  0  0  0
  -26.7309  -20.6292   19.0523 H   0  0  0  0  0  0
  -26.6163  -19.0216   18.5394 H   0  0  0  0  0  0
  -28.7370  -15.5517   20.8445 H   0  0  0  0  0  0
  1 25  1  0  0  0
  1 30  2  0  0  0
  1 82  1  0  0  0
  2  3  1  0  0  0
  2 25  1  0  0  0
  2 85  1  0  0  0
  2 86  1  0  0  0
  3  4  1  0  0  0
  3 87  1  0  0  0
  3 88  1  0  0  0
  4  5  1  0  0  0
  4 89  1  0  0  0
  4 90  1  0  0  0
  5  6  1  0  0  0
  5 26  1  0  0  0
  5 91  1  0  0  0
  6 25  1  0  0  0
  6 92  1  0  0  0
  6 93  1  0  0  0
  7  8  2  0  0  0
  7 26  1  0  0  0
  7 29  1  0  0  0
  8  9  1  0  0  0
  8 22  1  0  0  0
  9 10  1  0  0  0
  9 27  2  0  0  0
 10 11  2  0  0  0
 10 15  1  0  0  0
 11 12  1  0  0  0
 11 94  1  0  0  0
 12 13  2  0  0  0
 12 95  1  0  0  0
 13 14  1  0  0  0
 13 31  1  0  0  0
 14 15  2  0  0  0
 14 96  1  0  0  0
 15 97  1  0  0  0
 16 17  2  0  0  0
 16 21  1  0  0  0
 16 31  1  0  0  0
 17 18  1  0  0  0
 17 98  1  0  0  0
 18 19  2  0  0  0
 18 99  1  0  0  0
 19 20  1  0  0  0
 19 24  1  0  0  0
 20 21  2  0  0  0
 20100  1  0  0  0
 21 23  1  0  0  0
 22 28  1  0  0  0
 22 32  2  0  0  0
 26 27  1  0  0  0
 28101  1  0  0  0
 28102  1  0  0  0
 29103  1  0  0  0
 29104  1  0  0  0
 33 34  1  0  0  0
 33 66  1  0  0  0
 33 70  2  0  0  0
 34 36  1  0  0  0
 34 59  1  0  0  0
 34105  1  0  0  0
 35 44  2  0  0  0
 35 45  1  0  0  0
 35 68  1  0  0  0
 36 56  1  0  0  0
 36106  1  0  0  0
 37 39  1  0  0  0
 37 47  1  0  0  0
 37 66  1  0  0  0
 37107  1  0  0  0
 38 43  2  0  0  0
 38 46  1  0  0  0
 38 47  1  0  0  0
 39 64  1  0  0  0
 39 67  2  0  0  0
 40 52  1  0  0  0
 40 53  2  0  0  0
 40 58  1  0  0  0
 41108  1  0  0  0
 41109  1  0  0  0
 41110  1  0  0  0
 41 48  1  0  0  0
 42 43  1  0  0  0
 42 66  1  0  0  0
 42111  1  0  0  0
 42112  1  0  0  0
 43 44  1  0  0  0
 44113  1  0  0  0
 45 46  2  0  0  0
 45114  1  0  0  0
 46115  1  0  0  0
 47116  1  0  0  0
 47117  1  0  0  0
 48 56  1  0  0  0
 48 65  1  0  0  0
 48118  1  0  0  0
 49 50  1  0  0  0
 49 53  1  0  0  0
 49 64  1  0  0  0
 49119  1  0  0  0
 50 51  1  0  0  0
 50120  1  0  0  0
 50121  1  0  0  0
 51 52  1  0  0  0
 51122  1  0  0  0
 51123  1  0  0  0
 52124  1  0  0  0
 52125  1  0  0  0
 53 54  1  0  0  0
 54 55  2  0  0  0
 54126  1  0  0  0
 55 57  1  0  0  0
 55127  1  0  0  0
 56 69  2  0  0  0
 57 58  2  0  0  0
 57128  1  0  0  0
 58129  1  0  0  0
 59 60  1  0  0  0
 59 61  1  0  0  0
 59 62  1  0  0  0
 60130  1  0  0  0
 60131  1  0  0  0
 60132  1  0  0  0
 61133  1  0  0  0
 61134  1  0  0  0
 61135  1  0  0  0
 62136  1  0  0  0
 62137  1  0  0  0
 62138  1  0  0  0
 63 65  1  0  0  0
 63139  1  0  0  0
 63140  1  0  0  0
 63141  1  0  0  0
 64142  1  0  0  0
 65143  1  0  0  0
 68 80  1  0  0  0
 71 72  2  0  0  0
 71 73  1  0  0  0
 71 78  1  0  0  0
 72 75  1  0  0  0
 72 77  1  0  0  0
 73 76  2  0  0  0
 73 81  1  0  0  0
 74 75  2  0  0  0
 74 76  1  0  0  0
 74 82  1  0  0  0
 75 83  1  0  0  0
 76 84  1  0  0  0
 77144  1  0  0  0
 77145  1  0  0  0
 77146  1  0  0  0
 78 79  1  0  0  0
 78147  1  0  0  0
 78148  1  0  0  0
 79 80  1  0  0  0
 79149  1  0  0  0
 79150  1  0  0  0
 80151  1  0  0  0
 80152  1  0  0  0
 81153  1  0  0  0
 81154  1  0  0  0
 82155  1  0  0  0
M  ISO  4   1 100  68 101  80 101  82 100
M  END
> <chiral flag>
0

> <version>
0

> <s_m_source_file>
/data/baiqing/PycharmProjects/Reinvent-master-3.2/result/LINK_invent/BTK/process_docking_weight1_custom_sum_contain_oxygen_bond_distance_aromatic_linkinvent_7_9_3/rearranged_h_0022.sdf

> <i_m_source_file_index>
92

> <r_mmod_Potential_Energy-OPLS-2005>
337.799011230469

> <r_mmod_Stretch_Energy-OPLS-2005>
186.676239013672

> <r_mmod_Bend_Energy-OPLS-2005>
238.885803222656

> <r_mmod_Torsional_Energy-OPLS-2005>
252.886535644531

> <r_mmod_Improper_Torsional_Energy-OPLS-2005>
12.7724323272705

> <r_mmod_Van_der_Waal_Energy-OPLS-2005>
137.971237182617

> <r_mmod_Electrostatic_Energy-OPLS-2005>
-419.601867675781

> <r_mmod_Solvation_Energy-OPLS-2005>
-209.381164550781

> <b_mmod_Minimization_Converged-OPLS-2005>
0

> <r_mmod_RMS_Derivative-OPLS-2005>
0.501973867416382

$$$$
92
                    3D
 Structure written by MMmdl.
170178  0  0  1  0            999 V2000
  -30.7351  -14.6329   20.4020 C   0  0  0  0  0  0
  -30.4303  -12.3816   19.4477 C   0  0  0  0  0  0
  -29.5118  -12.4685   18.2139 C   0  0  0  0  0  0
  -28.0305  -12.3397   18.6276 C   0  0  0  0  0  0
  -27.6505  -13.2387   19.8375 C   0  0  2  0  0  0
  -28.7110  -13.1880   20.9614 C   0  0  0  0  0  0
  -25.2567  -13.8211   20.5726 C   0  0  0  0  0  0
  -24.1833  -13.0421   20.9216 C   0  0  0  0  0  0
  -24.6445  -11.6926   20.8747 C   0  0  0  0  0  0
  -23.9079  -10.4292   21.0408 C   0  0  0  0  0  0
  -24.3628   -9.4221   21.9193 C   0  0  0  0  0  0
  -23.6306   -8.2245   22.0770 C   0  0  0  0  0  0
  -22.4283   -8.0291   21.3550 C   0  0  0  0  0  0
  -21.9921   -9.0259   20.4639 C   0  0  0  0  0  0
  -22.7250  -10.2140   20.3061 C   0  0  0  0  0  0
  -21.6826   -6.0762   22.5290 C   0  0  0  0  0  0
  -21.3996   -6.5646   23.8236 C   0  0  0  0  0  0
  -21.3672   -5.6786   24.9175 C   0  0  0  0  0  0
  -21.6087   -4.3059   24.7205 C   0  0  0  0  0  0
  -21.8812   -3.8158   23.4303 C   0  0  0  0  0  0
  -21.9175   -4.6992   22.3378 C   0  0  0  0  0  0
  -22.7857  -13.5221   21.1833 C   0  0  0  0  0  0
  -22.1648   -4.2201   21.0945 F   0  0  0  0  0  0
  -21.5628   -3.4522   25.7695 F   0  0  0  0  0  0
  -30.0217  -13.4697   20.3559 N   0  0  0  0  0  0
  -26.3029  -12.9449   20.3290 N   0  0  0  0  0  0
  -25.9389  -11.6577   20.5768 N   0  0  0  0  0  0
  -22.0429  -12.8265   22.0400 N   0  0  0  0  0  0
  -25.4118  -15.1931   20.4133 N   0  0  0  0  0  0
  -31.9464  -14.6485   20.1911 O   0  0  0  0  0  0
  -21.6607   -6.8915   21.4271 O   0  0  0  0  0  0
  -22.3559  -14.5516   20.6652 O   0  0  0  0  0  0
  -24.6149  -31.8695   23.2079 C   0  0  0  0  0  0
  -25.9047  -32.4830   23.8396 C   0  0  1  0  0  0
  -27.2371  -27.4552   20.0903 C   0  0  0  0  0  0
  -25.5899  -33.8623   24.2328 N   0  0  0  0  0  0
  -23.4049  -30.4932   21.5453 C   0  0  2  0  0  0
  -24.8547  -28.9612   20.1060 C   0  0  0  0  0  0
  -22.7432  -29.4690   22.4951 C   0  0  0  0  0  0
  -18.0289  -28.1406   22.8496 C   0  0  0  0  0  0
  -24.1497  -36.7325   23.2645 C   0  0  0  0  0  0
  -25.9306  -30.8384   21.3621 C   0  0  0  0  0  0
  -26.0114  -29.4753   20.7086 C   0  0  0  0  0  0
  -27.2093  -28.7269   20.7027 C   0  0  0  0  0  0
  -26.0716  -26.9540   19.4756 C   0  0  0  0  0  0
  -24.8781  -27.6991   19.4869 C   0  0  0  0  0  0
  -23.6158  -29.8245   20.1595 C   0  0  0  0  0  0
  -25.4116  -36.3125   24.0344 C   0  0  1  0  0  0
  -20.5882  -28.3704   23.1301 C   0  0  2  0  0  0
  -20.6789  -26.9438   22.5415 C   0  0  0  0  0  0
  -19.5761  -26.6408   21.5224 C   0  0  0  0  0  0
  -18.1933  -26.7959   22.1626 C   0  0  0  0  0  0
  -19.1534  -28.8870   23.2899 C   0  0  0  0  0  0
  -18.9460  -30.1465   23.8927 C   0  0  0  0  0  0
  -17.6459  -30.6600   24.0579 C   0  0  0  0  0  0
  -25.9036  -34.9479   23.5133 C   0  0  0  0  0  0
  -16.5350  -29.9112   23.6315 C   0  0  0  0  0  0
  -16.7270  -28.6526   23.0337 C   0  0  0  0  0  0
  -26.4451  -31.6604   25.0724 C   0  0  0  0  0  0
  -25.3691  -31.3712   26.1453 C   0  0  0  0  0  0
  -27.0283  -30.3050   24.6101 C   0  0  0  0  0  0
  -27.6042  -32.4316   25.7466 C   0  0  0  0  0  0
  -27.5586  -37.1829   24.8467 C   0  0  0  0  0  0
  -21.4160  -29.3058   22.3691 N   0  0  0  0  0  0
  -26.4307  -37.3800   23.9400 N   0  0  0  0  0  0
  -24.6675  -31.0821   22.0975 N   0  0  0  0  0  0
  -23.4182  -28.8245   23.3017 O   0  0  0  0  0  0
  -28.3561  -26.6608   20.1414 O   0  0  0  0  0  0
  -26.5601  -34.8937   22.4691 O   0  0  0  0  0  0
  -23.5329  -32.1440   23.7471 O   0  0  0  0  0  0
  -28.7651  -23.6681   18.9201 C   0  0  0  0  0  0
  -29.3043  -23.4293   20.1973 C   0  0  0  0  0  0
  -29.8312  -21.0898   19.5087 C   0  0  0  0  0  0
  -28.7426  -22.6576   17.9357 C   0  0  0  0  0  0
  -29.8373  -22.1358   20.4882 C   0  0  0  0  0  0
  -29.2567  -21.3695   18.2387 C   0  0  0  0  0  0
  -26.5051  -25.6305   12.8694 C   0  0  0  0  0  0
  -29.3527  -24.5913   21.2163 C   0  0  0  0  0  0
  -30.5936  -19.7468   19.7350 C   0  0  0  0  0  0
  -27.1744  -25.7252   14.2481 C   0  0  0  0  0  0
  -29.8090  -18.3854   19.8213 C   0  0  0  0  0  0
  -27.7052  -24.3560   14.6985 C   0  0  0  0  0  0
  -30.7171  -17.1669   20.2305 C   0  0  0  0  0  0
  -28.0323  -24.2918   16.1967 C   0  0  0  0  0  0
  -28.2190  -25.6569   21.1592 C   0  0  0  0  0  0
  -28.2408  -22.9181   16.6482 N   0  0  0  0  0  0
  -30.0628  -15.8223   20.3919 N   0  0  0  0  0  0
  -30.5248  -21.8485   22.0529 Cl  0  0  0  0  0  0
  -29.2209  -20.1509   17.0038 Cl  0  0  0  0  0  0
  -31.4734  -12.4660   19.1357 H   0  0  0  0  0  0
  -30.3371  -11.4156   19.9450 H   0  0  0  0  0  0
  -29.7658  -11.6804   17.5045 H   0  0  0  0  0  0
  -29.6822  -13.4137   17.6980 H   0  0  0  0  0  0
  -27.8581  -11.2903   18.8746 H   0  0  0  0  0  0
  -27.3771  -12.5628   17.7829 H   0  0  0  0  0  0
  -27.6373  -14.2596   19.4586 H   0  0  0  0  0  0
  -28.7244  -12.2120   21.4460 H   0  0  0  0  0  0
  -28.4821  -13.9234   21.7344 H   0  0  0  0  0  0
  -25.2748   -9.5705   22.4803 H   0  0  0  0  0  0
  -24.0020   -7.4609   22.7489 H   0  0  0  0  0  0
  -21.0848   -8.8757   19.8923 H   0  0  0  0  0  0
  -22.3693  -10.9680   19.6189 H   0  0  0  0  0  0
  -21.1994   -7.6148   23.9777 H   0  0  0  0  0  0
  -21.1521   -6.0468   25.9094 H   0  0  0  0  0  0
  -22.0596   -2.7629   23.2737 H   0  0  0  0  0  0
  -22.3889  -11.9894   22.4840 H   0  0  0  0  0  0
  -21.1075  -13.1428   22.2503 H   0  0  0  0  0  0
  -24.6319  -15.8296   20.5414 H   0  0  0  0  0  0
  -26.2501  -15.6604   20.0876 H   0  0  0  0  0  0
  -26.7127  -32.5562   23.1173 H   0  0  0  0  0  0
  -25.0038  -33.9781   25.0469 H   0  0  0  0  0  0
  -22.6943  -31.3100   21.4044 H   0  0  0  0  0  0
  -23.3740  -35.9680   23.3339 H   0  0  0  0  0  0
  -24.3576  -36.8893   22.2052 H   0  0  0  0  0  0
  -23.7262  -37.6553   23.6610 H   0  0  0  0  0  0
  -26.0462  -31.6021   20.5924 H   0  0  0  0  0  0
  -26.8177  -30.8913   21.9802 H   0  0  0  0  0  0
  -28.0978  -29.1101   21.1858 H   0  0  0  0  0  0
  -26.0883  -25.9796   19.0064 H   0  0  0  0  0  0
  -23.9916  -27.2975   19.0159 H   0  0  0  0  0  0
  -23.7280  -30.5993   19.4004 H   0  0  0  0  0  0
  -22.7404  -29.2454   19.8598 H   0  0  0  0  0  0
  -25.1293  -36.2008   25.0836 H   0  0  0  0  0  0
  -20.9983  -28.3296   24.1424 H   0  0  0  0  0  0
  -20.5729  -26.2325   23.3617 H   0  0  0  0  0  0
  -21.6654  -26.7511   22.1186 H   0  0  0  0  0  0
  -19.6929  -25.6323   21.1254 H   0  0  0  0  0  0
  -19.6698  -27.3223   20.6762 H   0  0  0  0  0  0
  -17.4219  -26.6715   21.4015 H   0  0  0  0  0  0
  -18.0321  -26.0095   22.9017 H   0  0  0  0  0  0
  -19.7926  -30.7275   24.2321 H   0  0  0  0  0  0
  -17.5006  -31.6277   24.5197 H   0  0  0  0  0  0
  -15.5346  -30.3023   23.7624 H   0  0  0  0  0  0
  -15.8675  -28.0862   22.7018 H   0  0  0  0  0  0
  -24.5867  -30.7077   25.7748 H   0  0  0  0  0  0
  -24.8884  -32.2875   26.4897 H   0  0  0  0  0  0
  -25.8019  -30.8854   27.0211 H   0  0  0  0  0  0
  -26.2841  -29.6820   24.1138 H   0  0  0  0  0  0
  -27.4028  -29.7277   25.4563 H   0  0  0  0  0  0
  -27.8677  -30.4360   23.9274 H   0  0  0  0  0  0
  -27.2682  -33.3609   26.2068 H   0  0  0  0  0  0
  -28.3821  -32.6888   25.0266 H   0  0  0  0  0  0
  -28.0743  -31.8431   26.5349 H   0  0  0  0  0  0
  -28.2637  -38.0096   24.7470 H   0  0  0  0  0  0
  -28.1051  -36.2625   24.6346 H   0  0  0  0  0  0
  -27.2299  -37.1547   25.8871 H   0  0  0  0  0  0
  -20.9346  -29.8739   21.6871 H   0  0  0  0  0  0
  -26.0214  -38.2901   24.1328 H   0  0  0  0  0  0
  -28.3745  -24.6511   18.7007 H   0  0  0  0  0  0
  -26.0596  -26.5763   12.5583 H   0  0  0  0  0  0
  -25.7086  -24.8829   12.8757 H   0  0  0  0  0  0
  -27.2236  -25.3336   12.1050 H   0  0  0  0  0  0
  -30.3128  -25.1011   21.1273 H   0  0  0  0  0  0
  -29.3300  -24.1737   22.2241 H   0  0  0  0  0  0
  -31.2482  -19.8372   20.6014 H   0  0  0  0  0  0
  -31.2875  -19.6712   18.8941 H   0  0  0  0  0  0
  -26.4461  -26.1018   14.9684 H   0  0  0  0  0  0
  -27.9836  -26.4565   14.2301 H   0  0  0  0  0  0
  -29.3805  -18.1756   18.8436 H   0  0  0  0  0  0
  -28.9762  -18.4825   20.5149 H   0  0  0  0  0  0
  -28.5856  -24.0972   14.1046 H   0  0  0  0  0  0
  -26.9451  -23.6091   14.4706 H   0  0  0  0  0  0
  -31.2314  -17.4095   21.1634 H   0  0  0  0  0  0
  -31.5083  -17.1088   19.4790 H   0  0  0  0  0  0
  -27.2123  -24.7345   16.7624 H   0  0  0  0  0  0
  -28.9199  -24.8866   16.4107 H   0  0  0  0  0  0
  -28.2076  -26.2021   22.1077 H   0  0  0  0  0  0
  -27.2504  -25.1578   21.0995 H   0  0  0  0  0  0
  -28.4016  -22.1979   15.9481 H   0  0  0  0  0  0
  -29.0559  -15.7921   20.4162 H   0  0  0  0  0  0
  1 25  1  0  0  0
  1 30  2  0  0  0
  1 87  1  0  0  0
  2  3  1  0  0  0
  2 25  1  0  0  0
  2 90  1  0  0  0
  2 91  1  0  0  0
  3  4  1  0  0  0
  3 92  1  0  0  0
  3 93  1  0  0  0
  4  5  1  0  0  0
  4 94  1  0  0  0
  4 95  1  0  0  0
  5  6  1  0  0  0
  5 26  1  0  0  0
  5 96  1  0  0  0
  6 25  1  0  0  0
  6 97  1  0  0  0
  6 98  1  0  0  0
  7  8  2  0  0  0
  7 26  1  0  0  0
  7 29  1  0  0  0
  8  9  1  0  0  0
  8 22  1  0  0  0
  9 10  1  0  0  0
  9 27  2  0  0  0
 10 11  2  0  0  0
 10 15  1  0  0  0
 11 12  1  0  0  0
 11 99  1  0  0  0
 12 13  2  0  0  0
 12100  1  0  0  0
 13 14  1  0  0  0
 13 31  1  0  0  0
 14 15  2  0  0  0
 14101  1  0  0  0
 15102  1  0  0  0
 16 17  2  0  0  0
 16 21  1  0  0  0
 16 31  1  0  0  0
 17 18  1  0  0  0
 17103  1  0  0  0
 18 19  2  0  0  0
 18104  1  0  0  0
 19 20  1  0  0  0
 19 24  1  0  0  0
 20 21  2  0  0  0
 20105  1  0  0  0
 21 23  1  0  0  0
 22 28  1  0  0  0
 22 32  2  0  0  0
 26 27  1  0  0  0
 28106  1  0  0  0
 28107  1  0  0  0
 29108  1  0  0  0
 29109  1  0  0  0
 33 34  1  0  0  0
 33 66  1  0  0  0
 33 70  2  0  0  0
 34 36  1  0  0  0
 34 59  1  0  0  0
 34110  1  0  0  0
 35 44  2  0  0  0
 35 45  1  0  0  0
 35 68  1  0  0  0
 36 56  1  0  0  0
 36111  1  0  0  0
 37 39  1  0  0  0
 37 47  1  0  0  0
 37 66  1  0  0  0
 37112  1  0  0  0
 38 43  2  0  0  0
 38 46  1  0  0  0
 38 47  1  0  0  0
 39 64  1  0  0  0
 39 67  2  0  0  0
 40 52  1  0  0  0
 40 53  2  0  0  0
 40 58  1  0  0  0
 41113  1  0  0  0
 41114  1  0  0  0
 41115  1  0  0  0
 41 48  1  0  0  0
 42 43  1  0  0  0
 42 66  1  0  0  0
 42116  1  0  0  0
 42117  1  0  0  0
 43 44  1  0  0  0
 44118  1  0  0  0
 45 46  2  0  0  0
 45119  1  0  0  0
 46120  1  0  0  0
 47121  1  0  0  0
 47122  1  0  0  0
 48 56  1  0  0  0
 48 65  1  0  0  0
 48123  1  0  0  0
 49 50  1  0  0  0
 49 53  1  0  0  0
 49 64  1  0  0  0
 49124  1  0  0  0
 50 51  1  0  0  0
 50125  1  0  0  0
 50126  1  0  0  0
 51 52  1  0  0  0
 51127  1  0  0  0
 51128  1  0  0  0
 52129  1  0  0  0
 52130  1  0  0  0
 53 54  1  0  0  0
 54 55  2  0  0  0
 54131  1  0  0  0
 55 57  1  0  0  0
 55132  1  0  0  0
 56 69  2  0  0  0
 57 58  2  0  0  0
 57133  1  0  0  0
 58134  1  0  0  0
 59 60  1  0  0  0
 59 61  1  0  0  0
 59 62  1  0  0  0
 60135  1  0  0  0
 60136  1  0  0  0
 60137  1  0  0  0
 61138  1  0  0  0
 61139  1  0  0  0
 61140  1  0  0  0
 62141  1  0  0  0
 62142  1  0  0  0
 62143  1  0  0  0
 63 65  1  0  0  0
 63144  1  0  0  0
 63145  1  0  0  0
 63146  1  0  0  0
 64147  1  0  0  0
 65148  1  0  0  0
 68 85  1  0  0  0
 71 72  2  0  0  0
 71 74  1  0  0  0
 71149  1  0  0  0
 72 75  1  0  0  0
 72 78  1  0  0  0
 73 75  2  0  0  0
 73 76  1  0  0  0
 73 79  1  0  0  0
 74 76  2  0  0  0
 74 86  1  0  0  0
 75 88  1  0  0  0
 76 89  1  0  0  0
 77 80  1  0  0  0
 77150  1  0  0  0
 77151  1  0  0  0
 77152  1  0  0  0
 78 85  1  0  0  0
 78153  1  0  0  0
 78154  1  0  0  0
 79 81  1  0  0  0
 79155  1  0  0  0
 79156  1  0  0  0
 80 82  1  0  0  0
 80157  1  0  0  0
 80158  1  0  0  0
 81 83  1  0  0  0
 81159  1  0  0  0
 81160  1  0  0  0
 82 84  1  0  0  0
 82161  1  0  0  0
 82162  1  0  0  0
 83 87  1  0  0  0
 83163  1  0  0  0
 83164  1  0  0  0
 84 86  1  0  0  0
 84165  1  0  0  0
 84166  1  0  0  0
 85167  1  0  0  0
 85168  1  0  0  0
 86169  1  0  0  0
 87170  1  0  0  0
M  ISO  4   1 100  68 101  85 101  87 100
M  END
> <chiral flag>
0

> <version>
0

> <s_m_source_file>
/data/baiqing/PycharmProjects/Reinvent-master-3.2/result/LINK_invent/BTK/process_docking_weight1_custom_sum_contain_oxygen_bond_distance_aromatic_linkinvent_7_9_3/rearranged_h_0022.sdf

> <i_m_source_file_index>
93

> <r_mmod_Potential_Energy-OPLS-2005>
39.9612426757812

> <r_mmod_Stretch_Energy-OPLS-2005>
54.6666679382324

> <r_mmod_Bend_Energy-OPLS-2005>
122.888725280762

> <r_mmod_Torsional_Energy-OPLS-2005>
230.454193115234

> <r_mmod_Improper_Torsional_Energy-OPLS-2005>
9.12661075592041

> <r_mmod_Van_der_Waal_Energy-OPLS-2005>
154.351470947266

> <r_mmod_Electrostatic_Energy-OPLS-2005>
-372.35888671875

> <r_mmod_Solvation_Energy-OPLS-2005>
-204.531875610352

> <b_mmod_Minimization_Converged-OPLS-2005>
0

> <r_mmod_RMS_Derivative-OPLS-2005>
6.62854242324829

$$$$
93
                    3D
 Structure written by MMmdl.
153161  0  0  1  0            999 V2000
  -30.4048  -15.3211   20.3773 C   0  0  0  0  0  0
  -30.4400  -12.8581   19.5019 C   0  0  0  0  0  0
  -29.5354  -12.5836   18.2762 C   0  0  0  0  0  0
  -28.0883  -12.2952   18.7146 C   0  0  0  0  0  0
  -27.6062  -13.2743   19.8133 C   0  0  2  0  0  0
  -28.6446  -13.4741   20.9339 C   0  0  0  0  0  0
  -25.2396  -13.8224   20.5788 C   0  0  0  0  0  0
  -24.1746  -13.0424   20.9264 C   0  0  0  0  0  0
  -24.6395  -11.6912   20.8758 C   0  0  0  0  0  0
  -23.9088  -10.4279   21.0399 C   0  0  0  0  0  0
  -24.3632   -9.4194   21.9181 C   0  0  0  0  0  0
  -23.6299   -8.2237   22.0757 C   0  0  0  0  0  0
  -22.4277   -8.0280   21.3547 C   0  0  0  0  0  0
  -21.9919   -9.0252   20.4648 C   0  0  0  0  0  0
  -22.7252  -10.2127   20.3050 C   0  0  0  0  0  0
  -21.6854   -6.0734   22.5272 C   0  0  0  0  0  0
  -21.4016   -6.5640   23.8204 C   0  0  0  0  0  0
  -21.3660   -5.6798   24.9168 C   0  0  0  0  0  0
  -21.6042   -4.3058   24.7225 C   0  0  0  0  0  0
  -21.8817   -3.8143   23.4343 C   0  0  0  0  0  0
  -21.9191   -4.6963   22.3399 C   0  0  0  0  0  0
  -22.7757  -13.5174   21.1896 C   0  0  0  0  0  0
  -22.1660   -4.2145   21.0977 F   0  0  0  0  0  0
  -21.5630   -3.4542   25.7739 F   0  0  0  0  0  0
  -29.8518  -14.0093   20.2809 N   0  0  0  0  0  0
  -26.2809  -12.9496   20.3211 N   0  0  0  0  0  0
  -25.9331  -11.6597   20.5702 N   0  0  0  0  0  0
  -22.0414  -12.8170   22.0448 N   0  0  0  0  0  0
  -25.4019  -15.1978   20.4298 N   0  0  0  0  0  0
  -31.6419  -15.3094   20.2822 O   0  0  0  0  0  0
  -21.6643   -6.8880   21.4233 O   0  0  0  0  0  0
  -22.3436  -14.5472   20.6719 O   0  0  0  0  0  0
  -24.6671  -31.8177   23.1662 C   0  0  0  0  0  0
  -25.9333  -32.4551   23.8136 C   0  0  1  0  0  0
  -27.2163  -26.8893   20.1866 C   0  0  0  0  0  0
  -25.5983  -33.8364   24.2032 N   0  0  0  0  0  0
  -23.4825  -30.4271   21.5176 C   0  0  2  0  0  0
  -24.9340  -28.8009   20.1200 C   0  0  0  0  0  0
  -22.7685  -29.4405   22.4790 C   0  0  0  0  0  0
  -18.0315  -28.1381   22.8437 C   0  0  0  0  0  0
  -24.1506  -36.7200   23.2646 C   0  0  0  0  0  0
  -26.0525  -30.6114   21.4014 C   0  0  0  0  0  0
  -26.1212  -29.1956   20.7499 C   0  0  0  0  0  0
  -27.2600  -28.2643   20.7498 C   0  0  0  0  0  0
  -25.9956  -26.6493   19.5197 C   0  0  0  0  0  0
  -24.8979  -27.5487   19.4850 C   0  0  0  0  0  0
  -23.7235  -29.7356   20.1475 C   0  0  0  0  0  0
  -25.4143  -36.2932   24.0287 C   0  0  1  0  0  0
  -20.5940  -28.3727   23.1156 C   0  0  2  0  0  0
  -20.6780  -26.9400   22.5384 C   0  0  0  0  0  0
  -19.5767  -26.6345   21.5179 C   0  0  0  0  0  0
  -18.1947  -26.7910   22.1591 C   0  0  0  0  0  0
  -19.1578  -28.8874   23.2779 C   0  0  0  0  0  0
  -18.9496  -30.1463   23.8820 C   0  0  0  0  0  0
  -17.6493  -30.6572   24.0529 C   0  0  0  0  0  0
  -25.9098  -34.9319   23.4977 C   0  0  0  0  0  0
  -16.5377  -29.9055   23.6340 C   0  0  0  0  0  0
  -16.7299  -28.6476   23.0350 C   0  0  0  0  0  0
  -26.4564  -31.6527   25.0700 C   0  0  0  0  0  0
  -25.3682  -31.3793   26.1356 C   0  0  0  0  0  0
  -27.0470  -30.2878   24.6489 C   0  0  0  0  0  0
  -27.6035  -32.4363   25.7510 C   0  0  0  0  0  0
  -27.5569  -37.1753   24.8456 C   0  0  0  0  0  0
  -21.4354  -29.3026   22.3530 N   0  0  0  0  0  0
  -26.4274  -37.3674   23.9407 N   0  0  0  0  0  0
  -24.7555  -30.9799   22.0814 N   0  0  0  0  0  0
  -23.4215  -28.7984   23.3047 O   0  0  0  0  0  0
  -28.2318  -25.7842   20.1833 O   0  0  0  0  0  0
  -26.5720  -34.8865   22.4583 O   0  0  0  0  0  0
  -23.5734  -32.1152   23.6748 O   0  0  0  0  0  0
  -29.8587  -19.7151   22.6476 C   0  0  0  0  0  0
  -29.2034  -19.5160   20.0380 C   0  0  0  0  0  0
  -29.4900  -20.9196   21.9869 C   0  0  0  0  0  0
  -29.9292  -18.4169   22.0702 C   0  0  0  0  0  0
  -29.1081  -20.9619   20.6196 C   0  0  0  0  0  0
  -29.6294  -18.1689   20.7029 C   0  0  0  0  0  0
  -29.5361  -22.1930   22.8169 C   0  0  0  0  0  0
  -30.2828  -17.2719   23.0090 C   0  0  0  0  0  0
  -28.8261  -22.5749   19.9294 C   0  0  0  0  0  0
  -28.0343  -24.1458   20.4470 C   0  0  0  0  0  0
  -29.6227  -16.5951   20.2487 N   0  0  0  0  0  0
  -31.4496  -13.0876   19.1596 H   0  0  0  0  0  0
  -30.5348  -11.9675   20.1264 H   0  0  0  0  0  0
  -29.9262  -11.7494   17.6934 H   0  0  0  0  0  0
  -29.5496  -13.4516   17.6167 H   0  0  0  0  0  0
  -28.0599  -11.2750   19.0992 H   0  0  0  0  0  0
  -27.4157  -12.3190   17.8564 H   0  0  0  0  0  0
  -27.5085  -14.2329   19.3033 H   0  0  0  0  0  0
  -28.8408  -12.5465   21.4743 H   0  0  0  0  0  0
  -28.2765  -14.1941   21.6665 H   0  0  0  0  0  0
  -25.2770   -9.5675   22.4765 H   0  0  0  0  0  0
  -23.9998   -7.4631   22.7483 H   0  0  0  0  0  0
  -21.0846   -8.8765   19.8964 H   0  0  0  0  0  0
  -22.3692  -10.9669   19.6165 H   0  0  0  0  0  0
  -21.2009   -7.6147   23.9705 H   0  0  0  0  0  0
  -21.1488   -6.0531   25.9077 H   0  0  0  0  0  0
  -22.0597   -2.7603   23.2843 H   0  0  0  0  0  0
  -22.4056  -11.9860   22.4863 H   0  0  0  0  0  0
  -21.1017  -13.1163   22.2628 H   0  0  0  0  0  0
  -24.6336  -15.8460   20.5691 H   0  0  0  0  0  0
  -26.2514  -15.6509   20.1224 H   0  0  0  0  0  0
  -26.7398  -32.5066   23.0835 H   0  0  0  0  0  0
  -25.0064  -33.9410   25.0142 H   0  0  0  0  0  0
  -22.7980  -31.2607   21.3447 H   0  0  0  0  0  0
  -23.3763  -35.9529   23.3261 H   0  0  0  0  0  0
  -24.3565  -36.8913   22.2065 H   0  0  0  0  0  0
  -23.7277  -37.6378   23.6745 H   0  0  0  0  0  0
  -26.2342  -31.3489   20.6189 H   0  0  0  0  0  0
  -26.9090  -30.6693   22.0599 H   0  0  0  0  0  0
  -28.1668  -28.5719   21.2519 H   0  0  0  0  0  0
  -25.8688  -25.6952   19.0269 H   0  0  0  0  0  0
  -23.9981  -27.2391   18.9709 H   0  0  0  0  0  0
  -23.8840  -30.4994   19.3855 H   0  0  0  0  0  0
  -22.8312  -29.1924   19.8309 H   0  0  0  0  0  0
  -25.1345  -36.1703   25.0771 H   0  0  0  0  0  0
  -21.0003  -28.3324   24.1291 H   0  0  0  0  0  0
  -20.5605  -26.2353   23.3622 H   0  0  0  0  0  0
  -21.6648  -26.7339   22.1231 H   0  0  0  0  0  0
  -19.6920  -25.6238   21.1250 H   0  0  0  0  0  0
  -19.6709  -27.3111   20.6666 H   0  0  0  0  0  0
  -17.4210  -26.6611   21.4006 H   0  0  0  0  0  0
  -18.0376  -26.0056   22.9002 H   0  0  0  0  0  0
  -19.7977  -30.7270   24.2180 H   0  0  0  0  0  0
  -17.5046  -31.6255   24.5122 H   0  0  0  0  0  0
  -15.5370  -30.2921   23.7709 H   0  0  0  0  0  0
  -15.8698  -28.0764   22.7108 H   0  0  0  0  0  0
  -24.5868  -30.7134   25.7667 H   0  0  0  0  0  0
  -24.8873  -32.3005   26.4652 H   0  0  0  0  0  0
  -25.7901  -30.9042   27.0225 H   0  0  0  0  0  0
  -26.3139  -29.6542   24.1480 H   0  0  0  0  0  0
  -27.3936  -29.7263   25.5181 H   0  0  0  0  0  0
  -27.9111  -30.4027   23.9944 H   0  0  0  0  0  0
  -27.2565  -33.3704   26.1942 H   0  0  0  0  0  0
  -28.3913  -32.6875   25.0398 H   0  0  0  0  0  0
  -28.0626  -31.8610   26.5563 H   0  0  0  0  0  0
  -28.2541  -38.0093   24.7501 H   0  0  0  0  0  0
  -28.1118  -36.2610   24.6280 H   0  0  0  0  0  0
  -27.2276  -37.1379   25.8856 H   0  0  0  0  0  0
  -20.9617  -29.8768   21.6698 H   0  0  0  0  0  0
  -26.0117  -38.2724   24.1436 H   0  0  0  0  0  0
  -30.0977  -19.7946   23.6997 H   0  0  0  0  0  0
  -28.9442  -19.4404   18.9909 H   0  0  0  0  0  0
  -28.5256  -22.5092   23.0742 H   0  0  0  0  0  0
  -30.0420  -23.0015   22.2903 H   0  0  0  0  0  0
  -30.0717  -22.0480   23.7561 H   0  0  0  0  0  0
  -30.3332  -17.6019   24.0463 H   0  0  0  0  0  0
  -31.2532  -16.8468   22.7545 H   0  0  0  0  0  0
  -29.5280  -16.4860   22.9712 H   0  0  0  0  0  0
  -28.4154  -22.3705   18.9394 H   0  0  0  0  0  0
  -29.8495  -22.8828   19.7152 H   0  0  0  0  0  0
  -28.1222  -24.1303   21.5293 H   0  0  0  0  0  0
  -26.9697  -23.9733   20.2882 H   0  0  0  0  0  0
  -28.7236  -16.3567   19.8565 H   0  0  0  0  0  0
  1 25  1  0  0  0
  1 30  2  0  0  0
  1 81  1  0  0  0
  2  3  1  0  0  0
  2 25  1  0  0  0
  2 82  1  0  0  0
  2 83  1  0  0  0
  3  4  1  0  0  0
  3 84  1  0  0  0
  3 85  1  0  0  0
  4  5  1  0  0  0
  4 86  1  0  0  0
  4 87  1  0  0  0
  5  6  1  0  0  0
  5 26  1  0  0  0
  5 88  1  0  0  0
  6 25  1  0  0  0
  6 89  1  0  0  0
  6 90  1  0  0  0
  7  8  2  0  0  0
  7 26  1  0  0  0
  7 29  1  0  0  0
  8  9  1  0  0  0
  8 22  1  0  0  0
  9 10  1  0  0  0
  9 27  2  0  0  0
 10 11  2  0  0  0
 10 15  1  0  0  0
 11 12  1  0  0  0
 11 91  1  0  0  0
 12 13  2  0  0  0
 12 92  1  0  0  0
 13 14  1  0  0  0
 13 31  1  0  0  0
 14 15  2  0  0  0
 14 93  1  0  0  0
 15 94  1  0  0  0
 16 17  2  0  0  0
 16 21  1  0  0  0
 16 31  1  0  0  0
 17 18  1  0  0  0
 17 95  1  0  0  0
 18 19  2  0  0  0
 18 96  1  0  0  0
 19 20  1  0  0  0
 19 24  1  0  0  0
 20 21  2  0  0  0
 20 97  1  0  0  0
 21 23  1  0  0  0
 22 28  1  0  0  0
 22 32  2  0  0  0
 26 27  1  0  0  0
 28 98  1  0  0  0
 28 99  1  0  0  0
 29100  1  0  0  0
 29101  1  0  0  0
 33 34  1  0  0  0
 33 66  1  0  0  0
 33 70  2  0  0  0
 34 36  1  0  0  0
 34 59  1  0  0  0
 34102  1  0  0  0
 35 44  2  0  0  0
 35 45  1  0  0  0
 35 68  1  0  0  0
 36 56  1  0  0  0
 36103  1  0  0  0
 37 39  1  0  0  0
 37 47  1  0  0  0
 37 66  1  0  0  0
 37104  1  0  0  0
 38 43  2  0  0  0
 38 46  1  0  0  0
 38 47  1  0  0  0
 39 64  1  0  0  0
 39 67  2  0  0  0
 40 52  1  0  0  0
 40 53  2  0  0  0
 40 58  1  0  0  0
 41105  1  0  0  0
 41106  1  0  0  0
 41107  1  0  0  0
 41 48  1  0  0  0
 42 43  1  0  0  0
 42 66  1  0  0  0
 42108  1  0  0  0
 42109  1  0  0  0
 43 44  1  0  0  0
 44110  1  0  0  0
 45 46  2  0  0  0
 45111  1  0  0  0
 46112  1  0  0  0
 47113  1  0  0  0
 47114  1  0  0  0
 48 56  1  0  0  0
 48 65  1  0  0  0
 48115  1  0  0  0
 49 50  1  0  0  0
 49 53  1  0  0  0
 49 64  1  0  0  0
 49116  1  0  0  0
 50 51  1  0  0  0
 50117  1  0  0  0
 50118  1  0  0  0
 51 52  1  0  0  0
 51119  1  0  0  0
 51120  1  0  0  0
 52121  1  0  0  0
 52122  1  0  0  0
 53 54  1  0  0  0
 54 55  2  0  0  0
 54123  1  0  0  0
 55 57  1  0  0  0
 55124  1  0  0  0
 56 69  2  0  0  0
 57 58  2  0  0  0
 57125  1  0  0  0
 58126  1  0  0  0
 59 60  1  0  0  0
 59 61  1  0  0  0
 59 62  1  0  0  0
 60127  1  0  0  0
 60128  1  0  0  0
 60129  1  0  0  0
 61130  1  0  0  0
 61131  1  0  0  0
 61132  1  0  0  0
 62133  1  0  0  0
 62134  1  0  0  0
 62135  1  0  0  0
 63 65  1  0  0  0
 63136  1  0  0  0
 63137  1  0  0  0
 63138  1  0  0  0
 64139  1  0  0  0
 65140  1  0  0  0
 68 80  1  0  0  0
 71 73  2  0  0  0
 71 74  1  0  0  0
 71141  1  0  0  0
 72 75  2  0  0  0
 72 76  1  0  0  0
 72142  1  0  0  0
 73 75  1  0  0  0
 73 77  1  0  0  0
 74 76  2  0  0  0
 74 78  1  0  0  0
 75 79  1  0  0  0
 76 81  1  0  0  0
 77143  1  0  0  0
 77144  1  0  0  0
 77145  1  0  0  0
 78146  1  0  0  0
 78147  1  0  0  0
 78148  1  0  0  0
 79 80  1  0  0  0
 79149  1  0  0  0
 79150  1  0  0  0
 80151  1  0  0  0
 80152  1  0  0  0
 81153  1  0  0  0
M  ISO  4   1 100  68 101  80 101  81 100
M  END
> <chiral flag>
0

> <version>
0

> <s_m_source_file>
/data/baiqing/PycharmProjects/Reinvent-master-3.2/result/LINK_invent/BTK/process_docking_weight1_custom_sum_contain_oxygen_bond_distance_aromatic_linkinvent_7_9_3/rearranged_h_0022.sdf

> <i_m_source_file_index>
94

> <r_mmod_Potential_Energy-OPLS-2005>
1432.67980957031

> <r_mmod_Stretch_Energy-OPLS-2005>
654.414184570312

> <r_mmod_Bend_Energy-OPLS-2005>
448.596313476562

> <r_mmod_Torsional_Energy-OPLS-2005>
259.739410400391

> <r_mmod_Improper_Torsional_Energy-OPLS-2005>
10.4430446624756

> <r_mmod_Van_der_Waal_Energy-OPLS-2005>
130.984939575195

> <r_mmod_Electrostatic_Energy-OPLS-2005>
-380.719970703125

> <r_mmod_Solvation_Energy-OPLS-2005>
-208.522125244141

> <b_mmod_Minimization_Converged-OPLS-2005>
0

> <r_mmod_RMS_Derivative-OPLS-2005>
2.17094659805298

$$$$
94
                    3D
 Structure written by MMmdl.
174182  0  0  1  0            999 V2000
  -30.7140  -14.5863   20.5470 C   0  0  0  0  0  0
  -30.4168  -12.3938   19.4484 C   0  0  0  0  0  0
  -29.4982  -12.5509   18.2192 C   0  0  0  0  0  0
  -28.0212  -12.4163   18.6310 C   0  0  0  0  0  0
  -27.6570  -13.2512   19.8862 C   0  0  2  0  0  0
  -28.7033  -13.1056   21.0115 C   0  0  0  0  0  0
  -25.2554  -13.8274   20.5761 C   0  0  0  0  0  0
  -24.1851  -13.0485   20.9222 C   0  0  0  0  0  0
  -24.6495  -11.6967   20.8774 C   0  0  0  0  0  0
  -23.9180  -10.4336   21.0465 C   0  0  0  0  0  0
  -24.3725   -9.4241   21.9215 C   0  0  0  0  0  0
  -23.6376   -8.2282   22.0794 C   0  0  0  0  0  0
  -22.4332   -8.0381   21.3587 C   0  0  0  0  0  0
  -22.0002   -9.0351   20.4676 C   0  0  0  0  0  0
  -22.7368  -10.2208   20.3094 C   0  0  0  0  0  0
  -21.6861   -6.0838   22.5284 C   0  0  0  0  0  0
  -21.4018   -6.5706   23.8249 C   0  0  0  0  0  0
  -21.3637   -5.6834   24.9178 C   0  0  0  0  0  0
  -21.6036   -4.3101   24.7191 C   0  0  0  0  0  0
  -21.8810   -3.8237   23.4274 C   0  0  0  0  0  0
  -21.9198   -4.7059   22.3373 C   0  0  0  0  0  0
  -22.7835  -13.5231   21.1823 C   0  0  0  0  0  0
  -22.1661   -4.2270   21.0930 F   0  0  0  0  0  0
  -21.5623   -3.4568   25.7688 F   0  0  0  0  0  0
  -30.0216  -13.4162   20.4358 N   0  0  0  0  0  0
  -26.3067  -12.9534   20.3514 N   0  0  0  0  0  0
  -25.9464  -11.6639   20.5849 N   0  0  0  0  0  0
  -22.0476  -12.8212   22.0372 N   0  0  0  0  0  0
  -25.4096  -15.2023   20.4174 N   0  0  0  0  0  0
  -31.8522  -14.6871   20.0767 O   0  0  0  0  0  0
  -21.6656   -6.8973   21.4268 O   0  0  0  0  0  0
  -22.3498  -14.5491   20.6654 O   0  0  0  0  0  0
  -24.6287  -31.8595   23.2120 C   0  0  0  0  0  0
  -25.9040  -32.4848   23.8498 C   0  0  1  0  0  0
  -27.2164  -27.3303   20.0780 C   0  0  0  0  0  0
  -25.5826  -33.8669   24.2387 N   0  0  0  0  0  0
  -23.4285  -30.4761   21.5661 C   0  0  2  0  0  0
  -24.8693  -28.9332   20.1272 C   0  0  0  0  0  0
  -22.7563  -29.4474   22.5083 C   0  0  0  0  0  0
  -18.0293  -28.1373   22.8547 C   0  0  0  0  0  0
  -24.1437  -36.7334   23.2644 C   0  0  0  0  0  0
  -25.9701  -30.7910   21.3835 C   0  0  0  0  0  0
  -26.0440  -29.4156   20.7245 C   0  0  0  0  0  0
  -27.2294  -28.6221   20.6862 C   0  0  0  0  0  0
  -26.0211  -26.8847   19.4856 C   0  0  0  0  0  0
  -24.8553  -27.6719   19.5076 C   0  0  0  0  0  0
  -23.6450  -29.8209   20.1788 C   0  0  0  0  0  0
  -25.4064  -36.3181   24.0381 C   0  0  1  0  0  0
  -20.5905  -28.3601   23.1405 C   0  0  2  0  0  0
  -20.6761  -26.9326   22.5488 C   0  0  0  0  0  0
  -19.5684  -26.6362   21.5313 C   0  0  0  0  0  0
  -18.1887  -26.7919   22.1712 C   0  0  0  0  0  0
  -19.1551  -28.8829   23.2964 C   0  0  0  0  0  0
  -18.9416  -30.1476   23.8919 C   0  0  0  0  0  0
  -17.6403  -30.6571   24.0592 C   0  0  0  0  0  0
  -25.9005  -34.9520   23.5212 C   0  0  0  0  0  0
  -16.5288  -29.9046   23.6356 C   0  0  0  0  0  0
  -16.7281  -28.6507   23.0359 C   0  0  0  0  0  0
  -26.4438  -31.6655   25.0860 C   0  0  0  0  0  0
  -25.3644  -31.3713   26.1556 C   0  0  0  0  0  0
  -27.0331  -30.3098   24.6340 C   0  0  0  0  0  0
  -27.6079  -32.4376   25.7523 C   0  0  0  0  0  0
  -27.5604  -37.1801   24.8443 C   0  0  0  0  0  0
  -21.4273  -29.2951   22.3853 N   0  0  0  0  0  0
  -26.4250  -37.3856   23.9485 N   0  0  0  0  0  0
  -24.6970  -31.0505   22.1144 N   0  0  0  0  0  0
  -23.4271  -28.7945   23.3115 O   0  0  0  0  0  0
  -28.3191  -26.4822   20.0196 O   0  0  0  0  0  0
  -26.5619  -34.8906   22.4798 O   0  0  0  0  0  0
  -23.5408  -32.1404   23.7360 O   0  0  0  0  0  0
  -29.8783  -18.1841   20.6690 C   0  0  0  0  0  0
  -30.4765  -19.4870   20.6225 C   0  0  0  0  0  0
  -31.8926  -19.5638   20.8523 C   0  0  0  0  0  0
  -32.4492  -18.5496   21.6862 C   0  0  0  0  0  0
  -30.6064  -17.0307   21.1153 C   0  0  0  0  0  0
  -31.8347  -17.2772   21.7833 C   0  0  0  0  0  0
  -33.6628  -18.8340   22.5664 C   0  0  0  0  0  0
  -29.3100  -23.4433   17.8534 C   0  0  0  0  0  0
  -32.7431  -22.0146   20.5961 C   0  0  0  0  0  0
  -32.4087  -20.5142   18.5818 C   0  0  0  0  0  0
  -34.3247  -20.2032   20.0396 C   0  0  0  0  0  0
  -29.5926  -20.7877   20.6500 C   0  0  0  0  0  0
  -27.9455  -23.7520   20.0337 C   0  0  0  0  0  0
  -28.1961  -25.1847   20.7054 C   0  0  0  0  0  0
  -29.1475  -22.9953   19.3247 C   0  0  1  0  0  0
  -32.8111  -20.5710   20.0726 C   0  0  0  0  0  0
  -30.0645  -15.6862   21.0318 N   0  0  0  0  0  0
  -29.1638  -21.4680   19.3779 N   0  3  0  0  0  0
  -32.5824  -16.0572   22.7743 Cl  0  0  0  0  0  0
  -31.4611  -12.4841   19.1432 H   0  0  0  0  0  0
  -30.3195  -11.4020   19.8868 H   0  0  0  0  0  0
  -29.7507  -11.8060   17.4631 H   0  0  0  0  0  0
  -29.6643  -13.5229   17.7472 H   0  0  0  0  0  0
  -27.8269  -11.3608   18.8085 H   0  0  0  0  0  0
  -27.3767  -12.7109   17.8035 H   0  0  0  0  0  0
  -27.6767  -14.2961   19.5825 H   0  0  0  0  0  0
  -28.7028  -12.0960   21.4280 H   0  0  0  0  0  0
  -28.4714  -13.7734   21.8452 H   0  0  0  0  0  0
  -25.2882   -9.5688   22.4747 H   0  0  0  0  0  0
  -24.0112   -7.4656   22.7492 H   0  0  0  0  0  0
  -21.0960   -8.8913   19.8909 H   0  0  0  0  0  0
  -22.3927  -10.9776   19.6198 H   0  0  0  0  0  0
  -21.1989   -7.6214   23.9777 H   0  0  0  0  0  0
  -21.1453   -6.0550   25.9089 H   0  0  0  0  0  0
  -22.0578   -2.7704   23.2745 H   0  0  0  0  0  0
  -22.4176  -11.9964   22.4811 H   0  0  0  0  0  0
  -21.1057  -13.1208   22.2479 H   0  0  0  0  0  0
  -24.6228  -15.8358   20.5175 H   0  0  0  0  0  0
  -26.2459  -15.6596   20.0764 H   0  0  0  0  0  0
  -26.7127  -32.5487   23.1287 H   0  0  0  0  0  0
  -24.9851  -33.9917   25.0428 H   0  0  0  0  0  0
  -22.7187  -31.2973   21.4339 H   0  0  0  0  0  0
  -23.3785  -35.9580   23.3217 H   0  0  0  0  0  0
  -24.3527  -36.9059   22.2081 H   0  0  0  0  0  0
  -23.7083  -37.6472   23.6679 H   0  0  0  0  0  0
  -26.0808  -31.5514   20.6089 H   0  0  0  0  0  0
  -26.8558  -30.8567   22.0066 H   0  0  0  0  0  0
  -28.1419  -28.9801   21.1472 H   0  0  0  0  0  0
  -25.9965  -25.9235   18.9932 H   0  0  0  0  0  0
  -23.9448  -27.3119   19.0467 H   0  0  0  0  0  0
  -23.7786  -30.6065   19.4351 H   0  0  0  0  0  0
  -22.7574  -29.2689   19.8708 H   0  0  0  0  0  0
  -25.1210  -36.2101   25.0887 H   0  0  0  0  0  0
  -21.0027  -28.3109   24.1495 H   0  0  0  0  0  0
  -20.5712  -26.2178   23.3689 H   0  0  0  0  0  0
  -21.6612  -26.7366   22.1178 H   0  0  0  0  0  0
  -19.6784  -25.6298   21.1290 H   0  0  0  0  0  0
  -19.6549  -27.3276   20.6948 H   0  0  0  0  0  0
  -17.4157  -26.6785   21.4091 H   0  0  0  0  0  0
  -18.0088  -26.0048   22.9074 H   0  0  0  0  0  0
  -19.7863  -30.7396   24.2181 H   0  0  0  0  0  0
  -17.4878  -31.6221   24.5232 H   0  0  0  0  0  0
  -15.5276  -30.2922   23.7647 H   0  0  0  0  0  0
  -15.8707  -28.0875   22.6952 H   0  0  0  0  0  0
  -24.5817  -30.7116   25.7768 H   0  0  0  0  0  0
  -24.8784  -32.2816   26.5074 H   0  0  0  0  0  0
  -25.7880  -30.8745   27.0311 H   0  0  0  0  0  0
  -26.2993  -29.6778   24.1340 H   0  0  0  0  0  0
  -27.4019  -29.7380   25.4882 H   0  0  0  0  0  0
  -27.8803  -30.4402   23.9617 H   0  0  0  0  0  0
  -27.2888  -33.3740   26.2096 H   0  0  0  0  0  0
  -28.3820  -32.6879   25.0253 H   0  0  0  0  0  0
  -28.0841  -31.8512   26.5390 H   0  0  0  0  0  0
  -28.2573  -38.0156   24.7737 H   0  0  0  0  0  0
  -28.1169  -36.2746   24.5993 H   0  0  0  0  0  0
  -27.2346  -37.1189   25.8831 H   0  0  0  0  0  0
  -20.9456  -29.8849   21.7226 H   0  0  0  0  0  0
  -26.0167  -38.2916   24.1623 H   0  0  0  0  0  0
  -28.8378  -18.0637   20.3894 H   0  0  0  0  0  0
  -34.5741  -18.4362   22.1268 H   0  0  0  0  0  0
  -33.5589  -18.4094   23.5651 H   0  0  0  0  0  0
  -33.7704  -19.9059   22.7276 H   0  0  0  0  0  0
  -29.0595  -24.4969   17.7362 H   0  0  0  0  0  0
  -28.6571  -22.8867   17.1790 H   0  0  0  0  0  0
  -30.3300  -23.3197   17.4832 H   0  0  0  0  0  0
  -31.7994  -22.4984   20.3978 H   0  0  0  0  0  0
  -33.4865  -22.6327   20.0902 H   0  0  0  0  0  0
  -32.9395  -22.0809   21.6648 H   0  0  0  0  0  0
  -31.4048  -20.8652   18.3843 H   0  0  0  0  0  0
  -32.4696  -19.4897   18.2078 H   0  0  0  0  0  0
  -33.0551  -21.1303   17.9595 H   0  0  0  0  0  0
  -34.8567  -20.4576   20.9568 H   0  0  0  0  0  0
  -34.8670  -20.7582   19.2666 H   0  0  0  0  0  0
  -34.4802  -19.1473   19.8214 H   0  0  0  0  0  0
  -30.1171  -21.5005   21.2827 H   0  0  0  0  0  0
  -28.6944  -20.5675   21.2261 H   0  0  0  0  0  0
  -27.0347  -23.7461   19.4242 H   0  0  0  0  0  0
  -27.6937  -23.1195   20.8868 H   0  0  0  0  0  0
  -27.4001  -25.3040   21.4449 H   0  0  0  0  0  0
  -29.1151  -25.0962   21.2900 H   0  0  0  0  0  0
  -30.0276  -23.3772   19.8382 H   0  0  0  0  0  0
  -29.0859  -15.5729   21.2452 H   0  0  0  0  0  0
  -28.2744  -21.0764   19.1017 H   0  0  0  0  0  0
  -29.8152  -21.1612   18.6756 H   0  0  0  0  0  0
  1 25  1  0  0  0
  1 30  2  0  0  0
  1 87  1  0  0  0
  2  3  1  0  0  0
  2 25  1  0  0  0
  2 90  1  0  0  0
  2 91  1  0  0  0
  3  4  1  0  0  0
  3 92  1  0  0  0
  3 93  1  0  0  0
  4  5  1  0  0  0
  4 94  1  0  0  0
  4 95  1  0  0  0
  5  6  1  0  0  0
  5 26  1  0  0  0
  5 96  1  0  0  0
  6 25  1  0  0  0
  6 97  1  0  0  0
  6 98  1  0  0  0
  7  8  2  0  0  0
  7 26  1  0  0  0
  7 29  1  0  0  0
  8  9  1  0  0  0
  8 22  1  0  0  0
  9 10  1  0  0  0
  9 27  2  0  0  0
 10 11  2  0  0  0
 10 15  1  0  0  0
 11 12  1  0  0  0
 11 99  1  0  0  0
 12 13  2  0  0  0
 12100  1  0  0  0
 13 14  1  0  0  0
 13 31  1  0  0  0
 14 15  2  0  0  0
 14101  1  0  0  0
 15102  1  0  0  0
 16 17  2  0  0  0
 16 21  1  0  0  0
 16 31  1  0  0  0
 17 18  1  0  0  0
 17103  1  0  0  0
 18 19  2  0  0  0
 18104  1  0  0  0
 19 20  1  0  0  0
 19 24  1  0  0  0
 20 21  2  0  0  0
 20105  1  0  0  0
 21 23  1  0  0  0
 22 28  1  0  0  0
 22 32  2  0  0  0
 26 27  1  0  0  0
 28106  1  0  0  0
 28107  1  0  0  0
 29108  1  0  0  0
 29109  1  0  0  0
 33 34  1  0  0  0
 33 66  1  0  0  0
 33 70  2  0  0  0
 34 36  1  0  0  0
 34 59  1  0  0  0
 34110  1  0  0  0
 35 44  2  0  0  0
 35 45  1  0  0  0
 35 68  1  0  0  0
 36 56  1  0  0  0
 36111  1  0  0  0
 37 39  1  0  0  0
 37 47  1  0  0  0
 37 66  1  0  0  0
 37112  1  0  0  0
 38 43  2  0  0  0
 38 46  1  0  0  0
 38 47  1  0  0  0
 39 64  1  0  0  0
 39 67  2  0  0  0
 40 52  1  0  0  0
 40 53  2  0  0  0
 40 58  1  0  0  0
 41113  1  0  0  0
 41114  1  0  0  0
 41115  1  0  0  0
 41 48  1  0  0  0
 42 43  1  0  0  0
 42 66  1  0  0  0
 42116  1  0  0  0
 42117  1  0  0  0
 43 44  1  0  0  0
 44118  1  0  0  0
 45 46  2  0  0  0
 45119  1  0  0  0
 46120  1  0  0  0
 47121  1  0  0  0
 47122  1  0  0  0
 48 56  1  0  0  0
 48 65  1  0  0  0
 48123  1  0  0  0
 49 50  1  0  0  0
 49 53  1  0  0  0
 49 64  1  0  0  0
 49124  1  0  0  0
 50 51  1  0  0  0
 50125  1  0  0  0
 50126  1  0  0  0
 51 52  1  0  0  0
 51127  1  0  0  0
 51128  1  0  0  0
 52129  1  0  0  0
 52130  1  0  0  0
 53 54  1  0  0  0
 54 55  2  0  0  0
 54131  1  0  0  0
 55 57  1  0  0  0
 55132  1  0  0  0
 56 69  2  0  0  0
 57 58  2  0  0  0
 57133  1  0  0  0
 58134  1  0  0  0
 59 60  1  0  0  0
 59 61  1  0  0  0
 59 62  1  0  0  0
 60135  1  0  0  0
 60136  1  0  0  0
 60137  1  0  0  0
 61138  1  0  0  0
 61139  1  0  0  0
 61140  1  0  0  0
 62141  1  0  0  0
 62142  1  0  0  0
 62143  1  0  0  0
 63 65  1  0  0  0
 63144  1  0  0  0
 63145  1  0  0  0
 63146  1  0  0  0
 64147  1  0  0  0
 65148  1  0  0  0
 68 84  1  0  0  0
 71 72  2  0  0  0
 71 75  1  0  0  0
 71149  1  0  0  0
 72 73  1  0  0  0
 72 82  1  0  0  0
 73 74  2  0  0  0
 73 86  1  0  0  0
 74 76  1  0  0  0
 74 77  1  0  0  0
 75 76  2  0  0  0
 75 87  1  0  0  0
 76 89  1  0  0  0
 77150  1  0  0  0
 77151  1  0  0  0
 77152  1  0  0  0
 78153  1  0  0  0
 78154  1  0  0  0
 78155  1  0  0  0
 78 85  1  0  0  0
 79156  1  0  0  0
 79157  1  0  0  0
 79158  1  0  0  0
 79 86  1  0  0  0
 80 86  1  0  0  0
 80159  1  0  0  0
 80160  1  0  0  0
 80161  1  0  0  0
 81 86  1  0  0  0
 81162  1  0  0  0
 81163  1  0  0  0
 81164  1  0  0  0
 82 88  1  0  0  0
 82165  1  0  0  0
 82166  1  0  0  0
 83 84  1  0  0  0
 83 85  1  0  0  0
 83167  1  0  0  0
 83168  1  0  0  0
 84169  1  0  0  0
 84170  1  0  0  0
 85 88  1  0  0  0
 85171  1  0  0  0
 87172  1  0  0  0
 88173  1  0  0  0
 88174  1  0  0  0
M  CHG  1  88   1
M  ISO  4   1 100  68 101  84 101  87 100
M  END
> <chiral flag>
0

> <version>
0

> <s_m_source_file>
/data/baiqing/PycharmProjects/Reinvent-master-3.2/result/LINK_invent/BTK/process_docking_weight1_custom_sum_contain_oxygen_bond_distance_aromatic_linkinvent_7_9_3/rearranged_h_0022.sdf

> <i_m_source_file_index>
95

> <r_mmod_Potential_Energy-OPLS-2005>
27.7916641235352

> <r_mmod_Stretch_Energy-OPLS-2005>
85.2640533447266

> <r_mmod_Bend_Energy-OPLS-2005>
175.769958496094

> <r_mmod_Torsional_Energy-OPLS-2005>
366.131866455078

> <r_mmod_Improper_Torsional_Energy-OPLS-2005>
7.27490949630737

> <r_mmod_Van_der_Waal_Energy-OPLS-2005>
164.141128540039

> <r_mmod_Electrostatic_Energy-OPLS-2005>
-344.896301269531

> <r_mmod_Solvation_Energy-OPLS-2005>
-466.626098632812

> <b_mmod_Minimization_Converged-OPLS-2005>
0

> <r_mmod_RMS_Derivative-OPLS-2005>
8.6103401184082

$$$$
95
                    3D
 Structure written by MMmdl.
153161  0  0  1  0            999 V2000
  -30.4374  -15.1835   20.3785 C   0  0  0  0  0  0
  -30.4485  -12.7470   19.5175 C   0  0  0  0  0  0
  -29.5368  -12.5668   18.2780 C   0  0  0  0  0  0
  -28.0792  -12.3059   18.7012 C   0  0  0  0  0  0
  -27.6196  -13.2658   19.8277 C   0  0  2  0  0  0
  -28.6572  -13.3855   20.9639 C   0  0  0  0  0  0
  -25.2420  -13.8232   20.5723 C   0  0  0  0  0  0
  -24.1762  -13.0435   20.9250 C   0  0  0  0  0  0
  -24.6404  -11.6928   20.8754 C   0  0  0  0  0  0
  -23.9091  -10.4294   21.0404 C   0  0  0  0  0  0
  -24.3634   -9.4206   21.9182 C   0  0  0  0  0  0
  -23.6303   -8.2244   22.0752 C   0  0  0  0  0  0
  -22.4284   -8.0284   21.3543 C   0  0  0  0  0  0
  -21.9924   -9.0260   20.4644 C   0  0  0  0  0  0
  -22.7261  -10.2136   20.3053 C   0  0  0  0  0  0
  -21.6855   -6.0741   22.5282 C   0  0  0  0  0  0
  -21.4018   -6.5641   23.8217 C   0  0  0  0  0  0
  -21.3659   -5.6790   24.9175 C   0  0  0  0  0  0
  -21.6044   -4.3054   24.7224 C   0  0  0  0  0  0
  -21.8818   -3.8149   23.4344 C   0  0  0  0  0  0
  -21.9192   -4.6967   22.3402 C   0  0  0  0  0  0
  -22.7777  -13.5194   21.1899 C   0  0  0  0  0  0
  -22.1660   -4.2154   21.0979 F   0  0  0  0  0  0
  -21.5624   -3.4535   25.7735 F   0  0  0  0  0  0
  -29.9026  -13.8727   20.3502 N   0  0  0  0  0  0
  -26.2848  -12.9493   20.3209 N   0  0  0  0  0  0
  -25.9341  -11.6607   20.5717 N   0  0  0  0  0  0
  -22.0427  -12.8184   22.0454 N   0  0  0  0  0  0
  -25.4040  -15.1968   20.4142 N   0  0  0  0  0  0
  -31.6532  -15.2395   20.1449 O   0  0  0  0  0  0
  -21.6642   -6.8887   21.4245 O   0  0  0  0  0  0
  -22.3457  -14.5492   20.6735 O   0  0  0  0  0  0
  -24.6584  -31.8283   23.1737 C   0  0  0  0  0  0
  -25.9285  -32.4613   23.8188 C   0  0  1  0  0  0
  -27.2228  -26.9790   20.1779 C   0  0  0  0  0  0
  -25.5969  -33.8424   24.2097 N   0  0  0  0  0  0
  -23.4705  -30.4410   21.5225 C   0  0  2  0  0  0
  -24.9233  -28.8348   20.1133 C   0  0  0  0  0  0
  -22.7644  -29.4466   22.4803 C   0  0  0  0  0  0
  -18.0319  -28.1407   22.8467 C   0  0  0  0  0  0
  -24.1494  -36.7219   23.2647 C   0  0  0  0  0  0
  -26.0363  -30.6521   21.3950 C   0  0  0  0  0  0
  -26.1061  -29.2465   20.7399 C   0  0  0  0  0  0
  -27.2524  -28.3397   20.7456 C   0  0  0  0  0  0
  -26.0091  -26.7035   19.5103 C   0  0  0  0  0  0
  -24.8969  -27.5821   19.4791 C   0  0  0  0  0  0
  -23.7071  -29.7570   20.1480 C   0  0  0  0  0  0
  -25.4132  -36.2983   24.0304 C   0  0  1  0  0  0
  -20.5940  -28.3747   23.1200 C   0  0  2  0  0  0
  -20.6797  -26.9434   22.5404 C   0  0  0  0  0  0
  -19.5773  -26.6377   21.5214 C   0  0  0  0  0  0
  -18.1954  -26.7940   22.1621 C   0  0  0  0  0  0
  -19.1578  -28.8897   23.2821 C   0  0  0  0  0  0
  -18.9489  -30.1488   23.8854 C   0  0  0  0  0  0
  -17.6483  -30.6596   24.0556 C   0  0  0  0  0  0
  -25.9093  -34.9364   23.5021 C   0  0  0  0  0  0
  -16.5375  -29.9085   23.6341 C   0  0  0  0  0  0
  -16.7301  -28.6506   23.0359 C   0  0  0  0  0  0
  -26.4551  -31.6540   25.0698 C   0  0  0  0  0  0
  -25.3688  -31.3774   26.1362 C   0  0  0  0  0  0
  -27.0443  -30.2916   24.6394 C   0  0  0  0  0  0
  -27.6050  -32.4341   25.7499 C   0  0  0  0  0  0
  -27.5572  -37.1768   24.8466 C   0  0  0  0  0  0
  -21.4319  -29.3044   22.3551 N   0  0  0  0  0  0
  -26.4282  -37.3714   23.9407 N   0  0  0  0  0  0
  -24.7428  -30.9994   22.0847 N   0  0  0  0  0  0
  -23.4212  -28.8037   23.3030 O   0  0  0  0  0  0
  -28.2499  -25.9147   20.2416 O   0  0  0  0  0  0
  -26.5700  -34.8892   22.4614 O   0  0  0  0  0  0
  -23.5666  -32.1229   23.6864 O   0  0  0  0  0  0
  -29.5322  -20.3742   21.4643 C   0  0  0  0  0  0
  -28.9470  -20.2630   19.2432 C   0  0  0  0  0  0
  -29.1075  -21.2027   20.3434 C   0  0  0  0  0  0
  -29.7454  -18.9041   21.5036 C   0  0  0  0  0  0
  -29.1499  -18.7867   19.2632 C   0  0  0  0  0  0
  -29.5952  -17.9750   20.3935 C   0  0  0  0  0  0
  -30.1427  -18.2982   22.8362 C   0  0  0  0  0  0
  -28.8539  -18.0376   17.9775 C   0  0  0  0  0  0
  -29.1474  -22.9422   20.3108 C   0  0  0  0  0  0
  -28.0150  -24.3000   20.1722 C   0  0  0  0  0  0
  -29.5853  -16.3732   20.4792 N   0  0  0  0  0  0
  -31.4703  -12.9495   19.1941 H   0  0  0  0  0  0
  -30.5011  -11.8249   20.0985 H   0  0  0  0  0  0
  -29.9005  -11.7496   17.6537 H   0  0  0  0  0  0
  -29.5811  -13.4666   17.6620 H   0  0  0  0  0  0
  -28.0188  -11.2753   19.0529 H   0  0  0  0  0  0
  -27.4124  -12.3754   17.8409 H   0  0  0  0  0  0
  -27.5509  -14.2460   19.3543 H   0  0  0  0  0  0
  -28.8025  -12.4316   21.4730 H   0  0  0  0  0  0
  -28.3143  -14.0920   21.7215 H   0  0  0  0  0  0
  -25.2777   -9.5680   22.4760 H   0  0  0  0  0  0
  -24.0008   -7.4634   22.7473 H   0  0  0  0  0  0
  -21.0854   -8.8787   19.8952 H   0  0  0  0  0  0
  -22.3723  -10.9675   19.6162 H   0  0  0  0  0  0
  -21.2019   -7.6151   23.9725 H   0  0  0  0  0  0
  -21.1478   -6.0517   25.9078 H   0  0  0  0  0  0
  -22.0598   -2.7612   23.2841 H   0  0  0  0  0  0
  -22.4050  -11.9858   22.4859 H   0  0  0  0  0  0
  -21.1037  -13.1199   22.2649 H   0  0  0  0  0  0
  -24.6276  -15.8401   20.5249 H   0  0  0  0  0  0
  -26.2327  -15.6416   20.0436 H   0  0  0  0  0  0
  -26.7354  -32.5168   23.0906 H   0  0  0  0  0  0
  -25.0068  -33.9508   25.0215 H   0  0  0  0  0  0
  -22.7814  -31.2712   21.3545 H   0  0  0  0  0  0
  -23.3766  -35.9540   23.3284 H   0  0  0  0  0  0
  -24.3571  -36.8888   22.2066 H   0  0  0  0  0  0
  -23.7240  -37.6399   23.6715 H   0  0  0  0  0  0
  -26.2092  -31.3965   20.6166 H   0  0  0  0  0  0
  -26.8992  -30.7085   22.0468 H   0  0  0  0  0  0
  -28.1514  -28.6551   21.2562 H   0  0  0  0  0  0
  -25.8900  -25.7459   19.0255 H   0  0  0  0  0  0
  -23.9967  -27.2602   18.9737 H   0  0  0  0  0  0
  -23.8587  -30.5259   19.3896 H   0  0  0  0  0  0
  -22.8176  -29.2087   19.8325 H   0  0  0  0  0  0
  -25.1330  -36.1786   25.0795 H   0  0  0  0  0  0
  -21.0029  -28.3352   24.1324 H   0  0  0  0  0  0
  -20.5683  -26.2366   23.3640 H   0  0  0  0  0  0
  -21.6662  -26.7420   22.1208 H   0  0  0  0  0  0
  -19.6933  -25.6276   21.1275 H   0  0  0  0  0  0
  -19.6712  -27.3162   20.6724 H   0  0  0  0  0  0
  -17.4224  -26.6683   21.4025 H   0  0  0  0  0  0
  -18.0351  -26.0094   22.9029 H   0  0  0  0  0  0
  -19.7964  -30.7316   24.2206 H   0  0  0  0  0  0
  -17.5035  -31.6273   24.5167 H   0  0  0  0  0  0
  -15.5372  -30.2973   23.7690 H   0  0  0  0  0  0
  -15.8703  -28.0812   22.7097 H   0  0  0  0  0  0
  -24.5882  -30.7113   25.7669 H   0  0  0  0  0  0
  -24.8863  -32.2970   26.4683 H   0  0  0  0  0  0
  -25.7929  -30.9008   27.0208 H   0  0  0  0  0  0
  -26.3099  -29.6598   24.1387 H   0  0  0  0  0  0
  -27.3982  -29.7271   25.5031 H   0  0  0  0  0  0
  -27.9036  -30.4114   23.9793 H   0  0  0  0  0  0
  -27.2622  -33.3679   26.1968 H   0  0  0  0  0  0
  -28.3917  -32.6842   25.0368 H   0  0  0  0  0  0
  -28.0656  -31.8539   26.5504 H   0  0  0  0  0  0
  -28.2575  -38.0076   24.7512 H   0  0  0  0  0  0
  -28.1082  -36.2604   24.6297 H   0  0  0  0  0  0
  -27.2289  -37.1416   25.8869 H   0  0  0  0  0  0
  -20.9566  -29.8728   21.6680 H   0  0  0  0  0  0
  -26.0136  -38.2776   24.1410 H   0  0  0  0  0  0
  -29.7375  -20.9113   22.3801 H   0  0  0  0  0  0
  -28.6644  -20.7014   18.2958 H   0  0  0  0  0  0
  -30.3867  -19.0612   23.5753 H   0  0  0  0  0  0
  -31.0175  -17.6581   22.7167 H   0  0  0  0  0  0
  -29.3280  -17.6913   23.2319 H   0  0  0  0  0  0
  -28.7743  -18.7125   17.1250 H   0  0  0  0  0  0
  -27.9153  -17.4906   18.0672 H   0  0  0  0  0  0
  -29.6459  -17.3206   17.7596 H   0  0  0  0  0  0
  -29.8744  -23.1380   19.5225 H   0  0  0  0  0  0
  -29.6989  -23.1737   21.2219 H   0  0  0  0  0  0
  -27.2551  -24.1159   20.9318 H   0  0  0  0  0  0
  -27.4989  -24.1362   19.2265 H   0  0  0  0  0  0
  -28.6414  -16.0449   20.6130 H   0  0  0  0  0  0
  1 25  1  0  0  0
  1 30  2  0  0  0
  1 81  1  0  0  0
  2  3  1  0  0  0
  2 25  1  0  0  0
  2 82  1  0  0  0
  2 83  1  0  0  0
  3  4  1  0  0  0
  3 84  1  0  0  0
  3 85  1  0  0  0
  4  5  1  0  0  0
  4 86  1  0  0  0
  4 87  1  0  0  0
  5  6  1  0  0  0
  5 26  1  0  0  0
  5 88  1  0  0  0
  6 25  1  0  0  0
  6 89  1  0  0  0
  6 90  1  0  0  0
  7  8  2  0  0  0
  7 26  1  0  0  0
  7 29  1  0  0  0
  8  9  1  0  0  0
  8 22  1  0  0  0
  9 10  1  0  0  0
  9 27  2  0  0  0
 10 11  2  0  0  0
 10 15  1  0  0  0
 11 12  1  0  0  0
 11 91  1  0  0  0
 12 13  2  0  0  0
 12 92  1  0  0  0
 13 14  1  0  0  0
 13 31  1  0  0  0
 14 15  2  0  0  0
 14 93  1  0  0  0
 15 94  1  0  0  0
 16 17  2  0  0  0
 16 21  1  0  0  0
 16 31  1  0  0  0
 17 18  1  0  0  0
 17 95  1  0  0  0
 18 19  2  0  0  0
 18 96  1  0  0  0
 19 20  1  0  0  0
 19 24  1  0  0  0
 20 21  2  0  0  0
 20 97  1  0  0  0
 21 23  1  0  0  0
 22 28  1  0  0  0
 22 32  2  0  0  0
 26 27  1  0  0  0
 28 98  1  0  0  0
 28 99  1  0  0  0
 29100  1  0  0  0
 29101  1  0  0  0
 33 34  1  0  0  0
 33 66  1  0  0  0
 33 70  2  0  0  0
 34 36  1  0  0  0
 34 59  1  0  0  0
 34102  1  0  0  0
 35 44  2  0  0  0
 35 45  1  0  0  0
 35 68  1  0  0  0
 36 56  1  0  0  0
 36103  1  0  0  0
 37 39  1  0  0  0
 37 47  1  0  0  0
 37 66  1  0  0  0
 37104  1  0  0  0
 38 43  2  0  0  0
 38 46  1  0  0  0
 38 47  1  0  0  0
 39 64  1  0  0  0
 39 67  2  0  0  0
 40 52  1  0  0  0
 40 53  2  0  0  0
 40 58  1  0  0  0
 41105  1  0  0  0
 41106  1  0  0  0
 41107  1  0  0  0
 41 48  1  0  0  0
 42 43  1  0  0  0
 42 66  1  0  0  0
 42108  1  0  0  0
 42109  1  0  0  0
 43 44  1  0  0  0
 44110  1  0  0  0
 45 46  2  0  0  0
 45111  1  0  0  0
 46112  1  0  0  0
 47113  1  0  0  0
 47114  1  0  0  0
 48 56  1  0  0  0
 48 65  1  0  0  0
 48115  1  0  0  0
 49 50  1  0  0  0
 49 53  1  0  0  0
 49 64  1  0  0  0
 49116  1  0  0  0
 50 51  1  0  0  0
 50117  1  0  0  0
 50118  1  0  0  0
 51 52  1  0  0  0
 51119  1  0  0  0
 51120  1  0  0  0
 52121  1  0  0  0
 52122  1  0  0  0
 53 54  1  0  0  0
 54 55  2  0  0  0
 54123  1  0  0  0
 55 57  1  0  0  0
 55124  1  0  0  0
 56 69  2  0  0  0
 57 58  2  0  0  0
 57125  1  0  0  0
 58126  1  0  0  0
 59 60  1  0  0  0
 59 61  1  0  0  0
 59 62  1  0  0  0
 60127  1  0  0  0
 60128  1  0  0  0
 60129  1  0  0  0
 61130  1  0  0  0
 61131  1  0  0  0
 61132  1  0  0  0
 62133  1  0  0  0
 62134  1  0  0  0
 62135  1  0  0  0
 63 65  1  0  0  0
 63136  1  0  0  0
 63137  1  0  0  0
 63138  1  0  0  0
 64139  1  0  0  0
 65140  1  0  0  0
 68 80  1  0  0  0
 71 73  2  0  0  0
 71 74  1  0  0  0
 71141  1  0  0  0
 72 73  1  0  0  0
 72 75  2  0  0  0
 72142  1  0  0  0
 73 79  1  0  0  0
 74 76  2  0  0  0
 74 77  1  0  0  0
 75 76  1  0  0  0
 75 78  1  0  0  0
 76 81  1  0  0  0
 77143  1  0  0  0
 77144  1  0  0  0
 77145  1  0  0  0
 78146  1  0  0  0
 78147  1  0  0  0
 78148  1  0  0  0
 79 80  1  0  0  0
 79149  1  0  0  0
 79150  1  0  0  0
 80151  1  0  0  0
 80152  1  0  0  0
 81153  1  0  0  0
M  ISO  4   1 100  68 101  80 101  81 100
M  END
> <chiral flag>
0

> <version>
0

> <s_m_source_file>
/data/baiqing/PycharmProjects/Reinvent-master-3.2/result/LINK_invent/BTK/process_docking_weight1_custom_sum_contain_oxygen_bond_distance_aromatic_linkinvent_7_9_3/rearranged_h_0022.sdf

> <i_m_source_file_index>
96

> <r_mmod_Potential_Energy-OPLS-2005>
1006.48681640625

> <r_mmod_Stretch_Energy-OPLS-2005>
452.890258789062

> <r_mmod_Bend_Energy-OPLS-2005>
394.327545166016

> <r_mmod_Torsional_Energy-OPLS-2005>
248.988204956055

> <r_mmod_Improper_Torsional_Energy-OPLS-2005>
8.50920295715332

> <r_mmod_Van_der_Waal_Energy-OPLS-2005>
124.299011230469

> <r_mmod_Electrostatic_Energy-OPLS-2005>
-393.191802978516

> <r_mmod_Solvation_Energy-OPLS-2005>
-208.489166259766

> <b_mmod_Minimization_Converged-OPLS-2005>
0

> <r_mmod_RMS_Derivative-OPLS-2005>
0.444947332143784

$$$$
96
                    3D
 Structure written by MMmdl.
164172  0  0  1  0            999 V2000
  -29.4112  -14.2226   19.1351 C   0  0  0  0  0  0
  -30.6758  -12.2877   19.3495 C   0  0  0  0  0  0
  -29.5953  -11.6484   18.4998 C   0  0  0  0  0  0
  -28.3798  -11.5231   19.4795 C   0  0  0  0  0  0
  -28.0018  -12.6949   20.7072 C   0  0  2  0  0  0
  -29.3043  -13.0201   21.2787 C   0  0  0  0  0  0
  -25.9049  -14.5516   20.5466 C   0  0  0  0  0  0
  -24.7075  -14.2005   20.9233 C   0  0  0  0  0  0
  -25.2254  -12.8545   21.4553 C   0  0  0  0  0  0
  -23.8575  -10.4037   21.2486 C   0  0  0  0  0  0
  -24.2817   -9.0407   21.6519 C   0  0  0  0  0  0
  -23.5519   -7.8928   21.8327 C   0  0  0  0  0  0
  -22.2787   -7.8472   21.3119 C   0  0  0  0  0  0
  -21.7801   -8.9494   20.6624 C   0  0  0  0  0  0
  -22.4821  -10.1367   20.7581 C   0  0  0  0  0  0
  -21.5915   -5.9907   22.5241 C   0  0  0  0  0  0
  -21.3444   -6.5178   23.8107 C   0  0  0  0  0  0
  -21.3538   -5.6551   24.9227 C   0  0  0  0  0  0
  -21.6112   -4.2823   24.7410 C   0  0  0  0  0  0
  -21.8948   -3.7740   23.4607 C   0  0  0  0  0  0
  -21.8925   -4.6334   22.3530 C   0  0  0  0  0  0
  -23.1904  -14.7909   20.4784 C   0  0  0  0  0  0
  -22.1539   -4.1569   21.1121 F   0  0  0  0  0  0
  -21.5809   -3.4437   25.8004 F   0  0  0  0  0  0
  -29.9815  -13.3608   20.0308 N   0  0  0  0  0  0
  -26.7552  -13.4556   20.9084 N   0  0  0  0  0  0
  -26.3327  -13.1281   21.9967 N   0  0  0  0  0  0
  -21.9443  -14.3617   20.8913 N   0  0  0  0  0  0
  -26.1927  -15.6719   19.8656 N   0  0  0  0  0  0
  -30.3215  -15.0872   19.0053 O   0  0  0  0  0  0
  -21.5002   -6.7500   21.3979 O   0  0  0  0  0  0
  -23.0142  -15.6254   19.6695 O   0  0  0  0  0  0
  -24.6843  -31.7995   23.1617 C   0  0  0  0  0  0
  -25.9469  -32.4414   23.8078 C   0  0  1  0  0  0
  -26.6034  -26.3875   20.5344 C   0  0  0  0  0  0
  -25.6062  -33.8263   24.1933 N   0  0  0  0  0  0
  -23.4898  -30.4343   21.5157 C   0  0  2  0  0  0
  -24.8691  -28.7711   20.0930 C   0  0  0  0  0  0
  -22.7684  -29.4369   22.4634 C   0  0  0  0  0  0
  -18.0337  -28.1420   22.8468 C   0  0  0  0  0  0
  -24.1518  -36.7143   23.2640 C   0  0  0  0  0  0
  -26.0634  -30.4297   21.4728 C   0  0  0  0  0  0
  -26.0199  -28.9751   20.8569 C   0  0  0  0  0  0
  -26.9136  -27.7930   21.0476 C   0  0  0  0  0  0
  -25.6396  -26.4953   19.5259 C   0  0  0  0  0  0
  -24.7632  -27.5883   19.3553 C   0  0  0  0  0  0
  -23.7319  -29.7908   20.1207 C   0  0  0  0  0  0
  -25.4168  -36.2869   24.0261 C   0  0  1  0  0  0
  -20.5964  -28.3781   23.1135 C   0  0  2  0  0  0
  -20.6805  -26.9441   22.5399 C   0  0  0  0  0  0
  -19.5775  -26.6366   21.5222 C   0  0  0  0  0  0
  -18.1962  -26.7951   22.1628 C   0  0  0  0  0  0
  -19.1600  -28.8924   23.2791 C   0  0  0  0  0  0
  -18.9499  -30.1510   23.8831 C   0  0  0  0  0  0
  -17.6486  -30.6599   24.0556 C   0  0  0  0  0  0
  -25.9154  -34.9262   23.4928 C   0  0  0  0  0  0
  -16.5381  -29.9073   23.6354 C   0  0  0  0  0  0
  -16.7314  -28.6501   23.0366 C   0  0  0  0  0  0
  -26.4605  -31.6501   25.0751 C   0  0  0  0  0  0
  -25.3631  -31.3885   26.1339 C   0  0  0  0  0  0
  -27.0539  -30.2803   24.6812 C   0  0  0  0  0  0
  -27.6056  -32.4393   25.7526 C   0  0  0  0  0  0
  -27.5576  -37.1732   24.8452 C   0  0  0  0  0  0
  -21.4344  -29.3036   22.3412 N   0  0  0  0  0  0
  -26.4284  -37.3644   23.9398 N   0  0  0  0  0  0
  -24.7743  -30.9340   22.0957 N   0  0  0  0  0  0
  -23.4159  -28.7923   23.2935 O   0  0  0  0  0  0
  -27.0041  -24.8935   20.8321 O   0  0  0  0  0  0
  -26.5790  -34.8837   22.4544 O   0  0  0  0  0  0
  -23.5881  -32.1218   23.6519 O   0  0  0  0  0  0
  -26.1215  -10.7697   20.8648 C   0  0  0  0  0  0
  -24.2275  -11.6607   23.1938 C   0  0  0  0  0  0
  -25.7007  -10.8569   22.6285 C   0  0  0  0  0  0
  -25.2472  -11.6396   19.5353 C   0  0  0  0  0  0
  -23.1288  -12.5304   22.1055 C   0  0  0  0  0  0
  -23.5522  -12.2775   20.0440 C   0  0  0  0  0  0
  -26.6518  -10.2596   23.6501 C   0  0  0  0  0  0
  -26.3938  -12.7996   18.4295 C   0  0  0  0  0  0
  -25.0269  -19.5532   22.2538 C   0  0  0  0  0  0
  -24.3343  -17.5868   22.0880 C   0  0  0  0  0  0
  -25.7072  -21.2929   21.3110 C   0  0  0  0  0  0
  -23.9440  -15.7726   23.0541 C   0  0  0  0  0  0
  -26.1121  -23.3392   21.4269 C   0  0  0  0  0  0
  -23.2284  -14.0309   22.9976 N   0  0  0  0  0  0
  -27.9592  -13.8989   18.4812 N   0  0  0  0  0  0
  -22.4655  -12.4930   18.6757 Cl  0  0  0  0  0  0
  -31.5019  -12.6542   18.7364 H   0  0  0  0  0  0
  -31.1009  -11.5783   20.0616 H   0  0  0  0  0  0
  -29.9235  -10.6507   18.2054 H   0  0  0  0  0  0
  -29.3922  -12.1407   17.5473 H   0  0  0  0  0  0
  -28.7764  -10.7216   20.1058 H   0  0  0  0  0  0
  -27.6353  -10.9428   18.9469 H   0  0  0  0  0  0
  -28.0234  -13.7725   20.7732 H   0  0  0  0  0  0
  -29.7420  -12.1363   21.7433 H   0  0  0  0  0  0
  -29.3727  -13.8117   22.0412 H   0  0  0  0  0  0
  -25.2831   -8.7563   21.9287 H   0  0  0  0  0  0
  -24.0189   -7.0143   22.2555 H   0  0  0  0  0  0
  -20.7753   -8.9343   20.2628 H   0  0  0  0  0  0
  -21.7779  -10.9078   20.4883 H   0  0  0  0  0  0
  -21.1184   -7.5666   23.9399 H   0  0  0  0  0  0
  -21.1440   -6.0389   25.9097 H   0  0  0  0  0  0
  -22.1052   -2.7249   23.3293 H   0  0  0  0  0  0
  -22.0279  -14.0043   21.8470 H   0  0  0  0  0  0
  -21.1075  -14.8197   20.5697 H   0  0  0  0  0  0
  -25.4935  -16.3646   19.6284 H   0  0  0  0  0  0
  -27.1268  -15.9290   19.5780 H   0  0  0  0  0  0
  -26.7506  -32.4745   23.0709 H   0  0  0  0  0  0
  -25.0113  -33.9319   25.0021 H   0  0  0  0  0  0
  -22.8210  -31.2840   21.3631 H   0  0  0  0  0  0
  -23.3798  -35.9449   23.3217 H   0  0  0  0  0  0
  -24.3592  -36.8895   22.2070 H   0  0  0  0  0  0
  -23.7254  -37.6285   23.6781 H   0  0  0  0  0  0
  -26.3147  -31.1161   20.6624 H   0  0  0  0  0  0
  -26.9131  -30.4711   22.1398 H   0  0  0  0  0  0
  -27.7276  -27.8994   21.7510 H   0  0  0  0  0  0
  -25.3906  -25.5939   18.9839 H   0  0  0  0  0  0
  -23.9245  -27.4633   18.6851 H   0  0  0  0  0  0
  -23.9661  -30.5720   19.3968 H   0  0  0  0  0  0
  -22.8127  -29.3222   19.7649 H   0  0  0  0  0  0
  -25.1377  -36.1618   25.0750 H   0  0  0  0  0  0
  -21.0086  -28.3418   24.1243 H   0  0  0  0  0  0
  -20.5698  -26.2404   23.3663 H   0  0  0  0  0  0
  -21.6660  -26.7394   22.1196 H   0  0  0  0  0  0
  -19.6922  -25.6254   21.1304 H   0  0  0  0  0  0
  -19.6713  -27.3135   20.6721 H   0  0  0  0  0  0
  -17.4235  -26.6716   21.4025 H   0  0  0  0  0  0
  -18.0319  -26.0109   22.9035 H   0  0  0  0  0  0
  -19.7967  -30.7361   24.2153 H   0  0  0  0  0  0
  -17.5024  -31.6268   24.5177 H   0  0  0  0  0  0
  -15.5374  -30.2942   23.7717 H   0  0  0  0  0  0
  -15.8721  -28.0796   22.7100 H   0  0  0  0  0  0
  -24.5867  -30.7169   25.7647 H   0  0  0  0  0  0
  -24.8752  -32.3123   26.4462 H   0  0  0  0  0  0
  -25.7761  -30.9252   27.0308 H   0  0  0  0  0  0
  -26.3247  -29.6356   24.1898 H   0  0  0  0  0  0
  -27.3931  -29.7344   25.5626 H   0  0  0  0  0  0
  -27.9269  -30.3846   24.0368 H   0  0  0  0  0  0
  -27.2618  -33.3809   26.1818 H   0  0  0  0  0  0
  -28.3976  -32.6770   25.0414 H   0  0  0  0  0  0
  -28.0604  -31.8723   26.5657 H   0  0  0  0  0  0
  -28.2526  -38.0093   24.7537 H   0  0  0  0  0  0
  -28.1148  -36.2614   24.6237 H   0  0  0  0  0  0
  -27.2296  -37.1298   25.8855 H   0  0  0  0  0  0
  -20.9605  -29.8733   21.6549 H   0  0  0  0  0  0
  -26.0095  -38.2687   24.1414 H   0  0  0  0  0  0
  -26.9542  -10.1190   20.6845 H   0  0  0  0  0  0
  -24.1198  -11.7965   24.2606 H   0  0  0  0  0  0
  -27.6680  -10.6015   23.4521 H   0  0  0  0  0  0
  -26.6447   -9.1706   23.6226 H   0  0  0  0  0  0
  -26.3787  -10.5782   24.6558 H   0  0  0  0  0  0
  -25.6548  -13.5153   18.0673 H   0  0  0  0  0  0
  -26.5526  -12.2044   17.5302 H   0  0  0  0  0  0
  -25.8604  -19.3924   22.9371 H   0  0  0  0  0  0
  -24.2585  -19.9706   22.9045 H   0  0  0  0  0  0
  -24.9607  -17.2604   21.2713 H   0  0  0  0  0  0
  -23.3733  -17.7653   21.6072 H   0  0  0  0  0  0
  -25.0875  -21.2813   20.4145 H   0  0  0  0  0  0
  -26.6704  -20.9346   20.9468 H   0  0  0  0  0  0
  -23.3910  -16.1418   23.9186 H   0  0  0  0  0  0
  -24.9283  -15.5525   23.4704 H   0  0  0  0  0  0
  -26.5183  -23.3593   22.4382 H   0  0  0  0  0  0
  -25.1086  -23.7451   21.5524 H   0  0  0  0  0  0
  -22.9310  -13.8296   23.9508 H   0  0  0  0  0  0
  -27.8018  -14.6365   17.8091 H   0  0  0  0  0  0
  1 25  1  0  0  0
  1 30  2  0  0  0
  1 85  1  0  0  0
  2  3  1  0  0  0
  2 25  1  0  0  0
  2 87  1  0  0  0
  2 88  1  0  0  0
  3  4  1  0  0  0
  3 89  1  0  0  0
  3 90  1  0  0  0
  4  5  1  0  0  0
  4 91  1  0  0  0
  4 92  1  0  0  0
  5  6  1  0  0  0
  5 26  1  0  0  0
  5 93  1  0  0  0
  6 25  1  0  0  0
  6 94  1  0  0  0
  6 95  1  0  0  0
  7  8  2  0  0  0
  7 26  1  0  0  0
  7 29  1  0  0  0
  8  9  1  0  0  0
  8 22  1  0  0  0
  9 10  1  0  0  0
  9 27  2  0  0  0
 10 11  2  0  0  0
 10 15  1  0  0  0
 11 12  1  0  0  0
 11 96  1  0  0  0
 12 13  2  0  0  0
 12 97  1  0  0  0
 13 14  1  0  0  0
 13 31  1  0  0  0
 14 15  2  0  0  0
 14 98  1  0  0  0
 15 99  1  0  0  0
 16 17  2  0  0  0
 16 21  1  0  0  0
 16 31  1  0  0  0
 17 18  1  0  0  0
 17100  1  0  0  0
 18 19  2  0  0  0
 18101  1  0  0  0
 19 20  1  0  0  0
 19 24  1  0  0  0
 20 21  2  0  0  0
 20102  1  0  0  0
 21 23  1  0  0  0
 22 28  1  0  0  0
 22 32  2  0  0  0
 26 27  1  0  0  0
 28103  1  0  0  0
 28104  1  0  0  0
 29105  1  0  0  0
 29106  1  0  0  0
 33 34  1  0  0  0
 33 66  1  0  0  0
 33 70  2  0  0  0
 34 36  1  0  0  0
 34 59  1  0  0  0
 34107  1  0  0  0
 35 44  2  0  0  0
 35 45  1  0  0  0
 35 68  1  0  0  0
 36 56  1  0  0  0
 36108  1  0  0  0
 37 39  1  0  0  0
 37 47  1  0  0  0
 37 66  1  0  0  0
 37109  1  0  0  0
 38 43  2  0  0  0
 38 46  1  0  0  0
 38 47  1  0  0  0
 39 64  1  0  0  0
 39 67  2  0  0  0
 40 52  1  0  0  0
 40 53  2  0  0  0
 40 58  1  0  0  0
 41110  1  0  0  0
 41111  1  0  0  0
 41112  1  0  0  0
 41 48  1  0  0  0
 42 43  1  0  0  0
 42 66  1  0  0  0
 42113  1  0  0  0
 42114  1  0  0  0
 43 44  1  0  0  0
 44115  1  0  0  0
 45 46  2  0  0  0
 45116  1  0  0  0
 46117  1  0  0  0
 47118  1  0  0  0
 47119  1  0  0  0
 48 56  1  0  0  0
 48 65  1  0  0  0
 48120  1  0  0  0
 49 50  1  0  0  0
 49 53  1  0  0  0
 49 64  1  0  0  0
 49121  1  0  0  0
 50 51  1  0  0  0
 50122  1  0  0  0
 50123  1  0  0  0
 51 52  1  0  0  0
 51124  1  0  0  0
 51125  1  0  0  0
 52126  1  0  0  0
 52127  1  0  0  0
 53 54  1  0  0  0
 54 55  2  0  0  0
 54128  1  0  0  0
 55 57  1  0  0  0
 55129  1  0  0  0
 56 69  2  0  0  0
 57 58  2  0  0  0
 57130  1  0  0  0
 58131  1  0  0  0
 59 60  1  0  0  0
 59 61  1  0  0  0
 59 62  1  0  0  0
 60132  1  0  0  0
 60133  1  0  0  0
 60134  1  0  0  0
 61135  1  0  0  0
 61136  1  0  0  0
 61137  1  0  0  0
 62138  1  0  0  0
 62139  1  0  0  0
 62140  1  0  0  0
 63 65  1  0  0  0
 63141  1  0  0  0
 63142  1  0  0  0
 63143  1  0  0  0
 64144  1  0  0  0
 65145  1  0  0  0
 68 83  1  0  0  0
 71 73  2  0  0  0
 71 74  1  0  0  0
 71146  1  0  0  0
 72 73  1  0  0  0
 72 75  2  0  0  0
 72147  1  0  0  0
 73 77  1  0  0  0
 74 76  2  0  0  0
 74 78  1  0  0  0
 75 76  1  0  0  0
 75 84  1  0  0  0
 76 86  1  0  0  0
 77148  1  0  0  0
 77149  1  0  0  0
 77150  1  0  0  0
 78 85  1  0  0  0
 78151  1  0  0  0
 78152  1  0  0  0
 79 80  1  0  0  0
 79 81  1  0  0  0
 79153  1  0  0  0
 79154  1  0  0  0
 80 82  1  0  0  0
 80155  1  0  0  0
 80156  1  0  0  0
 81 83  1  0  0  0
 81157  1  0  0  0
 81158  1  0  0  0
 82 84  1  0  0  0
 82159  1  0  0  0
 82160  1  0  0  0
 83161  1  0  0  0
 83162  1  0  0  0
 84163  1  0  0  0
 85164  1  0  0  0
M  ISO  4   1 100  68 101  83 101  85 100
M  END
> <chiral flag>
0

> <version>
0

> <s_m_source_file>
/data/baiqing/PycharmProjects/Reinvent-master-3.2/result/LINK_invent/BTK/process_docking_weight1_custom_sum_contain_oxygen_bond_distance_aromatic_linkinvent_7_9_3/rearranged_h_0022.sdf

> <i_m_source_file_index>
97

> <r_mmod_Potential_Energy-OPLS-2005>
18804.1953125

> <r_mmod_Stretch_Energy-OPLS-2005>
8709.9794921875

> <r_mmod_Bend_Energy-OPLS-2005>
1937.7568359375

> <r_mmod_Torsional_Energy-OPLS-2005>
741.354675292969

> <r_mmod_Improper_Torsional_Energy-OPLS-2005>
56.053352355957

> <r_mmod_Van_der_Waal_Energy-OPLS-2005>
3715.65356445312

> <r_mmod_Electrostatic_Energy-OPLS-2005>
-398.872741699219

> <r_mmod_Solvation_Energy-OPLS-2005>
-200.553405761719

> <b_mmod_Minimization_Converged-OPLS-2005>
0

> <r_mmod_RMS_Derivative-OPLS-2005>
3.46451210975647

$$$$
97
                    3D
 Structure written by MMmdl.
165173  0  0  1  0            999 V2000
  -30.5270  -14.9666   20.4257 C   0  0  0  0  0  0
  -30.4375  -12.6022   19.4884 C   0  0  0  0  0  0
  -29.5146  -12.5270   18.2500 C   0  0  0  0  0  0
  -28.0499  -12.3092   18.6749 C   0  0  0  0  0  0
  -27.6243  -13.2469   19.8345 C   0  0  2  0  0  0
  -28.6698  -13.2843   20.9679 C   0  0  0  0  0  0
  -25.2441  -13.8211   20.5709 C   0  0  0  0  0  0
  -24.1760  -13.0435   20.9229 C   0  0  0  0  0  0
  -24.6379  -11.6916   20.8760 C   0  0  0  0  0  0
  -23.9066  -10.4287   21.0418 C   0  0  0  0  0  0
  -24.3617   -9.4201   21.9195 C   0  0  0  0  0  0
  -23.6290   -8.2236   22.0760 C   0  0  0  0  0  0
  -22.4273   -8.0277   21.3548 C   0  0  0  0  0  0
  -21.9910   -9.0248   20.4649 C   0  0  0  0  0  0
  -22.7238  -10.2128   20.3062 C   0  0  0  0  0  0
  -21.6854   -6.0730   22.5274 C   0  0  0  0  0  0
  -21.4020   -6.5636   23.8206 C   0  0  0  0  0  0
  -21.3656   -5.6790   24.9168 C   0  0  0  0  0  0
  -21.6043   -4.3053   24.7221 C   0  0  0  0  0  0
  -21.8818   -3.8141   23.4343 C   0  0  0  0  0  0
  -21.9192   -4.6957   22.3398 C   0  0  0  0  0  0
  -22.7784  -13.5209   21.1884 C   0  0  0  0  0  0
  -22.1659   -4.2142   21.0977 F   0  0  0  0  0  0
  -21.5622   -3.4537   25.7736 F   0  0  0  0  0  0
  -29.9366  -13.7047   20.3581 N   0  0  0  0  0  0
  -26.2859  -12.9435   20.3243 N   0  0  0  0  0  0
  -25.9310  -11.6568   20.5751 N   0  0  0  0  0  0
  -22.0437  -12.8192   22.0444 N   0  0  0  0  0  0
  -25.4094  -15.1941   20.4121 N   0  0  0  0  0  0
  -31.7433  -15.0210   20.2132 O   0  0  0  0  0  0
  -21.6640   -6.8872   21.4239 O   0  0  0  0  0  0
  -22.3461  -14.5510   20.6730 O   0  0  0  0  0  0
  -24.6445  -31.8415   23.1878 C   0  0  0  0  0  0
  -25.9204  -32.4682   23.8274 C   0  0  1  0  0  0
  -27.2119  -27.1131   20.1559 C   0  0  0  0  0  0
  -25.5950  -33.8491   24.2194 N   0  0  0  0  0  0
  -23.4503  -30.4599   21.5335 C   0  0  2  0  0  0
  -24.8993  -28.8839   20.1092 C   0  0  0  0  0  0
  -22.7578  -29.4529   22.4860 C   0  0  0  0  0  0
  -18.0307  -28.1394   22.8459 C   0  0  0  0  0  0
  -24.1498  -36.7245   23.2647 C   0  0  0  0  0  0
  -26.0079  -30.7074   21.3908 C   0  0  0  0  0  0
  -26.0775  -29.3175   20.7305 C   0  0  0  0  0  0
  -27.2338  -28.4478   20.7359 C   0  0  0  0  0  0
  -26.0108  -26.7899   19.4874 C   0  0  0  0  0  0
  -24.8805  -27.6359   19.4706 C   0  0  0  0  0  0
  -23.6774  -29.7878   20.1530 C   0  0  0  0  0  0
  -25.4126  -36.3027   24.0326 C   0  0  1  0  0  0
  -20.5919  -28.3711   23.1233 C   0  0  2  0  0  0
  -20.6800  -26.9418   22.5397 C   0  0  0  0  0  0
  -19.5779  -26.6371   21.5204 C   0  0  0  0  0  0
  -18.1955  -26.7924   22.1611 C   0  0  0  0  0  0
  -19.1564  -28.8868   23.2836 C   0  0  0  0  0  0
  -18.9488  -30.1464   23.8854 C   0  0  0  0  0  0
  -17.6487  -30.6582   24.0549 C   0  0  0  0  0  0
  -25.9075  -34.9398   23.5070 C   0  0  0  0  0  0
  -16.5375  -29.9071   23.6342 C   0  0  0  0  0  0
  -16.7292  -28.6496   23.0346 C   0  0  0  0  0  0
  -26.4526  -31.6553   25.0718 C   0  0  0  0  0  0
  -25.3714  -31.3721   26.1413 C   0  0  0  0  0  0
  -27.0402  -30.2956   24.6295 C   0  0  0  0  0  0
  -27.6064  -32.4320   25.7488 C   0  0  0  0  0  0
  -27.5577  -37.1778   24.8468 C   0  0  0  0  0  0
  -21.4271  -29.3035   22.3607 N   0  0  0  0  0  0
  -26.4290  -37.3739   23.9410 N   0  0  0  0  0  0
  -24.7212  -31.0246   22.0924 N   0  0  0  0  0  0
  -23.4209  -28.8085   23.3025 O   0  0  0  0  0  0
  -28.2515  -26.1089   20.2416 O   0  0  0  0  0  0
  -26.5657  -34.8897   22.4649 O   0  0  0  0  0  0
  -23.5560  -32.1306   23.7076 O   0  0  0  0  0  0
  -30.6101  -20.4437   21.2955 C   0  0  0  0  0  0
  -31.1551  -18.0294   21.3530 C   0  0  0  0  0  0
  -31.4698  -19.3794   21.6876 C   0  0  0  0  0  0
  -29.4224  -20.2488   20.5641 C   0  0  0  0  0  0
  -29.9910  -17.6541   20.6491 C   0  0  0  0  0  0
  -29.1317  -18.8129   20.2718 C   0  0  0  0  0  0
  -33.8794  -20.9740   20.5902 C   0  0  0  0  0  0
  -33.7308  -18.5464   22.6145 C   0  0  0  0  0  0
  -32.2152  -19.9551   23.9939 C   0  0  0  0  0  0
  -28.5277  -21.5954   20.1856 C   0  0  0  0  0  0
  -33.4618  -20.9757   22.0709 C   0  0  0  0  0  0
  -28.9276  -23.2300   20.4469 C   0  0  0  0  0  0
  -27.9620  -24.5770   20.0672 C   0  0  0  0  0  0
  -32.7063  -19.7056   22.5559 C   0  0  0  0  0  0
  -29.7212  -16.1470   20.4588 N   0  0  0  0  0  0
  -27.6626  -18.4550   19.4375 Cl  0  0  0  0  0  0
  -31.4690  -12.7682   19.1740 H   0  0  0  0  0  0
  -30.4369  -11.6542   20.0293 H   0  0  0  0  0  0
  -29.8343  -11.7245   17.5840 H   0  0  0  0  0  0
  -29.5948  -13.4514   17.6764 H   0  0  0  0  0  0
  -27.9519  -11.2702   18.9914 H   0  0  0  0  0  0
  -27.3813  -12.4305   17.8217 H   0  0  0  0  0  0
  -27.5819  -14.2451   19.3994 H   0  0  0  0  0  0
  -28.7657  -12.3106   21.4505 H   0  0  0  0  0  0
  -28.3698  -13.9894   21.7450 H   0  0  0  0  0  0
  -25.2756   -9.5679   22.4775 H   0  0  0  0  0  0
  -23.9988   -7.4634   22.7490 H   0  0  0  0  0  0
  -21.0834   -8.8768   19.8963 H   0  0  0  0  0  0
  -22.3691  -10.9667   19.6173 H   0  0  0  0  0  0
  -21.2023   -7.6146   23.9707 H   0  0  0  0  0  0
  -21.1477   -6.0522   25.9070 H   0  0  0  0  0  0
  -22.0602   -2.7604   23.2844 H   0  0  0  0  0  0
  -22.4054  -11.9839   22.4805 H   0  0  0  0  0  0
  -21.1070  -13.1229   22.2687 H   0  0  0  0  0  0
  -24.6367  -15.8414   20.5205 H   0  0  0  0  0  0
  -26.2439  -15.6386   20.0542 H   0  0  0  0  0  0
  -26.7262  -32.5279   23.0990 H   0  0  0  0  0  0
  -25.0089  -33.9618   25.0336 H   0  0  0  0  0  0
  -22.7545  -31.2866   21.3758 H   0  0  0  0  0  0
  -23.3777  -35.9562   23.3291 H   0  0  0  0  0  0
  -24.3586  -36.8888   22.2066 H   0  0  0  0  0  0
  -23.7238  -37.6432   23.6687 H   0  0  0  0  0  0
  -26.1691  -31.4625   20.6204 H   0  0  0  0  0  0
  -26.8774  -30.7548   22.0350 H   0  0  0  0  0  0
  -28.1295  -28.7698   21.2477 H   0  0  0  0  0  0
  -25.9112  -25.8368   18.9904 H   0  0  0  0  0  0
  -23.9822  -27.3004   18.9708 H   0  0  0  0  0  0
  -23.8165  -30.5612   19.3974 H   0  0  0  0  0  0
  -22.7927  -29.2305   19.8401 H   0  0  0  0  0  0
  -25.1317  -36.1858   25.0821 H   0  0  0  0  0  0
  -21.0003  -28.3290   24.1359 H   0  0  0  0  0  0
  -20.5702  -26.2325   23.3612 H   0  0  0  0  0  0
  -21.6667  -26.7428   22.1195 H   0  0  0  0  0  0
  -19.6959  -25.6279   21.1248 H   0  0  0  0  0  0
  -19.6725  -27.3170   20.6727 H   0  0  0  0  0  0
  -17.4233  -26.6657   21.4009 H   0  0  0  0  0  0
  -18.0358  -26.0070   22.9014 H   0  0  0  0  0  0
  -19.7969  -30.7285   24.2208 H   0  0  0  0  0  0
  -17.5043  -31.6262   24.5155 H   0  0  0  0  0  0
  -15.5379  -30.2960   23.7693 H   0  0  0  0  0  0
  -15.8692  -28.0806   22.7082 H   0  0  0  0  0  0
  -24.5924  -30.7036   25.7726 H   0  0  0  0  0  0
  -24.8872  -32.2890   26.4781 H   0  0  0  0  0  0
  -25.8008  -30.8935   27.0222 H   0  0  0  0  0  0
  -26.3022  -29.6667   24.1304 H   0  0  0  0  0  0
  -27.4034  -29.7257   25.4855 H   0  0  0  0  0  0
  -27.8916  -30.4213   23.9607 H   0  0  0  0  0  0
  -27.2679  -33.3658   26.1979 H   0  0  0  0  0  0
  -28.3901  -32.6807   25.0324 H   0  0  0  0  0  0
  -28.0692  -31.8499   26.5462 H   0  0  0  0  0  0
  -28.2582  -38.0086   24.7518 H   0  0  0  0  0  0
  -28.1090  -36.2615   24.6296 H   0  0  0  0  0  0
  -27.2294  -37.1416   25.8872 H   0  0  0  0  0  0
  -20.9503  -29.8736   21.6764 H   0  0  0  0  0  0
  -26.0161  -38.2812   24.1406 H   0  0  0  0  0  0
  -30.8549  -21.4546   21.5822 H   0  0  0  0  0  0
  -31.7987  -17.2324   21.6843 H   0  0  0  0  0  0
  -34.4668  -21.8632   20.3597 H   0  0  0  0  0  0
  -33.0162  -20.9734   19.9249 H   0  0  0  0  0  0
  -34.4919  -20.1073   20.3437 H   0  0  0  0  0  0
  -33.3355  -17.6725   23.1318 H   0  0  0  0  0  0
  -34.6274  -18.8373   23.1620 H   0  0  0  0  0  0
  -34.0487  -18.2307   21.6209 H   0  0  0  0  0  0
  -31.6918  -19.0834   24.3893 H   0  0  0  0  0  0
  -31.5238  -20.7970   24.0431 H   0  0  0  0  0  0
  -33.0432  -20.1726   24.6692 H   0  0  0  0  0  0
  -27.5667  -21.4361   20.6754 H   0  0  0  0  0  0
  -28.3102  -21.4996   19.1220 H   0  0  0  0  0  0
  -32.8650  -21.8684   22.2578 H   0  0  0  0  0  0
  -34.3542  -21.1188   22.6829 H   0  0  0  0  0  0
  -29.8801  -23.3897   19.9420 H   0  0  0  0  0  0
  -29.1609  -23.3201   21.5077 H   0  0  0  0  0  0
  -27.0213  -24.4035   20.5913 H   0  0  0  0  0  0
  -27.7182  -24.4590   19.0109 H   0  0  0  0  0  0
  -28.7416  -15.9353   20.3564 H   0  0  0  0  0  0
  1 25  1  0  0  0
  1 30  2  0  0  0
  1 85  1  0  0  0
  2  3  1  0  0  0
  2 25  1  0  0  0
  2 87  1  0  0  0
  2 88  1  0  0  0
  3  4  1  0  0  0
  3 89  1  0  0  0
  3 90  1  0  0  0
  4  5  1  0  0  0
  4 91  1  0  0  0
  4 92  1  0  0  0
  5  6  1  0  0  0
  5 26  1  0  0  0
  5 93  1  0  0  0
  6 25  1  0  0  0
  6 94  1  0  0  0
  6 95  1  0  0  0
  7  8  2  0  0  0
  7 26  1  0  0  0
  7 29  1  0  0  0
  8  9  1  0  0  0
  8 22  1  0  0  0
  9 10  1  0  0  0
  9 27  2  0  0  0
 10 11  2  0  0  0
 10 15  1  0  0  0
 11 12  1  0  0  0
 11 96  1  0  0  0
 12 13  2  0  0  0
 12 97  1  0  0  0
 13 14  1  0  0  0
 13 31  1  0  0  0
 14 15  2  0  0  0
 14 98  1  0  0  0
 15 99  1  0  0  0
 16 17  2  0  0  0
 16 21  1  0  0  0
 16 31  1  0  0  0
 17 18  1  0  0  0
 17100  1  0  0  0
 18 19  2  0  0  0
 18101  1  0  0  0
 19 20  1  0  0  0
 19 24  1  0  0  0
 20 21  2  0  0  0
 20102  1  0  0  0
 21 23  1  0  0  0
 22 28  1  0  0  0
 22 32  2  0  0  0
 26 27  1  0  0  0
 28103  1  0  0  0
 28104  1  0  0  0
 29105  1  0  0  0
 29106  1  0  0  0
 33 34  1  0  0  0
 33 66  1  0  0  0
 33 70  2  0  0  0
 34 36  1  0  0  0
 34 59  1  0  0  0
 34107  1  0  0  0
 35 44  2  0  0  0
 35 45  1  0  0  0
 35 68  1  0  0  0
 36 56  1  0  0  0
 36108  1  0  0  0
 37 39  1  0  0  0
 37 47  1  0  0  0
 37 66  1  0  0  0
 37109  1  0  0  0
 38 43  2  0  0  0
 38 46  1  0  0  0
 38 47  1  0  0  0
 39 64  1  0  0  0
 39 67  2  0  0  0
 40 52  1  0  0  0
 40 53  2  0  0  0
 40 58  1  0  0  0
 41110  1  0  0  0
 41111  1  0  0  0
 41112  1  0  0  0
 41 48  1  0  0  0
 42 43  1  0  0  0
 42 66  1  0  0  0
 42113  1  0  0  0
 42114  1  0  0  0
 43 44  1  0  0  0
 44115  1  0  0  0
 45 46  2  0  0  0
 45116  1  0  0  0
 46117  1  0  0  0
 47118  1  0  0  0
 47119  1  0  0  0
 48 56  1  0  0  0
 48 65  1  0  0  0
 48120  1  0  0  0
 49 50  1  0  0  0
 49 53  1  0  0  0
 49 64  1  0  0  0
 49121  1  0  0  0
 50 51  1  0  0  0
 50122  1  0  0  0
 50123  1  0  0  0
 51 52  1  0  0  0
 51124  1  0  0  0
 51125  1  0  0  0
 52126  1  0  0  0
 52127  1  0  0  0
 53 54  1  0  0  0
 54 55  2  0  0  0
 54128  1  0  0  0
 55 57  1  0  0  0
 55129  1  0  0  0
 56 69  2  0  0  0
 57 58  2  0  0  0
 57130  1  0  0  0
 58131  1  0  0  0
 59 60  1  0  0  0
 59 61  1  0  0  0
 59 62  1  0  0  0
 60132  1  0  0  0
 60133  1  0  0  0
 60134  1  0  0  0
 61135  1  0  0  0
 61136  1  0  0  0
 61137  1  0  0  0
 62138  1  0  0  0
 62139  1  0  0  0
 62140  1  0  0  0
 63 65  1  0  0  0
 63141  1  0  0  0
 63142  1  0  0  0
 63143  1  0  0  0
 64144  1  0  0  0
 65145  1  0  0  0
 68 83  1  0  0  0
 71 73  2  0  0  0
 71 74  1  0  0  0
 71146  1  0  0  0
 72 73  1  0  0  0
 72 75  2  0  0  0
 72147  1  0  0  0
 73 84  1  0  0  0
 74 76  2  0  0  0
 74 80  1  0  0  0
 75 76  1  0  0  0
 75 85  1  0  0  0
 76 86  1  0  0  0
 77 81  1  0  0  0
 77148  1  0  0  0
 77149  1  0  0  0
 77150  1  0  0  0
 78151  1  0  0  0
 78152  1  0  0  0
 78153  1  0  0  0
 78 84  1  0  0  0
 79 84  1  0  0  0
 79154  1  0  0  0
 79155  1  0  0  0
 79156  1  0  0  0
 80 82  1  0  0  0
 80157  1  0  0  0
 80158  1  0  0  0
 81 84  1  0  0  0
 81159  1  0  0  0
 81160  1  0  0  0
 82 83  1  0  0  0
 82161  1  0  0  0
 82162  1  0  0  0
 83163  1  0  0  0
 83164  1  0  0  0
 85165  1  0  0  0
M  ISO  4   1 100  68 101  83 101  85 100
M  END
> <chiral flag>
0

> <version>
0

> <s_m_source_file>
/data/baiqing/PycharmProjects/Reinvent-master-3.2/result/LINK_invent/BTK/process_docking_weight1_custom_sum_contain_oxygen_bond_distance_aromatic_linkinvent_7_9_3/rearranged_h_0022.sdf

> <i_m_source_file_index>
98

> <r_mmod_Potential_Energy-OPLS-2005>
498.941070556641

> <r_mmod_Stretch_Energy-OPLS-2005>
281.460876464844

> <r_mmod_Bend_Energy-OPLS-2005>
253.987884521484

> <r_mmod_Torsional_Energy-OPLS-2005>
224.594772338867

> <r_mmod_Improper_Torsional_Energy-OPLS-2005>
6.67452335357666

> <r_mmod_Van_der_Waal_Energy-OPLS-2005>
134.833206176758

> <r_mmod_Electrostatic_Energy-OPLS-2005>
-425.358795166016

> <r_mmod_Solvation_Energy-OPLS-2005>
-189.798110961914

> <b_mmod_Minimization_Converged-OPLS-2005>
0

> <r_mmod_RMS_Derivative-OPLS-2005>
1.33726751804352

$$$$
98
                    3D
 Structure written by MMmdl.
165173  0  0  1  0            999 V2000
  -30.7351  -14.4331   20.5912 C   0  0  0  0  0  0
  -30.4227  -12.2850   19.4066 C   0  0  0  0  0  0
  -29.4898  -12.5119   18.2031 C   0  0  0  0  0  0
  -28.0151  -12.3790   18.6233 C   0  0  0  0  0  0
  -27.6756  -13.2101   19.8882 C   0  0  2  0  0  0
  -28.7231  -12.9582   21.0004 C   0  0  0  0  0  0
  -25.2596  -13.8172   20.5561 C   0  0  0  0  0  0
  -24.1886  -13.0436   20.9188 C   0  0  0  0  0  0
  -24.6484  -11.6913   20.8823 C   0  0  0  0  0  0
  -23.9170  -10.4296   21.0498 C   0  0  0  0  0  0
  -24.3684   -9.4210   21.9286 C   0  0  0  0  0  0
  -23.6329   -8.2261   22.0821 C   0  0  0  0  0  0
  -22.4322   -8.0323   21.3577 C   0  0  0  0  0  0
  -21.9982   -9.0332   20.4712 C   0  0  0  0  0  0
  -22.7347  -10.2191   20.3143 C   0  0  0  0  0  0
  -21.6858   -6.0777   22.5268 C   0  0  0  0  0  0
  -21.4015   -6.5679   23.8209 C   0  0  0  0  0  0
  -21.3649   -5.6839   24.9169 C   0  0  0  0  0  0
  -21.6050   -4.3098   24.7242 C   0  0  0  0  0  0
  -21.8817   -3.8195   23.4351 C   0  0  0  0  0  0
  -21.9186   -4.6998   22.3399 C   0  0  0  0  0  0
  -22.7911  -13.5247   21.1856 C   0  0  0  0  0  0
  -22.1657   -4.2168   21.0987 F   0  0  0  0  0  0
  -21.5614   -3.4589   25.7759 F   0  0  0  0  0  0
  -30.0644  -13.2542   20.4620 N   0  0  0  0  0  0
  -26.3117  -12.9378   20.3452 N   0  0  0  0  0  0
  -25.9426  -11.6529   20.5894 N   0  0  0  0  0  0
  -22.0500  -12.8236   22.0375 N   0  0  0  0  0  0
  -25.4153  -15.1873   20.3666 N   0  0  0  0  0  0
  -31.7058  -14.6915   19.8793 O   0  0  0  0  0  0
  -21.6674   -6.8911   21.4231 O   0  0  0  0  0  0
  -22.3618  -14.5553   20.6699 O   0  0  0  0  0  0
  -24.6174  -31.8669   23.2066 C   0  0  0  0  0  0
  -25.9061  -32.4845   23.8383 C   0  0  1  0  0  0
  -27.2492  -27.4462   20.1000 C   0  0  0  0  0  0
  -25.5932  -33.8631   24.2341 N   0  0  0  0  0  0
  -23.4078  -30.4850   21.5479 C   0  0  2  0  0  0
  -24.8628  -28.9523   20.1119 C   0  0  0  0  0  0
  -22.7435  -29.4627   22.4974 C   0  0  0  0  0  0
  -18.0292  -28.1323   22.8472 C   0  0  0  0  0  0
  -24.1482  -36.7310   23.2640 C   0  0  0  0  0  0
  -25.9349  -30.8404   21.3557 C   0  0  0  0  0  0
  -26.0180  -29.4718   20.7089 C   0  0  0  0  0  0
  -27.2182  -28.7273   20.6981 C   0  0  0  0  0  0
  -26.0861  -26.9358   19.4969 C   0  0  0  0  0  0
  -24.8903  -27.6841   19.5001 C   0  0  0  0  0  0
  -23.6178  -29.8116   20.1624 C   0  0  0  0  0  0
  -25.4113  -36.3136   24.0346 C   0  0  1  0  0  0
  -20.5889  -28.3642   23.1344 C   0  0  2  0  0  0
  -20.6782  -26.9378   22.5470 C   0  0  0  0  0  0
  -19.5806  -26.6326   21.5210 C   0  0  0  0  0  0
  -18.1945  -26.7860   22.1570 C   0  0  0  0  0  0
  -19.1524  -28.8782   23.2925 C   0  0  0  0  0  0
  -18.9406  -30.1384   23.8966 C   0  0  0  0  0  0
  -17.6405  -30.6533   24.0538 C   0  0  0  0  0  0
  -25.9025  -34.9490   23.5133 C   0  0  0  0  0  0
  -16.5300  -29.9035   23.6265 C   0  0  0  0  0  0
  -16.7277  -28.6431   23.0340 C   0  0  0  0  0  0
  -26.4473  -31.6627   25.0719 C   0  0  0  0  0  0
  -25.3684  -31.3781   26.1435 C   0  0  0  0  0  0
  -27.0332  -30.3098   24.6091 C   0  0  0  0  0  0
  -27.6098  -32.4294   25.7471 C   0  0  0  0  0  0
  -27.5578  -37.1827   24.8470 C   0  0  0  0  0  0
  -21.4162  -29.3016   22.3746 N   0  0  0  0  0  0
  -26.4309  -37.3820   23.9388 N   0  0  0  0  0  0
  -24.6723  -31.0774   22.0966 N   0  0  0  0  0  0
  -23.4188  -28.8171   23.3016 O   0  0  0  0  0  0
  -28.4035  -26.7002   20.0812 O   0  0  0  0  0  0
  -26.5563  -34.8953   22.4679 O   0  0  0  0  0  0
  -23.5350  -32.1397   23.7445 O   0  0  0  0  0  0
  -31.1967  -18.9946   21.6269 C   0  0  0  0  0  0
  -31.3500  -17.5912   21.4209 C   0  0  0  0  0  0
  -29.9954  -19.5152   22.1816 C   0  0  0  0  0  0
  -29.0724  -17.2295   22.2495 C   0  0  0  0  0  0
  -30.2721  -16.6884   21.7052 C   0  0  0  0  0  0
  -28.9409  -18.6218   22.4914 C   0  0  0  0  0  0
  -32.3662  -19.9261   21.2912 C   0  0  0  0  0  0
  -32.7211  -17.1025   20.9566 C   0  0  0  0  0  0
  -27.9184  -16.2858   22.5897 C   0  0  0  0  0  0
  -29.8296  -21.0135   22.4929 C   0  0  0  0  0  0
  -29.2248  -21.8391   21.3306 C   0  0  0  0  0  0
  -28.8132  -23.2681   21.7683 C   0  0  0  0  0  0
  -28.5981  -24.2866   20.6193 C   0  0  0  0  0  0
  -28.5051  -25.7405   21.1382 C   0  0  0  0  0  0
  -30.3227  -15.2430   21.5894 N   0  0  0  0  0  0
  -27.4791  -19.2456   23.1911 Cl  0  0  0  0  0  0
  -31.4657  -12.3696   19.0946 H   0  0  0  0  0  0
  -30.3124  -11.2625   19.7761 H   0  0  0  0  0  0
  -29.7110  -11.8008   17.4043 H   0  0  0  0  0  0
  -29.6710  -13.5057   17.7914 H   0  0  0  0  0  0
  -27.8185  -11.3216   18.8140 H   0  0  0  0  0  0
  -27.3599  -12.6630   17.7993 H   0  0  0  0  0  0
  -27.7316  -14.2637   19.6102 H   0  0  0  0  0  0
  -28.6851  -11.9148   21.3122 H   0  0  0  0  0  0
  -28.4881  -13.5247   21.8991 H   0  0  0  0  0  0
  -25.2807   -9.5682   22.4899 H   0  0  0  0  0  0
  -24.0013   -7.4649   22.7534 H   0  0  0  0  0  0
  -21.0925   -8.8954   19.9014 H   0  0  0  0  0  0
  -22.3868  -10.9793   19.6298 H   0  0  0  0  0  0
  -21.2015   -7.6183   23.9708 H   0  0  0  0  0  0
  -21.1458   -6.0578   25.9067 H   0  0  0  0  0  0
  -22.0592   -2.7652   23.2867 H   0  0  0  0  0  0
  -22.4057  -11.9861   22.4743 H   0  0  0  0  0  0
  -21.1175  -13.1409   22.2623 H   0  0  0  0  0  0
  -24.6366  -15.8300   20.4594 H   0  0  0  0  0  0
  -26.2432  -15.6288   19.9926 H   0  0  0  0  0  0
  -26.7148  -32.5587   23.1165 H   0  0  0  0  0  0
  -25.0120  -33.9802   25.0510 H   0  0  0  0  0  0
  -22.7014  -31.3034   21.4021 H   0  0  0  0  0  0
  -23.3749  -35.9634   23.3340 H   0  0  0  0  0  0
  -24.3563  -36.8864   22.2042 H   0  0  0  0  0  0
  -23.7237  -37.6540   23.6590 H   0  0  0  0  0  0
  -26.0405  -31.6032   20.5810 H   0  0  0  0  0  0
  -26.8263  -30.9025   21.9650 H   0  0  0  0  0  0
  -28.1162  -29.1347   21.1424 H   0  0  0  0  0  0
  -26.1107  -25.9633   19.0235 H   0  0  0  0  0  0
  -24.0056  -27.2843   19.0282 H   0  0  0  0  0  0
  -23.7198  -30.5850   19.4017 H   0  0  0  0  0  0
  -22.7478  -29.2198   19.8697 H   0  0  0  0  0  0
  -25.1295  -36.1997   25.0844 H   0  0  0  0  0  0
  -20.9994  -28.3208   24.1461 H   0  0  0  0  0  0
  -20.5546  -26.2309   23.3657 H   0  0  0  0  0  0
  -21.6675  -26.7394   22.1374 H   0  0  0  0  0  0
  -19.7014  -25.6225   21.1305 H   0  0  0  0  0  0
  -19.6754  -27.3009   20.6647 H   0  0  0  0  0  0
  -17.4260  -26.6639   21.3920 H   0  0  0  0  0  0
  -18.0348  -25.9946   22.8894 H   0  0  0  0  0  0
  -19.7842  -30.7179   24.2455 H   0  0  0  0  0  0
  -17.4906  -31.6246   24.5049 H   0  0  0  0  0  0
  -15.5289  -30.2920   23.7525 H   0  0  0  0  0  0
  -15.8694  -28.0751   22.7033 H   0  0  0  0  0  0
  -24.5826  -30.7214   25.7723 H   0  0  0  0  0  0
  -24.8927  -32.2981   26.4842 H   0  0  0  0  0  0
  -25.7952  -30.8922   27.0211 H   0  0  0  0  0  0
  -26.2927  -29.6872   24.1091 H   0  0  0  0  0  0
  -27.4109  -29.7337   25.4536 H   0  0  0  0  0  0
  -27.8717  -30.4508   23.9271 H   0  0  0  0  0  0
  -27.2796  -33.3563   26.2154 H   0  0  0  0  0  0
  -28.3854  -32.6886   25.0262 H   0  0  0  0  0  0
  -28.0815  -31.8328   26.5282 H   0  0  0  0  0  0
  -28.2660  -38.0065   24.7472 H   0  0  0  0  0  0
  -28.1022  -36.2612   24.6348 H   0  0  0  0  0  0
  -27.2286  -37.1525   25.8876 H   0  0  0  0  0  0
  -20.9297  -29.8686   21.6957 H   0  0  0  0  0  0
  -26.0196  -38.2913   24.1341 H   0  0  0  0  0  0
  -33.1175  -19.8662   22.0811 H   0  0  0  0  0  0
  -32.0963  -20.9710   21.1629 H   0  0  0  0  0  0
  -32.8461  -19.6394   20.3547 H   0  0  0  0  0  0
  -33.5409  -17.7067   21.3418 H   0  0  0  0  0  0
  -32.7834  -17.1239   19.8687 H   0  0  0  0  0  0
  -32.9473  -16.1029   21.3128 H   0  0  0  0  0  0
  -28.1945  -15.6191   23.4080 H   0  0  0  0  0  0
  -27.6766  -15.6849   21.7159 H   0  0  0  0  0  0
  -26.9888  -16.7751   22.8754 H   0  0  0  0  0  0
  -30.7839  -21.4382   22.8078 H   0  0  0  0  0  0
  -29.2166  -21.1440   23.3846 H   0  0  0  0  0  0
  -28.3604  -21.3137   20.9203 H   0  0  0  0  0  0
  -29.9575  -21.8892   20.5257 H   0  0  0  0  0  0
  -29.5894  -23.6563   22.4308 H   0  0  0  0  0  0
  -27.9070  -23.2156   22.3735 H   0  0  0  0  0  0
  -27.7036  -24.0236   20.0507 H   0  0  0  0  0  0
  -29.4323  -24.2266   19.9203 H   0  0  0  0  0  0
  -29.4140  -25.9752   21.6985 H   0  0  0  0  0  0
  -27.6829  -25.8291   21.8489 H   0  0  0  0  0  0
  -29.6575  -14.7593   22.1740 H   0  0  0  0  0  0
  1 25  1  0  0  0
  1 30  2  0  0  0
  1 85  1  0  0  0
  2  3  1  0  0  0
  2 25  1  0  0  0
  2 87  1  0  0  0
  2 88  1  0  0  0
  3  4  1  0  0  0
  3 89  1  0  0  0
  3 90  1  0  0  0
  4  5  1  0  0  0
  4 91  1  0  0  0
  4 92  1  0  0  0
  5  6  1  0  0  0
  5 26  1  0  0  0
  5 93  1  0  0  0
  6 25  1  0  0  0
  6 94  1  0  0  0
  6 95  1  0  0  0
  7  8  2  0  0  0
  7 26  1  0  0  0
  7 29  1  0  0  0
  8  9  1  0  0  0
  8 22  1  0  0  0
  9 10  1  0  0  0
  9 27  2  0  0  0
 10 11  2  0  0  0
 10 15  1  0  0  0
 11 12  1  0  0  0
 11 96  1  0  0  0
 12 13  2  0  0  0
 12 97  1  0  0  0
 13 14  1  0  0  0
 13 31  1  0  0  0
 14 15  2  0  0  0
 14 98  1  0  0  0
 15 99  1  0  0  0
 16 17  2  0  0  0
 16 21  1  0  0  0
 16 31  1  0  0  0
 17 18  1  0  0  0
 17100  1  0  0  0
 18 19  2  0  0  0
 18101  1  0  0  0
 19 20  1  0  0  0
 19 24  1  0  0  0
 20 21  2  0  0  0
 20102  1  0  0  0
 21 23  1  0  0  0
 22 28  1  0  0  0
 22 32  2  0  0  0
 26 27  1  0  0  0
 28103  1  0  0  0
 28104  1  0  0  0
 29105  1  0  0  0
 29106  1  0  0  0
 33 34  1  0  0  0
 33 66  1  0  0  0
 33 70  2  0  0  0
 34 36  1  0  0  0
 34 59  1  0  0  0
 34107  1  0  0  0
 35 44  2  0  0  0
 35 45  1  0  0  0
 35 68  1  0  0  0
 36 56  1  0  0  0
 36108  1  0  0  0
 37 39  1  0  0  0
 37 47  1  0  0  0
 37 66  1  0  0  0
 37109  1  0  0  0
 38 43  2  0  0  0
 38 46  1  0  0  0
 38 47  1  0  0  0
 39 64  1  0  0  0
 39 67  2  0  0  0
 40 52  1  0  0  0
 40 53  2  0  0  0
 40 58  1  0  0  0
 41110  1  0  0  0
 41111  1  0  0  0
 41112  1  0  0  0
 41 48  1  0  0  0
 42 43  1  0  0  0
 42 66  1  0  0  0
 42113  1  0  0  0
 42114  1  0  0  0
 43 44  1  0  0  0
 44115  1  0  0  0
 45 46  2  0  0  0
 45116  1  0  0  0
 46117  1  0  0  0
 47118  1  0  0  0
 47119  1  0  0  0
 48 56  1  0  0  0
 48 65  1  0  0  0
 48120  1  0  0  0
 49 50  1  0  0  0
 49 53  1  0  0  0
 49 64  1  0  0  0
 49121  1  0  0  0
 50 51  1  0  0  0
 50122  1  0  0  0
 50123  1  0  0  0
 51 52  1  0  0  0
 51124  1  0  0  0
 51125  1  0  0  0
 52126  1  0  0  0
 52127  1  0  0  0
 53 54  1  0  0  0
 54 55  2  0  0  0
 54128  1  0  0  0
 55 57  1  0  0  0
 55129  1  0  0  0
 56 69  2  0  0  0
 57 58  2  0  0  0
 57130  1  0  0  0
 58131  1  0  0  0
 59 60  1  0  0  0
 59 61  1  0  0  0
 59 62  1  0  0  0
 60132  1  0  0  0
 60133  1  0  0  0
 60134  1  0  0  0
 61135  1  0  0  0
 61136  1  0  0  0
 61137  1  0  0  0
 62138  1  0  0  0
 62139  1  0  0  0
 62140  1  0  0  0
 63 65  1  0  0  0
 63141  1  0  0  0
 63142  1  0  0  0
 63143  1  0  0  0
 64144  1  0  0  0
 65145  1  0  0  0
 68 84  1  0  0  0
 71 72  2  0  0  0
 71 73  1  0  0  0
 71 77  1  0  0  0
 72 75  1  0  0  0
 72 78  1  0  0  0
 73 76  2  0  0  0
 73 80  1  0  0  0
 74 75  2  0  0  0
 74 76  1  0  0  0
 74 79  1  0  0  0
 75 85  1  0  0  0
 76 86  1  0  0  0
 77146  1  0  0  0
 77147  1  0  0  0
 77148  1  0  0  0
 78149  1  0  0  0
 78150  1  0  0  0
 78151  1  0  0  0
 79152  1  0  0  0
 79153  1  0  0  0
 79154  1  0  0  0
 80 81  1  0  0  0
 80155  1  0  0  0
 80156  1  0  0  0
 81 82  1  0  0  0
 81157  1  0  0  0
 81158  1  0  0  0
 82 83  1  0  0  0
 82159  1  0  0  0
 82160  1  0  0  0
 83 84  1  0  0  0
 83161  1  0  0  0
 83162  1  0  0  0
 84163  1  0  0  0
 84164  1  0  0  0
 85165  1  0  0  0
M  ISO  4   1 100  68 101  84 101  85 100
M  END
> <chiral flag>
0

> <version>
0

> <s_m_source_file>
/data/baiqing/PycharmProjects/Reinvent-master-3.2/result/LINK_invent/BTK/process_docking_weight1_custom_sum_contain_oxygen_bond_distance_aromatic_linkinvent_7_9_3/rearranged_h_0022.sdf

> <i_m_source_file_index>
99

> <r_mmod_Potential_Energy-OPLS-2005>
8.73814964294434

> <r_mmod_Stretch_Energy-OPLS-2005>
47.128116607666

> <r_mmod_Bend_Energy-OPLS-2005>
110.114280700684

> <r_mmod_Torsional_Energy-OPLS-2005>
246.114608764648

> <r_mmod_Improper_Torsional_Energy-OPLS-2005>
4.65560293197632

> <r_mmod_Van_der_Waal_Energy-OPLS-2005>
172.39501953125

> <r_mmod_Electrostatic_Energy-OPLS-2005>
-395.538757324219

> <r_mmod_Solvation_Energy-OPLS-2005>
-189.316070556641

> <b_mmod_Minimization_Converged-OPLS-2005>
0

> <r_mmod_RMS_Derivative-OPLS-2005>
6.54782390594482

$$$$
99
                    3D
 Structure written by MMmdl.
150158  0  0  1  0            999 V2000
  -29.2868  -16.3848   20.3351 C   0  0  0  0  0  0
  -30.1660  -13.7452   19.5857 C   0  0  0  0  0  0
  -29.5086  -12.8914   18.4319 C   0  0  0  0  0  0
  -28.1595  -12.3049   18.8645 C   0  0  0  0  0  0
  -27.4731  -13.3172   19.7933 C   0  0  2  0  0  0
  -28.3349  -13.8654   20.9344 C   0  0  0  0  0  0
  -25.1757  -13.8192   20.5795 C   0  0  0  0  0  0
  -24.1284  -13.0308   20.9336 C   0  0  0  0  0  0
  -24.6056  -11.6837   20.8788 C   0  0  0  0  0  0
  -23.8887  -10.4215   21.0446 C   0  0  0  0  0  0
  -24.3523   -9.4157   21.9200 C   0  0  0  0  0  0
  -23.6248   -8.2166   22.0753 C   0  0  0  0  0  0
  -22.4228   -8.0202   21.3538 C   0  0  0  0  0  0
  -21.9823   -9.0144   20.4630 C   0  0  0  0  0  0
  -22.7104  -10.2038   20.3057 C   0  0  0  0  0  0
  -21.6826   -6.0701   22.5293 C   0  0  0  0  0  0
  -21.3998   -6.5626   23.8221 C   0  0  0  0  0  0
  -21.3654   -5.6784   24.9187 C   0  0  0  0  0  0
  -21.6041   -4.3047   24.7237 C   0  0  0  0  0  0
  -21.8820   -3.8129   23.4366 C   0  0  0  0  0  0
  -21.9187   -4.6937   22.3419 C   0  0  0  0  0  0
  -22.7372  -13.5073   21.2013 C   0  0  0  0  0  0
  -22.1656   -4.2137   21.0990 F   0  0  0  0  0  0
  -21.5632   -3.4533   25.7749 F   0  0  0  0  0  0
  -29.2118  -14.8387   20.2608 N   0  0  0  0  0  0
  -26.1968  -12.9420   20.2971 N   0  0  0  0  0  0
  -25.8914  -11.6506   20.5537 N   0  0  0  0  0  0
  -22.0080  -12.8076   22.0612 N   0  0  0  0  0  0
  -25.3426  -15.1963   20.4373 N   0  0  0  0  0  0
  -30.5615  -16.4050   20.2075 O   0  0  0  0  0  0
  -21.6599   -6.8813   21.4246 O   0  0  0  0  0  0
  -22.3096  -14.5396   20.6853 O   0  0  0  0  0  0
  -24.7345  -31.4396   22.6783 C   0  0  0  0  0  0
  -25.8791  -32.2804   23.5338 C   0  0  1  0  0  0
  -26.6126  -28.0758   21.5707 C   0  0  0  0  0  0
  -25.4562  -33.6708   23.9273 N   0  0  0  0  0  0
  -24.3951  -28.8641   20.6999 C   0  0  2  0  0  0
  -25.6608  -28.9777   19.2500 C   0  0  0  0  0  0
  -23.6586  -27.3182   22.6961 C   0  0  0  0  0  0
  -18.1767  -28.1231   22.7737 C   0  0  0  0  0  0
  -24.1387  -36.6600   23.2792 C   0  0  0  0  0  0
  -26.0094  -31.0468   20.6469 C   0  0  0  0  0  0
  -26.5448  -29.7809   20.0782 C   0  0  0  0  0  0
  -27.3616  -29.0984   20.9981 C   0  0  0  0  0  0
  -26.5369  -27.1071   20.4143 C   0  0  0  0  0  0
  -25.9822  -27.5901   19.1749 C   0  0  0  0  0  0
  -24.1661  -29.2383   19.2873 C   0  0  0  0  0  0
  -25.4093  -36.1900   24.0078 C   0  0  1  0  0  0
  -20.7756  -27.6598   23.5200 C   0  0  2  0  0  0
  -20.2468  -26.3191   23.0208 C   0  0  0  0  0  0
  -19.4958  -26.3763   21.6770 C   0  0  0  0  0  0
  -18.1061  -26.8249   22.0126 C   0  0  0  0  0  0
  -19.4363  -28.6489   23.2836 C   0  0  0  0  0  0
  -19.2513  -29.9275   23.9138 C   0  0  0  0  0  0
  -17.9796  -30.5699   24.0585 C   0  0  0  0  0  0
  -25.8967  -34.8378   23.4073 C   0  0  0  0  0  0
  -16.7929  -29.9652   23.6082 C   0  0  0  0  0  0
  -16.9105  -28.7344   22.9570 C   0  0  0  0  0  0
  -26.4084  -31.6240   24.9116 C   0  0  0  0  0  0
  -25.3179  -31.3972   25.9919 C   0  0  0  0  0  0
  -27.0711  -30.2649   24.6442 C   0  0  0  0  0  0
  -27.5192  -32.4877   25.5968 C   0  0  0  0  0  0
  -27.5381  -37.1308   24.8450 C   0  0  0  0  0  0
  -22.1272  -27.2529   22.8292 N   0  0  0  0  0  0
  -26.4028  -37.2945   23.9435 N   0  0  0  0  0  0
  -24.8629  -30.6275   21.3913 N   0  0  0  0  0  0
  -23.8961  -27.6703   23.8639 O   0  0  0  0  0  0
  -25.4227  -28.7519   22.5042 O   0  0  0  0  0  0
  -26.6583  -34.8642   22.4401 O   0  0  0  0  0  0
  -23.6519  -31.6560   23.2660 O   0  0  0  0  0  0
  -24.9983  -21.5663   20.9332 C   0  0  0  0  0  0
  -27.3915  -21.0998   20.0485 C   0  0  0  0  0  0
  -25.1359  -23.1031   20.5326 C   0  0  0  0  0  0
  -27.2288  -19.5605   20.4486 C   0  0  0  0  0  0
  -25.8135  -20.1321   20.8984 C   0  0  0  0  0  0
  -26.5586  -22.5374   20.0564 C   0  0  0  0  0  0
  -23.7657  -24.8443   20.5306 C   0  0  0  0  0  0
  -22.8045  -27.0086   20.5058 C   0  0  0  0  0  0
  -22.8904  -29.3302   22.0733 C   0  0  0  0  0  0
  -28.1625  -17.7637   20.4145 N   0  0  0  0  0  0
  -24.8272  -18.8542   21.5260 Cl  0  0  0  0  0  0
  -27.4767  -23.7786   19.2839 Cl  0  0  0  0  0  0
  -31.0326  -14.2488   19.1608 H   0  0  0  0  0  0
  -30.6058  -13.0895   20.3386 H   0  0  0  0  0  0
  -30.1838  -12.1048   18.0948 H   0  0  0  0  0  0
  -29.3431  -13.5436   17.5705 H   0  0  0  0  0  0
  -28.3241  -11.3680   19.3957 H   0  0  0  0  0  0
  -27.5378  -12.0678   17.9989 H   0  0  0  0  0  0
  -27.2523  -14.1426   19.1106 H   0  0  0  0  0  0
  -28.8333  -13.0771   21.5015 H   0  0  0  0  0  0
  -27.7372  -14.4156   21.6616 H   0  0  0  0  0  0
  -25.2662   -9.5684   22.4772 H   0  0  0  0  0  0
  -23.9976   -7.4568   22.7478 H   0  0  0  0  0  0
  -21.0753   -8.8627   19.8942 H   0  0  0  0  0  0
  -22.3544  -10.9569   19.6165 H   0  0  0  0  0  0
  -21.1980   -7.6135   23.9722 H   0  0  0  0  0  0
  -21.1478   -6.0516   25.9090 H   0  0  0  0  0  0
  -22.0606   -2.7598   23.2861 H   0  0  0  0  0  0
  -22.3738  -11.9741   22.4975 H   0  0  0  0  0  0
  -21.0693  -13.1087   22.2863 H   0  0  0  0  0  0
  -24.5988  -15.8548   20.6317 H   0  0  0  0  0  0
  -26.2042  -15.6524   20.1642 H   0  0  0  0  0  0
  -26.7712  -32.3955   22.9365 H   0  0  0  0  0  0
  -24.7792  -33.7183   24.6722 H   0  0  0  0  0  0
  -24.6163  -27.8726   20.8273 H   0  0  0  0  0  0
  -23.3577  -35.8983   23.3068 H   0  0  0  0  0  0
  -24.3405  -36.8802   22.2304 H   0  0  0  0  0  0
  -23.7233  -37.5591   23.7351 H   0  0  0  0  0  0
  -25.6613  -31.6804   19.8327 H   0  0  0  0  0  0
  -26.8079  -31.5952   21.1251 H   0  0  0  0  0  0
  -27.8128  -29.7449   21.7331 H   0  0  0  0  0  0
  -26.4007  -26.0506   20.6028 H   0  0  0  0  0  0
  -25.4432  -26.8954   18.5440 H   0  0  0  0  0  0
  -23.8920  -30.2844   19.1312 H   0  0  0  0  0  0
  -23.6816  -28.6350   18.5259 H   0  0  0  0  0  0
  -25.1459  -36.0205   25.0542 H   0  0  0  0  0  0
  -20.9462  -27.6154   24.5971 H   0  0  0  0  0  0
  -19.5315  -25.9881   23.7828 H   0  0  0  0  0  0
  -20.9194  -25.4511   23.0625 H   0  0  0  0  0  0
  -19.4648  -25.3970   21.1985 H   0  0  0  0  0  0
  -19.8892  -27.1000   20.9673 H   0  0  0  0  0  0
  -17.5523  -26.9819   21.0840 H   0  0  0  0  0  0
  -17.5501  -26.0799   22.5874 H   0  0  0  0  0  0
  -20.1089  -30.3886   24.3850 H   0  0  0  0  0  0
  -17.9211  -31.5125   24.5871 H   0  0  0  0  0  0
  -15.8319  -30.4403   23.7440 H   0  0  0  0  0  0
  -16.0176  -28.2585   22.5724 H   0  0  0  0  0  0
  -24.5449  -30.7095   25.6449 H   0  0  0  0  0  0
  -24.8282  -32.3316   26.2674 H   0  0  0  0  0  0
  -25.7404  -30.9743   26.9060 H   0  0  0  0  0  0
  -26.3288  -29.4922   24.4680 H   0  0  0  0  0  0
  -27.6385  -29.9219   25.5121 H   0  0  0  0  0  0
  -27.7670  -30.3082   23.8091 H   0  0  0  0  0  0
  -27.1424  -33.4542   25.9320 H   0  0  0  0  0  0
  -28.3506  -32.6835   24.9185 H   0  0  0  0  0  0
  -27.9278  -31.9992   26.4821 H   0  0  0  0  0  0
  -28.2170  -37.9791   24.7409 H   0  0  0  0  0  0
  -28.1050  -36.2238   24.6261 H   0  0  0  0  0  0
  -27.2138  -37.0913   25.8872 H   0  0  0  0  0  0
  -21.8410  -26.9168   21.9202 H   0  0  0  0  0  0
  -25.9575  -38.1828   24.1584 H   0  0  0  0  0  0
  -24.0120  -21.4093   21.3535 H   0  0  0  0  0  0
  -28.3586  -21.2614   19.5946 H   0  0  0  0  0  0
  -22.9443  -24.3452   21.0612 H   0  0  0  0  0  0
  -23.5603  -24.6820   19.4601 H   0  0  0  0  0  0
  -21.7707  -26.7103   20.4759 H   0  0  0  0  0  0
  -22.7595  -27.2308   19.4572 H   0  0  0  0  0  0
  -22.3581  -29.5228   23.0176 H   0  0  0  0  0  0
  -22.5428  -30.1757   21.4585 H   0  0  0  0  0  0
  -29.0351  -18.2457   20.2443 H   0  0  0  0  0  0
  1 25  1  0  0  0
  1 30  2  0  0  0
  1 80  1  0  0  0
  2  3  1  0  0  0
  2 25  1  0  0  0
  2 83  1  0  0  0
  2 84  1  0  0  0
  3  4  1  0  0  0
  3 85  1  0  0  0
  3 86  1  0  0  0
  4  5  1  0  0  0
  4 87  1  0  0  0
  4 88  1  0  0  0
  5  6  1  0  0  0
  5 26  1  0  0  0
  5 89  1  0  0  0
  6 25  1  0  0  0
  6 90  1  0  0  0
  6 91  1  0  0  0
  7  8  2  0  0  0
  7 26  1  0  0  0
  7 29  1  0  0  0
  8  9  1  0  0  0
  8 22  1  0  0  0
  9 10  1  0  0  0
  9 27  2  0  0  0
 10 11  2  0  0  0
 10 15  1  0  0  0
 11 12  1  0  0  0
 11 92  1  0  0  0
 12 13  2  0  0  0
 12 93  1  0  0  0
 13 14  1  0  0  0
 13 31  1  0  0  0
 14 15  2  0  0  0
 14 94  1  0  0  0
 15 95  1  0  0  0
 16 17  2  0  0  0
 16 21  1  0  0  0
 16 31  1  0  0  0
 17 18  1  0  0  0
 17 96  1  0  0  0
 18 19  2  0  0  0
 18 97  1  0  0  0
 19 20  1  0  0  0
 19 24  1  0  0  0
 20 21  2  0  0  0
 20 98  1  0  0  0
 21 23  1  0  0  0
 22 28  1  0  0  0
 22 32  2  0  0  0
 26 27  1  0  0  0
 28 99  1  0  0  0
 28100  1  0  0  0
 29101  1  0  0  0
 29102  1  0  0  0
 33 34  1  0  0  0
 33 66  1  0  0  0
 33 70  2  0  0  0
 34 36  1  0  0  0
 34 59  1  0  0  0
 34103  1  0  0  0
 35 44  2  0  0  0
 35 45  1  0  0  0
 35 68  1  0  0  0
 36 56  1  0  0  0
 36104  1  0  0  0
 37 39  1  0  0  0
 37 47  1  0  0  0
 37 66  1  0  0  0
 37105  1  0  0  0
 38 43  2  0  0  0
 38 46  1  0  0  0
 38 47  1  0  0  0
 39 64  1  0  0  0
 39 67  2  0  0  0
 40 52  1  0  0  0
 40 53  2  0  0  0
 40 58  1  0  0  0
 41106  1  0  0  0
 41107  1  0  0  0
 41108  1  0  0  0
 41 48  1  0  0  0
 42 43  1  0  0  0
 42 66  1  0  0  0
 42109  1  0  0  0
 42110  1  0  0  0
 43 44  1  0  0  0
 44111  1  0  0  0
 45 46  2  0  0  0
 45112  1  0  0  0
 46113  1  0  0  0
 47114  1  0  0  0
 47115  1  0  0  0
 48 56  1  0  0  0
 48 65  1  0  0  0
 48116  1  0  0  0
 49 50  1  0  0  0
 49 53  1  0  0  0
 49 64  1  0  0  0
 49117  1  0  0  0
 50 51  1  0  0  0
 50118  1  0  0  0
 50119  1  0  0  0
 51 52  1  0  0  0
 51120  1  0  0  0
 51121  1  0  0  0
 52122  1  0  0  0
 52123  1  0  0  0
 53 54  1  0  0  0
 54 55  2  0  0  0
 54124  1  0  0  0
 55 57  1  0  0  0
 55125  1  0  0  0
 56 69  2  0  0  0
 57 58  2  0  0  0
 57126  1  0  0  0
 58127  1  0  0  0
 59 60  1  0  0  0
 59 61  1  0  0  0
 59 62  1  0  0  0
 60128  1  0  0  0
 60129  1  0  0  0
 60130  1  0  0  0
 61131  1  0  0  0
 61132  1  0  0  0
 61133  1  0  0  0
 62134  1  0  0  0
 62135  1  0  0  0
 62136  1  0  0  0
 63 65  1  0  0  0
 63137  1  0  0  0
 63138  1  0  0  0
 63139  1  0  0  0
 64140  1  0  0  0
 65141  1  0  0  0
 68 79  1  0  0  0
 71 73  2  0  0  0
 71 75  1  0  0  0
 71142  1  0  0  0
 72 74  1  0  0  0
 72 76  2  0  0  0
 72143  1  0  0  0
 73 76  1  0  0  0
 73 77  1  0  0  0
 74 75  2  0  0  0
 74 80  1  0  0  0
 75 81  1  0  0  0
 76 82  1  0  0  0
 77 78  1  0  0  0
 77144  1  0  0  0
 77145  1  0  0  0
 78 79  1  0  0  0
 78146  1  0  0  0
 78147  1  0  0  0
 79148  1  0  0  0
 79149  1  0  0  0
 80150  1  0  0  0
M  ISO  4   1 100  68 101  79 101  80 100
M  END
> <chiral flag>
0

> <version>
0

> <s_m_source_file>
/data/baiqing/PycharmProjects/Reinvent-master-3.2/result/LINK_invent/BTK/process_docking_weight1_custom_sum_contain_oxygen_bond_distance_aromatic_linkinvent_7_9_3/rearranged_h_0022.sdf

> <i_m_source_file_index>
100

> <r_mmod_Potential_Energy-OPLS-2005>
21711.32421875

> <r_mmod_Stretch_Energy-OPLS-2005>
9433.552734375

> <r_mmod_Bend_Energy-OPLS-2005>
2627.18090820312

> <r_mmod_Torsional_Energy-OPLS-2005>
675.709655761719

> <r_mmod_Improper_Torsional_Energy-OPLS-2005>
130.000961303711

> <r_mmod_Van_der_Waal_Energy-OPLS-2005>
2656.11572265625

> <r_mmod_Electrostatic_Energy-OPLS-2005>
-379.788482666016

> <r_mmod_Solvation_Energy-OPLS-2005>
-214.983489990234

> <b_mmod_Minimization_Converged-OPLS-2005>
0

> <r_mmod_RMS_Derivative-OPLS-2005>
11.3256807327271

$$$$
